=
 OpenBabel10232409583D

 34 38  0  0  1  0  0  0  0  0999 V2000
  189.8310  174.5550  136.8310 C   0  0  1  0  0  0  0  0  0  0  0  0
  191.0290  175.9970  138.5810 C   0  0  0  0  0  3  0  0  0  0  0  0
  187.9110  174.1530  135.3820 C   0  0  0  0  0  2  0  0  0  0  0  0
  188.7130  174.7220  137.6820 O   0  0  0  0  0  0  0  0  0  0  0  0
  189.9670  173.1480  136.2370 C   0  0  1  0  0  3  0  0  0  0  0  0
  188.5630  175.1300  136.3400 C   0  0  1  0  0  0  0  0  0  0  0  0
  190.4430  177.1060  139.0520 C   0  0  0  0  0  0  0  0  0  0  0  0
  187.6580  177.1680  136.7920 C   0  0  0  0  0  2  0  0  0  0  0  0
  188.6460  176.5030  136.0490 O   0  0  0  0  0  0  0  0  0  0  0  0
  190.9950  175.5350  137.1500 C   0  0  1  0  0  3  0  0  0  0  0  0
  187.8760  172.0240  136.4530 O   0  0  0  0  0  1  0  0  0  0  0  0
  189.6250  177.9890  138.1540 C   0  0  0  0  0  2  0  0  0  0  0  0
  188.6250  172.8240  135.5900 C   0  0  1  0  0  3  0  0  0  0  0  0
  188.1670  177.5490  138.1840 C   0  0  0  0  0  2  0  0  0  0  0  0
  190.9420  173.1260  135.2370 O   0  0  0  0  0  1  0  0  0  0  0  0
  194.1840  174.8870  135.1180 C   0  0  0  0  0  3  0  0  0  0  0  0
  194.9150  174.1240  136.0320 C   0  0  0  0  0  0  0  0  0  0  0  0
  192.9120  175.3640  135.4460 C   0  0  0  0  0  0  0  0  0  0  0  0
  194.3700  173.8330  137.2900 C   0  0  0  0  0  0  0  0  0  0  0  0
  196.1770  173.6620  135.6800 O   0  0  0  0  0  1  0  0  0  0  0  0
  192.3590  175.0700  136.7150 C   0  0  0  0  0  0  0  0  0  0  0  0
  193.0990  174.3060  137.6230 C   0  0  0  0  0  3  0  0  0  0  0  0
  195.1280  173.0220  138.2830 C   0  0  0  0  0  1  0  0  0  0  0  0
  192.1830  176.1800  134.4320 C   0  0  0  0  0  1  0  0  0  0  0  0
  190.5390  177.4460  140.4960 C   0  0  0  0  0  0  0  0  0  0  0  0
  191.6590  177.8050  140.9540 O   0  0  0  0  0  0  0  0  0  0  0  0
  185.8900  179.3490  141.9370 Cl  0  0  0  0  0  0  0  0  0  0  0  0
  189.3070  176.3880  142.4370 C   0  0  0  0  0  0  0  0  0  0  0  0
  187.2000  178.2050  142.1280 C   0  0  0  0  0  0  0  0  0  0  0  0
  190.3420  175.4780  142.6250 O   0  0  0  0  0  1  0  0  0  0  0  0
  188.1940  176.3280  143.2810 C   0  0  0  0  0  3  0  0  0  0  0  0
  188.3070  178.2670  141.2800 C   0  0  0  0  0  3  0  0  0  0  0  0
  189.3770  177.3700  141.4230 C   0  0  0  0  0  0  0  0  0  0  0  0
  187.1430  177.2350  143.1280 C   0  0  0  0  0  3  0  0  0  0  0  0
  1 10  1  0  0  0  0
  1  4  1  1  0  0  0
  2  7  2  0  0  0  0
  3 13  1  0  0  0  0
  5 15  1  6  0  0  0
  5  1  1  0  0  0  0
  6  3  1  6  0  0  0
  6  1  1  0  0  0  0
  6  4  1  0  0  0  0
  7 25  1  0  0  0  0
  8 14  1  0  0  0  0
  9  6  1  0  0  0  0
  9  8  1  0  0  0  0
 10 21  1  1  0  0  0
 10  2  1  0  0  0  0
 12 14  1  0  0  0  0
 12  7  1  0  0  0  0
 13  5  1  0  0  0  0
 13 11  1  1  0  0  0
 16 18  2  0  0  0  0
 16 17  1  0  0  0  0
 17 19  2  0  0  0  0
 18 21  1  0  0  0  0
 19 22  1  0  0  0  0
 19 23  1  0  0  0  0
 20 17  1  0  0  0  0
 21 22  2  0  0  0  0
 24 18  1  0  0  0  0
 25 26  2  0  0  0  0
 25 33  1  0  0  0  0
 27 29  1  0  0  0  0
 28 30  1  0  0  0  0
 28 31  1  0  0  0  0
 29 34  1  0  0  0  0
 32 33  1  0  0  0  0
 32 29  2  0  0  0  0
 33 28  2  0  0  0  0
 34 31  2  0  0  0  0
M  END
>  <MODEL>
1

>  <REMARK>
 VINA RESULT:      -7.7      0.000      0.000
  Name = 
  3 active torsions:
  status: ('A' for Active; 'I' for Inactive)
    1  A    between atoms: C_8  and  C_24
    2  A    between atoms: C_19  and  C_27
    3  A    between atoms: C_24  and  C_30
                            x       y       z     vdW  Elec       q    Type
                         _______ _______ _______ _____ _____    ______ ____

>  <TORSDO>
F 3

$$$$
=
 OpenBabel10232409583D

 34 38  0  0  1  0  0  0  0  0999 V2000
  188.8490  176.9200  136.8390 C   0  0  1  0  0  0  0  0  0  0  0  0
  187.5480  177.5150  138.9670 C   0  0  0  0  0  3  0  0  0  0  0  0
  190.9380  176.2990  135.7460 C   0  0  0  0  0  2  0  0  0  0  0  0
  189.7920  177.8490  137.3390 O   0  0  0  0  0  0  0  0  0  0  0  0
  188.6340  176.9940  135.3210 C   0  0  1  0  0  3  0  0  0  0  0  0
  190.2560  176.5430  137.0760 C   0  0  1  0  0  0  0  0  0  0  0  0
  188.1810  177.5730  140.1460 C   0  0  0  0  0  0  0  0  0  0  0  0
  191.3330  176.2520  139.0590 C   0  0  0  0  0  2  0  0  0  0  0  0
  190.4250  175.6660  138.1620 O   0  0  0  0  0  0  0  0  0  0  0  0
  187.7940  176.4880  137.8960 C   0  0  1  0  0  3  0  0  0  0  0  0
  190.4650  178.1730  134.3500 O   0  0  0  0  0  1  0  0  0  0  0  0
  189.2730  176.6010  140.4860 C   0  0  0  0  0  2  0  0  0  0  0  0
  190.0180  176.8950  134.6880 C   0  0  1  0  0  3  0  0  0  0  0  0
  190.6220  177.1670  140.0570 C   0  0  0  0  0  2  0  0  0  0  0  0
  187.8800  175.9060  134.8760 O   0  0  0  0  0  1  0  0  0  0  0  0
  185.0170  174.2630  136.4620 C   0  0  0  0  0  3  0  0  0  0  0  0
  184.0070  175.2100  136.2750 C   0  0  0  0  0  0  0  0  0  0  0  0
  186.2570  174.6400  136.9870 C   0  0  0  0  0  0  0  0  0  0  0  0
  184.2350  176.5500  136.6170 C   0  0  0  0  0  0  0  0  0  0  0  0
  182.7840  174.8090  135.7500 O   0  0  0  0  0  1  0  0  0  0  0  0
  186.4900  175.9920  137.3320 C   0  0  0  0  0  0  0  0  0  0  0  0
  185.4720  176.9320  137.1410 C   0  0  0  0  0  3  0  0  0  0  0  0
  183.1760  177.5790  136.4270 C   0  0  0  0  0  1  0  0  0  0  0  0
  187.2930  173.5830  137.1720 C   0  0  0  0  0  1  0  0  0  0  0  0
  187.8530  178.6510  141.1170 C   0  0  0  0  0  0  0  0  0  0  0  0
  188.5710  179.6890  141.1240 O   0  0  0  0  0  0  0  0  0  0  0  0
  186.2260  177.3130  145.8990 Cl  0  0  0  0  0  0  0  0  0  0  0  0
  185.4250  178.9830  141.7440 C   0  0  0  0  0  0  0  0  0  0  0  0
  185.9160  177.9610  144.3040 C   0  0  0  0  0  0  0  0  0  0  0  0
  185.1440  179.4850  140.4780 O   0  0  0  0  0  1  0  0  0  0  0  0
  184.3900  178.8960  142.6800 C   0  0  0  0  0  3  0  0  0  0  0  0
  186.9540  178.0500  143.3750 C   0  0  0  0  0  3  0  0  0  0  0  0
  186.7270  178.5520  142.0840 C   0  0  0  0  0  0  0  0  0  0  0  0
  184.6340  178.3850  143.9570 C   0  0  0  0  0  3  0  0  0  0  0  0
  1  6  1  0  0  0  0
  1  4  1  1  0  0  0
  1 10  1  0  0  0  0
  2  7  2  0  0  0  0
  5 15  1  6  0  0  0
  5  1  1  0  0  0  0
  6  3  1  6  0  0  0
  6  4  1  0  0  0  0
  6  9  1  0  0  0  0
  7 12  1  0  0  0  0
  7 25  1  0  0  0  0
  8 14  1  0  0  0  0
  9  8  1  0  0  0  0
 10 21  1  6  0  0  0
 10  2  1  0  0  0  0
 13 11  1  1  0  0  0
 13  5  1  0  0  0  0
 13  3  1  0  0  0  0
 14 12  1  0  0  0  0
 16 18  1  0  0  0  0
 17 16  2  0  0  0  0
 17 19  1  0  0  0  0
 18 24  1  0  0  0  0
 18 21  2  0  0  0  0
 19 22  2  0  0  0  0
 20 17  1  0  0  0  0
 22 21  1  0  0  0  0
 23 19  1  0  0  0  0
 25 26  2  0  0  0  0
 25 33  1  0  0  0  0
 28 33  2  0  0  0  0
 28 31  1  0  0  0  0
 29 27  1  0  0  0  0
 30 28  1  0  0  0  0
 31 34  2  0  0  0  0
 32 29  2  0  0  0  0
 33 32  1  0  0  0  0
 34 29  1  0  0  0  0
M  END
>  <MODEL>
2

>  <REMARK>
 VINA RESULT:      -6.9      2.867      6.020
  Name = 
  3 active torsions:
  status: ('A' for Active; 'I' for Inactive)
    1  A    between atoms: C_8  and  C_24
    2  A    between atoms: C_19  and  C_27
    3  A    between atoms: C_24  and  C_30
                            x       y       z     vdW  Elec       q    Type
                         _______ _______ _______ _____ _____    ______ ____

>  <TORSDO>
F 3

$$$$
=
 OpenBabel10232409583D

 34 38  0  0  1  0  0  0  0  0999 V2000
  189.3970  177.2390  138.2940 C   0  0  1  0  0  0  0  0  0  0  0  0
  191.8040  176.3950  138.5640 C   0  0  0  0  0  3  0  0  0  0  0  0
  187.2490  177.1610  137.1430 C   0  0  0  0  0  2  0  0  0  0  0  0
  189.7360  177.3040  136.9220 O   0  0  0  0  0  0  0  0  0  0  0  0
  188.5470  178.4150  138.7910 C   0  0  1  0  0  3  0  0  0  0  0  0
  188.6160  176.5200  137.2690 C   0  0  1  0  0  0  0  0  0  0  0  0
  192.2840  175.4590  137.7330 C   0  0  0  0  0  0  0  0  0  0  0  0
  189.2070  174.6840  136.0620 C   0  0  0  0  0  2  0  0  0  0  0  0
  188.7730  175.1240  137.3230 O   0  0  0  0  0  0  0  0  0  0  0  0
  190.4140  176.4200  139.1380 C   0  0  1  0  0  3  0  0  0  0  0  0
  187.5840  179.5090  136.9040 O   0  0  0  0  0  1  0  0  0  0  0  0
  191.4130  174.3360  137.2490 C   0  0  0  0  0  2  0  0  0  0  0  0
  187.3530  178.5080  137.8470 C   0  0  1  0  0  3  0  0  0  0  0  0
  190.7310  174.7350  135.9460 C   0  0  0  0  0  2  0  0  0  0  0  0
  188.0600  178.1650  140.0760 O   0  0  0  0  0  1  0  0  0  0  0  0
  191.5200  177.6800  142.5880 C   0  0  0  0  0  3  0  0  0  0  0  0
  190.4010  177.3400  143.3520 C   0  0  0  0  0  0  0  0  0  0  0  0
  191.5600  177.4000  141.2200 C   0  0  0  0  0  0  0  0  0  0  0  0
  189.3050  176.7130  142.7420 C   0  0  0  0  0  0  0  0  0  0  0  0
  190.3880  177.6290  144.7110 O   0  0  0  0  0  1  0  0  0  0  0  0
  190.4550  176.7660  140.6020 C   0  0  0  0  0  0  0  0  0  0  0  0
  189.3390  176.4300  141.3750 C   0  0  0  0  0  3  0  0  0  0  0  0
  188.0990  176.3410  143.5330 C   0  0  0  0  0  1  0  0  0  0  0  0
  192.7790  177.7930  140.4560 C   0  0  0  0  0  1  0  0  0  0  0  0
  193.6770  175.5580  137.2240 C   0  0  0  0  0  0  0  0  0  0  0  0
  194.0410  176.6360  136.6780 O   0  0  0  0  0  0  0  0  0  0  0  0
  195.7350  171.2770  135.0430 Cl  0  0  0  0  0  0  0  0  0  0  0  0
  195.5240  174.3130  138.4240 C   0  0  0  0  0  0  0  0  0  0  0  0
  195.6600  172.4460  136.3430 C   0  0  0  0  0  0  0  0  0  0  0  0
  195.4750  175.2160  139.4810 O   0  0  0  0  0  1  0  0  0  0  0  0
  196.4440  173.2610  138.4780 C   0  0  0  0  0  3  0  0  0  0  0  0
  194.7420  173.4960  136.2810 C   0  0  0  0  0  3  0  0  0  0  0  0
  194.6530  174.4380  137.3190 C   0  0  0  0  0  0  0  0  0  0  0  0
  196.5120  172.3290  137.4400 C   0  0  0  0  0  3  0  0  0  0  0  0
  1  4  1  6  0  0  0
  1  5  1  0  0  0  0
  1 10  1  0  0  0  0
  2 10  1  0  0  0  0
  3 13  1  0  0  0  0
  4  6  1  0  0  0  0
  5 15  1  1  0  0  0
  6  3  1  6  0  0  0
  6  9  1  0  0  0  0
  6  1  1  0  0  0  0
  7  2  2  0  0  0  0
  8  9  1  0  0  0  0
 10 21  1  1  0  0  0
 12  7  1  0  0  0  0
 13 11  1  6  0  0  0
 13  5  1  0  0  0  0
 14  8  1  0  0  0  0
 14 12  1  0  0  0  0
 16 17  1  0  0  0  0
 17 20  1  0  0  0  0
 18 16  2  0  0  0  0
 19 17  2  0  0  0  0
 19 23  1  0  0  0  0
 21 18  1  0  0  0  0
 21 22  2  0  0  0  0
 22 19  1  0  0  0  0
 24 18  1  0  0  0  0
 25 33  1  0  0  0  0
 25  7  1  0  0  0  0
 26 25  2  0  0  0  0
 27 29  1  0  0  0  0
 28 31  1  0  0  0  0
 28 30  1  0  0  0  0
 29 34  1  0  0  0  0
 32 29  2  0  0  0  0
 32 33  1  0  0  0  0
 33 28  2  0  0  0  0
 34 31  2  0  0  0  0
M  END
>  <MODEL>
3

>  <REMARK>
 VINA RESULT:      -6.8      3.088      7.144
  Name = 
  3 active torsions:
  status: ('A' for Active; 'I' for Inactive)
    1  A    between atoms: C_8  and  C_24
    2  A    between atoms: C_19  and  C_27
    3  A    between atoms: C_24  and  C_30
                            x       y       z     vdW  Elec       q    Type
                         _______ _______ _______ _____ _____    ______ ____

>  <TORSDO>
F 3

$$$$
=
 OpenBabel10232409583D

 34 38  0  0  1  0  0  0  0  0999 V2000
  184.8250  176.2630  137.3790 C   0  0  1  0  0  0  0  0  0  0  0  0
  186.1560  177.7680  138.9730 C   0  0  0  0  0  3  0  0  0  0  0  0
  182.7150  175.6540  136.3190 C   0  0  0  0  0  2  0  0  0  0  0  0
  183.9030  176.2030  138.4500 O   0  0  0  0  0  0  0  0  0  0  0  0
  185.0270  174.9320  136.6440 C   0  0  1  0  0  3  0  0  0  0  0  0
  183.4140  176.6610  137.2090 C   0  0  1  0  0  0  0  0  0  0  0  0
  185.5350  178.7420  139.6510 C   0  0  0  0  0  0  0  0  0  0  0  0
  182.3500  178.5030  138.0180 C   0  0  0  0  0  2  0  0  0  0  0  0
  183.2400  178.0450  137.0330 O   0  0  0  0  0  0  0  0  0  0  0  0
  185.8820  177.3910  137.5420 C   0  0  1  0  0  3  0  0  0  0  0  0
  183.2080  173.4850  137.1770 O   0  0  0  0  0  1  0  0  0  0  0  0
  184.4290  179.5380  139.0210 C   0  0  0  0  0  2  0  0  0  0  0  0
  183.6360  174.4420  136.2560 C   0  0  1  0  0  3  0  0  0  0  0  0
  183.0870  178.8760  139.3060 C   0  0  0  0  0  2  0  0  0  0  0  0
  185.7580  175.1220  135.4700 O   0  0  0  0  0  1  0  0  0  0  0  0
  188.6200  177.3690  134.8550 C   0  0  0  0  0  3  0  0  0  0  0  0
  189.6290  176.6780  135.5300 C   0  0  0  0  0  0  0  0  0  0  0  0
  187.3930  177.6210  135.4760 C   0  0  0  0  0  0  0  0  0  0  0  0
  189.4130  176.2330  136.8420 C   0  0  0  0  0  0  0  0  0  0  0  0
  190.8390  176.4390  134.8890 O   0  0  0  0  0  1  0  0  0  0  0  0
  187.1720  177.1720  136.8000 C   0  0  0  0  0  0  0  0  0  0  0  0
  188.1890  176.4810  137.4670 C   0  0  0  0  0  3  0  0  0  0  0  0
  190.4730  175.4940  137.5830 C   0  0  0  0  0  1  0  0  0  0  0  0
  186.3570  178.3700  134.7080 C   0  0  0  0  0  1  0  0  0  0  0  0
  185.8900  179.0060  141.0710 C   0  0  0  0  0  0  0  0  0  0  0  0
  185.2630  179.9110  141.6870 O   0  0  0  0  0  0  0  0  0  0  0  0
  190.8250  177.2880  141.1250 Cl  0  0  0  0  0  0  0  0  0  0  0  0
  186.7290  177.6910  143.0630 C   0  0  0  0  0  0  0  0  0  0  0  0
  189.2520  177.4460  141.8760 C   0  0  0  0  0  0  0  0  0  0  0  0
  185.4840  177.7830  143.6760 O   0  0  0  0  0  1  0  0  0  0  0  0
  187.7570  177.0090  143.7220 C   0  0  0  0  0  3  0  0  0  0  0  0
  188.2320  178.1310  141.2140 C   0  0  0  0  0  3  0  0  0  0  0  0
  186.9570  178.2580  141.7890 C   0  0  0  0  0  0  0  0  0  0  0  0
  189.0150  176.8860  143.1300 C   0  0  0  0  0  3  0  0  0  0  0  0
  1 10  1  0  0  0  0
  1  4  1  1  0  0  0
  2  7  2  0  0  0  0
  5 15  1  6  0  0  0
  5  1  1  0  0  0  0
  6  3  1  6  0  0  0
  6  1  1  0  0  0  0
  6  4  1  0  0  0  0
  7 25  1  0  0  0  0
  8 14  1  0  0  0  0
  9  6  1  0  0  0  0
  9  8  1  0  0  0  0
 10 21  1  1  0  0  0
 10  2  1  0  0  0  0
 12 14  1  0  0  0  0
 12  7  1  0  0  0  0
 13  3  1  0  0  0  0
 13  5  1  0  0  0  0
 13 11  1  1  0  0  0
 16 18  2  0  0  0  0
 16 17  1  0  0  0  0
 17 19  2  0  0  0  0
 18 21  1  0  0  0  0
 19 22  1  0  0  0  0
 19 23  1  0  0  0  0
 20 17  1  0  0  0  0
 21 22  2  0  0  0  0
 24 18  1  0  0  0  0
 25 26  2  0  0  0  0
 25 33  1  0  0  0  0
 27 29  1  0  0  0  0
 28 30  1  0  0  0  0
 28 31  1  0  0  0  0
 29 34  1  0  0  0  0
 32 33  1  0  0  0  0
 32 29  2  0  0  0  0
 33 28  2  0  0  0  0
 34 31  2  0  0  0  0
M  END
>  <MODEL>
4

>  <REMARK>
 VINA RESULT:      -6.7      3.475      5.112
  Name = 
  3 active torsions:
  status: ('A' for Active; 'I' for Inactive)
    1  A    between atoms: C_8  and  C_24
    2  A    between atoms: C_19  and  C_27
    3  A    between atoms: C_24  and  C_30
                            x       y       z     vdW  Elec       q    Type
                         _______ _______ _______ _____ _____    ______ ____

>  <TORSDO>
F 3

$$$$
=
 OpenBabel10232409583D

 34 38  0  0  1  0  0  0  0  0999 V2000
  189.0090  176.9170  136.8590 C   0  0  1  0  0  0  0  0  0  0  0  0
  187.8510  177.3330  139.1090 C   0  0  0  0  0  3  0  0  0  0  0  0
  191.0290  176.4360  135.5810 C   0  0  0  0  0  2  0  0  0  0  0  0
  189.9590  177.8430  137.3500 O   0  0  0  0  0  0  0  0  0  0  0  0
  188.6810  177.0790  135.3690 C   0  0  1  0  0  3  0  0  0  0  0  0
  190.4400  176.5720  136.9700 C   0  0  1  0  0  0  0  0  0  0  0  0
  188.5670  177.3380  140.2420 C   0  0  0  0  0  0  0  0  0  0  0  0
  191.6670  176.1930  138.8480 C   0  0  0  0  0  2  0  0  0  0  0  0
  190.7130  175.6350  137.9820 O   0  0  0  0  0  0  0  0  0  0  0  0
  188.0470  176.3840  137.9580 C   0  0  1  0  0  3  0  0  0  0  0  0
  190.4010  178.3770  134.3480 O   0  0  0  0  0  1  0  0  0  0  0  0
  189.7090  176.3830  140.4380 C   0  0  0  0  0  2  0  0  0  0  0  0
  190.0170  177.0660  134.6340 C   0  0  1  0  0  3  0  0  0  0  0  0
  191.0050  177.0190  139.9520 C   0  0  0  0  0  2  0  0  0  0  0  0
  187.9280  175.9970  134.9090 O   0  0  0  0  0  1  0  0  0  0  0  0
  185.2260  174.1530  136.6250 C   0  0  0  0  0  3  0  0  0  0  0  0
  184.1910  175.0870  136.5270 C   0  0  0  0  0  0  0  0  0  0  0  0
  186.4880  174.5360  137.0870 C   0  0  0  0  0  0  0  0  0  0  0  0
  184.4180  176.4210  136.8950 C   0  0  0  0  0  0  0  0  0  0  0  0
  182.9460  174.6800  136.0630 O   0  0  0  0  0  1  0  0  0  0  0  0
  186.7200  175.8820  137.4580 C   0  0  0  0  0  0  0  0  0  0  0  0
  185.6770  176.8090  137.3570 C   0  0  0  0  0  3  0  0  0  0  0  0
  183.3320  177.4360  136.8010 C   0  0  0  0  0  1  0  0  0  0  0  0
  187.5500  173.4930  137.1770 C   0  0  0  0  0  1  0  0  0  0  0  0
  188.2810  178.3410  141.3010 C   0  0  0  0  0  0  0  0  0  0  0  0
  188.1240  179.5460  140.9590 O   0  0  0  0  0  0  0  0  0  0  0  0
  190.7560  177.3680  145.8000 Cl  0  0  0  0  0  0  0  0  0  0  0  0
  186.9330  177.8060  143.3740 C   0  0  0  0  0  0  0  0  0  0  0  0
  189.2840  177.5410  144.8710 C   0  0  0  0  0  0  0  0  0  0  0  0
  185.7460  177.9180  142.6580 O   0  0  0  0  0  1  0  0  0  0  0  0
  186.8720  177.4920  144.7360 C   0  0  0  0  0  3  0  0  0  0  0  0
  189.3520  177.8580  143.5130 C   0  0  0  0  0  3  0  0  0  0  0  0
  188.1840  177.9870  142.7430 C   0  0  0  0  0  0  0  0  0  0  0  0
  188.0440  177.3590  145.4820 C   0  0  0  0  0  3  0  0  0  0  0  0
  1  6  1  0  0  0  0
  1  4  1  1  0  0  0
  1 10  1  0  0  0  0
  2  7  2  0  0  0  0
  5 15  1  6  0  0  0
  5  1  1  0  0  0  0
  6  3  1  6  0  0  0
  6  4  1  0  0  0  0
  6  9  1  0  0  0  0
  7 12  1  0  0  0  0
  7 25  1  0  0  0  0
  8 14  1  0  0  0  0
  9  8  1  0  0  0  0
 10 21  1  6  0  0  0
 10  2  1  0  0  0  0
 13 11  1  1  0  0  0
 13  5  1  0  0  0  0
 13  3  1  0  0  0  0
 14 12  1  0  0  0  0
 16 18  1  0  0  0  0
 17 16  2  0  0  0  0
 17 19  1  0  0  0  0
 18 24  1  0  0  0  0
 18 21  2  0  0  0  0
 19 22  2  0  0  0  0
 20 17  1  0  0  0  0
 22 21  1  0  0  0  0
 23 19  1  0  0  0  0
 25 33  1  0  0  0  0
 26 25  2  0  0  0  0
 28 31  1  0  0  0  0
 29 34  1  0  0  0  0
 29 27  1  0  0  0  0
 30 28  1  0  0  0  0
 31 34  2  0  0  0  0
 32 29  2  0  0  0  0
 33 28  2  0  0  0  0
 33 32  1  0  0  0  0
M  END
>  <MODEL>
5

>  <REMARK>
 VINA RESULT:      -6.6      2.921      5.876
  Name = 
  3 active torsions:
  status: ('A' for Active; 'I' for Inactive)
    1  A    between atoms: C_8  and  C_24
    2  A    between atoms: C_19  and  C_27
    3  A    between atoms: C_24  and  C_30
                            x       y       z     vdW  Elec       q    Type
                         _______ _______ _______ _____ _____    ______ ____

>  <TORSDO>
F 3

$$$$
=
 OpenBabel10232409583D

 34 38  0  0  1  0  0  0  0  0999 V2000
  184.0020  175.3120  137.2750 C   0  0  1  0  0  0  0  0  0  0  0  0
  184.0240  177.5650  138.5010 C   0  0  0  0  0  3  0  0  0  0  0  0
  182.7710  173.5240  136.1650 C   0  0  0  0  0  2  0  0  0  0  0  0
  182.9500  175.0080  138.1700 O   0  0  0  0  0  0  0  0  0  0  0  0
  184.9720  174.1510  137.0220 C   0  0  1  0  0  3  0  0  0  0  0  0
  182.6700  174.9000  136.7910 C   0  0  1  0  0  0  0  0  0  0  0  0
  182.8730  178.2030  138.7510 C   0  0  0  0  0  0  0  0  0  0  0  0
  180.7190  176.0690  136.8350 C   0  0  0  0  0  2  0  0  0  0  0  0
  181.9520  175.9390  136.1750 O   0  0  0  0  0  0  0  0  0  0  0  0
  184.3520  176.8270  137.2320 C   0  0  1  0  0  3  0  0  0  0  0  0
  183.9250  172.1220  137.7090 O   0  0  0  0  0  1  0  0  0  0  0  0
  181.7490  178.1880  137.7560 C   0  0  0  0  0  2  0  0  0  0  0  0
  184.1140  172.9600  136.6090 C   0  0  1  0  0  3  0  0  0  0  0  0
  180.8240  177.0100  138.0370 C   0  0  0  0  0  2  0  0  0  0  0  0
  185.8320  174.4470  135.9630 O   0  0  0  0  0  1  0  0  0  0  0  0
  187.4220  177.7070  135.1070 C   0  0  0  0  0  3  0  0  0  0  0  0
  188.4150  177.7160  136.0900 C   0  0  0  0  0  0  0  0  0  0  0  0
  186.0950  177.4250  135.4400 C   0  0  0  0  0  0  0  0  0  0  0  0
  188.0790  177.4420  137.4230 C   0  0  0  0  0  0  0  0  0  0  0  0
  189.7280  177.9980  135.7320 O   0  0  0  0  0  1  0  0  0  0  0  0
  185.7530  177.1470  136.7850 C   0  0  0  0  0  0  0  0  0  0  0  0
  186.7540  177.1590  137.7610 C   0  0  0  0  0  3  0  0  0  0  0  0
  189.1180  177.4460  138.4910 C   0  0  0  0  0  1  0  0  0  0  0  0
  185.0780  177.4380  134.3480 C   0  0  0  0  0  1  0  0  0  0  0  0
  182.6660  178.8860  140.0560 C   0  0  0  0  0  0  0  0  0  0  0  0
  181.6210  179.5740  140.2140 O   0  0  0  0  0  0  0  0  0  0  0  0
  187.6640  178.6600  141.5660 Cl  0  0  0  0  0  0  0  0  0  0  0  0
  183.2180  178.7740  142.5230 C   0  0  0  0  0  0  0  0  0  0  0  0
  185.9550  178.7090  141.9380 C   0  0  0  0  0  0  0  0  0  0  0  0
  181.8660  178.7930  142.8490 O   0  0  0  0  0  1  0  0  0  0  0  0
  184.1600  178.7130  143.5550 C   0  0  0  0  0  3  0  0  0  0  0  0
  185.0200  178.7750  140.9030 C   0  0  0  0  0  3  0  0  0  0  0  0
  183.6430  178.8000  141.1760 C   0  0  0  0  0  0  0  0  0  0  0  0
  185.5250  178.6790  143.2640 C   0  0  0  0  0  3  0  0  0  0  0  0
  1  4  1  1  0  0  0
  2  7  2  0  0  0  0
  3 13  1  0  0  0  0
  5 15  1  6  0  0  0
  5  1  1  0  0  0  0
  6  3  1  6  0  0  0
  6  1  1  0  0  0  0
  6  4  1  0  0  0  0
  7 25  1  0  0  0  0
  8 14  1  0  0  0  0
  9  6  1  0  0  0  0
  9  8  1  0  0  0  0
 10 21  1  1  0  0  0
 10  1  1  0  0  0  0
 10  2  1  0  0  0  0
 12 14  1  0  0  0  0
 12  7  1  0  0  0  0
 13  5  1  0  0  0  0
 13 11  1  1  0  0  0
 16 18  2  0  0  0  0
 16 17  1  0  0  0  0
 17 19  2  0  0  0  0
 18 21  1  0  0  0  0
 19 22  1  0  0  0  0
 19 23  1  0  0  0  0
 20 17  1  0  0  0  0
 21 22  2  0  0  0  0
 24 18  1  0  0  0  0
 25 26  2  0  0  0  0
 25 33  1  0  0  0  0
 27 29  1  0  0  0  0
 28 30  1  0  0  0  0
 28 31  1  0  0  0  0
 29 34  1  0  0  0  0
 32 33  1  0  0  0  0
 32 29  2  0  0  0  0
 33 28  2  0  0  0  0
 34 31  2  0  0  0  0
M  END
>  <MODEL>
6

>  <REMARK>
 VINA RESULT:      -6.5      4.450      6.510
  Name = 
  3 active torsions:
  status: ('A' for Active; 'I' for Inactive)
    1  A    between atoms: C_8  and  C_24
    2  A    between atoms: C_19  and  C_27
    3  A    between atoms: C_24  and  C_30
                            x       y       z     vdW  Elec       q    Type
                         _______ _______ _______ _____ _____    ______ ____

>  <TORSDO>
F 3

$$$$
=
 OpenBabel10232409583D

 34 38  0  0  1  0  0  0  0  0999 V2000
  187.6690  175.0220  136.5870 C   0  0  1  0  0  0  0  0  0  0  0  0
  188.7200  176.6540  138.2650 C   0  0  0  0  0  3  0  0  0  0  0  0
  185.7610  174.3080  135.2490 C   0  0  0  0  0  2  0  0  0  0  0  0
  186.5880  175.0220  137.4990 O   0  0  0  0  0  0  0  0  0  0  0  0
  187.9930  173.6470  135.9900 C   0  0  1  0  0  3  0  0  0  0  0  0
  186.3020  175.3860  136.1660 C   0  0  1  0  0  0  0  0  0  0  0  0
  187.9930  177.6630  138.7640 C   0  0  0  0  0  0  0  0  0  0  0  0
  185.1150  177.2610  136.6620 C   0  0  0  0  0  2  0  0  0  0  0  0
  186.1530  176.7510  135.8670 O   0  0  0  0  0  0  0  0  0  0  0  0
  188.6810  176.1760  136.8390 C   0  0  1  0  0  3  0  0  0  0  0  0
  186.1190  172.2120  136.3250 O   0  0  0  0  0  1  0  0  0  0  0  0
  187.0000  178.3960  137.9110 C   0  0  0  0  0  2  0  0  0  0  0  0
  186.6860  173.1100  135.4200 C   0  0  1  0  0  3  0  0  0  0  0  0
  185.6320  177.7340  138.0220 C   0  0  0  0  0  2  0  0  0  0  0  0
  188.9030  173.7670  134.9380 O   0  0  0  0  0  1  0  0  0  0  0  0
  191.9050  176.2470  134.7600 C   0  0  0  0  0  3  0  0  0  0  0  0
  192.6950  175.3540  135.4880 C   0  0  0  0  0  0  0  0  0  0  0  0
  190.6010  176.5400  135.1690 C   0  0  0  0  0  0  0  0  0  0  0  0
  192.1770  174.7450  136.6400 C   0  0  0  0  0  0  0  0  0  0  0  0
  193.9870  175.0790  135.0600 O   0  0  0  0  0  1  0  0  0  0  0  0
  190.0750  175.9260  136.3300 C   0  0  0  0  0  0  0  0  0  0  0  0
  190.8740  175.0330  137.0520 C   0  0  0  0  0  3  0  0  0  0  0  0
  192.9970  173.7890  137.4350 C   0  0  0  0  0  1  0  0  0  0  0  0
  189.8090  177.5070  134.3550 C   0  0  0  0  0  1  0  0  0  0  0  0
  188.1130  178.0290  140.2000 C   0  0  0  0  0  0  0  0  0  0  0  0
  187.2110  178.7460  140.7130 O   0  0  0  0  0  0  0  0  0  0  0  0
  193.2680  177.3000  140.6610 Cl  0  0  0  0  0  0  0  0  0  0  0  0
  189.0590  177.1670  142.3830 C   0  0  0  0  0  0  0  0  0  0  0  0
  191.6510  177.2530  141.3280 C   0  0  0  0  0  0  0  0  0  0  0  0
  187.7840  177.1000  142.9340 O   0  0  0  0  0  1  0  0  0  0  0  0
  190.1530  176.7840  143.1650 C   0  0  0  0  0  3  0  0  0  0  0  0
  190.5630  177.6400  140.5430 C   0  0  0  0  0  3  0  0  0  0  0  0
  189.2550  177.5970  141.0510 C   0  0  0  0  0  0  0  0  0  0  0  0
  191.4460  176.8260  142.6390 C   0  0  0  0  0  3  0  0  0  0  0  0
  1 10  1  0  0  0  0
  1  4  1  1  0  0  0
  2  7  2  0  0  0  0
  3 13  1  0  0  0  0
  5 15  1  6  0  0  0
  5  1  1  0  0  0  0
  6  3  1  6  0  0  0
  6  1  1  0  0  0  0
  6  4  1  0  0  0  0
  7 25  1  0  0  0  0
  8 14  1  0  0  0  0
  9  6  1  0  0  0  0
  9  8  1  0  0  0  0
 10 21  1  1  0  0  0
 10  2  1  0  0  0  0
 12 14  1  0  0  0  0
 12  7  1  0  0  0  0
 13  5  1  0  0  0  0
 13 11  1  1  0  0  0
 16 18  2  0  0  0  0
 16 17  1  0  0  0  0
 17 19  2  0  0  0  0
 18 21  1  0  0  0  0
 19 22  1  0  0  0  0
 19 23  1  0  0  0  0
 20 17  1  0  0  0  0
 21 22  2  0  0  0  0
 24 18  1  0  0  0  0
 25 26  2  0  0  0  0
 25 33  1  0  0  0  0
 27 29  1  0  0  0  0
 28 30  1  0  0  0  0
 28 31  1  0  0  0  0
 29 34  1  0  0  0  0
 32 33  1  0  0  0  0
 32 29  2  0  0  0  0
 33 28  2  0  0  0  0
 34 31  2  0  0  0  0
M  END
>  <MODEL>
7

>  <REMARK>
 VINA RESULT:      -6.1      2.241      2.904
  Name = 
  3 active torsions:
  status: ('A' for Active; 'I' for Inactive)
    1  A    between atoms: C_8  and  C_24
    2  A    between atoms: C_19  and  C_27
    3  A    between atoms: C_24  and  C_30
                            x       y       z     vdW  Elec       q    Type
                         _______ _______ _______ _____ _____    ______ ____

>  <TORSDO>
F 3

$$$$
=
 OpenBabel10232409583D

 34 38  0  0  1  0  0  0  0  0999 V2000
  188.1140  175.1370  137.1580 C   0  0  1  0  0  0  0  0  0  0  0  0
  187.6330  177.3180  138.4180 C   0  0  0  0  0  3  0  0  0  0  0  0
  187.6140  173.5980  135.3350 C   0  0  0  0  0  2  0  0  0  0  0  0
  186.7110  174.9710  137.2190 O   0  0  0  0  0  0  0  0  0  0  0  0
  188.9130  173.8480  137.3880 C   0  0  1  0  0  3  0  0  0  0  0  0
  187.3030  174.9510  135.9390 C   0  0  1  0  0  0  0  0  0  0  0  0
  186.6370  178.1190  138.0160 C   0  0  0  0  0  0  0  0  0  0  0  0
  185.8510  176.4070  134.9640 C   0  0  0  0  0  2  0  0  0  0  0  0
  187.2110  176.1090  135.1460 O   0  0  0  0  0  0  0  0  0  0  0  0
  188.5770  176.5790  137.5080 C   0  0  1  0  0  3  0  0  0  0  0  0
  187.4570  171.9850  137.0830 O   0  0  0  0  0  1  0  0  0  0  0  0
  186.3390  178.3110  136.5580 C   0  0  0  0  0  2  0  0  0  0  0  0
  188.3540  172.8180  136.4130 C   0  0  1  0  0  3  0  0  0  0  0  0
  185.3130  177.2810  136.0990 C   0  0  0  0  0  2  0  0  0  0  0  0
  190.2620  174.0410  137.0820 O   0  0  0  0  0  1  0  0  0  0  0  0
  192.4040  176.7370  137.7170 C   0  0  0  0  0  3  0  0  0  0  0  0
  192.5750  176.9060  139.0930 C   0  0  0  0  0  0  0  0  0  0  0  0
  191.1240  176.6290  137.1670 C   0  0  0  0  0  0  0  0  0  0  0  0
  191.4540  176.9710  139.9320 C   0  0  0  0  0  0  0  0  0  0  0  0
  193.8590  177.0090  139.6150 O   0  0  0  0  0  1  0  0  0  0  0  0
  189.9900  176.6930  138.0120 C   0  0  0  0  0  0  0  0  0  0  0  0
  190.1720  176.8640  139.3880 C   0  0  0  0  0  3  0  0  0  0  0  0
  191.6070  177.1520  141.4030 C   0  0  0  0  0  1  0  0  0  0  0  0
  191.0050  176.4570  135.6900 C   0  0  0  0  0  1  0  0  0  0  0  0
  185.7630  178.7840  139.0190 C   0  0  0  0  0  0  0  0  0  0  0  0
  184.9130  179.6210  138.6120 O   0  0  0  0  0  0  0  0  0  0  0  0
  188.8120  178.0390  143.1980 Cl  0  0  0  0  0  0  0  0  0  0  0  0
  184.7010  178.3750  141.2790 C   0  0  0  0  0  0  0  0  0  0  0  0
  187.2300  178.1730  142.4640 C   0  0  0  0  0  0  0  0  0  0  0  0
  183.4300  178.4570  140.7210 O   0  0  0  0  0  1  0  0  0  0  0  0
  184.8210  178.1380  142.6520 C   0  0  0  0  0  3  0  0  0  0  0  0
  187.1170  178.4140  141.0940 C   0  0  0  0  0  3  0  0  0  0  0  0
  185.8580  178.5110  140.4790 C   0  0  0  0  0  0  0  0  0  0  0  0
  186.0820  178.0360  143.2440 C   0  0  0  0  0  3  0  0  0  0  0  0
  1  4  1  1  0  0  0
  1  5  1  0  0  0  0
  1 10  1  0  0  0  0
  3 13  1  0  0  0  0
  5 15  1  6  0  0  0
  6  3  1  6  0  0  0
  6  1  1  0  0  0  0
  6  4  1  0  0  0  0
  7  2  2  0  0  0  0
  7 25  1  0  0  0  0
  8  9  1  0  0  0  0
  8 14  1  0  0  0  0
  9  6  1  0  0  0  0
 10 21  1  1  0  0  0
 10  2  1  0  0  0  0
 12  7  1  0  0  0  0
 13 11  1  1  0  0  0
 13  5  1  0  0  0  0
 14 12  1  0  0  0  0
 16 17  1  0  0  0  0
 17 20  1  0  0  0  0
 17 19  2  0  0  0  0
 18 16  2  0  0  0  0
 18 21  1  0  0  0  0
 19 23  1  0  0  0  0
 21 22  2  0  0  0  0
 22 19  1  0  0  0  0
 24 18  1  0  0  0  0
 25 33  1  0  0  0  0
 26 25  2  0  0  0  0
 28 31  1  0  0  0  0
 29 27  1  0  0  0  0
 29 34  1  0  0  0  0
 30 28  1  0  0  0  0
 31 34  2  0  0  0  0
 32 29  2  0  0  0  0
 33 32  1  0  0  0  0
 33 28  2  0  0  0  0
M  END
>  <MODEL>
8

>  <REMARK>
 VINA RESULT:      -6.1      2.440      3.742
  Name = 
  3 active torsions:
  status: ('A' for Active; 'I' for Inactive)
    1  A    between atoms: C_8  and  C_24
    2  A    between atoms: C_19  and  C_27
    3  A    between atoms: C_24  and  C_30
                            x       y       z     vdW  Elec       q    Type
                         _______ _______ _______ _____ _____    ______ ____

>  <TORSDO>
F 3

$$$$
=
 OpenBabel10232409583D

 34 38  0  0  1  0  0  0  0  0999 V2000
  189.0430  176.8280  136.9110 C   0  0  1  0  0  0  0  0  0  0  0  0
  187.8670  177.3840  139.1220 C   0  0  0  0  0  3  0  0  0  0  0  0
  191.0650  176.2310  135.6880 C   0  0  0  0  0  2  0  0  0  0  0  0
  190.0110  177.7510  137.3720 O   0  0  0  0  0  0  0  0  0  0  0  0
  188.7390  176.9260  135.4100 C   0  0  1  0  0  3  0  0  0  0  0  0
  190.4620  176.4500  137.0600 C   0  0  1  0  0  0  0  0  0  0  0  0
  188.5680  177.4240  140.2630 C   0  0  0  0  0  0  0  0  0  0  0  0
  191.6530  176.1290  138.9710 C   0  0  0  0  0  2  0  0  0  0  0  0
  190.6950  175.5560  138.1190 O   0  0  0  0  0  0  0  0  0  0  0  0
  188.0520  176.3750  138.0210 C   0  0  1  0  0  3  0  0  0  0  0  0
  190.5080  178.1270  134.3540 O   0  0  0  0  0  1  0  0  0  0  0  0
  189.6790  176.4490  140.5210 C   0  0  0  0  0  2  0  0  0  0  0  0
  190.0830  176.8420  134.6960 C   0  0  1  0  0  3  0  0  0  0  0  0
  190.9990  177.0260  140.0250 C   0  0  0  0  0  2  0  0  0  0  0  0
  187.9620  175.8440  134.9920 O   0  0  0  0  0  1  0  0  0  0  0  0
  184.4200  176.2080  136.7970 C   0  0  0  0  0  3  0  0  0  0  0  0
  184.2770  174.8300  136.6190 C   0  0  0  0  0  0  0  0  0  0  0  0
  185.6290  176.7460  137.2480 C   0  0  0  0  0  0  0  0  0  0  0  0
  185.3540  173.9760  136.8930 C   0  0  0  0  0  0  0  0  0  0  0  0
  183.0640  174.3210  136.1720 O   0  0  0  0  0  1  0  0  0  0  0  0
  186.7180  175.8860  137.5260 C   0  0  0  0  0  0  0  0  0  0  0  0
  186.5650  174.5070  137.3440 C   0  0  0  0  0  3  0  0  0  0  0  0
  185.2290  172.5030  136.7110 C   0  0  0  0  0  1  0  0  0  0  0  0
  185.7230  178.2250  137.4110 C   0  0  0  0  0  1  0  0  0  0  0  0
  188.2960  178.4840  141.2690 C   0  0  0  0  0  0  0  0  0  0  0  0
  188.7930  179.6290  141.0820 O   0  0  0  0  0  0  0  0  0  0  0  0
  183.5810  178.5990  143.5200 Cl  0  0  0  0  0  0  0  0  0  0  0  0
  188.0480  177.7550  143.6790 C   0  0  0  0  0  0  0  0  0  0  0  0
  185.2980  178.2680  143.5830 C   0  0  0  0  0  0  0  0  0  0  0  0
  189.4130  177.5010  143.7650 O   0  0  0  0  0  1  0  0  0  0  0  0
  187.2470  177.5270  144.8020 C   0  0  0  0  0  3  0  0  0  0  0  0
  186.0910  178.4940  142.4560 C   0  0  0  0  0  3  0  0  0  0  0  0
  187.4740  178.2500  142.4870 C   0  0  0  0  0  0  0  0  0  0  0  0
  185.8750  177.7840  144.7550 C   0  0  0  0  0  3  0  0  0  0  0  0
  1  6  1  0  0  0  0
  1  4  1  1  0  0  0
  1 10  1  0  0  0  0
  2  7  2  0  0  0  0
  5 15  1  6  0  0  0
  5  1  1  0  0  0  0
  6  3  1  6  0  0  0
  6  4  1  0  0  0  0
  6  9  1  0  0  0  0
  7 12  1  0  0  0  0
  7 25  1  0  0  0  0
  8 14  1  0  0  0  0
  9  8  1  0  0  0  0
 10 21  1  6  0  0  0
 10  2  1  0  0  0  0
 13 11  1  1  0  0  0
 13  5  1  0  0  0  0
 13  3  1  0  0  0  0
 14 12  1  0  0  0  0
 16 18  1  0  0  0  0
 17 16  2  0  0  0  0
 17 19  1  0  0  0  0
 18 24  1  0  0  0  0
 18 21  2  0  0  0  0
 19 22  2  0  0  0  0
 20 17  1  0  0  0  0
 22 21  1  0  0  0  0
 23 19  1  0  0  0  0
 25 33  1  0  0  0  0
 26 25  2  0  0  0  0
 27 29  1  0  0  0  0
 28 30  1  0  0  0  0
 28 31  1  0  0  0  0
 29 34  1  0  0  0  0
 32 33  1  0  0  0  0
 32 29  2  0  0  0  0
 33 28  2  0  0  0  0
 34 31  2  0  0  0  0
M  END
>  <MODEL>
9

>  <REMARK>
 VINA RESULT:      -5.9      2.682      5.526
  Name = 
  3 active torsions:
  status: ('A' for Active; 'I' for Inactive)
    1  A    between atoms: C_8  and  C_24
    2  A    between atoms: C_19  and  C_27
    3  A    between atoms: C_24  and  C_30
                            x       y       z     vdW  Elec       q    Type
                         _______ _______ _______ _____ _____    ______ ____

>  <TORSDO>
F 3

$$$$
