=
 OpenBabel10232409453D

 25 26  0  0  0  0  0  0  0  0999 V2000
  189.0900  177.1640  145.4350 N   0  0  0  0  0  0  0  0  0  0  0  0
  190.0190  177.4200  144.5590 C   0  0  0  0  0  0  0  0  0  0  0  0
  187.0010  177.7500  144.3160 N   0  0  0  0  0  0  0  0  0  0  0  0
  184.2980  178.9470  146.2560 N   0  0  0  0  0  0  0  0  0  0  0  0
  186.8910  178.1570  146.8680 S   0  0  0  0  0  0  0  0  0  0  0  0
  187.7530  177.6830  145.4510 C   0  0  0  0  0  0  0  0  0  0  0  0
  185.7820  178.2190  144.6540 C   0  0  0  0  0  0  0  0  0  0  0  0
  183.5230  179.0470  145.1700 N   0  0  0  0  0  0  0  0  0  0  0  0
  185.5380  178.4900  145.9470 C   0  0  0  0  0  0  0  0  0  0  0  0
  184.3930  178.5570  143.8140 S   0  0  0  0  0  0  0  0  0  0  0  0
  189.7620  178.2120  143.3150 C   0  0  0  0  0  2  0  0  0  0  0  0
  189.5450  177.2730  142.1400 C   0  0  0  0  0  2  0  0  0  0  0  0
  190.4090  177.9040  139.8190 N   0  0  0  0  0  2  0  0  0  0  0  0
  188.0790  177.6420  139.7540 O   0  0  0  0  0  0  0  0  0  0  0  0
  190.6510  177.4270  141.1480 C   0  0  0  0  0  0  0  0  0  0  0  0
  189.1270  178.0750  139.2060 C   0  0  0  0  0  0  0  0  0  0  0  0
  191.8310  177.1660  141.5010 O   0  0  0  0  0  0  0  0  0  0  0  0
  189.0350  178.7260  137.8720 C   0  0  0  0  0  2  0  0  0  0  0  0
  187.6450  178.8250  137.4700 N   0  0  0  0  0  1  0  0  0  0  0  0
  191.3700  176.8160  144.7480 C   0  0  0  0  0  2  0  0  0  0  0  0
  192.3310  175.7040  146.8140 C   0  0  0  0  0  0  0  0  0  0  0  0
  192.5060  174.6190  146.1990 O   0  0  0  0  0  0  0  0  0  0  0  0
  191.7390  176.8260  146.1580 N   0  0  0  0  0  2  0  0  0  0  0  0
  192.7060  175.8050  148.2490 C   0  0  0  0  0  2  0  0  0  0  0  0
  192.5550  177.1220  148.6820 O   0  0  0  0  0  1  0  0  0  0  0  0
  1  6  1  0  0  0  0
  2 20  1  0  0  0  0
  2  1  2  0  0  0  0
  3  7  1  0  0  0  0
  3  6  2  0  0  0  0
  6  5  1  0  0  0  0
  7  9  2  0  0  0  0
  8  4  2  0  0  0  0
  9  4  1  0  0  0  0
  9  5  1  0  0  0  0
 10  7  1  0  0  0  0
 10  8  1  0  0  0  0
 11  2  1  0  0  0  0
 12 11  1  0  0  0  0
 13 15  1  0  0  0  0
 15 17  2  0  0  0  0
 15 12  1  0  0  0  0
 16 14  2  0  0  0  0
 16 13  1  0  0  0  0
 18 16  1  0  0  0  0
 19 18  1  0  0  0  0
 20 23  1  0  0  0  0
 21 24  1  0  0  0  0
 22 21  2  0  0  0  0
 23 21  1  0  0  0  0
 24 25  1  0  0  0  0
M  END
>  <MODEL>
1

>  <REMARK>
 VINA RESULT:      -7.4      0.000      0.000
  Name = 
  8 active torsions:
  status: ('A' for Active; 'I' for Inactive)
    1  A    between atoms: C_3  and  C_7
    2  A    between atoms: C_6  and  C_20
    3  A    between atoms: C_8  and  C_19
    4  A    between atoms: C_12  and  C_17
    5  A    between atoms: C_12  and  C_20
    6  A    between atoms: C_13  and  N_14
    7  A    between atoms: C_17  and  C_23
    8  A    between atoms: C_23  and  N_25
                            x       y       z     vdW  Elec       q    Type
                         _______ _______ _______ _____ _____    ______ ____

>  <TORSDO>
F 8

$$$$
=
 OpenBabel10232409453D

 25 26  0  0  0  0  0  0  0  0999 V2000
  189.1440  177.3730  145.4620 N   0  0  0  0  0  0  0  0  0  0  0  0
  190.0410  177.6590  144.5620 C   0  0  0  0  0  0  0  0  0  0  0  0
  187.0210  177.8700  144.3660 N   0  0  0  0  0  0  0  0  0  0  0  0
  184.2700  178.8820  146.3440 N   0  0  0  0  0  0  0  0  0  0  0  0
  186.9050  178.2190  146.9270 S   0  0  0  0  0  0  0  0  0  0  0  0
  187.7820  177.8200  145.4960 C   0  0  0  0  0  0  0  0  0  0  0  0
  185.7810  178.2660  144.7190 C   0  0  0  0  0  0  0  0  0  0  0  0
  183.4850  178.9630  145.2640 N   0  0  0  0  0  0  0  0  0  0  0  0
  185.5310  178.4980  146.0200 C   0  0  0  0  0  0  0  0  0  0  0  0
  184.3700  178.5480  143.8930 S   0  0  0  0  0  0  0  0  0  0  0  0
  189.7170  178.4090  143.3080 C   0  0  0  0  0  2  0  0  0  0  0  0
  190.0150  177.5420  142.0950 C   0  0  0  0  0  2  0  0  0  0  0  0
  189.2360  177.3630  139.6680 N   0  0  0  0  0  2  0  0  0  0  0  0
  191.5180  176.8390  139.8100 O   0  0  0  0  0  0  0  0  0  0  0  0
  189.0270  177.8200  141.0100 C   0  0  0  0  0  0  0  0  0  0  0  0
  190.4490  176.8090  139.1460 C   0  0  0  0  0  0  0  0  0  0  0  0
  187.9670  178.4380  141.2900 O   0  0  0  0  0  0  0  0  0  0  0  0
  190.4600  176.2400  137.7730 C   0  0  0  0  0  2  0  0  0  0  0  0
  190.6670  174.8050  137.8390 N   0  0  0  0  0  1  0  0  0  0  0  0
  191.4260  177.1330  144.7350 C   0  0  0  0  0  2  0  0  0  0  0  0
  192.2420  175.7230  146.6780 C   0  0  0  0  0  0  0  0  0  0  0  0
  192.4040  174.7190  145.9350 O   0  0  0  0  0  0  0  0  0  0  0  0
  191.7260  176.9450  146.1490 N   0  0  0  0  0  2  0  0  0  0  0  0
  192.5500  175.6210  148.1290 C   0  0  0  0  0  2  0  0  0  0  0  0
  192.7930  176.8930  148.6470 O   0  0  0  0  0  1  0  0  0  0  0  0
  1  6  1  0  0  0  0
  2 20  1  0  0  0  0
  2  1  2  0  0  0  0
  3  7  1  0  0  0  0
  3  6  2  0  0  0  0
  6  5  1  0  0  0  0
  7  9  2  0  0  0  0
  8  4  2  0  0  0  0
  9  4  1  0  0  0  0
  9  5  1  0  0  0  0
 10  7  1  0  0  0  0
 10  8  1  0  0  0  0
 11  2  1  0  0  0  0
 12 11  1  0  0  0  0
 13 15  1  0  0  0  0
 15 17  2  0  0  0  0
 15 12  1  0  0  0  0
 16 13  1  0  0  0  0
 16 14  2  0  0  0  0
 18 19  1  0  0  0  0
 18 16  1  0  0  0  0
 20 23  1  0  0  0  0
 21 24  1  0  0  0  0
 22 21  2  0  0  0  0
 23 21  1  0  0  0  0
 24 25  1  0  0  0  0
M  END
>  <MODEL>
2

>  <REMARK>
 VINA RESULT:      -7.4      1.178      1.692
  Name = 
  8 active torsions:
  status: ('A' for Active; 'I' for Inactive)
    1  A    between atoms: C_3  and  C_7
    2  A    between atoms: C_6  and  C_20
    3  A    between atoms: C_8  and  C_19
    4  A    between atoms: C_12  and  C_17
    5  A    between atoms: C_12  and  C_20
    6  A    between atoms: C_13  and  N_14
    7  A    between atoms: C_17  and  C_23
    8  A    between atoms: C_23  and  N_25
                            x       y       z     vdW  Elec       q    Type
                         _______ _______ _______ _____ _____    ______ ____

>  <TORSDO>
F 8

$$$$
=
 OpenBabel10232409453D

 25 26  0  0  0  0  0  0  0  0999 V2000
  186.0470  178.2220  144.2600 N   0  0  0  0  0  0  0  0  0  0  0  0
  187.0780  177.4870  144.5630 C   0  0  0  0  0  0  0  0  0  0  0  0
  184.2170  178.0630  142.6530 N   0  0  0  0  0  0  0  0  0  0  0  0
  184.6330  179.4770  139.4390 N   0  0  0  0  0  0  0  0  0  0  0  0
  186.2790  179.2770  141.6690 S   0  0  0  0  0  0  0  0  0  0  0  0
  185.4930  178.4360  142.9540 C   0  0  0  0  0  0  0  0  0  0  0  0
  183.9620  178.4450  141.3850 C   0  0  0  0  0  0  0  0  0  0  0  0
  183.3930  179.1190  139.0870 N   0  0  0  0  0  0  0  0  0  0  0  0
  184.9250  179.0940  140.7080 C   0  0  0  0  0  0  0  0  0  0  0  0
  182.6540  178.3210  140.3730 S   0  0  0  0  0  0  0  0  0  0  0  0
  187.7670  176.6100  143.5640 C   0  0  0  0  0  2  0  0  0  0  0  0
  188.9460  177.3480  142.9530 C   0  0  0  0  0  2  0  0  0  0  0  0
  190.4810  176.2820  141.2100 N   0  0  0  0  0  2  0  0  0  0  0  0
  188.7530  177.4520  140.1370 O   0  0  0  0  0  0  0  0  0  0  0  0
  190.0120  176.3780  142.5600 C   0  0  0  0  0  0  0  0  0  0  0  0
  189.8820  176.8970  140.0640 C   0  0  0  0  0  0  0  0  0  0  0  0
  190.5360  175.6530  143.4450 O   0  0  0  0  0  0  0  0  0  0  0  0
  190.5760  176.8290  138.7510 C   0  0  0  0  0  2  0  0  0  0  0  0
  190.8220  175.4430  138.3980 N   0  0  0  0  0  1  0  0  0  0  0  0
  187.5320  177.4360  145.9830 C   0  0  0  0  0  2  0  0  0  0  0  0
  189.7270  177.1770  147.2240 C   0  0  0  0  0  0  0  0  0  0  0  0
  189.2730  177.7760  148.2360 O   0  0  0  0  0  0  0  0  0  0  0  0
  188.9210  177.0050  146.0570 N   0  0  0  0  0  2  0  0  0  0  0  0
  191.1290  176.6830  147.2300 C   0  0  0  0  0  2  0  0  0  0  0  0
  191.7900  177.1360  146.0890 O   0  0  0  0  0  1  0  0  0  0  0  0
  1  2  2  0  0  0  0
  2 20  1  0  0  0  0
  3  6  2  0  0  0  0
  4  9  1  0  0  0  0
  5  6  1  0  0  0  0
  6  1  1  0  0  0  0
  7  3  1  0  0  0  0
  8  4  2  0  0  0  0
  8 10  1  0  0  0  0
  9  7  2  0  0  0  0
  9  5  1  0  0  0  0
 10  7  1  0  0  0  0
 11  2  1  0  0  0  0
 12 11  1  0  0  0  0
 13 15  1  0  0  0  0
 15 12  1  0  0  0  0
 15 17  2  0  0  0  0
 16 14  2  0  0  0  0
 16 13  1  0  0  0  0
 18 16  1  0  0  0  0
 19 18  1  0  0  0  0
 20 23  1  0  0  0  0
 21 24  1  0  0  0  0
 21 22  2  0  0  0  0
 23 21  1  0  0  0  0
 25 24  1  0  0  0  0
M  END
>  <MODEL>
3

>  <REMARK>
 VINA RESULT:      -7.2      2.569      3.680
  Name = 
  8 active torsions:
  status: ('A' for Active; 'I' for Inactive)
    1  A    between atoms: C_3  and  C_7
    2  A    between atoms: C_6  and  C_20
    3  A    between atoms: C_8  and  C_19
    4  A    between atoms: C_12  and  C_17
    5  A    between atoms: C_12  and  C_20
    6  A    between atoms: C_13  and  N_14
    7  A    between atoms: C_17  and  C_23
    8  A    between atoms: C_23  and  N_25
                            x       y       z     vdW  Elec       q    Type
                         _______ _______ _______ _____ _____    ______ ____

>  <TORSDO>
F 8

$$$$
=
 OpenBabel10232409453D

 25 26  0  0  0  0  0  0  0  0999 V2000
  187.1150  177.9670  142.5340 N   0  0  0  0  0  0  0  0  0  0  0  0
  187.4470  177.7600  143.7760 C   0  0  0  0  0  0  0  0  0  0  0  0
  187.6790  178.4270  140.2040 N   0  0  0  0  0  0  0  0  0  0  0  0
  190.6240  177.0190  138.8450 N   0  0  0  0  0  0  0  0  0  0  0  0
  189.4080  176.8740  141.3400 S   0  0  0  0  0  0  0  0  0  0  0  0
  187.9440  177.7860  141.3770 C   0  0  0  0  0  0  0  0  0  0  0  0
  188.6560  178.1110  139.3290 C   0  0  0  0  0  0  0  0  0  0  0  0
  190.4010  177.6120  137.6680 N   0  0  0  0  0  0  0  0  0  0  0  0
  189.6490  177.3060  139.7450 C   0  0  0  0  0  0  0  0  0  0  0  0
  188.9770  178.5080  137.7510 S   0  0  0  0  0  0  0  0  0  0  0  0
  188.7490  177.1380  144.1720 C   0  0  0  0  0  2  0  0  0  0  0  0
  189.5230  178.0870  145.0730 C   0  0  0  0  0  2  0  0  0  0  0  0
  191.7970  177.1080  145.7070 N   0  0  0  0  0  2  0  0  0  0  0  0
  190.3040  176.8770  147.5030 O   0  0  0  0  0  0  0  0  0  0  0  0
  190.9910  177.9250  144.8490 C   0  0  0  0  0  0  0  0  0  0  0  0
  191.3900  176.5430  146.9590 C   0  0  0  0  0  0  0  0  0  0  0  0
  191.5260  178.4920  143.8620 O   0  0  0  0  0  0  0  0  0  0  0  0
  192.2920  175.5900  147.6580 C   0  0  0  0  0  2  0  0  0  0  0  0
  193.0650  176.2940  148.6640 N   0  0  0  0  0  1  0  0  0  0  0  0
  186.4500  178.0590  144.8450 C   0  0  0  0  0  2  0  0  0  0  0  0
  184.0290  178.7880  145.0270 C   0  0  0  0  0  0  0  0  0  0  0  0
  184.1210  178.9260  146.2750 O   0  0  0  0  0  0  0  0  0  0  0  0
  185.1430  178.3260  144.2600 N   0  0  0  0  0  2  0  0  0  0  0  0
  182.7350  179.0660  144.3500 C   0  0  0  0  0  2  0  0  0  0  0  0
  182.8580  178.8170  142.9830 O   0  0  0  0  0  1  0  0  0  0  0  0
  1  2  2  0  0  0  0
  2 11  1  0  0  0  0
  2 20  1  0  0  0  0
  3  6  2  0  0  0  0
  4  9  1  0  0  0  0
  5  6  1  0  0  0  0
  6  1  1  0  0  0  0
  7  9  2  0  0  0  0
  7  3  1  0  0  0  0
  8 10  1  0  0  0  0
  8  4  2  0  0  0  0
  9  5  1  0  0  0  0
 10  7  1  0  0  0  0
 11 12  1  0  0  0  0
 13 16  1  0  0  0  0
 15 12  1  0  0  0  0
 15 13  1  0  0  0  0
 16 14  2  0  0  0  0
 16 18  1  0  0  0  0
 17 15  2  0  0  0  0
 18 19  1  0  0  0  0
 21 22  2  0  0  0  0
 23 20  1  0  0  0  0
 23 21  1  0  0  0  0
 24 21  1  0  0  0  0
 25 24  1  0  0  0  0
M  END
>  <MODEL>
4

>  <REMARK>
 VINA RESULT:      -7.2      3.239      7.564
  Name = 
  8 active torsions:
  status: ('A' for Active; 'I' for Inactive)
    1  A    between atoms: C_3  and  C_7
    2  A    between atoms: C_6  and  C_20
    3  A    between atoms: C_8  and  C_19
    4  A    between atoms: C_12  and  C_17
    5  A    between atoms: C_12  and  C_20
    6  A    between atoms: C_13  and  N_14
    7  A    between atoms: C_17  and  C_23
    8  A    between atoms: C_23  and  N_25
                            x       y       z     vdW  Elec       q    Type
                         _______ _______ _______ _____ _____    ______ ____

>  <TORSDO>
F 8

$$$$
=
 OpenBabel10232409453D

 25 26  0  0  0  0  0  0  0  0999 V2000
  187.5670  177.8440  141.6850 N   0  0  0  0  0  0  0  0  0  0  0  0
  188.8660  177.9010  141.6080 C   0  0  0  0  0  0  0  0  0  0  0  0
  187.2160  177.6850  144.0950 N   0  0  0  0  0  0  0  0  0  0  0  0
  184.2370  178.9910  145.4810 N   0  0  0  0  0  0  0  0  0  0  0  0
  185.2250  178.8140  142.8900 S   0  0  0  0  0  0  0  0  0  0  0  0
  186.7630  178.0330  142.8580 C   0  0  0  0  0  0  0  0  0  0  0  0
  186.2740  178.0350  144.9940 C   0  0  0  0  0  0  0  0  0  0  0  0
  184.6280  178.6550  146.7150 N   0  0  0  0  0  0  0  0  0  0  0  0
  185.1590  178.6390  144.5490 C   0  0  0  0  0  0  0  0  0  0  0  0
  186.1390  177.9160  146.6430 S   0  0  0  0  0  0  0  0  0  0  0  0
  189.7250  178.3350  142.7540 C   0  0  0  0  0  2  0  0  0  0  0  0
  190.9900  177.4930  142.8010 C   0  0  0  0  0  2  0  0  0  0  0  0
  190.8090  176.0400  144.8950 N   0  0  0  0  0  2  0  0  0  0  0  0
  191.9980  178.0010  145.3900 O   0  0  0  0  0  0  0  0  0  0  0  0
  190.7140  176.1890  143.4730 C   0  0  0  0  0  0  0  0  0  0  0  0
  191.3690  176.9920  145.8060 C   0  0  0  0  0  0  0  0  0  0  0  0
  190.3530  175.2050  142.7760 O   0  0  0  0  0  0  0  0  0  0  0  0
  191.2550  176.7580  147.2700 C   0  0  0  0  0  2  0  0  0  0  0  0
  192.4410  176.0740  147.7500 N   0  0  0  0  0  1  0  0  0  0  0  0
  189.5210  177.6230  140.2970 C   0  0  0  0  0  2  0  0  0  0  0  0
  188.3340  178.3450  138.1760 C   0  0  0  0  0  0  0  0  0  0  0  0
  189.0080  179.4070  138.1110 O   0  0  0  0  0  0  0  0  0  0  0  0
  188.5180  177.4300  139.2580 N   0  0  0  0  0  2  0  0  0  0  0  0
  187.3080  178.0610  137.1390 C   0  0  0  0  0  2  0  0  0  0  0  0
  186.1070  178.6820  137.4860 O   0  0  0  0  0  1  0  0  0  0  0  0
  1  6  1  0  0  0  0
  2  1  2  0  0  0  0
  2 11  1  0  0  0  0
  3  7  1  0  0  0  0
  4  8  2  0  0  0  0
  5  9  1  0  0  0  0
  6  5  1  0  0  0  0
  6  3  2  0  0  0  0
  7 10  1  0  0  0  0
  9  7  2  0  0  0  0
  9  4  1  0  0  0  0
 10  8  1  0  0  0  0
 11 12  1  0  0  0  0
 12 15  1  0  0  0  0
 13 16  1  0  0  0  0
 14 16  2  0  0  0  0
 15 13  1  0  0  0  0
 16 18  1  0  0  0  0
 17 15  2  0  0  0  0
 18 19  1  0  0  0  0
 20  2  1  0  0  0  0
 21 23  1  0  0  0  0
 22 21  2  0  0  0  0
 23 20  1  0  0  0  0
 24 25  1  0  0  0  0
 24 21  1  0  0  0  0
M  END
>  <MODEL>
5

>  <REMARK>
 VINA RESULT:      -7.1      1.797      6.503
  Name = 
  8 active torsions:
  status: ('A' for Active; 'I' for Inactive)
    1  A    between atoms: C_3  and  C_7
    2  A    between atoms: C_6  and  C_20
    3  A    between atoms: C_8  and  C_19
    4  A    between atoms: C_12  and  C_17
    5  A    between atoms: C_12  and  C_20
    6  A    between atoms: C_13  and  N_14
    7  A    between atoms: C_17  and  C_23
    8  A    between atoms: C_23  and  N_25
                            x       y       z     vdW  Elec       q    Type
                         _______ _______ _______ _____ _____    ______ ____

>  <TORSDO>
F 8

$$$$
=
 OpenBabel10232409453D

 25 26  0  0  0  0  0  0  0  0999 V2000
  186.7870  178.3510  145.7020 N   0  0  0  0  0  0  0  0  0  0  0  0
  187.9060  177.7150  145.5080 C   0  0  0  0  0  0  0  0  0  0  0  0
  185.8520  178.1940  143.4530 N   0  0  0  0  0  0  0  0  0  0  0  0
  182.4160  178.8810  142.9760 N   0  0  0  0  0  0  0  0  0  0  0  0
  184.0820  178.9090  145.2000 S   0  0  0  0  0  0  0  0  0  0  0  0
  185.7010  178.4910  144.7750 C   0  0  0  0  0  0  0  0  0  0  0  0
  184.6560  178.3610  142.8530 C   0  0  0  0  0  0  0  0  0  0  0  0
  182.5140  178.6170  141.6680 N   0  0  0  0  0  0  0  0  0  0  0  0
  183.6080  178.7350  143.6080 C   0  0  0  0  0  0  0  0  0  0  0  0
  184.1010  178.1940  141.2980 S   0  0  0  0  0  0  0  0  0  0  0  0
  188.1620  176.8820  144.2910 C   0  0  0  0  0  2  0  0  0  0  0  0
  189.1930  177.5620  143.4060 C   0  0  0  0  0  2  0  0  0  0  0  0
  189.6420  176.9020  140.9770 N   0  0  0  0  0  2  0  0  0  0  0  0
  188.1300  178.6950  141.0470 O   0  0  0  0  0  0  0  0  0  0  0  0
  189.6990  176.6030  142.3780 C   0  0  0  0  0  0  0  0  0  0  0  0
  188.9300  177.9890  140.3770 C   0  0  0  0  0  0  0  0  0  0  0  0
  190.2230  175.5220  142.7540 O   0  0  0  0  0  0  0  0  0  0  0  0
  189.0940  178.2560  138.9230 C   0  0  0  0  0  2  0  0  0  0  0  0
  187.8300  178.6930  138.3600 N   0  0  0  0  0  1  0  0  0  0  0  0
  188.9380  177.7300  146.5860 C   0  0  0  0  0  2  0  0  0  0  0  0
  191.1710  176.6400  147.0870 C   0  0  0  0  0  0  0  0  0  0  0  0
  191.3940  177.4370  148.0370 O   0  0  0  0  0  0  0  0  0  0  0  0
  189.9820  176.7550  146.3030 N   0  0  0  0  0  2  0  0  0  0  0  0
  192.1760  175.5980  146.7510 C   0  0  0  0  0  2  0  0  0  0  0  0
  193.1830  175.5900  147.7160 O   0  0  0  0  0  1  0  0  0  0  0  0
  2  1  2  0  0  0  0
  2 20  1  0  0  0  0
  3  6  2  0  0  0  0
  4  9  1  0  0  0  0
  6  5  1  0  0  0  0
  6  1  1  0  0  0  0
  7  3  1  0  0  0  0
  7  9  2  0  0  0  0
  8  4  2  0  0  0  0
  9  5  1  0  0  0  0
 10  8  1  0  0  0  0
 10  7  1  0  0  0  0
 11  2  1  0  0  0  0
 12 11  1  0  0  0  0
 13 15  1  0  0  0  0
 15 17  2  0  0  0  0
 15 12  1  0  0  0  0
 16 13  1  0  0  0  0
 16 14  2  0  0  0  0
 18 16  1  0  0  0  0
 19 18  1  0  0  0  0
 21 22  2  0  0  0  0
 23 20  1  0  0  0  0
 23 21  1  0  0  0  0
 24 21  1  0  0  0  0
 24 25  1  0  0  0  0
M  END
>  <MODEL>
6

>  <REMARK>
 VINA RESULT:      -7.1      1.723      2.365
  Name = 
  8 active torsions:
  status: ('A' for Active; 'I' for Inactive)
    1  A    between atoms: C_3  and  C_7
    2  A    between atoms: C_6  and  C_20
    3  A    between atoms: C_8  and  C_19
    4  A    between atoms: C_12  and  C_17
    5  A    between atoms: C_12  and  C_20
    6  A    between atoms: C_13  and  N_14
    7  A    between atoms: C_17  and  C_23
    8  A    between atoms: C_23  and  N_25
                            x       y       z     vdW  Elec       q    Type
                         _______ _______ _______ _____ _____    ______ ____

>  <TORSDO>
F 8

$$$$
=
 OpenBabel10232409453D

 25 26  0  0  0  0  0  0  0  0999 V2000
  188.7780  178.1290  142.5210 N   0  0  0  0  0  0  0  0  0  0  0  0
  187.4820  178.1790  142.4090 C   0  0  0  0  0  0  0  0  0  0  0  0
  188.9670  177.8620  144.9400 N   0  0  0  0  0  0  0  0  0  0  0  0
  192.0020  176.6590  146.2970 N   0  0  0  0  0  0  0  0  0  0  0  0
  191.1510  177.2170  143.7120 S   0  0  0  0  0  0  0  0  0  0  0  0
  189.5310  177.8110  143.7000 C   0  0  0  0  0  0  0  0  0  0  0  0
  189.8920  177.4540  145.8330 C   0  0  0  0  0  0  0  0  0  0  0  0
  191.5020  176.7060  147.5370 N   0  0  0  0  0  0  0  0  0  0  0  0
  191.0990  177.0770  145.3750 C   0  0  0  0  0  0  0  0  0  0  0  0
  189.9160  177.2700  147.4810 S   0  0  0  0  0  0  0  0  0  0  0  0
  186.5580  177.7490  143.5060 C   0  0  0  0  0  2  0  0  0  0  0  0
  185.1360  178.1740  143.1820 C   0  0  0  0  0  2  0  0  0  0  0  0
  183.0510  178.9460  144.4440 N   0  0  0  0  0  2  0  0  0  0  0  0
  182.6210  178.9240  142.1370 O   0  0  0  0  0  0  0  0  0  0  0  0
  184.4610  178.6890  144.4110 C   0  0  0  0  0  0  0  0  0  0  0  0
  182.1730  178.9660  143.3130 C   0  0  0  0  0  0  0  0  0  0  0  0
  185.1410  178.8680  145.4540 O   0  0  0  0  0  0  0  0  0  0  0  0
  180.7070  179.0960  143.5290 C   0  0  0  0  0  2  0  0  0  0  0  0
  180.2130  180.2740  142.8420 N   0  0  0  0  0  1  0  0  0  0  0  0
  186.8890  178.5830  141.1010 C   0  0  0  0  0  2  0  0  0  0  0  0
  187.5540  178.4420  138.6590 C   0  0  0  0  0  0  0  0  0  0  0  0
  186.3500  178.3770  138.2920 O   0  0  0  0  0  0  0  0  0  0  0  0
  187.8900  178.5120  140.0460 N   0  0  0  0  0  2  0  0  0  0  0  0
  188.6360  178.4020  137.6410 C   0  0  0  0  0  2  0  0  0  0  0  0
  189.0650  179.7000  137.3620 O   0  0  0  0  0  1  0  0  0  0  0  0
  1  6  1  0  0  0  0
  2  1  2  0  0  0  0
  2 11  1  0  0  0  0
  3  7  1  0  0  0  0
  4  8  2  0  0  0  0
  5  9  1  0  0  0  0
  6  5  1  0  0  0  0
  6  3  2  0  0  0  0
  7 10  1  0  0  0  0
  9  7  2  0  0  0  0
  9  4  1  0  0  0  0
 10  8  1  0  0  0  0
 12 11  1  0  0  0  0
 12 15  1  0  0  0  0
 14 16  2  0  0  0  0
 15 13  1  0  0  0  0
 15 17  2  0  0  0  0
 16 18  1  0  0  0  0
 16 13  1  0  0  0  0
 19 18  1  0  0  0  0
 20  2  1  0  0  0  0
 21 23  1  0  0  0  0
 22 21  2  0  0  0  0
 23 20  1  0  0  0  0
 24 21  1  0  0  0  0
 25 24  1  0  0  0  0
M  END
>  <MODEL>
7

>  <REMARK>
 VINA RESULT:      -7.0      3.478      7.474
  Name = 
  8 active torsions:
  status: ('A' for Active; 'I' for Inactive)
    1  A    between atoms: C_3  and  C_7
    2  A    between atoms: C_6  and  C_20
    3  A    between atoms: C_8  and  C_19
    4  A    between atoms: C_12  and  C_17
    5  A    between atoms: C_12  and  C_20
    6  A    between atoms: C_13  and  N_14
    7  A    between atoms: C_17  and  C_23
    8  A    between atoms: C_23  and  N_25
                            x       y       z     vdW  Elec       q    Type
                         _______ _______ _______ _____ _____    ______ ____

>  <TORSDO>
F 8

$$$$
=
 OpenBabel10232409453D

 25 26  0  0  0  0  0  0  0  0999 V2000
  189.2170  178.0340  140.1340 N   0  0  0  0  0  0  0  0  0  0  0  0
  188.7310  177.7990  141.3180 C   0  0  0  0  0  0  0  0  0  0  0  0
  190.3080  176.8600  138.2930 N   0  0  0  0  0  0  0  0  0  0  0  0
  193.7720  176.1820  138.5080 N   0  0  0  0  0  0  0  0  0  0  0  0
  191.9530  177.4110  140.2120 S   0  0  0  0  0  0  0  0  0  0  0  0
  190.3670  177.4190  139.5350 C   0  0  0  0  0  0  0  0  0  0  0  0
  191.5440  176.4220  137.9780 C   0  0  0  0  0  0  0  0  0  0  0  0
  193.7650  175.6070  137.3000 N   0  0  0  0  0  0  0  0  0  0  0  0
  192.5370  176.6210  138.8610 C   0  0  0  0  0  0  0  0  0  0  0  0
  192.2060  175.6530  136.6650 S   0  0  0  0  0  0  0  0  0  0  0  0
  189.2410  176.7010  142.1980 C   0  0  0  0  0  2  0  0  0  0  0  0
  188.3580  176.5720  143.4290 C   0  0  0  0  0  2  0  0  0  0  0  0
  188.4950  177.4800  145.8140 N   0  0  0  0  0  2  0  0  0  0  0  0
  186.4450  178.0900  144.8490 O   0  0  0  0  0  0  0  0  0  0  0  0
  189.1330  176.9270  144.6560 C   0  0  0  0  0  0  0  0  0  0  0  0
  187.1470  177.9580  145.8860 C   0  0  0  0  0  0  0  0  0  0  0  0
  190.3700  176.7010  144.6860 O   0  0  0  0  0  0  0  0  0  0  0  0
  186.5840  178.3610  147.2020 C   0  0  0  0  0  2  0  0  0  0  0  0
  185.2030  178.7750  147.0380 N   0  0  0  0  0  1  0  0  0  0  0  0
  187.5510  178.5870  141.7800 C   0  0  0  0  0  2  0  0  0  0  0  0
  185.1840  178.9740  140.9600 C   0  0  0  0  0  0  0  0  0  0  0  0
  184.7500  179.0840  142.1380 O   0  0  0  0  0  0  0  0  0  0  0  0
  186.5630  178.6920  140.7150 N   0  0  0  0  0  2  0  0  0  0  0  0
  184.2420  179.0950  139.8160 C   0  0  0  0  0  2  0  0  0  0  0  0
  184.4850  180.2870  139.1340 O   0  0  0  0  0  1  0  0  0  0  0  0
  1  2  2  0  0  0  0
  2 20  1  0  0  0  0
  2 11  1  0  0  0  0
  3  6  2  0  0  0  0
  4  9  1  0  0  0  0
  6  1  1  0  0  0  0
  6  5  1  0  0  0  0
  7  3  1  0  0  0  0
  7  9  2  0  0  0  0
  8  4  2  0  0  0  0
  9  5  1  0  0  0  0
 10  8  1  0  0  0  0
 10  7  1  0  0  0  0
 11 12  1  0  0  0  0
 12 15  1  0  0  0  0
 13 16  1  0  0  0  0
 14 16  2  0  0  0  0
 15 17  2  0  0  0  0
 15 13  1  0  0  0  0
 16 18  1  0  0  0  0
 19 18  1  0  0  0  0
 21 22  2  0  0  0  0
 23 21  1  0  0  0  0
 23 20  1  0  0  0  0
 24 21  1  0  0  0  0
 25 24  1  0  0  0  0
M  END
>  <MODEL>
8

>  <REMARK>
 VINA RESULT:      -7.0      4.025      8.446
  Name = 
  8 active torsions:
  status: ('A' for Active; 'I' for Inactive)
    1  A    between atoms: C_3  and  C_7
    2  A    between atoms: C_6  and  C_20
    3  A    between atoms: C_8  and  C_19
    4  A    between atoms: C_12  and  C_17
    5  A    between atoms: C_12  and  C_20
    6  A    between atoms: C_13  and  N_14
    7  A    between atoms: C_17  and  C_23
    8  A    between atoms: C_23  and  N_25
                            x       y       z     vdW  Elec       q    Type
                         _______ _______ _______ _____ _____    ______ ____

>  <TORSDO>
F 8

$$$$
=
 OpenBabel10232409453D

 25 26  0  0  0  0  0  0  0  0999 V2000
  185.7550  178.8590  140.1880 N   0  0  0  0  0  0  0  0  0  0  0  0
  186.2400  178.9260  141.3940 C   0  0  0  0  0  0  0  0  0  0  0  0
  183.9890  180.1770  139.1390 N   0  0  0  0  0  0  0  0  0  0  0  0
  180.7410  178.7990  138.8930 N   0  0  0  0  0  0  0  0  0  0  0  0
  183.1330  177.8810  139.9690 S   0  0  0  0  0  0  0  0  0  0  0  0
  184.3890  179.0520  139.7950 C   0  0  0  0  0  0  0  0  0  0  0  0
  182.6780  180.0450  138.8510 C   0  0  0  0  0  0  0  0  0  0  0  0
  180.2930  179.8900  138.2610 N   0  0  0  0  0  0  0  0  0  0  0  0
  182.0570  178.9080  139.2100 C   0  0  0  0  0  0  0  0  0  0  0  0
  181.5510  180.9970  138.0920 S   0  0  0  0  0  0  0  0  0  0  0  0
  185.4280  179.3770  142.5680 C   0  0  0  0  0  2  0  0  0  0  0  0
  185.1120  178.1920  143.4650 C   0  0  0  0  0  2  0  0  0  0  0  0
  186.2260  178.3890  145.7570 N   0  0  0  0  0  2  0  0  0  0  0  0
  187.3780  176.8200  144.4470 O   0  0  0  0  0  0  0  0  0  0  0  0
  185.1030  178.6180  144.8960 C   0  0  0  0  0  0  0  0  0  0  0  0
  187.3610  177.5680  145.4600 C   0  0  0  0  0  0  0  0  0  0  0  0
  184.0990  179.2260  145.3480 O   0  0  0  0  0  0  0  0  0  0  0  0
  188.5170  177.5540  146.3940 C   0  0  0  0  0  2  0  0  0  0  0  0
  188.0580  177.2620  147.7390 N   0  0  0  0  0  1  0  0  0  0  0  0
  187.6900  178.6420  141.6020 C   0  0  0  0  0  2  0  0  0  0  0  0
  189.3470  177.2910  140.2390 C   0  0  0  0  0  0  0  0  0  0  0  0
  189.7920  176.7200  141.2700 O   0  0  0  0  0  0  0  0  0  0  0  0
  188.3240  178.2830  140.3410 N   0  0  0  0  0  2  0  0  0  0  0  0
  189.9230  176.9620  138.9090 C   0  0  0  0  0  2  0  0  0  0  0  0
  190.6610  175.7810  138.9980 O   0  0  0  0  0  1  0  0  0  0  0  0
  1  2  2  0  0  0  0
  2 20  1  0  0  0  0
  2 11  1  0  0  0  0
  3  6  2  0  0  0  0
  4  9  1  0  0  0  0
  6  5  1  0  0  0  0
  6  1  1  0  0  0  0
  7  3  1  0  0  0  0
  7  9  2  0  0  0  0
  8  4  2  0  0  0  0
  9  5  1  0  0  0  0
 10  8  1  0  0  0  0
 10  7  1  0  0  0  0
 11 12  1  0  0  0  0
 12 15  1  0  0  0  0
 14 16  2  0  0  0  0
 15 17  2  0  0  0  0
 15 13  1  0  0  0  0
 16 13  1  0  0  0  0
 16 18  1  0  0  0  0
 18 19  1  0  0  0  0
 21 23  1  0  0  0  0
 21 22  2  0  0  0  0
 23 20  1  0  0  0  0
 24 25  1  0  0  0  0
 24 21  1  0  0  0  0
M  END
>  <MODEL>
9

>  <REMARK>
 VINA RESULT:      -7.0      4.186      7.276
  Name = 
  8 active torsions:
  status: ('A' for Active; 'I' for Inactive)
    1  A    between atoms: C_3  and  C_7
    2  A    between atoms: C_6  and  C_20
    3  A    between atoms: C_8  and  C_19
    4  A    between atoms: C_12  and  C_17
    5  A    between atoms: C_12  and  C_20
    6  A    between atoms: C_13  and  N_14
    7  A    between atoms: C_17  and  C_23
    8  A    between atoms: C_23  and  N_25
                            x       y       z     vdW  Elec       q    Type
                         _______ _______ _______ _____ _____    ______ ____

>  <TORSDO>
F 8

$$$$
