=
 OpenBabel10232411203D

 50 54  0  0  1  0  0  0  0  0999 V2000
  185.8920  178.1120  143.8300 C   0  0  0  0  0  2  0  0  0  0  0  0
  185.9130  179.1620  141.5030 C   0  0  0  0  0  3  0  0  0  0  0  0
  182.7860  179.3580  139.7190 N   0  0  0  0  0  2  0  0  0  0  0  0
  185.2490  178.5760  142.5720 C   0  0  0  0  0  0  0  0  0  0  0  0
  183.8220  179.1250  140.6790 C   0  0  0  0  0  0  0  0  0  0  0  0
  185.1080  179.4700  140.4520 N   0  0  0  0  0  0  0  0  0  0  0  0
  183.6160  178.4220  142.1980 S   0  0  0  0  0  0  0  0  0  0  0  0
  181.3880  178.9650  139.8680 C   0  0  1  0  0  3  0  0  0  0  0  0
  180.3090  179.9890  141.7560 O   0  0  0  0  0  1  0  0  0  0  0  0
  180.1280  181.1170  139.7710 O   0  0  0  0  0  0  0  0  0  0  0  0
  180.5900  180.0500  140.5290 C   0  0  0  0  0  0  0  0  0  0  0  0
  180.8190  178.5850  138.5830 N   0  0  0  0  0  2  0  0  0  0  0  0
  181.9300  178.4270  137.6570 C   0  0  0  0  0  2  0  0  0  0  0  0
  183.1190  177.1560  135.0970 C   0  0  0  0  0  2  0  0  0  0  0  0
  181.9130  177.0390  137.0030 C   0  0  2  0  0  0  0  0  0  0  0  0
  183.9620  176.3050  136.0140 C   0  0  2  0  0  3  0  0  0  0  0  0
  183.2230  176.3280  137.3170 C   0  0  0  0  0  2  0  0  0  0  0  0
  181.8100  177.1970  135.6050 O   0  0  0  0  0  0  0  0  0  0  0  0
  185.3260  176.8900  136.1660 C   0  0  0  0  0  0  0  0  0  0  0  0
  186.2670  176.7680  135.1490 O   0  0  0  0  0  0  0  0  0  0  0  0
  185.6330  177.4820  137.2310 O   0  0  0  0  0  1  0  0  0  0  0  0
  179.9960  175.6740  136.4560 O   0  0  0  0  0  1  0  0  0  0  0  0
  180.7190  176.2160  137.5220 C   0  0  1  0  0  3  0  0  0  0  0  0
  180.8540  175.1500  139.6270 O   0  0  0  0  0  0  0  0  0  0  0  0
  181.1500  175.1130  138.4450 C   0  0  0  0  0  3  0  0  0  0  0  0
  186.9510  177.0730  143.5170 C   0  0  0  0  0  2  0  0  0  0  0  0
  189.3940  176.9460  144.3140 C   0  0  0  0  0  0  0  0  0  0  0  0
  188.0390  177.1350  144.5330 C   0  0  0  0  0  0  0  0  0  0  0  0
  189.9990  177.1380  145.5420 C   0  0  0  0  0  3  0  0  0  0  0  0
  187.8330  177.4400  145.8270 N   0  0  0  0  0  0  0  0  0  0  0  0
  189.0170  177.4320  146.4160 N   0  0  0  0  0  0  0  0  0  0  0  0
  189.2150  177.7160  147.8260 C   0  0  0  0  0  1  0  0  0  0  0  0
  190.4090  177.6610  142.1340 N   0  0  0  0  0  2  0  0  0  0  0  0
  190.3670  175.4110  142.7960 O   0  0  0  0  0  0  0  0  0  0  0  0
  190.0770  176.6100  143.0530 C   0  0  0  0  0  0  0  0  0  0  0  0
  191.6670  174.0620  137.0080 O   0  0  0  0  0  0  0  0  0  0  0  0
  191.0260  175.1420  137.1190 C   0  0  0  0  0  0  0  0  0  0  0  0
  189.1800  177.3150  137.4620 C   0  0  2  0  0  3  0  0  0  0  0  0
  192.6330  176.1880  138.6040 C   0  0  0  0  0  3  0  0  0  0  0  0
  189.4830  176.7610  136.1370 N   0  0  0  0  0  2  0  0  0  0  0  0
  193.1260  177.2780  139.4920 C   0  0  0  0  0  2  0  0  0  0  0  0
  188.7900  178.7750  137.3010 C   0  0  0  0  0  1  0  0  0  0  0  0
  191.0470  177.5320  140.8550 C   0  0  0  0  0  0  0  0  0  0  0  0
  191.3910  176.1540  138.1150 C   0  0  0  0  0  0  0  0  0  0  0  0
  192.3660  177.3230  140.7710 C   0  0  0  0  0  3  0  0  0  0  0  0
  189.9090  175.4260  136.2750 N   0  0  0  0  0  0  0  0  0  0  0  0
  190.1780  177.6830  139.6660 C   0  0  0  0  0  3  0  0  0  0  0  0
  190.3370  177.1580  138.4370 C   0  0  0  0  0  0  0  0  0  0  0  0
  188.2180  173.5400  136.8160 C   0  0  0  0  0  1  0  0  0  0  0  0
  189.1040  174.1490  135.3530 S   0  0  0  0  0  0  0  0  0  0  0  0
  2  4  2  0  0  0  0
  3  8  1  0  0  0  0
  3  5  1  0  0  0  0
  4  1  1  0  0  0  0
  5  7  1  0  0  0  0
  6  5  2  0  0  0  0
  6  2  1  0  0  0  0
  7  4  1  0  0  0  0
  8 12  1  6  0  0  0
  8 11  1  0  0  0  0
 10 11  2  0  0  0  0
 11  9  1  0  0  0  0
 13 12  1  0  0  0  0
 14 18  1  0  0  0  0
 14 16  1  0  0  0  0
 15 17  1  0  0  0  0
 15 23  1  0  0  0  0
 15 13  1  1  0  0  0
 16 19  1  1  0  0  0
 16 17  1  0  0  0  0
 18 15  1  0  0  0  0
 19 21  1  0  0  0  0
 20 19  2  0  0  0  0
 23 22  1  6  0  0  0
 23 25  1  0  0  0  0
 25 24  2  0  0  0  0
 26  1  1  0  0  0  0
 26 28  1  0  0  0  0
 27 28  1  0  0  0  0
 27 29  2  0  0  0  0
 28 30  2  0  0  0  0
 29 31  1  0  0  0  0
 30 31  1  0  0  0  0
 31 32  1  0  0  0  0
 33 35  1  0  0  0  0
 34 35  2  0  0  0  0
 35 27  1  0  0  0  0
 36 37  2  0  0  0  0
 37 44  1  0  0  0  0
 38 42  1  6  0  0  0
 38 48  1  0  0  0  0
 39 41  1  0  0  0  0
 40 46  1  0  0  0  0
 40 38  1  0  0  0  0
 41 45  1  0  0  0  0
 43 33  1  0  0  0  0
 44 48  1  0  0  0  0
 44 39  2  0  0  0  0
 45 43  2  0  0  0  0
 46 37  1  0  0  0  0
 47 43  1  0  0  0  0
 48 47  2  0  0  0  0
 50 46  1  0  0  0  0
 50 49  1  0  0  0  0
M  END
>  <MODEL>
1

>  <REMARK>
 VINA RESULT:      -7.7      0.000      0.000
  Name = 
  14 active torsions:
  status: ('A' for Active; 'I' for Inactive)
    1  A    between atoms: N_2  and  C_36
    2  A    between atoms: C_7  and  C_44
    3  A    between atoms: C_8  and  C_14
    4  A    between atoms: C_9  and  C_21
    5  A    between atoms: C_9  and  C_33
    6  A    between atoms: C_10  and  C_11
    7  A    between atoms: C_10  and  C_25
    8  A    between atoms: C_11  and  C_19
    9  A    between atoms: N_13  and  C_29
   10  A    between atoms: C_21  and  N_38
   11  A    between atoms: C_22  and  C_29
   12  A    between atoms: C_29  and  N_38
   13  A    between atoms: C_32  and  C_33
   14  A    between atoms: N_42  and  S_46
                            x       y       z     vdW  Elec       q    Type
                         _______ _______ _______ _____ _____    ______ ____

>  <TORSDO>
F 14

$$$$
=
 OpenBabel10232411203D

 50 54  0  0  1  0  0  0  0  0999 V2000
  185.6340  178.1450  143.9980 C   0  0  0  0  0  2  0  0  0  0  0  0
  186.2810  179.0570  141.7020 C   0  0  0  0  0  3  0  0  0  0  0  0
  183.7210  179.1960  139.1670 N   0  0  0  0  0  2  0  0  0  0  0  0
  185.3480  178.5450  142.5940 C   0  0  0  0  0  0  0  0  0  0  0  0
  184.4690  179.0040  140.3720 C   0  0  0  0  0  0  0  0  0  0  0  0
  185.7800  179.3160  140.4650 N   0  0  0  0  0  0  0  0  0  0  0  0
  183.8620  178.3940  141.8220 S   0  0  0  0  0  0  0  0  0  0  0  0
  182.3200  178.8340  138.9720 C   0  0  1  0  0  3  0  0  0  0  0  0
  181.6900  181.1540  138.9360 O   0  0  0  0  0  0  0  0  0  0  0  0
  180.2750  179.7540  140.0680 O   0  0  0  0  0  1  0  0  0  0  0  0
  181.4140  179.9810  139.3090 C   0  0  0  0  0  0  0  0  0  0  0  0
  182.0960  178.3510  137.6180 N   0  0  0  0  0  2  0  0  0  0  0  0
  183.2600  177.5590  137.2510 C   0  0  0  0  0  2  0  0  0  0  0  0
  182.6650  174.5460  137.6360 C   0  0  0  0  0  2  0  0  0  0  0  0
  182.8680  176.3860  136.3430 C   0  0  2  0  0  0  0  0  0  0  0  0
  181.2500  174.8580  137.2160 C   0  0  2  0  0  3  0  0  0  0  0  0
  181.3690  176.1470  136.4610 C   0  0  0  0  0  2  0  0  0  0  0  0
  183.5450  175.2280  136.7800 O   0  0  0  0  0  0  0  0  0  0  0  0
  180.3720  175.0210  138.4120 C   0  0  0  0  0  0  0  0  0  0  0  0
  179.9960  176.2860  138.8480 O   0  0  0  0  0  0  0  0  0  0  0  0
  179.9850  174.0040  139.0400 O   0  0  0  0  0  1  0  0  0  0  0  0
  182.4030  177.6640  134.3460 O   0  0  0  0  0  1  0  0  0  0  0  0
  183.2490  176.6890  134.8820 C   0  0  1  0  0  3  0  0  0  0  0  0
  185.5520  176.3330  134.4850 O   0  0  0  0  0  0  0  0  0  0  0  0
  184.6750  177.1380  134.7500 C   0  0  0  0  0  3  0  0  0  0  0  0
  186.5260  176.9190  144.0150 C   0  0  0  0  0  2  0  0  0  0  0  0
  189.0420  177.0660  144.5350 C   0  0  0  0  0  0  0  0  0  0  0  0
  187.7060  177.1620  144.8910 C   0  0  0  0  0  0  0  0  0  0  0  0
  189.7540  177.4170  145.6660 C   0  0  0  0  0  3  0  0  0  0  0  0
  187.6130  177.5640  146.1710 N   0  0  0  0  0  0  0  0  0  0  0  0
  188.8490  177.7070  146.6200 N   0  0  0  0  0  0  0  0  0  0  0  0
  189.1690  178.1330  147.9700 C   0  0  0  0  0  1  0  0  0  0  0  0
  189.7070  177.6520  142.1870 N   0  0  0  0  0  2  0  0  0  0  0  0
  190.0190  175.4950  143.0560 O   0  0  0  0  0  0  0  0  0  0  0  0
  189.6140  176.6750  143.2350 C   0  0  0  0  0  0  0  0  0  0  0  0
  190.7390  173.7030  137.2720 O   0  0  0  0  0  0  0  0  0  0  0  0
  190.0080  174.7260  137.3680 C   0  0  0  0  0  0  0  0  0  0  0  0
  188.0030  176.7470  137.7450 C   0  0  2  0  0  3  0  0  0  0  0  0
  191.6580  176.0520  138.5530 C   0  0  0  0  0  3  0  0  0  0  0  0
  188.2100  176.0970  136.4450 N   0  0  0  0  0  2  0  0  0  0  0  0
  192.1350  177.2630  139.2780 C   0  0  0  0  0  2  0  0  0  0  0  0
  187.4510  178.1430  137.5080 C   0  0  0  0  0  1  0  0  0  0  0  0
  190.2070  177.4580  140.8560 C   0  0  0  0  0  0  0  0  0  0  0  0
  190.3780  175.8580  138.2220 C   0  0  0  0  0  0  0  0  0  0  0  0
  191.5230  177.3620  140.6320 C   0  0  0  0  0  3  0  0  0  0  0  0
  188.7800  174.8260  136.6440 N   0  0  0  0  0  0  0  0  0  0  0  0
  189.2000  177.4140  139.7720 C   0  0  0  0  0  3  0  0  0  0  0  0
  189.2720  176.7890  138.5820 C   0  0  0  0  0  0  0  0  0  0  0  0
  186.5950  173.5030  137.0700 C   0  0  0  0  0  1  0  0  0  0  0  0
  188.0100  173.3990  135.9380 S   0  0  0  0  0  0  0  0  0  0  0  0
  1 26  1  0  0  0  0
  2  4  2  0  0  0  0
  3  5  1  0  0  0  0
  4  1  1  0  0  0  0
  5  6  2  0  0  0  0
  5  7  1  0  0  0  0
  6  2  1  0  0  0  0
  7  4  1  0  0  0  0
  8 12  1  6  0  0  0
  8  3  1  0  0  0  0
  8 11  1  0  0  0  0
  9 11  2  0  0  0  0
 11 10  1  0  0  0  0
 13 12  1  0  0  0  0
 15 17  1  0  0  0  0
 15 18  1  0  0  0  0
 15 13  1  1  0  0  0
 16 14  1  0  0  0  0
 16 19  1  1  0  0  0
 17 16  1  0  0  0  0
 18 14  1  0  0  0  0
 19 20  2  0  0  0  0
 19 21  1  0  0  0  0
 23 22  1  1  0  0  0
 23 15  1  0  0  0  0
 24 25  2  0  0  0  0
 25 23  1  0  0  0  0
 26 28  1  0  0  0  0
 27 28  1  0  0  0  0
 27 29  2  0  0  0  0
 28 30  2  0  0  0  0
 29 31  1  0  0  0  0
 30 31  1  0  0  0  0
 31 32  1  0  0  0  0
 33 35  1  0  0  0  0
 34 35  2  0  0  0  0
 35 27  1  0  0  0  0
 36 37  2  0  0  0  0
 37 44  1  0  0  0  0
 38 42  1  6  0  0  0
 38 48  1  0  0  0  0
 39 41  1  0  0  0  0
 40 46  1  0  0  0  0
 40 38  1  0  0  0  0
 41 45  1  0  0  0  0
 43 33  1  0  0  0  0
 44 39  2  0  0  0  0
 44 48  1  0  0  0  0
 45 43  2  0  0  0  0
 46 37  1  0  0  0  0
 47 43  1  0  0  0  0
 48 47  2  0  0  0  0
 50 46  1  0  0  0  0
 50 49  1  0  0  0  0
M  END
>  <MODEL>
2

>  <REMARK>
 VINA RESULT:      -7.6      1.167      2.568
  Name = 
  14 active torsions:
  status: ('A' for Active; 'I' for Inactive)
    1  A    between atoms: N_2  and  C_36
    2  A    between atoms: C_7  and  C_44
    3  A    between atoms: C_8  and  C_14
    4  A    between atoms: C_9  and  C_21
    5  A    between atoms: C_9  and  C_33
    6  A    between atoms: C_10  and  C_11
    7  A    between atoms: C_10  and  C_25
    8  A    between atoms: C_11  and  C_19
    9  A    between atoms: N_13  and  C_29
   10  A    between atoms: C_21  and  N_38
   11  A    between atoms: C_22  and  C_29
   12  A    between atoms: C_29  and  N_38
   13  A    between atoms: C_32  and  C_33
   14  A    between atoms: N_42  and  S_46
                            x       y       z     vdW  Elec       q    Type
                         _______ _______ _______ _____ _____    ______ ____

>  <TORSDO>
F 14

$$$$
=
 OpenBabel10232411203D

 50 54  0  0  1  0  0  0  0  0999 V2000
  185.4240  178.4180  137.3970 C   0  0  0  0  0  2  0  0  0  0  0  0
  186.6530  177.9750  135.2030 C   0  0  0  0  0  3  0  0  0  0  0  0
  188.8720  175.1370  135.0630 N   0  0  0  0  0  2  0  0  0  0  0  0
  186.3410  177.6480  136.5160 C   0  0  0  0  0  0  0  0  0  0  0  0
  187.9420  176.1500  135.4580 C   0  0  0  0  0  0  0  0  0  0  0  0
  187.5430  177.1300  134.6180 N   0  0  0  0  0  0  0  0  0  0  0  0
  187.2070  176.2790  136.9700 S   0  0  0  0  0  0  0  0  0  0  0  0
  189.3920  174.0800  135.9270 C   0  0  1  0  0  3  0  0  0  0  0  0
  189.8380  171.9000  135.0190 O   0  0  0  0  0  0  0  0  0  0  0  0
  187.6340  172.3920  135.3950 O   0  0  0  0  0  1  0  0  0  0  0  0
  188.9800  172.7260  135.4310 C   0  0  0  0  0  0  0  0  0  0  0  0
  190.8360  174.1880  136.0610 N   0  0  0  0  0  2  0  0  0  0  0  0
  191.1160  174.4410  137.4670 C   0  0  0  0  0  2  0  0  0  0  0  0
  190.3210  177.3850  137.9950 C   0  0  0  0  0  2  0  0  0  0  0  0
  191.8610  175.7680  137.6550 C   0  0  2  0  0  0  0  0  0  0  0  0
  191.0040  177.2400  139.3320 C   0  0  2  0  0  3  0  0  0  0  0  0
  191.9390  176.0860  139.1420 C   0  0  0  0  0  2  0  0  0  0  0  0
  191.1330  176.7920  137.0130 O   0  0  0  0  0  0  0  0  0  0  0  0
  190.0050  176.9460  140.4010 C   0  0  0  0  0  0  0  0  0  0  0  0
  190.3600  176.1920  141.5140 O   0  0  0  0  0  1  0  0  0  0  0  0
  188.8270  177.3690  140.2830 O   0  0  0  0  0  0  0  0  0  0  0  0
  193.8990  176.9310  137.0780 O   0  0  0  0  0  1  0  0  0  0  0  0
  193.2750  175.6800  137.0500 C   0  0  1  0  0  3  0  0  0  0  0  0
  195.1480  175.0340  138.3370 O   0  0  0  0  0  0  0  0  0  0  0  0
  194.1340  174.6770  137.7630 C   0  0  0  0  0  3  0  0  0  0  0  0
  185.6630  178.0440  138.8460 C   0  0  0  0  0  2  0  0  0  0  0  0
  184.0410  178.0400  140.8440 C   0  0  0  0  0  0  0  0  0  0  0  0
  184.3630  177.7760  139.5220 C   0  0  0  0  0  0  0  0  0  0  0  0
  182.7220  177.6540  140.9900 C   0  0  0  0  0  3  0  0  0  0  0  0
  183.2890  177.2660  138.8940 N   0  0  0  0  0  0  0  0  0  0  0  0
  182.3170  177.1960  139.7890 N   0  0  0  0  0  0  0  0  0  0  0  0
  180.9870  176.6950  139.4950 C   0  0  0  0  0  1  0  0  0  0  0  0
  185.1420  177.8550  143.0910 N   0  0  0  0  0  2  0  0  0  0  0  0
  185.4170  179.7500  141.7350 O   0  0  0  0  0  0  0  0  0  0  0  0
  184.9000  178.6110  141.8950 C   0  0  0  0  0  0  0  0  0  0  0  0
  188.6380  176.1430  148.1570 O   0  0  0  0  0  0  0  0  0  0  0  0
  188.9540  176.7780  147.1140 C   0  0  0  0  0  0  0  0  0  0  0  0
  189.7610  177.7810  144.5470 C   0  0  2  0  0  3  0  0  0  0  0  0
  186.9700  178.1730  147.1080 C   0  0  0  0  0  3  0  0  0  0  0  0
  190.7090  177.6580  145.6610 N   0  0  0  0  0  2  0  0  0  0  0  0
  186.0560  179.2010  146.5360 C   0  0  0  0  0  2  0  0  0  0  0  0
  190.2230  178.9080  143.6380 C   0  0  0  0  0  1  0  0  0  0  0  0
  185.9240  178.2480  144.2290 C   0  0  0  0  0  0  0  0  0  0  0  0
  188.0030  177.6610  146.4330 C   0  0  0  0  0  0  0  0  0  0  0  0
  185.3270  178.6790  145.3470 C   0  0  0  0  0  3  0  0  0  0  0  0
  190.2610  176.6610  146.5470 N   0  0  0  0  0  0  0  0  0  0  0  0
  187.3950  178.1850  144.0730 C   0  0  0  0  0  3  0  0  0  0  0  0
  188.3330  178.0050  145.0210 C   0  0  0  0  0  0  0  0  0  0  0  0
  192.3030  176.3860  148.1180 C   0  0  0  0  0  1  0  0  0  0  0  0
  191.3410  175.3340  146.9930 S   0  0  0  0  0  0  0  0  0  0  0  0
  1 26  1  0  0  0  0
  2  4  2  0  0  0  0
  3  5  1  0  0  0  0
  4  7  1  0  0  0  0
  4  1  1  0  0  0  0
  5  7  1  0  0  0  0
  6  2  1  0  0  0  0
  6  5  2  0  0  0  0
  8  3  1  6  0  0  0
  8 12  1  0  0  0  0
  9 11  2  0  0  0  0
 10 11  1  0  0  0  0
 11  8  1  0  0  0  0
 12 13  1  0  0  0  0
 14 16  1  0  0  0  0
 15 13  1  6  0  0  0
 15 17  1  0  0  0  0
 16 19  1  1  0  0  0
 17 16  1  0  0  0  0
 18 15  1  0  0  0  0
 18 14  1  0  0  0  0
 19 20  1  0  0  0  0
 21 19  2  0  0  0  0
 23 22  1  1  0  0  0
 23 15  1  0  0  0  0
 23 25  1  0  0  0  0
 25 24  2  0  0  0  0
 26 28  1  0  0  0  0
 27 29  2  0  0  0  0
 27 35  1  0  0  0  0
 28 27  1  0  0  0  0
 30 28  2  0  0  0  0
 30 31  1  0  0  0  0
 31 29  1  0  0  0  0
 32 31  1  0  0  0  0
 33 43  1  0  0  0  0
 34 35  2  0  0  0  0
 35 33  1  0  0  0  0
 37 36  2  0  0  0  0
 38 42  1  6  0  0  0
 38 48  1  0  0  0  0
 38 40  1  0  0  0  0
 40 46  1  0  0  0  0
 41 39  1  0  0  0  0
 43 45  2  0  0  0  0
 44 39  2  0  0  0  0
 44 37  1  0  0  0  0
 45 41  1  0  0  0  0
 46 50  1  0  0  0  0
 46 37  1  0  0  0  0
 47 43  1  0  0  0  0
 47 48  2  0  0  0  0
 48 44  1  0  0  0  0
 50 49  1  0  0  0  0
M  END
>  <MODEL>
3

>  <REMARK>
 VINA RESULT:      -6.9      3.130      9.279
  Name = 
  14 active torsions:
  status: ('A' for Active; 'I' for Inactive)
    1  A    between atoms: N_2  and  C_36
    2  A    between atoms: C_7  and  C_44
    3  A    between atoms: C_8  and  C_14
    4  A    between atoms: C_9  and  C_21
    5  A    between atoms: C_9  and  C_33
    6  A    between atoms: C_10  and  C_11
    7  A    between atoms: C_10  and  C_25
    8  A    between atoms: C_11  and  C_19
    9  A    between atoms: N_13  and  C_29
   10  A    between atoms: C_21  and  N_38
   11  A    between atoms: C_22  and  C_29
   12  A    between atoms: C_29  and  N_38
   13  A    between atoms: C_32  and  C_33
   14  A    between atoms: N_42  and  S_46
                            x       y       z     vdW  Elec       q    Type
                         _______ _______ _______ _____ _____    ______ ____

>  <TORSDO>
F 14

$$$$
=
 OpenBabel10232411203D

 50 54  0  0  1  0  0  0  0  0999 V2000
  188.7140  176.6270  138.0070 C   0  0  0  0  0  2  0  0  0  0  0  0
  191.0130  176.7200  139.1140 C   0  0  0  0  0  3  0  0  0  0  0  0
  193.9110  176.3210  137.0060 N   0  0  0  0  0  2  0  0  0  0  0  0
  190.2010  176.6010  137.9950 C   0  0  0  0  0  0  0  0  0  0  0  0
  192.5850  176.4370  137.5310 C   0  0  0  0  0  0  0  0  0  0  0  0
  192.3430  176.6330  138.8460 N   0  0  0  0  0  0  0  0  0  0  0  0
  191.1600  176.3660  136.6320 S   0  0  0  0  0  0  0  0  0  0  0  0
  194.2510  176.0550  135.6110 C   0  0  1  0  0  3  0  0  0  0  0  0
  196.3820  176.4000  134.5550 O   0  0  0  0  0  0  0  0  0  0  0  0
  195.4030  178.2630  135.4550 O   0  0  0  0  0  1  0  0  0  0  0  0
  195.4020  176.9060  135.1650 C   0  0  0  0  0  0  0  0  0  0  0  0
  194.5160  174.6400  135.4060 N   0  0  0  0  0  2  0  0  0  0  0  0
  194.3700  173.9880  136.6990 C   0  0  0  0  0  2  0  0  0  0  0  0
  197.2460  174.6810  137.6110 C   0  0  0  0  0  2  0  0  0  0  0  0
  195.6330  173.1970  137.0670 C   0  0  2  0  0  0  0  0  0  0  0  0
  196.8990  174.0190  138.9200 C   0  0  2  0  0  3  0  0  0  0  0  0
  195.7450  173.1230  138.5830 C   0  0  0  0  0  2  0  0  0  0  0  0
  196.7590  173.8810  136.5640 O   0  0  0  0  0  0  0  0  0  0  0  0
  196.5020  175.0390  139.9350 C   0  0  0  0  0  0  0  0  0  0  0  0
  197.2770  175.2500  141.0690 O   0  0  0  0  0  1  0  0  0  0  0  0
  195.4450  175.7000  139.7700 O   0  0  0  0  0  0  0  0  0  0  0  0
  196.2130  170.8640  137.3030 O   0  0  0  0  0  1  0  0  0  0  0  0
  195.5730  171.7810  136.4650 C   0  0  1  0  0  3  0  0  0  0  0  0
  193.8150  170.2030  136.5200 O   0  0  0  0  0  0  0  0  0  0  0  0
  194.1630  171.3300  136.2150 C   0  0  0  0  0  3  0  0  0  0  0  0
  188.2250  177.8170  138.8080 C   0  0  0  0  0  2  0  0  0  0  0  0
  185.8950  178.2910  139.7940 C   0  0  0  0  0  0  0  0  0  0  0  0
  186.7360  177.8740  138.7740 C   0  0  0  0  0  0  0  0  0  0  0  0
  184.6150  178.2000  139.2800 C   0  0  0  0  0  3  0  0  0  0  0  0
  186.0040  177.5580  137.6910 N   0  0  0  0  0  0  0  0  0  0  0  0
  184.7360  177.7560  138.0140 N   0  0  0  0  0  0  0  0  0  0  0  0
  183.6300  177.5240  137.1030 C   0  0  0  0  0  1  0  0  0  0  0  0
  186.9010  177.8220  142.0440 N   0  0  0  0  0  2  0  0  0  0  0  0
  186.0050  179.9230  141.5060 O   0  0  0  0  0  0  0  0  0  0  0  0
  186.2570  178.7410  141.1490 C   0  0  0  0  0  0  0  0  0  0  0  0
  189.3440  175.5470  147.4910 O   0  0  0  0  0  0  0  0  0  0  0  0
  189.7790  176.4240  146.6960 C   0  0  0  0  0  0  0  0  0  0  0  0
  190.9770  178.0460  144.6510 C   0  0  2  0  0  3  0  0  0  0  0  0
  187.6340  177.5170  146.3970 C   0  0  0  0  0  3  0  0  0  0  0  0
  191.6390  177.8150  145.9400 N   0  0  0  0  0  2  0  0  0  0  0  0
  186.7120  178.5150  145.7850 C   0  0  0  0  0  2  0  0  0  0  0  0
  191.4300  179.3910  144.1060 C   0  0  0  0  0  1  0  0  0  0  0  0
  187.3060  178.0640  143.4000 C   0  0  0  0  0  0  0  0  0  0  0  0
  188.8730  177.2990  145.9460 C   0  0  0  0  0  0  0  0  0  0  0  0
  186.3930  178.1660  144.3730 C   0  0  0  0  0  3  0  0  0  0  0  0
  191.1820  176.6030  146.4890 N   0  0  0  0  0  0  0  0  0  0  0  0
  188.7580  178.2290  143.6360 C   0  0  0  0  0  3  0  0  0  0  0  0
  189.4610  177.9760  144.7560 C   0  0  0  0  0  0  0  0  0  0  0  0
  192.7300  176.2190  148.5310 C   0  0  0  0  0  1  0  0  0  0  0  0
  192.3470  175.3640  146.9750 S   0  0  0  0  0  0  0  0  0  0  0  0
  1 26  1  0  0  0  0
  3  5  1  0  0  0  0
  4  1  1  0  0  0  0
  4  2  2  0  0  0  0
  5  6  2  0  0  0  0
  6  2  1  0  0  0  0
  7  5  1  0  0  0  0
  7  4  1  0  0  0  0
  8 11  1  1  0  0  0
  8  3  1  0  0  0  0
  9 11  2  0  0  0  0
 11 10  1  0  0  0  0
 12  8  1  0  0  0  0
 12 13  1  0  0  0  0
 14 16  1  0  0  0  0
 15 13  1  6  0  0  0
 15 17  1  0  0  0  0
 16 19  1  1  0  0  0
 17 16  1  0  0  0  0
 18 15  1  0  0  0  0
 18 14  1  0  0  0  0
 19 20  1  0  0  0  0
 21 19  2  0  0  0  0
 23 15  1  0  0  0  0
 23 22  1  1  0  0  0
 25 23  1  0  0  0  0
 25 24  2  0  0  0  0
 27 35  1  0  0  0  0
 28 26  1  0  0  0  0
 28 27  1  0  0  0  0
 29 27  2  0  0  0  0
 30 31  1  0  0  0  0
 30 28  2  0  0  0  0
 31 29  1  0  0  0  0
 32 31  1  0  0  0  0
 33 43  1  0  0  0  0
 35 34  2  0  0  0  0
 35 33  1  0  0  0  0
 37 36  2  0  0  0  0
 38 42  1  1  0  0  0
 38 48  1  0  0  0  0
 38 40  1  0  0  0  0
 40 46  1  0  0  0  0
 41 39  1  0  0  0  0
 43 47  1  0  0  0  0
 43 45  2  0  0  0  0
 44 39  2  0  0  0  0
 44 37  1  0  0  0  0
 45 41  1  0  0  0  0
 46 37  1  0  0  0  0
 46 50  1  0  0  0  0
 47 48  2  0  0  0  0
 48 44  1  0  0  0  0
 50 49  1  0  0  0  0
M  END
>  <MODEL>
4

>  <REMARK>
 VINA RESULT:      -6.7      3.880     10.976
  Name = 
  14 active torsions:
  status: ('A' for Active; 'I' for Inactive)
    1  A    between atoms: N_2  and  C_36
    2  A    between atoms: C_7  and  C_44
    3  A    between atoms: C_8  and  C_14
    4  A    between atoms: C_9  and  C_21
    5  A    between atoms: C_9  and  C_33
    6  A    between atoms: C_10  and  C_11
    7  A    between atoms: C_10  and  C_25
    8  A    between atoms: C_11  and  C_19
    9  A    between atoms: N_13  and  C_29
   10  A    between atoms: C_21  and  N_38
   11  A    between atoms: C_22  and  C_29
   12  A    between atoms: C_29  and  N_38
   13  A    between atoms: C_32  and  C_33
   14  A    between atoms: N_42  and  S_46
                            x       y       z     vdW  Elec       q    Type
                         _______ _______ _______ _____ _____    ______ ____

>  <TORSDO>
F 14

$$$$
=
 OpenBabel10232411203D

 50 54  0  0  1  0  0  0  0  0999 V2000
  187.7390  176.9850  144.9130 C   0  0  0  0  0  2  0  0  0  0  0  0
  186.2440  178.7780  145.9470 C   0  0  0  0  0  3  0  0  0  0  0  0
  183.0100  179.3360  144.4540 N   0  0  0  0  0  2  0  0  0  0  0  0
  186.4850  177.7770  145.0150 C   0  0  0  0  0  0  0  0  0  0  0  0
  184.3220  178.8680  144.7850 C   0  0  0  0  0  0  0  0  0  0  0  0
  185.0320  179.3780  145.8150 N   0  0  0  0  0  0  0  0  0  0  0  0
  185.1610  177.6430  143.9860 S   0  0  0  0  0  0  0  0  0  0  0  0
  182.2050  178.8750  143.3260 C   0  0  1  0  0  3  0  0  0  0  0  0
  180.2910  180.1970  142.7210 O   0  0  0  0  0  0  0  0  0  0  0  0
  179.9890  178.7440  144.4650 O   0  0  0  0  0  1  0  0  0  0  0  0
  180.7760  179.3070  143.4710 C   0  0  0  0  0  0  0  0  0  0  0  0
  182.7780  179.3230  142.0660 N   0  0  0  0  0  2  0  0  0  0  0  0
  182.8210  178.1670  141.1840 C   0  0  0  0  0  2  0  0  0  0  0  0
  183.5340  179.8580  138.6920 C   0  0  0  0  0  2  0  0  0  0  0  0
  182.1610  178.4750  139.8330 C   0  0  2  0  0  0  0  0  0  0  0  0
  183.6120  178.5560  137.9350 C   0  0  2  0  0  3  0  0  0  0  0  0
  182.8000  177.6040  138.7600 C   0  0  0  0  0  2  0  0  0  0  0  0
  182.3940  179.8290  139.5130 O   0  0  0  0  0  0  0  0  0  0  0  0
  185.0270  178.0950  137.8300 C   0  0  0  0  0  0  0  0  0  0  0  0
  185.3220  176.7900  137.4530 O   0  0  0  0  0  0  0  0  0  0  0  0
  185.9610  178.8910  138.1040 O   0  0  0  0  0  1  0  0  0  0  0  0
  180.0770  178.2670  138.6280 O   0  0  0  0  0  1  0  0  0  0  0  0
  180.6450  178.2120  139.9040 C   0  0  1  0  0  3  0  0  0  0  0  0
  180.5280  175.8520  139.9240 O   0  0  0  0  0  0  0  0  0  0  0  0
  180.3290  176.8880  140.5350 C   0  0  0  0  0  3  0  0  0  0  0  0
  188.9360  177.9140  144.8680 C   0  0  0  0  0  2  0  0  0  0  0  0
  191.1230  176.5590  144.8130 C   0  0  0  0  0  0  0  0  0  0  0  0
  190.1200  177.2470  145.4780 C   0  0  0  0  0  0  0  0  0  0  0  0
  192.0110  176.1570  145.7930 C   0  0  0  0  0  3  0  0  0  0  0  0
  190.3920  177.2700  146.7950 N   0  0  0  0  0  0  0  0  0  0  0  0
  191.5250  176.6090  146.9660 N   0  0  0  0  0  0  0  0  0  0  0  0
  192.1540  176.4140  148.2590 C   0  0  0  0  0  1  0  0  0  0  0  0
  191.8100  177.3060  142.5180 N   0  0  0  0  0  2  0  0  0  0  0  0
  190.8650  175.1930  142.8960 O   0  0  0  0  0  0  0  0  0  0  0  0
  191.2470  176.2970  143.3690 C   0  0  0  0  0  0  0  0  0  0  0  0
  191.1510  174.0330  137.0720 O   0  0  0  0  0  0  0  0  0  0  0  0
  190.6350  175.1210  137.4470 C   0  0  0  0  0  0  0  0  0  0  0  0
  189.1110  177.3170  138.4970 C   0  0  2  0  0  3  0  0  0  0  0  0
  192.6880  176.0170  138.3780 C   0  0  0  0  0  3  0  0  0  0  0  0
  188.9390  176.8470  137.1170 N   0  0  0  0  0  2  0  0  0  0  0  0
  193.4960  177.0290  139.1140 C   0  0  0  0  0  2  0  0  0  0  0  0
  188.7620  178.7950  138.5540 C   0  0  0  0  0  1  0  0  0  0  0  0
  191.9900  177.2480  141.0950 C   0  0  0  0  0  0  0  0  0  0  0  0
  191.3530  176.0510  138.3220 C   0  0  0  0  0  0  0  0  0  0  0  0
  193.1970  177.0070  140.5720 C   0  0  0  0  0  3  0  0  0  0  0  0
  189.3190  175.4950  137.0330 N   0  0  0  0  0  0  0  0  0  0  0  0
  190.7890  177.5040  140.2680 C   0  0  0  0  0  3  0  0  0  0  0  0
  190.5130  177.0600  139.0270 C   0  0  0  0  0  0  0  0  0  0  0  0
  188.2860  175.0460  134.7010 C   0  0  0  0  0  1  0  0  0  0  0  0
  188.1960  174.3080  136.3570 S   0  0  0  0  0  0  0  0  0  0  0  0
  1  4  1  0  0  0  0
  3  5  1  0  0  0  0
  4  2  2  0  0  0  0
  5  6  2  0  0  0  0
  6  2  1  0  0  0  0
  7  5  1  0  0  0  0
  7  4  1  0  0  0  0
  8 12  1  6  0  0  0
  8 11  1  0  0  0  0
  8  3  1  0  0  0  0
  9 11  2  0  0  0  0
 11 10  1  0  0  0  0
 13 12  1  0  0  0  0
 14 18  1  0  0  0  0
 15 23  1  0  0  0  0
 15 13  1  1  0  0  0
 16 19  1  1  0  0  0
 16 14  1  0  0  0  0
 16 17  1  0  0  0  0
 17 15  1  0  0  0  0
 18 15  1  0  0  0  0
 19 21  1  0  0  0  0
 20 19  2  0  0  0  0
 23 22  1  6  0  0  0
 23 25  1  0  0  0  0
 24 25  2  0  0  0  0
 26  1  1  0  0  0  0
 26 28  1  0  0  0  0
 27 28  1  0  0  0  0
 27 29  2  0  0  0  0
 28 30  2  0  0  0  0
 29 31  1  0  0  0  0
 30 31  1  0  0  0  0
 31 32  1  0  0  0  0
 33 35  1  0  0  0  0
 34 35  2  0  0  0  0
 35 27  1  0  0  0  0
 36 37  2  0  0  0  0
 37 44  1  0  0  0  0
 38 42  1  6  0  0  0
 38 48  1  0  0  0  0
 39 41  1  0  0  0  0
 40 38  1  0  0  0  0
 41 45  1  0  0  0  0
 43 33  1  0  0  0  0
 44 39  2  0  0  0  0
 44 48  1  0  0  0  0
 45 43  2  0  0  0  0
 46 40  1  0  0  0  0
 46 37  1  0  0  0  0
 47 43  1  0  0  0  0
 48 47  2  0  0  0  0
 49 50  1  0  0  0  0
 50 46  1  0  0  0  0
M  END
>  <MODEL>
5

>  <REMARK>
 VINA RESULT:      -6.5      1.956      2.702
  Name = 
  14 active torsions:
  status: ('A' for Active; 'I' for Inactive)
    1  A    between atoms: N_2  and  C_36
    2  A    between atoms: C_7  and  C_44
    3  A    between atoms: C_8  and  C_14
    4  A    between atoms: C_9  and  C_21
    5  A    between atoms: C_9  and  C_33
    6  A    between atoms: C_10  and  C_11
    7  A    between atoms: C_10  and  C_25
    8  A    between atoms: C_11  and  C_19
    9  A    between atoms: N_13  and  C_29
   10  A    between atoms: C_21  and  N_38
   11  A    between atoms: C_22  and  C_29
   12  A    between atoms: C_29  and  N_38
   13  A    between atoms: C_32  and  C_33
   14  A    between atoms: N_42  and  S_46
                            x       y       z     vdW  Elec       q    Type
                         _______ _______ _______ _____ _____    ______ ____

>  <TORSDO>
F 14

$$$$
=
 OpenBabel10232411203D

 50 54  0  0  1  0  0  0  0  0999 V2000
  187.5530  178.7310  142.2400 C   0  0  0  0  0  2  0  0  0  0  0  0
  189.3180  176.9010  142.4700 C   0  0  0  0  0  3  0  0  0  0  0  0
  191.3090  176.1130  139.5690 N   0  0  0  0  0  2  0  0  0  0  0  0
  188.6600  177.8770  141.7340 C   0  0  0  0  0  0  0  0  0  0  0  0
  190.3670  176.6630  140.4950 C   0  0  0  0  0  0  0  0  0  0  0  0
  190.2740  176.2320  141.7720 N   0  0  0  0  0  0  0  0  0  0  0  0
  189.2710  177.9010  140.1670 S   0  0  0  0  0  0  0  0  0  0  0  0
  191.4330  176.4870  138.1630 C   0  0  1  0  0  3  0  0  0  0  0  0
  193.7820  176.8400  138.5350 O   0  0  0  0  0  1  0  0  0  0  0  0
  193.1960  176.1680  136.4260 O   0  0  0  0  0  0  0  0  0  0  0  0
  192.8700  176.5010  137.7330 C   0  0  0  0  0  0  0  0  0  0  0  0
  190.6280  175.6120  137.3240 N   0  0  0  0  0  2  0  0  0  0  0  0
  190.1310  176.4200  136.2210 C   0  0  0  0  0  2  0  0  0  0  0  0
  187.3350  176.0060  137.4820 C   0  0  0  0  0  2  0  0  0  0  0  0
  188.7650  175.9170  135.7360 C   0  0  2  0  0  0  0  0  0  0  0  0
  186.8490  177.0900  136.5540 C   0  0  2  0  0  3  0  0  0  0  0  0
  187.8680  177.1150  135.4550 C   0  0  0  0  0  2  0  0  0  0  0  0
  188.1770  175.1440  136.7590 O   0  0  0  0  0  0  0  0  0  0  0  0
  186.7980  178.4030  137.2620 C   0  0  0  0  0  0  0  0  0  0  0  0
  185.7990  178.6690  138.1910 O   0  0  0  0  0  1  0  0  0  0  0  0
  187.6580  179.2830  137.0000 O   0  0  0  0  0  0  0  0  0  0  0  0
  190.2390  174.5900  134.3580 O   0  0  0  0  0  1  0  0  0  0  0  0
  188.9280  175.0600  134.4670 C   0  0  1  0  0  3  0  0  0  0  0  0
  188.2730  172.8500  134.9850 O   0  0  0  0  0  0  0  0  0  0  0  0
  187.9770  173.9000  134.4420 C   0  0  0  0  0  3  0  0  0  0  0  0
  186.4800  177.8670  142.8730 C   0  0  0  0  0  2  0  0  0  0  0  0
  185.4210  178.3870  145.1600 C   0  0  0  0  0  0  0  0  0  0  0  0
  186.4940  178.0440  144.3520 C   0  0  0  0  0  0  0  0  0  0  0  0
  185.9150  178.3930  146.4510 C   0  0  0  0  0  3  0  0  0  0  0  0
  187.5810  177.8390  145.1170 N   0  0  0  0  0  0  0  0  0  0  0  0
  187.2170  178.0570  146.3700 N   0  0  0  0  0  0  0  0  0  0  0  0
  188.1180  177.9360  147.5010 C   0  0  0  0  0  1  0  0  0  0  0  0
  183.6250  178.4280  143.4080 N   0  0  0  0  0  2  0  0  0  0  0  0
  183.2270  179.1630  145.6000 O   0  0  0  0  0  0  0  0  0  0  0  0
  184.0360  178.6880  144.7590 C   0  0  0  0  0  0  0  0  0  0  0  0
  180.0440  181.7970  139.3280 O   0  0  0  0  0  0  0  0  0  0  0  0
  180.3340  180.5700  139.3510 C   0  0  0  0  0  0  0  0  0  0  0  0
  181.3900  177.9070  139.1440 C   0  0  2  0  0  3  0  0  0  0  0  0
  179.9890  180.3160  141.7380 C   0  0  0  0  0  3  0  0  0  0  0  0
  180.3980  178.4210  138.1910 N   0  0  0  0  0  2  0  0  0  0  0  0
  180.0090  179.5620  143.0230 C   0  0  0  0  0  2  0  0  0  0  0  0
  181.2370  176.3970  139.2380 C   0  0  0  0  0  1  0  0  0  0  0  0
  182.3370  178.6750  142.8250 C   0  0  0  0  0  0  0  0  0  0  0  0
  180.5350  179.8500  140.6110 C   0  0  0  0  0  0  0  0  0  0  0  0
  181.4010  179.3470  143.5050 C   0  0  0  0  0  3  0  0  0  0  0  0
  180.4830  179.8240  138.1400 N   0  0  0  0  0  0  0  0  0  0  0  0
  182.1060  178.1170  141.4740 C   0  0  0  0  0  3  0  0  0  0  0  0
  181.2740  178.5590  140.5120 C   0  0  0  0  0  0  0  0  0  0  0  0
  181.2590  179.1080  135.7750 C   0  0  0  0  0  1  0  0  0  0  0  0
  180.6980  180.6340  136.5830 S   0  0  0  0  0  0  0  0  0  0  0  0
  1 26  1  0  0  0  0
  3  5  1  0  0  0  0
  4  1  1  0  0  0  0
  4  2  2  0  0  0  0
  5  6  2  0  0  0  0
  6  2  1  0  0  0  0
  7  5  1  0  0  0  0
  7  4  1  0  0  0  0
  8 12  1  6  0  0  0
  8  3  1  0  0  0  0
 10 11  2  0  0  0  0
 11  8  1  0  0  0  0
 11  9  1  0  0  0  0
 13 12  1  0  0  0  0
 15 13  1  1  0  0  0
 15 18  1  0  0  0  0
 16 19  1  1  0  0  0
 16 14  1  0  0  0  0
 17 15  1  0  0  0  0
 17 16  1  0  0  0  0
 18 14  1  0  0  0  0
 19 20  1  0  0  0  0
 21 19  2  0  0  0  0
 23 22  1  1  0  0  0
 23 15  1  0  0  0  0
 25 23  1  0  0  0  0
 25 24  2  0  0  0  0
 26 28  1  0  0  0  0
 27 29  2  0  0  0  0
 28 30  2  0  0  0  0
 28 27  1  0  0  0  0
 30 31  1  0  0  0  0
 31 29  1  0  0  0  0
 31 32  1  0  0  0  0
 33 35  1  0  0  0  0
 35 27  1  0  0  0  0
 35 34  2  0  0  0  0
 36 37  2  0  0  0  0
 37 44  1  0  0  0  0
 38 42  1  1  0  0  0
 38 48  1  0  0  0  0
 39 41  1  0  0  0  0
 40 38  1  0  0  0  0
 41 45  1  0  0  0  0
 43 33  1  0  0  0  0
 43 45  2  0  0  0  0
 44 39  2  0  0  0  0
 46 40  1  0  0  0  0
 46 37  1  0  0  0  0
 47 43  1  0  0  0  0
 48 44  1  0  0  0  0
 48 47  2  0  0  0  0
 49 50  1  0  0  0  0
 50 46  1  0  0  0  0
M  END
>  <MODEL>
6

>  <REMARK>
 VINA RESULT:      -6.4      2.745      8.487
  Name = 
  14 active torsions:
  status: ('A' for Active; 'I' for Inactive)
    1  A    between atoms: N_2  and  C_36
    2  A    between atoms: C_7  and  C_44
    3  A    between atoms: C_8  and  C_14
    4  A    between atoms: C_9  and  C_21
    5  A    between atoms: C_9  and  C_33
    6  A    between atoms: C_10  and  C_11
    7  A    between atoms: C_10  and  C_25
    8  A    between atoms: C_11  and  C_19
    9  A    between atoms: N_13  and  C_29
   10  A    between atoms: C_21  and  N_38
   11  A    between atoms: C_22  and  C_29
   12  A    between atoms: C_29  and  N_38
   13  A    between atoms: C_32  and  C_33
   14  A    between atoms: N_42  and  S_46
                            x       y       z     vdW  Elec       q    Type
                         _______ _______ _______ _____ _____    ______ ____

>  <TORSDO>
F 14

$$$$
=
 OpenBabel10232411203D

 50 54  0  0  1  0  0  0  0  0999 V2000
  184.8540  179.0350  139.2010 C   0  0  0  0  0  2  0  0  0  0  0  0
  184.2020  177.8600  137.0300 C   0  0  0  0  0  3  0  0  0  0  0  0
  186.2370  175.0890  135.9420 N   0  0  0  0  0  2  0  0  0  0  0  0
  185.0120  177.9950  138.1500 C   0  0  0  0  0  0  0  0  0  0  0  0
  185.6650  176.1960  136.6470 C   0  0  0  0  0  0  0  0  0  0  0  0
  184.5710  176.8490  136.1990 N   0  0  0  0  0  0  0  0  0  0  0  0
  186.2310  176.8370  138.1000 S   0  0  0  0  0  0  0  0  0  0  0  0
  187.4460  174.3700  136.3320 C   0  0  1  0  0  3  0  0  0  0  0  0
  187.2360  173.0320  134.3460 O   0  0  0  0  0  0  0  0  0  0  0  0
  188.0910  171.9640  136.1820 O   0  0  0  0  0  1  0  0  0  0  0  0
  187.5910  173.0960  135.5540 C   0  0  0  0  0  0  0  0  0  0  0  0
  188.6190  175.2200  136.1950 N   0  0  0  0  0  2  0  0  0  0  0  0
  189.4420  175.0030  137.3740 C   0  0  0  0  0  2  0  0  0  0  0  0
  189.5670  178.0400  137.9620 C   0  0  0  0  0  2  0  0  0  0  0  0
  190.5470  176.0620  137.4820 C   0  0  2  0  0  0  0  0  0  0  0  0
  190.3050  177.6780  139.2270 C   0  0  2  0  0  3  0  0  0  0  0  0
  190.8530  176.3110  138.9530 C   0  0  0  0  0  2  0  0  0  0  0  0
  190.0810  177.2640  136.9090 O   0  0  0  0  0  0  0  0  0  0  0  0
  189.3700  177.6540  140.3900 C   0  0  0  0  0  0  0  0  0  0  0  0
  188.4770  178.6980  140.6040 O   0  0  0  0  0  0  0  0  0  0  0  0
  189.4040  176.6870  141.1930 O   0  0  0  0  0  1  0  0  0  0  0  0
  192.0880  176.4280  135.6580 O   0  0  0  0  0  1  0  0  0  0  0  0
  191.8150  175.5930  136.7440 C   0  0  1  0  0  3  0  0  0  0  0  0
  194.0140  176.1790  137.3790 O   0  0  0  0  0  0  0  0  0  0  0  0
  193.0110  175.5410  137.6490 C   0  0  0  0  0  3  0  0  0  0  0  0
  185.0290  178.4150  140.5730 C   0  0  0  0  0  2  0  0  0  0  0  0
  183.5190  178.7490  142.6300 C   0  0  0  0  0  0  0  0  0  0  0  0
  183.7290  178.4180  141.3000 C   0  0  0  0  0  0  0  0  0  0  0  0
  182.1560  178.6380  142.8300 C   0  0  0  0  0  3  0  0  0  0  0  0
  182.5500  178.1320  140.7200 N   0  0  0  0  0  0  0  0  0  0  0  0
  181.6200  178.2650  141.6520 N   0  0  0  0  0  0  0  0  0  0  0  0
  180.2060  178.0410  141.4130 C   0  0  0  0  0  1  0  0  0  0  0  0
  185.4170  178.1490  144.1590 N   0  0  0  0  0  2  0  0  0  0  0  0
  184.5750  180.3360  144.0360 O   0  0  0  0  0  0  0  0  0  0  0  0
  184.5170  179.1400  143.6410 C   0  0  0  0  0  0  0  0  0  0  0  0
  189.9530  175.5720  147.8450 O   0  0  0  0  0  0  0  0  0  0  0  0
  190.0290  176.4290  146.9230 C   0  0  0  0  0  0  0  0  0  0  0  0
  190.2430  177.9930  144.5250 C   0  0  2  0  0  3  0  0  0  0  0  0
  188.0930  177.6950  147.6520 C   0  0  0  0  0  3  0  0  0  0  0  0
  191.4160  177.6820  145.3510 N   0  0  0  0  0  2  0  0  0  0  0  0
  187.0740  178.7750  147.5310 C   0  0  0  0  0  2  0  0  0  0  0  0
  190.4910  179.3090  143.8050 C   0  0  0  0  0  1  0  0  0  0  0  0
  186.4320  178.3290  145.1580 C   0  0  0  0  0  0  0  0  0  0  0  0
  188.9500  177.3890  146.6740 C   0  0  0  0  0  0  0  0  0  0  0  0
  186.0990  178.4830  146.4440 C   0  0  0  0  0  3  0  0  0  0  0  0
  191.1770  176.4990  146.0740 N   0  0  0  0  0  0  0  0  0  0  0  0
  187.8310  178.3730  144.6760 C   0  0  0  0  0  3  0  0  0  0  0  0
  188.9570  178.0410  145.3350 C   0  0  0  0  0  0  0  0  0  0  0  0
  191.9960  174.8990  144.2100 C   0  0  0  0  0  1  0  0  0  0  0  0
  192.3300  175.1620  145.9750 S   0  0  0  0  0  0  0  0  0  0  0  0
  1 26  1  0  0  0  0
  2  4  2  0  0  0  0
  3  8  1  0  0  0  0
  3  5  1  0  0  0  0
  4  1  1  0  0  0  0
  5  7  1  0  0  0  0
  6  5  2  0  0  0  0
  6  2  1  0  0  0  0
  7  4  1  0  0  0  0
  8 11  1  6  0  0  0
  9 11  2  0  0  0  0
 11 10  1  0  0  0  0
 12  8  1  0  0  0  0
 12 13  1  0  0  0  0
 14 16  1  0  0  0  0
 15 13  1  6  0  0  0
 15 17  1  0  0  0  0
 16 19  1  1  0  0  0
 17 16  1  0  0  0  0
 18 15  1  0  0  0  0
 18 14  1  0  0  0  0
 19 20  2  0  0  0  0
 19 21  1  0  0  0  0
 23 22  1  6  0  0  0
 23 15  1  0  0  0  0
 23 25  1  0  0  0  0
 24 25  2  0  0  0  0
 26 28  1  0  0  0  0
 27 29  2  0  0  0  0
 27 35  1  0  0  0  0
 28 27  1  0  0  0  0
 30 28  2  0  0  0  0
 30 31  1  0  0  0  0
 31 29  1  0  0  0  0
 32 31  1  0  0  0  0
 33 43  1  0  0  0  0
 35 34  2  0  0  0  0
 35 33  1  0  0  0  0
 37 36  2  0  0  0  0
 38 42  1  1  0  0  0
 38 48  1  0  0  0  0
 38 40  1  0  0  0  0
 40 46  1  0  0  0  0
 41 39  1  0  0  0  0
 43 45  2  0  0  0  0
 44 37  1  0  0  0  0
 44 39  2  0  0  0  0
 45 41  1  0  0  0  0
 46 37  1  0  0  0  0
 47 43  1  0  0  0  0
 47 48  2  0  0  0  0
 48 44  1  0  0  0  0
 49 50  1  0  0  0  0
 50 46  1  0  0  0  0
M  END
>  <MODEL>
7

>  <REMARK>
 VINA RESULT:      -6.4      3.148      8.451
  Name = 
  14 active torsions:
  status: ('A' for Active; 'I' for Inactive)
    1  A    between atoms: N_2  and  C_36
    2  A    between atoms: C_7  and  C_44
    3  A    between atoms: C_8  and  C_14
    4  A    between atoms: C_9  and  C_21
    5  A    between atoms: C_9  and  C_33
    6  A    between atoms: C_10  and  C_11
    7  A    between atoms: C_10  and  C_25
    8  A    between atoms: C_11  and  C_19
    9  A    between atoms: N_13  and  C_29
   10  A    between atoms: C_21  and  N_38
   11  A    between atoms: C_22  and  C_29
   12  A    between atoms: C_29  and  N_38
   13  A    between atoms: C_32  and  C_33
   14  A    between atoms: N_42  and  S_46
                            x       y       z     vdW  Elec       q    Type
                         _______ _______ _______ _____ _____    ______ ____

>  <TORSDO>
F 14

$$$$
=
 OpenBabel10232411203D

 50 54  0  0  1  0  0  0  0  0999 V2000
  187.4200  177.2320  145.6260 C   0  0  0  0  0  2  0  0  0  0  0  0
  185.9770  179.3130  145.9530 C   0  0  0  0  0  3  0  0  0  0  0  0
  182.9780  179.6070  143.9720 N   0  0  0  0  0  2  0  0  0  0  0  0
  186.2320  178.0850  145.3570 C   0  0  0  0  0  0  0  0  0  0  0  0
  184.2030  179.1800  144.5770 C   0  0  0  0  0  0  0  0  0  0  0  0
  184.8390  179.9150  145.5160 N   0  0  0  0  0  0  0  0  0  0  0  0
  185.0180  177.7420  144.2430 S   0  0  0  0  0  0  0  0  0  0  0  0
  182.2620  178.8970  142.9160 C   0  0  1  0  0  3  0  0  0  0  0  0
  180.2660  180.1710  142.5020 O   0  0  0  0  0  0  0  0  0  0  0  0
  179.9840  178.2330  143.6880 O   0  0  0  0  0  1  0  0  0  0  0  0
  180.7850  179.1390  143.0090 C   0  0  0  0  0  0  0  0  0  0  0  0
  182.7860  179.2560  141.6070 N   0  0  0  0  0  2  0  0  0  0  0  0
  181.9160  178.6400  140.6170 C   0  0  0  0  0  2  0  0  0  0  0  0
  181.0310  179.1630  137.6970 C   0  0  0  0  0  2  0  0  0  0  0  0
  182.5850  178.6020  139.2370 C   0  0  2  0  0  0  0  0  0  0  0  0
  181.9770  180.3390  137.7120 C   0  0  2  0  0  3  0  0  0  0  0  0
  182.9370  180.0230  138.8180 C   0  0  0  0  0  2  0  0  0  0  0  0
  181.6710  178.0690  138.3040 O   0  0  0  0  0  0  0  0  0  0  0  0
  181.2360  181.6030  137.9940 C   0  0  0  0  0  0  0  0  0  0  0  0
  181.0150  182.5350  136.9870 O   0  0  0  0  0  0  0  0  0  0  0  0
  180.8260  181.8350  139.1600 O   0  0  0  0  0  1  0  0  0  0  0  0
  183.5320  176.3870  139.0440 O   0  0  0  0  0  1  0  0  0  0  0  0
  183.8520  177.7270  139.2800 C   0  0  1  0  0  3  0  0  0  0  0  0
  184.8520  177.7650  137.1390 O   0  0  0  0  0  0  0  0  0  0  0  0
  184.8830  178.1760  138.2860 C   0  0  0  0  0  3  0  0  0  0  0  0
  188.5700  177.6500  144.7320 C   0  0  0  0  0  2  0  0  0  0  0  0
  190.8580  176.5010  144.4690 C   0  0  0  0  0  0  0  0  0  0  0  0
  189.8420  177.0580  145.2310 C   0  0  0  0  0  0  0  0  0  0  0  0
  191.8360  176.1260  145.3710 C   0  0  0  0  0  3  0  0  0  0  0  0
  190.1930  177.0320  146.5290 N   0  0  0  0  0  0  0  0  0  0  0  0
  191.3870  176.4670  146.5940 N   0  0  0  0  0  0  0  0  0  0  0  0
  192.1100  176.2570  147.8350 C   0  0  0  0  0  1  0  0  0  0  0  0
  191.6770  177.2590  142.2220 N   0  0  0  0  0  2  0  0  0  0  0  0
  190.2980  175.3770  142.4620 O   0  0  0  0  0  0  0  0  0  0  0  0
  190.9130  176.3320  143.0070 C   0  0  0  0  0  0  0  0  0  0  0  0
  191.2110  174.1580  136.6560 O   0  0  0  0  0  0  0  0  0  0  0  0
  190.6050  175.1770  137.0840 C   0  0  0  0  0  0  0  0  0  0  0  0
  188.9060  177.1770  138.2510 C   0  0  2  0  0  3  0  0  0  0  0  0
  192.5840  176.2230  138.0170 C   0  0  0  0  0  3  0  0  0  0  0  0
  188.7490  176.7480  136.8560 N   0  0  0  0  0  2  0  0  0  0  0  0
  193.3110  177.2760  138.7800 C   0  0  0  0  0  2  0  0  0  0  0  0
  188.4220  178.6130  138.3750 C   0  0  0  0  0  1  0  0  0  0  0  0
  191.8320  177.2740  140.7950 C   0  0  0  0  0  0  0  0  0  0  0  0
  191.2510  176.1350  137.9850 C   0  0  0  0  0  0  0  0  0  0  0  0
  193.0450  177.1690  140.2420 C   0  0  0  0  0  3  0  0  0  0  0  0
  189.2510  175.4420  136.7090 N   0  0  0  0  0  0  0  0  0  0  0  0
  190.5960  177.4500  139.9990 C   0  0  0  0  0  3  0  0  0  0  0  0
  190.3360  177.0320  138.7460 C   0  0  0  0  0  0  0  0  0  0  0  0
  186.7730  174.7250  136.9430 C   0  0  0  0  0  1  0  0  0  0  0  0
  188.2290  174.1830  136.0030 S   0  0  0  0  0  0  0  0  0  0  0  0
  3  5  1  0  0  0  0
  4  1  1  0  0  0  0
  4  2  2  0  0  0  0
  5  6  2  0  0  0  0
  6  2  1  0  0  0  0
  7  5  1  0  0  0  0
  7  4  1  0  0  0  0
  8 12  1  6  0  0  0
  8 11  1  0  0  0  0
  8  3  1  0  0  0  0
  9 11  2  0  0  0  0
 11 10  1  0  0  0  0
 13 12  1  0  0  0  0
 14 16  1  0  0  0  0
 14 18  1  0  0  0  0
 15 23  1  0  0  0  0
 15 13  1  1  0  0  0
 16 19  1  1  0  0  0
 16 17  1  0  0  0  0
 17 15  1  0  0  0  0
 18 15  1  0  0  0  0
 19 21  1  0  0  0  0
 20 19  2  0  0  0  0
 23 22  1  6  0  0  0
 24 25  2  0  0  0  0
 25 23  1  0  0  0  0
 26 28  1  0  0  0  0
 26  1  1  0  0  0  0
 27 28  1  0  0  0  0
 27 29  2  0  0  0  0
 28 30  2  0  0  0  0
 29 31  1  0  0  0  0
 30 31  1  0  0  0  0
 31 32  1  0  0  0  0
 33 35  1  0  0  0  0
 34 35  2  0  0  0  0
 35 27  1  0  0  0  0
 36 37  2  0  0  0  0
 37 44  1  0  0  0  0
 38 42  1  6  0  0  0
 38 48  1  0  0  0  0
 39 41  1  0  0  0  0
 40 38  1  0  0  0  0
 41 45  1  0  0  0  0
 43 33  1  0  0  0  0
 44 39  2  0  0  0  0
 44 48  1  0  0  0  0
 45 43  2  0  0  0  0
 46 40  1  0  0  0  0
 46 37  1  0  0  0  0
 47 43  1  0  0  0  0
 48 47  2  0  0  0  0
 50 46  1  0  0  0  0
 50 49  1  0  0  0  0
M  END
>  <MODEL>
8

>  <REMARK>
 VINA RESULT:      -6.3      1.997      3.247
  Name = 
  14 active torsions:
  status: ('A' for Active; 'I' for Inactive)
    1  A    between atoms: N_2  and  C_36
    2  A    between atoms: C_7  and  C_44
    3  A    between atoms: C_8  and  C_14
    4  A    between atoms: C_9  and  C_21
    5  A    between atoms: C_9  and  C_33
    6  A    between atoms: C_10  and  C_11
    7  A    between atoms: C_10  and  C_25
    8  A    between atoms: C_11  and  C_19
    9  A    between atoms: N_13  and  C_29
   10  A    between atoms: C_21  and  N_38
   11  A    between atoms: C_22  and  C_29
   12  A    between atoms: C_29  and  N_38
   13  A    between atoms: C_32  and  C_33
   14  A    between atoms: N_42  and  S_46
                            x       y       z     vdW  Elec       q    Type
                         _______ _______ _______ _____ _____    ______ ____

>  <TORSDO>
F 14

$$$$
=
 OpenBabel10232411203D

 50 54  0  0  1  0  0  0  0  0999 V2000
  188.6470  178.5400  141.5590 C   0  0  0  0  0  2  0  0  0  0  0  0
  190.1070  176.8870  140.2730 C   0  0  0  0  0  3  0  0  0  0  0  0
  188.9990  175.8590  136.9990 N   0  0  0  0  0  2  0  0  0  0  0  0
  188.9910  177.7060  140.3770 C   0  0  0  0  0  0  0  0  0  0  0  0
  189.1350  176.4610  138.2900 C   0  0  0  0  0  0  0  0  0  0  0  0
  190.1830  176.2000  139.1020 N   0  0  0  0  0  0  0  0  0  0  0  0
  188.0620  177.5620  138.9820 S   0  0  0  0  0  0  0  0  0  0  0  0
  187.8720  176.0490  136.0900 C   0  0  1  0  0  3  0  0  0  0  0  0
  187.1590  178.2400  135.4040 O   0  0  0  0  0  1  0  0  0  0  0  0
  189.0930  177.4750  134.4460 O   0  0  0  0  0  0  0  0  0  0  0  0
  188.0170  177.3210  135.3090 C   0  0  0  0  0  0  0  0  0  0  0  0
  187.7150  174.8960  135.2160 N   0  0  0  0  0  2  0  0  0  0  0  0
  186.3530  174.4160  135.3860 C   0  0  0  0  0  2  0  0  0  0  0  0
  184.7330  173.2460  137.7500 C   0  0  0  0  0  2  0  0  0  0  0  0
  186.3240  173.0880  136.1540 C   0  0  2  0  0  0  0  0  0  0  0  0
  184.1660  172.2580  136.7610 C   0  0  2  0  0  3  0  0  0  0  0  0
  185.1630  172.2460  135.6430 C   0  0  0  0  0  2  0  0  0  0  0  0
  186.1150  173.3600  137.5220 O   0  0  0  0  0  0  0  0  0  0  0  0
  182.8280  172.7110  136.2770 C   0  0  0  0  0  0  0  0  0  0  0  0
  182.4620  172.5440  134.9470 O   0  0  0  0  0  0  0  0  0  0  0  0
  182.0340  173.2670  137.0780 O   0  0  0  0  0  1  0  0  0  0  0  0
  188.3380  172.2440  137.1870 O   0  0  0  0  0  1  0  0  0  0  0  0
  187.6540  172.3340  135.9720 C   0  0  1  0  0  3  0  0  0  0  0  0
  188.2810  170.0850  135.6040 O   0  0  0  0  0  0  0  0  0  0  0  0
  187.4510  170.9570  135.4100 C   0  0  0  0  0  3  0  0  0  0  0  0
  187.3670  178.0340  142.1940 C   0  0  0  0  0  2  0  0  0  0  0  0
  186.5150  178.0820  144.6220 C   0  0  0  0  0  0  0  0  0  0  0  0
  187.5220  177.9800  143.6750 C   0  0  0  0  0  0  0  0  0  0  0  0
  187.1400  177.9380  145.8460 C   0  0  0  0  0  3  0  0  0  0  0  0
  188.6970  177.7710  144.2930 N   0  0  0  0  0  0  0  0  0  0  0  0
  188.4500  177.7540  145.5930 N   0  0  0  0  0  0  0  0  0  0  0  0
  189.4730  177.5520  146.6030 C   0  0  0  0  0  1  0  0  0  0  0  0
  184.5400  178.1710  143.0760 N   0  0  0  0  0  2  0  0  0  0  0  0
  184.3270  178.5860  145.3750 O   0  0  0  0  0  0  0  0  0  0  0  0
  185.0740  178.2990  144.4020 C   0  0  0  0  0  0  0  0  0  0  0  0
  180.3220  181.4840  139.6050 O   0  0  0  0  0  0  0  0  0  0  0  0
  180.6770  180.2750  139.5370 C   0  0  0  0  0  0  0  0  0  0  0  0
  181.8390  177.6880  139.0850 C   0  0  2  0  0  3  0  0  0  0  0  0
  180.6350  179.9090  141.9340 C   0  0  0  0  0  3  0  0  0  0  0  0
  180.7140  178.1810  138.2810 N   0  0  0  0  0  2  0  0  0  0  0  0
  180.8490  179.1080  143.1720 C   0  0  0  0  0  2  0  0  0  0  0  0
  181.7780  176.1700  139.1280 C   0  0  0  0  0  1  0  0  0  0  0  0
  183.1800  178.3660  142.6610 C   0  0  0  0  0  0  0  0  0  0  0  0
  181.0650  179.5200  140.7310 C   0  0  0  0  0  0  0  0  0  0  0  0
  182.2980  178.9550  143.4770 C   0  0  0  0  0  3  0  0  0  0  0  0
  180.7180  179.5880  138.2840 N   0  0  0  0  0  0  0  0  0  0  0  0
  182.8180  177.8490  141.3220 C   0  0  0  0  0  3  0  0  0  0  0  0
  181.8540  178.2790  140.4870 C   0  0  0  0  0  0  0  0  0  0  0  0
  181.1750  178.9930  135.8050 C   0  0  0  0  0  1  0  0  0  0  0  0
  180.7020  180.4690  136.7510 S   0  0  0  0  0  0  0  0  0  0  0  0
  1 26  1  0  0  0  0
  2  4  2  0  0  0  0
  3  5  1  0  0  0  0
  4  1  1  0  0  0  0
  5  7  1  0  0  0  0
  5  6  2  0  0  0  0
  6  2  1  0  0  0  0
  7  4  1  0  0  0  0
  8 12  1  6  0  0  0
  8  3  1  0  0  0  0
 10 11  2  0  0  0  0
 11  9  1  0  0  0  0
 11  8  1  0  0  0  0
 12 13  1  0  0  0  0
 15 13  1  6  0  0  0
 15 18  1  0  0  0  0
 16 19  1  6  0  0  0
 16 14  1  0  0  0  0
 17 15  1  0  0  0  0
 17 16  1  0  0  0  0
 18 14  1  0  0  0  0
 19 21  1  0  0  0  0
 20 19  2  0  0  0  0
 23 15  1  0  0  0  0
 23 22  1  1  0  0  0
 25 24  2  0  0  0  0
 25 23  1  0  0  0  0
 26 28  1  0  0  0  0
 27 29  2  0  0  0  0
 28 30  2  0  0  0  0
 28 27  1  0  0  0  0
 30 31  1  0  0  0  0
 31 29  1  0  0  0  0
 31 32  1  0  0  0  0
 33 35  1  0  0  0  0
 35 27  1  0  0  0  0
 35 34  2  0  0  0  0
 37 36  2  0  0  0  0
 37 44  1  0  0  0  0
 38 42  1  1  0  0  0
 38 48  1  0  0  0  0
 39 41  1  0  0  0  0
 40 46  1  0  0  0  0
 40 38  1  0  0  0  0
 41 45  1  0  0  0  0
 43 33  1  0  0  0  0
 43 45  2  0  0  0  0
 44 39  2  0  0  0  0
 46 37  1  0  0  0  0
 47 43  1  0  0  0  0
 48 44  1  0  0  0  0
 48 47  2  0  0  0  0
 49 50  1  0  0  0  0
 50 46  1  0  0  0  0
M  END
>  <MODEL>
9

>  <REMARK>
 VINA RESULT:      -6.2      2.756      7.732
  Name = 
  14 active torsions:
  status: ('A' for Active; 'I' for Inactive)
    1  A    between atoms: N_2  and  C_36
    2  A    between atoms: C_7  and  C_44
    3  A    between atoms: C_8  and  C_14
    4  A    between atoms: C_9  and  C_21
    5  A    between atoms: C_9  and  C_33
    6  A    between atoms: C_10  and  C_11
    7  A    between atoms: C_10  and  C_25
    8  A    between atoms: C_11  and  C_19
    9  A    between atoms: N_13  and  C_29
   10  A    between atoms: C_21  and  N_38
   11  A    between atoms: C_22  and  C_29
   12  A    between atoms: C_29  and  N_38
   13  A    between atoms: C_32  and  C_33
   14  A    between atoms: N_42  and  S_46
                            x       y       z     vdW  Elec       q    Type
                         _______ _______ _______ _____ _____    ______ ____

>  <TORSDO>
F 14

$$$$
