=
 OpenBabel10232409413D

 35 37  0  0  0  0  0  0  0  0999 V2000
  188.8840  178.1100  139.4500 C   0  0  0  0  0  2  0  0  0  0  0  0
  189.5750  177.1560  138.5790 N   0  0  0  0  0  0  0  0  0  0  0  0
  188.8080  177.6020  140.8710 C   0  0  0  0  0  0  0  0  0  0  0  0
  190.8520  176.3180  140.4170 C   0  0  0  0  0  3  0  0  0  0  0  0
  190.7550  176.5010  139.0970 C   0  0  0  0  0  0  0  0  0  0  0  0
  189.7950  176.7920  141.3310 C   0  0  0  0  0  0  0  0  0  0  0  0
  194.0080  176.4810  137.2310 N   0  0  0  0  0  0  0  0  0  0  0  0
  192.9860  176.8780  138.0350 C   0  0  0  0  0  3  0  0  0  0  0  0
  193.9750  175.2910  136.5750 C   0  0  0  0  0  0  0  0  0  0  0  0
  191.8090  174.8330  137.5270 C   0  0  0  0  0  0  0  0  0  0  0  0
  191.8600  176.0600  138.2140 C   0  0  0  0  0  0  0  0  0  0  0  0
  195.3150  174.8200  135.5530 Cl  0  0  0  0  0  0  0  0  0  0  0  0
  190.7240  174.0240  137.6180 F   0  0  0  0  0  0  0  0  0  0  0  0
  192.8710  174.4490  136.7080 C   0  0  0  0  0  3  0  0  0  0  0  0
  188.0340  175.8100  137.1990 C   0  0  0  0  0  3  0  0  0  0  0  0
  187.8890  176.1500  134.8100 C   0  0  0  0  0  3  0  0  0  0  0  0
  189.4070  177.4900  136.1320 C   0  0  0  0  0  3  0  0  0  0  0  0
  187.4690  175.4650  135.9600 C   0  0  0  0  0  0  0  0  0  0  0  0
  188.9970  176.8260  137.2990 C   0  0  0  0  0  0  0  0  0  0  0  0
  188.8530  177.1560  134.8940 C   0  0  0  0  0  3  0  0  0  0  0  0
  185.8910  174.0450  134.5980 C   0  0  0  0  0  1  0  0  0  0  0  0
  186.0270  173.7130  137.0610 C   0  0  0  0  0  1  0  0  0  0  0  0
  186.4770  174.4240  135.8740 N   0  0  0  0  0  0  0  0  0  0  0  0
  187.8430  178.1590  142.9610 O   0  0  0  0  0  0  0  0  0  0  0  0
  187.6930  178.1080  141.7110 C   0  0  0  0  0  0  0  0  0  0  0  0
  186.4750  178.5770  141.1150 N   0  0  0  0  0  2  0  0  0  0  0  0
  184.3300  179.4640  141.1640 O   0  0  0  0  0  0  0  0  0  0  0  0
  185.3340  179.1700  143.2490 N   0  0  0  0  0  2  0  0  0  0  0  0
  185.3370  179.0850  141.8210 C   0  0  0  0  0  0  0  0  0  0  0  0
  184.1900  179.6530  144.0070 C   0  0  0  0  0  2  0  0  0  0  0  0
  184.0070  178.8190  145.2640 C   0  0  0  0  0  2  0  0  0  0  0  0
  185.3500  178.5520  145.9160 C   0  0  0  0  0  2  0  0  0  0  0  0
  185.5680  179.4620  146.9520 O   0  0  0  0  0  1  0  0  0  0  0  0
  189.9180  176.3900  142.7660 C   0  0  0  0  0  2  0  0  0  0  0  0
  191.2400  176.8720  143.3340 C   0  0  0  0  0  1  0  0  0  0  0  0
  1  3  1  0  0  0  0
  2  5  1  0  0  0  0
  2  1  1  0  0  0  0
  3  6  2  0  0  0  0
  3 25  1  0  0  0  0
  4  6  1  0  0  0  0
  5  4  2  0  0  0  0
  6 34  1  0  0  0  0
  7  8  1  0  0  0  0
  8 11  2  0  0  0  0
  9 14  1  0  0  0  0
  9  7  2  0  0  0  0
 10 13  1  0  0  0  0
 10 11  1  0  0  0  0
 11  5  1  0  0  0  0
 12  9  1  0  0  0  0
 14 10  2  0  0  0  0
 15 19  1  0  0  0  0
 16 20  2  0  0  0  0
 16 18  1  0  0  0  0
 17 19  2  0  0  0  0
 18 15  2  0  0  0  0
 19  2  1  0  0  0  0
 20 17  1  0  0  0  0
 21 23  1  0  0  0  0
 23 18  1  0  0  0  0
 23 22  1  0  0  0  0
 25 24  2  0  0  0  0
 26 25  1  0  0  0  0
 26 29  1  0  0  0  0
 27 29  2  0  0  0  0
 28 30  1  0  0  0  0
 29 28  1  0  0  0  0
 30 31  1  0  0  0  0
 31 32  1  0  0  0  0
 32 33  1  0  0  0  0
 34 35  1  0  0  0  0
M  END
>  <MODEL>
1

>  <REMARK>
 VINA RESULT:      -7.3      0.000      0.000
  Name = 
  8 active torsions:
  status: ('A' for Active; 'I' for Inactive)
    1  A    between atoms: C_2  and  C_34
    2  A    between atoms: N_8  and  C_28
    3  A    between atoms: C_11  and  C_14
    4  A    between atoms: C_12  and  C_32
    5  A    between atoms: C_16  and  C_29
    6  A    between atoms: C_23  and  N_27
    7  A    between atoms: N_30  and  C_31
    8  A    between atoms: C_31  and  C_32
                            x       y       z     vdW  Elec       q    Type
                         _______ _______ _______ _____ _____    ______ ____

>  <TORSDO>
F 8

$$$$
=
 OpenBabel10232409413D

 35 37  0  0  0  0  0  0  0  0999 V2000
  191.8400  177.7200  140.1730 C   0  0  0  0  0  2  0  0  0  0  0  0
  190.7650  177.5700  141.1580 N   0  0  0  0  0  0  0  0  0  0  0  0
  191.7740  176.6390  139.1200 C   0  0  0  0  0  0  0  0  0  0  0  0
  189.3580  176.5070  139.5450 C   0  0  0  0  0  3  0  0  0  0  0  0
  189.4500  177.2150  140.6740 C   0  0  0  0  0  0  0  0  0  0  0  0
  190.5660  176.1140  138.7920 C   0  0  0  0  0  0  0  0  0  0  0  0
  186.3150  179.0970  141.5060 N   0  0  0  0  0  0  0  0  0  0  0  0
  187.4530  178.7040  140.8740 C   0  0  0  0  0  3  0  0  0  0  0  0
  185.8810  178.4800  142.6360 C   0  0  0  0  0  0  0  0  0  0  0  0
  187.7830  177.0020  142.5530 C   0  0  0  0  0  0  0  0  0  0  0  0
  188.2150  177.6380  141.3740 C   0  0  0  0  0  0  0  0  0  0  0  0
  184.4090  179.0180  143.4150 Cl  0  0  0  0  0  0  0  0  0  0  0  0
  188.5060  176.0010  143.1150 F   0  0  0  0  0  0  0  0  0  0  0  0
  186.6110  177.4250  143.1830 C   0  0  0  0  0  3  0  0  0  0  0  0
  191.4300  176.5230  143.2910 C   0  0  0  0  0  3  0  0  0  0  0  0
  191.6620  177.8430  145.3040 C   0  0  0  0  0  3  0  0  0  0  0  0
  191.0140  178.9040  143.2290 C   0  0  0  0  0  3  0  0  0  0  0  0
  191.7270  176.5960  144.6620 C   0  0  0  0  0  0  0  0  0  0  0  0
  191.0800  177.6700  142.5620 C   0  0  0  0  0  0  0  0  0  0  0  0
  191.3070  178.9900  144.5910 C   0  0  0  0  0  3  0  0  0  0  0  0
  192.2700  174.1340  144.7240 C   0  0  0  0  0  1  0  0  0  0  0  0
  192.2910  175.4500  146.8370 C   0  0  0  0  0  1  0  0  0  0  0  0
  192.0900  175.4110  145.3960 N   0  0  0  0  0  0  0  0  0  0  0  0
  194.0820  176.1050  139.1260 O   0  0  0  0  0  0  0  0  0  0  0  0
  193.0430  176.2850  138.4350 C   0  0  0  0  0  0  0  0  0  0  0  0
  193.0890  176.1050  137.0120 N   0  0  0  0  0  2  0  0  0  0  0  0
  194.1410  175.6390  134.9960 O   0  0  0  0  0  0  0  0  0  0  0  0
  195.5170  175.5660  136.8790 N   0  0  0  0  0  2  0  0  0  0  0  0
  194.2490  175.7650  136.2450 C   0  0  0  0  0  0  0  0  0  0  0  0
  196.7260  175.2470  136.1350 C   0  0  0  0  0  2  0  0  0  0  0  0
  197.6300  174.3540  136.9690 C   0  0  0  0  0  2  0  0  0  0  0  0
  197.4110  174.6180  138.4460 C   0  0  0  0  0  2  0  0  0  0  0  0
  198.3090  175.5880  138.8960 O   0  0  0  0  0  1  0  0  0  0  0  0
  190.3650  175.1830  137.6390 C   0  0  0  0  0  2  0  0  0  0  0  0
  189.1070  175.5560  136.8780 C   0  0  0  0  0  1  0  0  0  0  0  0
  1  2  1  0  0  0  0
  2 19  1  0  0  0  0
  3  1  1  0  0  0  0
  4  5  2  0  0  0  0
  5  2  1  0  0  0  0
  5 11  1  0  0  0  0
  6  3  2  0  0  0  0
  6  4  1  0  0  0  0
  7  9  1  0  0  0  0
  8 11  1  0  0  0  0
  8  7  2  0  0  0  0
  9 14  2  0  0  0  0
  9 12  1  0  0  0  0
 10 13  1  0  0  0  0
 10 14  1  0  0  0  0
 11 10  2  0  0  0  0
 15 18  1  0  0  0  0
 17 20  2  0  0  0  0
 18 16  2  0  0  0  0
 18 23  1  0  0  0  0
 19 17  1  0  0  0  0
 19 15  2  0  0  0  0
 20 16  1  0  0  0  0
 21 23  1  0  0  0  0
 23 22  1  0  0  0  0
 25  3  1  0  0  0  0
 25 24  2  0  0  0  0
 26 25  1  0  0  0  0
 27 29  2  0  0  0  0
 29 28  1  0  0  0  0
 29 26  1  0  0  0  0
 30 28  1  0  0  0  0
 30 31  1  0  0  0  0
 31 32  1  0  0  0  0
 32 33  1  0  0  0  0
 34  6  1  0  0  0  0
 35 34  1  0  0  0  0
M  END
>  <MODEL>
2

>  <REMARK>
 VINA RESULT:      -7.0      4.515      9.552
  Name = 
  8 active torsions:
  status: ('A' for Active; 'I' for Inactive)
    1  A    between atoms: C_2  and  C_34
    2  A    between atoms: N_8  and  C_28
    3  A    between atoms: C_11  and  C_14
    4  A    between atoms: C_12  and  C_32
    5  A    between atoms: C_16  and  C_29
    6  A    between atoms: C_23  and  N_27
    7  A    between atoms: N_30  and  C_31
    8  A    between atoms: C_31  and  C_32
                            x       y       z     vdW  Elec       q    Type
                         _______ _______ _______ _____ _____    ______ ____

>  <TORSDO>
F 8

$$$$
=
 OpenBabel10232409413D

 35 37  0  0  0  0  0  0  0  0999 V2000
  188.5450  178.3200  139.5690 C   0  0  0  0  0  2  0  0  0  0  0  0
  189.2860  177.3600  138.7470 N   0  0  0  0  0  0  0  0  0  0  0  0
  188.3710  177.8150  140.9820 C   0  0  0  0  0  0  0  0  0  0  0  0
  190.4310  176.5140  140.6680 C   0  0  0  0  0  3  0  0  0  0  0  0
  190.4230  176.6970  139.3440 C   0  0  0  0  0  0  0  0  0  0  0  0
  189.3180  176.9980  141.5090 C   0  0  0  0  0  0  0  0  0  0  0  0
  193.8160  176.6210  137.7480 N   0  0  0  0  0  0  0  0  0  0  0  0
  192.7450  177.0280  138.4810 C   0  0  0  0  0  3  0  0  0  0  0  0
  193.7970  175.4570  137.0470 C   0  0  0  0  0  0  0  0  0  0  0  0
  191.5450  175.0460  137.8030 C   0  0  0  0  0  0  0  0  0  0  0  0
  191.5820  176.2460  138.5380 C   0  0  0  0  0  0  0  0  0  0  0  0
  195.1990  174.9720  136.1200 Cl  0  0  0  0  0  0  0  0  0  0  0  0
  190.4300  174.2760  137.7750 F   0  0  0  0  0  0  0  0  0  0  0  0
  192.6580  174.6520  137.0580 C   0  0  0  0  0  3  0  0  0  0  0  0
  187.8100  176.0440  137.2710 C   0  0  0  0  0  3  0  0  0  0  0  0
  187.8470  176.3610  134.8750 C   0  0  0  0  0  3  0  0  0  0  0  0
  189.3040  177.6720  136.2910 C   0  0  0  0  0  3  0  0  0  0  0  0
  187.3260  175.7010  135.9980 C   0  0  0  0  0  0  0  0  0  0  0  0
  188.7920  177.0320  137.4320 C   0  0  0  0  0  0  0  0  0  0  0  0
  188.8320  177.3410  135.0200 C   0  0  0  0  0  3  0  0  0  0  0  0
  186.2060  173.5850  136.7920 C   0  0  0  0  0  1  0  0  0  0  0  0
  185.3590  174.7310  134.7510 C   0  0  0  0  0  1  0  0  0  0  0  0
  186.3130  174.6880  135.8490 N   0  0  0  0  0  0  0  0  0  0  0  0
  186.4210  179.1450  141.1880 O   0  0  0  0  0  0  0  0  0  0  0  0
  187.2060  178.3300  141.7450 C   0  0  0  0  0  0  0  0  0  0  0  0
  186.9410  177.8810  143.0820 N   0  0  0  0  0  2  0  0  0  0  0  0
  185.7450  177.8240  145.0700 O   0  0  0  0  0  0  0  0  0  0  0  0
  184.8970  179.2590  143.4380 N   0  0  0  0  0  2  0  0  0  0  0  0
  185.8540  178.3050  143.9110 C   0  0  0  0  0  0  0  0  0  0  0  0
  183.7940  179.7380  144.2570 C   0  0  0  0  0  2  0  0  0  0  0  0
  182.6040  178.8020  144.1260 C   0  0  0  0  0  2  0  0  0  0  0  0
  181.8910  179.0400  142.8090 C   0  0  0  0  0  2  0  0  0  0  0  0
  180.8860  179.9950  142.9750 O   0  0  0  0  0  1  0  0  0  0  0  0
  189.3420  176.5960  142.9490 C   0  0  0  0  0  2  0  0  0  0  0  0
  190.5750  177.1600  143.6290 C   0  0  0  0  0  1  0  0  0  0  0  0
  1  3  1  0  0  0  0
  2  5  1  0  0  0  0
  2  1  1  0  0  0  0
  3  6  2  0  0  0  0
  3 25  1  0  0  0  0
  4  6  1  0  0  0  0
  5  4  2  0  0  0  0
  6 34  1  0  0  0  0
  7  8  1  0  0  0  0
  8 11  2  0  0  0  0
  9 14  1  0  0  0  0
  9  7  2  0  0  0  0
 10 11  1  0  0  0  0
 11  5  1  0  0  0  0
 12  9  1  0  0  0  0
 13 10  1  0  0  0  0
 14 10  2  0  0  0  0
 15 19  1  0  0  0  0
 16 20  2  0  0  0  0
 16 18  1  0  0  0  0
 17 19  2  0  0  0  0
 18 15  2  0  0  0  0
 19  2  1  0  0  0  0
 20 17  1  0  0  0  0
 22 23  1  0  0  0  0
 23 18  1  0  0  0  0
 23 21  1  0  0  0  0
 24 25  2  0  0  0  0
 25 26  1  0  0  0  0
 26 29  1  0  0  0  0
 28 29  1  0  0  0  0
 28 30  1  0  0  0  0
 29 27  2  0  0  0  0
 31 30  1  0  0  0  0
 32 33  1  0  0  0  0
 32 31  1  0  0  0  0
 34 35  1  0  0  0  0
M  END
>  <MODEL>
3

>  <REMARK>
 VINA RESULT:      -7.0      1.216      1.826
  Name = 
  8 active torsions:
  status: ('A' for Active; 'I' for Inactive)
    1  A    between atoms: C_2  and  C_34
    2  A    between atoms: N_8  and  C_28
    3  A    between atoms: C_11  and  C_14
    4  A    between atoms: C_12  and  C_32
    5  A    between atoms: C_16  and  C_29
    6  A    between atoms: C_23  and  N_27
    7  A    between atoms: N_30  and  C_31
    8  A    between atoms: C_31  and  C_32
                            x       y       z     vdW  Elec       q    Type
                         _______ _______ _______ _____ _____    ______ ____

>  <TORSDO>
F 8

$$$$
=
 OpenBabel10232409413D

 35 37  0  0  0  0  0  0  0  0999 V2000
  189.3290  176.2820  141.4630 C   0  0  0  0  0  2  0  0  0  0  0  0
  189.6250  176.6710  142.8450 N   0  0  0  0  0  0  0  0  0  0  0  0
  190.2750  176.9460  140.4910 C   0  0  0  0  0  0  0  0  0  0  0  0
  191.9250  177.0360  142.3080 C   0  0  0  0  0  3  0  0  0  0  0  0
  191.0120  176.7490  143.2410 C   0  0  0  0  0  0  0  0  0  0  0  0
  191.5340  177.2430  140.9000 C   0  0  0  0  0  0  0  0  0  0  0  0
  191.7580  177.2890  146.8760 N   0  0  0  0  0  0  0  0  0  0  0  0
  191.3670  177.5140  145.5940 C   0  0  0  0  0  3  0  0  0  0  0  0
  192.2420  176.0810  147.2710 C   0  0  0  0  0  0  0  0  0  0  0  0
  191.9610  175.2440  145.0280 C   0  0  0  0  0  0  0  0  0  0  0  0
  191.4470  176.4940  144.6340 C   0  0  0  0  0  0  0  0  0  0  0  0
  192.7310  175.8360  148.9320 Cl  0  0  0  0  0  0  0  0  0  0  0  0
  192.1140  174.2360  144.1330 F   0  0  0  0  0  0  0  0  0  0  0  0
  192.3570  175.0390  146.3510 C   0  0  0  0  0  3  0  0  0  0  0  0
  187.3780  177.6360  143.1740 C   0  0  0  0  0  3  0  0  0  0  0  0
  186.4380  177.8670  145.3900 C   0  0  0  0  0  3  0  0  0  0  0  0
  188.6420  176.9120  145.1040 C   0  0  0  0  0  3  0  0  0  0  0  0
  186.3170  178.0380  144.0030 C   0  0  0  0  0  0  0  0  0  0  0  0
  188.5410  177.0650  143.7120 C   0  0  0  0  0  0  0  0  0  0  0  0
  187.5950  177.3080  145.9380 C   0  0  0  0  0  3  0  0  0  0  0  0
  183.9990  178.9960  144.2750 C   0  0  0  0  0  1  0  0  0  0  0  0
  185.0080  178.8480  142.0040 C   0  0  0  0  0  1  0  0  0  0  0  0
  185.1260  178.6180  143.4360 N   0  0  0  0  0  0  0  0  0  0  0  0
  189.7660  176.1590  138.3150 O   0  0  0  0  0  0  0  0  0  0  0  0
  189.7870  177.1430  139.1020 C   0  0  0  0  0  0  0  0  0  0  0  0
  189.3020  178.4210  138.6650 N   0  0  0  0  0  2  0  0  0  0  0  0
  188.4140  179.9010  137.1130 O   0  0  0  0  0  0  0  0  0  0  0  0
  188.7590  177.7280  136.3350 N   0  0  0  0  0  2  0  0  0  0  0  0
  188.8090  178.7300  137.3560 C   0  0  0  0  0  0  0  0  0  0  0  0
  188.2920  178.0060  134.9850 C   0  0  0  0  0  2  0  0  0  0  0  0
  187.4010  176.8740  134.4990 C   0  0  0  0  0  2  0  0  0  0  0  0
  186.5090  176.3880  135.6250 C   0  0  0  0  0  2  0  0  0  0  0  0
  185.4610  177.2880  135.8260 O   0  0  0  0  0  1  0  0  0  0  0  0
  192.6030  177.7230  139.9700 C   0  0  0  0  0  2  0  0  0  0  0  0
  193.1580  176.5630  139.1660 C   0  0  0  0  0  1  0  0  0  0  0  0
  1  2  1  0  0  0  0
  2  5  1  0  0  0  0
  2 19  1  0  0  0  0
  3  6  2  0  0  0  0
  3  1  1  0  0  0  0
  4  5  2  0  0  0  0
  5 11  1  0  0  0  0
  6  4  1  0  0  0  0
  7  9  1  0  0  0  0
  8  7  2  0  0  0  0
  9 12  1  0  0  0  0
 10 14  1  0  0  0  0
 11 10  2  0  0  0  0
 11  8  1  0  0  0  0
 13 10  1  0  0  0  0
 14  9  2  0  0  0  0
 15 19  2  0  0  0  0
 15 18  1  0  0  0  0
 16 20  1  0  0  0  0
 17 20  2  0  0  0  0
 18 16  2  0  0  0  0
 19 17  1  0  0  0  0
 22 23  1  0  0  0  0
 23 18  1  0  0  0  0
 23 21  1  0  0  0  0
 24 25  2  0  0  0  0
 25  3  1  0  0  0  0
 26 25  1  0  0  0  0
 27 29  2  0  0  0  0
 28 29  1  0  0  0  0
 29 26  1  0  0  0  0
 30 28  1  0  0  0  0
 31 30  1  0  0  0  0
 31 32  1  0  0  0  0
 32 33  1  0  0  0  0
 34  6  1  0  0  0  0
 35 34  1  0  0  0  0
M  END
>  <MODEL>
4

>  <REMARK>
 VINA RESULT:      -6.8      3.884      7.879
  Name = 
  8 active torsions:
  status: ('A' for Active; 'I' for Inactive)
    1  A    between atoms: C_2  and  C_34
    2  A    between atoms: N_8  and  C_28
    3  A    between atoms: C_11  and  C_14
    4  A    between atoms: C_12  and  C_32
    5  A    between atoms: C_16  and  C_29
    6  A    between atoms: C_23  and  N_27
    7  A    between atoms: N_30  and  C_31
    8  A    between atoms: C_31  and  C_32
                            x       y       z     vdW  Elec       q    Type
                         _______ _______ _______ _____ _____    ______ ____

>  <TORSDO>
F 8

$$$$
=
 OpenBabel10232409413D

 35 37  0  0  0  0  0  0  0  0999 V2000
  191.4100  176.7730  137.8760 C   0  0  0  0  0  2  0  0  0  0  0  0
  189.9700  176.6180  138.1000 N   0  0  0  0  0  0  0  0  0  0  0  0
  192.0300  175.4880  137.3790 C   0  0  0  0  0  0  0  0  0  0  0  0
  189.8380  174.9080  136.4360 C   0  0  0  0  0  3  0  0  0  0  0  0
  189.2120  175.8660  137.1270 C   0  0  0  0  0  0  0  0  0  0  0  0
  191.2740  174.6370  136.6400 C   0  0  0  0  0  0  0  0  0  0  0  0
  185.4860  175.4680  136.9950 N   0  0  0  0  0  0  0  0  0  0  0  0
  186.8010  175.2190  137.2330 C   0  0  0  0  0  3  0  0  0  0  0  0
  185.0780  176.6130  136.3850 C   0  0  0  0  0  0  0  0  0  0  0  0
  187.3740  177.3290  136.2100 C   0  0  0  0  0  0  0  0  0  0  0  0
  187.7820  176.1470  136.8570 C   0  0  0  0  0  0  0  0  0  0  0  0
  183.3750  176.8930  136.1010 Cl  0  0  0  0  0  0  0  0  0  0  0  0
  188.2800  178.2380  135.7740 F   0  0  0  0  0  0  0  0  0  0  0  0
  186.0170  177.5600  135.9770 C   0  0  0  0  0  3  0  0  0  0  0  0
  189.8490  176.6480  140.5650 C   0  0  0  0  0  3  0  0  0  0  0  0
  188.2530  178.0550  141.7130 C   0  0  0  0  0  3  0  0  0  0  0  0
  188.3480  178.0550  139.2960 C   0  0  0  0  0  3  0  0  0  0  0  0
  189.2900  177.1110  141.7670 C   0  0  0  0  0  0  0  0  0  0  0  0
  189.3920  177.1180  139.3240 C   0  0  0  0  0  0  0  0  0  0  0  0
  187.7830  178.5240  140.4840 C   0  0  0  0  0  3  0  0  0  0  0  0
  188.9840  176.7670  144.2480 C   0  0  0  0  0  1  0  0  0  0  0  0
  191.0680  175.9700  143.1450 C   0  0  0  0  0  1  0  0  0  0  0  0
  189.7730  176.6240  143.0340 N   0  0  0  0  0  0  0  0  0  0  0  0
  194.2610  176.2650  137.5600 O   0  0  0  0  0  0  0  0  0  0  0  0
  193.4750  175.2840  137.6570 C   0  0  0  0  0  0  0  0  0  0  0  0
  193.9730  174.0040  138.0730 N   0  0  0  0  0  2  0  0  0  0  0  0
  195.6320  172.5170  138.7230 O   0  0  0  0  0  0  0  0  0  0  0  0
  196.3610  174.6860  138.2650 N   0  0  0  0  0  2  0  0  0  0  0  0
  195.3380  173.6890  138.3670 C   0  0  0  0  0  0  0  0  0  0  0  0
  197.7640  174.4030  138.5280 C   0  0  0  0  0  2  0  0  0  0  0  0
  198.3210  175.4090  139.5210 C   0  0  0  0  0  2  0  0  0  0  0  0
  197.5300  175.3620  140.8150 C   0  0  0  0  0  2  0  0  0  0  0  0
  198.3820  175.0840  141.8860 O   0  0  0  0  0  1  0  0  0  0  0  0
  191.8360  173.4390  135.9440 C   0  0  0  0  0  2  0  0  0  0  0  0
  190.7200  172.6290  135.3110 C   0  0  0  0  0  1  0  0  0  0  0  0
  1  2  1  0  0  0  0
  2 19  1  0  0  0  0
  3 25  1  0  0  0  0
  3  1  1  0  0  0  0
  4  6  1  0  0  0  0
  4  5  2  0  0  0  0
  5  2  1  0  0  0  0
  6  3  2  0  0  0  0
  7  8  1  0  0  0  0
  9  7  2  0  0  0  0
 10 11  1  0  0  0  0
 11  5  1  0  0  0  0
 11  8  2  0  0  0  0
 12  9  1  0  0  0  0
 13 10  1  0  0  0  0
 14 10  2  0  0  0  0
 14  9  1  0  0  0  0
 15 18  1  0  0  0  0
 16 18  2  0  0  0  0
 17 19  1  0  0  0  0
 17 20  2  0  0  0  0
 18 23  1  0  0  0  0
 19 15  2  0  0  0  0
 20 16  1  0  0  0  0
 23 22  1  0  0  0  0
 23 21  1  0  0  0  0
 24 25  2  0  0  0  0
 25 26  1  0  0  0  0
 26 29  1  0  0  0  0
 28 29  1  0  0  0  0
 28 30  1  0  0  0  0
 29 27  2  0  0  0  0
 30 31  1  0  0  0  0
 31 32  1  0  0  0  0
 32 33  1  0  0  0  0
 34  6  1  0  0  0  0
 35 34  1  0  0  0  0
M  END
>  <MODEL>
5

>  <REMARK>
 VINA RESULT:      -6.7      4.543      8.786
  Name = 
  8 active torsions:
  status: ('A' for Active; 'I' for Inactive)
    1  A    between atoms: C_2  and  C_34
    2  A    between atoms: N_8  and  C_28
    3  A    between atoms: C_11  and  C_14
    4  A    between atoms: C_12  and  C_32
    5  A    between atoms: C_16  and  C_29
    6  A    between atoms: C_23  and  N_27
    7  A    between atoms: N_30  and  C_31
    8  A    between atoms: C_31  and  C_32
                            x       y       z     vdW  Elec       q    Type
                         _______ _______ _______ _____ _____    ______ ____

>  <TORSDO>
F 8

$$$$
=
 OpenBabel10232409413D

 35 37  0  0  0  0  0  0  0  0999 V2000
  187.8800  178.4880  140.4310 C   0  0  0  0  0  2  0  0  0  0  0  0
  188.7400  177.6840  139.5580 N   0  0  0  0  0  0  0  0  0  0  0  0
  187.5480  177.7490  141.7060 C   0  0  0  0  0  0  0  0  0  0  0  0
  189.6630  176.5300  141.4360 C   0  0  0  0  0  3  0  0  0  0  0  0
  189.8130  176.9350  140.1720 C   0  0  0  0  0  0  0  0  0  0  0  0
  188.4440  176.8590  142.2010 C   0  0  0  0  0  0  0  0  0  0  0  0
  193.4000  177.0860  139.0880 N   0  0  0  0  0  0  0  0  0  0  0  0
  192.2370  177.3580  139.7390 C   0  0  0  0  0  3  0  0  0  0  0  0
  193.4730  176.1130  138.1410 C   0  0  0  0  0  0  0  0  0  0  0  0
  191.1330  175.6330  138.4620 C   0  0  0  0  0  0  0  0  0  0  0  0
  191.0720  176.6320  139.4520 C   0  0  0  0  0  0  0  0  0  0  0  0
  194.9910  175.7960  137.3310 Cl  0  0  0  0  0  0  0  0  0  0  0  0
  190.0270  174.9350  138.1020 F   0  0  0  0  0  0  0  0  0  0  0  0
  192.3380  175.3740  137.8080 C   0  0  0  0  0  3  0  0  0  0  0  0
  187.3040  176.8430  137.7370 C   0  0  0  0  0  3  0  0  0  0  0  0
  187.8020  177.3500  135.4260 C   0  0  0  0  0  3  0  0  0  0  0  0
  189.2300  178.1960  137.1860 C   0  0  0  0  0  3  0  0  0  0  0  0
  186.9820  176.7210  136.3750 C   0  0  0  0  0  0  0  0  0  0  0  0
  188.4190  177.5830  138.1550 C   0  0  0  0  0  0  0  0  0  0  0  0
  188.9210  178.0830  135.8290 C   0  0  0  0  0  3  0  0  0  0  0  0
  185.0340  176.3660  134.8120 C   0  0  0  0  0  1  0  0  0  0  0  0
  185.4220  174.7620  136.6760 C   0  0  0  0  0  1  0  0  0  0  0  0
  185.8300  175.9620  135.9610 N   0  0  0  0  0  0  0  0  0  0  0  0
  185.2110  178.1390  141.7340 O   0  0  0  0  0  0  0  0  0  0  0  0
  186.2860  178.1230  142.3940 C   0  0  0  0  0  0  0  0  0  0  0  0
  186.2700  178.4190  143.7970 N   0  0  0  0  0  2  0  0  0  0  0  0
  185.2550  179.0220  145.7950 O   0  0  0  0  0  0  0  0  0  0  0  0
  183.8290  178.8920  143.9530 N   0  0  0  0  0  2  0  0  0  0  0  0
  185.1190  178.7890  144.5650 C   0  0  0  0  0  0  0  0  0  0  0  0
  182.6400  179.2910  144.6890 C   0  0  0  0  0  2  0  0  0  0  0  0
  181.4000  178.7080  144.0310 C   0  0  0  0  0  2  0  0  0  0  0  0
  181.1410  179.3910  142.7010 C   0  0  0  0  0  2  0  0  0  0  0  0
  180.3650  180.5350  142.8950 O   0  0  0  0  0  1  0  0  0  0  0  0
  188.3030  176.2180  143.5450 C   0  0  0  0  0  2  0  0  0  0  0  0
  189.2430  176.8730  144.5390 C   0  0  0  0  0  1  0  0  0  0  0  0
  1  3  1  0  0  0  0
  2  5  1  0  0  0  0
  2  1  1  0  0  0  0
  3  6  2  0  0  0  0
  3 25  1  0  0  0  0
  4  6  1  0  0  0  0
  5  4  2  0  0  0  0
  6 34  1  0  0  0  0
  7  8  1  0  0  0  0
  9  7  2  0  0  0  0
 10 11  1  0  0  0  0
 11  8  2  0  0  0  0
 11  5  1  0  0  0  0
 12  9  1  0  0  0  0
 13 10  1  0  0  0  0
 14  9  1  0  0  0  0
 14 10  2  0  0  0  0
 15 19  1  0  0  0  0
 16 20  2  0  0  0  0
 16 18  1  0  0  0  0
 17 19  2  0  0  0  0
 18 15  2  0  0  0  0
 19  2  1  0  0  0  0
 20 17  1  0  0  0  0
 21 23  1  0  0  0  0
 23 18  1  0  0  0  0
 23 22  1  0  0  0  0
 24 25  2  0  0  0  0
 25 26  1  0  0  0  0
 26 29  1  0  0  0  0
 28 29  1  0  0  0  0
 28 30  1  0  0  0  0
 29 27  2  0  0  0  0
 31 30  1  0  0  0  0
 32 33  1  0  0  0  0
 32 31  1  0  0  0  0
 34 35  1  0  0  0  0
M  END
>  <MODEL>
6

>  <REMARK>
 VINA RESULT:      -6.4      1.733      2.411
  Name = 
  8 active torsions:
  status: ('A' for Active; 'I' for Inactive)
    1  A    between atoms: C_2  and  C_34
    2  A    between atoms: N_8  and  C_28
    3  A    between atoms: C_11  and  C_14
    4  A    between atoms: C_12  and  C_32
    5  A    between atoms: C_16  and  C_29
    6  A    between atoms: C_23  and  N_27
    7  A    between atoms: N_30  and  C_31
    8  A    between atoms: C_31  and  C_32
                            x       y       z     vdW  Elec       q    Type
                         _______ _______ _______ _____ _____    ______ ____

>  <TORSDO>
F 8

$$$$
=
 OpenBabel10232409413D

 35 37  0  0  0  0  0  0  0  0999 V2000
  186.8920  177.2620  142.1360 C   0  0  0  0  0  2  0  0  0  0  0  0
  186.2720  177.9800  141.0200 N   0  0  0  0  0  0  0  0  0  0  0  0
  186.6830  177.9910  143.4420 C   0  0  0  0  0  0  0  0  0  0  0  0
  184.6370  178.9430  142.4730 C   0  0  0  0  0  3  0  0  0  0  0  0
  184.9690  178.5670  141.2350 C   0  0  0  0  0  0  0  0  0  0  0  0
  185.5660  178.7430  143.6030 C   0  0  0  0  0  0  0  0  0  0  0  0
  182.9750  180.1330  138.4710 N   0  0  0  0  0  0  0  0  0  0  0  0
  183.8660  179.9710  139.4860 C   0  0  0  0  0  3  0  0  0  0  0  0
  182.1790  179.1140  138.0550 C   0  0  0  0  0  0  0  0  0  0  0  0
  183.1600  177.6750  139.7210 C   0  0  0  0  0  0  0  0  0  0  0  0
  183.9910  178.7330  140.1340 C   0  0  0  0  0  0  0  0  0  0  0  0
  181.0490  179.3680  136.7440 Cl  0  0  0  0  0  0  0  0  0  0  0  0
  183.1970  176.4710  140.3450 F   0  0  0  0  0  0  0  0  0  0  0  0
  182.2530  177.8680  138.6780 C   0  0  0  0  0  3  0  0  0  0  0  0
  186.4420  177.8800  138.5600 C   0  0  0  0  0  3  0  0  0  0  0  0
  188.4860  178.5040  137.4290 C   0  0  0  0  0  3  0  0  0  0  0  0
  188.3540  178.6190  139.8410 C   0  0  0  0  0  3  0  0  0  0  0  0
  187.1610  178.0450  137.3650 C   0  0  0  0  0  0  0  0  0  0  0  0
  187.0240  178.1710  139.8030 C   0  0  0  0  0  0  0  0  0  0  0  0
  189.0800  178.7880  138.6610 C   0  0  0  0  0  3  0  0  0  0  0  0
  185.1710  177.2870  136.0130 C   0  0  0  0  0  1  0  0  0  0  0  0
  187.2840  177.9000  134.8490 C   0  0  0  0  0  1  0  0  0  0  0  0
  186.5480  177.7480  136.0960 N   0  0  0  0  0  0  0  0  0  0  0  0
  187.2950  177.3040  145.6260 O   0  0  0  0  0  0  0  0  0  0  0  0
  187.6840  177.7550  144.5140 C   0  0  0  0  0  0  0  0  0  0  0  0
  189.0800  177.9920  144.2860 N   0  0  0  0  0  2  0  0  0  0  0  0
  191.3190  178.0510  144.8980 O   0  0  0  0  0  0  0  0  0  0  0  0
  189.8490  177.3310  146.5610 N   0  0  0  0  0  2  0  0  0  0  0  0
  190.1320  177.8010  145.2390 C   0  0  0  0  0  0  0  0  0  0  0  0
  190.8830  177.1500  147.5690 C   0  0  0  0  0  2  0  0  0  0  0  0
  191.5880  175.8200  147.3580 C   0  0  0  0  0  2  0  0  0  0  0  0
  192.8330  175.7430  148.2220 C   0  0  0  0  0  2  0  0  0  0  0  0
  192.9670  176.9130  148.9720 O   0  0  0  0  0  1  0  0  0  0  0  0
  185.1690  179.3490  144.9120 C   0  0  0  0  0  2  0  0  0  0  0  0
  183.8340  178.7890  145.3650 C   0  0  0  0  0  1  0  0  0  0  0  0
  1  3  1  0  0  0  0
  2  5  1  0  0  0  0
  2  1  1  0  0  0  0
  3  6  2  0  0  0  0
  3 25  1  0  0  0  0
  4  6  1  0  0  0  0
  5  4  2  0  0  0  0
  6 34  1  0  0  0  0
  7  8  1  0  0  0  0
  8 11  2  0  0  0  0
  9  7  2  0  0  0  0
  9 14  1  0  0  0  0
 10 11  1  0  0  0  0
 10 13  1  0  0  0  0
 11  5  1  0  0  0  0
 12  9  1  0  0  0  0
 14 10  2  0  0  0  0
 15 19  1  0  0  0  0
 16 20  2  0  0  0  0
 18 16  1  0  0  0  0
 18 15  2  0  0  0  0
 19 17  2  0  0  0  0
 19  2  1  0  0  0  0
 20 17  1  0  0  0  0
 21 23  1  0  0  0  0
 22 23  1  0  0  0  0
 23 18  1  0  0  0  0
 25 24  2  0  0  0  0
 26 25  1  0  0  0  0
 26 29  1  0  0  0  0
 27 29  2  0  0  0  0
 28 30  1  0  0  0  0
 29 28  1  0  0  0  0
 31 30  1  0  0  0  0
 31 32  1  0  0  0  0
 32 33  1  0  0  0  0
 34 35  1  0  0  0  0
M  END
>  <MODEL>
7

>  <REMARK>
 VINA RESULT:      -6.3      4.406      7.155
  Name = 
  8 active torsions:
  status: ('A' for Active; 'I' for Inactive)
    1  A    between atoms: C_2  and  C_34
    2  A    between atoms: N_8  and  C_28
    3  A    between atoms: C_11  and  C_14
    4  A    between atoms: C_12  and  C_32
    5  A    between atoms: C_16  and  C_29
    6  A    between atoms: C_23  and  N_27
    7  A    between atoms: N_30  and  C_31
    8  A    between atoms: C_31  and  C_32
                            x       y       z     vdW  Elec       q    Type
                         _______ _______ _______ _____ _____    ______ ____

>  <TORSDO>
F 8

$$$$
=
 OpenBabel10232409413D

 35 37  0  0  0  0  0  0  0  0999 V2000
  185.6980  179.0000  141.3740 C   0  0  0  0  0  2  0  0  0  0  0  0
  186.3350  178.3360  142.5150 N   0  0  0  0  0  0  0  0  0  0  0  0
  184.2140  178.7220  141.3350 C   0  0  0  0  0  0  0  0  0  0  0  0
  184.3040  178.4240  143.7710 C   0  0  0  0  0  3  0  0  0  0  0  0
  185.6380  178.3540  143.7810 C   0  0  0  0  0  0  0  0  0  0  0  0
  183.5560  178.5080  142.5020 C   0  0  0  0  0  0  0  0  0  0  0  0
  188.4030  178.0090  146.2910 N   0  0  0  0  0  0  0  0  0  0  0  0
  187.7310  178.0330  145.1090 C   0  0  0  0  0  3  0  0  0  0  0  0
  187.7770  178.2600  147.4700 C   0  0  0  0  0  0  0  0  0  0  0  0
  185.6970  178.5710  146.2920 C   0  0  0  0  0  0  0  0  0  0  0  0
  186.3590  178.3250  145.0750 C   0  0  0  0  0  0  0  0  0  0  0  0
  188.6830  178.2210  148.9670 Cl  0  0  0  0  0  0  0  0  0  0  0  0
  184.3620  178.8060  146.3280 F   0  0  0  0  0  0  0  0  0  0  0  0
  186.4100  178.5400  147.4920 C   0  0  0  0  0  3  0  0  0  0  0  0
  188.3840  177.9000  141.2110 C   0  0  0  0  0  3  0  0  0  0  0  0
  189.9320  176.1650  141.8730 C   0  0  0  0  0  3  0  0  0  0  0  0
  187.9360  176.5680  143.1770 C   0  0  0  0  0  3  0  0  0  0  0  0
  189.5750  177.1900  140.9840 C   0  0  0  0  0  0  0  0  0  0  0  0
  187.5610  177.6040  142.3070 C   0  0  0  0  0  0  0  0  0  0  0  0
  189.1170  175.8540  142.9630 C   0  0  0  0  0  3  0  0  0  0  0  0
  189.8470  178.0160  138.6160 C   0  0  0  0  0  1  0  0  0  0  0  0
  191.8570  177.3380  139.9190 C   0  0  0  0  0  1  0  0  0  0  0  0
  190.4130  177.5090  139.8570 N   0  0  0  0  0  0  0  0  0  0  0  0
  183.3910  179.9240  139.4670 O   0  0  0  0  0  0  0  0  0  0  0  0
  183.5480  178.7970  140.0100 C   0  0  0  0  0  0  0  0  0  0  0  0
  183.1250  177.6080  139.3280 N   0  0  0  0  0  2  0  0  0  0  0  0
  182.1580  176.4360  137.5730 O   0  0  0  0  0  0  0  0  0  0  0  0
  182.1890  178.7560  137.3250 N   0  0  0  0  0  2  0  0  0  0  0  0
  182.4750  177.5570  138.0520 C   0  0  0  0  0  0  0  0  0  0  0  0
  181.5060  178.7520  136.0400 C   0  0  0  0  0  2  0  0  0  0  0  0
  180.5080  179.8960  135.9760 C   0  0  0  0  0  2  0  0  0  0  0  0
  180.8260  180.9290  137.0410 C   0  0  0  0  0  2  0  0  0  0  0  0
  180.7020  182.2150  136.5100 O   0  0  0  0  0  1  0  0  0  0  0  0
  182.0660  178.4120  142.5940 C   0  0  0  0  0  2  0  0  0  0  0  0
  181.6030  178.7790  143.9910 C   0  0  0  0  0  1  0  0  0  0  0  0
  1  2  1  0  0  0  0
  2  5  1  0  0  0  0
  3  1  1  0  0  0  0
  3  6  2  0  0  0  0
  4  5  2  0  0  0  0
  5 11  1  0  0  0  0
  6 34  1  0  0  0  0
  6  4  1  0  0  0  0
  7  9  1  0  0  0  0
  8  7  2  0  0  0  0
  9 14  2  0  0  0  0
  9 12  1  0  0  0  0
 10 13  1  0  0  0  0
 10 14  1  0  0  0  0
 11  8  1  0  0  0  0
 11 10  2  0  0  0  0
 15 19  1  0  0  0  0
 16 20  2  0  0  0  0
 18 15  2  0  0  0  0
 18 16  1  0  0  0  0
 19  2  1  0  0  0  0
 19 17  2  0  0  0  0
 20 17  1  0  0  0  0
 21 23  1  0  0  0  0
 23 22  1  0  0  0  0
 23 18  1  0  0  0  0
 24 25  2  0  0  0  0
 25  3  1  0  0  0  0
 26 25  1  0  0  0  0
 27 29  2  0  0  0  0
 28 29  1  0  0  0  0
 29 26  1  0  0  0  0
 30 28  1  0  0  0  0
 31 30  1  0  0  0  0
 31 32  1  0  0  0  0
 33 32  1  0  0  0  0
 34 35  1  0  0  0  0
M  END
>  <MODEL>
8

>  <REMARK>
 VINA RESULT:      -6.3      4.655      8.424
  Name = 
  8 active torsions:
  status: ('A' for Active; 'I' for Inactive)
    1  A    between atoms: C_2  and  C_34
    2  A    between atoms: N_8  and  C_28
    3  A    between atoms: C_11  and  C_14
    4  A    between atoms: C_12  and  C_32
    5  A    between atoms: C_16  and  C_29
    6  A    between atoms: C_23  and  N_27
    7  A    between atoms: N_30  and  C_31
    8  A    between atoms: C_31  and  C_32
                            x       y       z     vdW  Elec       q    Type
                         _______ _______ _______ _____ _____    ______ ____

>  <TORSDO>
F 8

$$$$
=
 OpenBabel10232409413D

 35 37  0  0  0  0  0  0  0  0999 V2000
  186.6310  179.1630  140.1860 C   0  0  0  0  0  2  0  0  0  0  0  0
  187.5870  178.2880  140.8700 N   0  0  0  0  0  0  0  0  0  0  0  0
  185.2140  178.8770  140.6230 C   0  0  0  0  0  0  0  0  0  0  0  0
  186.1340  178.0840  142.7570 C   0  0  0  0  0  3  0  0  0  0  0  0
  187.3810  178.0330  142.2770 C   0  0  0  0  0  0  0  0  0  0  0  0
  184.9950  178.4160  141.8800 C   0  0  0  0  0  0  0  0  0  0  0  0
  190.4230  178.5260  144.4140 N   0  0  0  0  0  0  0  0  0  0  0  0
  189.3890  178.7750  143.5670 C   0  0  0  0  0  3  0  0  0  0  0  0
  190.6400  177.2860  144.9260 C   0  0  0  0  0  0  0  0  0  0  0  0
  188.7320  176.4570  143.7090 C   0  0  0  0  0  0  0  0  0  0  0  0
  188.5070  177.7490  143.1980 C   0  0  0  0  0  0  0  0  0  0  0  0
  191.9820  177.0130  146.0150 Cl  0  0  0  0  0  0  0  0  0  0  0  0
  187.9460  175.4130  143.3460 F   0  0  0  0  0  0  0  0  0  0  0  0
  189.8010  176.2280  144.5770 C   0  0  0  0  0  3  0  0  0  0  0  0
  188.3050  177.0340  138.8700 C   0  0  0  0  0  3  0  0  0  0  0  0
  190.6010  176.3260  138.6060 C   0  0  0  0  0  3  0  0  0  0  0  0
  189.9340  177.5580  140.5770 C   0  0  0  0  0  3  0  0  0  0  0  0
  189.2900  176.3800  138.1110 C   0  0  0  0  0  0  0  0  0  0  0  0
  188.6160  177.6330  140.1000 C   0  0  0  0  0  0  0  0  0  0  0  0
  190.9220  176.9100  139.8330 C   0  0  0  0  0  3  0  0  0  0  0  0
  187.5730  175.5370  136.4660 C   0  0  0  0  0  1  0  0  0  0  0  0
  189.9920  175.3790  135.9050 C   0  0  0  0  0  1  0  0  0  0  0  0
  188.9560  175.7740  136.8470 N   0  0  0  0  0  0  0  0  0  0  0  0
  184.1050  180.3650  139.1500 O   0  0  0  0  0  0  0  0  0  0  0  0
  184.1300  179.2140  139.6640 C   0  0  0  0  0  0  0  0  0  0  0  0
  183.1480  178.2390  139.2880 N   0  0  0  0  0  2  0  0  0  0  0  0
  181.2730  177.4960  138.1390 O   0  0  0  0  0  0  0  0  0  0  0  0
  181.8720  179.7150  137.7390 N   0  0  0  0  0  2  0  0  0  0  0  0
  182.0630  178.4480  138.3770 C   0  0  0  0  0  0  0  0  0  0  0  0
  180.7670  179.9790  136.8300 C   0  0  0  0  0  2  0  0  0  0  0  0
  180.3510  181.4370  136.9240 C   0  0  0  0  0  2  0  0  0  0  0  0
  181.0460  182.1060  138.0960 C   0  0  0  0  0  2  0  0  0  0  0  0
  181.5130  183.3660  137.7180 O   0  0  0  0  0  1  0  0  0  0  0  0
  183.6290  178.2820  142.4750 C   0  0  0  0  0  2  0  0  0  0  0  0
  183.6150  178.8380  143.8860 C   0  0  0  0  0  1  0  0  0  0  0  0
  1  3  1  0  0  0  0
  1  2  1  0  0  0  0
  2  5  1  0  0  0  0
  3  6  2  0  0  0  0
  5  4  2  0  0  0  0
  5 11  1  0  0  0  0
  6 34  1  0  0  0  0
  6  4  1  0  0  0  0
  7  9  1  0  0  0  0
  8  7  2  0  0  0  0
  9 12  1  0  0  0  0
 10 14  1  0  0  0  0
 11  8  1  0  0  0  0
 11 10  2  0  0  0  0
 13 10  1  0  0  0  0
 14  9  2  0  0  0  0
 15 19  1  0  0  0  0
 16 20  2  0  0  0  0
 18 16  1  0  0  0  0
 18 15  2  0  0  0  0
 19 17  2  0  0  0  0
 19  2  1  0  0  0  0
 20 17  1  0  0  0  0
 21 23  1  0  0  0  0
 22 23  1  0  0  0  0
 23 18  1  0  0  0  0
 24 25  2  0  0  0  0
 25  3  1  0  0  0  0
 26 25  1  0  0  0  0
 27 29  2  0  0  0  0
 28 29  1  0  0  0  0
 29 26  1  0  0  0  0
 30 31  1  0  0  0  0
 30 28  1  0  0  0  0
 31 32  1  0  0  0  0
 33 32  1  0  0  0  0
 34 35  1  0  0  0  0
M  END
>  <MODEL>
9

>  <REMARK>
 VINA RESULT:      -6.3      3.879      6.316
  Name = 
  8 active torsions:
  status: ('A' for Active; 'I' for Inactive)
    1  A    between atoms: C_2  and  C_34
    2  A    between atoms: N_8  and  C_28
    3  A    between atoms: C_11  and  C_14
    4  A    between atoms: C_12  and  C_32
    5  A    between atoms: C_16  and  C_29
    6  A    between atoms: C_23  and  N_27
    7  A    between atoms: N_30  and  C_31
    8  A    between atoms: C_31  and  C_32
                            x       y       z     vdW  Elec       q    Type
                         _______ _______ _______ _____ _____    ______ ____

>  <TORSDO>
F 8

$$$$
