=
 OpenBabel10222421433D

 47 51  0  0  1  0  0  0  0  0999 V2000
  187.3310  177.5200  146.5460 C   0  0  0  0  0  3  0  0  0  0  0  0
  187.0850  178.7360  141.9050 C   0  0  1  0  0  3  0  0  0  0  0  0
  188.0630  177.4950  139.9580 C   0  0  0  0  0  0  0  0  0  0  0  0
  189.3950  177.1660  140.6140 C   0  0  2  0  0  3  0  0  0  0  0  0
  190.3400  176.2740  139.7810 C   0  0  2  0  0  3  0  0  0  0  0  0
  188.7830  177.4460  144.1450 C   0  0  0  0  0  0  0  0  0  0  0  0
  192.1330  177.3490  138.2970 C   0  0  2  0  0  3  0  0  0  0  0  0
  190.0040  177.8130  136.4800 O   0  0  0  0  0  0  0  0  0  0  0  0
  193.0110  177.0490  139.5120 C   0  0  0  0  0  2  0  0  0  0  0  0
  189.7590  177.0750  137.4750 C   0  0  0  0  0  0  0  0  0  0  0  0
  191.4810  175.9060  140.5310 O   0  0  0  0  0  0  0  0  0  0  0  0
  188.4120  176.4340  137.6300 C   0  0  1  0  0  3  0  0  0  0  0  0
  186.5780  177.6590  142.8500 C   0  0  0  0  0  2  0  0  0  0  0  0
  187.0840  178.2240  140.5370 N   0  0  0  0  0  0  0  0  0  0  0  0
  189.4390  177.3420  145.3770 C   0  0  0  0  0  3  0  0  0  0  0  0
  186.0580  178.3390  139.7080 N   0  0  0  0  0  0  0  0  0  0  0  0
  190.7420  176.9070  138.5110 N   0  0  0  0  0  0  0  0  0  0  0  0
  192.2180  177.0000  140.6640 O   0  0  0  0  0  0  0  0  0  0  0  0
  186.3650  177.7180  138.5520 C   0  0  0  0  0  3  0  0  0  0  0  0
  188.7180  177.3740  146.5720 C   0  0  0  0  0  3  0  0  0  0  0  0
  189.1650  176.5440  141.9120 N   0  0  0  0  0  2  0  0  0  0  0  0
  189.6360  177.4890  142.9130 C   0  0  0  0  0  2  0  0  0  0  0  0
  187.3740  177.6110  144.1200 C   0  0  0  0  0  0  0  0  0  0  0  0
  186.6640  177.6340  145.3250 C   0  0  0  0  0  3  0  0  0  0  0  0
  187.6370  177.1790  138.6760 C   0  0  0  0  0  0  0  0  0  0  0  0
  192.7280  176.6810  137.0970 C   0  0  0  0  0  0  0  0  0  0  0  0
  194.0930  176.9250  136.7480 N   0  0  0  0  0  2  0  0  0  0  0  0
  192.0140  175.9200  136.3930 O   0  0  0  0  0  0  0  0  0  0  0  0
  194.7820  176.1980  135.6890 C   0  0  2  0  0  3  0  0  0  0  0  0
  196.9690  175.6190  136.5420 O   0  0  0  0  0  1  0  0  0  0  0  0
  195.6920  175.1130  136.2820 C   0  0  1  0  0  3  0  0  0  0  0  0
  195.0920  174.4760  137.5450 C   0  0  2  0  0  3  0  0  0  0  0  0
  195.9410  175.0790  139.7250 O   0  0  0  0  0  1  0  0  0  0  0  0
  196.1240  174.2150  138.6440 C   0  0  0  0  0  2  0  0  0  0  0  0
  194.2960  173.2130  137.2230 C   0  0  0  0  0  2  0  0  0  0  0  0
  195.5340  171.2000  136.4200 C   0  0  0  0  0  1  0  0  0  0  0  0
  194.8610  172.4950  136.0080 C   0  0  0  0  0  2  0  0  0  0  0  0
  195.5760  177.1830  134.8350 C   0  0  0  0  0  2  0  0  0  0  0  0
  195.6110  178.4440  135.4370 O   0  0  0  0  0  1  0  0  0  0  0  0
  187.2120  174.8640  136.0980 C   0  0  0  0  0  1  0  0  0  0  0  0
  187.6560  176.3000  136.3090 C   0  0  0  0  0  2  0  0  0  0  0  0
  186.2590  179.9280  142.0140 N   0  0  0  0  0  2  0  0  0  0  0  0
  184.9420  179.4860  142.4320 C   0  0  0  0  0  2  0  0  0  0  0  0
  184.6000  180.1120  143.7690 C   0  0  0  0  0  2  0  0  0  0  0  0
  183.5470  179.3100  144.4460 C   0  0  0  0  0  0  0  0  0  0  0  0
  182.6120  178.8030  143.7720 O   0  0  0  0  0  0  0  0  0  0  0  0
  183.6100  179.0920  145.8170 O   0  0  0  0  0  1  0  0  0  0  0  0
  1 20  1  0  0  0  0
  2 42  1  6  0  0  0
  2 13  1  0  0  0  0
  3 14  1  0  0  0  0
  4  3  1  6  0  0  0
  4 21  1  0  0  0  0
  5 11  1  1  0  0  0
  5  4  1  0  0  0  0
  6 15  1  0  0  0  0
  7 26  1  6  0  0  0
  7 17  1  0  0  0  0
  7  9  1  0  0  0  0
  8 10  2  0  0  0  0
  9 18  1  0  0  0  0
 10 12  1  0  0  0  0
 10 17  1  0  0  0  0
 11 18  1  0  0  0  0
 12 41  1  6  0  0  0
 12 25  1  0  0  0  0
 13 23  1  0  0  0  0
 14  2  1  0  0  0  0
 15 20  2  0  0  0  0
 16 14  1  0  0  0  0
 17  5  1  0  0  0  0
 19 25  1  0  0  0  0
 19 16  2  0  0  0  0
 21 22  1  0  0  0  0
 22  6  1  0  0  0  0
 23  6  2  0  0  0  0
 23 24  1  0  0  0  0
 24  1  2  0  0  0  0
 25  3  2  0  0  0  0
 27 26  1  0  0  0  0
 28 26  2  0  0  0  0
 29 38  1  1  0  0  0
 29 31  1  0  0  0  0
 29 27  1  0  0  0  0
 31 30  1  1  0  0  0
 31 32  1  0  0  0  0
 32 35  1  6  0  0  0
 32 34  1  0  0  0  0
 34 33  1  0  0  0  0
 37 36  1  0  0  0  0
 37 35  1  0  0  0  0
 38 39  1  0  0  0  0
 40 41  1  0  0  0  0
 42 43  1  0  0  0  0
 43 44  1  0  0  0  0
 44 45  1  0  0  0  0
 45 47  1  0  0  0  0
 46 45  2  0  0  0  0
M  END
>  <MODEL>
1

>  <REMARK>
 VINA RESULT:      -6.9      0.000      0.000
  Name = 
  13 active torsions:
  status: ('A' for Active; 'I' for Inactive)
    1  A    between atoms: C_2  and  N_17
    2  A    between atoms: C_6  and  C_39
    3  A    between atoms: CA_12  and  C_31
    4  A    between atoms: CA_12  and  N_34
    5  A    between atoms: CA_12  and  C_35
    6  A    between atoms: C_14  and  C_22
    7  A    between atoms: C_15  and  C_29
    8  A    between atoms: C_16  and  C_27
    9  A    between atoms: N_17  and  C_26
   10  A    between atoms: C_23  and  C_40
   11  A    between atoms: C_26  and  C_39
   12  A    between atoms: C_27  and  C_31
   13  A    between atoms: C_27  and  C_40
                            x       y       z     vdW  Elec       q    Type
                         _______ _______ _______ _____ _____    ______ ____

>  <TORSDO>
F 13

$$$$
=
 OpenBabel10222421433D

 47 51  0  0  1  0  0  0  0  0999 V2000
  199.5880  172.9600  136.4830 C   0  0  0  0  0  3  0  0  0  0  0  0
  194.8590  172.1320  136.6500 C   0  0  1  0  0  3  0  0  0  0  0  0
  193.0150  173.8240  136.4860 C   0  0  0  0  0  0  0  0  0  0  0  0
  193.6620  174.8710  137.3800 C   0  0  2  0  0  3  0  0  0  0  0  0
  192.8940  176.2050  137.4990 C   0  0  2  0  0  3  0  0  0  0  0  0
  197.1650  174.0630  137.3710 C   0  0  0  0  0  0  0  0  0  0  0  0
  191.2590  176.5690  139.4400 C   0  0  2  0  0  3  0  0  0  0  0  0
  189.4680  174.9890  137.9080 O   0  0  0  0  0  0  0  0  0  0  0  0
  192.4710  177.2780  140.0440 C   0  0  0  0  0  2  0  0  0  0  0  0
  190.5380  175.3540  137.3450 C   0  0  0  0  0  0  0  0  0  0  0  0
  193.6430  177.1580  138.2270 O   0  0  0  0  0  0  0  0  0  0  0  0
  190.7950  175.0070  135.9080 C   0  0  1  0  0  3  0  0  0  0  0  0
  195.9200  172.6020  135.6690 C   0  0  0  0  0  2  0  0  0  0  0  0
  193.5480  172.6120  136.2190 N   0  0  0  0  0  0  0  0  0  0  0  0
  198.3810  174.4800  137.9240 C   0  0  0  0  0  3  0  0  0  0  0  0
  192.7430  171.9320  135.4170 N   0  0  0  0  0  0  0  0  0  0  0  0
  191.5560  176.0350  138.0970 N   0  0  0  0  0  0  0  0  0  0  0  0
  193.6450  176.7540  139.4900 O   0  0  0  0  0  0  0  0  0  0  0  0
  191.6440  172.6770  135.1770 C   0  0  0  0  0  3  0  0  0  0  0  0
  199.5880  173.9350  137.4800 C   0  0  0  0  0  3  0  0  0  0  0  0
  195.0210  175.1360  136.9250 N   0  0  0  0  0  2  0  0  0  0  0  0
  195.9100  174.6330  137.9610 C   0  0  0  0  0  2  0  0  0  0  0  0
  197.1640  173.0590  136.3690 C   0  0  0  0  0  0  0  0  0  0  0  0
  198.3820  172.5280  135.9290 C   0  0  0  0  0  3  0  0  0  0  0  0
  191.7840  173.8820  135.8500 C   0  0  0  0  0  0  0  0  0  0  0  0
  190.1140  177.5310  139.3920 C   0  0  0  0  0  0  0  0  0  0  0  0
  189.0680  177.4450  140.3630 N   0  0  0  0  0  2  0  0  0  0  0  0
  190.0730  178.4020  138.4840 O   0  0  0  0  0  0  0  0  0  0  0  0
  188.0040  178.4360  140.4720 C   0  0  2  0  0  3  0  0  0  0  0  0
  186.2580  178.6180  142.1350 O   0  0  0  0  0  1  0  0  0  0  0  0
  187.6410  178.6790  141.9440 C   0  0  1  0  0  3  0  0  0  0  0  0
  188.3640  177.7060  142.8900 C   0  0  2  0  0  3  0  0  0  0  0  0
  187.3570  177.3750  145.0620 O   0  0  0  0  0  1  0  0  0  0  0  0
  187.4110  176.8810  143.7570 C   0  0  0  0  0  2  0  0  0  0  0  0
  189.4140  178.4150  143.7430 C   0  0  0  0  0  2  0  0  0  0  0  0
  191.5830  177.2180  144.0490 C   0  0  0  0  0  1  0  0  0  0  0  0
  190.8130  178.2030  143.1900 C   0  0  0  0  0  2  0  0  0  0  0  0
  186.7920  177.9660  139.6720 C   0  0  0  0  0  2  0  0  0  0  0  0
  186.7850  178.5440  138.4000 O   0  0  0  0  0  1  0  0  0  0  0  0
  189.0030  175.9880  134.4650 C   0  0  0  0  0  1  0  0  0  0  0  0
  189.5160  174.7200  135.1230 C   0  0  0  0  0  2  0  0  0  0  0  0
  194.8730  170.6820  136.7490 N   0  0  0  0  0  2  0  0  0  0  0  0
  195.3600  170.3590  138.0780 C   0  0  0  0  0  2  0  0  0  0  0  0
  196.0070  168.9890  138.0590 C   0  0  0  0  0  2  0  0  0  0  0  0
  196.6400  168.7500  136.7350 C   0  0  0  0  0  0  0  0  0  0  0  0
  197.7470  169.2830  136.4620 O   0  0  0  0  0  1  0  0  0  0  0  0
  196.0260  167.9140  135.8100 O   0  0  0  0  0  0  0  0  0  0  0  0
  1 20  1  0  0  0  0
  2 42  1  6  0  0  0
  4  3  1  6  0  0  0
  4  5  1  0  0  0  0
  5 17  1  0  0  0  0
  5 11  1  1  0  0  0
  6 15  1  0  0  0  0
  6 22  1  0  0  0  0
  7 26  1  6  0  0  0
  7  9  1  0  0  0  0
 10  8  2  0  0  0  0
 10 17  1  0  0  0  0
 11 18  1  0  0  0  0
 12 41  1  1  0  0  0
 12 10  1  0  0  0  0
 13 23  1  0  0  0  0
 13  2  1  0  0  0  0
 14  3  1  0  0  0  0
 14  2  1  0  0  0  0
 16 14  1  0  0  0  0
 17  7  1  0  0  0  0
 18  9  1  0  0  0  0
 19 16  2  0  0  0  0
 19 25  1  0  0  0  0
 20 15  2  0  0  0  0
 21  4  1  0  0  0  0
 21 22  1  0  0  0  0
 23  6  2  0  0  0  0
 24 23  1  0  0  0  0
 24  1  2  0  0  0  0
 25 12  1  0  0  0  0
 25  3  2  0  0  0  0
 26 27  1  0  0  0  0
 27 29  1  0  0  0  0
 28 26  2  0  0  0  0
 29 38  1  6  0  0  0
 29 31  1  0  0  0  0
 31 30  1  6  0  0  0
 31 32  1  0  0  0  0
 32 35  1  1  0  0  0
 32 34  1  0  0  0  0
 34 33  1  0  0  0  0
 37 35  1  0  0  0  0
 37 36  1  0  0  0  0
 39 38  1  0  0  0  0
 40 41  1  0  0  0  0
 42 43  1  0  0  0  0
 44 43  1  0  0  0  0
 45 44  1  0  0  0  0
 46 45  1  0  0  0  0
 47 45  2  0  0  0  0
M  END
>  <MODEL>
2

>  <REMARK>
 VINA RESULT:      -6.8      2.965     10.357
  Name = 
  13 active torsions:
  status: ('A' for Active; 'I' for Inactive)
    1  A    between atoms: C_2  and  N_17
    2  A    between atoms: C_6  and  C_39
    3  A    between atoms: CA_12  and  C_31
    4  A    between atoms: CA_12  and  N_34
    5  A    between atoms: CA_12  and  C_35
    6  A    between atoms: C_14  and  C_22
    7  A    between atoms: C_15  and  C_29
    8  A    between atoms: C_16  and  C_27
    9  A    between atoms: N_17  and  C_26
   10  A    between atoms: C_23  and  C_40
   11  A    between atoms: C_26  and  C_39
   12  A    between atoms: C_27  and  C_31
   13  A    between atoms: C_27  and  C_40
                            x       y       z     vdW  Elec       q    Type
                         _______ _______ _______ _____ _____    ______ ____

>  <TORSDO>
F 13

$$$$
=
 OpenBabel10222421433D

 47 51  0  0  1  0  0  0  0  0999 V2000
  188.5130  178.1890  148.2340 C   0  0  0  0  0  3  0  0  0  0  0  0
  189.2990  176.6870  143.7390 C   0  0  1  0  0  3  0  0  0  0  0  0
  188.4480  177.7250  141.6210 C   0  0  0  0  0  0  0  0  0  0  0  0
  187.0390  178.0050  142.1210 C   0  0  2  0  0  3  0  0  0  0  0  0
  186.1300  178.7730  141.1380 C   0  0  2  0  0  3  0  0  0  0  0  0
  187.3080  178.0040  145.7060 C   0  0  0  0  0  0  0  0  0  0  0  0
  184.5640  177.4820  139.5700 C   0  0  2  0  0  3  0  0  0  0  0  0
  186.8900  177.0440  138.0050 O   0  0  0  0  0  0  0  0  0  0  0  0
  183.5520  177.8020  140.6700 C   0  0  0  0  0  2  0  0  0  0  0  0
  186.9880  177.8610  138.9630 C   0  0  0  0  0  0  0  0  0  0  0  0
  184.8990  179.1120  141.7460 O   0  0  0  0  0  0  0  0  0  0  0  0
  188.2710  178.6020  139.2000 C   0  0  1  0  0  3  0  0  0  0  0  0
  189.6410  177.8560  144.6470 C   0  0  0  0  0  2  0  0  0  0  0  0
  189.4060  177.1040  142.3440 N   0  0  0  0  0  0  0  0  0  0  0  0
  186.5260  178.1450  146.8570 C   0  0  0  0  0  3  0  0  0  0  0  0
  190.5160  177.0040  141.6280 N   0  0  0  0  0  0  0  0  0  0  0  0
  185.8970  178.0300  139.8850 N   0  0  0  0  0  0  0  0  0  0  0  0
  184.2210  177.9810  141.8870 O   0  0  0  0  0  0  0  0  0  0  0  0
  190.2890  177.5240  140.4050 C   0  0  0  0  0  3  0  0  0  0  0  0
  187.1240  178.2420  148.1160 C   0  0  0  0  0  3  0  0  0  0  0  0
  187.0990  178.7260  143.3860 N   0  0  0  0  0  2  0  0  0  0  0  0
  186.5880  177.8210  144.4030 C   0  0  0  0  0  2  0  0  0  0  0  0
  188.7200  177.9340  145.8270 C   0  0  0  0  0  0  0  0  0  0  0  0
  189.3050  178.0400  147.0940 C   0  0  0  0  0  3  0  0  0  0  0  0
  188.9810  177.9830  140.3670 C   0  0  0  0  0  0  0  0  0  0  0  0
  184.0540  178.0260  138.2740 C   0  0  0  0  0  0  0  0  0  0  0  0
  183.8160  177.1440  137.1730 N   0  0  0  0  0  2  0  0  0  0  0  0
  183.8520  179.2640  138.1560 O   0  0  0  0  0  0  0  0  0  0  0  0
  183.1790  177.5750  135.9350 C   0  0  2  0  0  3  0  0  0  0  0  0
  181.5150  175.8650  136.3240 O   0  0  0  0  0  1  0  0  0  0  0  0
  181.6910  177.1940  135.9320 C   0  0  1  0  0  3  0  0  0  0  0  0
  180.8470  178.1360  136.8060 C   0  0  2  0  0  3  0  0  0  0  0  0
  180.7330  177.0380  138.9560 O   0  0  0  0  0  1  0  0  0  0  0  0
  179.9850  177.4000  137.8340 C   0  0  0  0  0  2  0  0  0  0  0  0
  180.0080  179.0950  135.9650 C   0  0  0  0  0  2  0  0  0  0  0  0
  180.7140  180.9780  137.4430 C   0  0  0  0  0  1  0  0  0  0  0  0
  180.5680  180.5080  136.0100 C   0  0  0  0  0  2  0  0  0  0  0  0
  183.9130  176.9570  134.7480 C   0  0  0  0  0  2  0  0  0  0  0  0
  184.5070  175.7460  135.1100 O   0  0  0  0  0  1  0  0  0  0  0  0
  188.4260  179.4690  136.8600 C   0  0  0  0  0  1  0  0  0  0  0  0
  189.1460  178.6980  137.9510 C   0  0  0  0  0  2  0  0  0  0  0  0
  190.1810  175.5630  144.0130 N   0  0  0  0  0  2  0  0  0  0  0  0
  191.4160  176.1210  144.5340 C   0  0  0  0  0  2  0  0  0  0  0  0
  192.0330  175.1470  145.5180 C   0  0  0  0  0  2  0  0  0  0  0  0
  192.0920  175.7660  146.8690 C   0  0  0  0  0  0  0  0  0  0  0  0
  192.1040  177.0200  146.9860 O   0  0  0  0  0  0  0  0  0  0  0  0
  192.1030  174.9650  148.0040 O   0  0  0  0  0  1  0  0  0  0  0  0
  2 42  1  6  0  0  0
  2 13  1  0  0  0  0
  3 14  1  0  0  0  0
  4  3  1  6  0  0  0
  4 21  1  0  0  0  0
  5 11  1  1  0  0  0
  5  4  1  0  0  0  0
  6 23  2  0  0  0  0
  6 15  1  0  0  0  0
  7 26  1  6  0  0  0
  7 17  1  0  0  0  0
  7  9  1  0  0  0  0
  8 10  2  0  0  0  0
  9 18  1  0  0  0  0
 10 12  1  0  0  0  0
 10 17  1  0  0  0  0
 11 18  1  0  0  0  0
 12 41  1  6  0  0  0
 12 25  1  0  0  0  0
 13 23  1  0  0  0  0
 14  2  1  0  0  0  0
 15 20  2  0  0  0  0
 16 14  1  0  0  0  0
 17  5  1  0  0  0  0
 19 16  2  0  0  0  0
 20  1  1  0  0  0  0
 21 22  1  0  0  0  0
 22  6  1  0  0  0  0
 23 24  1  0  0  0  0
 24  1  2  0  0  0  0
 25 19  1  0  0  0  0
 25  3  2  0  0  0  0
 27 26  1  0  0  0  0
 28 26  2  0  0  0  0
 29 38  1  6  0  0  0
 29 27  1  0  0  0  0
 31 29  1  0  0  0  0
 31 30  1  1  0  0  0
 31 32  1  0  0  0  0
 32 35  1  6  0  0  0
 32 34  1  0  0  0  0
 34 33  1  0  0  0  0
 35 37  1  0  0  0  0
 37 36  1  0  0  0  0
 38 39  1  0  0  0  0
 40 41  1  0  0  0  0
 42 43  1  0  0  0  0
 43 44  1  0  0  0  0
 44 45  1  0  0  0  0
 45 46  2  0  0  0  0
 45 47  1  0  0  0  0
M  END
>  <MODEL>
3

>  <REMARK>
 VINA RESULT:      -6.5      4.577      8.841
  Name = 
  13 active torsions:
  status: ('A' for Active; 'I' for Inactive)
    1  A    between atoms: C_2  and  N_17
    2  A    between atoms: C_6  and  C_39
    3  A    between atoms: CA_12  and  C_31
    4  A    between atoms: CA_12  and  N_34
    5  A    between atoms: CA_12  and  C_35
    6  A    between atoms: C_14  and  C_22
    7  A    between atoms: C_15  and  C_29
    8  A    between atoms: C_16  and  C_27
    9  A    between atoms: N_17  and  C_26
   10  A    between atoms: C_23  and  C_40
   11  A    between atoms: C_26  and  C_39
   12  A    between atoms: C_27  and  C_31
   13  A    between atoms: C_27  and  C_40
                            x       y       z     vdW  Elec       q    Type
                         _______ _______ _______ _____ _____    ______ ____

>  <TORSDO>
F 13

$$$$
=
 OpenBabel10222421433D

 47 51  0  0  1  0  0  0  0  0999 V2000
  182.3100  177.7010  134.5340 C   0  0  0  0  0  3  0  0  0  0  0  0
  182.1560  177.1960  139.3090 C   0  0  1  0  0  3  0  0  0  0  0  0
  183.6470  178.2940  141.0000 C   0  0  0  0  0  0  0  0  0  0  0  0
  184.9470  178.1080  140.2320 C   0  0  2  0  0  3  0  0  0  0  0  0
  186.1930  178.7540  140.8740 C   0  0  2  0  0  3  0  0  0  0  0  0
  183.9410  177.6080  136.8170 C   0  0  0  0  0  0  0  0  0  0  0  0
  187.7100  177.3600  142.4000 C   0  0  2  0  0  3  0  0  0  0  0  0
  185.7260  177.8090  144.3770 O   0  0  0  0  0  0  0  0  0  0  0  0
  188.5170  177.2210  141.1080 C   0  0  0  0  0  2  0  0  0  0  0  0
  185.6210  178.4600  143.3000 C   0  0  0  0  0  0  0  0  0  0  0  0
  187.3130  178.6530  140.0180 O   0  0  0  0  0  0  0  0  0  0  0  0
  184.5230  179.4670  143.1260 C   0  0  1  0  0  3  0  0  0  0  0  0
  181.9110  178.2540  138.2470 C   0  0  0  0  0  2  0  0  0  0  0  0
  182.4420  177.8440  140.5860 N   0  0  0  0  0  0  0  0  0  0  0  0
  184.4760  177.3510  135.5490 C   0  0  0  0  0  3  0  0  0  0  0  0
  181.5140  178.1570  141.4780 N   0  0  0  0  0  0  0  0  0  0  0  0
  186.5040  178.1850  142.1990 N   0  0  0  0  0  0  0  0  0  0  0  0
  187.6680  177.3750  140.0060 O   0  0  0  0  0  0  0  0  0  0  0  0
  182.1050  178.7860  142.5130 C   0  0  0  0  0  3  0  0  0  0  0  0
  183.6670  177.4020  134.4120 C   0  0  0  0  0  3  0  0  0  0  0  0
  184.7910  178.6090  138.8710 N   0  0  0  0  0  2  0  0  0  0  0  0
  184.8560  177.4500  137.9940 C   0  0  0  0  0  2  0  0  0  0  0  0
  182.5580  177.8960  136.9420 C   0  0  0  0  0  0  0  0  0  0  0  0
  181.7610  177.9510  135.7930 C   0  0  0  0  0  3  0  0  0  0  0  0
  183.4620  178.8810  142.2440 C   0  0  0  0  0  0  0  0  0  0  0  0
  188.5920  177.9480  143.4560 C   0  0  0  0  0  0  0  0  0  0  0  0
  188.7030  177.3100  144.7310 N   0  0  0  0  0  2  0  0  0  0  0  0
  189.2190  179.0140  143.2180 O   0  0  0  0  0  0  0  0  0  0  0  0
  189.6530  177.7370  145.7510 C   0  0  2  0  0  3  0  0  0  0  0  0
  191.9350  177.4100  146.4790 O   0  0  0  0  0  1  0  0  0  0  0  0
  191.0760  177.2930  145.3820 C   0  0  1  0  0  3  0  0  0  0  0  0
  191.1130  175.8670  144.8110 C   0  0  2  0  0  3  0  0  0  0  0  0
  192.6510  174.0070  144.6940 O   0  0  0  0  0  1  0  0  0  0  0  0
  192.0720  174.9380  145.5590 C   0  0  0  0  0  2  0  0  0  0  0  0
  191.3930  175.8610  143.3110 C   0  0  0  0  0  2  0  0  0  0  0  0
  191.9410  177.3170  141.3590 C   0  0  0  0  0  1  0  0  0  0  0  0
  192.0480  177.1570  142.8630 C   0  0  0  0  0  2  0  0  0  0  0  0
  189.2280  177.1720  147.1040 C   0  0  0  0  0  2  0  0  0  0  0  0
  189.3960  178.1240  148.1120 O   0  0  0  0  0  1  0  0  0  0  0  0
  183.6140  178.8330  145.3680 C   0  0  0  0  0  1  0  0  0  0  0  0
  183.9740  179.9900  144.4530 C   0  0  0  0  0  2  0  0  0  0  0  0
  181.0020  176.3180  139.4190 N   0  0  0  0  0  2  0  0  0  0  0  0
  181.3710  175.0640  138.7890 C   0  0  0  0  0  2  0  0  0  0  0  0
  180.5870  174.8960  137.5030 C   0  0  0  0  0  2  0  0  0  0  0  0
  181.4760  174.3580  136.4390 C   0  0  0  0  0  0  0  0  0  0  0  0
  180.9780  173.8010  135.4260 O   0  0  0  0  0  0  0  0  0  0  0  0
  182.8540  174.4970  136.5460 O   0  0  0  0  0  1  0  0  0  0  0  0
  1 24  1  0  0  0  0
  2 42  1  1  0  0  0
  2 14  1  0  0  0  0
  3 25  2  0  0  0  0
  4 21  1  6  0  0  0
  4  5  1  0  0  0  0
  4  3  1  0  0  0  0
  5 11  1  6  0  0  0
  5 17  1  0  0  0  0
  6 23  1  0  0  0  0
  6 22  1  0  0  0  0
  7 26  1  1  0  0  0
  9  7  1  0  0  0  0
 10  8  2  0  0  0  0
 12 10  1  0  0  0  0
 12 41  1  1  0  0  0
 13  2  1  0  0  0  0
 14  3  1  0  0  0  0
 14 16  1  0  0  0  0
 15  6  2  0  0  0  0
 16 19  2  0  0  0  0
 17  7  1  0  0  0  0
 17 10  1  0  0  0  0
 18 11  1  0  0  0  0
 18  9  1  0  0  0  0
 20  1  2  0  0  0  0
 20 15  1  0  0  0  0
 22 21  1  0  0  0  0
 23 13  1  0  0  0  0
 24 23  2  0  0  0  0
 25 19  1  0  0  0  0
 25 12  1  0  0  0  0
 26 27  1  0  0  0  0
 27 29  1  0  0  0  0
 28 26  2  0  0  0  0
 29 38  1  1  0  0  0
 31 29  1  0  0  0  0
 31 30  1  1  0  0  0
 32 35  1  6  0  0  0
 32 31  1  0  0  0  0
 32 34  1  0  0  0  0
 33 34  1  0  0  0  0
 36 37  1  0  0  0  0
 37 35  1  0  0  0  0
 38 39  1  0  0  0  0
 41 40  1  0  0  0  0
 43 42  1  0  0  0  0
 44 43  1  0  0  0  0
 45 47  1  0  0  0  0
 45 44  1  0  0  0  0
 46 45  2  0  0  0  0
M  END
>  <MODEL>
4

>  <REMARK>
 VINA RESULT:      -6.2      4.533      8.536
  Name = 
  13 active torsions:
  status: ('A' for Active; 'I' for Inactive)
    1  A    between atoms: C_2  and  N_17
    2  A    between atoms: C_6  and  C_39
    3  A    between atoms: CA_12  and  C_31
    4  A    between atoms: CA_12  and  N_34
    5  A    between atoms: CA_12  and  C_35
    6  A    between atoms: C_14  and  C_22
    7  A    between atoms: C_15  and  C_29
    8  A    between atoms: C_16  and  C_27
    9  A    between atoms: N_17  and  C_26
   10  A    between atoms: C_23  and  C_40
   11  A    between atoms: C_26  and  C_39
   12  A    between atoms: C_27  and  C_31
   13  A    between atoms: C_27  and  C_40
                            x       y       z     vdW  Elec       q    Type
                         _______ _______ _______ _____ _____    ______ ____

>  <TORSDO>
F 13

$$$$
=
 OpenBabel10222421433D

 47 51  0  0  1  0  0  0  0  0999 V2000
  188.5130  178.1060  147.5680 C   0  0  0  0  0  3  0  0  0  0  0  0
  189.0470  176.6860  143.0100 C   0  0  1  0  0  3  0  0  0  0  0  0
  188.0460  177.7370  140.9660 C   0  0  0  0  0  0  0  0  0  0  0  0
  186.6650  177.9820  141.5560 C   0  0  2  0  0  3  0  0  0  0  0  0
  185.6820  178.7460  140.6440 C   0  0  2  0  0  3  0  0  0  0  0  0
  187.1580  177.9330  145.1170 C   0  0  0  0  0  0  0  0  0  0  0  0
  184.0480  177.4470  139.1560 C   0  0  2  0  0  3  0  0  0  0  0  0
  186.2800  177.0790  137.4430 O   0  0  0  0  0  0  0  0  0  0  0  0
  183.1000  177.7300  140.3210 C   0  0  0  0  0  2  0  0  0  0  0  0
  186.4210  177.8840  138.4060 C   0  0  0  0  0  0  0  0  0  0  0  0
  184.4860  179.0510  141.3320 O   0  0  0  0  0  0  0  0  0  0  0  0
  187.7020  178.6470  138.5750 C   0  0  1  0  0  3  0  0  0  0  0  0
  189.4220  177.8480  143.9140 C   0  0  0  0  0  2  0  0  0  0  0  0
  189.0590  177.1260  141.6180 N   0  0  0  0  0  0  0  0  0  0  0  0
  186.4460  178.0410  146.3170 C   0  0  0  0  0  3  0  0  0  0  0  0
  190.1240  177.0590  140.8330 N   0  0  0  0  0  0  0  0  0  0  0  0
  185.3870  178.0170  139.3960 N   0  0  0  0  0  0  0  0  0  0  0  0
  183.8400  177.9050  141.4970 O   0  0  0  0  0  0  0  0  0  0  0  0
  189.8110  177.5920  139.6350 C   0  0  0  0  0  3  0  0  0  0  0  0
  187.1190  178.1320  147.5370 C   0  0  0  0  0  3  0  0  0  0  0  0
  186.7900  178.6860  142.8270 N   0  0  0  0  0  2  0  0  0  0  0  0
  186.3610  177.7550  143.8590 C   0  0  0  0  0  2  0  0  0  0  0  0
  188.5750  177.8900  145.1500 C   0  0  0  0  0  0  0  0  0  0  0  0
  189.2360  177.9890  146.3800 C   0  0  0  0  0  3  0  0  0  0  0  0
  188.4950  178.0250  139.6850 C   0  0  0  0  0  0  0  0  0  0  0  0
  183.4470  177.9990  137.9020 C   0  0  0  0  0  0  0  0  0  0  0  0
  183.0050  177.1130  136.8710 N   0  0  0  0  0  2  0  0  0  0  0  0
  183.3510  179.2470  137.7580 O   0  0  0  0  0  0  0  0  0  0  0  0
  182.2750  177.5670  135.6940 C   0  0  2  0  0  3  0  0  0  0  0  0
  180.3890  176.8810  134.3460 O   0  0  0  0  0  1  0  0  0  0  0  0
  180.8710  176.9490  135.6570 C   0  0  1  0  0  3  0  0  0  0  0  0
  180.8250  175.5650  136.3250 C   0  0  2  0  0  3  0  0  0  0  0  0
  181.3800  173.5120  135.1780 O   0  0  0  0  0  1  0  0  0  0  0  0
  180.3670  174.4500  135.3830 C   0  0  0  0  0  2  0  0  0  0  0  0
  180.0000  175.5790  137.6090 C   0  0  0  0  0  2  0  0  0  0  0  0
  180.1140  174.9050  140.0100 C   0  0  0  0  0  1  0  0  0  0  0  0
  180.4820  174.5220  138.5900 C   0  0  0  0  0  2  0  0  0  0  0  0
  183.0710  177.2150  134.4400 C   0  0  0  0  0  2  0  0  0  0  0  0
  184.4430  177.3370  134.6730 O   0  0  0  0  0  1  0  0  0  0  0  0
  187.5620  178.7420  136.0800 C   0  0  0  0  0  1  0  0  0  0  0  0
  188.4960  178.7790  137.2760 C   0  0  0  0  0  2  0  0  0  0  0  0
  189.9660  175.5770  143.2110 N   0  0  0  0  0  2  0  0  0  0  0  0
  191.2960  176.1490  143.3030 C   0  0  0  0  0  2  0  0  0  0  0  0
  191.6830  176.2950  144.7610 C   0  0  0  0  0  2  0  0  0  0  0  0
  192.2560  175.0170  145.2600 C   0  0  0  0  0  0  0  0  0  0  0  0
  192.4650  174.0670  144.4610 O   0  0  0  0  0  0  0  0  0  0  0  0
  192.5890  174.8790  146.6020 O   0  0  0  0  0  1  0  0  0  0  0  0
  2 42  1  6  0  0  0
  2 13  1  0  0  0  0
  3 14  1  0  0  0  0
  4  3  1  6  0  0  0
  4 21  1  0  0  0  0
  5 11  1  1  0  0  0
  5  4  1  0  0  0  0
  6 23  2  0  0  0  0
  6 15  1  0  0  0  0
  7 26  1  6  0  0  0
  7 17  1  0  0  0  0
  7  9  1  0  0  0  0
  8 10  2  0  0  0  0
  9 18  1  0  0  0  0
 10 12  1  0  0  0  0
 10 17  1  0  0  0  0
 11 18  1  0  0  0  0
 12 41  1  6  0  0  0
 12 25  1  0  0  0  0
 13 23  1  0  0  0  0
 14  2  1  0  0  0  0
 15 20  2  0  0  0  0
 16 14  1  0  0  0  0
 17  5  1  0  0  0  0
 19 25  1  0  0  0  0
 19 16  2  0  0  0  0
 20  1  1  0  0  0  0
 21 22  1  0  0  0  0
 22  6  1  0  0  0  0
 23 24  1  0  0  0  0
 24  1  2  0  0  0  0
 25  3  2  0  0  0  0
 27 26  1  0  0  0  0
 28 26  2  0  0  0  0
 29 38  1  6  0  0  0
 29 27  1  0  0  0  0
 31 30  1  6  0  0  0
 31 29  1  0  0  0  0
 31 32  1  0  0  0  0
 32 34  1  6  0  0  0
 32 35  1  0  0  0  0
 33 34  1  0  0  0  0
 35 37  1  0  0  0  0
 37 36  1  0  0  0  0
 38 39  1  0  0  0  0
 40 41  1  0  0  0  0
 42 43  1  0  0  0  0
 43 44  1  0  0  0  0
 44 45  1  0  0  0  0
 45 47  1  0  0  0  0
 46 45  2  0  0  0  0
M  END
>  <MODEL>
5

>  <REMARK>
 VINA RESULT:      -6.0      4.421      8.802
  Name = 
  13 active torsions:
  status: ('A' for Active; 'I' for Inactive)
    1  A    between atoms: C_2  and  N_17
    2  A    between atoms: C_6  and  C_39
    3  A    between atoms: CA_12  and  C_31
    4  A    between atoms: CA_12  and  N_34
    5  A    between atoms: CA_12  and  C_35
    6  A    between atoms: C_14  and  C_22
    7  A    between atoms: C_15  and  C_29
    8  A    between atoms: C_16  and  C_27
    9  A    between atoms: N_17  and  C_26
   10  A    between atoms: C_23  and  C_40
   11  A    between atoms: C_26  and  C_39
   12  A    between atoms: C_27  and  C_31
   13  A    between atoms: C_27  and  C_40
                            x       y       z     vdW  Elec       q    Type
                         _______ _______ _______ _____ _____    ______ ____

>  <TORSDO>
F 13

$$$$
=
 OpenBabel10222421433D

 47 51  0  0  1  0  0  0  0  0999 V2000
  184.3750  178.6330  144.6290 C   0  0  0  0  0  3  0  0  0  0  0  0
  185.7950  178.8190  140.0430 C   0  0  1  0  0  3  0  0  0  0  0  0
  187.4550  177.3220  138.9070 C   0  0  0  0  0  0  0  0  0  0  0  0
  188.4670  177.2930  140.0420 C   0  0  2  0  0  3  0  0  0  0  0  0
  189.6790  176.3630  139.8230 C   0  0  2  0  0  3  0  0  0  0  0  0
  186.6030  178.2290  142.9700 C   0  0  0  0  0  0  0  0  0  0  0  0
  191.8530  177.3060  138.8440 C   0  0  2  0  0  3  0  0  0  0  0  0
  190.5170  177.1320  136.3460 O   0  0  0  0  0  0  0  0  0  0  0  0
  192.2380  177.3690  140.3220 C   0  0  0  0  0  2  0  0  0  0  0  0
  189.9510  176.5940  137.3390 C   0  0  0  0  0  0  0  0  0  0  0  0
  190.4800  176.2940  140.9860 O   0  0  0  0  0  0  0  0  0  0  0  0
  188.6610  175.8480  137.1650 C   0  0  1  0  0  3  0  0  0  0  0  0
  185.0150  177.9110  140.9800 C   0  0  0  0  0  2  0  0  0  0  0  0
  186.3090  178.0380  138.9220 N   0  0  0  0  0  0  0  0  0  0  0  0
  186.7690  178.4610  144.3400 C   0  0  0  0  0  3  0  0  0  0  0  0
  185.6510  177.8580  137.7860 N   0  0  0  0  0  0  0  0  0  0  0  0
  190.4940  176.7610  138.6600 N   0  0  0  0  0  0  0  0  0  0  0  0
  191.0820  177.4700  141.1040 O   0  0  0  0  0  0  0  0  0  0  0  0
  186.3790  177.0500  136.9890 C   0  0  0  0  0  3  0  0  0  0  0  0
  185.6620  178.6570  145.1680 C   0  0  0  0  0  3  0  0  0  0  0  0
  187.8010  176.9330  141.2870 N   0  0  0  0  0  2  0  0  0  0  0  0
  187.8440  178.1130  142.1370 C   0  0  0  0  0  2  0  0  0  0  0  0
  185.2960  178.2210  142.4190 C   0  0  0  0  0  0  0  0  0  0  0  0
  184.1950  178.4120  143.2620 C   0  0  0  0  0  3  0  0  0  0  0  0
  187.5350  176.7000  137.6700 C   0  0  0  0  0  0  0  0  0  0  0  0
  192.8650  176.4770  138.1180 C   0  0  0  0  0  0  0  0  0  0  0  0
  192.8370  175.0520  138.2350 N   0  0  0  0  0  2  0  0  0  0  0  0
  193.7480  177.0440  137.4210 O   0  0  0  0  0  0  0  0  0  0  0  0
  193.6900  174.1750  137.4430 C   0  0  2  0  0  3  0  0  0  0  0  0
  195.3500  173.7220  139.1410 O   0  0  0  0  0  1  0  0  0  0  0  0
  195.1550  174.3020  137.8850 C   0  0  1  0  0  3  0  0  0  0  0  0
  196.1280  173.7090  136.8540 C   0  0  2  0  0  3  0  0  0  0  0  0
  197.6700  171.8680  136.5790 O   0  0  0  0  0  1  0  0  0  0  0  0
  196.4130  172.2210  137.0740 C   0  0  0  0  0  2  0  0  0  0  0  0
  197.4230  174.5130  136.7630 C   0  0  0  0  0  2  0  0  0  0  0  0
  196.9330  175.0250  134.3700 C   0  0  0  0  0  1  0  0  0  0  0  0
  197.3240  175.6080  135.7140 C   0  0  0  0  0  2  0  0  0  0  0  0
  193.5250  174.5120  135.9630 C   0  0  0  0  0  2  0  0  0  0  0  0
  192.2910  174.0610  135.4870 O   0  0  0  0  0  1  0  0  0  0  0  0
  188.8480  173.8980  135.6100 C   0  0  0  0  0  1  0  0  0  0  0  0
  188.4430  175.3560  135.7350 C   0  0  0  0  0  2  0  0  0  0  0  0
  184.9480  179.9040  139.5750 N   0  0  0  0  0  2  0  0  0  0  0  0
  183.5770  179.5030  139.8320 C   0  0  0  0  0  2  0  0  0  0  0  0
  182.7770  179.5870  138.5470 C   0  0  0  0  0  2  0  0  0  0  0  0
  181.3240  179.5250  138.8550 C   0  0  0  0  0  0  0  0  0  0  0  0
  180.5170  179.0820  137.9960 O   0  0  0  0  0  0  0  0  0  0  0  0
  180.8570  179.9280  140.1010 O   0  0  0  0  0  1  0  0  0  0  0  0
  1 20  1  0  0  0  0
  2 42  1  6  0  0  0
  2 13  1  0  0  0  0
  3 14  1  0  0  0  0
  4  3  1  6  0  0  0
  4 21  1  0  0  0  0
  5  4  1  0  0  0  0
  5 11  1  1  0  0  0
  6 15  1  0  0  0  0
  7 26  1  6  0  0  0
  7  9  1  0  0  0  0
  8 10  2  0  0  0  0
  9 18  1  0  0  0  0
 10 17  1  0  0  0  0
 11 18  1  0  0  0  0
 12 41  1  6  0  0  0
 12 10  1  0  0  0  0
 12 25  1  0  0  0  0
 13 23  1  0  0  0  0
 14  2  1  0  0  0  0
 15 20  2  0  0  0  0
 16 14  1  0  0  0  0
 17  7  1  0  0  0  0
 17  5  1  0  0  0  0
 19 25  1  0  0  0  0
 19 16  2  0  0  0  0
 21 22  1  0  0  0  0
 22  6  1  0  0  0  0
 23  6  2  0  0  0  0
 23 24  1  0  0  0  0
 24  1  2  0  0  0  0
 25  3  2  0  0  0  0
 26 27  1  0  0  0  0
 28 26  2  0  0  0  0
 29 38  1  6  0  0  0
 29 31  1  0  0  0  0
 29 27  1  0  0  0  0
 31 30  1  1  0  0  0
 32 35  1  1  0  0  0
 32 34  1  0  0  0  0
 32 31  1  0  0  0  0
 33 34  1  0  0  0  0
 36 37  1  0  0  0  0
 37 35  1  0  0  0  0
 39 38  1  0  0  0  0
 40 41  1  0  0  0  0
 42 43  1  0  0  0  0
 44 45  1  0  0  0  0
 44 43  1  0  0  0  0
 45 47  1  0  0  0  0
 46 45  2  0  0  0  0
M  END
>  <MODEL>
6

>  <REMARK>
 VINA RESULT:      -5.9      2.110      3.024
  Name = 
  13 active torsions:
  status: ('A' for Active; 'I' for Inactive)
    1  A    between atoms: C_2  and  N_17
    2  A    between atoms: C_6  and  C_39
    3  A    between atoms: CA_12  and  C_31
    4  A    between atoms: CA_12  and  N_34
    5  A    between atoms: CA_12  and  C_35
    6  A    between atoms: C_14  and  C_22
    7  A    between atoms: C_15  and  C_29
    8  A    between atoms: C_16  and  C_27
    9  A    between atoms: N_17  and  C_26
   10  A    between atoms: C_23  and  C_40
   11  A    between atoms: C_26  and  C_39
   12  A    between atoms: C_27  and  C_31
   13  A    between atoms: C_27  and  C_40
                            x       y       z     vdW  Elec       q    Type
                         _______ _______ _______ _____ _____    ______ ____

>  <TORSDO>
F 13

$$$$
=
 OpenBabel10222421433D

 47 51  0  0  1  0  0  0  0  0999 V2000
  186.3410  178.0630  146.1750 C   0  0  0  0  0  3  0  0  0  0  0  0
  186.8740  178.7620  141.4520 C   0  0  1  0  0  3  0  0  0  0  0  0
  188.2580  177.4020  139.8640 C   0  0  0  0  0  0  0  0  0  0  0  0
  189.4660  177.2460  140.7760 C   0  0  2  0  0  3  0  0  0  0  0  0
  190.5950  176.3460  140.2310 C   0  0  2  0  0  3  0  0  0  0  0  0
  188.2070  177.8480  144.0890 C   0  0  0  0  0  0  0  0  0  0  0  0
  192.5640  177.3930  138.9660 C   0  0  2  0  0  3  0  0  0  0  0  0
  190.7780  177.5000  136.7640 O   0  0  0  0  0  0  0  0  0  0  0  0
  193.2220  177.2900  140.3420 C   0  0  0  0  0  2  0  0  0  0  0  0
  190.3980  176.8540  137.7810 C   0  0  0  0  0  0  0  0  0  0  0  0
  191.5990  176.1470  141.2060 O   0  0  0  0  0  0  0  0  0  0  0  0
  189.0830  176.1320  137.7730 C   0  0  1  0  0  3  0  0  0  0  0  0
  186.2660  177.7550  142.4140 C   0  0  0  0  0  2  0  0  0  0  0  0
  187.1510  178.1110  140.1740 N   0  0  0  0  0  0  0  0  0  0  0  0
  188.6330  177.9240  145.4200 C   0  0  0  0  0  3  0  0  0  0  0  0
  186.2870  178.0600  139.1720 N   0  0  0  0  0  0  0  0  0  0  0  0
  191.1840  176.8720  138.9850 N   0  0  0  0  0  0  0  0  0  0  0  0
  192.2360  177.3020  141.3360 O   0  0  0  0  0  0  0  0  0  0  0  0
  186.8350  177.3460  138.1670 C   0  0  0  0  0  3  0  0  0  0  0  0
  187.7060  178.0260  146.4600 C   0  0  0  0  0  3  0  0  0  0  0  0
  189.0380  176.7480  142.0780 N   0  0  0  0  0  2  0  0  0  0  0  0
  189.2660  177.8260  143.0280 C   0  0  0  0  0  2  0  0  0  0  0  0
  186.8190  177.9010  143.7990 C   0  0  0  0  0  0  0  0  0  0  0  0
  185.9020  177.9960  144.8520 C   0  0  0  0  0  3  0  0  0  0  0  0
  188.0910  176.9220  138.5730 C   0  0  0  0  0  0  0  0  0  0  0  0
  193.4040  176.6510  137.9750 C   0  0  0  0  0  0  0  0  0  0  0  0
  193.6800  175.2610  138.1720 N   0  0  0  0  0  2  0  0  0  0  0  0
  193.8760  177.2620  136.9810 O   0  0  0  0  0  0  0  0  0  0  0  0
  194.3590  174.4400  137.1780 C   0  0  2  0  0  3  0  0  0  0  0  0
  192.1080  173.6290  136.8290 O   0  0  0  0  0  1  0  0  0  0  0  0
  193.4570  173.2810  136.7280 C   0  0  1  0  0  3  0  0  0  0  0  0
  193.7910  172.8020  135.3060 C   0  0  2  0  0  3  0  0  0  0  0  0
  191.7750  171.7350  134.5070 O   0  0  0  0  0  1  0  0  0  0  0  0
  192.5960  172.8540  134.3510 C   0  0  0  0  0  2  0  0  0  0  0  0
  194.4380  171.4200  135.3070 C   0  0  0  0  0  2  0  0  0  0  0  0
  196.6260  170.4850  136.0630 C   0  0  0  0  0  1  0  0  0  0  0  0
  195.9500  171.5150  135.1790 C   0  0  0  0  0  2  0  0  0  0  0  0
  195.6730  173.9270  137.7600 C   0  0  0  0  0  2  0  0  0  0  0  0
  195.4350  173.0310  138.8060 O   0  0  0  0  0  1  0  0  0  0  0  0
  188.8440  174.3420  136.0440 C   0  0  0  0  0  1  0  0  0  0  0  0
  188.5890  175.8030  136.3650 C   0  0  0  0  0  2  0  0  0  0  0  0
  185.9770  179.8920  141.2750 N   0  0  0  0  0  2  0  0  0  0  0  0
  184.6610  179.4490  141.6960 C   0  0  0  0  0  2  0  0  0  0  0  0
  183.7920  179.2200  140.4760 C   0  0  0  0  0  2  0  0  0  0  0  0
  182.4860  178.6410  140.8900 C   0  0  0  0  0  0  0  0  0  0  0  0
  182.1150  178.7200  142.0900 O   0  0  0  0  0  1  0  0  0  0  0  0
  181.6600  178.0380  139.9480 O   0  0  0  0  0  0  0  0  0  0  0  0
  1 20  1  0  0  0  0
  2 42  1  6  0  0  0
  2 13  1  0  0  0  0
  3 14  1  0  0  0  0
  4  3  1  6  0  0  0
  4 21  1  0  0  0  0
  5  4  1  0  0  0  0
  5 11  1  1  0  0  0
  6 15  1  0  0  0  0
  7 26  1  6  0  0  0
  7 17  1  0  0  0  0
  7  9  1  0  0  0  0
  8 10  2  0  0  0  0
  9 18  1  0  0  0  0
 10 17  1  0  0  0  0
 11 18  1  0  0  0  0
 12 41  1  6  0  0  0
 12 10  1  0  0  0  0
 12 25  1  0  0  0  0
 13 23  1  0  0  0  0
 14  2  1  0  0  0  0
 15 20  2  0  0  0  0
 16 14  1  0  0  0  0
 17  5  1  0  0  0  0
 19 25  1  0  0  0  0
 19 16  2  0  0  0  0
 21 22  1  0  0  0  0
 22  6  1  0  0  0  0
 23  6  2  0  0  0  0
 23 24  1  0  0  0  0
 24  1  2  0  0  0  0
 25  3  2  0  0  0  0
 26 27  1  0  0  0  0
 28 26  2  0  0  0  0
 29 38  1  1  0  0  0
 29 27  1  0  0  0  0
 31 30  1  6  0  0  0
 31 29  1  0  0  0  0
 32 34  1  6  0  0  0
 32 35  1  0  0  0  0
 32 31  1  0  0  0  0
 34 33  1  0  0  0  0
 37 35  1  0  0  0  0
 37 36  1  0  0  0  0
 38 39  1  0  0  0  0
 40 41  1  0  0  0  0
 42 43  1  0  0  0  0
 44 45  1  0  0  0  0
 44 43  1  0  0  0  0
 45 46  1  0  0  0  0
 47 45  2  0  0  0  0
M  END
>  <MODEL>
7

>  <REMARK>
 VINA RESULT:      -5.8      1.550      2.570
  Name = 
  13 active torsions:
  status: ('A' for Active; 'I' for Inactive)
    1  A    between atoms: C_2  and  N_17
    2  A    between atoms: C_6  and  C_39
    3  A    between atoms: CA_12  and  C_31
    4  A    between atoms: CA_12  and  N_34
    5  A    between atoms: CA_12  and  C_35
    6  A    between atoms: C_14  and  C_22
    7  A    between atoms: C_15  and  C_29
    8  A    between atoms: C_16  and  C_27
    9  A    between atoms: N_17  and  C_26
   10  A    between atoms: C_23  and  C_40
   11  A    between atoms: C_26  and  C_39
   12  A    between atoms: C_27  and  C_31
   13  A    between atoms: C_27  and  C_40
                            x       y       z     vdW  Elec       q    Type
                         _______ _______ _______ _____ _____    ______ ____

>  <TORSDO>
F 13

$$$$
=
 OpenBabel10222421433D

 47 51  0  0  1  0  0  0  0  0999 V2000
  197.5010  174.0590  135.3360 C   0  0  0  0  0  3  0  0  0  0  0  0
  192.7170  173.9400  135.7580 C   0  0  1  0  0  3  0  0  0  0  0  0
  191.2360  175.7090  136.7410 C   0  0  0  0  0  0  0  0  0  0  0  0
  192.1220  176.0330  137.9340 C   0  0  2  0  0  3  0  0  0  0  0  0
  191.6380  177.2020  138.8180 C   0  0  2  0  0  3  0  0  0  0  0  0
  195.3930  174.8650  137.0040 C   0  0  0  0  0  0  0  0  0  0  0  0
  190.2120  176.7260  140.8950 C   0  0  2  0  0  3  0  0  0  0  0  0
  188.0670  176.4470  139.0600 O   0  0  0  0  0  0  0  0  0  0  0  0
  191.5710  176.8380  141.5880 C   0  0  0  0  0  2  0  0  0  0  0  0
  189.1560  176.8970  138.6060 C   0  0  0  0  0  0  0  0  0  0  0  0
  192.5980  177.5190  139.8080 O   0  0  0  0  0  0  0  0  0  0  0  0
  189.2640  177.3180  137.1700 C   0  0  1  0  0  3  0  0  0  0  0  0
  193.7960  174.6970  135.0020 C   0  0  0  0  0  2  0  0  0  0  0  0
  191.5050  174.7520  135.8250 N   0  0  0  0  0  0  0  0  0  0  0  0
  196.6950  174.7570  137.5060 C   0  0  0  0  0  3  0  0  0  0  0  0
  190.5400  174.7120  134.9190 N   0  0  0  0  0  0  0  0  0  0  0  0
  190.3270  176.9350  139.4400 N   0  0  0  0  0  0  0  0  0  0  0  0
  192.5880  176.5200  140.6800 O   0  0  0  0  0  0  0  0  0  0  0  0
  189.5990  175.6180  135.2510 C   0  0  0  0  0  3  0  0  0  0  0  0
  197.7460  174.3600  136.6760 C   0  0  0  0  0  3  0  0  0  0  0  0
  193.4810  176.3020  137.4800 N   0  0  0  0  0  2  0  0  0  0  0  0
  194.3080  175.2140  137.9780 C   0  0  0  0  0  2  0  0  0  0  0  0
  195.1410  174.5430  135.6460 C   0  0  0  0  0  0  0  0  0  0  0  0
  196.2060  174.1540  134.8250 C   0  0  0  0  0  3  0  0  0  0  0  0
  190.0080  176.2620  136.4090 C   0  0  0  0  0  0  0  0  0  0  0  0
  189.2780  177.7220  141.5070 C   0  0  0  0  0  0  0  0  0  0  0  0
  188.1180  177.2730  142.2130 N   0  0  0  0  0  2  0  0  0  0  0  0
  189.5140  178.9530  141.3810 O   0  0  0  0  0  0  0  0  0  0  0  0
  187.2480  178.1720  142.9610 C   0  0  2  0  0  3  0  0  0  0  0  0
  186.7500  176.2120  144.2860 O   0  0  0  0  0  1  0  0  0  0  0  0
  186.9410  177.5950  144.3500 C   0  0  1  0  0  3  0  0  0  0  0  0
  188.0270  177.9470  145.3800 C   0  0  2  0  0  3  0  0  0  0  0  0
  190.3250  177.3680  145.8540 O   0  0  0  0  0  1  0  0  0  0  0  0
  189.4500  177.7750  144.8450 C   0  0  0  0  0  2  0  0  0  0  0  0
  187.8340  177.1920  146.6920 C   0  0  0  0  0  2  0  0  0  0  0  0
  188.3740  178.0060  148.9900 C   0  0  0  0  0  1  0  0  0  0  0  0
  187.4220  178.1290  147.8160 C   0  0  0  0  0  2  0  0  0  0  0  0
  185.9680  178.4140  142.1650 C   0  0  0  0  0  2  0  0  0  0  0  0
  186.2630  178.9010  140.8890 O   0  0  0  0  0  1  0  0  0  0  0  0
  187.8560  179.1410  136.1960 C   0  0  0  0  0  1  0  0  0  0  0  0
  187.9130  177.6650  136.5450 C   0  0  0  0  0  2  0  0  0  0  0  0
  192.4520  172.6650  135.1110 N   0  0  0  0  0  2  0  0  0  0  0  0
  192.9890  171.6360  135.9810 C   0  0  0  0  0  2  0  0  0  0  0  0
  194.1550  170.9530  135.2950 C   0  0  0  0  0  2  0  0  0  0  0  0
  195.2500  170.7230  136.2740 C   0  0  0  0  0  0  0  0  0  0  0  0
  196.4360  170.5920  135.8730 O   0  0  0  0  0  0  0  0  0  0  0  0
  194.9710  170.6810  137.6350 O   0  0  0  0  0  1  0  0  0  0  0  0
  1 20  1  0  0  0  0
  2 42  1  6  0  0  0
  2 14  1  0  0  0  0
  4  3  1  6  0  0  0
  4  5  1  0  0  0  0
  5 17  1  0  0  0  0
  5 11  1  1  0  0  0
  6 15  1  0  0  0  0
  6 22  1  0  0  0  0
  7 26  1  1  0  0  0
  7  9  1  0  0  0  0
 10  8  2  0  0  0  0
 10 17  1  0  0  0  0
 11 18  1  0  0  0  0
 12 41  1  6  0  0  0
 12 10  1  0  0  0  0
 13 23  1  0  0  0  0
 13  2  1  0  0  0  0
 14  3  1  0  0  0  0
 16 19  2  0  0  0  0
 16 14  1  0  0  0  0
 17  7  1  0  0  0  0
 18  9  1  0  0  0  0
 19 25  1  0  0  0  0
 20 15  2  0  0  0  0
 21  4  1  0  0  0  0
 21 22  1  0  0  0  0
 23  6  2  0  0  0  0
 24  1  2  0  0  0  0
 24 23  1  0  0  0  0
 25  3  2  0  0  0  0
 25 12  1  0  0  0  0
 26 27  1  0  0  0  0
 27 29  1  0  0  0  0
 28 26  2  0  0  0  0
 29 38  1  6  0  0  0
 29 31  1  0  0  0  0
 31 30  1  6  0  0  0
 31 32  1  0  0  0  0
 32 34  1  6  0  0  0
 32 35  1  0  0  0  0
 34 33  1  0  0  0  0
 35 37  1  0  0  0  0
 37 36  1  0  0  0  0
 39 38  1  0  0  0  0
 40 41  1  0  0  0  0
 42 43  1  0  0  0  0
 44 43  1  0  0  0  0
 44 45  1  0  0  0  0
 45 47  1  0  0  0  0
 46 45  2  0  0  0  0
M  END
>  <MODEL>
8

>  <REMARK>
 VINA RESULT:      -5.7      2.471     10.035
  Name = 
  13 active torsions:
  status: ('A' for Active; 'I' for Inactive)
    1  A    between atoms: C_2  and  N_17
    2  A    between atoms: C_6  and  C_39
    3  A    between atoms: CA_12  and  C_31
    4  A    between atoms: CA_12  and  N_34
    5  A    between atoms: CA_12  and  C_35
    6  A    between atoms: C_14  and  C_22
    7  A    between atoms: C_15  and  C_29
    8  A    between atoms: C_16  and  C_27
    9  A    between atoms: N_17  and  C_26
   10  A    between atoms: C_23  and  C_40
   11  A    between atoms: C_26  and  C_39
   12  A    between atoms: C_27  and  C_31
   13  A    between atoms: C_27  and  C_40
                            x       y       z     vdW  Elec       q    Type
                         _______ _______ _______ _____ _____    ______ ____

>  <TORSDO>
F 13

$$$$
=
 OpenBabel10222421433D

 47 51  0  0  1  0  0  0  0  0999 V2000
  184.3040  177.4590  134.4700 C   0  0  0  0  0  3  0  0  0  0  0  0
  183.3360  177.0020  139.1530 C   0  0  1  0  0  3  0  0  0  0  0  0
  184.4920  178.1470  141.0610 C   0  0  0  0  0  0  0  0  0  0  0  0
  185.9080  177.9780  140.5310 C   0  0  2  0  0  3  0  0  0  0  0  0
  187.0130  178.6550  141.3700 C   0  0  2  0  0  3  0  0  0  0  0  0
  185.5170  177.4220  137.0010 C   0  0  0  0  0  0  0  0  0  0  0  0
  188.2690  177.3080  143.1540 C   0  0  2  0  0  3  0  0  0  0  0  0
  185.9650  177.7390  144.7530 O   0  0  0  0  0  0  0  0  0  0  0  0
  189.2880  177.1710  142.0230 C   0  0  0  0  0  2  0  0  0  0  0  0
  186.0360  178.3760  143.6650 C   0  0  0  0  0  0  0  0  0  0  0  0
  188.2670  178.5670  140.7210 O   0  0  0  0  0  0  0  0  0  0  0  0
  184.9670  179.3600  143.2900 C   0  0  1  0  0  3  0  0  0  0  0  0
  183.2590  178.0430  138.0500 C   0  0  0  0  0  2  0  0  0  0  0  0
  183.3850  177.6680  140.4520 N   0  0  0  0  0  0  0  0  0  0  0  0
  186.2680  177.1620  135.8490 C   0  0  0  0  0  3  0  0  0  0  0  0
  182.3120  177.9730  141.1650 N   0  0  0  0  0  0  0  0  0  0  0  0
  187.1010  178.1070  142.7360 N   0  0  0  0  0  0  0  0  0  0  0  0
  188.6400  177.2970  140.7880 O   0  0  0  0  0  0  0  0  0  0  0  0
  182.7040  178.6240  142.2780 C   0  0  0  0  0  3  0  0  0  0  0  0
  185.6670  177.1850  134.5880 C   0  0  0  0  0  3  0  0  0  0  0  0
  185.9810  178.4610  139.1570 N   0  0  0  0  0  2  0  0  0  0  0  0
  186.2170  177.2950  138.3200 C   0  0  0  0  0  2  0  0  0  0  0  0
  184.1280  177.6840  136.8820 C   0  0  0  0  0  0  0  0  0  0  0  0
  183.5410  177.7110  135.6120 C   0  0  0  0  0  3  0  0  0  0  0  0
  184.0850  178.7430  142.2450 C   0  0  0  0  0  0  0  0  0  0  0  0
  188.9440  177.9250  144.3380 C   0  0  0  0  0  0  0  0  0  0  0  0
  188.8140  177.3220  145.6280 N   0  0  0  0  0  2  0  0  0  0  0  0
  189.6110  178.9830  144.1900 O   0  0  0  0  0  0  0  0  0  0  0  0
  189.5620  177.7760  146.7940 C   0  0  2  0  0  3  0  0  0  0  0  0
  189.6310  175.4130  147.2990 O   0  0  0  0  0  1  0  0  0  0  0  0
  190.3390  176.6110  147.4250 C   0  0  1  0  0  3  0  0  0  0  0  0
  191.7540  176.4710  146.8420 C   0  0  2  0  0  3  0  0  0  0  0  0
  191.9830  176.7150  144.4480 O   0  0  0  0  0  1  0  0  0  0  0  0
  191.7820  175.7880  145.4730 C   0  0  0  0  0  2  0  0  0  0  0  0
  192.7080  175.7910  147.8190 C   0  0  0  0  0  2  0  0  0  0  0  0
  193.8590  176.9140  149.7290 C   0  0  0  0  0  1  0  0  0  0  0  0
  192.5480  176.3420  149.2270 C   0  0  0  0  0  2  0  0  0  0  0  0
  188.6000  178.4090  147.7950 C   0  0  0  0  0  2  0  0  0  0  0  0
  187.3200  177.8640  147.6650 O   0  0  0  0  0  1  0  0  0  0  0  0
  184.0040  178.7860  145.5250 C   0  0  0  0  0  1  0  0  0  0  0  0
  184.1880  179.8850  144.4940 C   0  0  0  0  0  2  0  0  0  0  0  0
  182.1960  176.1030  139.0750 N   0  0  0  0  0  2  0  0  0  0  0  0
  182.4100  175.2580  137.9150 C   0  0  0  0  0  2  0  0  0  0  0  0
  183.5670  174.3160  138.1840 C   0  0  0  0  0  2  0  0  0  0  0  0
  183.9180  173.5820  136.9390 C   0  0  0  0  0  0  0  0  0  0  0  0
  184.1630  174.2190  135.8810 O   0  0  0  0  0  0  0  0  0  0  0  0
  184.0060  172.1950  136.9480 O   0  0  0  0  0  1  0  0  0  0  0  0
  1 20  2  0  0  0  0
  1 24  1  0  0  0  0
  2 42  1  1  0  0  0
  2 14  1  0  0  0  0
  3 25  2  0  0  0  0
  4 21  1  6  0  0  0
  4  3  1  0  0  0  0
  4  5  1  0  0  0  0
  5 11  1  6  0  0  0
  5 17  1  0  0  0  0
  6 22  1  0  0  0  0
  7 26  1  1  0  0  0
  9  7  1  0  0  0  0
 10  8  2  0  0  0  0
 11 18  1  0  0  0  0
 12 10  1  0  0  0  0
 12 41  1  1  0  0  0
 13  2  1  0  0  0  0
 14  3  1  0  0  0  0
 14 16  1  0  0  0  0
 15  6  2  0  0  0  0
 16 19  2  0  0  0  0
 17  7  1  0  0  0  0
 17 10  1  0  0  0  0
 18  9  1  0  0  0  0
 20 15  1  0  0  0  0
 22 21  1  0  0  0  0
 23  6  1  0  0  0  0
 23 13  1  0  0  0  0
 24 23  2  0  0  0  0
 25 19  1  0  0  0  0
 25 12  1  0  0  0  0
 26 27  1  0  0  0  0
 27 29  1  0  0  0  0
 28 26  2  0  0  0  0
 29 31  1  0  0  0  0
 29 38  1  1  0  0  0
 31 30  1  6  0  0  0
 32 34  1  6  0  0  0
 32 31  1  0  0  0  0
 32 35  1  0  0  0  0
 33 34  1  0  0  0  0
 35 37  1  0  0  0  0
 37 36  1  0  0  0  0
 39 38  1  0  0  0  0
 41 40  1  0  0  0  0
 43 44  1  0  0  0  0
 43 42  1  0  0  0  0
 45 47  1  0  0  0  0
 45 44  1  0  0  0  0
 46 45  2  0  0  0  0
M  END
>  <MODEL>
9

>  <REMARK>
 VINA RESULT:      -5.5      5.021      8.943
  Name = 
  13 active torsions:
  status: ('A' for Active; 'I' for Inactive)
    1  A    between atoms: C_2  and  N_17
    2  A    between atoms: C_6  and  C_39
    3  A    between atoms: CA_12  and  C_31
    4  A    between atoms: CA_12  and  N_34
    5  A    between atoms: CA_12  and  C_35
    6  A    between atoms: C_14  and  C_22
    7  A    between atoms: C_15  and  C_29
    8  A    between atoms: C_16  and  C_27
    9  A    between atoms: N_17  and  C_26
   10  A    between atoms: C_23  and  C_40
   11  A    between atoms: C_26  and  C_39
   12  A    between atoms: C_27  and  C_31
   13  A    between atoms: C_27  and  C_40
                            x       y       z     vdW  Elec       q    Type
                         _______ _______ _______ _____ _____    ______ ____

>  <TORSDO>
F 13

$$$$
