=
 OpenBabel10232409593D

 58 63  0  0  1  0  0  0  0  0999 V2000
  189.1410  178.3070  139.3480 C   0  0  0  0  0  0  0  0  0  0  0  0
  190.2050  177.2920  139.1460 C   0  0  1  0  0  3  0  0  0  0  0  0
  189.0540  179.2910  138.6410 O   0  0  0  0  0  0  0  0  0  0  0  0
  190.8810  177.8000  141.5390 C   0  0  2  0  0  3  0  0  0  0  0  0
  189.4490  177.2880  141.4990 C   0  0  1  0  0  3  0  0  0  0  0  0
  188.5900  178.2850  140.7260 C   0  0  2  0  0  3  0  0  0  0  0  0
  190.4790  176.7230  140.5410 C   0  0  1  0  0  3  0  0  0  0  0  0
  189.7570  176.1630  138.2170 C   0  0  2  0  0  3  0  0  0  0  0  0
  189.4680  175.3440  136.0650 C   0  0  2  0  0  3  0  0  0  0  0  0
  190.2630  174.4650  136.8460 O   0  0  0  0  0  0  0  0  0  0  0  0
  190.8180  175.2120  137.8520 N   0  0  0  0  0  0  0  0  0  0  0  0
  187.7490  176.7300  137.1070 O   0  0  0  0  0  1  0  0  0  0  0  0
  189.1300  176.5690  136.9220 C   0  0  1  0  0  3  0  0  0  0  0  0
  188.2600  174.5990  135.5030 C   0  0  0  0  0  2  0  0  0  0  0  0
  188.2430  173.2270  136.0060 N   0  0  0  0  0  2  0  0  0  0  0  0
  186.5860  172.7010  136.0080 S   0  0  0  0  0  0  0  0  0  0  0  0
  186.4990  171.2620  135.5680 O   0  0  0  0  0  0  0  0  0  0  0  0
  185.7900  173.5550  135.0590 O   0  0  0  0  0  0  0  0  0  0  0  0
  185.8950  172.8820  137.6410 C   0  0  0  0  0  2  0  0  0  0  0  0
  184.4410  173.2250  137.5710 C   0  0  0  0  0  0  0  0  0  0  0  0
  184.0620  174.3680  137.9300 O   0  0  0  0  0  0  0  0  0  0  0  0
  183.4840  172.3170  137.0970 O   0  0  0  0  0  0  0  0  0  0  0  0
  181.1950  172.7530  136.4020 C   0  0  0  0  0  1  0  0  0  0  0  0
  182.6320  172.5170  135.9660 C   0  0  2  0  0  3  0  0  0  0  0  0
  182.7620  171.3760  134.9680 C   0  0  0  0  0  2  0  0  0  0  0  0
  182.5270  168.9460  134.9850 N   0  0  0  0  0  1  0  0  0  0  0  0
  181.8880  170.1910  135.3650 C   0  0  0  0  0  2  0  0  0  0  0  0
  192.0200  175.8590  137.2950 C   0  0  0  0  0  2  0  0  0  0  0  0
  193.2690  175.5670  138.1240 C   0  0  0  0  0  2  0  0  0  0  0  0
  194.0520  174.5860  137.4580 O   0  0  0  0  0  0  0  0  0  0  0  0
  195.3000  174.8650  136.8880 C   0  0  0  0  0  3  0  0  0  0  0  0
  195.4820  175.8910  136.1690 O   0  0  0  0  0  0  0  0  0  0  0  0
  191.6970  177.1670  142.6610 C   0  0  0  0  0  2  0  0  0  0  0  0
  191.5320  178.0280  143.9020 C   0  0  0  0  0  2  0  0  0  0  0  0
  191.5190  177.1690  145.1560 C   0  0  0  0  0  2  0  0  0  0  0  0
  187.8010  177.4490  147.2930 C   0  0  0  0  0  3  0  0  0  0  0  0
  187.8150  177.6820  145.9070 C   0  0  0  0  0  0  0  0  0  0  0  0
  188.9760  177.1170  147.9710 C   0  0  0  0  0  3  0  0  0  0  0  0
  189.0290  177.5820  145.2140 C   0  0  0  0  0  3  0  0  0  0  0  0
  190.2070  177.2330  145.8830 C   0  0  0  0  0  0  0  0  0  0  0  0
  190.1790  177.0100  147.2670 C   0  0  0  0  0  3  0  0  0  0  0  0
  186.6560  178.0080  145.1940 O   0  0  0  0  0  0  0  0  0  0  0  0
  185.3470  178.9020  145.8690 P   0  0  0  0  0  0  0  0  0  0  0  0
  185.9210  180.0210  146.9990 O   0  0  0  0  0  1  0  0  0  0  0  0
  184.3770  177.9610  146.5440 O   0  0  0  0  0  1  0  0  0  0  0  0
  184.5490  179.7270  144.6240 O   0  0  0  0  0  0  0  0  0  0  0  0
  187.1340  177.8620  140.7580 C   0  0  0  0  0  2  0  0  0  0  0  0
  184.4020  178.7270  141.3660 N   0  0  0  0  0  0  0  0  0  0  0  0
  182.9660  178.6300  141.5330 C   0  0  0  0  0  2  0  0  0  0  0  0
  182.4330  177.7730  140.4020 C   0  0  0  0  0  2  0  0  0  0  0  0
  184.0660  178.9920  138.9540 C   0  0  0  0  0  2  0  0  0  0  0  0
  184.9330  178.8880  140.1930 C   0  0  0  0  0  0  0  0  0  0  0  0
  186.3530  178.8620  140.0400 N   0  0  0  0  0  2  0  0  0  0  0  0
  182.7170  178.4090  139.0950 N   0  0  1  0  0  0  0  0  0  0  0  0
  181.9640  178.3540  136.7180 C   0  0  2  0  0  3  0  0  0  0  0  0
  182.4780  177.5560  137.9050 C   0  0  2  0  0  3  0  0  0  0  0  0
  181.0140  177.4590  137.4900 C   0  0  0  0  0  2  0  0  0  0  0  0
  182.3730  177.6530  135.4430 C   0  0  0  0  0  1  0  0  0  0  0  0
  1  6  1  0  0  0  0
  2  1  1  1  0  0  0
  2  7  1  0  0  0  0
  3  1  2  0  0  0  0
  4 33  1  1  0  0  0
  5  4  1  0  0  0  0
  6 47  1  0  0  0  0
  6  5  1  0  0  0  0
  7  5  1  0  0  0  0
  7  4  1  0  0  0  0
  8  2  1  0  0  0  0
  9 10  1  0  0  0  0
  9 13  1  0  0  0  0
 10 11  1  0  0  0  0
 11  8  1  0  0  0  0
 13 12  1  0  0  0  0
 13  8  1  0  0  0  0
 14 15  1  0  0  0  0
 14  9  1  0  0  0  0
 15 16  1  0  0  0  0
 16 19  1  0  0  0  0
 17 16  2  0  0  0  0
 18 16  2  0  0  0  0
 20 19  1  0  0  0  0
 20 21  2  0  0  0  0
 22 20  1  0  0  0  0
 24 23  1  0  0  0  0
 24 22  1  0  0  0  0
 25 27  1  0  0  0  0
 25 24  1  0  0  0  0
 26 27  1  0  0  0  0
 28 11  1  0  0  0  0
 28 29  1  0  0  0  0
 30 29  1  0  0  0  0
 31 30  1  0  0  0  0
 32 31  2  0  0  0  0
 33 34  1  0  0  0  0
 34 35  1  0  0  0  0
 35 40  1  0  0  0  0
 36 38  1  0  0  0  0
 37 36  2  0  0  0  0
 39 40  2  0  0  0  0
 39 37  1  0  0  0  0
 40 41  1  0  0  0  0
 41 38  2  0  0  0  0
 42 43  1  0  0  0  0
 42 37  1  0  0  0  0
 43 45  1  0  0  0  0
 43 44  1  0  0  0  0
 46 43  2  0  0  0  0
 48 49  1  0  0  0  0
 50 49  1  0  0  0  0
 51 54  1  0  0  0  0
 51 52  1  0  0  0  0
 52 48  2  0  0  0  0
 53 52  1  0  0  0  0
 53 47  1  0  0  0  0
 54 50  1  0  0  0  0
 55 57  1  0  0  0  0
 55 56  1  0  0  0  0
 56 54  1  0  0  0  0
 57 56  1  0  0  0  0
 58 55  1  0  0  0  0
M  END
>  <MODEL>
1

>  <REMARK>
 VINA RESULT:      -7.3      0.000      0.000
  Name = 
  23 active torsions:
  status: ('A' for Active; 'I' for Inactive)
    1  A    between atoms: C_2  and  C_9
    2  A    between atoms: C_4  and  C_51
    3  A    between atoms: P_5  and  O_49
    4  A    between atoms: N_10  and  S_11
    5  A    between atoms: N_10  and  C_51
    6  A    between atoms: S_11  and  C_15
    7  A    between atoms: C_12  and  O_49
    8  A    between atoms: C_15  and  C_22
    9  A    between atoms: C_16  and  N_30
   10  A    between atoms: C_16  and  C_32
   11  A    between atoms: C_18  and  C_29
   12  A    between atoms: C_18  and  C_48
   13  A    between atoms: C_20  and  O_38
   14  A    between atoms: C_22  and  O_35
   15  A    between atoms: C_24  and  C_42
   16  A    between atoms: C_24  and  C_54
   17  A    between atoms: C_31  and  N_47
   18  A    between atoms: C_32  and  O_38
   19  A    between atoms: C_33  and  C_54
   20  A    between atoms: O_35  and  C_48
   21  A    between atoms: C_42  and  C_55
   22  A    between atoms: N_46  and  C_53
   23  A    between atoms: C_52  and  C_53
                            x       y       z     vdW  Elec       q    Type
                         _______ _______ _______ _____ _____    ______ ____

>  <TORSDO>
F 23

$$$$
=
 OpenBabel10232409593D

 58 63  0  0  1  0  0  0  0  0999 V2000
  184.3830  179.3610  139.5430 C   0  0  0  0  0  0  0  0  0  0  0  0
  185.6570  178.8870  140.1370 C   0  0  1  0  0  3  0  0  0  0  0  0
  184.3140  180.4120  138.9350 O   0  0  0  0  0  0  0  0  0  0  0  0
  184.4080  178.8900  142.3470 C   0  0  2  0  0  3  0  0  0  0  0  0
  183.7310  177.9440  141.3660 C   0  0  1  0  0  3  0  0  0  0  0  0
  183.1940  178.7530  140.1890 C   0  0  2  0  0  3  0  0  0  0  0  0
  185.2420  178.0760  141.3680 C   0  0  1  0  0  3  0  0  0  0  0  0
  186.4430  177.9900  139.1790 C   0  0  2  0  0  3  0  0  0  0  0  0
  188.1390  177.7420  137.6150 C   0  0  2  0  0  3  0  0  0  0  0  0
  188.2960  176.8290  138.6910 O   0  0  0  0  0  0  0  0  0  0  0  0
  187.6350  177.3610  139.7670 N   0  0  0  0  0  0  0  0  0  0  0  0
  185.9190  178.4940  136.9310 O   0  0  0  0  0  1  0  0  0  0  0  0
  186.9170  178.6190  137.9090 C   0  0  1  0  0  3  0  0  0  0  0  0
  188.0840  176.9860  136.2900 C   0  0  0  0  0  2  0  0  0  0  0  0
  189.4390  176.7380  135.8020 N   0  0  0  0  0  2  0  0  0  0  0  0
  189.6270  175.0160  135.6570 S   0  0  0  0  0  0  0  0  0  0  0  0
  188.4760  174.4330  134.8780 O   0  0  0  0  0  0  0  0  0  0  0  0
  189.6540  174.3990  137.0300 O   0  0  0  0  0  0  0  0  0  0  0  0
  191.1660  174.6400  134.8420 C   0  0  0  0  0  2  0  0  0  0  0  0
  191.5620  173.2180  135.0750 C   0  0  0  0  0  0  0  0  0  0  0  0
  190.9120  172.2990  134.5150 O   0  0  0  0  0  0  0  0  0  0  0  0
  192.6530  172.8710  135.8840 O   0  0  0  0  0  0  0  0  0  0  0  0
  194.9730  173.1850  135.2260 C   0  0  0  0  0  1  0  0  0  0  0  0
  193.8230  173.6680  136.0950 C   0  0  2  0  0  3  0  0  0  0  0  0
  194.1880  173.7320  137.5700 C   0  0  0  0  0  2  0  0  0  0  0  0
  194.0900  176.0900  136.9470 N   0  0  0  0  0  1  0  0  0  0  0  0
  194.2710  175.1750  138.0570 C   0  0  0  0  0  2  0  0  0  0  0  0
  188.5530  178.3220  140.4040 C   0  0  0  0  0  2  0  0  0  0  0  0
  189.1850  177.7610  141.6760 C   0  0  0  0  0  2  0  0  0  0  0  0
  190.4950  177.2960  141.3810 O   0  0  0  0  0  0  0  0  0  0  0  0
  191.1010  177.4690  140.1310 C   0  0  0  0  0  3  0  0  0  0  0  0
  191.3270  176.4870  139.3660 O   0  0  0  0  0  0  0  0  0  0  0  0
  184.5400  178.2890  143.7420 C   0  0  0  0  0  2  0  0  0  0  0  0
  185.2030  179.3230  144.6350 C   0  0  0  0  0  2  0  0  0  0  0  0
  185.2470  178.8410  146.0760 C   0  0  0  0  0  2  0  0  0  0  0  0
  189.1180  177.4470  147.3190 C   0  0  0  0  0  3  0  0  0  0  0  0
  188.7290  177.2840  145.9790 C   0  0  0  0  0  0  0  0  0  0  0  0
  188.2670  178.0650  148.2380 C   0  0  0  0  0  3  0  0  0  0  0  0
  187.4690  177.7480  145.5770 C   0  0  0  0  0  3  0  0  0  0  0  0
  186.6170  178.3840  146.4880 C   0  0  0  0  0  0  0  0  0  0  0  0
  187.0170  178.5320  147.8240 C   0  0  0  0  0  3  0  0  0  0  0  0
  189.5580  176.6790  145.0290 O   0  0  0  0  0  0  0  0  0  0  0  0
  191.2630  176.9210  144.9670 P   0  0  0  0  0  0  0  0  0  0  0  0
  191.9370  176.7510  146.5090 O   0  0  0  0  0  1  0  0  0  0  0  0
  191.5660  178.3030  144.4360 O   0  0  0  0  0  1  0  0  0  0  0  0
  191.9420  175.7660  143.9330 O   0  0  0  0  0  0  0  0  0  0  0  0
  182.4180  177.8580  139.2430 C   0  0  0  0  0  2  0  0  0  0  0  0
  181.6670  176.3480  136.8480 N   0  0  0  0  0  0  0  0  0  0  0  0
  181.2630  175.2110  136.0460 C   0  0  0  0  0  2  0  0  0  0  0  0
  182.0150  174.0000  136.5620 C   0  0  0  0  0  2  0  0  0  0  0  0
  183.9760  175.5360  136.7700 C   0  0  0  0  0  2  0  0  0  0  0  0
  182.9050  176.5180  137.1970 C   0  0  0  0  0  0  0  0  0  0  0  0
  183.2590  177.5800  138.0860 N   0  0  0  0  0  2  0  0  0  0  0  0
  183.4750  174.1960  136.4080 N   0  0  1  0  0  0  0  0  0  0  0  0
  185.6780  173.0260  136.4260 C   0  0  2  0  0  3  0  0  0  0  0  0
  184.3300  173.2020  137.1030 C   0  0  2  0  0  3  0  0  0  0  0  0
  184.6210  171.9480  136.2870 C   0  0  0  0  0  2  0  0  0  0  0  0
  186.6920  172.5900  137.4590 C   0  0  0  0  0  1  0  0  0  0  0  0
  1  6  1  0  0  0  0
  2  1  1  6  0  0  0
  2  7  1  0  0  0  0
  3  1  2  0  0  0  0
  4 33  1  1  0  0  0
  5  7  1  0  0  0  0
  5  4  1  0  0  0  0
  6  5  1  0  0  0  0
  7  4  1  0  0  0  0
  8 11  1  0  0  0  0
  8  2  1  0  0  0  0
  9 13  1  0  0  0  0
  9 10  1  0  0  0  0
 10 11  1  0  0  0  0
 11 28  1  0  0  0  0
 12 13  1  0  0  0  0
 13  8  1  0  0  0  0
 14  9  1  0  0  0  0
 15 14  1  0  0  0  0
 16 15  1  0  0  0  0
 16 18  2  0  0  0  0
 17 16  2  0  0  0  0
 19 20  1  0  0  0  0
 19 16  1  0  0  0  0
 20 22  1  0  0  0  0
 21 20  2  0  0  0  0
 22 24  1  0  0  0  0
 23 24  1  0  0  0  0
 24 25  1  0  0  0  0
 25 27  1  0  0  0  0
 26 27  1  0  0  0  0
 28 29  1  0  0  0  0
 30 29  1  0  0  0  0
 31 30  1  0  0  0  0
 32 31  2  0  0  0  0
 33 34  1  0  0  0  0
 34 35  1  0  0  0  0
 35 40  1  0  0  0  0
 36 38  1  0  0  0  0
 37 36  2  0  0  0  0
 39 37  1  0  0  0  0
 39 40  2  0  0  0  0
 40 41  1  0  0  0  0
 41 38  2  0  0  0  0
 42 37  1  0  0  0  0
 43 42  1  0  0  0  0
 43 44  1  0  0  0  0
 45 43  1  0  0  0  0
 46 43  2  0  0  0  0
 47  6  1  0  0  0  0
 48 52  2  0  0  0  0
 49 50  1  0  0  0  0
 49 48  1  0  0  0  0
 51 52  1  0  0  0  0
 52 53  1  0  0  0  0
 53 47  1  0  0  0  0
 54 50  1  0  0  0  0
 54 51  1  0  0  0  0
 54 56  1  0  0  0  0
 55 56  1  0  0  0  0
 55 58  1  0  0  0  0
 57 55  1  0  0  0  0
 57 56  1  0  0  0  0
M  END
>  <MODEL>
2

>  <REMARK>
 VINA RESULT:      -6.9      2.795      6.369
  Name = 
  23 active torsions:
  status: ('A' for Active; 'I' for Inactive)
    1  A    between atoms: C_2  and  C_9
    2  A    between atoms: C_4  and  C_51
    3  A    between atoms: P_5  and  O_49
    4  A    between atoms: N_10  and  S_11
    5  A    between atoms: N_10  and  C_51
    6  A    between atoms: S_11  and  C_15
    7  A    between atoms: C_12  and  O_49
    8  A    between atoms: C_15  and  C_22
    9  A    between atoms: C_16  and  N_30
   10  A    between atoms: C_16  and  C_32
   11  A    between atoms: C_18  and  C_29
   12  A    between atoms: C_18  and  C_48
   13  A    between atoms: C_20  and  O_38
   14  A    between atoms: C_22  and  O_35
   15  A    between atoms: C_24  and  C_42
   16  A    between atoms: C_24  and  C_54
   17  A    between atoms: C_31  and  N_47
   18  A    between atoms: C_32  and  O_38
   19  A    between atoms: C_33  and  C_54
   20  A    between atoms: O_35  and  C_48
   21  A    between atoms: C_42  and  C_55
   22  A    between atoms: N_46  and  C_53
   23  A    between atoms: C_52  and  C_53
                            x       y       z     vdW  Elec       q    Type
                         _______ _______ _______ _____ _____    ______ ____

>  <TORSDO>
F 23

$$$$
=
 OpenBabel10232409593D

 58 63  0  0  1  0  0  0  0  0999 V2000
  190.1160  176.5790  141.7560 C   0  0  0  0  0  0  0  0  0  0  0  0
  189.4060  176.7900  140.4700 C   0  0  1  0  0  3  0  0  0  0  0  0
  190.4500  175.4710  142.1260 O   0  0  0  0  0  0  0  0  0  0  0  0
  187.5680  177.8350  141.8750 C   0  0  2  0  0  3  0  0  0  0  0  0
  188.8670  178.6050  142.0600 C   0  0  1  0  0  3  0  0  0  0  0  0
  189.8950  177.6890  142.7160 C   0  0  2  0  0  3  0  0  0  0  0  0
  188.5220  178.0200  140.7040 C   0  0  1  0  0  3  0  0  0  0  0  0
  190.3700  177.0710  139.3170 C   0  0  2  0  0  3  0  0  0  0  0  0
  191.9750  176.3060  137.8260 C   0  0  2  0  0  3  0  0  0  0  0  0
  190.8900  176.9170  137.1440 O   0  0  0  0  0  0  0  0  0  0  0  0
  189.8050  176.8530  137.9780 N   0  0  0  0  0  0  0  0  0  0  0  0
  192.6120  177.0390  140.0660 O   0  0  0  0  0  1  0  0  0  0  0  0
  191.6620  176.3180  139.3260 C   0  0  1  0  0  3  0  0  0  0  0  0
  193.2870  176.9820  137.4360 C   0  0  0  0  0  2  0  0  0  0  0  0
  194.2110  175.9950  136.8830 N   0  0  0  0  0  2  0  0  0  0  0  0
  194.7410  176.5950  135.3400 S   0  0  0  0  0  0  0  0  0  0  0  0
  195.2800  177.9950  135.4860 O   0  0  0  0  0  0  0  0  0  0  0  0
  193.5770  176.6130  134.3850 O   0  0  0  0  0  0  0  0  0  0  0  0
  195.9980  175.5240  134.6720 C   0  0  0  0  0  2  0  0  0  0  0  0
  196.9780  175.1250  135.7280 C   0  0  0  0  0  0  0  0  0  0  0  0
  197.5050  176.0120  136.4450 O   0  0  0  0  0  0  0  0  0  0  0  0
  197.3160  173.7840  135.9610 O   0  0  0  0  0  0  0  0  0  0  0  0
  199.1040  172.8880  137.3440 C   0  0  0  0  0  1  0  0  0  0  0  0
  197.6230  173.2100  137.2350 C   0  0  2  0  0  3  0  0  0  0  0  0
  196.7380  172.0070  137.5260 C   0  0  0  0  0  2  0  0  0  0  0  0
  195.6020  173.5310  139.0580 N   0  0  0  0  0  1  0  0  0  0  0  0
  195.4040  172.4340  138.1300 C   0  0  0  0  0  2  0  0  0  0  0  0
  189.2060  175.5170  137.8030 C   0  0  0  0  0  2  0  0  0  0  0  0
  188.0290  175.5350  136.8310 C   0  0  0  0  0  2  0  0  0  0  0  0
  186.9550  174.7850  137.3830 O   0  0  0  0  0  0  0  0  0  0  0  0
  185.6490  174.8450  136.8840 C   0  0  0  0  0  3  0  0  0  0  0  0
  184.9270  173.8090  136.7970 O   0  0  0  0  0  0  0  0  0  0  0  0
  186.3640  178.7540  141.6930 C   0  0  0  0  0  2  0  0  0  0  0  0
  185.2290  178.2110  142.5420 C   0  0  0  0  0  2  0  0  0  0  0  0
  184.2630  179.3210  142.9250 C   0  0  0  0  0  2  0  0  0  0  0  0
  180.1200  178.2660  142.4850 C   0  0  0  0  0  3  0  0  0  0  0  0
  180.9750  178.1630  141.3750 C   0  0  0  0  0  0  0  0  0  0  0  0
  180.6070  178.6950  143.7220 C   0  0  0  0  0  3  0  0  0  0  0  0
  182.3270  178.5000  141.5260 C   0  0  0  0  0  3  0  0  0  0  0  0
  182.8270  178.9140  142.7670 C   0  0  0  0  0  0  0  0  0  0  0  0
  181.9590  179.0190  143.8630 C   0  0  0  0  0  3  0  0  0  0  0  0
  180.5240  177.7290  140.1240 O   0  0  0  0  0  0  0  0  0  0  0  0
  180.8740  176.1710  139.4780 P   0  0  0  0  0  0  0  0  0  0  0  0
  180.1120  174.9710  140.3930 O   0  0  0  0  0  1  0  0  0  0  0  0
  182.3670  175.9360  139.4840 O   0  0  0  0  0  1  0  0  0  0  0  0
  180.3060  176.1000  137.8840 O   0  0  0  0  0  0  0  0  0  0  0  0
  191.1690  178.4540  143.0150 C   0  0  0  0  0  2  0  0  0  0  0  0
  191.9020  177.2090  145.5640 N   0  0  0  0  0  0  0  0  0  0  0  0
  191.8590  176.2650  146.6610 C   0  0  0  0  0  2  0  0  0  0  0  0
  190.4010  175.9610  146.9430 C   0  0  0  0  0  2  0  0  0  0  0  0
  190.0100  178.4000  146.5630 C   0  0  0  0  0  2  0  0  0  0  0  0
  191.0620  178.1960  145.4930 C   0  0  0  0  0  0  0  0  0  0  0  0
  191.0480  179.0430  144.3420 N   0  0  0  0  0  2  0  0  0  0  0  0
  189.6860  177.1930  147.3490 N   0  0  1  0  0  0  0  0  0  0  0  0
  187.5370  178.4360  147.5900 C   0  0  2  0  0  3  0  0  0  0  0  0
  188.2080  177.0850  147.4040 C   0  0  2  0  0  3  0  0  0  0  0  0
  187.6040  177.4640  148.7520 C   0  0  0  0  0  2  0  0  0  0  0  0
  186.1540  178.3820  146.9830 C   0  0  0  0  0  1  0  0  0  0  0  0
  1  3  2  0  0  0  0
  1  6  1  0  0  0  0
  2  7  1  0  0  0  0
  2  1  1  1  0  0  0
  4 33  1  6  0  0  0
  4  5  1  0  0  0  0
  5  6  1  0  0  0  0
  6 47  1  0  0  0  0
  7  4  1  0  0  0  0
  7  5  1  0  0  0  0
  8 13  1  0  0  0  0
  8  2  1  0  0  0  0
  9 13  1  0  0  0  0
 10  9  1  0  0  0  0
 10 11  1  0  0  0  0
 11  8  1  0  0  0  0
 13 12  1  0  0  0  0
 14  9  1  0  0  0  0
 15 14  1  0  0  0  0
 16 17  2  0  0  0  0
 16 15  1  0  0  0  0
 18 16  2  0  0  0  0
 19 16  1  0  0  0  0
 19 20  1  0  0  0  0
 20 22  1  0  0  0  0
 20 21  2  0  0  0  0
 22 24  1  0  0  0  0
 24 23  1  0  0  0  0
 24 25  1  0  0  0  0
 25 27  1  0  0  0  0
 27 26  1  0  0  0  0
 28 11  1  0  0  0  0
 29 30  1  0  0  0  0
 29 28  1  0  0  0  0
 31 30  1  0  0  0  0
 32 31  2  0  0  0  0
 33 34  1  0  0  0  0
 34 35  1  0  0  0  0
 36 38  1  0  0  0  0
 37 39  1  0  0  0  0
 37 36  2  0  0  0  0
 38 41  2  0  0  0  0
 39 40  2  0  0  0  0
 40 35  1  0  0  0  0
 40 41  1  0  0  0  0
 42 37  1  0  0  0  0
 43 45  1  0  0  0  0
 43 42  1  0  0  0  0
 43 44  1  0  0  0  0
 46 43  2  0  0  0  0
 47 53  1  0  0  0  0
 48 49  1  0  0  0  0
 49 50  1  0  0  0  0
 50 54  1  0  0  0  0
 51 54  1  0  0  0  0
 52 48  2  0  0  0  0
 52 51  1  0  0  0  0
 53 52  1  0  0  0  0
 54 56  1  0  0  0  0
 55 57  1  0  0  0  0
 56 55  1  0  0  0  0
 56 57  1  0  0  0  0
 58 55  1  0  0  0  0
M  END
>  <MODEL>
3

>  <REMARK>
 VINA RESULT:      -6.5      3.957      9.083
  Name = 
  23 active torsions:
  status: ('A' for Active; 'I' for Inactive)
    1  A    between atoms: C_2  and  C_9
    2  A    between atoms: C_4  and  C_51
    3  A    between atoms: P_5  and  O_49
    4  A    between atoms: N_10  and  S_11
    5  A    between atoms: N_10  and  C_51
    6  A    between atoms: S_11  and  C_15
    7  A    between atoms: C_12  and  O_49
    8  A    between atoms: C_15  and  C_22
    9  A    between atoms: C_16  and  N_30
   10  A    between atoms: C_16  and  C_32
   11  A    between atoms: C_18  and  C_29
   12  A    between atoms: C_18  and  C_48
   13  A    between atoms: C_20  and  O_38
   14  A    between atoms: C_22  and  O_35
   15  A    between atoms: C_24  and  C_42
   16  A    between atoms: C_24  and  C_54
   17  A    between atoms: C_31  and  N_47
   18  A    between atoms: C_32  and  O_38
   19  A    between atoms: C_33  and  C_54
   20  A    between atoms: O_35  and  C_48
   21  A    between atoms: C_42  and  C_55
   22  A    between atoms: N_46  and  C_53
   23  A    between atoms: C_52  and  C_53
                            x       y       z     vdW  Elec       q    Type
                         _______ _______ _______ _____ _____    ______ ____

>  <TORSDO>
F 23

$$$$
=
 OpenBabel10232409593D

 58 63  0  0  1  0  0  0  0  0999 V2000
  189.0230  177.9360  138.0280 C   0  0  0  0  0  0  0  0  0  0  0  0
  189.9460  176.8640  138.4780 C   0  0  1  0  0  3  0  0  0  0  0  0
  189.3460  178.7390  137.1750 O   0  0  0  0  0  0  0  0  0  0  0  0
  189.6820  177.8700  140.7940 C   0  0  2  0  0  3  0  0  0  0  0  0
  188.3300  177.4150  140.2660 C   0  0  1  0  0  3  0  0  0  0  0  0
  187.9760  178.2430  139.0340 C   0  0  2  0  0  3  0  0  0  0  0  0
  189.5750  176.6120  139.9430 C   0  0  1  0  0  3  0  0  0  0  0  0
  189.7640  175.5720  137.6800 C   0  0  2  0  0  3  0  0  0  0  0  0
  190.1070  174.3670  135.7270 C   0  0  2  0  0  3  0  0  0  0  0  0
  190.6070  173.6670  136.8560 O   0  0  0  0  0  0  0  0  0  0  0  0
  190.8570  174.6010  137.8280 N   0  0  0  0  0  0  0  0  0  0  0  0
  188.1960  175.8720  135.9370 O   0  0  0  0  0  1  0  0  0  0  0  0
  189.5640  175.7180  136.2060 C   0  0  1  0  0  3  0  0  0  0  0  0
  189.1010  173.4990  134.9750 C   0  0  0  0  0  2  0  0  0  0  0  0
  188.6150  172.4320  135.8470 N   0  0  0  0  0  2  0  0  0  0  0  0
  186.8810  172.5400  135.8750 S   0  0  0  0  0  0  0  0  0  0  0  0
  186.2720  171.1940  135.5720 O   0  0  0  0  0  0  0  0  0  0  0  0
  186.4250  173.5300  134.8360 O   0  0  0  0  0  0  0  0  0  0  0  0
  186.3340  173.1100  137.4720 C   0  0  0  0  0  2  0  0  0  0  0  0
  184.8410  173.1110  137.5580 C   0  0  0  0  0  0  0  0  0  0  0  0
  184.2160  172.0320  137.4090 O   0  0  0  0  0  0  0  0  0  0  0  0
  184.1120  174.2790  137.8230 O   0  0  0  0  0  0  0  0  0  0  0  0
  181.7070  174.4160  137.4940 C   0  0  0  0  0  1  0  0  0  0  0  0
  183.0820  174.8270  136.9940 C   0  0  2  0  0  3  0  0  0  0  0  0
  183.3050  174.4750  135.5310 C   0  0  0  0  0  2  0  0  0  0  0  0
  184.6240  176.5260  135.4310 N   0  0  0  0  0  1  0  0  0  0  0  0
  183.6640  175.7100  134.7130 C   0  0  0  0  0  2  0  0  0  0  0  0
  192.1890  175.1670  137.5480 C   0  0  0  0  0  2  0  0  0  0  0  0
  193.2680  174.0900  137.4590 C   0  0  0  0  0  2  0  0  0  0  0  0
  194.3550  174.5800  136.6870 O   0  0  0  0  0  0  0  0  0  0  0  0
  194.3950  175.8790  136.1660 C   0  0  0  0  0  3  0  0  0  0  0  0
  195.4890  176.4980  136.0220 O   0  0  0  0  0  0  0  0  0  0  0  0
  189.9040  177.4750  142.2500 C   0  0  0  0  0  2  0  0  0  0  0  0
  191.3890  177.5900  142.5440 C   0  0  0  0  0  2  0  0  0  0  0  0
  191.6290  178.4220  143.7940 C   0  0  0  0  0  2  0  0  0  0  0  0
  189.7580  176.8420  147.3260 C   0  0  0  0  0  3  0  0  0  0  0  0
  189.0880  177.8230  146.5750 C   0  0  0  0  0  0  0  0  0  0  0  0
  191.0120  176.3730  146.9260 C   0  0  0  0  0  3  0  0  0  0  0  0
  189.6990  178.3290  145.4200 C   0  0  0  0  0  3  0  0  0  0  0  0
  190.9480  177.8520  145.0040 C   0  0  0  0  0  0  0  0  0  0  0  0
  191.6070  176.8780  145.7670 C   0  0  0  0  0  3  0  0  0  0  0  0
  187.8280  178.3090  146.9390 O   0  0  0  0  0  0  0  0  0  0  0  0
  186.4190  178.1140  145.9680 P   0  0  0  0  0  0  0  0  0  0  0  0
  186.6940  178.7110  144.4100 O   0  0  0  0  0  0  0  0  0  0  0  0
  185.2590  178.8550  146.5920 O   0  0  0  0  0  1  0  0  0  0  0  0
  186.0430  176.4660  145.8740 O   0  0  0  0  0  1  0  0  0  0  0  0
  186.5860  177.8910  138.5430 C   0  0  0  0  0  2  0  0  0  0  0  0
  184.7770  178.6950  140.7020 N   0  0  0  0  0  0  0  0  0  0  0  0
  183.6390  178.6340  141.5970 C   0  0  0  0  0  2  0  0  0  0  0  0
  182.4470  178.1650  140.7860 C   0  0  0  0  0  2  0  0  0  0  0  0
  183.3230  179.6530  138.9800 C   0  0  0  0  0  2  0  0  0  0  0  0
  184.6580  179.1550  139.4950 C   0  0  0  0  0  0  0  0  0  0  0  0
  185.7650  179.0950  138.5940 N   0  0  0  0  0  2  0  0  0  0  0  0
  182.1480  179.1290  139.7040 N   0  0  1  0  0  0  0  0  0  0  0  0
  181.5450  179.1170  137.2830 C   0  0  2  0  0  3  0  0  0  0  0  0
  181.1730  178.6650  138.6860 C   0  0  2  0  0  3  0  0  0  0  0  0
  180.3940  179.7870  138.0090 C   0  0  0  0  0  2  0  0  0  0  0  0
  180.9860  178.1270  136.2870 C   0  0  0  0  0  1  0  0  0  0  0  0
  1  6  1  0  0  0  0
  2  1  1  6  0  0  0
  2  7  1  0  0  0  0
  3  1  2  0  0  0  0
  4 33  1  1  0  0  0
  5  4  1  0  0  0  0
  6  5  1  0  0  0  0
  7  5  1  0  0  0  0
  7  4  1  0  0  0  0
  8 11  1  0  0  0  0
  8  2  1  0  0  0  0
  9 13  1  0  0  0  0
  9 10  1  0  0  0  0
 10 11  1  0  0  0  0
 12 13  1  0  0  0  0
 13  8  1  0  0  0  0
 14  9  1  0  0  0  0
 14 15  1  0  0  0  0
 15 16  1  0  0  0  0
 16 19  1  0  0  0  0
 17 16  2  0  0  0  0
 18 16  2  0  0  0  0
 19 20  1  0  0  0  0
 20 22  1  0  0  0  0
 21 20  2  0  0  0  0
 24 23  1  0  0  0  0
 24 22  1  0  0  0  0
 25 24  1  0  0  0  0
 27 26  1  0  0  0  0
 27 25  1  0  0  0  0
 28 11  1  0  0  0  0
 29 28  1  0  0  0  0
 30 29  1  0  0  0  0
 31 30  1  0  0  0  0
 32 31  2  0  0  0  0
 33 34  1  0  0  0  0
 34 35  1  0  0  0  0
 35 40  1  0  0  0  0
 37 42  1  0  0  0  0
 37 36  2  0  0  0  0
 38 36  1  0  0  0  0
 39 37  1  0  0  0  0
 40 39  2  0  0  0  0
 40 41  1  0  0  0  0
 41 38  2  0  0  0  0
 43 45  1  0  0  0  0
 43 42  1  0  0  0  0
 44 43  2  0  0  0  0
 46 43  1  0  0  0  0
 47 53  1  0  0  0  0
 47  6  1  0  0  0  0
 48 49  1  0  0  0  0
 50 49  1  0  0  0  0
 51 52  1  0  0  0  0
 51 54  1  0  0  0  0
 52 48  2  0  0  0  0
 53 52  1  0  0  0  0
 54 50  1  0  0  0  0
 55 57  1  0  0  0  0
 55 56  1  0  0  0  0
 56 54  1  0  0  0  0
 57 56  1  0  0  0  0
 58 55  1  0  0  0  0
M  END
>  <MODEL>
4

>  <REMARK>
 VINA RESULT:      -6.3      1.624      2.053
  Name = 
  23 active torsions:
  status: ('A' for Active; 'I' for Inactive)
    1  A    between atoms: C_2  and  C_9
    2  A    between atoms: C_4  and  C_51
    3  A    between atoms: P_5  and  O_49
    4  A    between atoms: N_10  and  S_11
    5  A    between atoms: N_10  and  C_51
    6  A    between atoms: S_11  and  C_15
    7  A    between atoms: C_12  and  O_49
    8  A    between atoms: C_15  and  C_22
    9  A    between atoms: C_16  and  N_30
   10  A    between atoms: C_16  and  C_32
   11  A    between atoms: C_18  and  C_29
   12  A    between atoms: C_18  and  C_48
   13  A    between atoms: C_20  and  O_38
   14  A    between atoms: C_22  and  O_35
   15  A    between atoms: C_24  and  C_42
   16  A    between atoms: C_24  and  C_54
   17  A    between atoms: C_31  and  N_47
   18  A    between atoms: C_32  and  O_38
   19  A    between atoms: C_33  and  C_54
   20  A    between atoms: O_35  and  C_48
   21  A    between atoms: C_42  and  C_55
   22  A    between atoms: N_46  and  C_53
   23  A    between atoms: C_52  and  C_53
                            x       y       z     vdW  Elec       q    Type
                         _______ _______ _______ _____ _____    ______ ____

>  <TORSDO>
F 23

$$$$
=
 OpenBabel10232409593D

 58 63  0  0  1  0  0  0  0  0999 V2000
  184.8650  179.0900  139.9890 C   0  0  0  0  0  0  0  0  0  0  0  0
  186.0050  178.9150  140.9230 C   0  0  1  0  0  3  0  0  0  0  0  0
  184.8010  180.0370  139.2300 O   0  0  0  0  0  0  0  0  0  0  0  0
  184.2570  178.9490  142.7630 C   0  0  2  0  0  3  0  0  0  0  0  0
  183.9870  177.7950  141.8090 C   0  0  1  0  0  3  0  0  0  0  0  0
  183.6510  178.3610  140.4320 C   0  0  2  0  0  3  0  0  0  0  0  0
  185.4150  178.1870  142.1350 C   0  0  1  0  0  3  0  0  0  0  0  0
  187.1230  178.0660  140.3160 C   0  0  2  0  0  3  0  0  0  0  0  0
  189.2680  177.9180  139.4440 C   0  0  2  0  0  3  0  0  0  0  0  0
  189.0920  177.0160  140.5260 O   0  0  0  0  0  0  0  0  0  0  0  0
  188.0690  177.5080  141.2940 N   0  0  0  0  0  0  0  0  0  0  0  0
  187.3870  178.5370  138.0160 O   0  0  0  0  0  1  0  0  0  0  0  0
  187.9740  178.7220  139.2770 C   0  0  1  0  0  3  0  0  0  0  0  0
  189.7200  177.1600  138.1980 C   0  0  0  0  0  2  0  0  0  0  0  0
  190.9680  176.4500  138.4730 N   0  0  0  0  0  2  0  0  0  0  0  0
  191.0810  175.1470  137.3280 S   0  0  0  0  0  0  0  0  0  0  0  0
  191.0350  175.6880  135.9210 O   0  0  0  0  0  0  0  0  0  0  0  0
  189.9250  174.2040  137.5290 O   0  0  0  0  0  0  0  0  0  0  0  0
  192.5950  174.2440  137.5840 C   0  0  0  0  0  2  0  0  0  0  0  0
  193.7730  175.0210  137.0910 C   0  0  0  0  0  0  0  0  0  0  0  0
  194.3420  175.8320  137.8650 O   0  0  0  0  0  0  0  0  0  0  0  0
  194.2810  174.8590  135.7950 O   0  0  0  0  0  0  0  0  0  0  0  0
  195.6190  172.9760  136.5530 C   0  0  0  0  0  1  0  0  0  0  0  0
  195.2260  173.8660  135.3860 C   0  0  2  0  0  3  0  0  0  0  0  0
  196.4270  174.4960  134.6980 C   0  0  0  0  0  2  0  0  0  0  0  0
  197.1870  176.4930  135.8780 N   0  0  0  0  0  1  0  0  0  0  0  0
  197.4090  175.0700  135.7140 C   0  0  0  0  0  2  0  0  0  0  0  0
  188.6530  178.5220  142.1910 C   0  0  0  0  0  2  0  0  0  0  0  0
  189.8130  177.9660  143.0140 C   0  0  0  0  0  2  0  0  0  0  0  0
  190.9750  178.7460  142.7720 O   0  0  0  0  0  0  0  0  0  0  0  0
  191.7820  179.2510  143.7990 C   0  0  0  0  0  3  0  0  0  0  0  0
  192.1310  178.5300  144.7780 O   0  0  0  0  0  0  0  0  0  0  0  0
  184.1220  178.5410  144.2260 C   0  0  0  0  0  2  0  0  0  0  0  0
  185.4090  178.9180  144.9380 C   0  0  0  0  0  2  0  0  0  0  0  0
  185.3310  178.5670  146.4150 C   0  0  0  0  0  2  0  0  0  0  0  0
  189.1490  177.7320  148.2050 C   0  0  0  0  0  3  0  0  0  0  0  0
  188.9160  177.3450  146.8740 C   0  0  0  0  0  0  0  0  0  0  0  0
  188.1590  178.3910  148.9380 C   0  0  0  0  0  3  0  0  0  0  0  0
  187.6720  177.6270  146.2930 C   0  0  0  0  0  3  0  0  0  0  0  0
  186.6820  178.3030  147.0150 C   0  0  0  0  0  0  0  0  0  0  0  0
  186.9270  178.6750  148.3450 C   0  0  0  0  0  3  0  0  0  0  0  0
  189.8860  176.6920  146.1070 O   0  0  0  0  0  0  0  0  0  0  0  0
  191.3130  175.9960  146.7750 P   0  0  0  0  0  0  0  0  0  0  0  0
  190.9130  174.7680  147.8660 O   0  0  0  0  0  1  0  0  0  0  0  0
  192.1170  177.0590  147.4880 O   0  0  0  0  0  1  0  0  0  0  0  0
  192.2430  175.3430  145.5190 O   0  0  0  0  0  0  0  0  0  0  0  0
  183.2700  177.2440  139.4810 C   0  0  0  0  0  2  0  0  0  0  0  0
  182.8010  176.3400  136.7350 N   0  0  0  0  0  0  0  0  0  0  0  0
  182.4970  175.4250  135.6530 C   0  0  0  0  0  2  0  0  0  0  0  0
  183.1960  174.1150  135.9540 C   0  0  0  0  0  2  0  0  0  0  0  0
  185.1100  175.5260  136.7240 C   0  0  0  0  0  2  0  0  0  0  0  0
  183.9910  176.4020  137.2470 C   0  0  0  0  0  0  0  0  0  0  0  0
  184.2360  177.2240  138.3900 N   0  0  0  0  0  2  0  0  0  0  0  0
  184.6620  174.3140  136.0100 N   0  0  1  0  0  0  0  0  0  0  0  0
  186.4520  172.6390  135.5430 C   0  0  2  0  0  3  0  0  0  0  0  0
  185.4420  173.1710  136.5470 C   0  0  2  0  0  3  0  0  0  0  0  0
  185.1890  171.8500  135.8300 C   0  0  0  0  0  2  0  0  0  0  0  0
  187.6040  172.0120  136.2940 C   0  0  0  0  0  1  0  0  0  0  0  0
  1  6  1  0  0  0  0
  2  1  1  6  0  0  0
  2  7  1  0  0  0  0
  3  1  2  0  0  0  0
  4 33  1  1  0  0  0
  5  7  1  0  0  0  0
  5  4  1  0  0  0  0
  6  5  1  0  0  0  0
  7  4  1  0  0  0  0
  8  2  1  0  0  0  0
  8 11  1  0  0  0  0
  9 10  1  0  0  0  0
 10 11  1  0  0  0  0
 11 28  1  0  0  0  0
 12 13  1  0  0  0  0
 13  9  1  0  0  0  0
 13  8  1  0  0  0  0
 14 15  1  0  0  0  0
 14  9  1  0  0  0  0
 16 18  2  0  0  0  0
 16 19  1  0  0  0  0
 16 15  1  0  0  0  0
 17 16  2  0  0  0  0
 20 19  1  0  0  0  0
 20 21  2  0  0  0  0
 22 20  1  0  0  0  0
 24 22  1  0  0  0  0
 24 23  1  0  0  0  0
 25 24  1  0  0  0  0
 25 27  1  0  0  0  0
 27 26  1  0  0  0  0
 28 29  1  0  0  0  0
 30 29  1  0  0  0  0
 30 31  1  0  0  0  0
 31 32  2  0  0  0  0
 33 34  1  0  0  0  0
 34 35  1  0  0  0  0
 35 40  1  0  0  0  0
 36 38  1  0  0  0  0
 37 36  2  0  0  0  0
 39 37  1  0  0  0  0
 39 40  2  0  0  0  0
 40 41  1  0  0  0  0
 41 38  2  0  0  0  0
 42 43  1  0  0  0  0
 42 37  1  0  0  0  0
 43 45  1  0  0  0  0
 43 44  1  0  0  0  0
 46 43  2  0  0  0  0
 47  6  1  0  0  0  0
 48 52  2  0  0  0  0
 49 50  1  0  0  0  0
 49 48  1  0  0  0  0
 50 54  1  0  0  0  0
 51 52  1  0  0  0  0
 52 53  1  0  0  0  0
 53 47  1  0  0  0  0
 54 56  1  0  0  0  0
 54 51  1  0  0  0  0
 55 57  1  0  0  0  0
 55 58  1  0  0  0  0
 55 56  1  0  0  0  0
 57 56  1  0  0  0  0
M  END
>  <MODEL>
5

>  <REMARK>
 VINA RESULT:      -6.2      2.953      7.232
  Name = 
  23 active torsions:
  status: ('A' for Active; 'I' for Inactive)
    1  A    between atoms: C_2  and  C_9
    2  A    between atoms: C_4  and  C_51
    3  A    between atoms: P_5  and  O_49
    4  A    between atoms: N_10  and  S_11
    5  A    between atoms: N_10  and  C_51
    6  A    between atoms: S_11  and  C_15
    7  A    between atoms: C_12  and  O_49
    8  A    between atoms: C_15  and  C_22
    9  A    between atoms: C_16  and  N_30
   10  A    between atoms: C_16  and  C_32
   11  A    between atoms: C_18  and  C_29
   12  A    between atoms: C_18  and  C_48
   13  A    between atoms: C_20  and  O_38
   14  A    between atoms: C_22  and  O_35
   15  A    between atoms: C_24  and  C_42
   16  A    between atoms: C_24  and  C_54
   17  A    between atoms: C_31  and  N_47
   18  A    between atoms: C_32  and  O_38
   19  A    between atoms: C_33  and  C_54
   20  A    between atoms: O_35  and  C_48
   21  A    between atoms: C_42  and  C_55
   22  A    between atoms: N_46  and  C_53
   23  A    between atoms: C_52  and  C_53
                            x       y       z     vdW  Elec       q    Type
                         _______ _______ _______ _____ _____    ______ ____

>  <TORSDO>
F 23

$$$$
=
 OpenBabel10232409593D

 58 63  0  0  1  0  0  0  0  0999 V2000
  189.2960  177.5420  137.0310 C   0  0  0  0  0  0  0  0  0  0  0  0
  188.2990  176.5220  136.6240 C   0  0  1  0  0  3  0  0  0  0  0  0
  189.3830  178.6120  136.4610 O   0  0  0  0  0  0  0  0  0  0  0  0
  190.2920  174.9940  136.2580 C   0  0  2  0  0  3  0  0  0  0  0  0
  190.2390  175.4430  137.7110 C   0  0  1  0  0  3  0  0  0  0  0  0
  190.4420  176.9540  137.7680 C   0  0  2  0  0  3  0  0  0  0  0  0
  188.9520  175.1760  136.9560 C   0  0  1  0  0  3  0  0  0  0  0  0
  186.9880  176.6540  137.4000 C   0  0  2  0  0  3  0  0  0  0  0  0
  184.8820  177.6050  137.6160 C   0  0  2  0  0  3  0  0  0  0  0  0
  184.8070  176.1880  137.6160 O   0  0  0  0  0  0  0  0  0  0  0  0
  185.9280  175.7270  136.9760 N   0  0  0  0  0  0  0  0  0  0  0  0
  186.8560  178.7500  138.4840 O   0  0  0  0  0  1  0  0  0  0  0  0
  186.3470  178.0050  137.4090 C   0  0  1  0  0  3  0  0  0  0  0  0
  184.2350  178.1650  138.8800 C   0  0  0  0  0  2  0  0  0  0  0  0
  183.0190  177.4150  139.1900 N   0  0  0  0  0  2  0  0  0  0  0  0
  181.7460  178.5740  139.4270 S   0  0  0  0  0  0  0  0  0  0  0  0
  180.8770  178.6480  138.1970 O   0  0  0  0  0  0  0  0  0  0  0  0
  182.3470  179.9300  139.6860 O   0  0  0  0  0  0  0  0  0  0  0  0
  180.7630  178.1160  140.8410 C   0  0  0  0  0  2  0  0  0  0  0  0
  181.0420  179.0160  142.0010 C   0  0  0  0  0  0  0  0  0  0  0  0
  180.5460  180.1700  142.0170 O   0  0  0  0  0  0  0  0  0  0  0  0
  181.8250  178.6060  143.0900 O   0  0  0  0  0  0  0  0  0  0  0  0
  184.1950  178.7890  142.5780 C   0  0  0  0  0  1  0  0  0  0  0  0
  183.0600  179.2010  143.5010 C   0  0  2  0  0  3  0  0  0  0  0  0
  183.3550  178.9050  144.9630 C   0  0  0  0  0  2  0  0  0  0  0  0
  185.4830  179.5340  145.9810 N   0  0  0  0  0  1  0  0  0  0  0  0
  184.8200  178.5330  145.1680 C   0  0  0  0  0  2  0  0  0  0  0  0
  185.6490  175.7750  135.5300 C   0  0  0  0  0  2  0  0  0  0  0  0
  185.2750  174.4050  134.9680 C   0  0  0  0  0  2  0  0  0  0  0  0
  185.9800  173.3990  135.6820 O   0  0  0  0  0  0  0  0  0  0  0  0
  186.6610  172.3520  135.0500 C   0  0  0  0  0  3  0  0  0  0  0  0
  186.2840  171.1500  135.1720 O   0  0  0  0  0  0  0  0  0  0  0  0
  190.5870  173.5040  136.1170 C   0  0  0  0  0  2  0  0  0  0  0  0
  192.0120  173.2630  136.5840 C   0  0  0  0  0  2  0  0  0  0  0  0
  192.9770  173.2940  135.4100 C   0  0  0  0  0  2  0  0  0  0  0  0
  196.8800  171.7330  136.3090 C   0  0  0  0  0  3  0  0  0  0  0  0
  196.3880  172.8200  137.0510 C   0  0  0  0  0  0  0  0  0  0  0  0
  196.1080  171.1550  135.2970 C   0  0  0  0  0  3  0  0  0  0  0  0
  195.1110  173.3200  136.7600 C   0  0  0  0  0  3  0  0  0  0  0  0
  194.3260  172.7350  135.7600 C   0  0  0  0  0  0  0  0  0  0  0  0
  194.8330  171.6560  135.0220 C   0  0  0  0  0  3  0  0  0  0  0  0
  197.1280  173.4180  138.0760 O   0  0  0  0  0  0  0  0  0  0  0  0
  198.4390  174.5000  137.7930 P   0  0  0  0  0  0  0  0  0  0  0  0
  198.2330  175.2970  136.3160 O   0  0  0  0  0  0  0  0  0  0  0  0
  199.7410  173.7340  137.7720 O   0  0  0  0  0  1  0  0  0  0  0  0
  198.4840  175.6430  139.0410 O   0  0  0  0  0  1  0  0  0  0  0  0
  190.5030  177.4250  139.2070 C   0  0  0  0  0  2  0  0  0  0  0  0
  188.5620  177.4370  141.4010 N   0  0  0  0  0  0  0  0  0  0  0  0
  187.9760  177.7950  142.6770 C   0  0  0  0  0  2  0  0  0  0  0  0
  189.1030  177.8850  143.6870 C   0  0  0  0  0  2  0  0  0  0  0  0
  190.0270  175.8530  142.5610 C   0  0  0  0  0  2  0  0  0  0  0  0
  189.5080  176.5520  141.3210 C   0  0  0  0  0  0  0  0  0  0  0  0
  190.1510  176.3040  140.0690 N   0  0  0  0  0  2  0  0  0  0  0  0
  189.7770  176.5740  143.8250 N   0  0  1  0  0  0  0  0  0  0  0  0
  190.8380  176.8570  146.0650 C   0  0  2  0  0  3  0  0  0  0  0  0
  191.0520  176.5880  144.5850 C   0  0  2  0  0  3  0  0  0  0  0  0
  191.4100  177.9450  145.1780 C   0  0  0  0  0  2  0  0  0  0  0  0
  191.9630  176.2170  146.8460 C   0  0  0  0  0  1  0  0  0  0  0  0
  1  6  1  0  0  0  0
  2  7  1  0  0  0  0
  2  1  1  1  0  0  0
  2  8  1  0  0  0  0
  3  1  2  0  0  0  0
  4 33  1  1  0  0  0
  4  7  1  0  0  0  0
  4  5  1  0  0  0  0
  5  6  1  0  0  0  0
  6 47  1  0  0  0  0
  7  5  1  0  0  0  0
  8 13  1  0  0  0  0
  9 10  1  0  0  0  0
  9 14  1  0  0  0  0
 11  8  1  0  0  0  0
 11 10  1  0  0  0  0
 13  9  1  0  0  0  0
 13 12  1  0  0  0  0
 14 15  1  0  0  0  0
 15 16  1  0  0  0  0
 16 18  2  0  0  0  0
 16 19  1  0  0  0  0
 17 16  2  0  0  0  0
 19 20  1  0  0  0  0
 20 21  2  0  0  0  0
 20 22  1  0  0  0  0
 22 24  1  0  0  0  0
 23 24  1  0  0  0  0
 24 25  1  0  0  0  0
 25 27  1  0  0  0  0
 27 26  1  0  0  0  0
 28 11  1  0  0  0  0
 29 28  1  0  0  0  0
 29 30  1  0  0  0  0
 31 32  2  0  0  0  0
 31 30  1  0  0  0  0
 33 34  1  0  0  0  0
 35 40  1  0  0  0  0
 35 34  1  0  0  0  0
 36 37  1  0  0  0  0
 37 42  1  0  0  0  0
 38 36  2  0  0  0  0
 39 37  2  0  0  0  0
 40 39  1  0  0  0  0
 41 38  1  0  0  0  0
 41 40  2  0  0  0  0
 43 42  1  0  0  0  0
 43 46  1  0  0  0  0
 44 43  2  0  0  0  0
 45 43  1  0  0  0  0
 47 53  1  0  0  0  0
 48 49  1  0  0  0  0
 49 50  1  0  0  0  0
 50 54  1  0  0  0  0
 51 54  1  0  0  0  0
 52 48  2  0  0  0  0
 52 51  1  0  0  0  0
 53 52  1  0  0  0  0
 54 56  1  0  0  0  0
 55 58  1  0  0  0  0
 56 57  1  0  0  0  0
 56 55  1  0  0  0  0
 57 55  1  0  0  0  0
M  END
>  <MODEL>
6

>  <REMARK>
 VINA RESULT:      -6.2      3.697      9.832
  Name = 
  23 active torsions:
  status: ('A' for Active; 'I' for Inactive)
    1  A    between atoms: C_2  and  C_9
    2  A    between atoms: C_4  and  C_51
    3  A    between atoms: P_5  and  O_49
    4  A    between atoms: N_10  and  S_11
    5  A    between atoms: N_10  and  C_51
    6  A    between atoms: S_11  and  C_15
    7  A    between atoms: C_12  and  O_49
    8  A    between atoms: C_15  and  C_22
    9  A    between atoms: C_16  and  N_30
   10  A    between atoms: C_16  and  C_32
   11  A    between atoms: C_18  and  C_29
   12  A    between atoms: C_18  and  C_48
   13  A    between atoms: C_20  and  O_38
   14  A    between atoms: C_22  and  O_35
   15  A    between atoms: C_24  and  C_42
   16  A    between atoms: C_24  and  C_54
   17  A    between atoms: C_31  and  N_47
   18  A    between atoms: C_32  and  O_38
   19  A    between atoms: C_33  and  C_54
   20  A    between atoms: O_35  and  C_48
   21  A    between atoms: C_42  and  C_55
   22  A    between atoms: N_46  and  C_53
   23  A    between atoms: C_52  and  C_53
                            x       y       z     vdW  Elec       q    Type
                         _______ _______ _______ _____ _____    ______ ____

>  <TORSDO>
F 23

$$$$
=
 OpenBabel10232409593D

 58 63  0  0  1  0  0  0  0  0999 V2000
  189.9650  176.6080  141.8130 C   0  0  0  0  0  0  0  0  0  0  0  0
  189.2260  176.8190  140.5430 C   0  0  1  0  0  3  0  0  0  0  0  0
  190.2760  175.4960  142.1930 O   0  0  0  0  0  0  0  0  0  0  0  0
  187.4590  177.9410  141.9790 C   0  0  2  0  0  3  0  0  0  0  0  0
  188.7850  178.6750  142.1150 C   0  0  1  0  0  3  0  0  0  0  0  0
  189.8030  177.7400  142.7590 C   0  0  2  0  0  3  0  0  0  0  0  0
  188.3860  178.0780  140.7790 C   0  0  1  0  0  3  0  0  0  0  0  0
  190.1660  177.0510  139.3600 C   0  0  2  0  0  3  0  0  0  0  0  0
  191.7010  176.2130  137.8340 C   0  0  2  0  0  3  0  0  0  0  0  0
  190.6180  176.8510  137.1740 O   0  0  0  0  0  0  0  0  0  0  0  0
  189.5550  176.8340  138.0400 N   0  0  0  0  0  0  0  0  0  0  0  0
  192.4260  176.9540  140.0450 O   0  0  0  0  0  1  0  0  0  0  0  0
  191.4310  176.2560  139.3420 C   0  0  1  0  0  3  0  0  0  0  0  0
  193.0230  176.8400  137.3990 C   0  0  0  0  0  2  0  0  0  0  0  0
  194.0890  175.8420  137.4560 N   0  0  0  0  0  2  0  0  0  0  0  0
  194.2250  175.1430  135.8710 S   0  0  0  0  0  0  0  0  0  0  0  0
  193.4680  175.9770  134.8690 O   0  0  0  0  0  0  0  0  0  0  0  0
  193.6500  173.7520  135.8870 O   0  0  0  0  0  0  0  0  0  0  0  0
  195.9410  175.0350  135.4010 C   0  0  0  0  0  2  0  0  0  0  0  0
  196.8130  174.8420  136.5990 C   0  0  0  0  0  0  0  0  0  0  0  0
  197.6210  175.7480  136.9240 O   0  0  0  0  0  0  0  0  0  0  0  0
  196.7460  173.6850  137.3890 O   0  0  0  0  0  0  0  0  0  0  0  0
  199.0030  172.9050  136.9310 C   0  0  0  0  0  1  0  0  0  0  0  0
  197.5650  172.5220  137.2380 C   0  0  2  0  0  3  0  0  0  0  0  0
  196.9800  171.5650  136.2110 C   0  0  0  0  0  2  0  0  0  0  0  0
  197.1660  169.2670  137.0130 N   0  0  0  0  0  1  0  0  0  0  0  0
  197.7730  170.2630  136.1520 C   0  0  0  0  0  2  0  0  0  0  0  0
  188.9080  175.5170  137.9010 C   0  0  0  0  0  2  0  0  0  0  0  0
  187.7610  175.5400  136.8920 C   0  0  0  0  0  2  0  0  0  0  0  0
  187.7430  174.3130  136.1780 O   0  0  0  0  0  0  0  0  0  0  0  0
  186.9160  173.2390  136.5290 C   0  0  0  0  0  3  0  0  0  0  0  0
  186.4650  173.1100  137.7050 O   0  0  0  0  0  0  0  0  0  0  0  0
  186.2780  178.8920  141.8130 C   0  0  0  0  0  2  0  0  0  0  0  0
  185.0950  178.3030  142.5610 C   0  0  0  0  0  2  0  0  0  0  0  0
  183.7960  178.9510  142.1110 C   0  0  0  0  0  2  0  0  0  0  0  0
  182.7800  177.8300  138.0880 C   0  0  0  0  0  3  0  0  0  0  0  0
  182.9480  176.8270  139.0580 C   0  0  0  0  0  0  0  0  0  0  0  0
  182.9290  179.1770  138.4240 C   0  0  0  0  0  3  0  0  0  0  0  0
  183.2710  177.1980  140.3700 C   0  0  0  0  0  3  0  0  0  0  0  0
  183.4040  178.5470  140.7190 C   0  0  0  0  0  0  0  0  0  0  0  0
  183.2410  179.5360  139.7380 C   0  0  0  0  0  3  0  0  0  0  0  0
  182.7990  175.4680  138.7590 O   0  0  0  0  0  0  0  0  0  0  0  0
  182.9450  174.8250  137.1680 P   0  0  0  0  0  0  0  0  0  0  0  0
  181.5470  175.1480  136.2730 O   0  0  0  0  0  0  0  0  0  0  0  0
  183.1640  173.3320  137.2350 O   0  0  0  0  0  1  0  0  0  0  0  0
  184.2730  175.5490  136.4060 O   0  0  0  0  0  1  0  0  0  0  0  0
  191.1070  178.4710  143.0090 C   0  0  0  0  0  2  0  0  0  0  0  0
  191.9700  177.1240  145.4630 N   0  0  0  0  0  0  0  0  0  0  0  0
  191.9770  176.1400  146.5260 C   0  0  0  0  0  2  0  0  0  0  0  0
  190.5340  175.8470  146.8840 C   0  0  0  0  0  2  0  0  0  0  0  0
  190.1600  178.3040  146.6160 C   0  0  0  0  0  2  0  0  0  0  0  0
  191.1440  178.1240  145.4780 C   0  0  0  0  0  0  0  0  0  0  0  0
  191.0750  179.0130  144.3620 N   0  0  0  0  0  2  0  0  0  0  0  0
  189.8650  177.0730  147.3760 N   0  0  1  0  0  0  0  0  0  0  0  0
  187.6990  178.2950  147.1840 C   0  0  2  0  0  3  0  0  0  0  0  0
  188.3910  176.9830  147.5170 C   0  0  2  0  0  3  0  0  0  0  0  0
  187.8160  177.8520  148.6300 C   0  0  0  0  0  2  0  0  0  0  0  0
  186.3010  177.9990  146.6910 C   0  0  0  0  0  1  0  0  0  0  0  0
  1  3  2  0  0  0  0
  1  6  1  0  0  0  0
  2  7  1  0  0  0  0
  2  1  1  1  0  0  0
  4 33  1  6  0  0  0
  4  5  1  0  0  0  0
  5  6  1  0  0  0  0
  6 47  1  0  0  0  0
  7  4  1  0  0  0  0
  7  5  1  0  0  0  0
  8  2  1  0  0  0  0
  9 13  1  0  0  0  0
 10  9  1  0  0  0  0
 10 11  1  0  0  0  0
 11  8  1  0  0  0  0
 13  8  1  0  0  0  0
 13 12  1  0  0  0  0
 14 15  1  0  0  0  0
 14  9  1  0  0  0  0
 16 18  2  0  0  0  0
 16 15  1  0  0  0  0
 17 16  2  0  0  0  0
 19 16  1  0  0  0  0
 19 20  1  0  0  0  0
 20 21  2  0  0  0  0
 20 22  1  0  0  0  0
 23 24  1  0  0  0  0
 24 22  1  0  0  0  0
 25 24  1  0  0  0  0
 27 25  1  0  0  0  0
 27 26  1  0  0  0  0
 28 11  1  0  0  0  0
 29 28  1  0  0  0  0
 30 31  1  0  0  0  0
 30 29  1  0  0  0  0
 31 32  2  0  0  0  0
 33 34  1  0  0  0  0
 35 34  1  0  0  0  0
 36 38  2  0  0  0  0
 36 37  1  0  0  0  0
 37 39  2  0  0  0  0
 38 41  1  0  0  0  0
 39 40  1  0  0  0  0
 40 35  1  0  0  0  0
 41 40  2  0  0  0  0
 42 37  1  0  0  0  0
 43 45  1  0  0  0  0
 43 42  1  0  0  0  0
 44 43  2  0  0  0  0
 46 43  1  0  0  0  0
 47 53  1  0  0  0  0
 48 52  2  0  0  0  0
 48 49  1  0  0  0  0
 49 50  1  0  0  0  0
 50 54  1  0  0  0  0
 51 54  1  0  0  0  0
 52 51  1  0  0  0  0
 53 52  1  0  0  0  0
 54 56  1  0  0  0  0
 55 56  1  0  0  0  0
 55 57  1  0  0  0  0
 56 57  1  0  0  0  0
 58 55  1  0  0  0  0
M  END
>  <MODEL>
7

>  <REMARK>
 VINA RESULT:      -5.7      3.818      9.237
  Name = 
  23 active torsions:
  status: ('A' for Active; 'I' for Inactive)
    1  A    between atoms: C_2  and  C_9
    2  A    between atoms: C_4  and  C_51
    3  A    between atoms: P_5  and  O_49
    4  A    between atoms: N_10  and  S_11
    5  A    between atoms: N_10  and  C_51
    6  A    between atoms: S_11  and  C_15
    7  A    between atoms: C_12  and  O_49
    8  A    between atoms: C_15  and  C_22
    9  A    between atoms: C_16  and  N_30
   10  A    between atoms: C_16  and  C_32
   11  A    between atoms: C_18  and  C_29
   12  A    between atoms: C_18  and  C_48
   13  A    between atoms: C_20  and  O_38
   14  A    between atoms: C_22  and  O_35
   15  A    between atoms: C_24  and  C_42
   16  A    between atoms: C_24  and  C_54
   17  A    between atoms: C_31  and  N_47
   18  A    between atoms: C_32  and  O_38
   19  A    between atoms: C_33  and  C_54
   20  A    between atoms: O_35  and  C_48
   21  A    between atoms: C_42  and  C_55
   22  A    between atoms: N_46  and  C_53
   23  A    between atoms: C_52  and  C_53
                            x       y       z     vdW  Elec       q    Type
                         _______ _______ _______ _____ _____    ______ ____

>  <TORSDO>
F 23

$$$$
=
 OpenBabel10232409593D

 58 63  0  0  1  0  0  0  0  0999 V2000
  188.6460  178.5330  139.5150 C   0  0  0  0  0  0  0  0  0  0  0  0
  189.5380  177.4180  139.9210 C   0  0  1  0  0  3  0  0  0  0  0  0
  189.0770  179.5250  138.9620 O   0  0  0  0  0  0  0  0  0  0  0  0
  188.6800  177.8400  142.2730 C   0  0  2  0  0  3  0  0  0  0  0  0
  187.5240  177.4740  141.3530 C   0  0  1  0  0  3  0  0  0  0  0  0
  187.3790  178.5570  140.2870 C   0  0  2  0  0  3  0  0  0  0  0  0
  188.8760  176.8150  141.1640 C   0  0  1  0  0  3  0  0  0  0  0  0
  189.6520  176.3460  138.8370 C   0  0  2  0  0  3  0  0  0  0  0  0
  190.1960  175.7590  136.6590 C   0  0  2  0  0  3  0  0  0  0  0  0
  190.9120  174.9700  137.5970 O   0  0  0  0  0  0  0  0  0  0  0  0
  190.9630  175.6840  138.7660 N   0  0  0  0  0  0  0  0  0  0  0  0
  187.9770  176.6250  137.1940 O   0  0  0  0  0  1  0  0  0  0  0  0
  189.3510  176.7730  137.4370 C   0  0  1  0  0  3  0  0  0  0  0  0
  189.4090  174.8590  135.7090 C   0  0  0  0  0  2  0  0  0  0  0  0
  189.4890  173.4710  136.1590 N   0  0  0  0  0  2  0  0  0  0  0  0
  187.9490  172.7350  135.8320 S   0  0  0  0  0  0  0  0  0  0  0  0
  187.9870  171.2710  136.1880 O   0  0  0  0  0  0  0  0  0  0  0  0
  187.6280  172.8760  134.3680 O   0  0  0  0  0  0  0  0  0  0  0  0
  186.6730  173.5570  136.7670 C   0  0  0  0  0  2  0  0  0  0  0  0
  185.3180  173.2200  136.2350 C   0  0  0  0  0  0  0  0  0  0  0  0
  184.9030  172.0370  136.3120 O   0  0  0  0  0  0  0  0  0  0  0  0
  184.4790  174.1900  135.6670 O   0  0  0  0  0  0  0  0  0  0  0  0
  182.4960  175.4900  135.1280 C   0  0  0  0  0  1  0  0  0  0  0  0
  183.1020  174.3980  135.9950 C   0  0  2  0  0  3  0  0  0  0  0  0
  182.9220  174.6630  137.4820 C   0  0  0  0  0  2  0  0  0  0  0  0
  180.6620  174.1720  138.2650 N   0  0  0  0  0  1  0  0  0  0  0  0
  181.5350  175.2230  137.7800 C   0  0  0  0  0  2  0  0  0  0  0  0
  192.0910  176.6260  138.6460 C   0  0  0  0  0  2  0  0  0  0  0  0
  193.2570  176.0330  137.8570 C   0  0  0  0  0  2  0  0  0  0  0  0
  193.7870  174.9230  138.5690 O   0  0  0  0  0  0  0  0  0  0  0  0
  195.1580  174.6540  138.6490 C   0  0  0  0  0  3  0  0  0  0  0  0
  195.8700  175.1250  139.5830 O   0  0  0  0  0  0  0  0  0  0  0  0
  188.6080  177.1210  143.6160 C   0  0  0  0  0  2  0  0  0  0  0  0
  187.1440  176.9160  143.9590 C   0  0  0  0  0  2  0  0  0  0  0  0
  186.7030  177.8870  145.0430 C   0  0  0  0  0  2  0  0  0  0  0  0
  189.3050  177.8000  148.4630 C   0  0  0  0  0  3  0  0  0  0  0  0
  189.8380  177.5430  147.1880 C   0  0  0  0  0  0  0  0  0  0  0  0
  187.9480  178.0930  148.6200 C   0  0  0  0  0  3  0  0  0  0  0  0
  188.9870  177.5810  146.0760 C   0  0  0  0  0  3  0  0  0  0  0  0
  187.6300  177.8910  146.2240 C   0  0  0  0  0  0  0  0  0  0  0  0
  187.1110  178.1380  147.5030 C   0  0  0  0  0  3  0  0  0  0  0  0
  191.1930  177.2550  146.9910 O   0  0  0  0  0  0  0  0  0  0  0  0
  191.8950  175.7190  147.3330 P   0  0  0  0  0  0  0  0  0  0  0  0
  193.1640  175.8870  148.4380 O   0  0  0  0  0  1  0  0  0  0  0  0
  192.4170  175.0990  146.0580 O   0  0  0  0  0  0  0  0  0  0  0  0
  190.7080  174.7110  147.9980 O   0  0  0  0  0  1  0  0  0  0  0  0
  186.1690  178.2820  139.4170 C   0  0  0  0  0  2  0  0  0  0  0  0
  183.9600  178.8660  141.2500 N   0  0  0  0  0  0  0  0  0  0  0  0
  182.6730  178.7140  141.8970 C   0  0  0  0  0  2  0  0  0  0  0  0
  181.6710  178.3180  140.8310 C   0  0  0  0  0  2  0  0  0  0  0  0
  182.8420  179.9770  139.3740 C   0  0  0  0  0  2  0  0  0  0  0  0
  184.0640  179.4380  140.0900 C   0  0  0  0  0  0  0  0  0  0  0  0
  185.3260  179.4710  139.4190 N   0  0  0  0  0  2  0  0  0  0  0  0
  181.5630  179.3790  139.8050 N   0  0  1  0  0  0  0  0  0  0  0  0
  181.4230  179.6150  137.3250 C   0  0  2  0  0  3  0  0  0  0  0  0
  180.8130  179.0090  138.5790 C   0  0  2  0  0  3  0  0  0  0  0  0
  180.1330  180.1830  137.8840 C   0  0  0  0  0  2  0  0  0  0  0  0
  181.0980  178.7270  136.1460 C   0  0  0  0  0  1  0  0  0  0  0  0
  1  6  1  0  0  0  0
  2  1  1  6  0  0  0
  2  7  1  0  0  0  0
  3  1  2  0  0  0  0
  4 33  1  1  0  0  0
  5  4  1  0  0  0  0
  6  5  1  0  0  0  0
  7  5  1  0  0  0  0
  7  4  1  0  0  0  0
  8  2  1  0  0  0  0
  9 13  1  0  0  0  0
  9 10  1  0  0  0  0
 10 11  1  0  0  0  0
 11  8  1  0  0  0  0
 12 13  1  0  0  0  0
 13  8  1  0  0  0  0
 14 15  1  0  0  0  0
 14  9  1  0  0  0  0
 16 15  1  0  0  0  0
 16 17  2  0  0  0  0
 16 19  1  0  0  0  0
 18 16  2  0  0  0  0
 20 21  2  0  0  0  0
 20 19  1  0  0  0  0
 22 24  1  0  0  0  0
 22 20  1  0  0  0  0
 23 24  1  0  0  0  0
 24 25  1  0  0  0  0
 25 27  1  0  0  0  0
 27 26  1  0  0  0  0
 28 11  1  0  0  0  0
 29 30  1  0  0  0  0
 29 28  1  0  0  0  0
 30 31  1  0  0  0  0
 31 32  2  0  0  0  0
 33 34  1  0  0  0  0
 34 35  1  0  0  0  0
 35 40  1  0  0  0  0
 36 38  1  0  0  0  0
 37 36  2  0  0  0  0
 39 40  2  0  0  0  0
 39 37  1  0  0  0  0
 40 41  1  0  0  0  0
 41 38  2  0  0  0  0
 42 37  1  0  0  0  0
 42 43  1  0  0  0  0
 43 46  1  0  0  0  0
 43 44  1  0  0  0  0
 45 43  2  0  0  0  0
 47 53  1  0  0  0  0
 47  6  1  0  0  0  0
 48 49  1  0  0  0  0
 50 49  1  0  0  0  0
 51 54  1  0  0  0  0
 51 52  1  0  0  0  0
 52 48  2  0  0  0  0
 53 52  1  0  0  0  0
 54 50  1  0  0  0  0
 55 57  1  0  0  0  0
 55 56  1  0  0  0  0
 56 54  1  0  0  0  0
 57 56  1  0  0  0  0
 58 55  1  0  0  0  0
M  END
>  <MODEL>
8

>  <REMARK>
 VINA RESULT:      -5.5      2.634      3.193
  Name = 
  23 active torsions:
  status: ('A' for Active; 'I' for Inactive)
    1  A    between atoms: C_2  and  C_9
    2  A    between atoms: C_4  and  C_51
    3  A    between atoms: P_5  and  O_49
    4  A    between atoms: N_10  and  S_11
    5  A    between atoms: N_10  and  C_51
    6  A    between atoms: S_11  and  C_15
    7  A    between atoms: C_12  and  O_49
    8  A    between atoms: C_15  and  C_22
    9  A    between atoms: C_16  and  N_30
   10  A    between atoms: C_16  and  C_32
   11  A    between atoms: C_18  and  C_29
   12  A    between atoms: C_18  and  C_48
   13  A    between atoms: C_20  and  O_38
   14  A    between atoms: C_22  and  O_35
   15  A    between atoms: C_24  and  C_42
   16  A    between atoms: C_24  and  C_54
   17  A    between atoms: C_31  and  N_47
   18  A    between atoms: C_32  and  O_38
   19  A    between atoms: C_33  and  C_54
   20  A    between atoms: O_35  and  C_48
   21  A    between atoms: C_42  and  C_55
   22  A    between atoms: N_46  and  C_53
   23  A    between atoms: C_52  and  C_53
                            x       y       z     vdW  Elec       q    Type
                         _______ _______ _______ _____ _____    ______ ____

>  <TORSDO>
F 23

$$$$
=
 OpenBabel10232409593D

 58 63  0  0  1  0  0  0  0  0999 V2000
  188.9290  178.3590  137.9820 C   0  0  0  0  0  0  0  0  0  0  0  0
  188.5240  177.1750  137.1840 C   0  0  1  0  0  3  0  0  0  0  0  0
  188.8820  179.4830  137.5230 O   0  0  0  0  0  0  0  0  0  0  0  0
  190.8810  176.3270  137.5980 C   0  0  2  0  0  3  0  0  0  0  0  0
  190.1580  176.5240  138.9220 C   0  0  1  0  0  3  0  0  0  0  0  0
  189.8430  178.0070  139.0960 C   0  0  2  0  0  3  0  0  0  0  0  0
  189.3930  176.0280  137.7100 C   0  0  1  0  0  3  0  0  0  0  0  0
  187.0490  176.8230  137.3790 C   0  0  2  0  0  3  0  0  0  0  0  0
  184.8680  176.8540  136.5880 C   0  0  2  0  0  3  0  0  0  0  0  0
  185.2830  175.5320  136.8960 O   0  0  0  0  0  0  0  0  0  0  0  0
  186.6520  175.5170  136.8330 N   0  0  0  0  0  0  0  0  0  0  0  0
  185.7710  178.7630  137.8130 O   0  0  0  0  0  1  0  0  0  0  0  0
  186.0510  177.7960  136.8370 C   0  0  1  0  0  3  0  0  0  0  0  0
  183.5980  177.1990  137.3610 C   0  0  0  0  0  2  0  0  0  0  0  0
  183.2680  176.1150  138.2850 N   0  0  0  0  0  2  0  0  0  0  0  0
  181.5350  176.0320  138.3830 S   0  0  0  0  0  0  0  0  0  0  0  0
  181.0930  174.6010  138.5500 O   0  0  0  0  0  0  0  0  0  0  0  0
  180.9360  176.5870  137.1180 O   0  0  0  0  0  0  0  0  0  0  0  0
  180.9570  177.0130  139.7540 C   0  0  0  0  0  2  0  0  0  0  0  0
  181.6660  178.3270  139.8090 C   0  0  0  0  0  0  0  0  0  0  0  0
  181.6170  179.0950  138.8150 O   0  0  0  0  0  0  0  0  0  0  0  0
  182.3700  178.7460  140.9470 O   0  0  0  0  0  0  0  0  0  0  0  0
  180.9970  179.4280  142.8340 C   0  0  0  0  0  1  0  0  0  0  0  0
  182.0250  178.4430  142.3010 C   0  0  2  0  0  3  0  0  0  0  0  0
  183.2630  178.3540  143.1800 C   0  0  0  0  0  2  0  0  0  0  0  0
  184.2480  180.2210  144.4070 N   0  0  0  0  0  1  0  0  0  0  0  0
  184.0970  179.6280  143.0920 C   0  0  0  0  0  2  0  0  0  0  0  0
  187.0160  175.3380  135.4160 C   0  0  0  0  0  2  0  0  0  0  0  0
  186.9010  173.8810  134.9700 C   0  0  0  0  0  2  0  0  0  0  0  0
  188.1290  173.4730  134.3850 O   0  0  0  0  0  0  0  0  0  0  0  0
  189.3350  173.4310  135.0950 C   0  0  0  0  0  3  0  0  0  0  0  0
  190.4440  173.2860  134.5030 O   0  0  0  0  0  0  0  0  0  0  0  0
  191.6560  175.0150  137.5440 C   0  0  0  0  0  2  0  0  0  0  0  0
  193.1110  175.3420  137.2580 C   0  0  0  0  0  2  0  0  0  0  0  0
  193.4840  174.9480  135.8380 C   0  0  0  0  0  2  0  0  0  0  0  0
  197.2320  176.7030  134.6800 C   0  0  0  0  0  3  0  0  0  0  0  0
  197.2290  175.4470  135.3100 C   0  0  0  0  0  0  0  0  0  0  0  0
  196.0340  177.3720  134.4200 C   0  0  0  0  0  3  0  0  0  0  0  0
  196.0030  174.8750  135.6780 C   0  0  0  0  0  3  0  0  0  0  0  0
  194.7970  175.5320  135.4050 C   0  0  0  0  0  0  0  0  0  0  0  0
  194.8180  176.7880  134.7830 C   0  0  0  0  0  3  0  0  0  0  0  0
  198.4080  174.7430  135.5790 O   0  0  0  0  0  0  0  0  0  0  0  0
  198.7350  173.9840  137.0900 P   0  0  0  0  0  0  0  0  0  0  0  0
  197.3560  173.1890  137.6590 O   0  0  0  0  0  1  0  0  0  0  0  0
  199.1710  175.0200  138.1010 O   0  0  0  0  0  1  0  0  0  0  0  0
  199.9800  172.8560  136.8770 O   0  0  0  0  0  0  0  0  0  0  0  0
  189.2180  178.2570  140.4550 C   0  0  0  0  0  2  0  0  0  0  0  0
  187.4110  177.4170  142.6020 N   0  0  0  0  0  0  0  0  0  0  0  0
  186.7440  177.4470  143.8870 C   0  0  0  0  0  2  0  0  0  0  0  0
  187.7720  177.8530  144.9250 C   0  0  0  0  0  2  0  0  0  0  0  0
  189.3480  176.3700  143.6730 C   0  0  0  0  0  2  0  0  0  0  0  0
  188.6080  176.9330  142.4770 C   0  0  0  0  0  0  0  0  0  0  0  0
  189.2900  177.0220  141.2250 N   0  0  0  0  0  2  0  0  0  0  0  0
  188.8670  176.8580  144.9810 N   0  0  1  0  0  0  0  0  0  0  0  0
  190.3780  176.2800  146.8800 C   0  0  2  0  0  3  0  0  0  0  0  0
  190.0590  177.2640  145.7670 C   0  0  2  0  0  3  0  0  0  0  0  0
  189.7580  177.6220  147.2180 C   0  0  0  0  0  2  0  0  0  0  0  0
  191.8600  176.3360  147.1720 C   0  0  0  0  0  1  0  0  0  0  0  0
  1  6  1  0  0  0  0
  2  8  1  0  0  0  0
  2  7  1  0  0  0  0
  2  1  1  1  0  0  0
  3  1  2  0  0  0  0
  4 33  1  1  0  0  0
  4  7  1  0  0  0  0
  4  5  1  0  0  0  0
  5  6  1  0  0  0  0
  6 47  1  0  0  0  0
  7  5  1  0  0  0  0
  9 13  1  0  0  0  0
  9 10  1  0  0  0  0
  9 14  1  0  0  0  0
 11 10  1  0  0  0  0
 11  8  1  0  0  0  0
 13  8  1  0  0  0  0
 13 12  1  0  0  0  0
 14 15  1  0  0  0  0
 15 16  1  0  0  0  0
 16 17  2  0  0  0  0
 16 19  1  0  0  0  0
 18 16  2  0  0  0  0
 19 20  1  0  0  0  0
 20 22  1  0  0  0  0
 21 20  2  0  0  0  0
 22 24  1  0  0  0  0
 24 23  1  0  0  0  0
 24 25  1  0  0  0  0
 27 25  1  0  0  0  0
 27 26  1  0  0  0  0
 28 11  1  0  0  0  0
 29 28  1  0  0  0  0
 30 29  1  0  0  0  0
 30 31  1  0  0  0  0
 32 31  2  0  0  0  0
 34 33  1  0  0  0  0
 35 34  1  0  0  0  0
 36 37  1  0  0  0  0
 37 42  1  0  0  0  0
 37 39  2  0  0  0  0
 38 36  2  0  0  0  0
 38 41  1  0  0  0  0
 40 39  1  0  0  0  0
 40 35  1  0  0  0  0
 41 40  2  0  0  0  0
 42 43  1  0  0  0  0
 43 44  1  0  0  0  0
 43 45  1  0  0  0  0
 46 43  2  0  0  0  0
 47 53  1  0  0  0  0
 48 49  1  0  0  0  0
 49 50  1  0  0  0  0
 50 54  1  0  0  0  0
 51 54  1  0  0  0  0
 52 48  2  0  0  0  0
 52 51  1  0  0  0  0
 53 52  1  0  0  0  0
 54 56  1  0  0  0  0
 55 58  1  0  0  0  0
 55 57  1  0  0  0  0
 56 55  1  0  0  0  0
 56 57  1  0  0  0  0
M  END
>  <MODEL>
9

>  <REMARK>
 VINA RESULT:      -5.4      3.871      9.358
  Name = 
  23 active torsions:
  status: ('A' for Active; 'I' for Inactive)
    1  A    between atoms: C_2  and  C_9
    2  A    between atoms: C_4  and  C_51
    3  A    between atoms: P_5  and  O_49
    4  A    between atoms: N_10  and  S_11
    5  A    between atoms: N_10  and  C_51
    6  A    between atoms: S_11  and  C_15
    7  A    between atoms: C_12  and  O_49
    8  A    between atoms: C_15  and  C_22
    9  A    between atoms: C_16  and  N_30
   10  A    between atoms: C_16  and  C_32
   11  A    between atoms: C_18  and  C_29
   12  A    between atoms: C_18  and  C_48
   13  A    between atoms: C_20  and  O_38
   14  A    between atoms: C_22  and  O_35
   15  A    between atoms: C_24  and  C_42
   16  A    between atoms: C_24  and  C_54
   17  A    between atoms: C_31  and  N_47
   18  A    between atoms: C_32  and  O_38
   19  A    between atoms: C_33  and  C_54
   20  A    between atoms: O_35  and  C_48
   21  A    between atoms: C_42  and  C_55
   22  A    between atoms: N_46  and  C_53
   23  A    between atoms: C_52  and  C_53
                            x       y       z     vdW  Elec       q    Type
                         _______ _______ _______ _____ _____    ______ ____

>  <TORSDO>
F 23

$$$$
