=
 OpenBabel10232409353D

 33 36  0  0  1  0  0  0  0  0999 V2000
  190.6800  177.7380  142.3110 N   0  0  0  0  0  2  0  0  0  0  0  0
  190.9550  177.5410  140.9190 C   0  0  0  0  0  0  0  0  0  0  0  0
  188.7190  178.4820  137.6120 S   0  0  0  0  0  0  0  0  0  0  0  0
  184.5930  178.8840  140.6590 F   0  0  0  0  0  0  0  0  0  0  0  0
  185.9130  178.6140  140.5110 C   0  0  0  0  0  0  0  0  0  0  0  0
  188.5730  178.0660  140.2300 C   0  0  0  0  0  0  0  0  0  0  0  0
  186.6810  178.2290  141.6220 C   0  0  0  0  0  3  0  0  0  0  0  0
  187.8200  178.4340  139.1470 C   0  0  0  0  0  0  0  0  0  0  0  0
  189.9310  177.7660  139.9340 N   0  0  0  0  0  0  0  0  0  0  0  0
  190.2210  177.8710  138.4980 C   0  0  1  0  0  3  0  0  0  0  0  0
  192.1090  177.1850  140.5530 O   0  0  0  0  0  0  0  0  0  0  0  0
  188.0060  177.9540  141.4600 N   0  0  0  0  0  0  0  0  0  0  0  0
  186.4990  178.7090  139.2840 N   0  0  0  0  0  0  0  0  0  0  0  0
  190.6720  176.5580  137.9360 C   0  0  0  0  0  0  0  0  0  0  0  0
  189.7810  175.4890  137.7710 C   0  0  0  0  0  3  0  0  0  0  0  0
  190.2380  174.2650  137.2770 C   0  0  0  0  0  3  0  0  0  0  0  0
  191.5930  174.0950  136.9400 C   0  0  0  0  0  0  0  0  0  0  0  0
  192.0160  176.3950  137.5920 C   0  0  0  0  0  3  0  0  0  0  0  0
  192.4840  175.1680  137.1000 C   0  0  0  0  0  0  0  0  0  0  0  0
  191.9010  172.4570  135.1110 C   0  0  0  0  0  1  0  0  0  0  0  0
  192.0790  172.8770  136.4560 O   0  0  0  0  0  0  0  0  0  0  0  0
  193.8380  174.9980  136.7940 O   0  0  0  0  0  0  0  0  0  0  0  0
  194.8000  175.3350  137.6630 O   0  0  0  0  0  0  0  0  0  0  0  0
  195.1210  174.1380  138.3110 C   0  0  0  0  0  1  0  0  0  0  0  0
  191.6650  177.4550  143.3460 C   0  0  0  0  0  2  0  0  0  0  0  0
  189.7270  176.9090  147.1320 C   0  0  0  0  0  3  0  0  0  0  0  0
  191.6940  176.7140  145.7320 C   0  0  0  0  0  3  0  0  0  0  0  0
  189.6410  177.6170  144.8160 C   0  0  0  0  0  3  0  0  0  0  0  0
  190.9800  177.2430  144.6500 C   0  0  0  0  0  0  0  0  0  0  0  0
  187.6900  177.8280  146.2250 O   0  0  0  0  0  1  0  0  0  0  0  0
  191.7580  176.0230  148.0120 F   0  0  0  0  0  0  0  0  0  0  0  0
  189.0160  177.4520  146.0580 C   0  0  0  0  0  0  0  0  0  0  0  0
  191.0680  176.5440  146.9700 C   0  0  0  0  0  0  0  0  0  0  0  0
  1 25  1  0  0  0  0
  2  1  1  0  0  0  0
  3 10  1  0  0  0  0
  3  8  1  0  0  0  0
  5  4  1  0  0  0  0
  5  7  1  0  0  0  0
  6 12  1  0  0  0  0
  8 13  1  0  0  0  0
  8  6  2  0  0  0  0
  9  6  1  0  0  0  0
  9  2  1  0  0  0  0
 10 14  1  6  0  0  0
 10  9  1  0  0  0  0
 11  2  2  0  0  0  0
 12  7  2  0  0  0  0
 13  5  2  0  0  0  0
 15 14  1  0  0  0  0
 16 15  2  0  0  0  0
 17 19  2  0  0  0  0
 17 16  1  0  0  0  0
 18 14  2  0  0  0  0
 19 18  1  0  0  0  0
 20 21  1  0  0  0  0
 21 17  1  0  0  0  0
 22 19  1  0  0  0  0
 22 23  1  0  0  0  0
 23 24  1  0  0  0  0
 25 29  1  0  0  0  0
 27 33  2  0  0  0  0
 28 32  1  0  0  0  0
 29 28  2  0  0  0  0
 29 27  1  0  0  0  0
 32 30  1  0  0  0  0
 32 26  2  0  0  0  0
 33 26  1  0  0  0  0
 33 31  1  0  0  0  0
M  END
>  <MODEL>
1

>  <REMARK>
 VINA RESULT:      -8.4      0.000      0.000
  Name = 
  6 active torsions:
  status: ('A' for Active; 'I' for Inactive)
    1  A    between atoms: N_1  and  C_12
    2  A    between atoms: C_3  and  C_26
    3  A    between atoms: O_10  and  O_29
    4  A    between atoms: C_12  and  C_14
    5  A    between atoms: C_21  and  O_33
    6  A    between atoms: C_27  and  O_29
                            x       y       z     vdW  Elec       q    Type
                         _______ _______ _______ _____ _____    ______ ____

>  <TORSDO>
F 6

$$$$
=
 OpenBabel10232409353D

 33 36  0  0  1  0  0  0  0  0999 V2000
  190.6870  177.7760  142.2420 N   0  0  0  0  0  2  0  0  0  0  0  0
  190.9110  177.5640  140.8430 C   0  0  0  0  0  0  0  0  0  0  0  0
  188.5490  178.4590  137.6120 S   0  0  0  0  0  0  0  0  0  0  0  0
  184.5380  178.8760  140.8060 F   0  0  0  0  0  0  0  0  0  0  0  0
  185.8530  178.6100  140.6120 C   0  0  0  0  0  0  0  0  0  0  0  0
  188.5030  178.0720  140.2380 C   0  0  0  0  0  0  0  0  0  0  0  0
  186.6630  178.2410  141.6970 C   0  0  0  0  0  3  0  0  0  0  0  0
  187.7080  178.4240  139.1800 C   0  0  0  0  0  0  0  0  0  0  0  0
  189.8500  177.7740  139.8950 N   0  0  0  0  0  0  0  0  0  0  0  0
  190.0860  177.8650  138.4480 C   0  0  1  0  0  3  0  0  0  0  0  0
  192.0530  177.2100  140.4390 O   0  0  0  0  0  0  0  0  0  0  0  0
  187.9820  177.9700  141.4890 N   0  0  0  0  0  0  0  0  0  0  0  0
  186.3920  178.6940  139.3620 N   0  0  0  0  0  0  0  0  0  0  0  0
  190.5230  176.5470  137.8840 C   0  0  0  0  0  0  0  0  0  0  0  0
  189.6140  175.4980  137.6900 C   0  0  0  0  0  3  0  0  0  0  0  0
  190.0570  174.2690  137.1940 C   0  0  0  0  0  3  0  0  0  0  0  0
  191.4150  174.0750  136.8860 C   0  0  0  0  0  0  0  0  0  0  0  0
  191.8700  176.3600  137.5670 C   0  0  0  0  0  3  0  0  0  0  0  0
  192.3240  175.1280  137.0740 C   0  0  0  0  0  0  0  0  0  0  0  0
  191.6400  172.4010  135.0760 C   0  0  0  0  0  1  0  0  0  0  0  0
  191.8870  172.8510  136.4010 O   0  0  0  0  0  0  0  0  0  0  0  0
  193.6810  174.9340  136.7950 O   0  0  0  0  0  0  0  0  0  0  0  0
  194.6350  175.3360  137.6450 O   0  0  0  0  0  0  0  0  0  0  0  0
  195.0910  174.1570  138.2430 C   0  0  0  0  0  1  0  0  0  0  0  0
  191.7120  177.5090  143.2430 C   0  0  0  0  0  2  0  0  0  0  0  0
  189.8500  176.9990  147.0720 C   0  0  0  0  0  3  0  0  0  0  0  0
  189.7720  177.8050  144.7880 C   0  0  0  0  0  3  0  0  0  0  0  0
  191.7680  176.7110  145.6200 C   0  0  0  0  0  3  0  0  0  0  0  0
  191.0810  177.3530  144.5820 C   0  0  0  0  0  0  0  0  0  0  0  0
  191.8300  175.8920  147.8910 O   0  0  0  0  0  1  0  0  0  0  0  0
  187.8960  178.0790  146.2340 F   0  0  0  0  0  0  0  0  0  0  0  0
  191.1510  176.5330  146.8630 C   0  0  0  0  0  0  0  0  0  0  0  0
  189.1590  177.6320  146.0330 C   0  0  0  0  0  0  0  0  0  0  0  0
  1 25  1  0  0  0  0
  2  1  1  0  0  0  0
  3 10  1  0  0  0  0
  3  8  1  0  0  0  0
  5  4  1  0  0  0  0
  5  7  1  0  0  0  0
  6 12  1  0  0  0  0
  8 13  1  0  0  0  0
  8  6  2  0  0  0  0
  9  6  1  0  0  0  0
  9  2  1  0  0  0  0
 10 14  1  6  0  0  0
 10  9  1  0  0  0  0
 11  2  2  0  0  0  0
 12  7  2  0  0  0  0
 13  5  2  0  0  0  0
 15 14  1  0  0  0  0
 16 15  2  0  0  0  0
 17 19  2  0  0  0  0
 17 16  1  0  0  0  0
 18 14  2  0  0  0  0
 19 18  1  0  0  0  0
 20 21  1  0  0  0  0
 21 17  1  0  0  0  0
 22 19  1  0  0  0  0
 22 23  1  0  0  0  0
 23 24  1  0  0  0  0
 25 29  1  0  0  0  0
 27 33  1  0  0  0  0
 28 32  2  0  0  0  0
 29 27  2  0  0  0  0
 29 28  1  0  0  0  0
 32 26  1  0  0  0  0
 32 30  1  0  0  0  0
 33 31  1  0  0  0  0
 33 26  2  0  0  0  0
M  END
>  <MODEL>
2

>  <REMARK>
 VINA RESULT:      -8.3      1.190      1.457
  Name = 
  6 active torsions:
  status: ('A' for Active; 'I' for Inactive)
    1  A    between atoms: N_1  and  C_12
    2  A    between atoms: C_3  and  C_26
    3  A    between atoms: O_10  and  O_29
    4  A    between atoms: C_12  and  C_14
    5  A    between atoms: C_21  and  O_33
    6  A    between atoms: C_27  and  O_29
                            x       y       z     vdW  Elec       q    Type
                         _______ _______ _______ _____ _____    ______ ____

>  <TORSDO>
F 6

$$$$
=
 OpenBabel10232409353D

 33 36  0  0  1  0  0  0  0  0999 V2000
  190.5990  177.8400  142.2590 N   0  0  0  0  0  2  0  0  0  0  0  0
  190.8730  177.6170  140.8700 C   0  0  0  0  0  0  0  0  0  0  0  0
  188.6140  178.4600  137.5520 S   0  0  0  0  0  0  0  0  0  0  0  0
  184.4940  178.8720  140.6040 F   0  0  0  0  0  0  0  0  0  0  0  0
  185.8160  178.6160  140.4580 C   0  0  0  0  0  0  0  0  0  0  0  0
  188.4820  178.0970  140.1790 C   0  0  0  0  0  0  0  0  0  0  0  0
  186.5920  178.2640  141.5730 C   0  0  0  0  0  3  0  0  0  0  0  0
  187.7210  178.4320  139.0910 C   0  0  0  0  0  0  0  0  0  0  0  0
  189.8430  177.8090  139.8850 N   0  0  0  0  0  0  0  0  0  0  0  0
  190.1270  177.8870  138.4460 C   0  0  1  0  0  3  0  0  0  0  0  0
  192.0300  177.2690  140.5090 O   0  0  0  0  0  0  0  0  0  0  0  0
  187.9200  178.0030  141.4130 N   0  0  0  0  0  0  0  0  0  0  0  0
  186.3970  178.6930  139.2260 N   0  0  0  0  0  0  0  0  0  0  0  0
  190.5940  176.5680  137.9100 C   0  0  0  0  0  0  0  0  0  0  0  0
  191.9220  176.3720  137.5090 C   0  0  0  0  0  3  0  0  0  0  0  0
  192.3200  175.1420  136.9800 C   0  0  0  0  0  3  0  0  0  0  0  0
  191.3950  174.0920  136.8480 C   0  0  0  0  0  0  0  0  0  0  0  0
  189.6750  175.5230  137.7890 C   0  0  0  0  0  3  0  0  0  0  0  0
  190.0660  174.2870  137.2560 C   0  0  0  0  0  0  0  0  0  0  0  0
  193.1170  172.4890  136.0790 C   0  0  0  0  0  1  0  0  0  0  0  0
  191.7640  172.8550  136.3090 O   0  0  0  0  0  0  0  0  0  0  0  0
  189.1330  173.2560  137.1010 O   0  0  0  0  0  0  0  0  0  0  0  0
  188.1380  173.3410  136.2080 O   0  0  0  0  0  0  0  0  0  0  0  0
  186.9810  173.0770  136.9480 C   0  0  0  0  0  1  0  0  0  0  0  0
  191.5920  177.5910  143.2970 C   0  0  0  0  0  2  0  0  0  0  0  0
  189.6690  176.9950  147.0830 C   0  0  0  0  0  3  0  0  0  0  0  0
  191.6290  176.8150  145.6710 C   0  0  0  0  0  3  0  0  0  0  0  0
  189.5740  177.7380  144.7780 C   0  0  0  0  0  3  0  0  0  0  0  0
  190.9120  177.3620  144.6010 C   0  0  0  0  0  0  0  0  0  0  0  0
  187.6300  177.9340  146.1990 O   0  0  0  0  0  1  0  0  0  0  0  0
  191.7000  176.0890  147.9410 F   0  0  0  0  0  0  0  0  0  0  0  0
  188.9550  177.5570  146.0200 C   0  0  0  0  0  0  0  0  0  0  0  0
  191.0080  176.6290  146.9090 C   0  0  0  0  0  0  0  0  0  0  0  0
  1 25  1  0  0  0  0
  2  1  1  0  0  0  0
  3 10  1  0  0  0  0
  3  8  1  0  0  0  0
  5  4  1  0  0  0  0
  5  7  1  0  0  0  0
  6 12  1  0  0  0  0
  8 13  1  0  0  0  0
  8  6  2  0  0  0  0
  9  6  1  0  0  0  0
  9  2  1  0  0  0  0
 10 14  1  6  0  0  0
 10  9  1  0  0  0  0
 11  2  2  0  0  0  0
 12  7  2  0  0  0  0
 13  5  2  0  0  0  0
 15 14  2  0  0  0  0
 16 15  1  0  0  0  0
 17 16  2  0  0  0  0
 17 19  1  0  0  0  0
 18 14  1  0  0  0  0
 19 18  2  0  0  0  0
 20 21  1  0  0  0  0
 21 17  1  0  0  0  0
 22 19  1  0  0  0  0
 23 24  1  0  0  0  0
 23 22  1  0  0  0  0
 25 29  1  0  0  0  0
 27 33  2  0  0  0  0
 28 32  1  0  0  0  0
 29 28  2  0  0  0  0
 29 27  1  0  0  0  0
 32 30  1  0  0  0  0
 32 26  2  0  0  0  0
 33 26  1  0  0  0  0
 33 31  1  0  0  0  0
M  END
>  <MODEL>
3

>  <REMARK>
 VINA RESULT:      -8.2      1.104      2.279
  Name = 
  6 active torsions:
  status: ('A' for Active; 'I' for Inactive)
    1  A    between atoms: N_1  and  C_12
    2  A    between atoms: C_3  and  C_26
    3  A    between atoms: O_10  and  O_29
    4  A    between atoms: C_12  and  C_14
    5  A    between atoms: C_21  and  O_33
    6  A    between atoms: C_27  and  O_29
                            x       y       z     vdW  Elec       q    Type
                         _______ _______ _______ _____ _____    ______ ____

>  <TORSDO>
F 6

$$$$
=
 OpenBabel10232409353D

 33 36  0  0  1  0  0  0  0  0999 V2000
  190.6680  177.8060  142.1900 N   0  0  0  0  0  2  0  0  0  0  0  0
  190.9170  177.5710  140.7980 C   0  0  0  0  0  0  0  0  0  0  0  0
  188.6210  178.4330  137.5110 S   0  0  0  0  0  0  0  0  0  0  0  0
  184.5540  178.9240  140.6230 F   0  0  0  0  0  0  0  0  0  0  0  0
  185.8700  178.6470  140.4580 C   0  0  0  0  0  0  0  0  0  0  0  0
  188.5230  178.0850  140.1410 C   0  0  0  0  0  0  0  0  0  0  0  0
  186.6580  178.2880  141.5630 C   0  0  0  0  0  3  0  0  0  0  0  0
  187.7510  178.4270  139.0630 C   0  0  0  0  0  0  0  0  0  0  0  0
  189.8750  177.7740  139.8280 N   0  0  0  0  0  0  0  0  0  0  0  0
  190.1380  177.8410  138.3840 C   0  0  1  0  0  3  0  0  0  0  0  0
  192.0630  177.2040  140.4210 O   0  0  0  0  0  0  0  0  0  0  0  0
  187.9790  178.0060  141.3830 N   0  0  0  0  0  0  0  0  0  0  0  0
  186.4330  178.7090  139.2170 N   0  0  0  0  0  0  0  0  0  0  0  0
  190.5760  176.5130  137.8480 C   0  0  0  0  0  0  0  0  0  0  0  0
  191.8950  176.2940  137.4270 C   0  0  0  0  0  3  0  0  0  0  0  0
  192.2660  175.0550  136.8990 C   0  0  0  0  0  3  0  0  0  0  0  0
  191.3220  174.0190  136.7860 C   0  0  0  0  0  0  0  0  0  0  0  0
  189.6400  175.4810  137.7470 C   0  0  0  0  0  3  0  0  0  0  0  0
  190.0030  174.2360  137.2140 C   0  0  0  0  0  0  0  0  0  0  0  0
  192.9660  172.4770  135.7620 C   0  0  0  0  0  1  0  0  0  0  0  0
  191.6640  172.7740  136.2490 O   0  0  0  0  0  0  0  0  0  0  0  0
  189.0530  173.2200  137.0790 O   0  0  0  0  0  0  0  0  0  0  0  0
  187.7420  173.4910  137.0070 O   0  0  0  0  0  0  0  0  0  0  0  0
  187.1870  172.3710  136.3800 C   0  0  0  0  0  1  0  0  0  0  0  0
  191.6720  177.5460  143.2140 C   0  0  0  0  0  2  0  0  0  0  0  0
  189.7310  176.9890  146.9960 C   0  0  0  0  0  3  0  0  0  0  0  0
  189.6700  177.7400  144.6930 C   0  0  0  0  0  3  0  0  0  0  0  0
  191.7080  176.8040  145.6080 C   0  0  0  0  0  3  0  0  0  0  0  0
  191.0120  177.3750  144.5360 C   0  0  0  0  0  0  0  0  0  0  0  0
  191.7550  176.0380  147.8990 O   0  0  0  0  0  1  0  0  0  0  0  0
  187.7350  177.9140  146.0760 F   0  0  0  0  0  0  0  0  0  0  0  0
  191.0660  176.6090  146.8360 C   0  0  0  0  0  0  0  0  0  0  0  0
  189.0310  177.5500  145.9220 C   0  0  0  0  0  0  0  0  0  0  0  0
  1 25  1  0  0  0  0
  2  1  1  0  0  0  0
  3 10  1  0  0  0  0
  3  8  1  0  0  0  0
  5  4  1  0  0  0  0
  5  7  1  0  0  0  0
  6 12  1  0  0  0  0
  8 13  1  0  0  0  0
  8  6  2  0  0  0  0
  9  6  1  0  0  0  0
  9  2  1  0  0  0  0
 10 14  1  6  0  0  0
 10  9  1  0  0  0  0
 11  2  2  0  0  0  0
 12  7  2  0  0  0  0
 13  5  2  0  0  0  0
 15 14  2  0  0  0  0
 16 15  1  0  0  0  0
 17 16  2  0  0  0  0
 17 19  1  0  0  0  0
 18 14  1  0  0  0  0
 19 18  2  0  0  0  0
 20 21  1  0  0  0  0
 21 17  1  0  0  0  0
 22 19  1  0  0  0  0
 23 22  1  0  0  0  0
 24 23  1  0  0  0  0
 25 29  1  0  0  0  0
 27 33  1  0  0  0  0
 28 32  2  0  0  0  0
 29 27  2  0  0  0  0
 29 28  1  0  0  0  0
 32 26  1  0  0  0  0
 32 30  1  0  0  0  0
 33 31  1  0  0  0  0
 33 26  2  0  0  0  0
M  END
>  <MODEL>
4

>  <REMARK>
 VINA RESULT:      -8.1      1.664      2.725
  Name = 
  6 active torsions:
  status: ('A' for Active; 'I' for Inactive)
    1  A    between atoms: N_1  and  C_12
    2  A    between atoms: C_3  and  C_26
    3  A    between atoms: O_10  and  O_29
    4  A    between atoms: C_12  and  C_14
    5  A    between atoms: C_21  and  O_33
    6  A    between atoms: C_27  and  O_29
                            x       y       z     vdW  Elec       q    Type
                         _______ _______ _______ _____ _____    ______ ____

>  <TORSDO>
F 6

$$$$
=
 OpenBabel10232409353D

 33 36  0  0  1  0  0  0  0  0999 V2000
  187.5460  178.4120  141.8540 N   0  0  0  0  0  2  0  0  0  0  0  0
  187.1070  178.4780  140.4920 C   0  0  0  0  0  0  0  0  0  0  0  0
  183.4720  179.5520  138.9260 S   0  0  0  0  0  0  0  0  0  0  0  0
  181.3840  178.8200  143.5700 F   0  0  0  0  0  0  0  0  0  0  0  0
  182.4710  178.7880  142.7610 C   0  0  0  0  0  0  0  0  0  0  0  0
  184.6690  178.7190  141.1440 C   0  0  0  0  0  0  0  0  0  0  0  0
  183.7100  178.3630  143.2640 C   0  0  0  0  0  3  0  0  0  0  0  0
  183.4570  179.1250  140.6530 C   0  0  0  0  0  0  0  0  0  0  0  0
  185.7180  178.6870  140.1840 N   0  0  0  0  0  0  0  0  0  0  0  0
  185.2510  179.0570  138.8420 C   0  0  1  0  0  3  0  0  0  0  0  0
  187.9480  178.3710  139.5570 O   0  0  0  0  0  0  0  0  0  0  0  0
  184.7950  178.3300  142.4390 N   0  0  0  0  0  0  0  0  0  0  0  0
  182.3640  179.1630  141.4540 N   0  0  0  0  0  0  0  0  0  0  0  0
  185.4450  177.9350  137.8680 C   0  0  0  0  0  0  0  0  0  0  0  0
  186.3510  178.0390  136.8050 C   0  0  0  0  0  3  0  0  0  0  0  0
  186.4860  176.9900  135.8930 C   0  0  0  0  0  3  0  0  0  0  0  0
  185.7160  175.8220  136.0340 C   0  0  0  0  0  0  0  0  0  0  0  0
  184.6870  176.7710  138.0170 C   0  0  0  0  0  3  0  0  0  0  0  0
  184.8130  175.7150  137.1030 C   0  0  0  0  0  0  0  0  0  0  0  0
  186.9810  173.9470  135.0280 C   0  0  0  0  0  1  0  0  0  0  0  0
  185.8220  174.7620  135.1280 O   0  0  0  0  0  0  0  0  0  0  0  0
  184.0240  174.5680  137.2340 O   0  0  0  0  0  0  0  0  0  0  0  0
  184.4820  173.4680  137.8470 O   0  0  0  0  0  0  0  0  0  0  0  0
  184.0120  172.4100  137.0640 C   0  0  0  0  0  1  0  0  0  0  0  0
  188.9310  178.1320  142.2120 C   0  0  0  0  0  2  0  0  0  0  0  0
  189.2000  177.2910  146.4080 C   0  0  0  0  0  3  0  0  0  0  0  0
  187.8650  177.7110  144.4310 C   0  0  0  0  0  3  0  0  0  0  0  0
  190.2830  177.7200  144.2830 C   0  0  0  0  0  3  0  0  0  0  0  0
  189.0310  177.8670  143.6730 C   0  0  0  0  0  0  0  0  0  0  0  0
  191.6070  177.2790  146.2540 O   0  0  0  0  0  1  0  0  0  0  0  0
  186.8190  177.2880  146.5310 F   0  0  0  0  0  0  0  0  0  0  0  0
  190.3660  177.4300  145.6490 C   0  0  0  0  0  0  0  0  0  0  0  0
  187.9490  177.4280  145.7970 C   0  0  0  0  0  0  0  0  0  0  0  0
  1 25  1  0  0  0  0
  2  1  1  0  0  0  0
  3  8  1  0  0  0  0
  5  7  1  0  0  0  0
  5  4  1  0  0  0  0
  6 12  1  0  0  0  0
  8  6  2  0  0  0  0
  8 13  1  0  0  0  0
  9  2  1  0  0  0  0
  9  6  1  0  0  0  0
 10 14  1  6  0  0  0
 10  3  1  0  0  0  0
 10  9  1  0  0  0  0
 11  2  2  0  0  0  0
 12  7  2  0  0  0  0
 13  5  2  0  0  0  0
 14 18  1  0  0  0  0
 15 14  2  0  0  0  0
 16 17  2  0  0  0  0
 16 15  1  0  0  0  0
 17 19  1  0  0  0  0
 19 22  1  0  0  0  0
 19 18  2  0  0  0  0
 20 21  1  0  0  0  0
 21 17  1  0  0  0  0
 22 23  1  0  0  0  0
 24 23  1  0  0  0  0
 25 29  1  0  0  0  0
 27 33  2  0  0  0  0
 28 32  1  0  0  0  0
 29 28  2  0  0  0  0
 29 27  1  0  0  0  0
 32 30  1  0  0  0  0
 32 26  2  0  0  0  0
 33 26  1  0  0  0  0
 33 31  1  0  0  0  0
M  END
>  <MODEL>
5

>  <REMARK>
 VINA RESULT:      -7.5      4.180      5.394
  Name = 
  6 active torsions:
  status: ('A' for Active; 'I' for Inactive)
    1  A    between atoms: N_1  and  C_12
    2  A    between atoms: C_3  and  C_26
    3  A    between atoms: O_10  and  O_29
    4  A    between atoms: C_12  and  C_14
    5  A    between atoms: C_21  and  O_33
    6  A    between atoms: C_27  and  O_29
                            x       y       z     vdW  Elec       q    Type
                         _______ _______ _______ _____ _____    ______ ____

>  <TORSDO>
F 6

$$$$
=
 OpenBabel10232409353D

 33 36  0  0  1  0  0  0  0  0999 V2000
  189.5770  178.0180  142.2470 N   0  0  0  0  0  2  0  0  0  0  0  0
  189.5100  177.8130  140.8300 C   0  0  0  0  0  0  0  0  0  0  0  0
  186.5410  178.7290  138.1540 S   0  0  0  0  0  0  0  0  0  0  0  0
  183.2670  179.1340  142.1010 F   0  0  0  0  0  0  0  0  0  0  0  0
  184.5140  178.8680  141.6420 C   0  0  0  0  0  0  0  0  0  0  0  0
  187.0300  178.3270  140.7320 C   0  0  0  0  0  0  0  0  0  0  0  0
  185.5280  178.4910  142.5370 C   0  0  0  0  0  3  0  0  0  0  0  0
  186.0370  178.6860  139.8600 C   0  0  0  0  0  0  0  0  0  0  0  0
  188.2790  178.0300  140.1200 N   0  0  0  0  0  0  0  0  0  0  0  0
  188.2140  178.1270  138.6560 C   0  0  1  0  0  3  0  0  0  0  0  0
  190.5450  177.4590  140.2000 O   0  0  0  0  0  0  0  0  0  0  0  0
  186.7760  178.2200  142.0630 N   0  0  0  0  0  0  0  0  0  0  0  0
  184.7870  178.9570  140.3090 N   0  0  0  0  0  0  0  0  0  0  0  0
  188.5240  176.8120  138.0080 C   0  0  0  0  0  0  0  0  0  0  0  0
  189.8350  176.4590  137.6630 C   0  0  0  0  0  3  0  0  0  0  0  0
  190.0890  175.2400  137.0280 C   0  0  0  0  0  3  0  0  0  0  0  0
  189.0330  174.3600  136.7320 C   0  0  0  0  0  0  0  0  0  0  0  0
  187.4750  175.9340  137.7240 C   0  0  0  0  0  3  0  0  0  0  0  0
  187.7210  174.7120  137.0840 C   0  0  0  0  0  0  0  0  0  0  0  0
  190.3230  172.9410  135.1660 C   0  0  0  0  0  1  0  0  0  0  0  0
  189.2580  173.1410  136.0850 O   0  0  0  0  0  0  0  0  0  0  0  0
  186.6630  173.8530  136.7670 O   0  0  0  0  0  0  0  0  0  0  0  0
  186.2530  172.9030  137.6180 O   0  0  0  0  0  0  0  0  0  0  0  0
  184.8700  173.0890  137.7110 C   0  0  0  0  0  1  0  0  0  0  0  0
  190.7840  177.7430  143.0160 C   0  0  0  0  0  2  0  0  0  0  0  0
  189.7320  176.9300  147.0930 C   0  0  0  0  0  3  0  0  0  0  0  0
  189.0890  177.5470  144.8400 C   0  0  0  0  0  3  0  0  0  0  0  0
  191.4180  177.1330  145.3640 C   0  0  0  0  0  3  0  0  0  0  0  0
  190.4280  177.4870  144.4390 C   0  0  0  0  0  0  0  0  0  0  0  0
  192.0480  176.4980  147.6080 O   0  0  0  0  0  1  0  0  0  0  0  0
  187.4450  177.3430  146.5550 F   0  0  0  0  0  0  0  0  0  0  0  0
  191.0680  176.8530  146.6900 C   0  0  0  0  0  0  0  0  0  0  0  0
  188.7410  177.2730  146.1660 C   0  0  0  0  0  0  0  0  0  0  0  0
  1 25  1  0  0  0  0
  2  1  1  0  0  0  0
  3 10  1  0  0  0  0
  3  8  1  0  0  0  0
  5  4  1  0  0  0  0
  5  7  1  0  0  0  0
  6 12  1  0  0  0  0
  8 13  1  0  0  0  0
  8  6  2  0  0  0  0
  9  6  1  0  0  0  0
  9  2  1  0  0  0  0
 10 14  1  6  0  0  0
 10  9  1  0  0  0  0
 11  2  2  0  0  0  0
 12  7  2  0  0  0  0
 13  5  2  0  0  0  0
 15 14  2  0  0  0  0
 16 15  1  0  0  0  0
 17 16  2  0  0  0  0
 17 19  1  0  0  0  0
 18 14  1  0  0  0  0
 19 18  2  0  0  0  0
 20 21  1  0  0  0  0
 21 17  1  0  0  0  0
 22 19  1  0  0  0  0
 22 23  1  0  0  0  0
 23 24  1  0  0  0  0
 25 29  1  0  0  0  0
 27 33  1  0  0  0  0
 28 32  2  0  0  0  0
 29 27  2  0  0  0  0
 29 28  1  0  0  0  0
 32 26  1  0  0  0  0
 32 30  1  0  0  0  0
 33 31  1  0  0  0  0
 33 26  2  0  0  0  0
M  END
>  <MODEL>
6

>  <REMARK>
 VINA RESULT:      -7.5      2.468      3.552
  Name = 
  6 active torsions:
  status: ('A' for Active; 'I' for Inactive)
    1  A    between atoms: N_1  and  C_12
    2  A    between atoms: C_3  and  C_26
    3  A    between atoms: O_10  and  O_29
    4  A    between atoms: C_12  and  C_14
    5  A    between atoms: C_21  and  O_33
    6  A    between atoms: C_27  and  O_29
                            x       y       z     vdW  Elec       q    Type
                         _______ _______ _______ _____ _____    ______ ____

>  <TORSDO>
F 6

$$$$
=
 OpenBabel10232409353D

 33 36  0  0  1  0  0  0  0  0999 V2000
  187.3070  178.4800  141.9640 N   0  0  0  0  0  2  0  0  0  0  0  0
  186.7880  178.5250  140.6300 C   0  0  0  0  0  0  0  0  0  0  0  0
  183.0570  179.5450  139.2660 S   0  0  0  0  0  0  0  0  0  0  0  0
  181.2510  178.8520  144.0320 F   0  0  0  0  0  0  0  0  0  0  0  0
  182.2890  178.8210  143.1620 C   0  0  0  0  0  0  0  0  0  0  0  0
  184.3900  178.7520  141.4200 C   0  0  0  0  0  0  0  0  0  0  0  0
  183.5600  178.4130  143.5970 C   0  0  0  0  0  3  0  0  0  0  0  0
  183.1480  179.1400  140.9960 C   0  0  0  0  0  0  0  0  0  0  0  0
  185.3810  178.7170  140.4010 N   0  0  0  0  0  0  0  0  0  0  0  0
  184.8330  179.0660  139.0840 C   0  0  1  0  0  3  0  0  0  0  0  0
  187.5740  178.4130  139.6490 O   0  0  0  0  0  0  0  0  0  0  0  0
  184.5950  178.3800  142.7110 N   0  0  0  0  0  0  0  0  0  0  0  0
  182.1020  179.1780  141.8590 N   0  0  0  0  0  0  0  0  0  0  0  0
  184.9810  177.9330  138.1140 C   0  0  0  0  0  0  0  0  0  0  0  0
  184.1540  176.8040  138.1780 C   0  0  0  0  0  3  0  0  0  0  0  0
  184.3390  175.7480  137.2830 C   0  0  0  0  0  3  0  0  0  0  0  0
  185.3530  175.8090  136.3110 C   0  0  0  0  0  0  0  0  0  0  0  0
  185.9820  178.0010  137.1420 C   0  0  0  0  0  3  0  0  0  0  0  0
  186.1760  176.9430  136.2420 C   0  0  0  0  0  0  0  0  0  0  0  0
  186.2920  173.5870  135.7550 C   0  0  0  0  0  1  0  0  0  0  0  0
  185.5670  174.7600  135.4110 O   0  0  0  0  0  0  0  0  0  0  0  0
  187.2050  176.9990  135.2960 O   0  0  0  0  0  0  0  0  0  0  0  0
  188.4570  177.3290  135.6410 O   0  0  0  0  0  0  0  0  0  0  0  0
  189.1490  176.1140  135.6510 C   0  0  0  0  0  1  0  0  0  0  0  0
  188.7130  178.2170  142.2440 C   0  0  0  0  0  2  0  0  0  0  0  0
  189.2120  177.2920  146.4010 C   0  0  0  0  0  3  0  0  0  0  0  0
  187.7700  177.7530  144.5100 C   0  0  0  0  0  3  0  0  0  0  0  0
  190.1760  177.7620  144.2280 C   0  0  0  0  0  3  0  0  0  0  0  0
  188.8930  177.9230  143.6920 C   0  0  0  0  0  0  0  0  0  0  0  0
  191.6070  177.2800  146.1140 O   0  0  0  0  0  1  0  0  0  0  0  0
  186.8420  177.2880  146.6560 F   0  0  0  0  0  0  0  0  0  0  0  0
  190.3350  177.4440  145.5820 C   0  0  0  0  0  0  0  0  0  0  0  0
  187.9290  177.4410  145.8630 C   0  0  0  0  0  0  0  0  0  0  0  0
  1 25  1  0  0  0  0
  2  1  1  0  0  0  0
  3  8  1  0  0  0  0
  5  7  1  0  0  0  0
  5  4  1  0  0  0  0
  6 12  1  0  0  0  0
  8  6  2  0  0  0  0
  8 13  1  0  0  0  0
  9  2  1  0  0  0  0
  9  6  1  0  0  0  0
 10 14  1  6  0  0  0
 10  3  1  0  0  0  0
 10  9  1  0  0  0  0
 11  2  2  0  0  0  0
 12  7  2  0  0  0  0
 13  5  2  0  0  0  0
 14 15  1  0  0  0  0
 16 15  2  0  0  0  0
 17 16  1  0  0  0  0
 18 14  2  0  0  0  0
 19 17  2  0  0  0  0
 19 18  1  0  0  0  0
 21 20  1  0  0  0  0
 21 17  1  0  0  0  0
 22 23  1  0  0  0  0
 22 19  1  0  0  0  0
 23 24  1  0  0  0  0
 25 29  1  0  0  0  0
 27 33  2  0  0  0  0
 28 32  1  0  0  0  0
 29 28  2  0  0  0  0
 29 27  1  0  0  0  0
 32 30  1  0  0  0  0
 32 26  2  0  0  0  0
 33 26  1  0  0  0  0
 33 31  1  0  0  0  0
M  END
>  <MODEL>
7

>  <REMARK>
 VINA RESULT:      -7.4      3.726      5.019
  Name = 
  6 active torsions:
  status: ('A' for Active; 'I' for Inactive)
    1  A    between atoms: N_1  and  C_12
    2  A    between atoms: C_3  and  C_26
    3  A    between atoms: O_10  and  O_29
    4  A    between atoms: C_12  and  C_14
    5  A    between atoms: C_21  and  O_33
    6  A    between atoms: C_27  and  O_29
                            x       y       z     vdW  Elec       q    Type
                         _______ _______ _______ _____ _____    ______ ____

>  <TORSDO>
F 6

$$$$
=
 OpenBabel10232409353D

 33 36  0  0  1  0  0  0  0  0999 V2000
  186.4640  178.3790  142.3880 N   0  0  0  0  0  2  0  0  0  0  0  0
  186.3420  178.5290  140.9690 C   0  0  0  0  0  0  0  0  0  0  0  0
  183.1650  179.7830  138.6980 S   0  0  0  0  0  0  0  0  0  0  0  0
  180.0810  178.8590  142.7110 F   0  0  0  0  0  0  0  0  0  0  0  0
  181.3200  178.8420  142.1630 C   0  0  0  0  0  0  0  0  0  0  0  0
  183.8230  178.8010  141.0750 C   0  0  0  0  0  0  0  0  0  0  0  0
  182.4100  178.3570  142.9040 C   0  0  0  0  0  3  0  0  0  0  0  0
  182.7580  179.2650  140.3510 C   0  0  0  0  0  0  0  0  0  0  0  0
  185.0600  178.7920  140.3720 N   0  0  0  0  0  0  0  0  0  0  0  0
  184.9100  179.2460  138.9830 C   0  0  1  0  0  3  0  0  0  0  0  0
  187.3690  178.4500  140.2400 O   0  0  0  0  0  0  0  0  0  0  0  0
  183.6510  178.3390  142.3410 N   0  0  0  0  0  0  0  0  0  0  0  0
  181.5140  179.2890  140.8900 N   0  0  0  0  0  0  0  0  0  0  0  0
  185.3010  178.1730  138.0140 C   0  0  0  0  0  0  0  0  0  0  0  0
  186.3800  178.3390  137.1360 C   0  0  0  0  0  3  0  0  0  0  0  0
  186.7000  177.3350  136.2190 C   0  0  0  0  0  3  0  0  0  0  0  0
  185.9450  176.1500  136.1700 C   0  0  0  0  0  0  0  0  0  0  0  0
  184.5560  176.9920  137.9740 C   0  0  0  0  0  3  0  0  0  0  0  0
  184.8680  175.9810  137.0540 C   0  0  0  0  0  0  0  0  0  0  0  0
  187.4490  174.3980  135.2800 C   0  0  0  0  0  1  0  0  0  0  0  0
  186.2350  175.1350  135.2530 O   0  0  0  0  0  0  0  0  0  0  0  0
  184.0940  174.8170  136.9920 O   0  0  0  0  0  0  0  0  0  0  0  0
  184.0770  173.9330  137.9990 O   0  0  0  0  0  0  0  0  0  0  0  0
  184.7560  172.8190  137.4970 C   0  0  0  0  0  1  0  0  0  0  0  0
  187.7300  178.0420  143.0280 C   0  0  0  0  0  2  0  0  0  0  0  0
  187.2040  177.7360  147.2730 C   0  0  0  0  0  3  0  0  0  0  0  0
  188.5920  177.4770  145.3030 C   0  0  0  0  0  3  0  0  0  0  0  0
  186.3140  178.2730  145.0840 C   0  0  0  0  0  3  0  0  0  0  0  0
  187.5330  177.9120  144.4980 C   0  0  0  0  0  0  0  0  0  0  0  0
  184.9440  178.5490  147.0550 O   0  0  0  0  0  1  0  0  0  0  0  0
  189.4480  176.9540  147.4660 F   0  0  0  0  0  0  0  0  0  0  0  0
  186.1510  178.1870  146.4720 C   0  0  0  0  0  0  0  0  0  0  0  0
  188.4270  177.3850  146.6880 C   0  0  0  0  0  0  0  0  0  0  0  0
  1 25  1  0  0  0  0
  2  1  1  0  0  0  0
  3 10  1  0  0  0  0
  3  8  1  0  0  0  0
  5  4  1  0  0  0  0
  5  7  1  0  0  0  0
  6 12  1  0  0  0  0
  8 13  1  0  0  0  0
  8  6  2  0  0  0  0
  9  2  1  0  0  0  0
  9  6  1  0  0  0  0
 10 14  1  6  0  0  0
 10  9  1  0  0  0  0
 11  2  2  0  0  0  0
 12  7  2  0  0  0  0
 13  5  2  0  0  0  0
 15 14  2  0  0  0  0
 16 15  1  0  0  0  0
 17 16  2  0  0  0  0
 17 19  1  0  0  0  0
 18 14  1  0  0  0  0
 19 18  2  0  0  0  0
 21 20  1  0  0  0  0
 21 17  1  0  0  0  0
 22 19  1  0  0  0  0
 22 23  1  0  0  0  0
 24 23  1  0  0  0  0
 25 29  1  0  0  0  0
 27 33  2  0  0  0  0
 28 32  1  0  0  0  0
 29 28  2  0  0  0  0
 29 27  1  0  0  0  0
 32 30  1  0  0  0  0
 32 26  2  0  0  0  0
 33 26  1  0  0  0  0
 33 31  1  0  0  0  0
M  END
>  <MODEL>
8

>  <REMARK>
 VINA RESULT:      -7.4      4.316      5.567
  Name = 
  6 active torsions:
  status: ('A' for Active; 'I' for Inactive)
    1  A    between atoms: N_1  and  C_12
    2  A    between atoms: C_3  and  C_26
    3  A    between atoms: O_10  and  O_29
    4  A    between atoms: C_12  and  C_14
    5  A    between atoms: C_21  and  O_33
    6  A    between atoms: C_27  and  O_29
                            x       y       z     vdW  Elec       q    Type
                         _______ _______ _______ _____ _____    ______ ____

>  <TORSDO>
F 6

$$$$
=
 OpenBabel10232409353D

 33 36  0  0  1  0  0  0  0  0999 V2000
  189.3120  178.1250  142.2970 N   0  0  0  0  0  2  0  0  0  0  0  0
  189.1970  177.9390  140.8810 C   0  0  0  0  0  0  0  0  0  0  0  0
  186.0930  178.7870  138.3370 S   0  0  0  0  0  0  0  0  0  0  0  0
  182.9660  179.0160  142.4150 F   0  0  0  0  0  0  0  0  0  0  0  0
  184.2020  178.8010  141.9030 C   0  0  0  0  0  0  0  0  0  0  0  0
  186.6980  178.3650  140.8870 C   0  0  0  0  0  0  0  0  0  0  0  0
  185.2630  178.4480  142.7520 C   0  0  0  0  0  3  0  0  0  0  0  0
  185.6590  178.7010  140.0610 C   0  0  0  0  0  0  0  0  0  0  0  0
  187.9310  178.1220  140.2220 N   0  0  0  0  0  0  0  0  0  0  0  0
  187.8060  178.2390  138.7640 C   0  0  1  0  0  3  0  0  0  0  0  0
  190.2170  177.6320  140.2050 O   0  0  0  0  0  0  0  0  0  0  0  0
  186.5010  178.2290  142.2250 N   0  0  0  0  0  0  0  0  0  0  0  0
  184.4190  178.9210  140.5630 N   0  0  0  0  0  0  0  0  0  0  0  0
  188.1350  176.9460  138.0830 C   0  0  0  0  0  0  0  0  0  0  0  0
  187.1320  176.0490  137.6940 C   0  0  0  0  0  3  0  0  0  0  0  0
  187.4710  174.8350  137.0920 C   0  0  0  0  0  3  0  0  0  0  0  0
  188.8200  174.5040  136.8700 C   0  0  0  0  0  0  0  0  0  0  0  0
  189.4750  176.6240  137.8530 C   0  0  0  0  0  3  0  0  0  0  0  0
  189.8250  175.4060  137.2540 C   0  0  0  0  0  0  0  0  0  0  0  0
  189.1520  173.0720  134.8780 C   0  0  0  0  0  1  0  0  0  0  0  0
  189.1880  173.2900  136.2820 O   0  0  0  0  0  0  0  0  0  0  0  0
  191.1690  175.0710  137.0620 O   0  0  0  0  0  0  0  0  0  0  0  0
  191.9670  174.7580  138.0920 O   0  0  0  0  0  0  0  0  0  0  0  0
  193.1410  174.2910  137.4950 C   0  0  0  0  0  1  0  0  0  0  0  0
  190.5580  177.8830  143.0140 C   0  0  0  0  0  2  0  0  0  0  0  0
  189.6940  176.9380  147.1060 C   0  0  0  0  0  3  0  0  0  0  0  0
  188.9430  177.5920  144.8970 C   0  0  0  0  0  3  0  0  0  0  0  0
  191.3020  177.2320  145.3180 C   0  0  0  0  0  3  0  0  0  0  0  0
  190.2660  177.5800  144.4420 C   0  0  0  0  0  0  0  0  0  0  0  0
  192.0400  176.5600  147.5180 O   0  0  0  0  0  1  0  0  0  0  0  0
  187.3770  177.2980  146.6710 F   0  0  0  0  0  0  0  0  0  0  0  0
  191.0140  176.9090  146.6490 C   0  0  0  0  0  0  0  0  0  0  0  0
  188.6570  177.2750  146.2290 C   0  0  0  0  0  0  0  0  0  0  0  0
  1 25  1  0  0  0  0
  2  1  1  0  0  0  0
  3 10  1  0  0  0  0
  3  8  1  0  0  0  0
  5  4  1  0  0  0  0
  5  7  1  0  0  0  0
  6 12  1  0  0  0  0
  8 13  1  0  0  0  0
  8  6  2  0  0  0  0
  9  2  1  0  0  0  0
  9  6  1  0  0  0  0
 10 14  1  6  0  0  0
 10  9  1  0  0  0  0
 11  2  2  0  0  0  0
 12  7  2  0  0  0  0
 13  5  2  0  0  0  0
 15 14  2  0  0  0  0
 16 15  1  0  0  0  0
 17 16  2  0  0  0  0
 17 19  1  0  0  0  0
 18 14  1  0  0  0  0
 19 18  2  0  0  0  0
 20 21  1  0  0  0  0
 21 17  1  0  0  0  0
 22 19  1  0  0  0  0
 22 23  1  0  0  0  0
 24 23  1  0  0  0  0
 25 29  1  0  0  0  0
 27 33  1  0  0  0  0
 28 32  2  0  0  0  0
 29 27  2  0  0  0  0
 29 28  1  0  0  0  0
 32 26  1  0  0  0  0
 32 30  1  0  0  0  0
 33 31  1  0  0  0  0
 33 26  2  0  0  0  0
M  END
>  <MODEL>
9

>  <REMARK>
 VINA RESULT:      -7.3      2.046      2.527
  Name = 
  6 active torsions:
  status: ('A' for Active; 'I' for Inactive)
    1  A    between atoms: N_1  and  C_12
    2  A    between atoms: C_3  and  C_26
    3  A    between atoms: O_10  and  O_29
    4  A    between atoms: C_12  and  C_14
    5  A    between atoms: C_21  and  O_33
    6  A    between atoms: C_27  and  O_29
                            x       y       z     vdW  Elec       q    Type
                         _______ _______ _______ _____ _____    ______ ____

>  <TORSDO>
F 6

$$$$
