=
 OpenBabel10222422013D

 44 50  0  0  1  0  0  0  0  0999 V2000
  193.0140  176.2530  137.7310 C   0  0  0  0  0  0  0  0  0  0  0  0
  186.9540  178.4670  139.8690 C   0  0  0  0  0  0  0  0  0  0  0  0
  191.2710  177.2950  140.2250 C   0  0  0  0  0  0  0  0  0  0  0  0
  193.4830  176.8360  138.9080 C   0  0  0  0  0  2  0  0  0  0  0  0
  190.5780  177.3520  141.3620 N   0  0  0  0  0  0  0  0  0  0  0  0
  188.3240  178.2410  141.8870 C   0  0  0  0  0  3  0  0  0  0  0  0
  189.4120  177.8300  141.0090 C   0  0  0  0  0  0  0  0  0  0  0  0
  190.3850  177.2740  139.2340 C   0  0  0  0  0  0  0  0  0  0  0  0
  188.0210  178.0020  139.0030 C   0  0  0  0  0  3  0  0  0  0  0  0
  191.4750  175.9750  137.3050 C   0  0  0  0  0  3  0  0  0  0  0  0
  189.2320  177.7220  139.6450 C   0  0  0  0  0  0  0  0  0  0  0  0
  192.5450  177.2340  140.1990 C   0  0  0  0  0  3  0  0  0  0  0  0
  187.1350  178.5830  141.2970 C   0  0  0  0  0  3  0  0  0  0  0  0
  190.3420  176.6110  138.1320 C   0  0  0  0  0  3  0  0  0  0  0  0
  184.1110  177.1250  138.2710 O   0  0  0  0  0  0  0  0  0  0  0  0
  185.9880  177.8940  137.0000 N   0  0  0  0  0  1  0  0  0  0  0  0
  185.1330  177.9080  138.1860 C   0  0  0  0  0  0  0  0  0  0  0  0
  185.6180  178.6970  139.3380 N   0  0  0  0  0  2  0  0  0  0  0  0
  193.8600  175.5730  136.8040 C   0  0  0  0  0  0  0  0  0  0  0  0
  193.4820  175.3860  135.5990 O   0  0  0  0  0  0  0  0  0  0  0  0
  195.1210  175.0260  137.3770 N   0  0  0  0  0  2  0  0  0  0  0  0
  198.8320  173.9430  135.7050 C   0  0  0  0  0  3  0  0  0  0  0  0
  198.3200  175.1950  135.4030 C   0  0  0  0  0  3  0  0  0  0  0  0
  196.4690  176.7070  135.4300 F   0  0  0  0  0  0  0  0  0  0  0  0
  197.0040  175.4940  135.7210 C   0  0  0  0  0  0  0  0  0  0  0  0
  196.3360  174.6600  136.6550 C   0  0  0  0  0  0  0  0  0  0  0  0
  196.9040  173.4450  137.0280 C   0  0  0  0  0  3  0  0  0  0  0  0
  198.2170  173.1690  136.7130 C   0  0  0  0  0  3  0  0  0  0  0  0
  190.5150  176.3070  142.3190 C   0  0  0  0  0  2  0  0  0  0  0  0
  191.4960  176.3840  143.3980 C   0  0  0  0  0  2  0  0  0  0  0  0
  191.1260  177.3100  144.5210 N   0  0  0  0  0  2  0  0  0  0  0  0
  191.0260  176.7960  145.9340 C   0  0  0  0  0  2  0  0  0  0  0  0
  189.3370  177.6090  147.8630 C   0  0  0  0  0  3  0  0  0  0  0  0
  186.1830  177.9760  144.8150 C   0  0  0  0  0  2  0  0  0  0  0  0
  187.9820  178.0100  148.1300 C   0  0  0  0  0  3  0  0  0  0  0  0
  187.4390  177.9400  145.7200 C   0  0  0  0  0  0  0  0  0  0  0  0
  188.6400  177.4660  145.3620 C   0  0  0  0  0  3  0  0  0  0  0  0
  185.6560  178.4370  147.0090 C   0  0  0  0  0  2  0  0  0  0  0  0
  185.3510  178.8130  145.6630 N   0  0  2  0  0  0  0  0  0  0  0  0
  187.0940  178.1580  147.0250 C   0  0  0  0  0  0  0  0  0  0  0  0
  189.6580  177.3080  146.4200 C   0  0  0  0  0  0  0  0  0  0  0  0
  184.0030  178.5090  143.7470 C   0  0  0  0  0  2  0  0  0  0  0  0
  183.9750  178.7120  145.1660 C   0  0  0  0  0  3  0  0  0  0  0  0
  183.8140  179.9500  144.0780 C   0  0  0  0  0  2  0  0  0  0  0  0
  1  4  1  0  0  0  0
  2 13  1  0  0  0  0
  3  5  1  0  0  0  0
  4 12  1  0  0  0  0
  5 29  1  0  0  0  0
  7  5  1  0  0  0  0
  7  6  1  0  0  0  0
  8 11  1  0  0  0  0
  8  3  1  0  0  0  0
  9 11  1  0  0  0  0
  9  2  2  0  0  0  0
 10  1  2  0  0  0  0
 10 14  1  0  0  0  0
 11  7  2  0  0  0  0
 12  3  2  0  0  0  0
 13  6  2  0  0  0  0
 14  8  2  0  0  0  0
 16 17  1  0  0  0  0
 17 15  2  0  0  0  0
 17 18  1  0  0  0  0
 18  2  1  0  0  0  0
 19 21  1  0  0  0  0
 19  1  1  0  0  0  0
 20 19  2  0  0  0  0
 22 28  1  0  0  0  0
 23 22  2  0  0  0  0
 23 25  1  0  0  0  0
 24 25  1  0  0  0  0
 25 26  2  0  0  0  0
 26 27  1  0  0  0  0
 26 21  1  0  0  0  0
 28 27  2  0  0  0  0
 29 30  1  0  0  0  0
 30 31  1  0  0  0  0
 31 32  1  0  0  0  0
 32 41  1  0  0  0  0
 33 35  1  0  0  0  0
 34 39  1  0  0  0  0
 34 36  1  0  0  0  0
 36 40  1  0  0  0  0
 37 36  2  0  0  0  0
 37 41  1  0  0  0  0
 38 40  1  0  0  0  0
 39 43  1  6  0  0  0
 39 38  1  0  0  0  0
 40 35  2  0  0  0  0
 41 33  2  0  0  0  0
 42 44  1  0  0  0  0
 42 43  1  0  0  0  0
 44 43  1  0  0  0  0
M  END
>  <MODEL>
1

>  <REMARK>
 VINA RESULT:     -10.6      0.000      0.000
  Name = 
  9 active torsions:
  status: ('A' for Active; 'I' for Inactive)
    1  A    between atoms: C_1  and  C_7
    2  A    between atoms: C_2  and  N_44
    3  A    between atoms: C_10  and  N_35
    4  A    between atoms: N_11  and  C_43
    5  A    between atoms: N_19  and  C_24
    6  A    between atoms: N_19  and  C_26
    7  A    between atoms: C_24  and  C_37
    8  A    between atoms: C_25  and  N_42
    9  A    between atoms: C_26  and  C_43
                            x       y       z     vdW  Elec       q    Type
                         _______ _______ _______ _____ _____    ______ ____

>  <TORSDO>
F 9

$$$$
=
 OpenBabel10222422013D

 44 50  0  0  1  0  0  0  0  0999 V2000
  189.1070  177.5780  141.3610 C   0  0  0  0  0  0  0  0  0  0  0  0
  192.3910  176.0760  135.6020 C   0  0  0  0  0  0  0  0  0  0  0  0
  188.9450  177.4020  138.1540 C   0  0  0  0  0  0  0  0  0  0  0  0
  188.2370  178.2680  140.5170 C   0  0  0  0  0  3  0  0  0  0  0  0
  188.6490  177.0240  136.9090 N   0  0  0  0  0  0  0  0  0  0  0  0
  190.0760  176.5340  134.9420 C   0  0  0  0  0  3  0  0  0  0  0  0
  189.8120  176.8140  136.3480 C   0  0  0  0  0  0  0  0  0  0  0  0
  190.1680  176.9510  138.4120 C   0  0  0  0  0  0  0  0  0  0  0  0
  192.1120  176.2990  137.0090 C   0  0  0  0  0  3  0  0  0  0  0  0
  190.2750  176.5340  140.9440 C   0  0  0  0  0  2  0  0  0  0  0  0
  190.8010  176.6880  137.3030 C   0  0  0  0  0  0  0  0  0  0  0  0
  188.1230  178.0380  138.8920 C   0  0  0  0  0  3  0  0  0  0  0  0
  191.3620  176.2070  134.5970 C   0  0  0  0  0  3  0  0  0  0  0  0
  190.6860  176.4210  139.4640 C   0  0  0  0  0  3  0  0  0  0  0  0
  195.7960  175.5860  136.3780 O   0  0  0  0  0  0  0  0  0  0  0  0
  195.0270  177.6640  135.4710 N   0  0  0  0  0  1  0  0  0  0  0  0
  194.9280  176.2170  135.6620 C   0  0  0  0  0  0  0  0  0  0  0  0
  193.6890  175.5740  135.1760 N   0  0  0  0  0  2  0  0  0  0  0  0
  188.9300  177.5040  142.7750 C   0  0  0  0  0  0  0  0  0  0  0  0
  187.7990  177.1770  143.2700 O   0  0  0  0  0  0  0  0  0  0  0  0
  190.1020  177.9330  143.5850 N   0  0  0  0  0  2  0  0  0  0  0  0
  190.9430  176.5390  147.4710 C   0  0  0  0  0  3  0  0  0  0  0  0
  189.7100  177.1260  147.2400 C   0  0  0  0  0  3  0  0  0  0  0  0
  188.2940  178.4130  145.8060 F   0  0  0  0  0  0  0  0  0  0  0  0
  189.4870  177.8180  146.0590 C   0  0  0  0  0  0  0  0  0  0  0  0
  190.3840  177.6020  144.9790 C   0  0  0  0  0  0  0  0  0  0  0  0
  191.5800  176.9250  145.1980 C   0  0  0  0  0  3  0  0  0  0  0  0
  191.7800  176.2340  146.3750 C   0  0  0  0  0  3  0  0  0  0  0  0
  187.6570  176.0680  136.5730 C   0  0  0  0  0  2  0  0  0  0  0  0
  186.3730  176.6200  136.1490 C   0  0  0  0  0  2  0  0  0  0  0  0
  185.3350  176.7010  137.2320 N   0  0  0  0  0  2  0  0  0  0  0  0
  183.9840  177.3060  136.9510 C   0  0  0  0  0  2  0  0  0  0  0  0
  181.9500  177.4330  138.7070 C   0  0  0  0  0  3  0  0  0  0  0  0
  184.7600  179.0120  141.7030 C   0  0  0  0  0  2  0  0  0  0  0  0
  181.5900  177.8180  140.0440 C   0  0  0  0  0  3  0  0  0  0  0  0
  183.9510  178.3080  140.5860 C   0  0  0  0  0  0  0  0  0  0  0  0
  184.3880  178.0740  139.3420 C   0  0  0  0  0  3  0  0  0  0  0  0
  182.5420  178.7880  142.2800 C   0  0  0  0  0  2  0  0  0  0  0  0
  183.8680  178.7160  142.8120 N   0  0  2  0  0  0  0  0  0  0  0  0
  182.6290  178.2390  140.9250 C   0  0  0  0  0  0  0  0  0  0  0  0
  183.4070  177.5920  138.3490 C   0  0  0  0  0  0  0  0  0  0  0  0
  185.1370  178.8470  144.8000 C   0  0  0  0  0  2  0  0  0  0  0  0
  184.2590  179.5760  143.9320 C   0  0  0  0  0  3  0  0  0  0  0  0
  183.7310  178.7880  145.2910 C   0  0  0  0  0  2  0  0  0  0  0  0
  1 19  1  0  0  0  0
  2  9  1  0  0  0  0
  3  8  1  0  0  0  0
  3 12  2  0  0  0  0
  4  1  2  0  0  0  0
  5  3  1  0  0  0  0
  6  7  2  0  0  0  0
  7  5  1  0  0  0  0
  7 11  1  0  0  0  0
  8 14  2  0  0  0  0
  9 11  2  0  0  0  0
 10  1  1  0  0  0  0
 11  8  1  0  0  0  0
 12  4  1  0  0  0  0
 13  6  1  0  0  0  0
 13  2  2  0  0  0  0
 14 10  1  0  0  0  0
 16 17  1  0  0  0  0
 17 15  2  0  0  0  0
 18  2  1  0  0  0  0
 18 17  1  0  0  0  0
 19 20  2  0  0  0  0
 19 21  1  0  0  0  0
 21 26  1  0  0  0  0
 23 22  1  0  0  0  0
 24 25  1  0  0  0  0
 25 23  2  0  0  0  0
 26 27  2  0  0  0  0
 26 25  1  0  0  0  0
 27 28  1  0  0  0  0
 28 22  2  0  0  0  0
 29  5  1  0  0  0  0
 30 29  1  0  0  0  0
 30 31  1  0  0  0  0
 32 31  1  0  0  0  0
 32 41  1  0  0  0  0
 33 35  1  0  0  0  0
 34 39  1  0  0  0  0
 35 40  2  0  0  0  0
 36 40  1  0  0  0  0
 36 34  1  0  0  0  0
 37 36  2  0  0  0  0
 38 39  1  0  0  0  0
 39 43  1  1  0  0  0
 40 38  1  0  0  0  0
 41 33  2  0  0  0  0
 41 37  1  0  0  0  0
 42 44  1  0  0  0  0
 43 42  1  0  0  0  0
 43 44  1  0  0  0  0
M  END
>  <MODEL>
2

>  <REMARK>
 VINA RESULT:     -10.2      3.002      8.336
  Name = 
  9 active torsions:
  status: ('A' for Active; 'I' for Inactive)
    1  A    between atoms: C_1  and  C_7
    2  A    between atoms: C_2  and  N_44
    3  A    between atoms: C_10  and  N_35
    4  A    between atoms: N_11  and  C_43
    5  A    between atoms: N_19  and  C_24
    6  A    between atoms: N_19  and  C_26
    7  A    between atoms: C_24  and  C_37
    8  A    between atoms: C_25  and  N_42
    9  A    between atoms: C_26  and  C_43
                            x       y       z     vdW  Elec       q    Type
                         _______ _______ _______ _____ _____    ______ ____

>  <TORSDO>
F 9

$$$$
=
 OpenBabel10222422013D

 44 50  0  0  1  0  0  0  0  0999 V2000
  189.9510  178.0760  141.9370 C   0  0  0  0  0  0  0  0  0  0  0  0
  192.4660  175.9540  135.9900 C   0  0  0  0  0  0  0  0  0  0  0  0
  189.3220  177.3650  138.8650 C   0  0  0  0  0  0  0  0  0  0  0  0
  188.8890  178.5380  141.1610 C   0  0  0  0  0  3  0  0  0  0  0  0
  188.8850  176.7640  137.7570 N   0  0  0  0  0  0  0  0  0  0  0  0
  190.0400  176.0880  135.6710 C   0  0  0  0  0  3  0  0  0  0  0  0
  189.9640  176.5690  137.0450 C   0  0  0  0  0  0  0  0  0  0  0  0
  190.6140  177.0740  138.9760 C   0  0  0  0  0  0  0  0  0  0  0  0
  192.3820  176.3780  137.3750 C   0  0  0  0  0  3  0  0  0  0  0  0
  191.1540  177.0870  141.4870 C   0  0  0  0  0  2  0  0  0  0  0  0
  191.0950  176.6900  137.8260 C   0  0  0  0  0  0  0  0  0  0  0  0
  188.5550  178.0370  139.6310 C   0  0  0  0  0  3  0  0  0  0  0  0
  191.2880  175.8250  135.1650 C   0  0  0  0  0  3  0  0  0  0  0  0
  191.3440  176.7710  139.9910 C   0  0  0  0  0  3  0  0  0  0  0  0
  195.9640  175.7020  136.3600 O   0  0  0  0  0  0  0  0  0  0  0  0
  194.9610  177.6840  135.4670 N   0  0  0  0  0  1  0  0  0  0  0  0
  194.9780  176.2450  135.7300 C   0  0  0  0  0  0  0  0  0  0  0  0
  193.7330  175.5070  135.4290 N   0  0  0  0  0  2  0  0  0  0  0  0
  190.0030  178.2190  143.3560 C   0  0  0  0  0  0  0  0  0  0  0  0
  190.6590  179.1770  143.8870 O   0  0  0  0  0  0  0  0  0  0  0  0
  189.3430  177.1310  144.1290 N   0  0  0  0  0  2  0  0  0  0  0  0
  187.8780  177.7200  148.0340 C   0  0  0  0  0  3  0  0  0  0  0  0
  189.2310  177.4670  147.8750 C   0  0  0  0  0  3  0  0  0  0  0  0
  191.0260  176.7550  146.4650 F   0  0  0  0  0  0  0  0  0  0  0  0
  189.7090  177.0220  146.6510 C   0  0  0  0  0  0  0  0  0  0  0  0
  188.8780  177.1840  145.5120 C   0  0  0  0  0  0  0  0  0  0  0  0
  187.5400  177.5330  145.6740 C   0  0  0  0  0  3  0  0  0  0  0  0
  187.0860  177.9830  146.8960 C   0  0  0  0  0  3  0  0  0  0  0  0
  187.9690  175.6800  137.7380 C   0  0  0  0  0  2  0  0  0  0  0  0
  186.7420  175.9100  136.9810 C   0  0  0  0  0  2  0  0  0  0  0  0
  185.9900  177.1530  137.3630 N   0  0  0  0  0  2  0  0  0  0  0  0
  184.5930  177.3900  136.8490 C   0  0  0  0  0  2  0  0  0  0  0  0
  182.2800  177.3470  138.2200 C   0  0  0  0  0  3  0  0  0  0  0  0
  184.3980  179.0880  141.6630 C   0  0  0  0  0  2  0  0  0  0  0  0
  181.6630  177.6880  139.4740 C   0  0  0  0  0  3  0  0  0  0  0  0
  183.8510  178.3410  140.4210 C   0  0  0  0  0  0  0  0  0  0  0  0
  184.5150  178.1550  139.2730 C   0  0  0  0  0  3  0  0  0  0  0  0
  182.1350  178.6960  141.8420 C   0  0  0  0  0  2  0  0  0  0  0  0
  183.3500  178.7130  142.5980 N   0  0  2  0  0  0  0  0  0  0  0  0
  182.4980  178.1720  140.5230 C   0  0  0  0  0  0  0  0  0  0  0  0
  183.7610  177.6160  138.1240 C   0  0  0  0  0  0  0  0  0  0  0  0
  184.8070  179.4900  144.2860 C   0  0  0  0  0  2  0  0  0  0  0  0
  183.4740  179.5860  143.7700 C   0  0  0  0  0  3  0  0  0  0  0  0
  183.8840  178.5790  145.0200 C   0  0  0  0  0  2  0  0  0  0  0  0
  1 19  1  0  0  0  0
  2  9  1  0  0  0  0
  3  8  1  0  0  0  0
  3 12  2  0  0  0  0
  4  1  2  0  0  0  0
  5  3  1  0  0  0  0
  6  7  2  0  0  0  0
  7  5  1  0  0  0  0
  7 11  1  0  0  0  0
  8 14  2  0  0  0  0
  9 11  2  0  0  0  0
 10  1  1  0  0  0  0
 11  8  1  0  0  0  0
 12  4  1  0  0  0  0
 13  6  1  0  0  0  0
 13  2  2  0  0  0  0
 14 10  1  0  0  0  0
 16 17  1  0  0  0  0
 17 15  2  0  0  0  0
 18 17  1  0  0  0  0
 18  2  1  0  0  0  0
 19 20  2  0  0  0  0
 19 21  1  0  0  0  0
 21 26  1  0  0  0  0
 23 22  1  0  0  0  0
 24 25  1  0  0  0  0
 25 23  2  0  0  0  0
 26 27  2  0  0  0  0
 26 25  1  0  0  0  0
 27 28  1  0  0  0  0
 28 22  2  0  0  0  0
 29  5  1  0  0  0  0
 30 31  1  0  0  0  0
 30 29  1  0  0  0  0
 32 31  1  0  0  0  0
 32 41  1  0  0  0  0
 33 35  1  0  0  0  0
 34 39  1  0  0  0  0
 35 40  2  0  0  0  0
 36 40  1  0  0  0  0
 36 34  1  0  0  0  0
 37 36  2  0  0  0  0
 38 39  1  0  0  0  0
 39 43  1  1  0  0  0
 40 38  1  0  0  0  0
 41 33  2  0  0  0  0
 41 37  1  0  0  0  0
 42 44  1  0  0  0  0
 43 42  1  0  0  0  0
 43 44  1  0  0  0  0
M  END
>  <MODEL>
3

>  <REMARK>
 VINA RESULT:     -10.1      2.976      8.677
  Name = 
  9 active torsions:
  status: ('A' for Active; 'I' for Inactive)
    1  A    between atoms: C_1  and  C_7
    2  A    between atoms: C_2  and  N_44
    3  A    between atoms: C_10  and  N_35
    4  A    between atoms: N_11  and  C_43
    5  A    between atoms: N_19  and  C_24
    6  A    between atoms: N_19  and  C_26
    7  A    between atoms: C_24  and  C_37
    8  A    between atoms: C_25  and  N_42
    9  A    between atoms: C_26  and  C_43
                            x       y       z     vdW  Elec       q    Type
                         _______ _______ _______ _____ _____    ______ ____

>  <TORSDO>
F 9

$$$$
=
 OpenBabel10222422013D

 44 50  0  0  1  0  0  0  0  0999 V2000
  185.2040  178.4650  141.9700 C   0  0  0  0  0  0  0  0  0  0  0  0
  190.4810  177.2140  146.0680 C   0  0  0  0  0  0  0  0  0  0  0  0
  188.3980  178.1720  142.2100 C   0  0  0  0  0  0  0  0  0  0  0  0
  186.1710  179.0130  141.1280 C   0  0  0  0  0  3  0  0  0  0  0  0
  189.6490  177.7210  142.1110 N   0  0  0  0  0  0  0  0  0  0  0  0
  191.4180  177.3550  143.8080 C   0  0  0  0  0  3  0  0  0  0  0  0
  190.0650  177.6420  143.3480 C   0  0  0  0  0  0  0  0  0  0  0  0
  187.9830  177.8870  143.4400 C   0  0  0  0  0  0  0  0  0  0  0  0
  189.1270  177.4440  145.6000 C   0  0  0  0  0  3  0  0  0  0  0  0
  185.4390  177.5640  143.2980 C   0  0  0  0  0  2  0  0  0  0  0  0
  189.0000  177.6720  144.2260 C   0  0  0  0  0  0  0  0  0  0  0  0
  187.7860  178.7210  141.2350 C   0  0  0  0  0  3  0  0  0  0  0  0
  191.6010  177.1830  145.1560 C   0  0  0  0  0  3  0  0  0  0  0  0
  186.8560  177.4590  143.8910 C   0  0  0  0  0  3  0  0  0  0  0  0
  192.8370  176.8650  148.6690 O   0  0  0  0  0  0  0  0  0  0  0  0
  192.4580  175.0920  147.1050 N   0  0  0  0  0  1  0  0  0  0  0  0
  192.0320  176.2760  147.8500 C   0  0  0  0  0  0  0  0  0  0  0  0
  190.7350  176.8680  147.4580 N   0  0  0  0  0  2  0  0  0  0  0  0
  183.8170  178.4130  141.6390 C   0  0  0  0  0  0  0  0  0  0  0  0
  182.9520  178.9930  142.3780 O   0  0  0  0  0  0  0  0  0  0  0  0
  183.4760  177.5620  140.4650 N   0  0  0  0  0  2  0  0  0  0  0  0
  180.1190  177.3340  137.9310 C   0  0  0  0  0  3  0  0  0  0  0  0
  181.0070  178.3820  137.7460 C   0  0  0  0  0  3  0  0  0  0  0  0
  182.8540  179.6640  138.5590 F   0  0  0  0  0  0  0  0  0  0  0  0
  181.9760  178.6390  138.7040 C   0  0  0  0  0  0  0  0  0  0  0  0
  182.2650  177.6220  139.6520 C   0  0  0  0  0  0  0  0  0  0  0  0
  181.4190  176.5220  139.7650 C   0  0  0  0  0  3  0  0  0  0  0  0
  180.4680  176.2770  138.7980 C   0  0  0  0  0  3  0  0  0  0  0  0
  190.0520  176.6380  141.2890 C   0  0  0  0  0  2  0  0  0  0  0  0
  190.9660  176.9800  140.2030 C   0  0  0  0  0  2  0  0  0  0  0  0
  190.9090  176.0580  139.0180 N   0  0  0  0  0  2  0  0  0  0  0  0
  190.8250  176.6140  137.6210 C   0  0  0  0  0  2  0  0  0  0  0  0
  188.8780  178.4670  137.5210 C   0  0  0  0  0  3  0  0  0  0  0  0
  185.9330  175.2160  137.1750 C   0  0  0  0  0  2  0  0  0  0  0  0
  187.4550  178.6570  137.4390 C   0  0  0  0  0  3  0  0  0  0  0  0
  187.1050  176.2270  137.1480 C   0  0  0  0  0  0  0  0  0  0  0  0
  188.3980  175.9210  137.3120 C   0  0  0  0  0  3  0  0  0  0  0  0
  185.1740  177.3890  137.2480 C   0  0  0  0  0  2  0  0  0  0  0  0
  184.8910  176.1050  136.6860 N   0  0  2  0  0  0  0  0  0  0  0  0
  186.6340  177.5070  137.2510 C   0  0  0  0  0  0  0  0  0  0  0  0
  189.3520  177.0360  137.4750 C   0  0  0  0  0  0  0  0  0  0  0  0
  183.4320  174.3670  136.0290 C   0  0  0  0  0  2  0  0  0  0  0  0
  183.6020  175.4560  136.9460 C   0  0  0  0  0  3  0  0  0  0  0  0
  182.7520  175.5960  135.5310 C   0  0  0  0  0  2  0  0  0  0  0  0
  1 10  1  0  0  0  0
  2 18  1  0  0  0  0
  3  8  1  0  0  0  0
  4 12  1  0  0  0  0
  4  1  2  0  0  0  0
  5  3  1  0  0  0  0
  5  7  1  0  0  0  0
  6 13  1  0  0  0  0
  7  6  2  0  0  0  0
  7 11  1  0  0  0  0
  8 14  2  0  0  0  0
  8 11  1  0  0  0  0
  9  2  1  0  0  0  0
 10 14  1  0  0  0  0
 11  9  2  0  0  0  0
 12  3  2  0  0  0  0
 13  2  2  0  0  0  0
 16 17  1  0  0  0  0
 17 15  2  0  0  0  0
 18 17  1  0  0  0  0
 19  1  1  0  0  0  0
 19 20  2  0  0  0  0
 21 19  1  0  0  0  0
 22 28  1  0  0  0  0
 23 22  2  0  0  0  0
 23 25  1  0  0  0  0
 24 25  1  0  0  0  0
 25 26  2  0  0  0  0
 26 27  1  0  0  0  0
 26 21  1  0  0  0  0
 28 27  2  0  0  0  0
 29  5  1  0  0  0  0
 30 29  1  0  0  0  0
 31 30  1  0  0  0  0
 32 31  1  0  0  0  0
 35 33  2  0  0  0  0
 36 34  1  0  0  0  0
 36 40  2  0  0  0  0
 36 37  1  0  0  0  0
 37 41  2  0  0  0  0
 38 40  1  0  0  0  0
 39 43  1  1  0  0  0
 39 34  1  0  0  0  0
 39 38  1  0  0  0  0
 40 35  1  0  0  0  0
 41 33  1  0  0  0  0
 41 32  1  0  0  0  0
 42 43  1  0  0  0  0
 44 42  1  0  0  0  0
 44 43  1  0  0  0  0
M  END
>  <MODEL>
4

>  <REMARK>
 VINA RESULT:     -10.0      4.529     10.252
  Name = 
  9 active torsions:
  status: ('A' for Active; 'I' for Inactive)
    1  A    between atoms: C_1  and  C_7
    2  A    between atoms: C_2  and  N_44
    3  A    between atoms: C_10  and  N_35
    4  A    between atoms: N_11  and  C_43
    5  A    between atoms: N_19  and  C_24
    6  A    between atoms: N_19  and  C_26
    7  A    between atoms: C_24  and  C_37
    8  A    between atoms: C_25  and  N_42
    9  A    between atoms: C_26  and  C_43
                            x       y       z     vdW  Elec       q    Type
                         _______ _______ _______ _____ _____    ______ ____

>  <TORSDO>
F 9

$$$$
=
 OpenBabel10222422013D

 44 50  0  0  1  0  0  0  0  0999 V2000
  189.0750  177.8870  141.4040 C   0  0  0  0  0  0  0  0  0  0  0  0
  192.4330  175.7870  135.8800 C   0  0  0  0  0  0  0  0  0  0  0  0
  188.9620  177.3930  138.2290 C   0  0  0  0  0  0  0  0  0  0  0  0
  188.2260  178.4970  140.4820 C   0  0  0  0  0  3  0  0  0  0  0  0
  188.6820  176.8960  137.0230 N   0  0  0  0  0  0  0  0  0  0  0  0
  190.1340  176.1980  135.1390 C   0  0  0  0  0  3  0  0  0  0  0  0
  189.8510  176.6190  136.5060 C   0  0  0  0  0  0  0  0  0  0  0  0
  190.1760  176.9590  138.5510 C   0  0  0  0  0  0  0  0  0  0  0  0
  192.1350  176.1520  137.2530 C   0  0  0  0  0  3  0  0  0  0  0  0
  190.2380  176.7950  141.1140 C   0  0  0  0  0  2  0  0  0  0  0  0
  190.8230  176.5800  137.4850 C   0  0  0  0  0  0  0  0  0  0  0  0
  188.1360  178.1070  138.8860 C   0  0  0  0  0  3  0  0  0  0  0  0
  191.4220  175.8260  134.8500 C   0  0  0  0  0  3  0  0  0  0  0  0
  190.6710  176.5310  139.6590 C   0  0  0  0  0  3  0  0  0  0  0  0
  195.8460  175.4440  136.6990 O   0  0  0  0  0  0  0  0  0  0  0  0
  195.0570  177.3510  135.4860 N   0  0  0  0  0  1  0  0  0  0  0  0
  194.9700  175.9510  135.9000 C   0  0  0  0  0  0  0  0  0  0  0  0
  193.7320  175.2320  135.5290 N   0  0  0  0  0  2  0  0  0  0  0  0
  188.8750  177.9560  142.8160 C   0  0  0  0  0  0  0  0  0  0  0  0
  189.7880  178.4220  143.5770 O   0  0  0  0  0  0  0  0  0  0  0  0
  187.6040  177.3580  143.3080 N   0  0  0  0  0  2  0  0  0  0  0  0
  185.6510  178.5570  146.8430 C   0  0  0  0  0  3  0  0  0  0  0  0
  186.9420  178.0640  146.9450 C   0  0  0  0  0  3  0  0  0  0  0  0
  188.7830  176.9270  145.9270 F   0  0  0  0  0  0  0  0  0  0  0  0
  187.5240  177.4300  145.8570 C   0  0  0  0  0  0  0  0  0  0  0  0
  186.9360  177.6200  144.5790 C   0  0  0  0  0  0  0  0  0  0  0  0
  185.6770  178.2060  144.4780 C   0  0  0  0  0  3  0  0  0  0  0  0
  185.1180  178.8410  145.5670 C   0  0  0  0  0  3  0  0  0  0  0  0
  187.6850  175.9200  136.7680 C   0  0  0  0  0  2  0  0  0  0  0  0
  186.5630  176.3700  135.9490 C   0  0  0  0  0  2  0  0  0  0  0  0
  185.4110  176.9470  136.7220 N   0  0  0  0  0  2  0  0  0  0  0  0
  184.4760  176.0470  137.4870 C   0  0  0  0  0  2  0  0  0  0  0  0
  182.5260  177.8770  137.1970 C   0  0  0  0  0  3  0  0  0  0  0  0
  182.2990  178.1890  141.5810 C   0  0  0  0  0  2  0  0  0  0  0  0
  181.6460  178.7620  137.9100 C   0  0  0  0  0  3  0  0  0  0  0  0
  182.4050  177.8420  140.0750 C   0  0  0  0  0  0  0  0  0  0  0  0
  183.3330  177.0490  139.5260 C   0  0  0  0  0  3  0  0  0  0  0  0
  180.9340  179.5370  140.3060 C   0  0  0  0  0  2  0  0  0  0  0  0
  180.9930  178.8270  141.5470 N   0  0  2  0  0  0  0  0  0  0  0  0
  181.6320  178.6920  139.3350 C   0  0  0  0  0  0  0  0  0  0  0  0
  183.4140  177.0070  138.0520 C   0  0  0  0  0  0  0  0  0  0  0  0
  181.4430  178.7960  143.8660 C   0  0  0  0  0  2  0  0  0  0  0  0
  180.8210  179.5450  142.8140 C   0  0  0  0  0  3  0  0  0  0  0  0
  179.9830  178.5050  143.7940 C   0  0  0  0  0  2  0  0  0  0  0  0
  1 19  1  0  0  0  0
  2  9  1  0  0  0  0
  3  8  1  0  0  0  0
  3 12  2  0  0  0  0
  4  1  2  0  0  0  0
  5  3  1  0  0  0  0
  6  7  2  0  0  0  0
  7  5  1  0  0  0  0
  7 11  1  0  0  0  0
  8 14  2  0  0  0  0
  9 11  2  0  0  0  0
 10  1  1  0  0  0  0
 11  8  1  0  0  0  0
 12  4  1  0  0  0  0
 13  6  1  0  0  0  0
 13  2  2  0  0  0  0
 14 10  1  0  0  0  0
 16 17  1  0  0  0  0
 17 15  2  0  0  0  0
 18  2  1  0  0  0  0
 18 17  1  0  0  0  0
 19 21  1  0  0  0  0
 19 20  2  0  0  0  0
 21 26  1  0  0  0  0
 22 23  1  0  0  0  0
 25 24  1  0  0  0  0
 25 23  2  0  0  0  0
 26 25  1  0  0  0  0
 27 26  2  0  0  0  0
 27 28  1  0  0  0  0
 28 22  2  0  0  0  0
 29  5  1  0  0  0  0
 30 31  1  0  0  0  0
 30 29  1  0  0  0  0
 31 32  1  0  0  0  0
 32 41  1  0  0  0  0
 33 35  2  0  0  0  0
 33 41  1  0  0  0  0
 35 40  1  0  0  0  0
 36 34  1  0  0  0  0
 37 36  1  0  0  0  0
 38 39  1  0  0  0  0
 39 34  1  0  0  0  0
 39 43  1  1  0  0  0
 40 36  2  0  0  0  0
 40 38  1  0  0  0  0
 41 37  2  0  0  0  0
 43 44  1  0  0  0  0
 43 42  1  0  0  0  0
 44 42  1  0  0  0  0
M  END
>  <MODEL>
5

>  <REMARK>
 VINA RESULT:      -9.8      3.290      9.249
  Name = 
  9 active torsions:
  status: ('A' for Active; 'I' for Inactive)
    1  A    between atoms: C_1  and  C_7
    2  A    between atoms: C_2  and  N_44
    3  A    between atoms: C_10  and  N_35
    4  A    between atoms: N_11  and  C_43
    5  A    between atoms: N_19  and  C_24
    6  A    between atoms: N_19  and  C_26
    7  A    between atoms: C_24  and  C_37
    8  A    between atoms: C_25  and  N_42
    9  A    between atoms: C_26  and  C_43
                            x       y       z     vdW  Elec       q    Type
                         _______ _______ _______ _____ _____    ______ ____

>  <TORSDO>
F 9

$$$$
=
 OpenBabel10222422013D

 44 50  0  0  1  0  0  0  0  0999 V2000
  191.4230  176.9610  140.2100 C   0  0  0  0  0  0  0  0  0  0  0  0
  187.7320  177.5710  145.8850 C   0  0  0  0  0  0  0  0  0  0  0  0
  188.4820  177.2850  141.4700 C   0  0  0  0  0  0  0  0  0  0  0  0
  190.2080  176.6010  139.6290 C   0  0  0  0  0  3  0  0  0  0  0  0
  187.2990  177.7770  141.8390 N   0  0  0  0  0  0  0  0  0  0  0  0
  186.1540  177.8710  144.0360 C   0  0  0  0  0  3  0  0  0  0  0  0
  187.2800  177.6390  143.1390 C   0  0  0  0  0  0  0  0  0  0  0  0
  189.2680  177.3290  142.5410 C   0  0  0  0  0  0  0  0  0  0  0  0
  188.8620  177.3980  144.9910 C   0  0  0  0  0  3  0  0  0  0  0  0
  191.6700  177.6080  141.6760 C   0  0  0  0  0  2  0  0  0  0  0  0
  188.5530  177.4220  143.6270 C   0  0  0  0  0  0  0  0  0  0  0  0
  188.7280  176.9090  140.2760 C   0  0  0  0  0  3  0  0  0  0  0  0
  186.3980  177.7980  145.3830 C   0  0  0  0  0  3  0  0  0  0  0  0
  190.5080  177.6390  142.6870 C   0  0  0  0  0  3  0  0  0  0  0  0
  189.7840  178.6570  148.5410 O   0  0  0  0  0  0  0  0  0  0  0  0
  190.1690  176.5510  147.4700 N   0  0  0  0  0  1  0  0  0  0  0  0
  189.3050  177.6580  147.8800 C   0  0  0  0  0  0  0  0  0  0  0  0
  187.9360  177.6640  147.3240 N   0  0  0  0  0  2  0  0  0  0  0  0
  192.6470  177.0380  139.4800 C   0  0  0  0  0  0  0  0  0  0  0  0
  193.6510  177.6610  139.9630 O   0  0  0  0  0  0  0  0  0  0  0  0
  192.6110  176.4470  138.1140 N   0  0  0  0  0  2  0  0  0  0  0  0
  195.5830  175.0810  135.4600 C   0  0  0  0  0  3  0  0  0  0  0  0
  195.4120  174.4010  136.6560 C   0  0  0  0  0  3  0  0  0  0  0  0
  194.4520  174.3230  138.8440 F   0  0  0  0  0  0  0  0  0  0  0  0
  194.6310  174.9580  137.6570 C   0  0  0  0  0  0  0  0  0  0  0  0
  193.7470  176.0120  137.3070 C   0  0  0  0  0  0  0  0  0  0  0  0
  193.8620  176.6270  136.0640 C   0  0  0  0  0  3  0  0  0  0  0  0
  194.6350  176.0540  135.0760 C   0  0  0  0  0  3  0  0  0  0  0  0
  186.7570  179.0030  141.3750 C   0  0  0  0  0  2  0  0  0  0  0  0
  185.4910  178.8970  140.6550 C   0  0  0  0  0  2  0  0  0  0  0  0
  185.5820  179.1500  139.1770 N   0  0  0  0  0  2  0  0  0  0  0  0
  185.3450  178.0340  138.1940 C   0  0  0  0  0  2  0  0  0  0  0  0
  187.7340  178.9130  137.3240 C   0  0  0  0  0  3  0  0  0  0  0  0
  188.5800  174.8560  135.8420 C   0  0  0  0  0  2  0  0  0  0  0  0
  188.9340  178.5280  136.6320 C   0  0  0  0  0  3  0  0  0  0  0  0
  188.1860  176.1730  136.5550 C   0  0  0  0  0  0  0  0  0  0  0  0
  186.9900  176.4320  137.1010 C   0  0  0  0  0  3  0  0  0  0  0  0
  190.1440  176.5100  135.4870 C   0  0  0  0  0  2  0  0  0  0  0  0
  190.0080  175.1070  135.7360 N   0  0  2  0  0  0  0  0  0  0  0  0
  189.0970  177.1550  136.2820 C   0  0  0  0  0  0  0  0  0  0  0  0
  186.7220  177.8150  137.5410 C   0  0  0  0  0  0  0  0  0  0  0  0
  190.3710  172.8130  135.3060 C   0  0  0  0  0  2  0  0  0  0  0  0
  190.5560  174.1360  134.7850 C   0  0  0  0  0  3  0  0  0  0  0  0
  191.7340  173.3250  135.6210 C   0  0  0  0  0  2  0  0  0  0  0  0
  1 10  1  0  0  0  0
  2 18  1  0  0  0  0
  3  5  1  0  0  0  0
  3  8  1  0  0  0  0
  4  1  2  0  0  0  0
  4 12  1  0  0  0  0
  5  7  1  0  0  0  0
  6 13  2  0  0  0  0
  7 11  2  0  0  0  0
  7  6  1  0  0  0  0
  8 14  2  0  0  0  0
  8 11  1  0  0  0  0
  9  2  2  0  0  0  0
 10 14  1  0  0  0  0
 11  9  1  0  0  0  0
 12  3  2  0  0  0  0
 13  2  1  0  0  0  0
 16 17  1  0  0  0  0
 17 15  2  0  0  0  0
 18 17  1  0  0  0  0
 19 20  2  0  0  0  0
 19  1  1  0  0  0  0
 21 19  1  0  0  0  0
 22 23  1  0  0  0  0
 23 25  2  0  0  0  0
 25 24  1  0  0  0  0
 26 25  1  0  0  0  0
 26 21  1  0  0  0  0
 27 26  2  0  0  0  0
 28 22  2  0  0  0  0
 28 27  1  0  0  0  0
 29  5  1  0  0  0  0
 30 29  1  0  0  0  0
 31 30  1  0  0  0  0
 32 31  1  0  0  0  0
 33 41  1  0  0  0  0
 34 36  1  0  0  0  0
 35 33  2  0  0  0  0
 36 37  1  0  0  0  0
 37 41  2  0  0  0  0
 38 39  1  0  0  0  0
 38 40  1  0  0  0  0
 39 43  1  6  0  0  0
 39 34  1  0  0  0  0
 40 36  2  0  0  0  0
 40 35  1  0  0  0  0
 41 32  1  0  0  0  0
 42 44  1  0  0  0  0
 43 42  1  0  0  0  0
 43 44  1  0  0  0  0
M  END
>  <MODEL>
6

>  <REMARK>
 VINA RESULT:      -9.6      2.893      7.637
  Name = 
  9 active torsions:
  status: ('A' for Active; 'I' for Inactive)
    1  A    between atoms: C_1  and  C_7
    2  A    between atoms: C_2  and  N_44
    3  A    between atoms: C_10  and  N_35
    4  A    between atoms: N_11  and  C_43
    5  A    between atoms: N_19  and  C_24
    6  A    between atoms: N_19  and  C_26
    7  A    between atoms: C_24  and  C_37
    8  A    between atoms: C_25  and  N_42
    9  A    between atoms: C_26  and  C_43
                            x       y       z     vdW  Elec       q    Type
                         _______ _______ _______ _____ _____    ______ ____

>  <TORSDO>
F 9

$$$$
=
 OpenBabel10222422013D

 44 50  0  0  1  0  0  0  0  0999 V2000
  192.4810  175.5270  136.6580 C   0  0  0  0  0  0  0  0  0  0  0  0
  190.4330  177.9050  142.6880 C   0  0  0  0  0  0  0  0  0  0  0  0
  189.9830  176.4130  138.4790 C   0  0  0  0  0  0  0  0  0  0  0  0
  191.1520  175.1310  136.5230 C   0  0  0  0  0  3  0  0  0  0  0  0
  188.9450  177.0820  138.9840 N   0  0  0  0  0  0  0  0  0  0  0  0
  188.4250  177.8410  141.2860 C   0  0  0  0  0  3  0  0  0  0  0  0
  189.2700  177.2890  140.2340 C   0  0  0  0  0  0  0  0  0  0  0  0
  191.0250  176.6700  139.2630 C   0  0  0  0  0  0  0  0  0  0  0  0
  191.2840  177.4100  141.6210 C   0  0  0  0  0  3  0  0  0  0  0  0
  193.1150  176.5120  137.7790 C   0  0  0  0  0  2  0  0  0  0  0  0
  190.6240  177.1030  140.4260 C   0  0  0  0  0  0  0  0  0  0  0  0
  189.9000  175.7190  137.4120 C   0  0  0  0  0  3  0  0  0  0  0  0
  189.0160  178.1020  142.4960 C   0  0  0  0  0  3  0  0  0  0  0  0
  192.2630  176.9030  139.0020 C   0  0  0  0  0  3  0  0  0  0  0  0
  191.8880  177.0250  145.7780 O   0  0  0  0  0  0  0  0  0  0  0  0
  189.5100  177.1220  145.5200 N   0  0  0  0  0  1  0  0  0  0  0  0
  190.8690  177.5240  145.1630 C   0  0  0  0  0  0  0  0  0  0  0  0
  191.0120  178.3520  143.9460 N   0  0  0  0  0  2  0  0  0  0  0  0
  193.4690  175.3090  135.6510 C   0  0  0  0  0  0  0  0  0  0  0  0
  193.2570  175.6750  134.4460 O   0  0  0  0  0  0  0  0  0  0  0  0
  194.6700  174.5480  136.0920 N   0  0  0  0  0  2  0  0  0  0  0  0
  198.6020  174.2210  134.6170 C   0  0  0  0  0  3  0  0  0  0  0  0
  198.1180  175.4850  134.9110 C   0  0  0  0  0  3  0  0  0  0  0  0
  196.2560  176.8910  135.4360 F   0  0  0  0  0  0  0  0  0  0  0  0
  196.7640  175.6640  135.1550 C   0  0  0  0  0  0  0  0  0  0  0  0
  195.9820  174.5170  135.4530 C   0  0  0  0  0  0  0  0  0  0  0  0
  196.5110  173.2460  135.2460 C   0  0  0  0  0  3  0  0  0  0  0  0
  197.8610  173.0870  135.0150 C   0  0  0  0  0  3  0  0  0  0  0  0
  188.3140  178.1840  138.3540 C   0  0  0  0  0  2  0  0  0  0  0  0
  186.9280  177.9660  137.9500 C   0  0  0  0  0  2  0  0  0  0  0  0
  185.9130  178.7440  138.7390 N   0  0  0  0  0  2  0  0  0  0  0  0
  184.4430  178.4420  138.6010 C   0  0  0  0  0  2  0  0  0  0  0  0
  182.4440  178.4920  140.4010 C   0  0  0  0  0  3  0  0  0  0  0  0
  185.4400  179.0830  143.5700 C   0  0  0  0  0  2  0  0  0  0  0  0
  182.1390  178.6550  141.7960 C   0  0  0  0  0  3  0  0  0  0  0  0
  184.5440  178.7200  142.3600 C   0  0  0  0  0  0  0  0  0  0  0  0
  184.9470  178.6750  141.0830 C   0  0  0  0  0  3  0  0  0  0  0  0
  183.2120  179.0420  144.1510 C   0  0  0  0  0  2  0  0  0  0  0  0
  184.5170  178.6960  144.6240 N   0  0  2  0  0  0  0  0  0  0  0  0
  183.2250  178.7590  142.7140 C   0  0  0  0  0  0  0  0  0  0  0  0
  183.9100  178.5260  140.0430 C   0  0  0  0  0  0  0  0  0  0  0  0
  186.1940  178.5510  146.2810 C   0  0  0  0  0  2  0  0  0  0  0  0
  185.0190  179.2660  145.8780 C   0  0  0  0  0  3  0  0  0  0  0  0
  184.9830  178.0180  146.9680 C   0  0  0  0  0  2  0  0  0  0  0  0
  1 10  1  0  0  0  0
  2 18  1  0  0  0  0
  3  5  1  0  0  0  0
  3  8  1  0  0  0  0
  4  1  2  0  0  0  0
  4 12  1  0  0  0  0
  5  7  1  0  0  0  0
  6 13  2  0  0  0  0
  7 11  2  0  0  0  0
  7  6  1  0  0  0  0
  8 11  1  0  0  0  0
  9  2  2  0  0  0  0
 10 14  1  0  0  0  0
 11  9  1  0  0  0  0
 12  3  2  0  0  0  0
 13  2  1  0  0  0  0
 14  8  2  0  0  0  0
 17 16  1  0  0  0  0
 17 15  2  0  0  0  0
 18 17  1  0  0  0  0
 19 21  1  0  0  0  0
 19  1  1  0  0  0  0
 20 19  2  0  0  0  0
 22 23  2  0  0  0  0
 22 28  1  0  0  0  0
 23 25  1  0  0  0  0
 25 24  1  0  0  0  0
 25 26  2  0  0  0  0
 26 21  1  0  0  0  0
 27 26  1  0  0  0  0
 28 27  2  0  0  0  0
 29  5  1  0  0  0  0
 30 29  1  0  0  0  0
 30 31  1  0  0  0  0
 32 31  1  0  0  0  0
 32 41  1  0  0  0  0
 33 35  1  0  0  0  0
 34 39  1  0  0  0  0
 35 40  2  0  0  0  0
 36 40  1  0  0  0  0
 36 34  1  0  0  0  0
 37 36  2  0  0  0  0
 38 39  1  0  0  0  0
 39 43  1  1  0  0  0
 40 38  1  0  0  0  0
 41 33  2  0  0  0  0
 41 37  1  0  0  0  0
 42 44  1  0  0  0  0
 43 42  1  0  0  0  0
 43 44  1  0  0  0  0
M  END
>  <MODEL>
7

>  <REMARK>
 VINA RESULT:      -9.5      2.126      4.955
  Name = 
  9 active torsions:
  status: ('A' for Active; 'I' for Inactive)
    1  A    between atoms: C_1  and  C_7
    2  A    between atoms: C_2  and  N_44
    3  A    between atoms: C_10  and  N_35
    4  A    between atoms: N_11  and  C_43
    5  A    between atoms: N_19  and  C_24
    6  A    between atoms: N_19  and  C_26
    7  A    between atoms: C_24  and  C_37
    8  A    between atoms: C_25  and  N_42
    9  A    between atoms: C_26  and  C_43
                            x       y       z     vdW  Elec       q    Type
                         _______ _______ _______ _____ _____    ______ ____

>  <TORSDO>
F 9

$$$$
=
 OpenBabel10222422013D

 44 50  0  0  1  0  0  0  0  0999 V2000
  189.4440  177.8150  141.6820 C   0  0  0  0  0  0  0  0  0  0  0  0
  193.5760  176.1260  136.5560 C   0  0  0  0  0  0  0  0  0  0  0  0
  189.6620  176.9480  138.5930 C   0  0  0  0  0  0  0  0  0  0  0  0
  188.5170  178.0510  140.6690 C   0  0  0  0  0  3  0  0  0  0  0  0
  189.6030  176.2570  137.4540 N   0  0  0  0  0  0  0  0  0  0  0  0
  191.3010  175.7850  135.7110 C   0  0  0  0  0  3  0  0  0  0  0  0
  190.8320  176.2640  137.0050 C   0  0  0  0  0  0  0  0  0  0  0  0
  190.9280  176.9140  138.9990 C   0  0  0  0  0  0  0  0  0  0  0  0
  193.1070  176.5480  137.8630 C   0  0  0  0  0  3  0  0  0  0  0  0
  190.8790  177.0700  141.5620 C   0  0  0  0  0  2  0  0  0  0  0  0
  191.7170  176.6130  138.0050 C   0  0  0  0  0  0  0  0  0  0  0  0
  188.6330  177.4710  139.1340 C   0  0  0  0  0  3  0  0  0  0  0  0
  192.6570  175.7610  135.5040 C   0  0  0  0  0  3  0  0  0  0  0  0
  191.4550  176.7730  140.1640 C   0  0  0  0  0  3  0  0  0  0  0  0
  196.1220  173.9790  135.3980 O   0  0  0  0  0  0  0  0  0  0  0  0
  195.3270  173.8410  137.6520 N   0  0  0  0  0  1  0  0  0  0  0  0
  195.5790  174.5690  136.4090 C   0  0  0  0  0  0  0  0  0  0  0  0
  194.9960  175.9240  136.3100 N   0  0  0  0  0  2  0  0  0  0  0  0
  189.1490  177.9870  143.0680 C   0  0  0  0  0  0  0  0  0  0  0  0
  189.9360  178.6550  143.8200 O   0  0  0  0  0  0  0  0  0  0  0  0
  187.9510  177.2520  143.5580 N   0  0  0  0  0  2  0  0  0  0  0  0
  185.6780  178.4890  146.8830 C   0  0  0  0  0  3  0  0  0  0  0  0
  186.9750  178.0510  147.1040 C   0  0  0  0  0  3  0  0  0  0  0  0
  188.9320  176.9560  146.2760 F   0  0  0  0  0  0  0  0  0  0  0  0
  187.6650  177.4060  146.0890 C   0  0  0  0  0  0  0  0  0  0  0  0
  187.1740  177.5300  144.7630 C   0  0  0  0  0  0  0  0  0  0  0  0
  185.9060  178.0610  144.5420 C   0  0  0  0  0  3  0  0  0  0  0  0
  185.2390  178.7080  145.5600 C   0  0  0  0  0  3  0  0  0  0  0  0
  188.9320  175.0170  137.2990 C   0  0  0  0  0  2  0  0  0  0  0  0
  188.2760  174.8160  136.0100 C   0  0  0  0  0  2  0  0  0  0  0  0
  187.6060  176.0370  135.4470 N   0  0  0  0  0  2  0  0  0  0  0  0
  186.3670  175.9080  134.6000 C   0  0  0  0  0  2  0  0  0  0  0  0
  183.7910  176.5000  135.0950 C   0  0  0  0  0  3  0  0  0  0  0  0
  185.0400  178.3140  138.9060 C   0  0  0  0  0  2  0  0  0  0  0  0
  182.9020  177.1330  136.0310 C   0  0  0  0  0  3  0  0  0  0  0  0
  184.7630  177.5040  137.6150 C   0  0  0  0  0  0  0  0  0  0  0  0
  185.6970  177.0280  136.7820 C   0  0  0  0  0  3  0  0  0  0  0  0
  182.8110  178.3800  138.3310 C   0  0  0  0  0  2  0  0  0  0  0  0
  183.6930  178.2840  139.4530 N   0  0  2  0  0  0  0  0  0  0  0  0
  183.4460  177.6060  137.2610 C   0  0  0  0  0  0  0  0  0  0  0  0
  185.2460  176.4730  135.4910 C   0  0  0  0  0  0  0  0  0  0  0  0
  184.6590  179.0070  141.4830 C   0  0  0  0  0  2  0  0  0  0  0  0
  183.6310  179.2840  140.5230 C   0  0  0  0  0  3  0  0  0  0  0  0
  183.3570  178.4200  141.9100 C   0  0  0  0  0  2  0  0  0  0  0  0
  1 19  1  0  0  0  0
  2  9  1  0  0  0  0
  3  8  1  0  0  0  0
  3 12  2  0  0  0  0
  4  1  2  0  0  0  0
  5  3  1  0  0  0  0
  6  7  2  0  0  0  0
  7  5  1  0  0  0  0
  7 11  1  0  0  0  0
  8 14  2  0  0  0  0
  9 11  2  0  0  0  0
 10  1  1  0  0  0  0
 11  8  1  0  0  0  0
 12  4  1  0  0  0  0
 13  6  1  0  0  0  0
 13  2  2  0  0  0  0
 14 10  1  0  0  0  0
 15 17  2  0  0  0  0
 17 16  1  0  0  0  0
 18 17  1  0  0  0  0
 18  2  1  0  0  0  0
 19 21  1  0  0  0  0
 19 20  2  0  0  0  0
 21 26  1  0  0  0  0
 22 23  1  0  0  0  0
 25 24  1  0  0  0  0
 25 23  2  0  0  0  0
 26 25  1  0  0  0  0
 27 26  2  0  0  0  0
 27 28  1  0  0  0  0
 28 22  2  0  0  0  0
 29  5  1  0  0  0  0
 30 29  1  0  0  0  0
 31 30  1  0  0  0  0
 32 31  1  0  0  0  0
 32 41  1  0  0  0  0
 33 41  2  0  0  0  0
 33 35  1  0  0  0  0
 34 39  1  0  0  0  0
 35 40  2  0  0  0  0
 36 34  1  0  0  0  0
 37 36  2  0  0  0  0
 38 39  1  0  0  0  0
 39 43  1  1  0  0  0
 40 36  1  0  0  0  0
 40 38  1  0  0  0  0
 41 37  1  0  0  0  0
 42 44  1  0  0  0  0
 43 42  1  0  0  0  0
 43 44  1  0  0  0  0
M  END
>  <MODEL>
8

>  <REMARK>
 VINA RESULT:      -9.3      3.068      9.569
  Name = 
  9 active torsions:
  status: ('A' for Active; 'I' for Inactive)
    1  A    between atoms: C_1  and  C_7
    2  A    between atoms: C_2  and  N_44
    3  A    between atoms: C_10  and  N_35
    4  A    between atoms: N_11  and  C_43
    5  A    between atoms: N_19  and  C_24
    6  A    between atoms: N_19  and  C_26
    7  A    between atoms: C_24  and  C_37
    8  A    between atoms: C_25  and  N_42
    9  A    between atoms: C_26  and  C_43
                            x       y       z     vdW  Elec       q    Type
                         _______ _______ _______ _____ _____    ______ ____

>  <TORSDO>
F 9

$$$$
=
 OpenBabel10222422013D

 44 50  0  0  1  0  0  0  0  0999 V2000
  192.7220  174.8690  137.0670 C   0  0  0  0  0  0  0  0  0  0  0  0
  187.1330  178.1910  139.0490 C   0  0  0  0  0  0  0  0  0  0  0  0
  191.4050  176.8300  139.2490 C   0  0  0  0  0  0  0  0  0  0  0  0
  193.3810  175.7660  137.9060 C   0  0  0  0  0  2  0  0  0  0  0  0
  190.8880  177.3230  140.3750 N   0  0  0  0  0  0  0  0  0  0  0  0
  188.7730  178.5310  140.8380 C   0  0  0  0  0  3  0  0  0  0  0  0
  189.7040  177.7560  140.0260 C   0  0  0  0  0  0  0  0  0  0  0  0
  190.3840  176.5580  138.4430 C   0  0  0  0  0  0  0  0  0  0  0  0
  188.0430  177.3720  138.2700 C   0  0  0  0  0  3  0  0  0  0  0  0
  191.1270  174.6010  136.9550 C   0  0  0  0  0  3  0  0  0  0  0  0
  189.3220  177.2170  138.8140 C   0  0  0  0  0  0  0  0  0  0  0  0
  192.6580  176.6520  139.0880 C   0  0  0  0  0  3  0  0  0  0  0  0
  187.5250  178.7590  140.3170 C   0  0  0  0  0  3  0  0  0  0  0  0
  190.1530  175.5730  137.6470 C   0  0  0  0  0  3  0  0  0  0  0  0
  184.1670  180.0870  139.2450 O   0  0  0  0  0  0  0  0  0  0  0  0
  184.6850  178.4400  140.9030 N   0  0  0  0  0  1  0  0  0  0  0  0
  184.7730  178.9910  139.5510 C   0  0  0  0  0  0  0  0  0  0  0  0
  185.7450  178.3480  138.6410 N   0  0  0  0  0  2  0  0  0  0  0  0
  193.3950  173.8470  136.3320 C   0  0  0  0  0  0  0  0  0  0  0  0
  193.3420  173.8260  135.0560 O   0  0  0  0  0  0  0  0  0  0  0  0
  194.0440  172.7920  137.1580 N   0  0  0  0  0  2  0  0  0  0  0  0
  197.0770  169.9680  136.4030 C   0  0  0  0  0  3  0  0  0  0  0  0
  197.4280  171.3090  136.4440 C   0  0  0  0  0  3  0  0  0  0  0  0
  196.7460  173.6000  136.4660 F   0  0  0  0  0  0  0  0  0  0  0  0
  196.4370  172.2790  136.4380 C   0  0  0  0  0  0  0  0  0  0  0  0
  195.1110  171.8820  136.7520 C   0  0  0  0  0  0  0  0  0  0  0  0
  194.7880  170.5290  136.8040 C   0  0  0  0  0  3  0  0  0  0  0  0
  195.7860  169.5780  136.8200 C   0  0  0  0  0  3  0  0  0  0  0  0
  190.9230  176.6660  141.6310 C   0  0  0  0  0  2  0  0  0  0  0  0
  191.9700  177.1130  142.5440 C   0  0  0  0  0  2  0  0  0  0  0  0
  191.4810  177.5760  143.8870 N   0  0  0  0  0  2  0  0  0  0  0  0
  191.3330  176.6000  145.0250 C   0  0  0  0  0  2  0  0  0  0  0  0
  189.9660  177.2250  147.2560 C   0  0  0  0  0  3  0  0  0  0  0  0
  186.4100  177.9370  144.7630 C   0  0  0  0  0  2  0  0  0  0  0  0
  188.6760  177.6090  147.7600 C   0  0  0  0  0  3  0  0  0  0  0  0
  187.7840  177.7950  145.4630 C   0  0  0  0  0  0  0  0  0  0  0  0
  188.9070  177.3490  144.8850 C   0  0  0  0  0  3  0  0  0  0  0  0
  186.2220  178.1730  147.0460 C   0  0  0  0  0  2  0  0  0  0  0  0
  185.7320  178.6900  145.8050 N   0  0  2  0  0  0  0  0  0  0  0  0
  187.6390  177.8800  146.8190 C   0  0  0  0  0  0  0  0  0  0  0  0
  190.0640  177.0720  145.7580 C   0  0  0  0  0  0  0  0  0  0  0  0
  184.1120  178.4780  144.1000 C   0  0  0  0  0  2  0  0  0  0  0  0
  184.2960  178.6540  145.5100 C   0  0  0  0  0  3  0  0  0  0  0  0
  184.0340  179.9180  144.4730 C   0  0  0  0  0  2  0  0  0  0  0  0
  1  4  1  0  0  0  0
  2 13  1  0  0  0  0
  3  5  1  0  0  0  0
  4 12  1  0  0  0  0
  5 29  1  0  0  0  0
  7  5  1  0  0  0  0
  7  6  1  0  0  0  0
  8 11  1  0  0  0  0
  8  3  1  0  0  0  0
  9 11  1  0  0  0  0
  9  2  2  0  0  0  0
 10  1  2  0  0  0  0
 10 14  1  0  0  0  0
 11  7  2  0  0  0  0
 12  3  2  0  0  0  0
 13  6  2  0  0  0  0
 14  8  2  0  0  0  0
 15 17  2  0  0  0  0
 17 16  1  0  0  0  0
 18  2  1  0  0  0  0
 18 17  1  0  0  0  0
 19  1  1  0  0  0  0
 19 21  1  0  0  0  0
 20 19  2  0  0  0  0
 22 23  2  0  0  0  0
 22 28  1  0  0  0  0
 25 23  1  0  0  0  0
 25 24  1  0  0  0  0
 25 26  2  0  0  0  0
 26 27  1  0  0  0  0
 26 21  1  0  0  0  0
 27 28  2  0  0  0  0
 29 30  1  0  0  0  0
 30 31  1  0  0  0  0
 31 32  1  0  0  0  0
 32 41  1  0  0  0  0
 33 35  1  0  0  0  0
 34 36  1  0  0  0  0
 34 39  1  0  0  0  0
 36 40  1  0  0  0  0
 37 36  2  0  0  0  0
 37 41  1  0  0  0  0
 39 43  1  1  0  0  0
 39 38  1  0  0  0  0
 40 38  1  0  0  0  0
 40 35  2  0  0  0  0
 41 33  2  0  0  0  0
 42 44  1  0  0  0  0
 42 43  1  0  0  0  0
 44 43  1  0  0  0  0
M  END
>  <MODEL>
9

>  <REMARK>
 VINA RESULT:      -9.2      1.610      1.966
  Name = 
  9 active torsions:
  status: ('A' for Active; 'I' for Inactive)
    1  A    between atoms: C_1  and  C_7
    2  A    between atoms: C_2  and  N_44
    3  A    between atoms: C_10  and  N_35
    4  A    between atoms: N_11  and  C_43
    5  A    between atoms: N_19  and  C_24
    6  A    between atoms: N_19  and  C_26
    7  A    between atoms: C_24  and  C_37
    8  A    between atoms: C_25  and  N_42
    9  A    between atoms: C_26  and  C_43
                            x       y       z     vdW  Elec       q    Type
                         _______ _______ _______ _____ _____    ______ ____

>  <TORSDO>
F 9

$$$$
