=
 OpenBabel10232407533D

 26 29  0  0  1  0  0  0  0  0999 V2000
  188.7830  177.6080  140.6890 N   0  0  0  0  0  2  0  0  0  0  0  0
  185.3100  178.9370  144.9000 N   0  0  0  0  0  2  0  0  0  0  0  0
  188.3290  177.3790  143.1700 C   0  0  0  0  0  2  0  0  0  0  0  0
  184.5920  179.2580  142.6170 C   0  0  0  0  0  2  0  0  0  0  0  0
  187.4530  177.8830  144.3060 C   0  0  0  0  0  0  0  0  0  0  0  0
  185.8380  178.5230  142.6650 N   0  0  0  0  0  0  0  0  0  0  0  0
  186.2490  178.3880  143.9990 C   0  0  0  0  0  0  0  0  0  0  0  0
  184.2090  179.4770  144.1010 C   0  0  1  0  0  3  0  0  0  0  0  0
  186.7110  178.3280  141.5870 N   0  0  0  0  0  0  0  0  0  0  0  0
  187.8910  177.8140  141.7870 C   0  0  0  0  0  0  0  0  0  0  0  0
  189.2450  177.2980  145.9530 C   0  0  0  0  0  3  0  0  0  0  0  0
  191.3240  176.6100  147.5840 Cl  0  0  0  0  0  0  0  0  0  0  0  0
  188.8590  177.5190  148.3260 C   0  0  0  0  0  3  0  0  0  0  0  0
  187.5680  177.9710  148.0490 C   0  0  0  0  0  3  0  0  0  0  0  0
  187.9430  177.7570  145.7050 C   0  0  0  0  0  0  0  0  0  0  0  0
  187.1440  178.0800  146.7620 N   0  0  0  0  0  0  0  0  0  0  0  0
  189.7000  177.1810  147.2670 C   0  0  0  0  0  0  0  0  0  0  0  0
  188.4420  177.9400  139.3120 C   0  0  0  0  0  2  0  0  0  0  0  0
  190.7270  175.6360  138.9430 O   0  0  0  0  0  0  0  0  0  0  0  0
  189.2340  176.5980  137.3890 C   0  0  0  0  0  2  0  0  0  0  0  0
  190.2240  175.4870  137.6430 C   0  0  0  0  0  2  0  0  0  0  0  0
  189.6140  177.6530  138.3850 C   0  0  2  0  0  3  0  0  0  0  0  0
  190.7380  177.0190  139.1750 C   0  0  0  0  0  2  0  0  0  0  0  0
  182.9270  178.7280  144.4320 C   0  0  0  0  0  2  0  0  0  0  0  0
  180.5970  178.6440  143.9110 O   0  0  0  0  0  1  0  0  0  0  0  0
  181.8420  179.0240  143.4090 C   0  0  0  0  0  2  0  0  0  0  0  0
  1 10  1  0  0  0  0
  3  5  1  0  0  0  0
  4  6  1  0  0  0  0
  4  8  1  0  0  0  0
  5 15  1  0  0  0  0
  6  7  1  0  0  0  0
  7  5  2  0  0  0  0
  7  2  1  0  0  0  0
  8 24  1  1  0  0  0
  8  2  1  0  0  0  0
  9 10  2  0  0  0  0
  9  6  1  0  0  0  0
 10  3  1  0  0  0  0
 11 17  1  0  0  0  0
 14 13  1  0  0  0  0
 15 11  2  0  0  0  0
 15 16  1  0  0  0  0
 16 14  2  0  0  0  0
 17 12  1  0  0  0  0
 17 13  2  0  0  0  0
 18  1  1  0  0  0  0
 19 23  1  0  0  0  0
 20 21  1  0  0  0  0
 20 22  1  0  0  0  0
 21 19  1  0  0  0  0
 22 23  1  0  0  0  0
 22 18  1  1  0  0  0
 26 25  1  0  0  0  0
 26 24  1  0  0  0  0
M  END
>  <MODEL>
1

>  <REMARK>
 VINA RESULT:      -8.4      0.000      0.000
  Name = 
  5 active torsions:
  status: ('A' for Active; 'I' for Inactive)
    1  A    between atoms: N_3  and  C_17
    2  A    between atoms: C_11  and  C_19
    3  A    between atoms: C_13  and  C_17
    4  A    between atoms: C_18  and  C_24
    5  A    between atoms: C_24  and  C_25
                            x       y       z     vdW  Elec       q    Type
                         _______ _______ _______ _____ _____    ______ ____

>  <TORSDO>
F 5

$$$$
=
 OpenBabel10232407533D

 26 29  0  0  1  0  0  0  0  0999 V2000
  188.1320  178.4920  139.0570 N   0  0  0  0  0  2  0  0  0  0  0  0
  188.0410  177.2510  144.5360 N   0  0  0  0  0  2  0  0  0  0  0  0
  186.8970  178.8020  141.2470 C   0  0  0  0  0  2  0  0  0  0  0  0
  190.0430  176.8310  143.2540 C   0  0  0  0  0  2  0  0  0  0  0  0
  186.8200  178.3230  142.6870 C   0  0  0  0  0  0  0  0  0  0  0  0
  189.0860  177.5920  142.4780 N   0  0  0  0  0  0  0  0  0  0  0  0
  187.9210  177.7840  143.2340 C   0  0  0  0  0  0  0  0  0  0  0  0
  189.3760  176.6600  144.6400 C   0  0  1  0  0  3  0  0  0  0  0  0
  189.1160  177.7650  141.0880 N   0  0  0  0  0  0  0  0  0  0  0  0
  188.1030  178.3080  140.4750 C   0  0  0  0  0  0  0  0  0  0  0  0
  184.3310  178.5850  142.7560 C   0  0  0  0  0  3  0  0  0  0  0  0
  181.6180  178.8530  142.6180 Cl  0  0  0  0  0  0  0  0  0  0  0  0
  183.1780  178.8610  144.8580 C   0  0  0  0  0  3  0  0  0  0  0  0
  184.4070  178.7850  145.5150 C   0  0  0  0  0  3  0  0  0  0  0  0
  185.5520  178.5100  143.4430 C   0  0  0  0  0  0  0  0  0  0  0  0
  185.5520  178.6130  144.8030 N   0  0  0  0  0  0  0  0  0  0  0  0
  183.1450  178.7600  143.4680 C   0  0  0  0  0  0  0  0  0  0  0  0
  189.2640  178.1020  138.2270 C   0  0  0  0  0  2  0  0  0  0  0  0
  188.0380  176.6820  135.5540 O   0  0  0  0  0  0  0  0  0  0  0  0
  187.5540  178.7600  136.5620 C   0  0  0  0  0  2  0  0  0  0  0  0
  187.1270  177.7460  135.5280 C   0  0  0  0  0  2  0  0  0  0  0  0
  189.0110  178.4670  136.7720 C   0  0  2  0  0  3  0  0  0  0  0  0
  189.2680  177.2600  135.8970 C   0  0  0  0  0  2  0  0  0  0  0  0
  190.1740  177.3950  145.7050 C   0  0  0  0  0  2  0  0  0  0  0  0
  191.8760  176.8310  147.2840 O   0  0  0  0  0  1  0  0  0  0  0  0
  191.5190  176.7260  145.9400 C   0  0  0  0  0  2  0  0  0  0  0  0
  1 10  1  0  0  0  0
  2  8  1  0  0  0  0
  3  5  1  0  0  0  0
  4  8  1  0  0  0  0
  5  7  2  0  0  0  0
  5 15  1  0  0  0  0
  6  7  1  0  0  0  0
  6  4  1  0  0  0  0
  7  2  1  0  0  0  0
  8 24  1  1  0  0  0
  9  6  1  0  0  0  0
 10  9  2  0  0  0  0
 10  3  1  0  0  0  0
 11 15  2  0  0  0  0
 11 17  1  0  0  0  0
 12 17  1  0  0  0  0
 13 14  1  0  0  0  0
 15 16  1  0  0  0  0
 16 14  2  0  0  0  0
 17 13  2  0  0  0  0
 18  1  1  0  0  0  0
 19 23  1  0  0  0  0
 20 22  1  0  0  0  0
 21 19  1  0  0  0  0
 21 20  1  0  0  0  0
 22 18  1  1  0  0  0
 23 22  1  0  0  0  0
 24 26  1  0  0  0  0
 26 25  1  0  0  0  0
M  END
>  <MODEL>
2

>  <REMARK>
 VINA RESULT:      -8.3      3.643      5.511
  Name = 
  5 active torsions:
  status: ('A' for Active; 'I' for Inactive)
    1  A    between atoms: N_3  and  C_17
    2  A    between atoms: C_11  and  C_19
    3  A    between atoms: C_13  and  C_17
    4  A    between atoms: C_18  and  C_24
    5  A    between atoms: C_24  and  C_25
                            x       y       z     vdW  Elec       q    Type
                         _______ _______ _______ _____ _____    ______ ____

>  <TORSDO>
F 5

$$$$
=
 OpenBabel10232407533D

 26 29  0  0  1  0  0  0  0  0999 V2000
  187.8060  177.8690  144.7570 N   0  0  0  0  0  2  0  0  0  0  0  0
  187.5440  178.4860  139.1790 N   0  0  0  0  0  2  0  0  0  0  0  0
  186.2760  178.0330  142.7460 C   0  0  0  0  0  2  0  0  0  0  0  0
  189.6540  177.9440  140.2190 C   0  0  0  0  0  2  0  0  0  0  0  0
  186.2360  178.3530  141.2610 C   0  0  0  0  0  0  0  0  0  0  0  0
  188.5710  177.8480  141.1750 N   0  0  0  0  0  0  0  0  0  0  0  0
  187.3670  178.2070  140.5530 C   0  0  0  0  0  0  0  0  0  0  0  0
  188.9650  178.3050  138.8810 C   0  0  1  0  0  3  0  0  0  0  0  0
  188.7130  177.8100  142.5680 N   0  0  0  0  0  0  0  0  0  0  0  0
  187.6660  177.9140  143.3350 C   0  0  0  0  0  0  0  0  0  0  0  0
  183.7350  178.3020  141.1770 C   0  0  0  0  0  3  0  0  0  0  0  0
  181.0120  178.1180  141.2540 Cl  0  0  0  0  0  0  0  0  0  0  0  0
  182.5320  179.5470  139.4930 C   0  0  0  0  0  3  0  0  0  0  0  0
  183.7530  179.9940  138.9860 C   0  0  0  0  0  3  0  0  0  0  0  0
  184.9470  178.7690  140.6460 C   0  0  0  0  0  0  0  0  0  0  0  0
  184.9180  179.6010  139.5660 N   0  0  0  0  0  0  0  0  0  0  0  0
  182.5280  178.6950  140.5970 C   0  0  0  0  0  0  0  0  0  0  0  0
  189.0900  177.7020  145.4260 C   0  0  0  0  0  2  0  0  0  0  0  0
  189.5090  178.3380  148.6020 O   0  0  0  0  0  0  0  0  0  0  0  0
  187.6610  177.4550  147.4320 C   0  0  0  0  0  2  0  0  0  0  0  0
  188.1510  178.0210  148.7420 C   0  0  0  0  0  2  0  0  0  0  0  0
  188.9120  176.9800  146.7540 C   0  0  2  0  0  3  0  0  0  0  0  0
  190.0160  177.3900  147.7030 C   0  0  0  0  0  2  0  0  0  0  0  0
  189.1320  177.1730  137.8790 C   0  0  0  0  0  2  0  0  0  0  0  0
  190.5510  175.3020  138.3200 O   0  0  0  0  0  1  0  0  0  0  0  0
  190.5530  176.6320  137.8980 C   0  0  0  0  0  2  0  0  0  0  0  0
  1 18  1  0  0  0  0
  2  7  1  0  0  0  0
  3 10  1  0  0  0  0
  4  6  1  0  0  0  0
  5  3  1  0  0  0  0
  6  9  1  0  0  0  0
  7  6  1  0  0  0  0
  7  5  2  0  0  0  0
  8 24  1  6  0  0  0
  8  2  1  0  0  0  0
  8  4  1  0  0  0  0
  9 10  2  0  0  0  0
 10  1  1  0  0  0  0
 13 17  1  0  0  0  0
 14 13  2  0  0  0  0
 14 16  1  0  0  0  0
 15 11  1  0  0  0  0
 15  5  1  0  0  0  0
 16 15  2  0  0  0  0
 17 11  2  0  0  0  0
 17 12  1  0  0  0  0
 19 21  1  0  0  0  0
 20 21  1  0  0  0  0
 22 18  1  6  0  0  0
 22 20  1  0  0  0  0
 22 23  1  0  0  0  0
 23 19  1  0  0  0  0
 24 26  1  0  0  0  0
 26 25  1  0  0  0  0
M  END
>  <MODEL>
3

>  <REMARK>
 VINA RESULT:      -8.0      3.581      8.002
  Name = 
  5 active torsions:
  status: ('A' for Active; 'I' for Inactive)
    1  A    between atoms: N_3  and  C_17
    2  A    between atoms: C_11  and  C_19
    3  A    between atoms: C_13  and  C_17
    4  A    between atoms: C_18  and  C_24
    5  A    between atoms: C_24  and  C_25
                            x       y       z     vdW  Elec       q    Type
                         _______ _______ _______ _____ _____    ______ ____

>  <TORSDO>
F 5

$$$$
=
 OpenBabel10232407533D

 26 29  0  0  1  0  0  0  0  0999 V2000
  187.7270  178.5280  138.3980 N   0  0  0  0  0  2  0  0  0  0  0  0
  188.3710  176.9540  143.7530 N   0  0  0  0  0  2  0  0  0  0  0  0
  186.8470  178.7600  140.7610 C   0  0  0  0  0  2  0  0  0  0  0  0
  190.1360  176.5200  142.1640 C   0  0  0  0  0  2  0  0  0  0  0  0
  186.9550  178.1970  142.1690 C   0  0  0  0  0  0  0  0  0  0  0  0
  189.1200  177.3720  141.5830 N   0  0  0  0  0  0  0  0  0  0  0  0
  188.0920  177.5730  142.5140 C   0  0  0  0  0  0  0  0  0  0  0  0
  189.6710  176.2950  143.6230 C   0  0  1  0  0  3  0  0  0  0  0  0
  188.9560  177.6290  140.2160 N   0  0  0  0  0  0  0  0  0  0  0  0
  187.8960  178.2580  139.7920 C   0  0  0  0  0  0  0  0  0  0  0  0
  186.0540  178.3560  144.4990 C   0  0  0  0  0  3  0  0  0  0  0  0
  185.2680  178.4950  147.1100 Cl  0  0  0  0  0  0  0  0  0  0  0  0
  183.7070  178.7700  144.8880 C   0  0  0  0  0  3  0  0  0  0  0  0
  183.5090  178.8040  143.5070 C   0  0  0  0  0  3  0  0  0  0  0  0
  185.8250  178.3970  143.1150 C   0  0  0  0  0  0  0  0  0  0  0  0
  184.5580  178.6200  142.6610 N   0  0  0  0  0  0  0  0  0  0  0  0
  184.9900  178.5440  145.3820 C   0  0  0  0  0  0  0  0  0  0  0  0
  188.7010  178.1370  137.3870 C   0  0  0  0  0  2  0  0  0  0  0  0
  187.3270  175.1750  137.3020 O   0  0  0  0  0  0  0  0  0  0  0  0
  186.5690  177.2560  136.4900 C   0  0  0  0  0  2  0  0  0  0  0  0
  186.1960  175.8250  136.7880 C   0  0  0  0  0  2  0  0  0  0  0  0
  188.0630  177.2190  136.3550 C   0  0  2  0  0  3  0  0  0  0  0  0
  188.4200  175.7830  136.6670 C   0  0  0  0  0  2  0  0  0  0  0  0
  190.6580  176.9230  144.5950 C   0  0  0  0  0  2  0  0  0  0  0  0
  191.2360  179.1840  144.0810 O   0  0  0  0  0  1  0  0  0  0  0  0
  191.6160  177.8580  143.8730 C   0  0  0  0  0  2  0  0  0  0  0  0
  1 10  1  0  0  0  0
  3  5  1  0  0  0  0
  4  8  1  0  0  0  0
  5  7  2  0  0  0  0
  5 15  1  0  0  0  0
  6  4  1  0  0  0  0
  6  7  1  0  0  0  0
  7  2  1  0  0  0  0
  8  2  1  0  0  0  0
  8 24  1  1  0  0  0
  9  6  1  0  0  0  0
 10  9  2  0  0  0  0
 10  3  1  0  0  0  0
 11 17  1  0  0  0  0
 13 17  2  0  0  0  0
 14 13  1  0  0  0  0
 15 11  2  0  0  0  0
 16 15  1  0  0  0  0
 16 14  2  0  0  0  0
 17 12  1  0  0  0  0
 18  1  1  0  0  0  0
 20 21  1  0  0  0  0
 21 19  1  0  0  0  0
 22 20  1  0  0  0  0
 22 23  1  0  0  0  0
 22 18  1  1  0  0  0
 23 19  1  0  0  0  0
 26 25  1  0  0  0  0
 26 24  1  0  0  0  0
M  END
>  <MODEL>
4

>  <REMARK>
 VINA RESULT:      -7.9      3.153      5.108
  Name = 
  5 active torsions:
  status: ('A' for Active; 'I' for Inactive)
    1  A    between atoms: N_3  and  C_17
    2  A    between atoms: C_11  and  C_19
    3  A    between atoms: C_13  and  C_17
    4  A    between atoms: C_18  and  C_24
    5  A    between atoms: C_24  and  C_25
                            x       y       z     vdW  Elec       q    Type
                         _______ _______ _______ _____ _____    ______ ____

>  <TORSDO>
F 5

$$$$
=
 OpenBabel10232407533D

 26 29  0  0  1  0  0  0  0  0999 V2000
  189.4960  177.9190  138.9260 N   0  0  0  0  0  2  0  0  0  0  0  0
  186.4150  178.5870  143.5770 N   0  0  0  0  0  2  0  0  0  0  0  0
  189.2960  177.3780  141.3930 C   0  0  0  0  0  2  0  0  0  0  0  0
  185.4650  179.1450  141.4290 C   0  0  0  0  0  2  0  0  0  0  0  0
  188.5220  177.7050  142.6590 C   0  0  0  0  0  0  0  0  0  0  0  0
  186.7320  178.4640  141.2690 N   0  0  0  0  0  0  0  0  0  0  0  0
  187.2780  178.1900  142.5310 C   0  0  0  0  0  0  0  0  0  0  0  0
  185.2250  179.1700  142.9580 C   0  0  1  0  0  3  0  0  0  0  0  0
  187.5010  178.4370  140.0980 N   0  0  0  0  0  0  0  0  0  0  0  0
  188.7100  177.9550  140.1210 C   0  0  0  0  0  0  0  0  0  0  0  0
  188.3730  177.4700  145.1470 C   0  0  0  0  0  3  0  0  0  0  0  0
  188.0030  177.2570  147.8430 Cl  0  0  0  0  0  0  0  0  0  0  0  0
  190.3310  176.9330  146.4540 C   0  0  0  0  0  3  0  0  0  0  0  0
  191.0800  176.9070  145.2770 C   0  0  0  0  0  3  0  0  0  0  0  0
  189.1510  177.4360  143.9800 C   0  0  0  0  0  0  0  0  0  0  0  0
  190.4820  177.1560  144.0810 N   0  0  0  0  0  0  0  0  0  0  0  0
  188.9680  177.2170  146.3830 C   0  0  0  0  0  0  0  0  0  0  0  0
  189.0090  178.3970  137.6380 C   0  0  0  0  0  2  0  0  0  0  0  0
  189.7850  175.2280  137.4950 O   0  0  0  0  0  0  0  0  0  0  0  0
  187.9720  176.4200  136.5690 C   0  0  0  0  0  2  0  0  0  0  0  0
  188.5450  175.0560  136.8650 C   0  0  0  0  0  2  0  0  0  0  0  0
  189.1700  177.3230  136.5730 C   0  0  2  0  0  3  0  0  0  0  0  0
  190.3130  176.4070  136.9490 C   0  0  0  0  0  2  0  0  0  0  0  0
  184.0060  178.3320  143.3150 C   0  0  0  0  0  2  0  0  0  0  0  0
  183.6420  179.1180  145.5410 O   0  0  0  0  0  1  0  0  0  0  0  0
  183.0850  179.0830  144.2630 C   0  0  0  0  0  2  0  0  0  0  0  0
  1 10  1  0  0  0  0
  3  5  1  0  0  0  0
  4  8  1  0  0  0  0
  5 15  1  0  0  0  0
  6  4  1  0  0  0  0
  6  7  1  0  0  0  0
  7  5  2  0  0  0  0
  7  2  1  0  0  0  0
  8 24  1  6  0  0  0
  8  2  1  0  0  0  0
  9 10  2  0  0  0  0
  9  6  1  0  0  0  0
 10  3  1  0  0  0  0
 11 17  1  0  0  0  0
 14 13  1  0  0  0  0
 15 16  1  0  0  0  0
 15 11  2  0  0  0  0
 16 14  2  0  0  0  0
 17 13  2  0  0  0  0
 17 12  1  0  0  0  0
 18  1  1  0  0  0  0
 20 22  1  0  0  0  0
 20 21  1  0  0  0  0
 21 19  1  0  0  0  0
 22 23  1  0  0  0  0
 22 18  1  1  0  0  0
 23 19  1  0  0  0  0
 24 26  1  0  0  0  0
 26 25  1  0  0  0  0
M  END
>  <MODEL>
5

>  <REMARK>
 VINA RESULT:      -7.8      1.716      2.282
  Name = 
  5 active torsions:
  status: ('A' for Active; 'I' for Inactive)
    1  A    between atoms: N_3  and  C_17
    2  A    between atoms: C_11  and  C_19
    3  A    between atoms: C_13  and  C_17
    4  A    between atoms: C_18  and  C_24
    5  A    between atoms: C_24  and  C_25
                            x       y       z     vdW  Elec       q    Type
                         _______ _______ _______ _____ _____    ______ ____

>  <TORSDO>
F 5

$$$$
=
 OpenBabel10232407533D

 26 29  0  0  1  0  0  0  0  0999 V2000
  183.8980  178.4240  143.4600 N   0  0  0  0  0  2  0  0  0  0  0  0
  189.2310  177.6700  145.0580 N   0  0  0  0  0  2  0  0  0  0  0  0
  186.2060  177.6710  142.7380 C   0  0  0  0  0  2  0  0  0  0  0  0
  187.5260  178.0270  146.7300 C   0  0  0  0  0  2  0  0  0  0  0  0
  187.6660  177.6240  143.1590 C   0  0  0  0  0  0  0  0  0  0  0  0
  186.9330  177.8300  145.4240 N   0  0  0  0  0  0  0  0  0  0  0  0
  187.9470  177.6660  144.4710 C   0  0  0  0  0  0  0  0  0  0  0  0
  189.0470  177.8580  146.4980 C   0  0  1  0  0  3  0  0  0  0  0  0
  185.6150  178.1490  145.0710 N   0  0  0  0  0  0  0  0  0  0  0  0
  185.2440  178.1050  143.8240 C   0  0  0  0  0  0  0  0  0  0  0  0
  188.5440  178.1080  140.8650 C   0  0  0  0  0  3  0  0  0  0  0  0
  189.3240  178.7480  138.3280 Cl  0  0  0  0  0  0  0  0  0  0  0  0
  190.6790  177.2360  140.1530 C   0  0  0  0  0  3  0  0  0  0  0  0
  190.8220  176.6310  141.4020 C   0  0  0  0  0  3  0  0  0  0  0  0
  188.7150  177.4890  142.1130 C   0  0  0  0  0  0  0  0  0  0  0  0
  189.8500  176.7690  142.3430 N   0  0  0  0  0  0  0  0  0  0  0  0
  189.5300  177.9790  139.8870 C   0  0  0  0  0  0  0  0  0  0  0  0
  182.8790  178.8000  144.4300 C   0  0  0  0  0  2  0  0  0  0  0  0
  181.1250  178.0740  141.7730 O   0  0  0  0  0  0  0  0  0  0  0  0
  180.4690  178.4150  144.0130 C   0  0  0  0  0  2  0  0  0  0  0  0
  180.0410  177.9300  142.6500 C   0  0  0  0  0  2  0  0  0  0  0  0
  181.6330  179.3170  143.7250 C   0  0  2  0  0  3  0  0  0  0  0  0
  181.8180  179.2050  142.2280 C   0  0  0  0  0  2  0  0  0  0  0  0
  189.5620  176.6330  147.2380 C   0  0  0  0  0  2  0  0  0  0  0  0
  191.6160  175.4360  147.4770 O   0  0  0  0  0  1  0  0  0  0  0  0
  191.0650  176.7180  147.4560 C   0  0  0  0  0  2  0  0  0  0  0  0
  1 10  1  0  0  0  0
  1 18  1  0  0  0  0
  2  8  1  0  0  0  0
  3  5  1  0  0  0  0
  3 10  1  0  0  0  0
  5  7  2  0  0  0  0
  6  4  1  0  0  0  0
  7  2  1  0  0  0  0
  7  6  1  0  0  0  0
  8  4  1  0  0  0  0
  8 24  1  1  0  0  0
  9  6  1  0  0  0  0
 10  9  2  0  0  0  0
 11 15  1  0  0  0  0
 12 17  1  0  0  0  0
 13 14  2  0  0  0  0
 14 16  1  0  0  0  0
 15 16  2  0  0  0  0
 15  5  1  0  0  0  0
 17 13  1  0  0  0  0
 17 11  2  0  0  0  0
 19 23  1  0  0  0  0
 19 21  1  0  0  0  0
 21 20  1  0  0  0  0
 22 20  1  0  0  0  0
 22 18  1  1  0  0  0
 23 22  1  0  0  0  0
 24 26  1  0  0  0  0
 26 25  1  0  0  0  0
M  END
>  <MODEL>
6

>  <REMARK>
 VINA RESULT:      -7.8      2.999      7.380
  Name = 
  5 active torsions:
  status: ('A' for Active; 'I' for Inactive)
    1  A    between atoms: N_3  and  C_17
    2  A    between atoms: C_11  and  C_19
    3  A    between atoms: C_13  and  C_17
    4  A    between atoms: C_18  and  C_24
    5  A    between atoms: C_24  and  C_25
                            x       y       z     vdW  Elec       q    Type
                         _______ _______ _______ _____ _____    ______ ____

>  <TORSDO>
F 5

$$$$
=
 OpenBabel10232407533D

 26 29  0  0  1  0  0  0  0  0999 V2000
  190.0380  177.4370  138.8160 N   0  0  0  0  0  2  0  0  0  0  0  0
  189.3160  176.8300  144.3550 N   0  0  0  0  0  2  0  0  0  0  0  0
  188.5960  178.0360  140.8100 C   0  0  0  0  0  2  0  0  0  0  0  0
  191.4200  176.1990  143.3520 C   0  0  0  0  0  2  0  0  0  0  0  0
  188.3470  177.7270  142.2770 C   0  0  0  0  0  0  0  0  0  0  0  0
  190.5850  176.9000  142.3980 N   0  0  0  0  0  0  0  0  0  0  0  0
  189.3580  177.2160  142.9960 C   0  0  0  0  0  0  0  0  0  0  0  0
  190.6040  176.2090  144.6670 C   0  0  1  0  0  3  0  0  0  0  0  0
  190.7690  176.9120  141.0090 N   0  0  0  0  0  0  0  0  0  0  0  0
  189.8520  177.4160  140.2340 C   0  0  0  0  0  0  0  0  0  0  0  0
  186.8510  178.0490  144.2590 C   0  0  0  0  0  3  0  0  0  0  0  0
  185.3860  178.3560  146.5420 Cl  0  0  0  0  0  0  0  0  0  0  0  0
  184.5260  178.6300  143.9660 C   0  0  0  0  0  3  0  0  0  0  0  0
  184.7200  178.6140  142.5840 C   0  0  0  0  0  3  0  0  0  0  0  0
  187.0170  178.0420  142.8650 C   0  0  0  0  0  0  0  0  0  0  0  0
  185.9450  178.3250  142.0710 N   0  0  0  0  0  0  0  0  0  0  0  0
  185.6010  178.3440  144.8050 C   0  0  0  0  0  0  0  0  0  0  0  0
  191.2320  176.9170  138.1620 C   0  0  0  0  0  2  0  0  0  0  0  0
  190.1270  173.8870  137.6470 O   0  0  0  0  0  0  0  0  0  0  0  0
  189.3600  175.9700  136.8460 C   0  0  0  0  0  2  0  0  0  0  0  0
  189.0550  174.4980  136.9830 C   0  0  0  0  0  2  0  0  0  0  0  0
  190.8540  176.0410  136.9760 C   0  0  2  0  0  3  0  0  0  0  0  0
  191.2620  174.6120  137.2550 C   0  0  0  0  0  2  0  0  0  0  0  0
  191.3200  177.0330  145.7270 C   0  0  0  0  0  2  0  0  0  0  0  0
  191.9800  176.9610  148.0220 O   0  0  0  0  0  1  0  0  0  0  0  0
  191.7410  176.1650  146.9020 C   0  0  0  0  0  2  0  0  0  0  0  0
  1 10  1  0  0  0  0
  2  8  1  0  0  0  0
  3  5  1  0  0  0  0
  4  8  1  0  0  0  0
  5 15  1  0  0  0  0
  5  7  2  0  0  0  0
  6  7  1  0  0  0  0
  6  4  1  0  0  0  0
  7  2  1  0  0  0  0
  8 24  1  1  0  0  0
  9  6  1  0  0  0  0
 10  3  1  0  0  0  0
 10  9  2  0  0  0  0
 11 17  1  0  0  0  0
 13 17  2  0  0  0  0
 14 13  1  0  0  0  0
 15 11  2  0  0  0  0
 16 14  2  0  0  0  0
 16 15  1  0  0  0  0
 17 12  1  0  0  0  0
 18  1  1  0  0  0  0
 20 22  1  0  0  0  0
 20 21  1  0  0  0  0
 21 19  1  0  0  0  0
 22 23  1  0  0  0  0
 22 18  1  1  0  0  0
 23 19  1  0  0  0  0
 24 26  1  0  0  0  0
 26 25  1  0  0  0  0
M  END
>  <MODEL>
7

>  <REMARK>
 VINA RESULT:      -7.7      3.297      5.434
  Name = 
  5 active torsions:
  status: ('A' for Active; 'I' for Inactive)
    1  A    between atoms: N_3  and  C_17
    2  A    between atoms: C_11  and  C_19
    3  A    between atoms: C_13  and  C_17
    4  A    between atoms: C_18  and  C_24
    5  A    between atoms: C_24  and  C_25
                            x       y       z     vdW  Elec       q    Type
                         _______ _______ _______ _____ _____    ______ ____

>  <TORSDO>
F 5

$$$$
=
 OpenBabel10232407533D

 26 29  0  0  1  0  0  0  0  0999 V2000
  186.1060  177.9770  143.0040 N   0  0  0  0  0  2  0  0  0  0  0  0
  191.5270  176.9510  144.0640 N   0  0  0  0  0  2  0  0  0  0  0  0
  188.3220  177.2420  142.0210 C   0  0  0  0  0  2  0  0  0  0  0  0
  189.9790  177.1880  145.9020 C   0  0  0  0  0  2  0  0  0  0  0  0
  189.8090  177.1210  142.3100 C   0  0  0  0  0  0  0  0  0  0  0  0
  189.2730  177.1290  144.6390 N   0  0  0  0  0  0  0  0  0  0  0  0
  190.1990  177.0320  143.5910 C   0  0  0  0  0  0  0  0  0  0  0  0
  191.4690  177.0060  145.5260 C   0  0  1  0  0  3  0  0  0  0  0  0
  187.9410  177.5100  144.4310 N   0  0  0  0  0  0  0  0  0  0  0  0
  187.4670  177.5940  143.2210 C   0  0  0  0  0  0  0  0  0  0  0  0
  190.3620  176.4950  139.9500 C   0  0  0  0  0  3  0  0  0  0  0  0
  190.7680  175.7370  137.3590 Cl  0  0  0  0  0  0  0  0  0  0  0  0
  192.5500  176.9470  139.0350 C   0  0  0  0  0  3  0  0  0  0  0  0
  192.9220  177.5030  140.2600 C   0  0  0  0  0  3  0  0  0  0  0  0
  190.7630  177.0610  141.1700 C   0  0  0  0  0  0  0  0  0  0  0  0
  192.0310  177.5480  141.2870 N   0  0  0  0  0  0  0  0  0  0  0  0
  191.2600  176.4410  138.8840 C   0  0  0  0  0  0  0  0  0  0  0  0
  185.1830  178.2840  144.0890 C   0  0  0  0  0  2  0  0  0  0  0  0
  182.6710  178.5270  142.0170 O   0  0  0  0  0  0  0  0  0  0  0  0
  182.8500  179.0840  144.3020 C   0  0  0  0  0  2  0  0  0  0  0  0
  181.9100  178.8880  143.1380 C   0  0  0  0  0  2  0  0  0  0  0  0
  184.1780  179.3410  143.6540 C   0  0  2  0  0  3  0  0  0  0  0  0
  183.8960  179.1900  142.1760 C   0  0  0  0  0  2  0  0  0  0  0  0
  192.0050  175.7040  146.1030 C   0  0  0  0  0  2  0  0  0  0  0  0
  192.3240  176.9690  148.1050 O   0  0  0  0  0  1  0  0  0  0  0  0
  191.9460  175.7160  147.6230 C   0  0  0  0  0  2  0  0  0  0  0  0
  1 10  1  0  0  0  0
  1 18  1  0  0  0  0
  2  8  1  0  0  0  0
  3  5  1  0  0  0  0
  3 10  1  0  0  0  0
  5  7  2  0  0  0  0
  6  4  1  0  0  0  0
  7  2  1  0  0  0  0
  7  6  1  0  0  0  0
  8  4  1  0  0  0  0
  8 24  1  1  0  0  0
  9  6  1  0  0  0  0
 10  9  2  0  0  0  0
 11 15  1  0  0  0  0
 12 17  1  0  0  0  0
 13 14  2  0  0  0  0
 14 16  1  0  0  0  0
 15 16  2  0  0  0  0
 15  5  1  0  0  0  0
 17 13  1  0  0  0  0
 17 11  2  0  0  0  0
 19 23  1  0  0  0  0
 19 21  1  0  0  0  0
 21 20  1  0  0  0  0
 22 18  1  1  0  0  0
 22 20  1  0  0  0  0
 23 22  1  0  0  0  0
 24 26  1  0  0  0  0
 26 25  1  0  0  0  0
M  END
>  <MODEL>
8

>  <REMARK>
 VINA RESULT:      -7.7      3.377      7.685
  Name = 
  5 active torsions:
  status: ('A' for Active; 'I' for Inactive)
    1  A    between atoms: N_3  and  C_17
    2  A    between atoms: C_11  and  C_19
    3  A    between atoms: C_13  and  C_17
    4  A    between atoms: C_18  and  C_24
    5  A    between atoms: C_24  and  C_25
                            x       y       z     vdW  Elec       q    Type
                         _______ _______ _______ _____ _____    ______ ____

>  <TORSDO>
F 5

$$$$
=
 OpenBabel10232407533D

 26 29  0  0  1  0  0  0  0  0999 V2000
  186.6440  178.5850  138.9000 N   0  0  0  0  0  2  0  0  0  0  0  0
  189.1890  176.7980  143.5790 N   0  0  0  0  0  2  0  0  0  0  0  0
  186.6590  178.6730  141.4310 C   0  0  0  0  0  2  0  0  0  0  0  0
  190.2820  176.5110  141.4450 C   0  0  0  0  0  2  0  0  0  0  0  0
  187.2740  178.0520  142.6740 C   0  0  0  0  0  0  0  0  0  0  0  0
  189.1070  177.3460  141.3130 N   0  0  0  0  0  0  0  0  0  0  0  0
  188.4730  177.4610  142.5570 C   0  0  0  0  0  0  0  0  0  0  0  0
  190.3720  176.2000  142.9590 C   0  0  1  0  0  3  0  0  0  0  0  0
  188.4600  177.6570  140.1100 N   0  0  0  0  0  0  0  0  0  0  0  0
  187.3050  178.2600  140.1250 C   0  0  0  0  0  0  0  0  0  0  0  0
  187.2540  178.0360  145.1770 C   0  0  0  0  0  3  0  0  0  0  0  0
  187.4410  177.9850  147.9010 Cl  0  0  0  0  0  0  0  0  0  0  0  0
  185.1960  178.3650  146.3960 C   0  0  0  0  0  3  0  0  0  0  0  0
  184.5220  178.4840  145.1790 C   0  0  0  0  0  3  0  0  0  0  0  0
  186.5510  178.1620  143.9690 C   0  0  0  0  0  0  0  0  0  0  0  0
  185.2050  178.3820  144.0080 N   0  0  0  0  0  0  0  0  0  0  0  0
  186.5710  178.1390  146.3890 C   0  0  0  0  0  0  0  0  0  0  0  0
  187.2030  178.2820  137.5890 C   0  0  0  0  0  2  0  0  0  0  0  0
  184.3800  177.2900  136.2810 O   0  0  0  0  0  0  0  0  0  0  0  0
  186.6040  177.0320  135.5370 C   0  0  0  0  0  2  0  0  0  0  0  0
  185.1450  176.8980  135.1740 C   0  0  0  0  0  2  0  0  0  0  0  0
  186.6060  176.9950  137.0370 C   0  0  2  0  0  3  0  0  0  0  0  0
  185.1400  176.9230  137.4010 C   0  0  0  0  0  2  0  0  0  0  0  0
  191.6260  176.8250  143.5520 C   0  0  0  0  0  2  0  0  0  0  0  0
  191.7620  176.6670  145.9330 O   0  0  0  0  0  1  0  0  0  0  0  0
  191.3270  177.4850  144.8890 C   0  0  0  0  0  2  0  0  0  0  0  0
  1 10  1  0  0  0  0
  3  5  1  0  0  0  0
  4  8  1  0  0  0  0
  5 15  1  0  0  0  0
  6  4  1  0  0  0  0
  6  7  1  0  0  0  0
  7  5  2  0  0  0  0
  7  2  1  0  0  0  0
  8 24  1  1  0  0  0
  8  2  1  0  0  0  0
  9 10  2  0  0  0  0
  9  6  1  0  0  0  0
 10  3  1  0  0  0  0
 11 17  1  0  0  0  0
 14 13  1  0  0  0  0
 15 16  1  0  0  0  0
 15 11  2  0  0  0  0
 16 14  2  0  0  0  0
 17 13  2  0  0  0  0
 17 12  1  0  0  0  0
 18  1  1  0  0  0  0
 19 23  1  0  0  0  0
 20 22  1  0  0  0  0
 21 20  1  0  0  0  0
 21 19  1  0  0  0  0
 22 23  1  0  0  0  0
 22 18  1  1  0  0  0
 24 26  1  0  0  0  0
 26 25  1  0  0  0  0
M  END
>  <MODEL>
9

>  <REMARK>
 VINA RESULT:      -7.7      3.110      5.190
  Name = 
  5 active torsions:
  status: ('A' for Active; 'I' for Inactive)
    1  A    between atoms: N_3  and  C_17
    2  A    between atoms: C_11  and  C_19
    3  A    between atoms: C_13  and  C_17
    4  A    between atoms: C_18  and  C_24
    5  A    between atoms: C_24  and  C_25
                            x       y       z     vdW  Elec       q    Type
                         _______ _______ _______ _____ _____    ______ ____

>  <TORSDO>
F 5

$$$$
