=
 OpenBabel10232408203D

 30 34  0  0  1  0  0  0  0  0999 V2000
  187.1750  178.0410  141.5440 N   0  0  0  0  0  0  0  0  0  0  0  0
  189.2460  176.7790  144.3310 C   0  0  0  0  0  0  0  0  0  0  0  0
  185.0330  178.3880  145.0390 C   0  0  0  0  0  0  0  0  0  0  0  0
  189.2530  176.9880  145.7440 N   0  0  0  0  0  2  0  0  0  0  0  0
  185.0300  178.6180  142.5970 C   0  0  0  0  0  0  0  0  0  0  0  0
  190.0230  175.9130  143.8510 O   0  0  0  0  0  0  0  0  0  0  0  0
  184.3410  178.4790  146.2410 O   0  0  0  0  0  1  0  0  0  0  0  0
  188.5190  178.0530  146.4050 C   0  0  1  0  0  3  0  0  0  0  0  0
  187.0860  177.8420  146.2660 N   0  0  0  0  0  2  0  0  0  0  0  0
  187.0360  177.9370  143.7860 C   0  0  0  0  0  0  0  0  0  0  0  0
  188.3020  177.4950  143.4420 C   0  0  0  0  0  0  0  0  0  0  0  0
  186.3930  178.0260  145.0290 C   0  0  0  0  0  0  0  0  0  0  0  0
  188.9510  178.0720  148.1660 S   0  0  0  0  0  1  0  0  0  0  0  0
  184.3650  178.6820  143.8360 C   0  0  0  0  0  3  0  0  0  0  0  0
  188.3540  177.6000  142.0440 C   0  0  0  0  0  0  0  0  0  0  0  0
  186.3810  178.2320  142.6130 C   0  0  1  0  0  3  0  0  0  0  0  0
  191.6770  176.8630  139.4290 C   0  0  0  0  0  0  0  0  0  0  0  0
  189.5100  177.3200  141.1680 C   0  0  0  0  0  0  0  0  0  0  0  0
  191.8870  177.4570  140.6800 C   0  0  0  0  0  3  0  0  0  0  0  0
  189.2990  176.7430  139.9080 C   0  0  0  0  0  3  0  0  0  0  0  0
  190.3750  176.5110  139.0470 C   0  0  0  0  0  3  0  0  0  0  0  0
  190.8100  177.6900  141.5410 C   0  0  0  0  0  3  0  0  0  0  0  0
  192.6010  176.4550  137.1630 O   0  0  0  0  0  0  0  0  0  0  0  0
  193.9870  176.5570  138.9790 O   0  0  0  0  0  1  0  0  0  0  0  0
  192.8130  176.6190  138.5270 C   0  0  0  0  0  0  0  0  0  0  0  0
  182.4540  178.9590  140.0100 C   0  0  0  0  0  3  0  0  0  0  0  0
  184.2970  178.9320  141.3510 C   0  0  0  0  0  0  0  0  0  0  0  0
  184.8940  179.5590  140.3020 N   0  0  0  0  0  0  0  0  0  0  0  0
  182.9730  178.6020  141.2050 N   0  0  0  0  0  0  0  0  0  0  0  0
  183.6910  179.6860  139.1700 S   0  0  0  0  0  0  0  0  0  0  0  0
  1 15  2  0  0  0  0
  2  4  1  0  0  0  0
  3  7  1  0  0  0  0
  4  8  1  0  0  0  0
  5 16  1  0  0  0  0
  5 14  2  0  0  0  0
  6  2  2  0  0  0  0
  8 13  1  1  0  0  0
  9  8  1  0  0  0  0
 10 12  1  0  0  0  0
 11 10  2  0  0  0  0
 11  2  1  0  0  0  0
 12  3  2  0  0  0  0
 12  9  1  0  0  0  0
 14  3  1  0  0  0  0
 15 11  1  0  0  0  0
 16  1  1  6  0  0  0
 16 10  1  0  0  0  0
 17 19  1  0  0  0  0
 18 22  1  0  0  0  0
 18 15  1  0  0  0  0
 19 22  2  0  0  0  0
 20 18  2  0  0  0  0
 21 17  2  0  0  0  0
 21 20  1  0  0  0  0
 23 25  2  0  0  0  0
 25 24  1  0  0  0  0
 25 17  1  0  0  0  0
 26 29  2  0  0  0  0
 27  5  1  0  0  0  0
 28 27  2  0  0  0  0
 29 27  1  0  0  0  0
 30 26  1  0  0  0  0
 30 28  1  0  0  0  0
M  END
>  <MODEL>
1

>  <REMARK>
 VINA RESULT:      -9.7      0.000      0.000
  Name = 
  3 active torsions:
  status: ('A' for Active; 'I' for Inactive)
    1  A    between atoms: C_6  and  C_30
    2  A    between atoms: C_7  and  C_26
    3  A    between atoms: C_8  and  C_9
                            x       y       z     vdW  Elec       q    Type
                         _______ _______ _______ _____ _____    ______ ____

>  <TORSDO>
F 3

$$$$
=
 OpenBabel10232408203D

 30 34  0  0  1  0  0  0  0  0999 V2000
  188.4520  177.6450  143.2570 N   0  0  0  0  0  0  0  0  0  0  0  0
  191.4160  175.9610  144.6810 C   0  0  0  0  0  0  0  0  0  0  0  0
  187.9210  177.2550  147.3180 C   0  0  0  0  0  0  0  0  0  0  0  0
  192.0020  175.9030  145.9830 N   0  0  0  0  0  2  0  0  0  0  0  0
  186.9420  177.9360  145.1750 C   0  0  0  0  0  0  0  0  0  0  0  0
  191.8950  175.2290  143.7760 O   0  0  0  0  0  0  0  0  0  0  0  0
  187.7780  177.0940  148.6910 O   0  0  0  0  0  1  0  0  0  0  0  0
  191.6440  176.7980  147.0690 C   0  0  1  0  0  3  0  0  0  0  0  0
  190.2700  176.5650  147.4850 N   0  0  0  0  0  2  0  0  0  0  0  0
  189.2260  177.1190  145.3020 C   0  0  0  0  0  0  0  0  0  0  0  0
  190.2250  176.7950  144.4000 C   0  0  0  0  0  0  0  0  0  0  0  0
  189.1440  176.9510  146.6920 C   0  0  0  0  0  0  0  0  0  0  0  0
  192.7510  176.5040  148.4740 S   0  0  0  0  0  1  0  0  0  0  0  0
  186.8370  177.7430  146.5650 C   0  0  0  0  0  3  0  0  0  0  0  0
  189.7130  177.1620  143.1460 C   0  0  0  0  0  0  0  0  0  0  0  0
  188.1660  177.6030  144.5700 C   0  0  1  0  0  3  0  0  0  0  0  0
  191.7830  176.8820  139.3970 C   0  0  0  0  0  0  0  0  0  0  0  0
  190.4020  177.0920  141.8420 C   0  0  0  0  0  0  0  0  0  0  0  0
  190.4660  176.4190  139.5080 C   0  0  0  0  0  3  0  0  0  0  0  0
  191.7280  177.5360  141.7350 C   0  0  0  0  0  3  0  0  0  0  0  0
  192.4120  177.4370  140.5210 C   0  0  0  0  0  3  0  0  0  0  0  0
  189.7830  176.5180  140.7230 C   0  0  0  0  0  3  0  0  0  0  0  0
  191.8070  176.4610  136.9520 O   0  0  0  0  0  0  0  0  0  0  0  0
  193.7420  176.9710  138.0600 O   0  0  0  0  0  1  0  0  0  0  0  0
  192.4990  176.7770  138.1160 C   0  0  0  0  0  0  0  0  0  0  0  0
  183.8690  179.6650  144.1670 C   0  0  0  0  0  3  0  0  0  0  0  0
  185.7820  178.4500  144.4140 C   0  0  0  0  0  0  0  0  0  0  0  0
  185.5730  178.1230  143.1100 N   0  0  0  0  0  0  0  0  0  0  0  0
  184.8650  179.2870  144.9980 N   0  0  0  0  0  0  0  0  0  0  0  0
  184.1800  178.9270  142.7100 S   0  0  0  0  0  0  0  0  0  0  0  0
  2  4  1  0  0  0  0
  3  7  1  0  0  0  0
  4  8  1  0  0  0  0
  5 14  2  0  0  0  0
  6  2  2  0  0  0  0
  8  9  1  0  0  0  0
  8 13  1  1  0  0  0
 10 12  1  0  0  0  0
 11  2  1  0  0  0  0
 11 10  2  0  0  0  0
 12  3  2  0  0  0  0
 12  9  1  0  0  0  0
 14  3  1  0  0  0  0
 15  1  2  0  0  0  0
 15 11  1  0  0  0  0
 16  1  1  6  0  0  0
 16  5  1  0  0  0  0
 16 10  1  0  0  0  0
 17 19  2  0  0  0  0
 17 21  1  0  0  0  0
 18 15  1  0  0  0  0
 19 22  1  0  0  0  0
 20 18  1  0  0  0  0
 21 20  2  0  0  0  0
 22 18  2  0  0  0  0
 23 25  2  0  0  0  0
 24 25  1  0  0  0  0
 25 17  1  0  0  0  0
 26 29  2  0  0  0  0
 27 29  1  0  0  0  0
 27  5  1  0  0  0  0
 28 27  2  0  0  0  0
 30 28  1  0  0  0  0
 30 26  1  0  0  0  0
M  END
>  <MODEL>
2

>  <REMARK>
 VINA RESULT:      -9.3      2.202      2.953
  Name = 
  3 active torsions:
  status: ('A' for Active; 'I' for Inactive)
    1  A    between atoms: C_6  and  C_30
    2  A    between atoms: C_7  and  C_26
    3  A    between atoms: C_8  and  C_9
                            x       y       z     vdW  Elec       q    Type
                         _______ _______ _______ _____ _____    ______ ____

>  <TORSDO>
F 3

$$$$
=
 OpenBabel10232408203D

 30 34  0  0  1  0  0  0  0  0999 V2000
  187.7730  177.8110  143.7010 N   0  0  0  0  0  0  0  0  0  0  0  0
  190.8160  177.6240  141.6140 C   0  0  0  0  0  0  0  0  0  0  0  0
  186.7260  178.4950  139.7820 C   0  0  0  0  0  0  0  0  0  0  0  0
  191.0630  177.3740  140.2290 N   0  0  0  0  0  2  0  0  0  0  0  0
  185.9930  178.4240  142.1210 C   0  0  0  0  0  0  0  0  0  0  0  0
  191.7850  177.9610  142.3430 O   0  0  0  0  0  0  0  0  0  0  0  0
  186.4180  178.7300  138.4470 O   0  0  0  0  0  1  0  0  0  0  0  0
  190.0690  176.8380  139.3170 C   0  0  1  0  0  3  0  0  0  0  0  0
  188.9850  177.7920  139.1320 N   0  0  0  0  0  2  0  0  0  0  0  0
  188.2760  177.8620  141.5100 C   0  0  0  0  0  0  0  0  0  0  0  0
  189.4500  177.5730  142.1830 C   0  0  0  0  0  0  0  0  0  0  0  0
  188.0170  178.0700  140.1470 C   0  0  0  0  0  0  0  0  0  0  0  0
  190.8480  176.5040  137.7140 S   0  0  0  0  0  1  0  0  0  0  0  0
  185.7290  178.6660  140.7600 C   0  0  0  0  0  3  0  0  0  0  0  0
  189.0870  177.5240  143.5370 C   0  0  2  0  0  3  0  0  0  0  0  0
  187.2960  178.0240  142.4620 C   0  0  0  0  0  0  0  0  0  0  0  0
  191.5240  176.4730  146.9110 C   0  0  0  0  0  0  0  0  0  0  0  0
  189.9540  177.1840  144.6840 C   0  0  0  0  0  0  0  0  0  0  0  0
  191.8440  175.9900  145.6360 C   0  0  0  0  0  3  0  0  0  0  0  0
  189.6230  177.6500  145.9640 C   0  0  0  0  0  3  0  0  0  0  0  0
  190.4040  177.3030  147.0690 C   0  0  0  0  0  3  0  0  0  0  0  0
  191.0610  176.3380  144.5320 C   0  0  0  0  0  3  0  0  0  0  0  0
  192.8260  177.0870  148.9320 O   0  0  0  0  0  1  0  0  0  0  0  0
  192.6370  174.8990  148.2950 O   0  0  0  0  0  0  0  0  0  0  0  0
  192.3510  176.1050  148.0700 C   0  0  0  0  0  0  0  0  0  0  0  0
  184.1230  178.9280  145.2360 C   0  0  0  0  0  3  0  0  0  0  0  0
  184.9210  178.6150  143.1230 C   0  0  0  0  0  0  0  0  0  0  0  0
  183.6070  178.6560  142.7740 N   0  0  0  0  0  0  0  0  0  0  0  0
  185.2150  178.7620  144.4550 N   0  0  0  0  0  0  0  0  0  0  0  0
  182.8150  178.8840  144.2120 S   0  0  0  0  0  0  0  0  0  0  0  0
  2 11  1  0  0  0  0
  2  6  2  0  0  0  0
  3 12  2  0  0  0  0
  3 14  1  0  0  0  0
  4  2  1  0  0  0  0
  5 16  1  0  0  0  0
  5 27  1  0  0  0  0
  7  3  1  0  0  0  0
  8 13  1  6  0  0  0
  8  4  1  0  0  0  0
  9  8  1  0  0  0  0
  9 12  1  0  0  0  0
 10 11  2  0  0  0  0
 10 16  1  0  0  0  0
 11 15  1  0  0  0  0
 12 10  1  0  0  0  0
 14  5  2  0  0  0  0
 15  1  1  0  0  0  0
 15 18  1  6  0  0  0
 16  1  2  0  0  0  0
 17 21  1  0  0  0  0
 17 25  1  0  0  0  0
 18 20  1  0  0  0  0
 19 17  2  0  0  0  0
 20 21  2  0  0  0  0
 22 18  2  0  0  0  0
 22 19  1  0  0  0  0
 25 24  2  0  0  0  0
 25 23  1  0  0  0  0
 27 29  1  0  0  0  0
 28 27  2  0  0  0  0
 28 30  1  0  0  0  0
 29 26  2  0  0  0  0
 30 26  1  0  0  0  0
M  END
>  <MODEL>
3

>  <REMARK>
 VINA RESULT:      -9.2      3.273      5.906
  Name = 
  3 active torsions:
  status: ('A' for Active; 'I' for Inactive)
    1  A    between atoms: C_6  and  C_30
    2  A    between atoms: C_7  and  C_26
    3  A    between atoms: C_8  and  C_9
                            x       y       z     vdW  Elec       q    Type
                         _______ _______ _______ _____ _____    ______ ____

>  <TORSDO>
F 3

$$$$
=
 OpenBabel10232408203D

 30 34  0  0  1  0  0  0  0  0999 V2000
  188.1620  177.6300  140.3100 N   0  0  0  0  0  0  0  0  0  0  0  0
  191.7680  177.1230  139.6890 C   0  0  0  0  0  0  0  0  0  0  0  0
  188.7980  177.5400  136.2470 C   0  0  0  0  0  0  0  0  0  0  0  0
  192.5310  176.6230  138.5900 N   0  0  0  0  0  2  0  0  0  0  0  0
  187.1930  177.8940  138.0670 C   0  0  0  0  0  0  0  0  0  0  0  0
  192.3840  177.6130  140.6710 O   0  0  0  0  0  0  0  0  0  0  0  0
  189.0590  177.5120  134.8820 O   0  0  0  0  0  1  0  0  0  0  0  0
  191.9530  175.9020  137.4690 C   0  0  1  0  0  3  0  0  0  0  0  0
  191.0860  176.7780  136.6960 N   0  0  0  0  0  2  0  0  0  0  0  0
  189.4960  177.2800  138.5350 C   0  0  0  0  0  0  0  0  0  0  0  0
  190.2870  177.1490  139.6620 C   0  0  0  0  0  0  0  0  0  0  0  0
  189.8120  177.2210  137.1690 C   0  0  0  0  0  0  0  0  0  0  0  0
  193.2850  175.2890  136.4030 S   0  0  0  0  0  1  0  0  0  0  0  0
  187.5050  177.8690  136.6950 C   0  0  0  0  0  3  0  0  0  0  0  0
  189.4140  177.3490  140.7420 C   0  0  2  0  0  3  0  0  0  0  0  0
  188.2290  177.5950  138.9680 C   0  0  0  0  0  0  0  0  0  0  0  0
  190.4450  177.0440  144.8970 C   0  0  0  0  0  0  0  0  0  0  0  0
  189.7330  177.2510  142.1810 C   0  0  0  0  0  0  0  0  0  0  0  0
  190.0920  178.2850  144.3510 C   0  0  0  0  0  3  0  0  0  0  0  0
  190.1060  176.0140  142.7250 C   0  0  0  0  0  3  0  0  0  0  0  0
  190.4540  175.9090  144.0740 C   0  0  0  0  0  3  0  0  0  0  0  0
  189.7440  178.3880  143.0010 C   0  0  0  0  0  3  0  0  0  0  0  0
  189.8200  176.9000  147.2940 O   0  0  0  0  0  1  0  0  0  0  0  0
  192.0190  176.8840  146.6670 O   0  0  0  0  0  0  0  0  0  0  0  0
  190.8090  176.9400  146.3180 C   0  0  0  0  0  0  0  0  0  0  0  0
  183.5490  178.1190  138.4150 C   0  0  0  0  0  3  0  0  0  0  0  0
  185.8230  178.2460  138.5030 C   0  0  0  0  0  0  0  0  0  0  0  0
  185.5930  179.1240  139.5160 N   0  0  0  0  0  0  0  0  0  0  0  0
  184.7230  177.6940  137.8980 N   0  0  0  0  0  0  0  0  0  0  0  0
  183.9410  179.1860  139.6280 S   0  0  0  0  0  0  0  0  0  0  0  0
  1 15  1  0  0  0  0
  2  6  2  0  0  0  0
  3 14  1  0  0  0  0
  3 12  2  0  0  0  0
  4  2  1  0  0  0  0
  5 27  1  0  0  0  0
  5 16  1  0  0  0  0
  7  3  1  0  0  0  0
  8 13  1  6  0  0  0
  8  4  1  0  0  0  0
  9 12  1  0  0  0  0
  9  8  1  0  0  0  0
 10 16  1  0  0  0  0
 10 11  2  0  0  0  0
 11  2  1  0  0  0  0
 11 15  1  0  0  0  0
 12 10  1  0  0  0  0
 14  5  2  0  0  0  0
 15 18  1  1  0  0  0
 16  1  2  0  0  0  0
 17 25  1  0  0  0  0
 18 20  2  0  0  0  0
 18 22  1  0  0  0  0
 19 17  1  0  0  0  0
 20 21  1  0  0  0  0
 21 17  2  0  0  0  0
 22 19  2  0  0  0  0
 25 24  2  0  0  0  0
 25 23  1  0  0  0  0
 26 30  1  0  0  0  0
 27 28  2  0  0  0  0
 28 30  1  0  0  0  0
 29 26  2  0  0  0  0
 29 27  1  0  0  0  0
M  END
>  <MODEL>
4

>  <REMARK>
 VINA RESULT:      -9.0      3.608      6.629
  Name = 
  3 active torsions:
  status: ('A' for Active; 'I' for Inactive)
    1  A    between atoms: C_6  and  C_30
    2  A    between atoms: C_7  and  C_26
    3  A    between atoms: C_8  and  C_9
                            x       y       z     vdW  Elec       q    Type
                         _______ _______ _______ _____ _____    ______ ____

>  <TORSDO>
F 3

$$$$
=
 OpenBabel10232408203D

 30 34  0  0  1  0  0  0  0  0999 V2000
  188.3080  177.6690  143.5340 N   0  0  0  0  0  0  0  0  0  0  0  0
  186.1340  178.7020  140.7310 C   0  0  0  0  0  0  0  0  0  0  0  0
  184.6270  178.7230  145.0410 C   0  0  0  0  0  0  0  0  0  0  0  0
  184.7210  178.7800  140.5400 N   0  0  0  0  0  2  0  0  0  0  0  0
  186.9300  178.0380  145.5360 C   0  0  0  0  0  0  0  0  0  0  0  0
  186.8860  179.1570  139.8300 O   0  0  0  0  0  0  0  0  0  0  0  0
  183.3730  179.0970  145.5080 O   0  0  0  0  0  1  0  0  0  0  0  0
  183.7520  178.1610  141.4280 C   0  0  1  0  0  3  0  0  0  0  0  0
  183.7880  178.7960  142.7370 N   0  0  0  0  0  2  0  0  0  0  0  0
  186.1540  178.2450  143.2430 C   0  0  0  0  0  0  0  0  0  0  0  0
  186.7240  178.1750  141.9840 C   0  0  0  0  0  0  0  0  0  0  0  0
  184.8650  178.6120  143.6580 C   0  0  2  0  0  3  0  0  0  0  0  0
  182.0930  178.3440  140.7210 S   0  0  0  0  0  1  0  0  0  0  0  0
  185.6500  178.4360  145.9650 C   0  0  0  0  0  3  0  0  0  0  0  0
  188.0530  177.7890  142.2090 C   0  0  0  0  0  0  0  0  0  0  0  0
  187.1480  177.9590  144.1500 C   0  0  0  0  0  0  0  0  0  0  0  0
  191.0840  176.8670  139.3150 C   0  0  0  0  0  0  0  0  0  0  0  0
  189.0870  177.5030  141.1940 C   0  0  0  0  0  0  0  0  0  0  0  0
  189.7310  176.7520  138.9740 C   0  0  0  0  0  3  0  0  0  0  0  0
  190.4420  177.5980  141.5390 C   0  0  0  0  0  3  0  0  0  0  0  0
  191.4340  177.2890  140.6050 C   0  0  0  0  0  3  0  0  0  0  0  0
  188.7390  177.0620  139.9090 C   0  0  0  0  0  3  0  0  0  0  0  0
  193.4680  176.7140  138.6420 O   0  0  0  0  0  1  0  0  0  0  0  0
  191.8120  176.1030  137.1880 O   0  0  0  0  0  0  0  0  0  0  0  0
  192.1250  176.5410  138.3270 C   0  0  0  0  0  0  0  0  0  0  0  0
  188.9490  177.8890  148.5940 C   0  0  0  0  0  3  0  0  0  0  0  0
  187.9820  177.7460  146.5350 C   0  0  0  0  0  0  0  0  0  0  0  0
  189.0570  176.9660  146.2420 N   0  0  0  0  0  0  0  0  0  0  0  0
  187.9110  178.2520  147.8080 N   0  0  0  0  0  0  0  0  0  0  0  0
  189.9290  176.9340  147.6500 S   0  0  0  0  0  0  0  0  0  0  0  0
  1 16  1  0  0  0  0
  2 11  1  0  0  0  0
  3  7  1  0  0  0  0
  3 14  2  0  0  0  0
  4  2  1  0  0  0  0
  4  8  1  0  0  0  0
  5 14  1  0  0  0  0
  5 27  1  0  0  0  0
  6  2  2  0  0  0  0
  8 13  1  6  0  0  0
  8  9  1  0  0  0  0
 10 12  1  0  0  0  0
 10 16  1  0  0  0  0
 11 15  1  0  0  0  0
 11 10  2  0  0  0  0
 12  9  1  1  0  0  0
 12  3  1  0  0  0  0
 15  1  2  0  0  0  0
 16  5  2  0  0  0  0
 17 21  1  0  0  0  0
 18 20  1  0  0  0  0
 18 15  1  0  0  0  0
 19 17  2  0  0  0  0
 19 22  1  0  0  0  0
 21 20  2  0  0  0  0
 22 18  2  0  0  0  0
 24 25  2  0  0  0  0
 25 23  1  0  0  0  0
 25 17  1  0  0  0  0
 27 29  1  0  0  0  0
 28 27  2  0  0  0  0
 28 30  1  0  0  0  0
 29 26  2  0  0  0  0
 30 26  1  0  0  0  0
M  END
>  <MODEL>
5

>  <REMARK>
 VINA RESULT:      -9.0      1.633      5.065
  Name = 
  3 active torsions:
  status: ('A' for Active; 'I' for Inactive)
    1  A    between atoms: C_6  and  C_30
    2  A    between atoms: C_7  and  C_26
    3  A    between atoms: C_8  and  C_9
                            x       y       z     vdW  Elec       q    Type
                         _______ _______ _______ _____ _____    ______ ____

>  <TORSDO>
F 3

$$$$
=
 OpenBabel10232408203D

 30 34  0  0  1  0  0  0  0  0999 V2000
  189.1700  177.3730  142.6280 N   0  0  0  0  0  0  0  0  0  0  0  0
  187.6450  178.5570  139.4790 C   0  0  0  0  0  0  0  0  0  0  0  0
  185.3580  178.6970  143.4280 C   0  0  0  0  0  0  0  0  0  0  0  0
  186.3030  178.7390  139.0260 N   0  0  0  0  0  2  0  0  0  0  0  0
  187.4700  177.8460  144.3390 C   0  0  0  0  0  0  0  0  0  0  0  0
  188.5840  178.9550  138.7410 O   0  0  0  0  0  0  0  0  0  0  0  0
  184.0690  179.1630  143.6550 O   0  0  0  0  0  1  0  0  0  0  0  0
  185.1410  178.1950  139.7080 C   0  0  1  0  0  3  0  0  0  0  0  0
  184.9750  178.8280  141.0080 N   0  0  0  0  0  2  0  0  0  0  0  0
  187.1580  178.1050  141.9440 C   0  0  0  0  0  0  0  0  0  0  0  0
  187.9480  177.9910  140.8140 C   0  0  0  0  0  0  0  0  0  0  0  0
  185.8440  178.5670  142.1130 C   0  0  2  0  0  3  0  0  0  0  0  0
  183.6630  178.4970  138.7040 S   0  0  0  0  0  1  0  0  0  0  0  0
  186.1640  178.3370  144.5240 C   0  0  0  0  0  3  0  0  0  0  0  0
  189.1800  177.5090  141.2810 C   0  0  0  0  0  0  0  0  0  0  0  0
  187.9390  177.7480  143.0180 C   0  0  0  0  0  0  0  0  0  0  0  0
  192.5800  176.5180  138.8570 C   0  0  0  0  0  0  0  0  0  0  0  0
  190.3630  177.1460  140.4740 C   0  0  0  0  0  0  0  0  0  0  0  0
  192.7400  177.3110  140.0000 C   0  0  0  0  0  3  0  0  0  0  0  0
  190.2010  176.3700  139.3190 C   0  0  0  0  0  3  0  0  0  0  0  0
  191.3010  176.0530  138.5180 C   0  0  0  0  0  3  0  0  0  0  0  0
  191.6380  177.6270  140.8000 C   0  0  0  0  0  3  0  0  0  0  0  0
  194.6970  175.2830  138.4710 O   0  0  0  0  0  1  0  0  0  0  0  0
  193.8850  176.7150  136.8840 O   0  0  0  0  0  0  0  0  0  0  0  0
  193.7420  176.1860  138.0190 C   0  0  0  0  0  0  0  0  0  0  0  0
  188.6070  176.9620  147.7120 C   0  0  0  0  0  3  0  0  0  0  0  0
  188.2910  177.4790  145.5140 C   0  0  0  0  0  0  0  0  0  0  0  0
  189.6370  177.3050  145.4280 N   0  0  0  0  0  0  0  0  0  0  0  0
  187.7190  177.2950  146.7480 N   0  0  0  0  0  0  0  0  0  0  0  0
  190.0940  176.9100  146.9710 S   0  0  0  0  0  0  0  0  0  0  0  0
  1 16  1  0  0  0  0
  2 11  1  0  0  0  0
  3  7  1  0  0  0  0
  3 14  2  0  0  0  0
  4  2  1  0  0  0  0
  4  8  1  0  0  0  0
  5 14  1  0  0  0  0
  5 27  1  0  0  0  0
  6  2  2  0  0  0  0
  8 13  1  6  0  0  0
  8  9  1  0  0  0  0
 10 12  1  0  0  0  0
 10 16  1  0  0  0  0
 11 15  1  0  0  0  0
 11 10  2  0  0  0  0
 12  9  1  6  0  0  0
 12  3  1  0  0  0  0
 15  1  2  0  0  0  0
 16  5  2  0  0  0  0
 17 19  1  0  0  0  0
 18 22  1  0  0  0  0
 18 15  1  0  0  0  0
 19 22  2  0  0  0  0
 20 18  2  0  0  0  0
 21 17  2  0  0  0  0
 21 20  1  0  0  0  0
 24 25  2  0  0  0  0
 25 23  1  0  0  0  0
 25 17  1  0  0  0  0
 27 29  1  0  0  0  0
 28 27  2  0  0  0  0
 28 30  1  0  0  0  0
 29 26  2  0  0  0  0
 30 26  1  0  0  0  0
M  END
>  <MODEL>
6

>  <REMARK>
 VINA RESULT:      -9.0      1.756      5.031
  Name = 
  3 active torsions:
  status: ('A' for Active; 'I' for Inactive)
    1  A    between atoms: C_6  and  C_30
    2  A    between atoms: C_7  and  C_26
    3  A    between atoms: C_8  and  C_9
                            x       y       z     vdW  Elec       q    Type
                         _______ _______ _______ _____ _____    ______ ____

>  <TORSDO>
F 3

$$$$
=
 OpenBabel10232408203D

 30 34  0  0  1  0  0  0  0  0999 V2000
  188.5930  177.5400  143.2640 N   0  0  0  0  0  0  0  0  0  0  0  0
  185.5930  179.0110  141.6860 C   0  0  0  0  0  0  0  0  0  0  0  0
  185.8550  178.4230  146.2060 C   0  0  0  0  0  0  0  0  0  0  0  0
  184.2240  179.1400  142.0710 N   0  0  0  0  0  2  0  0  0  0  0  0
  188.1150  177.6350  145.6740 C   0  0  0  0  0  0  0  0  0  0  0  0
  185.9740  179.5810  140.6300 O   0  0  0  0  0  0  0  0  0  0  0  0
  184.9050  178.7460  147.1680 O   0  0  0  0  0  1  0  0  0  0  0  0
  183.6260  178.4140  143.1780 C   0  0  1  0  0  3  0  0  0  0  0  0
  184.2060  178.8490  144.4400 N   0  0  0  0  0  2  0  0  0  0  0  0
  186.5390  178.1890  143.9110 C   0  0  0  0  0  0  0  0  0  0  0  0
  186.5770  178.2960  142.5320 C   0  0  0  0  0  0  0  0  0  0  0  0
  185.5370  178.5140  144.8370 C   0  0  0  0  0  0  0  0  0  0  0  0
  181.8410  178.7270  143.2020 S   0  0  0  0  0  1  0  0  0  0  0  0
  187.1290  177.9860  146.6140 C   0  0  0  0  0  3  0  0  0  0  0  0
  187.8600  177.8590  142.1700 C   0  0  0  0  0  0  0  0  0  0  0  0
  187.7810  177.7560  144.3150 C   0  0  1  0  0  3  0  0  0  0  0  0
  189.4630  177.3140  138.2260 C   0  0  0  0  0  0  0  0  0  0  0  0
  188.4030  177.7070  140.8050 C   0  0  0  0  0  0  0  0  0  0  0  0
  188.0830  177.4720  138.4070 C   0  0  0  0  0  3  0  0  0  0  0  0
  189.7810  177.5290  140.6240 C   0  0  0  0  0  3  0  0  0  0  0  0
  190.3090  177.3400  139.3440 C   0  0  0  0  0  3  0  0  0  0  0  0
  187.5560  177.6610  139.6890 C   0  0  0  0  0  3  0  0  0  0  0  0
  189.3670  177.6580  135.7710 O   0  0  0  0  0  0  0  0  0  0  0  0
  191.0730  176.4570  136.7080 O   0  0  0  0  0  1  0  0  0  0  0  0
  190.0130  177.1170  136.8770 C   0  0  0  0  0  0  0  0  0  0  0  0
  191.6070  176.5250  145.8360 C   0  0  0  0  0  3  0  0  0  0  0  0
  189.4450  177.1800  146.1380 C   0  0  0  0  0  0  0  0  0  0  0  0
  189.7220  176.9930  147.4570 N   0  0  0  0  0  0  0  0  0  0  0  0
  190.4590  176.9310  145.2490 N   0  0  0  0  0  0  0  0  0  0  0  0
  191.3030  176.4950  147.4700 S   0  0  0  0  0  0  0  0  0  0  0  0
  2  4  1  0  0  0  0
  2 11  1  0  0  0  0
  3 14  1  0  0  0  0
  3  7  1  0  0  0  0
  4  8  1  0  0  0  0
  5 27  1  0  0  0  0
  5 14  2  0  0  0  0
  6  2  2  0  0  0  0
  8 13  1  1  0  0  0
  8  9  1  0  0  0  0
  9 12  1  0  0  0  0
 10 16  1  0  0  0  0
 10 12  1  0  0  0  0
 11 10  2  0  0  0  0
 12  3  2  0  0  0  0
 15 11  1  0  0  0  0
 15  1  2  0  0  0  0
 16  1  1  1  0  0  0
 16  5  1  0  0  0  0
 17 19  2  0  0  0  0
 17 21  1  0  0  0  0
 18 15  1  0  0  0  0
 19 22  1  0  0  0  0
 20 18  1  0  0  0  0
 21 20  2  0  0  0  0
 22 18  2  0  0  0  0
 23 25  2  0  0  0  0
 24 25  1  0  0  0  0
 25 17  1  0  0  0  0
 26 30  1  0  0  0  0
 27 28  2  0  0  0  0
 28 30  1  0  0  0  0
 29 26  2  0  0  0  0
 29 27  1  0  0  0  0
M  END
>  <MODEL>
7

>  <REMARK>
 VINA RESULT:      -8.9      2.239      5.288
  Name = 
  3 active torsions:
  status: ('A' for Active; 'I' for Inactive)
    1  A    between atoms: C_6  and  C_30
    2  A    between atoms: C_7  and  C_26
    3  A    between atoms: C_8  and  C_9
                            x       y       z     vdW  Elec       q    Type
                         _______ _______ _______ _____ _____    ______ ____

>  <TORSDO>
F 3

$$$$
=
 OpenBabel10232408203D

 30 34  0  0  1  0  0  0  0  0999 V2000
  190.0920  177.0070  143.1280 N   0  0  0  0  0  0  0  0  0  0  0  0
  187.5600  178.5280  140.9090 C   0  0  0  0  0  0  0  0  0  0  0  0
  186.8540  178.1320  145.4020 C   0  0  0  0  0  0  0  0  0  0  0  0
  186.1490  178.7300  140.9960 N   0  0  0  0  0  2  0  0  0  0  0  0
  189.1330  177.2280  145.3800 C   0  0  0  0  0  0  0  0  0  0  0  0
  188.1780  179.0340  139.9360 O   0  0  0  0  0  0  0  0  0  0  0  0
  185.7430  178.5360  146.1330 O   0  0  0  0  0  1  0  0  0  0  0  0
  185.3000  178.0790  141.9790 C   0  0  1  0  0  3  0  0  0  0  0  0
  185.6270  178.5460  143.3170 N   0  0  0  0  0  2  0  0  0  0  0  0
  187.9840  177.7680  143.3090 C   0  0  0  0  0  0  0  0  0  0  0  0
  188.3110  177.8110  141.9660 C   0  0  0  0  0  0  0  0  0  0  0  0
  186.8300  178.1740  143.9950 C   0  0  0  0  0  0  0  0  0  0  0  0
  183.5660  178.4660  141.6190 S   0  0  0  0  0  1  0  0  0  0  0  0
  187.9930  177.6610  146.0820 C   0  0  0  0  0  3  0  0  0  0  0  0
  189.6180  177.3060  141.8950 C   0  0  0  0  0  0  0  0  0  0  0  0
  189.0930  177.3020  143.9780 C   0  0  1  0  0  3  0  0  0  0  0  0
  192.0150  176.5500  138.4160 C   0  0  0  0  0  0  0  0  0  0  0  0
  190.4230  177.0720  140.6790 C   0  0  0  0  0  0  0  0  0  0  0  0
  190.6700  176.1590  138.4400 C   0  0  0  0  0  3  0  0  0  0  0  0
  191.7740  177.4440  140.6600 C   0  0  0  0  0  3  0  0  0  0  0  0
  192.5640  177.1910  139.5360 C   0  0  0  0  0  3  0  0  0  0  0  0
  189.8820  176.4130  139.5660 C   0  0  0  0  0  3  0  0  0  0  0  0
  194.2050  176.5510  137.2490 O   0  0  0  0  0  1  0  0  0  0  0  0
  192.3230  175.8060  136.1830 O   0  0  0  0  0  0  0  0  0  0  0  0
  192.8410  176.2820  137.2280 C   0  0  0  0  0  0  0  0  0  0  0  0
  192.3460  175.7230  146.3110 C   0  0  0  0  0  3  0  0  0  0  0  0
  190.3140  176.7410  146.1270 C   0  0  0  0  0  0  0  0  0  0  0  0
  190.4340  176.9030  147.4730 N   0  0  0  0  0  0  0  0  0  0  0  0
  191.3450  176.1030  145.4850 N   0  0  0  0  0  0  0  0  0  0  0  0
  191.8940  176.2080  147.8350 S   0  0  0  0  0  0  0  0  0  0  0  0
  2  4  1  0  0  0  0
  2 11  1  0  0  0  0
  3 14  1  0  0  0  0
  3  7  1  0  0  0  0
  4  8  1  0  0  0  0
  5 14  2  0  0  0  0
  5 27  1  0  0  0  0
  6  2  2  0  0  0  0
  8 13  1  6  0  0  0
  8  9  1  0  0  0  0
  9 12  1  0  0  0  0
 10 16  1  0  0  0  0
 10 12  1  0  0  0  0
 11 10  2  0  0  0  0
 12  3  2  0  0  0  0
 15 11  1  0  0  0  0
 15  1  2  0  0  0  0
 16  1  1  1  0  0  0
 16  5  1  0  0  0  0
 17 19  2  0  0  0  0
 17 21  1  0  0  0  0
 18 15  1  0  0  0  0
 19 22  1  0  0  0  0
 20 18  1  0  0  0  0
 21 20  2  0  0  0  0
 22 18  2  0  0  0  0
 24 25  2  0  0  0  0
 25 23  1  0  0  0  0
 25 17  1  0  0  0  0
 26 30  1  0  0  0  0
 27 28  2  0  0  0  0
 28 30  1  0  0  0  0
 29 27  1  0  0  0  0
 29 26  2  0  0  0  0
M  END
>  <MODEL>
8

>  <REMARK>
 VINA RESULT:      -8.9      1.972      5.384
  Name = 
  3 active torsions:
  status: ('A' for Active; 'I' for Inactive)
    1  A    between atoms: C_6  and  C_30
    2  A    between atoms: C_7  and  C_26
    3  A    between atoms: C_8  and  C_9
                            x       y       z     vdW  Elec       q    Type
                         _______ _______ _______ _____ _____    ______ ____

>  <TORSDO>
F 3

$$$$
=
 OpenBabel10232408203D

 30 34  0  0  1  0  0  0  0  0999 V2000
  186.8850  178.1360  141.5520 N   0  0  0  0  0  0  0  0  0  0  0  0
  187.1730  178.3900  145.2260 C   0  0  0  0  0  0  0  0  0  0  0  0
  190.8220  177.5780  142.6060 C   0  0  0  0  0  0  0  0  0  0  0  0
  188.1170  177.9190  146.1890 N   0  0  0  0  0  2  0  0  0  0  0  0
  189.1990  177.8240  140.7840 C   0  0  0  0  0  0  0  0  0  0  0  0
  186.2510  179.1530  145.6170 O   0  0  0  0  0  0  0  0  0  0  0  0
  192.1420  177.4050  143.0050 O   0  0  0  0  0  1  0  0  0  0  0  0
  189.1330  176.9220  145.9000 C   0  0  1  0  0  3  0  0  0  0  0  0
  190.1000  177.4450  144.9470 N   0  0  0  0  0  2  0  0  0  0  0  0
  188.4830  177.8380  143.1050 C   0  0  0  0  0  0  0  0  0  0  0  0
  187.3000  178.0670  143.7860 C   0  0  0  0  0  0  0  0  0  0  0  0
  189.7940  177.6470  143.5650 C   0  0  0  0  0  0  0  0  0  0  0  0
  189.9890  176.4790  147.4360 S   0  0  0  0  0  1  0  0  0  0  0  0
  190.5230  177.6630  141.2330 C   0  0  0  0  0  3  0  0  0  0  0  0
  186.3300  178.2210  142.7850 C   0  0  2  0  0  3  0  0  0  0  0  0
  188.1940  177.9130  141.7620 C   0  0  0  0  0  0  0  0  0  0  0  0
  182.1310  178.8990  143.3520 C   0  0  0  0  0  0  0  0  0  0  0  0
  184.8780  178.4190  142.9680 C   0  0  0  0  0  0  0  0  0  0  0  0
  182.6540  178.7860  142.0580 C   0  0  0  0  0  3  0  0  0  0  0  0
  184.3550  178.5540  144.2610 C   0  0  0  0  0  3  0  0  0  0  0  0
  182.9910  178.7860  144.4530 C   0  0  0  0  0  3  0  0  0  0  0  0
  184.0200  178.5530  141.8680 C   0  0  0  0  0  3  0  0  0  0  0  0
  180.1030  180.2980  143.0480 O   0  0  0  0  0  0  0  0  0  0  0  0
  179.9820  178.3090  144.1700 O   0  0  0  0  0  1  0  0  0  0  0  0
  180.6930  179.1430  143.5490 C   0  0  0  0  0  0  0  0  0  0  0  0
  188.3600  177.0480  137.2990 C   0  0  0  0  0  3  0  0  0  0  0  0
  188.9200  177.9110  139.3330 C   0  0  0  0  0  0  0  0  0  0  0  0
  188.9820  179.0890  138.6570 N   0  0  0  0  0  0  0  0  0  0  0  0
  188.5830  176.7960  138.6080 N   0  0  0  0  0  0  0  0  0  0  0  0
  188.5960  178.6810  137.0980 S   0  0  0  0  0  0  0  0  0  0  0  0
  1 16  2  0  0  0  0
  1 15  1  0  0  0  0
  2  6  2  0  0  0  0
  2  4  1  0  0  0  0
  3  7  1  0  0  0  0
  3 12  2  0  0  0  0
  5 14  2  0  0  0  0
  5 16  1  0  0  0  0
  8  4  1  0  0  0  0
  8 13  1  1  0  0  0
  9  8  1  0  0  0  0
 10 12  1  0  0  0  0
 10 11  2  0  0  0  0
 11  2  1  0  0  0  0
 12  9  1  0  0  0  0
 14  3  1  0  0  0  0
 15 18  1  6  0  0  0
 15 11  1  0  0  0  0
 16 10  1  0  0  0  0
 17 25  1  0  0  0  0
 17 21  1  0  0  0  0
 18 20  1  0  0  0  0
 19 17  2  0  0  0  0
 20 21  2  0  0  0  0
 22 19  1  0  0  0  0
 22 18  2  0  0  0  0
 23 25  2  0  0  0  0
 25 24  1  0  0  0  0
 26 29  2  0  0  0  0
 27  5  1  0  0  0  0
 28 27  2  0  0  0  0
 29 27  1  0  0  0  0
 30 26  1  0  0  0  0
 30 28  1  0  0  0  0
M  END
>  <MODEL>
9

>  <REMARK>
 VINA RESULT:      -8.6      2.375      6.935
  Name = 
  3 active torsions:
  status: ('A' for Active; 'I' for Inactive)
    1  A    between atoms: C_6  and  C_30
    2  A    between atoms: C_7  and  C_26
    3  A    between atoms: C_8  and  C_9
                            x       y       z     vdW  Elec       q    Type
                         _______ _______ _______ _____ _____    ______ ____

>  <TORSDO>
F 3

$$$$
