=
 OpenBabel10232409023D

 43 44  0  0  1  0  0  0  0  0999 V2000
  188.9930  177.9340  141.7490 C   0  0  2  0  0  3  0  0  0  0  0  0
  190.6840  176.5820  144.7650 C   0  0  1  0  0  3  0  0  0  0  0  0
  190.5350  178.8130  143.8880 O   0  0  0  0  0  1  0  0  0  0  0  0
  190.5250  176.0780  142.5670 C   0  0  0  0  0  2  0  0  0  0  0  0
  189.3530  176.9820  142.9030 C   0  0  1  0  0  3  0  0  0  0  0  0
  189.7960  177.6600  144.1720 C   0  0  1  0  0  3  0  0  0  0  0  0
  191.2890  175.8450  143.7290 O   0  0  0  0  0  0  0  0  0  0  0  0
  191.6950  177.0820  145.8010 C   0  0  0  0  0  2  0  0  0  0  0  0
  191.7490  175.4360  147.5260 O   0  0  0  0  0  1  0  0  0  0  0  0
  191.2990  176.7210  147.2240 C   0  0  2  0  0  3  0  0  0  0  0  0
  189.7900  176.7790  147.3600 C   0  0  0  0  0  2  0  0  0  0  0  0
  189.4200  177.9080  148.0900 O   0  0  0  0  0  0  0  0  0  0  0  0
  188.1490  177.6100  148.5860 C   0  0  0  0  0  1  0  0  0  0  0  0
  187.6190  178.5090  141.9380 C   0  0  0  0  0  3  0  0  0  0  0  0
  186.6450  177.7930  142.5060 C   0  0  0  0  0  3  0  0  0  0  0  0
  185.2640  178.3550  142.7170 C   0  0  2  0  0  3  0  0  0  0  0  0
  185.0070  179.4480  141.6800 C   0  0  0  0  0  2  0  0  0  0  0  0
  184.6820  179.7590  139.2890 N   0  0  0  0  0  1  0  0  0  0  0  0
  184.4200  178.8680  140.4040 C   0  0  0  0  0  2  0  0  0  0  0  0
  185.0710  178.8730  144.1560 C   0  0  1  0  0  3  0  0  0  0  0  0
  182.6240  178.6050  143.5910 N   0  0  0  0  0  1  0  0  0  0  0  0
  183.6270  178.8820  144.5600 C   0  0  0  0  0  0  0  0  0  0  0  0
  183.2940  179.1360  145.7480 O   0  0  0  0  0  0  0  0  0  0  0  0
  185.8770  178.0530  145.1590 C   0  0  0  0  0  2  0  0  0  0  0  0
  186.4530  178.8970  146.1090 O   0  0  0  0  0  1  0  0  0  0  0  0
  189.5740  177.8670  139.3330 C   0  0  0  0  0  3  0  0  0  0  0  0
  189.0920  177.2460  140.4120 C   0  0  0  0  0  3  0  0  0  0  0  0
  189.6860  177.1590  138.0200 C   0  0  1  0  0  3  0  0  0  0  0  0
  190.5930  175.9690  138.1580 C   0  0  0  0  0  3  0  0  0  0  0  0
  193.1840  176.2700  138.2240 C   0  0  0  0  0  0  0  0  0  0  0  0
  191.8910  176.1170  138.1930 C   0  0  0  0  0  0  0  0  0  0  0  0
  193.7640  177.0650  139.2030 O   0  0  0  0  0  1  0  0  0  0  0  0
  194.0340  175.6360  137.1810 C   0  0  0  0  0  2  0  0  0  0  0  0
  195.2340  175.1510  137.7700 O   0  0  0  0  0  0  0  0  0  0  0  0
  197.4580  172.1290  137.2960 C   0  0  0  0  0  0  0  0  0  0  0  0
  194.7310  172.9040  137.9060 O   0  0  0  0  0  0  0  0  0  0  0  0
  195.5920  173.8040  137.7110 C   0  0  0  0  0  0  0  0  0  0  0  0
  198.9040  171.9220  137.0230 C   0  0  0  0  0  1  0  0  0  0  0  0
  196.9520  173.4630  137.4210 N   0  0  0  0  0  2  0  0  0  0  0  0
  196.6970  171.1310  137.3960 O   0  0  0  0  0  0  0  0  0  0  0  0
  188.0780  177.2610  136.0100 C   0  0  0  0  0  2  0  0  0  0  0  0
  187.5340  178.1480  137.1130 C   0  0  0  0  0  2  0  0  0  0  0  0
  188.2710  176.8680  137.4660 C   0  0  0  0  0  3  0  0  0  0  0  0
  1 27  1  6  0  0  0
  1 14  1  0  0  0  0
  2  8  1  6  0  0  0
  4  5  1  0  0  0  0
  4  7  1  0  0  0  0
  5  1  1  6  0  0  0
  5  6  1  0  0  0  0
  6  3  1  6  0  0  0
  6  2  1  0  0  0  0
  7  2  1  0  0  0  0
  8 10  1  0  0  0  0
 10 11  1  0  0  0  0
 10  9  1  6  0  0  0
 11 12  1  0  0  0  0
 12 13  1  0  0  0  0
 14 15  2  0  0  0  0
 15 16  1  0  0  0  0
 16 17  1  6  0  0  0
 16 20  1  0  0  0  0
 18 19  1  0  0  0  0
 19 17  1  0  0  0  0
 20 22  1  0  0  0  0
 20 24  1  1  0  0  0
 21 22  1  0  0  0  0
 22 23  2  0  0  0  0
 24 25  1  0  0  0  0
 26 27  2  0  0  0  0
 28 29  1  1  0  0  0
 28 26  1  0  0  0  0
 29 31  2  0  0  0  0
 30 32  1  0  0  0  0
 31 30  2  0  0  0  0
 33 34  1  0  0  0  0
 33 30  1  0  0  0  0
 35 40  2  0  0  0  0
 35 39  1  0  0  0  0
 37 34  1  0  0  0  0
 37 36  2  0  0  0  0
 38 35  1  0  0  0  0
 39 37  1  0  0  0  0
 41 42  1  0  0  0  0
 41 43  1  0  0  0  0
 42 43  1  0  0  0  0
 43 28  1  0  0  0  0
M  END
>  <MODEL>
1

>  <REMARK>
 VINA RESULT:      -7.6      0.000      0.000
  Name = 
  19 active torsions:
  status: ('A' for Active; 'I' for Inactive)
    1  A    between atoms: C_1  and  C_36
    2  A    between atoms: C_2  and  C_18
    3  A    between atoms: C_2  and  O_31
    4  A    between atoms: O_3  and  C_11
    5  A    between atoms: C_7  and  C_20
    6  A    between atoms: C_7  and  C_33
    7  A    between atoms: C_7  and  C_35
    8  A    between atoms: C_9  and  C_29
    9  A    between atoms: C_11  and  C_32
   10  A    between atoms: C_12  and  C_27
   11  A    between atoms: C_14  and  C_15
   12  A    between atoms: C_14  and  C_24
   13  A    between atoms: C_15  and  C_29
   14  A    between atoms: C_15  and  C_40
   15  A    between atoms: C_16  and  C_27
   16  A    between atoms: C_19  and  O_31
   17  A    between atoms: C_27  and  C_43
   18  A    between atoms: C_28  and  C_29
   19  A    between atoms: C_32  and  C_36
                            x       y       z     vdW  Elec       q    Type
                         _______ _______ _______ _____ _____    ______ ____

>  <TORSDO>
F 19

$$$$
=
 OpenBabel10232409023D

 43 44  0  0  1  0  0  0  0  0999 V2000
  188.3070  177.8680  142.0400 C   0  0  2  0  0  3  0  0  0  0  0  0
  190.5100  176.5890  144.7410 C   0  0  1  0  0  3  0  0  0  0  0  0
  190.0710  178.8190  143.9650 O   0  0  0  0  0  1  0  0  0  0  0  0
  190.0740  176.1200  142.5730 C   0  0  0  0  0  2  0  0  0  0  0  0
  188.8990  176.9230  143.1010 C   0  0  1  0  0  3  0  0  0  0  0  0
  189.4680  177.6070  144.3150 C   0  0  1  0  0  3  0  0  0  0  0  0
  191.0120  175.9230  143.6070 O   0  0  0  0  0  0  0  0  0  0  0  0
  191.6190  177.1450  145.6390 C   0  0  0  0  0  2  0  0  0  0  0  0
  191.9890  175.4970  147.3220 O   0  0  0  0  0  1  0  0  0  0  0  0
  191.4370  176.7580  147.0980 C   0  0  2  0  0  3  0  0  0  0  0  0
  189.9590  176.7380  147.4370 C   0  0  0  0  0  2  0  0  0  0  0  0
  189.5960  177.9310  148.0600 O   0  0  0  0  0  0  0  0  0  0  0  0
  188.2540  177.7600  148.4020 C   0  0  0  0  0  1  0  0  0  0  0  0
  186.8370  178.0720  142.2650 C   0  0  0  0  0  3  0  0  0  0  0  0
  186.1160  178.8480  141.4520 C   0  0  0  0  0  3  0  0  0  0  0  0
  184.6390  179.0550  141.6510 C   0  0  2  0  0  3  0  0  0  0  0  0
  184.2270  178.4490  142.9930 C   0  0  0  0  0  2  0  0  0  0  0  0
  184.1310  179.0340  145.3520 N   0  0  0  0  0  1  0  0  0  0  0  0
  183.9030  179.5320  144.0080 C   0  0  0  0  0  2  0  0  0  0  0  0
  183.8170  178.4740  140.4840 C   0  0  1  0  0  3  0  0  0  0  0  0
  181.4960  178.6860  141.4560 N   0  0  0  0  0  1  0  0  0  0  0  0
  182.4280  179.0370  140.4420 C   0  0  0  0  0  0  0  0  0  0  0  0
  182.0780  179.8140  139.5150 O   0  0  0  0  0  0  0  0  0  0  0  0
  184.5050  178.7110  139.1430 C   0  0  0  0  0  2  0  0  0  0  0  0
  184.5550  177.5200  138.4170 O   0  0  0  0  0  1  0  0  0  0  0  0
  189.2850  178.0470  139.7610 C   0  0  0  0  0  3  0  0  0  0  0  0
  188.5560  177.3580  140.6440 C   0  0  0  0  0  3  0  0  0  0  0  0
  189.5390  177.5120  138.3870 C   0  0  1  0  0  3  0  0  0  0  0  0
  190.3780  176.2680  138.4710 C   0  0  0  0  0  3  0  0  0  0  0  0
  192.9830  176.4120  138.4030 C   0  0  0  0  0  0  0  0  0  0  0  0
  191.6830  176.3380  138.4390 C   0  0  0  0  0  0  0  0  0  0  0  0
  193.6600  177.1620  139.3550 O   0  0  0  0  0  1  0  0  0  0  0  0
  193.7380  175.7370  137.3130 C   0  0  0  0  0  2  0  0  0  0  0  0
  194.9920  175.2840  137.8080 O   0  0  0  0  0  0  0  0  0  0  0  0
  195.0360  171.5310  137.3500 C   0  0  0  0  0  0  0  0  0  0  0  0
  195.7100  173.6250  139.2390 O   0  0  0  0  0  0  0  0  0  0  0  0
  195.2210  173.9450  138.1220 C   0  0  0  0  0  0  0  0  0  0  0  0
  194.6780  170.6040  136.2450 C   0  0  0  0  0  1  0  0  0  0  0  0
  194.8880  172.9420  137.1570 N   0  0  0  0  0  2  0  0  0  0  0  0
  195.4470  171.0620  138.4440 O   0  0  0  0  0  0  0  0  0  0  0  0
  188.2920  177.6500  136.1380 C   0  0  0  0  0  2  0  0  0  0  0  0
  187.7280  178.7020  137.0710 C   0  0  0  0  0  2  0  0  0  0  0  0
  188.1980  177.3720  137.6290 C   0  0  0  0  0  3  0  0  0  0  0  0
  1 27  1  6  0  0  0
  1 14  1  0  0  0  0
  2  8  1  6  0  0  0
  4  5  1  0  0  0  0
  4  7  1  0  0  0  0
  5  1  1  6  0  0  0
  5  6  1  0  0  0  0
  6  3  1  6  0  0  0
  6  2  1  0  0  0  0
  7  2  1  0  0  0  0
  8 10  1  0  0  0  0
 10  9  1  6  0  0  0
 10 11  1  0  0  0  0
 11 12  1  0  0  0  0
 12 13  1  0  0  0  0
 15 14  2  0  0  0  0
 16 15  1  6  0  0  0
 16 17  1  0  0  0  0
 17 19  1  0  0  0  0
 19 18  1  0  0  0  0
 20 24  1  6  0  0  0
 20 16  1  0  0  0  0
 22 20  1  0  0  0  0
 22 21  1  0  0  0  0
 23 22  2  0  0  0  0
 25 24  1  0  0  0  0
 26 27  2  0  0  0  0
 28 29  1  1  0  0  0
 28 26  1  0  0  0  0
 30 31  2  0  0  0  0
 30 32  1  0  0  0  0
 31 29  2  0  0  0  0
 33 34  1  0  0  0  0
 33 30  1  0  0  0  0
 34 37  1  0  0  0  0
 35 40  2  0  0  0  0
 37 36  2  0  0  0  0
 38 35  1  0  0  0  0
 39 35  1  0  0  0  0
 39 37  1  0  0  0  0
 41 42  1  0  0  0  0
 41 43  1  0  0  0  0
 42 43  1  0  0  0  0
 43 28  1  0  0  0  0
M  END
>  <MODEL>
2

>  <REMARK>
 VINA RESULT:      -7.5      1.882      2.575
  Name = 
  19 active torsions:
  status: ('A' for Active; 'I' for Inactive)
    1  A    between atoms: C_1  and  C_36
    2  A    between atoms: C_2  and  C_18
    3  A    between atoms: C_2  and  O_31
    4  A    between atoms: O_3  and  C_11
    5  A    between atoms: C_7  and  C_20
    6  A    between atoms: C_7  and  C_33
    7  A    between atoms: C_7  and  C_35
    8  A    between atoms: C_9  and  C_29
    9  A    between atoms: C_11  and  C_32
   10  A    between atoms: C_12  and  C_27
   11  A    between atoms: C_14  and  C_15
   12  A    between atoms: C_14  and  C_24
   13  A    between atoms: C_15  and  C_29
   14  A    between atoms: C_15  and  C_40
   15  A    between atoms: C_16  and  C_27
   16  A    between atoms: C_19  and  O_31
   17  A    between atoms: C_27  and  C_43
   18  A    between atoms: C_28  and  C_29
   19  A    between atoms: C_32  and  C_36
                            x       y       z     vdW  Elec       q    Type
                         _______ _______ _______ _____ _____    ______ ____

>  <TORSDO>
F 19

$$$$
=
 OpenBabel10232409023D

 43 44  0  0  1  0  0  0  0  0999 V2000
  189.5090  176.7680  139.1510 C   0  0  2  0  0  3  0  0  0  0  0  0
  193.0990  176.4960  138.2510 C   0  0  1  0  0  3  0  0  0  0  0  0
  191.3200  174.8840  138.2080 O   0  0  0  0  0  1  0  0  0  0  0  0
  191.8570  177.3080  139.9560 C   0  0  0  0  0  2  0  0  0  0  0  0
  190.9370  177.1800  138.7560 C   0  0  1  0  0  3  0  0  0  0  0  0
  191.6600  176.1990  137.8720 C   0  0  1  0  0  3  0  0  0  0  0  0
  193.1600  176.9060  139.5960 O   0  0  0  0  0  0  0  0  0  0  0  0
  194.0920  175.3750  137.9300 C   0  0  0  0  0  2  0  0  0  0  0  0
  193.6880  174.8100  135.6490 O   0  0  0  0  0  1  0  0  0  0  0  0
  194.6000  175.4370  136.4980 C   0  0  2  0  0  3  0  0  0  0  0  0
  195.9450  174.7440  136.4060 C   0  0  0  0  0  2  0  0  0  0  0  0
  196.9230  175.5160  137.0320 O   0  0  0  0  0  0  0  0  0  0  0  0
  197.7430  174.5920  137.6830 C   0  0  0  0  0  1  0  0  0  0  0  0
  188.5410  177.0590  138.0400 C   0  0  0  0  0  3  0  0  0  0  0  0
  187.2360  177.2010  138.2820 C   0  0  0  0  0  3  0  0  0  0  0  0
  186.2510  177.5060  137.1860 C   0  0  2  0  0  3  0  0  0  0  0  0
  186.9300  178.3850  136.1360 C   0  0  0  0  0  2  0  0  0  0  0  0
  185.6080  177.2580  134.4320 N   0  0  0  0  0  1  0  0  0  0  0  0
  186.9450  177.7070  134.7770 C   0  0  0  0  0  2  0  0  0  0  0  0
  184.9660  178.1580  137.7350 C   0  0  1  0  0  3  0  0  0  0  0  0
  183.9900  175.8430  137.4770 N   0  0  0  0  0  1  0  0  0  0  0  0
  183.7850  177.2410  137.6340 C   0  0  0  0  0  0  0  0  0  0  0  0
  182.6120  177.6970  137.6850 O   0  0  0  0  0  0  0  0  0  0  0  0
  185.1430  178.6080  139.1820 C   0  0  0  0  0  2  0  0  0  0  0  0
  184.6960  179.9220  139.3290 O   0  0  0  0  0  1  0  0  0  0  0  0
  189.0690  176.8190  141.5980 C   0  0  0  0  0  3  0  0  0  0  0  0
  189.0660  177.4500  140.4200 C   0  0  0  0  0  3  0  0  0  0  0  0
  188.6490  177.5210  142.8500 C   0  0  1  0  0  3  0  0  0  0  0  0
  187.3350  176.9690  143.3270 C   0  0  0  0  0  3  0  0  0  0  0  0
  185.2860  178.5420  143.6990 C   0  0  0  0  0  0  0  0  0  0  0  0
  186.3070  177.7550  143.5120 C   0  0  0  0  0  0  0  0  0  0  0  0
  184.8000  179.3060  142.6480 O   0  0  0  0  0  1  0  0  0  0  0  0
  184.6750  178.6610  145.0510 C   0  0  0  0  0  2  0  0  0  0  0  0
  185.3870  179.6250  145.8160 O   0  0  0  0  0  0  0  0  0  0  0  0
  188.0610  177.7830  147.7530 C   0  0  0  0  0  0  0  0  0  0  0  0
  185.9920  179.7950  148.0340 O   0  0  0  0  0  0  0  0  0  0  0  0
  186.1770  179.2630  146.9060 C   0  0  0  0  0  0  0  0  0  0  0  0
  189.1010  176.7780  147.4110 C   0  0  0  0  0  1  0  0  0  0  0  0
  187.1980  178.2770  146.7230 N   0  0  0  0  0  2  0  0  0  0  0  0
  187.9440  178.1730  148.9450 O   0  0  0  0  0  0  0  0  0  0  0  0
  190.9770  178.3910  143.5230 C   0  0  0  0  0  2  0  0  0  0  0  0
  191.0690  176.8980  143.2770 C   0  0  0  0  0  2  0  0  0  0  0  0
  189.8050  177.4890  143.8760 C   0  0  0  0  0  3  0  0  0  0  0  0
  1 14  1  6  0  0  0
  1 27  1  0  0  0  0
  2  8  1  1  0  0  0
  2  7  1  0  0  0  0
  5  1  1  1  0  0  0
  5  4  1  0  0  0  0
  6  3  1  1  0  0  0
  6  2  1  0  0  0  0
  6  5  1  0  0  0  0
  7  4  1  0  0  0  0
 10  9  1  6  0  0  0
 10  8  1  0  0  0  0
 11 10  1  0  0  0  0
 11 12  1  0  0  0  0
 12 13  1  0  0  0  0
 14 15  2  0  0  0  0
 16 17  1  6  0  0  0
 16 20  1  0  0  0  0
 16 15  1  0  0  0  0
 18 19  1  0  0  0  0
 19 17  1  0  0  0  0
 20 24  1  1  0  0  0
 21 22  1  0  0  0  0
 22 23  2  0  0  0  0
 22 20  1  0  0  0  0
 24 25  1  0  0  0  0
 27 26  2  0  0  0  0
 28 26  1  6  0  0  0
 28 29  1  0  0  0  0
 28 43  1  0  0  0  0
 29 31  2  0  0  0  0
 30 33  1  0  0  0  0
 31 30  2  0  0  0  0
 32 30  1  0  0  0  0
 33 34  1  0  0  0  0
 34 37  1  0  0  0  0
 35 40  2  0  0  0  0
 37 36  2  0  0  0  0
 38 35  1  0  0  0  0
 39 37  1  0  0  0  0
 39 35  1  0  0  0  0
 41 43  1  0  0  0  0
 42 41  1  0  0  0  0
 42 43  1  0  0  0  0
M  END
>  <MODEL>
3

>  <REMARK>
 VINA RESULT:      -6.9      2.976      9.350
  Name = 
  19 active torsions:
  status: ('A' for Active; 'I' for Inactive)
    1  A    between atoms: C_1  and  C_36
    2  A    between atoms: C_2  and  C_18
    3  A    between atoms: C_2  and  O_31
    4  A    between atoms: O_3  and  C_11
    5  A    between atoms: C_7  and  C_20
    6  A    between atoms: C_7  and  C_33
    7  A    between atoms: C_7  and  C_35
    8  A    between atoms: C_9  and  C_29
    9  A    between atoms: C_11  and  C_32
   10  A    between atoms: C_12  and  C_27
   11  A    between atoms: C_14  and  C_15
   12  A    between atoms: C_14  and  C_24
   13  A    between atoms: C_15  and  C_29
   14  A    between atoms: C_15  and  C_40
   15  A    between atoms: C_16  and  C_27
   16  A    between atoms: C_19  and  O_31
   17  A    between atoms: C_27  and  C_43
   18  A    between atoms: C_28  and  C_29
   19  A    between atoms: C_32  and  C_36
                            x       y       z     vdW  Elec       q    Type
                         _______ _______ _______ _____ _____    ______ ____

>  <TORSDO>
F 19

$$$$
=
 OpenBabel10232409023D

 43 44  0  0  1  0  0  0  0  0999 V2000
  185.6210  179.0380  140.9280 C   0  0  2  0  0  3  0  0  0  0  0  0
  183.4680  177.7860  138.1760 C   0  0  1  0  0  3  0  0  0  0  0  0
  183.6960  177.0890  140.4630 O   0  0  0  0  0  1  0  0  0  0  0  0
  185.6400  178.3310  138.4870 C   0  0  0  0  0  2  0  0  0  0  0  0
  184.8490  178.9970  139.5980 C   0  0  1  0  0  3  0  0  0  0  0  0
  183.5690  178.2060  139.6300 C   0  0  1  0  0  3  0  0  0  0  0  0
  184.7600  177.6290  137.6380 O   0  0  0  0  0  0  0  0  0  0  0  0
  182.5710  176.5720  137.9190 C   0  0  0  0  0  2  0  0  0  0  0  0
  181.5950  175.9840  135.8240 O   0  0  0  0  0  1  0  0  0  0  0  0
  182.7910  175.9650  136.5420 C   0  0  2  0  0  3  0  0  0  0  0  0
  183.2770  174.5360  136.6890 C   0  0  0  0  0  2  0  0  0  0  0  0
  183.9930  174.3950  137.8770 O   0  0  0  0  0  0  0  0  0  0  0  0
  184.8090  173.2820  137.6700 C   0  0  0  0  0  1  0  0  0  0  0  0
  186.9180  178.2890  140.8180 C   0  0  0  0  0  3  0  0  0  0  0  0
  188.0410  178.7730  141.3540 C   0  0  0  0  0  3  0  0  0  0  0  0
  189.3480  178.0320  141.2670 C   0  0  2  0  0  3  0  0  0  0  0  0
  189.1990  176.8720  140.2830 C   0  0  0  0  0  2  0  0  0  0  0  0
  190.8950  176.7330  138.5440 N   0  0  0  0  0  1  0  0  0  0  0  0
  189.5960  177.2890  138.8770 C   0  0  0  0  0  2  0  0  0  0  0  0
  189.8270  177.5520  142.6510 C   0  0  1  0  0  3  0  0  0  0  0  0
  188.1190  175.7830  143.2270 N   0  0  0  0  0  1  0  0  0  0  0  0
  189.4620  176.1200  142.9050 C   0  0  0  0  0  0  0  0  0  0  0  0
  190.3340  175.2140  142.8380 O   0  0  0  0  0  0  0  0  0  0  0  0
  191.3330  177.7320  142.8160 C   0  0  0  0  0  2  0  0  0  0  0  0
  191.9480  177.7640  141.5630 O   0  0  0  0  0  1  0  0  0  0  0  0
  184.3150  179.2760  143.0300 C   0  0  0  0  0  3  0  0  0  0  0  0
  184.7960  178.4900  142.0640 C   0  0  0  0  0  3  0  0  0  0  0  0
  183.4780  178.7160  144.1370 C   0  0  1  0  0  3  0  0  0  0  0  0
  184.1920  178.8820  145.4500 C   0  0  0  0  0  3  0  0  0  0  0  0
  186.6550  178.0690  145.7370 C   0  0  0  0  0  0  0  0  0  0  0  0
  185.4260  178.4770  145.5950 C   0  0  0  0  0  0  0  0  0  0  0  0
  187.6520  178.5740  144.9140 O   0  0  0  0  0  1  0  0  0  0  0  0
  186.9810  177.0240  146.7460 C   0  0  0  0  0  2  0  0  0  0  0  0
  187.6490  177.6180  147.8520 O   0  0  0  0  0  0  0  0  0  0  0  0
  191.2250  176.6480  147.0980 C   0  0  0  0  0  0  0  0  0  0  0  0
  189.6140  178.3220  148.8320 O   0  0  0  0  0  0  0  0  0  0  0  0
  189.0390  177.6110  147.9630 C   0  0  0  0  0  0  0  0  0  0  0  0
  191.8870  175.7720  146.0950 C   0  0  0  0  0  1  0  0  0  0  0  0
  189.8000  176.7820  147.0790 N   0  0  0  0  0  2  0  0  0  0  0  0
  191.9260  177.2440  147.9580 O   0  0  0  0  0  0  0  0  0  0  0  0
  180.9450  178.2770  143.9870 C   0  0  0  0  0  2  0  0  0  0  0  0
  181.3870  179.0090  142.7350 C   0  0  0  0  0  2  0  0  0  0  0  0
  182.0540  179.3140  144.0640 C   0  0  0  0  0  3  0  0  0  0  0  0
  1 14  1  6  0  0  0
  1 27  1  0  0  0  0
  2  8  1  1  0  0  0
  2  6  1  0  0  0  0
  4  5  1  0  0  0  0
  5  6  1  0  0  0  0
  5  1  1  1  0  0  0
  6  3  1  1  0  0  0
  7  2  1  0  0  0  0
  7  4  1  0  0  0  0
 10  9  1  6  0  0  0
 10 11  1  0  0  0  0
 10  8  1  0  0  0  0
 11 12  1  0  0  0  0
 13 12  1  0  0  0  0
 14 15  2  0  0  0  0
 16 17  1  6  0  0  0
 16 15  1  0  0  0  0
 16 20  1  0  0  0  0
 18 19  1  0  0  0  0
 19 17  1  0  0  0  0
 20 24  1  6  0  0  0
 20 22  1  0  0  0  0
 22 21  1  0  0  0  0
 23 22  2  0  0  0  0
 25 24  1  0  0  0  0
 27 26  2  0  0  0  0
 28 26  1  6  0  0  0
 28 29  1  0  0  0  0
 29 31  2  0  0  0  0
 30 33  1  0  0  0  0
 31 30  2  0  0  0  0
 32 30  1  0  0  0  0
 33 34  1  0  0  0  0
 34 37  1  0  0  0  0
 35 40  2  0  0  0  0
 37 36  2  0  0  0  0
 38 35  1  0  0  0  0
 39 35  1  0  0  0  0
 39 37  1  0  0  0  0
 41 43  1  0  0  0  0
 42 41  1  0  0  0  0
 42 43  1  0  0  0  0
 43 28  1  0  0  0  0
M  END
>  <MODEL>
4

>  <REMARK>
 VINA RESULT:      -6.7      4.008      9.521
  Name = 
  19 active torsions:
  status: ('A' for Active; 'I' for Inactive)
    1  A    between atoms: C_1  and  C_36
    2  A    between atoms: C_2  and  C_18
    3  A    between atoms: C_2  and  O_31
    4  A    between atoms: O_3  and  C_11
    5  A    between atoms: C_7  and  C_20
    6  A    between atoms: C_7  and  C_33
    7  A    between atoms: C_7  and  C_35
    8  A    between atoms: C_9  and  C_29
    9  A    between atoms: C_11  and  C_32
   10  A    between atoms: C_12  and  C_27
   11  A    between atoms: C_14  and  C_15
   12  A    between atoms: C_14  and  C_24
   13  A    between atoms: C_15  and  C_29
   14  A    between atoms: C_15  and  C_40
   15  A    between atoms: C_16  and  C_27
   16  A    between atoms: C_19  and  O_31
   17  A    between atoms: C_27  and  C_43
   18  A    between atoms: C_28  and  C_29
   19  A    between atoms: C_32  and  C_36
                            x       y       z     vdW  Elec       q    Type
                         _______ _______ _______ _____ _____    ______ ____

>  <TORSDO>
F 19

$$$$
=
 OpenBabel10232409023D

 43 44  0  0  1  0  0  0  0  0999 V2000
  189.1430  178.1360  141.6350 C   0  0  2  0  0  3  0  0  0  0  0  0
  191.4590  177.0340  144.3190 C   0  0  1  0  0  3  0  0  0  0  0  0
  189.2690  176.2710  143.6910 O   0  0  0  0  0  1  0  0  0  0  0  0
  190.6340  178.9780  143.5130 C   0  0  0  0  0  2  0  0  0  0  0  0
  190.4430  177.9300  142.4320 C   0  0  1  0  0  3  0  0  0  0  0  0
  190.5250  176.6340  143.1920 C   0  0  1  0  0  3  0  0  0  0  0  0
  191.2740  178.3950  144.6260 O   0  0  0  0  0  0  0  0  0  0  0  0
  191.3910  176.1350  145.5570 C   0  0  0  0  0  2  0  0  0  0  0  0
  192.1720  176.4550  147.7880 O   0  0  0  0  0  1  0  0  0  0  0  0
  191.2580  176.9300  146.8470 C   0  0  2  0  0  3  0  0  0  0  0  0
  189.8480  176.7890  147.3870 C   0  0  0  0  0  2  0  0  0  0  0  0
  189.5090  177.9140  148.1370 O   0  0  0  0  0  0  0  0  0  0  0  0
  188.2080  177.6680  148.5790 C   0  0  0  0  0  1  0  0  0  0  0  0
  187.9430  178.0250  142.5310 C   0  0  0  0  0  3  0  0  0  0  0  0
  186.8820  178.8180  142.3630 C   0  0  0  0  0  3  0  0  0  0  0  0
  185.6640  178.7140  143.2400 C   0  0  2  0  0  3  0  0  0  0  0  0
  185.9380  177.7080  144.3570 C   0  0  0  0  0  2  0  0  0  0  0  0
  184.9090  178.4550  146.4310 N   0  0  0  0  0  1  0  0  0  0  0  0
  186.1540  178.4090  145.6880 C   0  0  0  0  0  2  0  0  0  0  0  0
  184.4050  178.3420  142.4310 C   0  0  1  0  0  3  0  0  0  0  0  0
  181.9040  178.6930  142.4070 N   0  0  0  0  0  1  0  0  0  0  0  0
  183.1660  178.9600  143.0060 C   0  0  0  0  0  0  0  0  0  0  0  0
  183.2320  179.7140  144.0130 O   0  0  0  0  0  0  0  0  0  0  0  0
  184.5440  178.7440  140.9660 C   0  0  0  0  0  2  0  0  0  0  0  0
  184.0060  177.7500  140.1470 O   0  0  0  0  0  1  0  0  0  0  0  0
  189.7930  177.2660  139.3980 C   0  0  0  0  0  3  0  0  0  0  0  0
  189.0340  177.1600  140.4920 C   0  0  0  0  0  3  0  0  0  0  0  0
  189.6860  176.2730  138.2850 C   0  0  1  0  0  3  0  0  0  0  0  0
  189.1580  176.9470  137.0500 C   0  0  0  0  0  3  0  0  0  0  0  0
  186.7230  177.8840  136.9810 C   0  0  0  0  0  0  0  0  0  0  0  0
  187.9400  177.4190  137.0140 C   0  0  0  0  0  0  0  0  0  0  0  0
  186.3230  178.8400  137.9050 O   0  0  0  0  0  1  0  0  0  0  0  0
  185.7490  177.3540  135.9890 C   0  0  0  0  0  2  0  0  0  0  0  0
  184.6340  176.7890  136.6670 O   0  0  0  0  0  0  0  0  0  0  0  0
  185.9640  173.3230  137.3890 C   0  0  0  0  0  0  0  0  0  0  0  0
  183.7440  175.1000  137.9590 O   0  0  0  0  0  0  0  0  0  0  0  0
  184.6780  175.5090  137.2180 C   0  0  0  0  0  0  0  0  0  0  0  0
  187.1970  172.5760  137.0310 C   0  0  0  0  0  1  0  0  0  0  0  0
  185.7980  174.6670  136.9240 N   0  0  0  0  0  2  0  0  0  0  0  0
  185.0760  172.7580  138.0810 O   0  0  0  0  0  0  0  0  0  0  0  0
  191.8630  175.9900  136.9380 C   0  0  0  0  0  2  0  0  0  0  0  0
  191.0650  174.7040  136.8490 C   0  0  0  0  0  2  0  0  0  0  0  0
  191.0310  175.5270  138.1230 C   0  0  0  0  0  3  0  0  0  0  0  0
  1 27  1  6  0  0  0
  1 14  1  0  0  0  0
  2  7  1  0  0  0  0
  2  8  1  1  0  0  0
  4  7  1  0  0  0  0
  5  1  1  1  0  0  0
  5  6  1  0  0  0  0
  5  4  1  0  0  0  0
  6  3  1  1  0  0  0
  6  2  1  0  0  0  0
  8 10  1  0  0  0  0
 10 11  1  0  0  0  0
 10  9  1  1  0  0  0
 11 12  1  0  0  0  0
 12 13  1  0  0  0  0
 15 14  2  0  0  0  0
 16 15  1  6  0  0  0
 16 17  1  0  0  0  0
 17 19  1  0  0  0  0
 19 18  1  0  0  0  0
 20 24  1  6  0  0  0
 20 22  1  0  0  0  0
 20 16  1  0  0  0  0
 21 22  1  0  0  0  0
 22 23  2  0  0  0  0
 25 24  1  0  0  0  0
 26 27  2  0  0  0  0
 28 29  1  6  0  0  0
 28 26  1  0  0  0  0
 30 31  2  0  0  0  0
 30 32  1  0  0  0  0
 31 29  2  0  0  0  0
 33 34  1  0  0  0  0
 33 30  1  0  0  0  0
 34 37  1  0  0  0  0
 35 40  2  0  0  0  0
 37 36  2  0  0  0  0
 38 35  1  0  0  0  0
 39 37  1  0  0  0  0
 39 35  1  0  0  0  0
 41 43  1  0  0  0  0
 42 41  1  0  0  0  0
 42 43  1  0  0  0  0
 43 28  1  0  0  0  0
M  END
>  <MODEL>
5

>  <REMARK>
 VINA RESULT:      -6.6      3.849      5.621
  Name = 
  19 active torsions:
  status: ('A' for Active; 'I' for Inactive)
    1  A    between atoms: C_1  and  C_36
    2  A    between atoms: C_2  and  C_18
    3  A    between atoms: C_2  and  O_31
    4  A    between atoms: O_3  and  C_11
    5  A    between atoms: C_7  and  C_20
    6  A    between atoms: C_7  and  C_33
    7  A    between atoms: C_7  and  C_35
    8  A    between atoms: C_9  and  C_29
    9  A    between atoms: C_11  and  C_32
   10  A    between atoms: C_12  and  C_27
   11  A    between atoms: C_14  and  C_15
   12  A    between atoms: C_14  and  C_24
   13  A    between atoms: C_15  and  C_29
   14  A    between atoms: C_15  and  C_40
   15  A    between atoms: C_16  and  C_27
   16  A    between atoms: C_19  and  O_31
   17  A    between atoms: C_27  and  C_43
   18  A    between atoms: C_28  and  C_29
   19  A    between atoms: C_32  and  C_36
                            x       y       z     vdW  Elec       q    Type
                         _______ _______ _______ _____ _____    ______ ____

>  <TORSDO>
F 19

$$$$
=
 OpenBabel10232409023D

 43 44  0  0  1  0  0  0  0  0999 V2000
  187.4140  178.1420  141.6650 C   0  0  2  0  0  3  0  0  0  0  0  0
  183.8890  179.1850  141.1510 C   0  0  1  0  0  3  0  0  0  0  0  0
  184.8810  177.6230  142.6830 O   0  0  0  0  0  1  0  0  0  0  0  0
  185.6420  178.5270  139.8850 C   0  0  0  0  0  2  0  0  0  0  0  0
  186.2010  178.9790  141.2210 C   0  0  1  0  0  3  0  0  0  0  0  0
  185.0090  178.9050  142.1360 C   0  0  1  0  0  3  0  0  0  0  0  0
  184.2410  178.6920  139.8810 O   0  0  0  0  0  0  0  0  0  0  0  0
  182.5040  178.7130  141.6040 C   0  0  0  0  0  2  0  0  0  0  0  0
  180.4950  179.6290  140.7020 O   0  0  0  0  0  1  0  0  0  0  0  0
  181.4960  178.6870  140.4640 C   0  0  2  0  0  3  0  0  0  0  0  0
  180.8840  177.3040  140.3600 C   0  0  0  0  0  2  0  0  0  0  0  0
  181.1160  176.7730  139.0920 O   0  0  0  0  0  0  0  0  0  0  0  0
  182.1580  175.8610  139.2730 C   0  0  0  0  0  1  0  0  0  0  0  0
  187.8210  178.4910  143.0680 C   0  0  0  0  0  3  0  0  0  0  0  0
  188.0280  177.5400  143.9820 C   0  0  0  0  0  3  0  0  0  0  0  0
  188.4490  177.8670  145.3890 C   0  0  2  0  0  3  0  0  0  0  0  0
  189.6910  177.0470  145.7410 C   0  0  0  0  0  2  0  0  0  0  0  0
  191.6440  176.1840  144.5750 N   0  0  0  0  0  1  0  0  0  0  0  0
  190.8470  177.3740  144.8120 C   0  0  0  0  0  2  0  0  0  0  0  0
  187.3060  177.6360  146.3970 C   0  0  1  0  0  3  0  0  0  0  0  0
  188.2420  178.7420  148.4660 N   0  0  0  0  0  1  0  0  0  0  0  0
  187.8090  177.5590  147.8080 C   0  0  0  0  0  0  0  0  0  0  0  0
  187.8530  176.4550  148.4130 O   0  0  0  0  0  0  0  0  0  0  0  0
  186.2410  178.7240  146.2930 C   0  0  0  0  0  2  0  0  0  0  0  0
  185.1330  178.3800  147.0690 O   0  0  0  0  0  1  0  0  0  0  0  0
  188.9370  177.3600  139.8620 C   0  0  0  0  0  3  0  0  0  0  0  0
  188.5790  178.3140  140.7250 C   0  0  0  0  0  3  0  0  0  0  0  0
  190.0830  177.5590  138.9210 C   0  0  1  0  0  3  0  0  0  0  0  0
  191.2240  176.6630  139.3110 C   0  0  0  0  0  3  0  0  0  0  0  0
  193.0330  175.9740  137.5610 C   0  0  0  0  0  0  0  0  0  0  0  0
  192.1320  176.3180  138.4370 C   0  0  0  0  0  0  0  0  0  0  0  0
  193.7730  176.9510  136.9090 O   0  0  0  0  0  1  0  0  0  0  0  0
  193.2330  174.5390  137.2230 C   0  0  0  0  0  2  0  0  0  0  0  0
  194.1380  173.9500  138.1490 O   0  0  0  0  0  0  0  0  0  0  0  0
  197.7280  174.7650  137.2850 C   0  0  0  0  0  0  0  0  0  0  0  0
  195.7790  174.9480  139.4250 O   0  0  0  0  0  0  0  0  0  0  0  0
  195.4330  174.4360  138.3250 C   0  0  0  0  0  0  0  0  0  0  0  0
  198.5710  174.6350  136.0690 C   0  0  0  0  0  1  0  0  0  0  0  0
  196.3610  174.3410  137.2410 N   0  0  0  0  0  2  0  0  0  0  0  0
  198.2320  175.2310  138.3420 O   0  0  0  0  0  0  0  0  0  0  0  0
  188.9480  178.6820  136.9000 C   0  0  0  0  0  2  0  0  0  0  0  0
  188.0750  177.5360  137.3730 C   0  0  0  0  0  2  0  0  0  0  0  0
  189.5860  177.4220  137.4630 C   0  0  0  0  0  3  0  0  0  0  0  0
  1 27  1  6  0  0  0
  1 14  1  0  0  0  0
  2  8  1  1  0  0  0
  2  6  1  0  0  0  0
  4  5  1  0  0  0  0
  5  1  1  1  0  0  0
  5  6  1  0  0  0  0
  6  3  1  6  0  0  0
  7  4  1  0  0  0  0
  7  2  1  0  0  0  0
 10  9  1  1  0  0  0
 10  8  1  0  0  0  0
 11 10  1  0  0  0  0
 12 13  1  0  0  0  0
 12 11  1  0  0  0  0
 14 15  2  0  0  0  0
 16 15  1  6  0  0  0
 16 17  1  0  0  0  0
 16 20  1  0  0  0  0
 18 19  1  0  0  0  0
 19 17  1  0  0  0  0
 20 24  1  1  0  0  0
 20 22  1  0  0  0  0
 22 23  2  0  0  0  0
 22 21  1  0  0  0  0
 24 25  1  0  0  0  0
 26 27  2  0  0  0  0
 28 29  1  1  0  0  0
 28 26  1  0  0  0  0
 30 31  2  0  0  0  0
 31 29  2  0  0  0  0
 32 30  1  0  0  0  0
 33 30  1  0  0  0  0
 33 34  1  0  0  0  0
 34 37  1  0  0  0  0
 35 40  2  0  0  0  0
 37 36  2  0  0  0  0
 38 35  1  0  0  0  0
 39 35  1  0  0  0  0
 39 37  1  0  0  0  0
 41 42  1  0  0  0  0
 41 43  1  0  0  0  0
 42 43  1  0  0  0  0
 43 28  1  0  0  0  0
M  END
>  <MODEL>
6

>  <REMARK>
 VINA RESULT:      -6.5      3.047      5.962
  Name = 
  19 active torsions:
  status: ('A' for Active; 'I' for Inactive)
    1  A    between atoms: C_1  and  C_36
    2  A    between atoms: C_2  and  C_18
    3  A    between atoms: C_2  and  O_31
    4  A    between atoms: O_3  and  C_11
    5  A    between atoms: C_7  and  C_20
    6  A    between atoms: C_7  and  C_33
    7  A    between atoms: C_7  and  C_35
    8  A    between atoms: C_9  and  C_29
    9  A    between atoms: C_11  and  C_32
   10  A    between atoms: C_12  and  C_27
   11  A    between atoms: C_14  and  C_15
   12  A    between atoms: C_14  and  C_24
   13  A    between atoms: C_15  and  C_29
   14  A    between atoms: C_15  and  C_40
   15  A    between atoms: C_16  and  C_27
   16  A    between atoms: C_19  and  O_31
   17  A    between atoms: C_27  and  C_43
   18  A    between atoms: C_28  and  C_29
   19  A    between atoms: C_32  and  C_36
                            x       y       z     vdW  Elec       q    Type
                         _______ _______ _______ _____ _____    ______ ____

>  <TORSDO>
F 19

$$$$
=
 OpenBabel10232409023D

 43 44  0  0  1  0  0  0  0  0999 V2000
  186.9190  177.5390  142.5000 C   0  0  2  0  0  3  0  0  0  0  0  0
  184.6280  179.4650  140.3040 C   0  0  1  0  0  3  0  0  0  0  0  0
  184.2230  177.6630  141.8380 O   0  0  0  0  0  1  0  0  0  0  0  0
  186.6210  178.4110  140.1310 C   0  0  0  0  0  2  0  0  0  0  0  0
  186.3790  178.6700  141.6070 C   0  0  1  0  0  3  0  0  0  0  0  0
  184.8910  178.8820  141.6800 C   0  0  1  0  0  3  0  0  0  0  0  0
  185.5460  178.9300  139.3800 O   0  0  0  0  0  0  0  0  0  0  0  0
  183.1780  179.3540  139.8260 C   0  0  0  0  0  2  0  0  0  0  0  0
  182.7930  177.5160  138.3560 O   0  0  0  0  0  1  0  0  0  0  0  0
  182.7180  177.9100  139.6910 C   0  0  2  0  0  3  0  0  0  0  0  0
  181.2880  177.7860  140.1820 C   0  0  0  0  0  2  0  0  0  0  0  0
  180.9240  178.9330  140.8860 O   0  0  0  0  0  0  0  0  0  0  0  0
  180.7040  178.4930  142.1930 C   0  0  0  0  0  1  0  0  0  0  0  0
  187.0450  177.9950  143.9250 C   0  0  0  0  0  3  0  0  0  0  0  0
  186.7280  177.1850  144.9380 C   0  0  0  0  0  3  0  0  0  0  0  0
  186.8600  177.6180  146.3740 C   0  0  2  0  0  3  0  0  0  0  0  0
  185.9430  178.8150  146.6200 C   0  0  0  0  0  2  0  0  0  0  0  0
  183.9180  179.1630  145.3170 N   0  0  0  0  0  1  0  0  0  0  0  0
  184.4830  178.4360  146.4390 C   0  0  0  0  0  2  0  0  0  0  0  0
  188.3230  177.9310  146.7450 C   0  0  1  0  0  3  0  0  0  0  0  0
  189.5840  178.7870  148.7580 N   0  0  0  0  0  1  0  0  0  0  0  0
  188.5220  178.0050  148.2290 C   0  0  0  0  0  0  0  0  0  0  0  0
  187.7590  177.3780  149.0110 O   0  0  0  0  0  0  0  0  0  0  0  0
  189.2830  176.9040  146.1510 C   0  0  0  0  0  2  0  0  0  0  0  0
  190.3280  176.6590  147.0430 O   0  0  0  0  0  1  0  0  0  0  0  0
  189.3310  177.7930  141.9540 C   0  0  0  0  0  3  0  0  0  0  0  0
  188.2420  177.0210  141.9980 C   0  0  0  0  0  3  0  0  0  0  0  0
  190.6410  177.2530  141.4740 C   0  0  1  0  0  3  0  0  0  0  0  0
  190.8550  177.6370  140.0370 C   0  0  0  0  0  3  0  0  0  0  0  0
  191.7680  175.9000  138.3170 C   0  0  0  0  0  0  0  0  0  0  0  0
  191.3100  176.7680  139.1730 C   0  0  0  0  0  0  0  0  0  0  0  0
  191.0780  174.7150  138.0960 O   0  0  0  0  0  1  0  0  0  0  0  0
  193.0550  176.1530  137.6140 C   0  0  0  0  0  2  0  0  0  0  0  0
  194.1410  175.8080  138.4640 O   0  0  0  0  0  0  0  0  0  0  0  0
  195.0060  172.3070  137.3260 C   0  0  0  0  0  0  0  0  0  0  0  0
  196.1370  174.6600  138.5880 O   0  0  0  0  0  0  0  0  0  0  0  0
  194.9270  174.6790  138.2350 C   0  0  0  0  0  0  0  0  0  0  0  0
  194.2740  171.2200  136.6250 C   0  0  0  0  0  1  0  0  0  0  0  0
  194.3350  173.5430  137.5960 N   0  0  0  0  0  2  0  0  0  0  0  0
  196.1980  172.1190  137.6870 O   0  0  0  0  0  0  0  0  0  0  0  0
  191.7000  176.9670  143.8040 C   0  0  0  0  0  2  0  0  0  0  0  0
  191.2070  178.3940  143.6660 C   0  0  0  0  0  2  0  0  0  0  0  0
  191.7630  177.6660  142.4560 C   0  0  0  0  0  3  0  0  0  0  0  0
  1 27  1  6  0  0  0
  1 14  1  0  0  0  0
  2  8  1  6  0  0  0
  2  6  1  0  0  0  0
  4  5  1  0  0  0  0
  5  6  1  0  0  0  0
  5  1  1  1  0  0  0
  6  3  1  6  0  0  0
  7  4  1  0  0  0  0
  7  2  1  0  0  0  0
 10  9  1  6  0  0  0
 10  8  1  0  0  0  0
 10 11  1  0  0  0  0
 11 12  1  0  0  0  0
 12 13  1  0  0  0  0
 14 15  2  0  0  0  0
 16 15  1  6  0  0  0
 16 17  1  0  0  0  0
 16 20  1  0  0  0  0
 18 19  1  0  0  0  0
 19 17  1  0  0  0  0
 20 24  1  1  0  0  0
 20 22  1  0  0  0  0
 22 21  1  0  0  0  0
 22 23  2  0  0  0  0
 24 25  1  0  0  0  0
 26 27  2  0  0  0  0
 28 29  1  6  0  0  0
 28 26  1  0  0  0  0
 28 43  1  0  0  0  0
 30 31  2  0  0  0  0
 31 29  2  0  0  0  0
 32 30  1  0  0  0  0
 33 30  1  0  0  0  0
 33 34  1  0  0  0  0
 35 39  1  0  0  0  0
 35 40  2  0  0  0  0
 37 34  1  0  0  0  0
 37 36  2  0  0  0  0
 38 35  1  0  0  0  0
 39 37  1  0  0  0  0
 42 41  1  0  0  0  0
 43 42  1  0  0  0  0
 43 41  1  0  0  0  0
M  END
>  <MODEL>
7

>  <REMARK>
 VINA RESULT:      -6.5      2.862      6.097
  Name = 
  19 active torsions:
  status: ('A' for Active; 'I' for Inactive)
    1  A    between atoms: C_1  and  C_36
    2  A    between atoms: C_2  and  C_18
    3  A    between atoms: C_2  and  O_31
    4  A    between atoms: O_3  and  C_11
    5  A    between atoms: C_7  and  C_20
    6  A    between atoms: C_7  and  C_33
    7  A    between atoms: C_7  and  C_35
    8  A    between atoms: C_9  and  C_29
    9  A    between atoms: C_11  and  C_32
   10  A    between atoms: C_12  and  C_27
   11  A    between atoms: C_14  and  C_15
   12  A    between atoms: C_14  and  C_24
   13  A    between atoms: C_15  and  C_29
   14  A    between atoms: C_15  and  C_40
   15  A    between atoms: C_16  and  C_27
   16  A    between atoms: C_19  and  O_31
   17  A    between atoms: C_27  and  C_43
   18  A    between atoms: C_28  and  C_29
   19  A    between atoms: C_32  and  C_36
                            x       y       z     vdW  Elec       q    Type
                         _______ _______ _______ _____ _____    ______ ____

>  <TORSDO>
F 19

$$$$
=
 OpenBabel10232409023D

 43 44  0  0  1  0  0  0  0  0999 V2000
  189.8010  176.9270  139.3390 C   0  0  2  0  0  3  0  0  0  0  0  0
  192.9600  175.8510  137.7140 C   0  0  1  0  0  3  0  0  0  0  0  0
  190.9300  174.6610  138.1930 O   0  0  0  0  0  1  0  0  0  0  0  0
  192.3310  176.9760  139.5710 C   0  0  0  0  0  2  0  0  0  0  0  0
  191.1550  177.0040  138.6120 C   0  0  1  0  0  3  0  0  0  0  0  0
  191.4430  175.8570  137.6810 C   0  0  1  0  0  3  0  0  0  0  0  0
  193.4080  176.2880  138.9750 O   0  0  0  0  0  0  0  0  0  0  0  0
  193.6050  174.5300  137.2840 C   0  0  0  0  0  2  0  0  0  0  0  0
  195.8010  175.4150  136.9980 O   0  0  0  0  0  1  0  0  0  0  0  0
  195.0710  174.4410  137.6800 C   0  0  2  0  0  3  0  0  0  0  0  0
  195.6070  173.0660  137.3350 C   0  0  0  0  0  2  0  0  0  0  0  0
  195.6900  172.2830  138.4860 O   0  0  0  0  0  0  0  0  0  0  0  0
  195.3020  171.0060  138.0780 C   0  0  0  0  0  1  0  0  0  0  0  0
  188.7350  177.6480  138.5650 C   0  0  0  0  0  3  0  0  0  0  0  0
  187.5670  177.0620  138.2910 C   0  0  0  0  0  3  0  0  0  0  0  0
  186.4810  177.7710  137.5280 C   0  0  2  0  0  3  0  0  0  0  0  0
  187.1200  178.7140  136.5100 C   0  0  0  0  0  2  0  0  0  0  0  0
  185.8120  177.3400  134.9860 N   0  0  0  0  0  1  0  0  0  0  0  0
  187.0040  178.1610  135.0990 C   0  0  0  0  0  2  0  0  0  0  0  0
  185.5130  178.5150  138.4690 C   0  0  1  0  0  3  0  0  0  0  0  0
  183.8410  176.6390  138.2200 N   0  0  0  0  0  1  0  0  0  0  0  0
  184.1010  178.0330  138.3180 C   0  0  0  0  0  0  0  0  0  0  0  0
  183.1450  178.8510  138.2740 O   0  0  0  0  0  0  0  0  0  0  0  0
  185.9430  178.3890  139.9280 C   0  0  0  0  0  2  0  0  0  0  0  0
  185.5790  179.5370  140.6320 O   0  0  0  0  0  1  0  0  0  0  0  0
  190.2440  176.7140  141.7770 C   0  0  0  0  0  3  0  0  0  0  0  0
  189.8920  177.4780  140.7390 C   0  0  0  0  0  3  0  0  0  0  0  0
  190.3510  177.2850  143.1550 C   0  0  1  0  0  3  0  0  0  0  0  0
  189.1920  178.2060  143.4160 C   0  0  0  0  0  3  0  0  0  0  0  0
  187.7420  177.9410  145.5700 C   0  0  0  0  0  0  0  0  0  0  0  0
  188.4650  178.0760  144.4950 C   0  0  0  0  0  0  0  0  0  0  0  0
  188.3380  178.0270  146.8210 O   0  0  0  0  0  1  0  0  0  0  0  0
  186.2880  177.6440  145.4570 C   0  0  0  0  0  2  0  0  0  0  0  0
  185.7540  178.2940  144.3110 O   0  0  0  0  0  0  0  0  0  0  0  0
  182.3820  178.8770  142.7030 C   0  0  0  0  0  0  0  0  0  0  0  0
  183.7800  179.0430  145.2380 O   0  0  0  0  0  0  0  0  0  0  0  0
  184.4060  178.6390  144.2210 C   0  0  0  0  0  0  0  0  0  0  0  0
  181.8190  178.6810  141.3410 C   0  0  0  0  0  1  0  0  0  0  0  0
  183.7470  178.5300  142.9550 N   0  0  0  0  0  2  0  0  0  0  0  0
  181.6540  179.3620  143.6100 O   0  0  0  0  0  0  0  0  0  0  0  0
  191.5990  176.4240  145.2370 C   0  0  0  0  0  2  0  0  0  0  0  0
  191.9280  175.5210  144.0640 C   0  0  0  0  0  2  0  0  0  0  0  0
  190.5470  176.1410  144.1770 C   0  0  0  0  0  3  0  0  0  0  0  0
  1 14  1  6  0  0  0
  1 27  1  0  0  0  0
  2  8  1  1  0  0  0
  2  7  1  0  0  0  0
  5  1  1  1  0  0  0
  5  4  1  0  0  0  0
  6  2  1  0  0  0  0
  6  3  1  1  0  0  0
  6  5  1  0  0  0  0
  7  4  1  0  0  0  0
  8 10  1  0  0  0  0
 10  9  1  6  0  0  0
 11 10  1  0  0  0  0
 11 12  1  0  0  0  0
 13 12  1  0  0  0  0
 15 14  2  0  0  0  0
 16 17  1  6  0  0  0
 16 15  1  0  0  0  0
 16 20  1  0  0  0  0
 18 19  1  0  0  0  0
 19 17  1  0  0  0  0
 20 24  1  1  0  0  0
 21 22  1  0  0  0  0
 22 20  1  0  0  0  0
 23 22  2  0  0  0  0
 24 25  1  0  0  0  0
 27 26  2  0  0  0  0
 28 26  1  6  0  0  0
 28 29  1  0  0  0  0
 28 43  1  0  0  0  0
 29 31  2  0  0  0  0
 30 32  1  0  0  0  0
 31 30  2  0  0  0  0
 33 30  1  0  0  0  0
 34 33  1  0  0  0  0
 35 39  1  0  0  0  0
 35 40  2  0  0  0  0
 37 34  1  0  0  0  0
 37 36  2  0  0  0  0
 38 35  1  0  0  0  0
 39 37  1  0  0  0  0
 42 43  1  0  0  0  0
 42 41  1  0  0  0  0
 43 41  1  0  0  0  0
M  END
>  <MODEL>
8

>  <REMARK>
 VINA RESULT:      -6.4      2.686      9.472
  Name = 
  19 active torsions:
  status: ('A' for Active; 'I' for Inactive)
    1  A    between atoms: C_1  and  C_36
    2  A    between atoms: C_2  and  C_18
    3  A    between atoms: C_2  and  O_31
    4  A    between atoms: O_3  and  C_11
    5  A    between atoms: C_7  and  C_20
    6  A    between atoms: C_7  and  C_33
    7  A    between atoms: C_7  and  C_35
    8  A    between atoms: C_9  and  C_29
    9  A    between atoms: C_11  and  C_32
   10  A    between atoms: C_12  and  C_27
   11  A    between atoms: C_14  and  C_15
   12  A    between atoms: C_14  and  C_24
   13  A    between atoms: C_15  and  C_29
   14  A    between atoms: C_15  and  C_40
   15  A    between atoms: C_16  and  C_27
   16  A    between atoms: C_19  and  O_31
   17  A    between atoms: C_27  and  C_43
   18  A    between atoms: C_28  and  C_29
   19  A    between atoms: C_32  and  C_36
                            x       y       z     vdW  Elec       q    Type
                         _______ _______ _______ _____ _____    ______ ____

>  <TORSDO>
F 19

$$$$
=
 OpenBabel10232409023D

 43 44  0  0  1  0  0  0  0  0999 V2000
  188.7620  178.2970  137.8050 C   0  0  2  0  0  3  0  0  0  0  0  0
  185.4460  177.0770  136.6700 C   0  0  1  0  0  3  0  0  0  0  0  0
  187.3190  175.9280  137.6390 O   0  0  0  0  0  1  0  0  0  0  0  0
  187.1040  178.3960  135.8820 C   0  0  0  0  0  2  0  0  0  0  0  0
  187.2820  178.3060  137.3870 C   0  0  1  0  0  3  0  0  0  0  0  0
  186.5110  177.0650  137.7500 C   0  0  1  0  0  3  0  0  0  0  0  0
  185.9670  177.6560  135.4970 O   0  0  0  0  0  0  0  0  0  0  0  0
  184.7790  175.7230  136.4110 C   0  0  0  0  0  2  0  0  0  0  0  0
  183.2350  174.1030  137.2360 O   0  0  0  0  0  1  0  0  0  0  0  0
  183.6820  175.4120  137.4180 C   0  0  2  0  0  3  0  0  0  0  0  0
  182.5290  176.3780  137.2260 C   0  0  0  0  0  2  0  0  0  0  0  0
  182.4580  177.2570  138.3060 O   0  0  0  0  0  0  0  0  0  0  0  0
  182.6880  176.4600  139.4290 C   0  0  0  0  0  1  0  0  0  0  0  0
  189.5940  177.5300  136.8180 C   0  0  0  0  0  3  0  0  0  0  0  0
  190.5720  176.7170  137.2240 C   0  0  0  0  0  3  0  0  0  0  0  0
  191.4080  175.9300  136.2520 C   0  0  2  0  0  3  0  0  0  0  0  0
  190.5690  174.7830  135.6880 C   0  0  0  0  0  2  0  0  0  0  0  0
  189.1040  172.9400  136.3000 N   0  0  0  0  0  1  0  0  0  0  0  0
  190.1590  173.8120  136.7820 C   0  0  0  0  0  2  0  0  0  0  0  0
  192.7120  175.4210  136.8990 C   0  0  1  0  0  3  0  0  0  0  0  0
  194.2520  176.2100  135.0600 N   0  0  0  0  0  1  0  0  0  0  0  0
  193.7760  175.1500  135.8780 C   0  0  0  0  0  0  0  0  0  0  0  0
  194.2490  173.9910  135.7370 O   0  0  0  0  0  0  0  0  0  0  0  0
  193.2400  176.4050  137.9390 C   0  0  0  0  0  2  0  0  0  0  0  0
  194.2540  175.8060  138.6880 O   0  0  0  0  0  1  0  0  0  0  0  0
  188.8360  178.4910  140.2830 C   0  0  0  0  0  3  0  0  0  0  0  0
  188.9420  177.7300  139.1900 C   0  0  0  0  0  3  0  0  0  0  0  0
  188.9960  177.9050  141.6500 C   0  0  1  0  0  3  0  0  0  0  0  0
  187.6560  177.4770  142.1810 C   0  0  0  0  0  3  0  0  0  0  0  0
  185.5950  179.0690  142.0310 C   0  0  0  0  0  0  0  0  0  0  0  0
  186.6220  178.2720  142.1060 C   0  0  0  0  0  0  0  0  0  0  0  0
  185.1680  179.5360  140.7950 O   0  0  0  0  0  1  0  0  0  0  0  0
  184.9100  179.5210  143.2730 C   0  0  0  0  0  2  0  0  0  0  0  0
  184.8710  178.4550  144.2130 O   0  0  0  0  0  0  0  0  0  0  0  0
  187.5260  177.8970  146.8470 C   0  0  0  0  0  0  0  0  0  0  0  0
  184.9520  179.1580  146.4070 O   0  0  0  0  0  0  0  0  0  0  0  0
  185.5010  178.5420  145.4540 C   0  0  0  0  0  0  0  0  0  0  0  0
  188.8570  177.2380  146.8730 C   0  0  0  0  0  1  0  0  0  0  0  0
  186.7780  177.9190  145.6270 N   0  0  0  0  0  2  0  0  0  0  0  0
  187.0680  178.4120  147.9020 O   0  0  0  0  0  0  0  0  0  0  0  0
  190.7610  176.5650  142.9620 C   0  0  0  0  0  2  0  0  0  0  0  0
  191.4650  177.3890  141.9030 C   0  0  0  0  0  2  0  0  0  0  0  0
  190.0900  176.8120  141.6210 C   0  0  0  0  0  3  0  0  0  0  0  0
  1 14  1  6  0  0  0
  1 27  1  0  0  0  0
  2  8  1  6  0  0  0
  2  6  1  0  0  0  0
  4  5  1  0  0  0  0
  5  6  1  0  0  0  0
  5  1  1  6  0  0  0
  6  3  1  6  0  0  0
  7  4  1  0  0  0  0
  7  2  1  0  0  0  0
  8 10  1  0  0  0  0
 10  9  1  6  0  0  0
 11 10  1  0  0  0  0
 11 12  1  0  0  0  0
 12 13  1  0  0  0  0
 14 15  2  0  0  0  0
 16 17  1  1  0  0  0
 16 20  1  0  0  0  0
 16 15  1  0  0  0  0
 17 19  1  0  0  0  0
 18 19  1  0  0  0  0
 20 24  1  1  0  0  0
 21 22  1  0  0  0  0
 22 20  1  0  0  0  0
 23 22  2  0  0  0  0
 24 25  1  0  0  0  0
 27 26  2  0  0  0  0
 28 26  1  6  0  0  0
 28 29  1  0  0  0  0
 30 31  2  0  0  0  0
 30 33  1  0  0  0  0
 31 29  2  0  0  0  0
 32 30  1  0  0  0  0
 33 34  1  0  0  0  0
 34 37  1  0  0  0  0
 35 38  1  0  0  0  0
 35 40  2  0  0  0  0
 37 39  1  0  0  0  0
 37 36  2  0  0  0  0
 39 35  1  0  0  0  0
 42 41  1  0  0  0  0
 43 28  1  0  0  0  0
 43 42  1  0  0  0  0
 43 41  1  0  0  0  0
M  END
>  <MODEL>
9

>  <REMARK>
 VINA RESULT:      -6.4      3.572     10.416
  Name = 
  19 active torsions:
  status: ('A' for Active; 'I' for Inactive)
    1  A    between atoms: C_1  and  C_36
    2  A    between atoms: C_2  and  C_18
    3  A    between atoms: C_2  and  O_31
    4  A    between atoms: O_3  and  C_11
    5  A    between atoms: C_7  and  C_20
    6  A    between atoms: C_7  and  C_33
    7  A    between atoms: C_7  and  C_35
    8  A    between atoms: C_9  and  C_29
    9  A    between atoms: C_11  and  C_32
   10  A    between atoms: C_12  and  C_27
   11  A    between atoms: C_14  and  C_15
   12  A    between atoms: C_14  and  C_24
   13  A    between atoms: C_15  and  C_29
   14  A    between atoms: C_15  and  C_40
   15  A    between atoms: C_16  and  C_27
   16  A    between atoms: C_19  and  O_31
   17  A    between atoms: C_27  and  C_43
   18  A    between atoms: C_28  and  C_29
   19  A    between atoms: C_32  and  C_36
                            x       y       z     vdW  Elec       q    Type
                         _______ _______ _______ _____ _____    ______ ____

>  <TORSDO>
F 19

$$$$
