=
 OpenBabel10232408083D

 38 43  0  0  1  0  0  0  0  0999 V2000
  189.2390  178.2520  138.9500 C   0  0  0  0  0  2  0  0  0  0  0  0
  182.3280  176.6220  137.5500 O   0  0  0  0  0  1  0  0  0  0  0  0
  189.3450  177.2640  135.4830 C   0  0  0  0  0  2  0  0  0  0  0  0
  189.9370  176.1570  137.9660 N   0  0  2  0  0  0  0  0  0  0  0  0
  187.5960  178.0190  137.1330 N   0  0  0  0  0  0  0  0  0  0  0  0
  188.4170  178.9670  137.8840 C   0  0  0  0  0  2  0  0  0  0  0  0
  187.9660  177.2680  136.0680 C   0  0  0  0  0  0  0  0  0  0  0  0
  184.5550  174.7230  136.8580 C   0  0  0  0  0  1  0  0  0  0  0  0
  184.4900  176.2020  136.5160 C   0  0  2  0  0  3  0  0  0  0  0  0
  185.8750  176.7750  136.4790 C   0  0  0  0  0  0  0  0  0  0  0  0
  186.9170  176.4700  135.6190 C   0  0  0  0  0  3  0  0  0  0  0  0
  185.4510  178.2510  138.4230 C   0  0  0  0  0  3  0  0  0  0  0  0
  189.9320  175.9260  135.5520 N   0  0  0  0  0  0  0  0  0  0  0  0
  183.6510  176.9030  137.5070 N   0  0  0  0  0  0  0  0  0  0  0  0
  190.7110  175.7360  136.7960 C   0  0  2  0  0  3  0  0  0  0  0  0
  190.3930  177.5160  138.2980 C   0  0  2  0  0  3  0  0  0  0  0  0
  184.1760  177.8520  138.4610 C   0  0  0  0  0  3  0  0  0  0  0  0
  190.8410  176.3950  139.1060 C   0  0  0  0  0  2  0  0  0  0  0  0
  186.3150  177.7040  137.3780 C   0  0  0  0  0  0  0  0  0  0  0  0
  190.8050  175.8730  134.5190 O   0  0  0  0  0  1  0  0  0  0  0  0
  192.6130  173.9320  136.6800 C   0  0  2  0  0  3  0  0  0  0  0  0
  190.5500  172.4430  135.3520 C   0  0  0  0  0  3  0  0  0  0  0  0
  191.9830  172.2850  134.9330 C   0  0  0  0  0  2  0  0  0  0  0  0
  188.8200  173.3080  136.6760 O   0  0  0  0  0  1  0  0  0  0  0  0
  192.7930  173.5440  135.2120 C   0  0  0  0  0  2  0  0  0  0  0  0
  190.1600  173.2900  136.3110 C   0  0  0  0  0  0  0  0  0  0  0  0
  191.1250  174.2510  136.9780 C   0  0  2  0  0  3  0  0  0  0  0  0
  194.8610  174.4320  137.6360 C   0  0  0  0  0  0  0  0  0  0  0  0
  193.5880  175.0290  137.1410 C   0  0  1  0  0  3  0  0  0  0  0  0
  194.0670  175.8860  135.9550 C   0  0  0  0  0  2  0  0  0  0  0  0
  194.9520  173.6850  138.6450 O   0  0  0  0  0  0  0  0  0  0  0  0
  195.9850  174.8510  136.8210 C   0  0  0  0  0  0  0  0  0  0  0  0
  195.5470  175.6750  135.8780 C   0  0  0  0  0  0  0  0  0  0  0  0
  197.3450  174.4210  137.0120 N   0  0  0  0  0  0  0  0  0  0  0  0
  198.2390  175.1850  137.7240 O   0  0  0  0  0  0  0  0  0  0  0  0
  197.7460  173.3630  136.4860 O   0  0  0  0  0  0  0  0  0  0  0  0
  196.3850  176.3430  134.8400 C   0  0  0  0  0  2  0  0  0  0  0  0
  196.5760  177.6720  135.1730 F   0  0  0  0  0  0  0  0  0  0  0  0
  3 13  1  0  0  0  0
  3  7  1  0  0  0  0
  4 16  1  0  0  0  0
  4 18  1  1  0  0  0
  5 19  1  0  0  0  0
  5  6  1  0  0  0  0
  6  1  1  0  0  0  0
  7  5  1  0  0  0  0
  9  8  1  1  0  0  0
  9 14  1  0  0  0  0
 10  9  1  0  0  0  0
 10 19  2  0  0  0  0
 11  7  2  0  0  0  0
 11 10  1  0  0  0  0
 12 17  2  0  0  0  0
 14  2  1  0  0  0  0
 14 17  1  0  0  0  0
 15 13  1  6  0  0  0
 15 27  1  0  0  0  0
 15  4  1  0  0  0  0
 16  1  1  1  0  0  0
 16 18  1  0  0  0  0
 19 12  1  0  0  0  0
 20 13  1  0  0  0  0
 21 25  1  6  0  0  0
 21 27  1  0  0  0  0
 21 29  1  0  0  0  0
 22 26  2  0  0  0  0
 23 25  1  0  0  0  0
 23 22  1  0  0  0  0
 26 24  1  0  0  0  0
 27 26  1  6  0  0  0
 28 31  2  0  0  0  0
 29 30  1  6  0  0  0
 29 28  1  0  0  0  0
 32 34  1  0  0  0  0
 32 28  1  0  0  0  0
 33 30  1  0  0  0  0
 33 32  2  0  0  0  0
 34 35  2  0  0  0  0
 36 34  2  0  0  0  0
 37 38  1  0  0  0  0
 37 33  1  0  0  0  0
M  END
>  <MODEL>
1

>  <REMARK>
 VINA RESULT:      -6.6      0.000      0.000
  Name = 
  4 active torsions:
  status: ('A' for Active; 'I' for Inactive)
    1  A    between atoms: N_1  and  C_32
    2  A    between atoms: C_2  and  C_22
    3  A    between atoms: C_12  and  C_34
    4  A    between atoms: C_29  and  C_38
                            x       y       z     vdW  Elec       q    Type
                         _______ _______ _______ _____ _____    ______ ____

>  <TORSDO>
F 4

$$$$
=
 OpenBabel10232408083D

 38 43  0  0  1  0  0  0  0  0999 V2000
  188.5470  178.3990  138.5070 C   0  0  0  0  0  2  0  0  0  0  0  0
  181.4020  177.5460  139.2720 O   0  0  0  0  0  1  0  0  0  0  0  0
  187.5910  176.8800  135.3790 C   0  0  0  0  0  2  0  0  0  0  0  0
  188.7490  176.1000  137.7860 N   0  0  2  0  0  0  0  0  0  0  0  0
  186.4480  178.1170  137.2530 N   0  0  0  0  0  0  0  0  0  0  0  0
  187.5290  179.0470  137.5760 C   0  0  0  0  0  2  0  0  0  0  0  0
  186.4370  177.1660  136.2890 C   0  0  0  0  0  0  0  0  0  0  0  0
  183.1640  175.2720  138.3950 C   0  0  0  0  0  1  0  0  0  0  0  0
  183.1420  176.6750  137.8120 C   0  0  2  0  0  3  0  0  0  0  0  0
  184.5070  177.0370  137.3110 C   0  0  0  0  0  0  0  0  0  0  0  0
  185.2360  176.4610  136.2830 C   0  0  0  0  0  3  0  0  0  0  0  0
  184.7800  178.8420  138.9870 C   0  0  0  0  0  3  0  0  0  0  0  0
  188.0500  175.5000  135.5420 N   0  0  0  0  0  0  0  0  0  0  0  0
  182.6800  177.6310  138.8370 N   0  0  0  0  0  0  0  0  0  0  0  0
  189.1240  175.4000  136.5550 C   0  0  2  0  0  3  0  0  0  0  0  0
  189.4020  177.4180  137.7280 C   0  0  2  0  0  3  0  0  0  0  0  0
  183.5350  178.6340  139.4280 C   0  0  0  0  0  3  0  0  0  0  0  0
  189.9530  176.3840  138.5880 C   0  0  0  0  0  2  0  0  0  0  0  0
  185.2640  178.0240  137.8750 C   0  0  0  0  0  0  0  0  0  0  0  0
  188.5920  175.1670  134.3470 O   0  0  0  0  0  1  0  0  0  0  0  0
  190.6830  173.3200  136.2000 C   0  0  2  0  0  3  0  0  0  0  0  0
  188.1540  171.9830  135.9710 C   0  0  0  0  0  3  0  0  0  0  0  0
  189.3240  171.5300  135.1450 C   0  0  0  0  0  2  0  0  0  0  0  0
  187.0960  173.3210  137.5780 O   0  0  0  0  0  1  0  0  0  0  0  0
  190.2940  172.6710  134.8710 C   0  0  0  0  0  2  0  0  0  0  0  0
  188.2110  173.0270  136.8040 C   0  0  0  0  0  0  0  0  0  0  0  0
  189.4350  173.9180  136.8980 C   0  0  2  0  0  3  0  0  0  0  0  0
  192.6550  174.3470  137.3310 C   0  0  0  0  0  0  0  0  0  0  0  0
  191.8570  174.3070  136.0720 C   0  0  1  0  0  3  0  0  0  0  0  0
  192.8920  173.8150  135.0440 C   0  0  0  0  0  2  0  0  0  0  0  0
  192.2130  174.7450  138.4400 O   0  0  0  0  0  0  0  0  0  0  0  0
  194.0130  173.8970  137.1020 C   0  0  0  0  0  0  0  0  0  0  0  0
  194.1570  173.6030  135.8150 C   0  0  0  0  0  0  0  0  0  0  0  0
  195.0250  173.7830  138.1190 N   0  0  0  0  0  0  0  0  0  0  0  0
  195.2420  172.5940  138.7760 O   0  0  0  0  0  0  0  0  0  0  0  0
  195.6890  174.7840  138.4550 O   0  0  0  0  0  0  0  0  0  0  0  0
  195.4070  173.1180  135.1620 C   0  0  0  0  0  2  0  0  0  0  0  0
  195.9590  174.1280  134.3940 F   0  0  0  0  0  0  0  0  0  0  0  0
  3 13  1  0  0  0  0
  3  7  1  0  0  0  0
  4 18  1  1  0  0  0
  5  6  1  0  0  0  0
  5 19  1  0  0  0  0
  6  1  1  0  0  0  0
  7  5  1  0  0  0  0
  9  8  1  1  0  0  0
  9 14  1  0  0  0  0
 10  9  1  0  0  0  0
 10 19  2  0  0  0  0
 11  7  2  0  0  0  0
 11 10  1  0  0  0  0
 12 17  2  0  0  0  0
 14  2  1  0  0  0  0
 14 17  1  0  0  0  0
 15 13  1  6  0  0  0
 15 27  1  0  0  0  0
 15  4  1  0  0  0  0
 16  4  1  0  0  0  0
 16  1  1  1  0  0  0
 16 18  1  0  0  0  0
 19 12  1  0  0  0  0
 20 13  1  0  0  0  0
 21 25  1  6  0  0  0
 21 27  1  0  0  0  0
 22 26  2  0  0  0  0
 23 22  1  0  0  0  0
 25 23  1  0  0  0  0
 26 24  1  0  0  0  0
 27 26  1  6  0  0  0
 28 31  2  0  0  0  0
 29 30  1  6  0  0  0
 29 21  1  0  0  0  0
 29 28  1  0  0  0  0
 30 33  1  0  0  0  0
 32 28  1  0  0  0  0
 32 34  1  0  0  0  0
 33 32  2  0  0  0  0
 34 36  2  0  0  0  0
 34 35  2  0  0  0  0
 37 33  1  0  0  0  0
 38 37  1  0  0  0  0
M  END
>  <MODEL>
2

>  <REMARK>
 VINA RESULT:      -5.5      1.766      2.189
  Name = 
  4 active torsions:
  status: ('A' for Active; 'I' for Inactive)
    1  A    between atoms: N_1  and  C_32
    2  A    between atoms: C_2  and  C_22
    3  A    between atoms: C_12  and  C_34
    4  A    between atoms: C_29  and  C_38
                            x       y       z     vdW  Elec       q    Type
                         _______ _______ _______ _____ _____    ______ ____

>  <TORSDO>
F 4

$$$$
=
 OpenBabel10232408083D

 38 43  0  0  1  0  0  0  0  0999 V2000
  189.2640  176.8560  139.0870 C   0  0  0  0  0  2  0  0  0  0  0  0
  183.5990  178.8220  143.1380 O   0  0  0  0  0  1  0  0  0  0  0  0
  187.1120  178.4930  136.6990 C   0  0  0  0  0  2  0  0  0  0  0  0
  187.7660  175.8950  137.4510 N   0  0  2  0  0  0  0  0  0  0  0  0
  187.3730  178.4270  139.2050 N   0  0  0  0  0  0  0  0  0  0  0  0
  188.8290  178.3060  139.2580 C   0  0  0  0  0  2  0  0  0  0  0  0
  186.5910  178.5250  138.1040 C   0  0  0  0  0  0  0  0  0  0  0  0
  183.2310  177.3270  140.5550 C   0  0  0  0  0  1  0  0  0  0  0  0
  184.0760  178.5720  140.7660 C   0  0  2  0  0  3  0  0  0  0  0  0
  185.2430  178.5580  139.8260 C   0  0  0  0  0  0  0  0  0  0  0  0
  185.2430  178.6120  138.4410 C   0  0  0  0  0  3  0  0  0  0  0  0
  186.8870  178.3720  141.6700 C   0  0  0  0  0  3  0  0  0  0  0  0
  186.5420  177.3660  135.9610 N   0  0  0  0  0  0  0  0  0  0  0  0
  184.5250  178.6340  142.1700 N   0  0  0  0  0  0  0  0  0  0  0  0
  187.3960  176.1620  136.0580 C   0  0  2  0  0  3  0  0  0  0  0  0
  189.1180  176.4450  137.6350 C   0  0  2  0  0  3  0  0  0  0  0  0
  185.9030  178.4680  142.5700 C   0  0  0  0  0  3  0  0  0  0  0  0
  188.9440  175.0100  137.4960 C   0  0  0  0  0  2  0  0  0  0  0  0
  186.5360  178.4420  140.2530 C   0  0  0  0  0  0  0  0  0  0  0  0
  186.5460  177.7590  134.6650 O   0  0  0  0  0  1  0  0  0  0  0  0
  185.3900  174.4800  136.2340 C   0  0  2  0  0  3  0  0  0  0  0  0
  187.4910  172.5740  135.8020 C   0  0  0  0  0  3  0  0  0  0  0  0
  186.3320  172.2300  136.6930 C   0  0  0  0  0  2  0  0  0  0  0  0
  188.6970  173.9580  134.3460 O   0  0  0  0  0  1  0  0  0  0  0  0
  185.7260  173.4720  137.3320 C   0  0  0  0  0  2  0  0  0  0  0  0
  187.6270  173.7640  135.2100 C   0  0  0  0  0  0  0  0  0  0  0  0
  186.6750  174.9140  135.4830 C   0  0  2  0  0  3  0  0  0  0  0  0
  183.4620  175.9870  135.7510 C   0  0  0  0  0  0  0  0  0  0  0  0
  184.5350  175.6580  136.7330 C   0  0  1  0  0  3  0  0  0  0  0  0
  183.7250  175.2710  137.9850 C   0  0  0  0  0  2  0  0  0  0  0  0
  183.6720  176.4080  134.5830 O   0  0  0  0  0  0  0  0  0  0  0  0
  182.1480  175.7900  136.3290 C   0  0  0  0  0  0  0  0  0  0  0  0
  182.2880  175.3940  137.5880 C   0  0  0  0  0  0  0  0  0  0  0  0
  180.9050  175.9840  135.6310 N   0  0  0  0  0  0  0  0  0  0  0  0
  180.2020  177.1610  135.7420 O   0  0  0  0  0  0  0  0  0  0  0  0
  180.4190  175.0590  134.9490 O   0  0  0  0  0  0  0  0  0  0  0  0
  181.1790  175.0950  138.5400 C   0  0  0  0  0  2  0  0  0  0  0  0
  180.5130  176.2620  138.8680 F   0  0  0  0  0  0  0  0  0  0  0  0
  1  6  1  0  0  0  0
  3  7  1  0  0  0  0
  4 18  1  6  0  0  0
  4 16  1  0  0  0  0
  5  6  1  0  0  0  0
  5 19  1  0  0  0  0
  7 11  2  0  0  0  0
  7  5  1  0  0  0  0
  9  8  1  1  0  0  0
  9 14  1  0  0  0  0
 10 19  2  0  0  0  0
 10  9  1  0  0  0  0
 11 10  1  0  0  0  0
 12 17  2  0  0  0  0
 13  3  1  0  0  0  0
 14 17  1  0  0  0  0
 14  2  1  0  0  0  0
 15 13  1  1  0  0  0
 15  4  1  0  0  0  0
 16 18  1  1  0  0  0
 16  1  1  0  0  0  0
 19 12  1  0  0  0  0
 20 13  1  0  0  0  0
 21 29  1  0  0  0  0
 21 25  1  1  0  0  0
 22 23  1  0  0  0  0
 23 25  1  0  0  0  0
 24 26  1  0  0  0  0
 26 22  2  0  0  0  0
 27 26  1  1  0  0  0
 27 15  1  0  0  0  0
 27 21  1  0  0  0  0
 28 32  1  0  0  0  0
 28 29  1  0  0  0  0
 29 30  1  1  0  0  0
 31 28  2  0  0  0  0
 32 33  2  0  0  0  0
 33 30  1  0  0  0  0
 33 37  1  0  0  0  0
 34 35  2  0  0  0  0
 34 32  1  0  0  0  0
 36 34  2  0  0  0  0
 37 38  1  0  0  0  0
M  END
>  <MODEL>
3

>  <REMARK>
 VINA RESULT:      -5.2      5.160      8.496
  Name = 
  4 active torsions:
  status: ('A' for Active; 'I' for Inactive)
    1  A    between atoms: N_1  and  C_32
    2  A    between atoms: C_2  and  C_22
    3  A    between atoms: C_12  and  C_34
    4  A    between atoms: C_29  and  C_38
                            x       y       z     vdW  Elec       q    Type
                         _______ _______ _______ _____ _____    ______ ____

>  <TORSDO>
F 4

$$$$
=
 OpenBabel10232408083D

 38 43  0  0  1  0  0  0  0  0999 V2000
  196.2560  175.7860  135.3350 C   0  0  0  0  0  2  0  0  0  0  0  0
  198.9310  169.0620  135.3460 O   0  0  0  0  0  1  0  0  0  0  0  0
  194.2700  174.1470  137.8610 C   0  0  0  0  0  2  0  0  0  0  0  0
  194.0120  174.8980  135.1940 N   0  0  2  0  0  0  0  0  0  0  0  0
  196.4730  173.7510  136.7020 N   0  0  0  0  0  0  0  0  0  0  0  0
  196.8870  175.1460  136.5660 C   0  0  0  0  0  2  0  0  0  0  0  0
  195.3410  173.2780  137.2760 C   0  0  0  0  0  0  0  0  0  0  0  0
  195.9750  169.5690  135.1360 C   0  0  0  0  0  1  0  0  0  0  0  0
  196.9240  170.1690  136.1600 C   0  0  2  0  0  3  0  0  0  0  0  0
  196.4460  171.5340  136.5550 C   0  0  0  0  0  0  0  0  0  0  0  0
  195.2780  171.8880  137.2110 C   0  0  0  0  0  3  0  0  0  0  0  0
  198.4290  172.6490  135.5730 C   0  0  0  0  0  3  0  0  0  0  0  0
  192.9960  173.9330  137.1740 N   0  0  0  0  0  0  0  0  0  0  0  0
  198.2870  170.2250  135.5980 N   0  0  0  0  0  0  0  0  0  0  0  0
  192.8200  174.8740  136.0460 C   0  0  2  0  0  3  0  0  0  0  0  0
  194.7920  176.0760  135.6040 C   0  0  2  0  0  3  0  0  0  0  0  0
  198.9600  171.4600  135.2690 C   0  0  0  0  0  3  0  0  0  0  0  0
  194.0180  176.1230  134.3750 C   0  0  0  0  0  2  0  0  0  0  0  0
  197.1380  172.6740  136.2590 C   0  0  0  0  0  0  0  0  0  0  0  0
  192.0480  174.2260  138.0950 O   0  0  0  0  0  1  0  0  0  0  0  0
  190.2700  175.2150  135.5330 C   0  0  2  0  0  3  0  0  0  0  0  0
  190.3300  172.3480  135.4400 C   0  0  0  0  0  3  0  0  0  0  0  0
  189.1190  173.0600  135.9700 C   0  0  0  0  0  2  0  0  0  0  0  0
  192.4690  172.2410  134.4880 O   0  0  0  0  0  1  0  0  0  0  0  0
  189.4790  174.4140  136.5670 C   0  0  0  0  0  2  0  0  0  0  0  0
  191.4310  172.9870  135.0310 C   0  0  0  0  0  0  0  0  0  0  0  0
  191.5920  174.4880  135.1790 C   0  0  2  0  0  3  0  0  0  0  0  0
  189.2180  177.4730  135.6530 C   0  0  0  0  0  0  0  0  0  0  0  0
  190.4580  176.6910  135.9250 C   0  0  1  0  0  3  0  0  0  0  0  0
  190.6180  176.8490  137.4490 C   0  0  0  0  0  2  0  0  0  0  0  0
  188.7310  177.6590  134.5070 O   0  0  0  0  0  0  0  0  0  0  0  0
  188.6660  178.0180  136.8780 C   0  0  0  0  0  0  0  0  0  0  0  0
  189.4520  177.6770  137.8910 C   0  0  0  0  0  0  0  0  0  0  0  0
  187.4540  178.7890  136.9620 N   0  0  0  0  0  0  0  0  0  0  0  0
  186.2770  178.2210  137.3910 O   0  0  0  0  0  0  0  0  0  0  0  0
  187.4450  179.9820  136.5960 O   0  0  0  0  0  0  0  0  0  0  0  0
  189.2480  178.0490  139.3220 C   0  0  0  0  0  2  0  0  0  0  0  0
  189.2810  176.9150  140.1120 F   0  0  0  0  0  0  0  0  0  0  0  0
  1 16  1  0  0  0  0
  1  6  1  0  0  0  0
  2 14  1  0  0  0  0
  4 18  1  6  0  0  0
  4 16  1  0  0  0  0
  4 15  1  0  0  0  0
  5  7  1  0  0  0  0
  6  5  1  0  0  0  0
  7  3  1  0  0  0  0
  9  8  1  6  0  0  0
  9 10  1  0  0  0  0
 10 11  1  0  0  0  0
 11  7  2  0  0  0  0
 12 19  1  0  0  0  0
 13  3  1  0  0  0  0
 13 20  1  0  0  0  0
 14  9  1  0  0  0  0
 15 13  1  1  0  0  0
 16 18  1  6  0  0  0
 17 12  2  0  0  0  0
 17 14  1  0  0  0  0
 19 10  2  0  0  0  0
 19  5  1  0  0  0  0
 21 29  1  0  0  0  0
 21 25  1  1  0  0  0
 22 23  1  0  0  0  0
 23 25  1  0  0  0  0
 24 26  1  0  0  0  0
 26 22  2  0  0  0  0
 27 26  1  1  0  0  0
 27 21  1  0  0  0  0
 27 15  1  0  0  0  0
 28 29  1  0  0  0  0
 28 32  1  0  0  0  0
 29 30  1  1  0  0  0
 30 33  1  0  0  0  0
 31 28  2  0  0  0  0
 32 34  1  0  0  0  0
 32 33  2  0  0  0  0
 33 37  1  0  0  0  0
 34 35  2  0  0  0  0
 36 34  2  0  0  0  0
 37 38  1  0  0  0  0
M  END
>  <MODEL>
4

>  <REMARK>
 VINA RESULT:      -4.9      3.092      9.148
  Name = 
  4 active torsions:
  status: ('A' for Active; 'I' for Inactive)
    1  A    between atoms: N_1  and  C_32
    2  A    between atoms: C_2  and  C_22
    3  A    between atoms: C_12  and  C_34
    4  A    between atoms: C_29  and  C_38
                            x       y       z     vdW  Elec       q    Type
                         _______ _______ _______ _____ _____    ______ ____

>  <TORSDO>
F 4

$$$$
=
 OpenBabel10232408083D

 38 43  0  0  1  0  0  0  0  0999 V2000
  189.9910  177.5580  140.0340 C   0  0  0  0  0  2  0  0  0  0  0  0
  195.1310  175.9290  135.2070 O   0  0  0  0  0  1  0  0  0  0  0  0
  188.4330  174.9730  138.0600 C   0  0  0  0  0  2  0  0  0  0  0  0
  188.3700  177.7480  138.2510 N   0  0  2  0  0  0  0  0  0  0  0  0
  190.7730  175.7970  138.5030 N   0  0  0  0  0  0  0  0  0  0  0  0
  190.5990  176.1660  139.9070 C   0  0  0  0  0  2  0  0  0  0  0  0
  189.8510  175.2600  137.6700 C   0  0  0  0  0  0  0  0  0  0  0  0
  192.3150  176.5380  134.3480 C   0  0  0  0  0  1  0  0  0  0  0  0
  192.7370  175.5630  135.4350 C   0  0  2  0  0  3  0  0  0  0  0  0
  191.6810  175.4990  136.4970 C   0  0  0  0  0  0  0  0  0  0  0  0
  190.3740  175.0510  136.3960 C   0  0  0  0  0  3  0  0  0  0  0  0
  193.1760  176.4760  138.2160 C   0  0  0  0  0  3  0  0  0  0  0  0
  187.5030  175.7310  137.2220 N   0  0  0  0  0  0  0  0  0  0  0  0
  194.0350  175.9820  135.9980 N   0  0  0  0  0  0  0  0  0  0  0  0
  187.1620  177.0360  137.8300 C   0  0  2  0  0  3  0  0  0  0  0  0
  188.5150  177.5050  139.6950 C   0  0  2  0  0  3  0  0  0  0  0  0
  194.1910  176.4800  137.3450 C   0  0  0  0  0  3  0  0  0  0  0  0
  188.0220  178.7910  139.2330 C   0  0  0  0  0  2  0  0  0  0  0  0
  191.8880  175.9440  137.7720 C   0  0  0  0  0  0  0  0  0  0  0  0
  186.3700  174.9890  137.1990 O   0  0  0  0  0  1  0  0  0  0  0  0
  184.8380  177.9590  137.0360 C   0  0  2  0  0  3  0  0  0  0  0  0
  185.9190  177.2920  134.4620 C   0  0  0  0  0  3  0  0  0  0  0  0
  184.4490  177.1340  134.7270 C   0  0  0  0  0  2  0  0  0  0  0  0
  188.1140  177.8860  135.0280 O   0  0  0  0  0  1  0  0  0  0  0  0
  184.1680  176.8680  136.1990 C   0  0  0  0  0  2  0  0  0  0  0  0
  186.7870  177.7010  135.3930 C   0  0  0  0  0  0  0  0  0  0  0  0
  186.3740  177.9300  136.8350 C   0  0  2  0  0  3  0  0  0  0  0  0
  183.6800  179.1990  138.8640 C   0  0  0  0  0  0  0  0  0  0  0  0
  184.4030  177.9440  138.5120 C   0  0  1  0  0  3  0  0  0  0  0  0
  183.3340  176.8660  138.7690 C   0  0  0  0  0  2  0  0  0  0  0  0
  184.1980  180.3460  138.8480 O   0  0  0  0  0  0  0  0  0  0  0  0
  182.3140  178.9210  139.2580 C   0  0  0  0  0  0  0  0  0  0  0  0
  182.1130  177.6090  139.2140 C   0  0  0  0  0  0  0  0  0  0  0  0
  181.3430  179.9180  139.6220 N   0  0  0  0  0  0  0  0  0  0  0  0
  180.7400  179.9080  140.8580 O   0  0  0  0  0  0  0  0  0  0  0  0
  180.9960  180.7850  138.7940 O   0  0  0  0  0  0  0  0  0  0  0  0
  180.8440  176.9050  139.5600 C   0  0  0  0  0  2  0  0  0  0  0  0
  181.1190  175.6090  139.9570 F   0  0  0  0  0  0  0  0  0  0  0  0
  2 14  1  0  0  0  0
  4 18  1  1  0  0  0
  4 16  1  0  0  0  0
  5  6  1  0  0  0  0
  6  1  1  0  0  0  0
  7  3  1  0  0  0  0
  7  5  1  0  0  0  0
  9  8  1  6  0  0  0
  9 14  1  0  0  0  0
  9 10  1  0  0  0  0
 10 19  2  0  0  0  0
 11 10  1  0  0  0  0
 11  7  2  0  0  0  0
 13  3  1  0  0  0  0
 14 17  1  0  0  0  0
 15 13  1  6  0  0  0
 15  4  1  0  0  0  0
 16 18  1  1  0  0  0
 16  1  1  0  0  0  0
 17 12  2  0  0  0  0
 19 12  1  0  0  0  0
 19  5  1  0  0  0  0
 20 13  1  0  0  0  0
 21 25  1  6  0  0  0
 21 29  1  0  0  0  0
 22 23  1  0  0  0  0
 22 26  2  0  0  0  0
 23 25  1  0  0  0  0
 24 26  1  0  0  0  0
 27 26  1  6  0  0  0
 27 21  1  0  0  0  0
 27 15  1  0  0  0  0
 28 32  1  0  0  0  0
 29 30  1  6  0  0  0
 29 28  1  0  0  0  0
 30 33  1  0  0  0  0
 31 28  2  0  0  0  0
 32 34  1  0  0  0  0
 33 32  2  0  0  0  0
 33 37  1  0  0  0  0
 34 35  2  0  0  0  0
 36 34  2  0  0  0  0
 37 38  1  0  0  0  0
M  END
>  <MODEL>
5

>  <REMARK>
 VINA RESULT:      -4.9      3.582      9.763
  Name = 
  4 active torsions:
  status: ('A' for Active; 'I' for Inactive)
    1  A    between atoms: N_1  and  C_32
    2  A    between atoms: C_2  and  C_22
    3  A    between atoms: C_12  and  C_34
    4  A    between atoms: C_29  and  C_38
                            x       y       z     vdW  Elec       q    Type
                         _______ _______ _______ _____ _____    ______ ____

>  <TORSDO>
F 4

$$$$
=
 OpenBabel10232408083D

 38 43  0  0  1  0  0  0  0  0999 V2000
  180.6040  174.1010  138.6470 C   0  0  0  0  0  2  0  0  0  0  0  0
  184.9870  169.8750  134.7350 O   0  0  0  0  0  1  0  0  0  0  0  0
  180.2320  175.4390  135.3180 C   0  0  0  0  0  2  0  0  0  0  0  0
  181.6060  176.0650  137.6560 N   0  0  2  0  0  0  0  0  0  0  0  0
  181.0490  173.2960  136.3640 N   0  0  0  0  0  0  0  0  0  0  0  0
  180.1130  173.2450  137.4850 C   0  0  0  0  0  2  0  0  0  0  0  0
  181.1200  174.2340  135.3890 C   0  0  0  0  0  0  0  0  0  0  0  0
  185.1450  172.8730  134.5670 C   0  0  0  0  0  1  0  0  0  0  0  0
  183.8890  172.0270  134.4530 C   0  0  2  0  0  3  0  0  0  0  0  0
  182.7120  172.7920  134.9790 C   0  0  0  0  0  0  0  0  0  0  0  0
  182.1490  173.9610  134.4920 C   0  0  0  0  0  3  0  0  0  0  0  0
  182.3700  171.2170  136.8610 C   0  0  0  0  0  3  0  0  0  0  0  0
  181.0220  176.6690  135.3800 N   0  0  0  0  0  0  0  0  0  0  0  0
  184.0740  170.7630  135.1910 N   0  0  0  0  0  0  0  0  0  0  0  0
  181.1730  177.1500  136.7710 C   0  0  2  0  0  3  0  0  0  0  0  0
  180.3940  175.5670  138.3260 C   0  0  2  0  0  3  0  0  0  0  0  0
  183.3530  170.4370  136.4000 C   0  0  0  0  0  3  0  0  0  0  0  0
  181.3180  176.4160  139.0580 C   0  0  0  0  0  2  0  0  0  0  0  0
  182.0330  172.4230  136.1050 C   0  0  0  0  0  0  0  0  0  0  0  0
  180.2880  177.5900  134.7130 O   0  0  0  0  0  1  0  0  0  0  0  0
  183.6790  177.8730  137.0630 C   0  0  2  0  0  3  0  0  0  0  0  0
  182.4910  179.7620  138.8670 C   0  0  0  0  0  3  0  0  0  0  0  0
  183.8440  179.1840  139.1640 C   0  0  0  0  0  2  0  0  0  0  0  0
  180.5590  180.0580  137.5740 O   0  0  0  0  0  1  0  0  0  0  0  0
  184.0110  177.7990  138.5530 C   0  0  0  0  0  2  0  0  0  0  0  0
  181.7670  179.4110  137.7990 C   0  0  0  0  0  0  0  0  0  0  0  0
  182.2050  178.3070  136.8560 C   0  0  2  0  0  3  0  0  0  0  0  0
  185.1760  176.8740  135.3370 C   0  0  0  0  0  0  0  0  0  0  0  0
  184.0650  176.5980  136.2920 C   0  0  1  0  0  3  0  0  0  0  0  0
  184.6910  175.5470  137.2270 C   0  0  0  0  0  2  0  0  0  0  0  0
  185.0910  177.6530  134.3520 O   0  0  0  0  0  0  0  0  0  0  0  0
  186.3570  176.1030  135.6730 C   0  0  0  0  0  0  0  0  0  0  0  0
  186.0890  175.3480  136.7310 C   0  0  0  0  0  0  0  0  0  0  0  0
  187.6100  176.1690  134.9700 N   0  0  0  0  0  0  0  0  0  0  0  0
  188.1410  175.0590  134.3560 O   0  0  0  0  0  0  0  0  0  0  0  0
  188.2620  177.2330  134.9510 O   0  0  0  0  0  0  0  0  0  0  0  0
  187.0300  174.3950  137.3890 C   0  0  0  0  0  2  0  0  0  0  0  0
  186.3980  173.1830  137.6030 F   0  0  0  0  0  0  0  0  0  0  0  0
  2 14  1  0  0  0  0
  3 13  1  0  0  0  0
  3  7  1  0  0  0  0
  4 16  1  0  0  0  0
  4 18  1  1  0  0  0
  5  6  1  0  0  0  0
  6  1  1  0  0  0  0
  7  5  1  0  0  0  0
  9  8  1  1  0  0  0
  9 10  1  0  0  0  0
  9 14  1  0  0  0  0
 10 19  2  0  0  0  0
 11 10  1  0  0  0  0
 11  7  2  0  0  0  0
 14 17  1  0  0  0  0
 15 13  1  6  0  0  0
 15 27  1  0  0  0  0
 15  4  1  0  0  0  0
 16  1  1  1  0  0  0
 16 18  1  0  0  0  0
 17 12  2  0  0  0  0
 19  5  1  0  0  0  0
 19 12  1  0  0  0  0
 20 13  1  0  0  0  0
 21 25  1  1  0  0  0
 22 23  1  0  0  0  0
 24 26  1  0  0  0  0
 25 23  1  0  0  0  0
 26 22  2  0  0  0  0
 27 21  1  0  0  0  0
 27 26  1  1  0  0  0
 28 32  1  0  0  0  0
 28 29  1  0  0  0  0
 29 21  1  0  0  0  0
 29 30  1  1  0  0  0
 31 28  2  0  0  0  0
 32 33  2  0  0  0  0
 33 30  1  0  0  0  0
 33 37  1  0  0  0  0
 34 32  1  0  0  0  0
 35 34  2  0  0  0  0
 36 34  2  0  0  0  0
 37 38  1  0  0  0  0
M  END
>  <MODEL>
6

>  <REMARK>
 VINA RESULT:      -3.9      5.770      9.257
  Name = 
  4 active torsions:
  status: ('A' for Active; 'I' for Inactive)
    1  A    between atoms: N_1  and  C_32
    2  A    between atoms: C_2  and  C_22
    3  A    between atoms: C_12  and  C_34
    4  A    between atoms: C_29  and  C_38
                            x       y       z     vdW  Elec       q    Type
                         _______ _______ _______ _____ _____    ______ ____

>  <TORSDO>
F 4

$$$$
