=
 OpenBabel10232409023D

 43 50  0  0  1  0  0  0  0  0999 V2000
  183.6320  179.4810  138.9840 C   0  0  0  0  0  3  0  0  0  0  0  0
  189.7790  177.8040  141.7300 C   0  0  1  0  0  3  0  0  0  0  0  0
  190.3800  176.6060  141.0250 C   0  0  0  0  0  2  0  0  0  0  0  0
  185.3350  177.8850  143.2630 C   0  0  0  0  0  3  0  0  0  0  0  0
  185.8610  178.9820  139.8690 N   0  0  0  0  0  0  0  0  0  0  0  0
  190.0730  176.8130  139.5460 C   0  0  0  0  0  2  0  0  0  0  0  0
  186.6450  177.5600  143.6880 C   0  0  0  0  0  2  0  0  0  0  0  0
  188.7510  178.2990  140.8170 N   0  0  0  0  0  0  0  0  0  0  0  0
  189.0820  177.4090  142.9640 N   0  0  0  0  0  0  0  0  0  0  0  0
  181.8070  179.1470  140.5780 C   0  0  0  0  0  3  0  0  0  0  0  0
  188.8700  177.7480  139.4900 C   0  0  1  0  0  3  0  0  0  0  0  0
  187.7150  177.7680  142.7950 C   0  0  0  0  0  0  0  0  0  0  0  0
  184.5170  179.0870  139.9840 C   0  0  0  0  0  0  0  0  0  0  0  0
  185.1740  178.3870  141.9620 C   0  0  0  0  0  0  0  0  0  0  0  0
  187.5270  178.2660  141.5360 C   0  0  0  0  0  0  0  0  0  0  0  0
  184.0620  178.7290  141.2410 C   0  0  0  0  0  0  0  0  0  0  0  0
  182.7140  178.7480  141.5760 C   0  0  0  0  0  3  0  0  0  0  0  0
  186.2400  178.5570  141.0960 C   0  0  0  0  0  0  0  0  0  0  0  0
  182.2630  179.5110  139.2930 C   0  0  0  0  0  3  0  0  0  0  0  0
  189.7320  177.2580  144.2260 C   0  0  0  0  0  0  0  0  0  0  0  0
  190.9890  176.9370  146.7050 C   0  0  0  0  0  0  0  0  0  0  0  0
  189.6700  177.4120  146.6430 C   0  0  0  0  0  3  0  0  0  0  0  0
  189.0430  177.5700  145.4070 C   0  0  0  0  0  3  0  0  0  0  0  0
  191.0460  176.7770  144.2890 C   0  0  0  0  0  3  0  0  0  0  0  0
  191.6720  176.6160  145.5260 C   0  0  0  0  0  3  0  0  0  0  0  0
  191.6500  176.7410  148.0250 C   0  0  0  0  0  2  0  0  0  0  0  0
  192.7550  175.7980  147.8980 N   0  0  0  0  0  1  0  0  0  0  0  0
  189.0960  178.8700  138.4920 C   0  0  0  0  0  2  0  0  0  0  0  0
  188.8930  178.3960  137.0630 C   0  0  0  0  0  2  0  0  0  0  0  0
  187.0100  179.7900  136.5640 O   0  0  0  0  0  1  0  0  0  0  0  0
  187.4200  178.4580  136.6710 C   0  0  1  0  0  3  0  0  0  0  0  0
  187.1740  177.7440  135.3490 C   0  0  0  0  0  2  0  0  0  0  0  0
  186.3140  176.5840  135.5350 N   0  0  0  0  0  2  0  0  0  0  0  0
  182.6680  175.7990  139.7560 O   0  0  0  0  0  1  0  0  0  0  0  0
  182.2110  176.4330  136.2960 C   0  0  1  0  0  3  0  0  0  0  0  0
  180.9240  175.6230  138.1200 C   0  0  0  0  0  2  0  0  0  0  0  0
  184.0550  177.2950  134.8990 C   0  0  0  0  0  2  0  0  0  0  0  0
  183.1080  176.4020  137.4960 C   0  0  2  0  0  3  0  0  0  0  0  0
  180.8300  176.5140  136.8860 C   0  0  0  0  0  2  0  0  0  0  0  0
  185.0350  177.0370  136.0630 C   0  0  1  0  0  3  0  0  0  0  0  0
  182.6290  177.5860  135.3990 C   0  0  0  0  0  2  0  0  0  0  0  0
  184.4980  175.9820  137.0500 C   0  0  0  0  0  2  0  0  0  0  0  0
  182.4100  175.4410  138.4310 C   0  0  1  0  0  3  0  0  0  0  0  0
  1 19  2  0  0  0  0
  1 13  1  0  0  0  0
  2  3  1  6  0  0  0
  2  9  1  0  0  0  0
  4  7  1  0  0  0  0
  5 13  1  0  0  0  0
  5 18  2  0  0  0  0
  6  3  1  0  0  0  0
  8 15  1  0  0  0  0
  8  2  1  0  0  0  0
  9 20  1  0  0  0  0
 10 17  2  0  0  0  0
 11 28  1  6  0  0  0
 11  6  1  0  0  0  0
 11  8  1  0  0  0  0
 12  9  1  0  0  0  0
 12  7  1  0  0  0  0
 13 16  2  0  0  0  0
 14  4  2  0  0  0  0
 15 12  2  0  0  0  0
 16 17  1  0  0  0  0
 16 14  1  0  0  0  0
 18 15  1  0  0  0  0
 18 14  1  0  0  0  0
 19 10  1  0  0  0  0
 20 24  2  0  0  0  0
 20 23  1  0  0  0  0
 21 26  1  0  0  0  0
 22 21  1  0  0  0  0
 23 22  2  0  0  0  0
 24 25  1  0  0  0  0
 25 21  2  0  0  0  0
 27 26  1  0  0  0  0
 29 28  1  0  0  0  0
 31 30  1  6  0  0  0
 31 29  1  0  0  0  0
 32 33  1  0  0  0  0
 32 31  1  0  0  0  0
 35 41  1  6  0  0  0
 35 39  1  0  0  0  0
 35 38  1  0  0  0  0
 36 43  1  0  0  0  0
 37 41  1  0  0  0  0
 37 40  1  0  0  0  0
 38 42  1  6  0  0  0
 38 43  1  0  0  0  0
 39 36  1  0  0  0  0
 40 33  1  6  0  0  0
 40 42  1  0  0  0  0
 43 34  1  1  0  0  0
M  END
>  <MODEL>
1

>  <REMARK>
 VINA RESULT:      -9.8      0.000      0.000
  Name = 
  8 active torsions:
  status: ('A' for Active; 'I' for Inactive)
    1  A    between atoms: C_3  and  C_12
    2  A    between atoms: C_5  and  N_26
    3  A    between atoms: C_9  and  C_10
    4  A    between atoms: C_9  and  C_39
    5  A    between atoms: C_10  and  C_24
    6  A    between atoms: N_18  and  C_19
    7  A    between atoms: N_18  and  C_39
    8  A    between atoms: C_24  and  C_28
                            x       y       z     vdW  Elec       q    Type
                         _______ _______ _______ _____ _____    ______ ____

>  <TORSDO>
F 8

$$$$
=
 OpenBabel10232409023D

 43 50  0  0  1  0  0  0  0  0999 V2000
  183.5240  179.5170  138.9990 C   0  0  0  0  0  3  0  0  0  0  0  0
  189.7110  177.8420  141.6550 C   0  0  1  0  0  3  0  0  0  0  0  0
  190.3110  176.6560  140.9300 C   0  0  0  0  0  2  0  0  0  0  0  0
  185.2850  177.8810  143.2400 C   0  0  0  0  0  3  0  0  0  0  0  0
  185.7660  179.0200  139.8530 N   0  0  0  0  0  0  0  0  0  0  0  0
  189.9850  176.8780  139.4570 C   0  0  0  0  0  2  0  0  0  0  0  0
  186.6010  177.5570  143.6460 C   0  0  0  0  0  2  0  0  0  0  0  0
  188.6700  178.3420  140.7600 N   0  0  0  0  0  0  0  0  0  0  0  0
  189.0300  177.4290  142.8920 N   0  0  0  0  0  0  0  0  0  0  0  0
  181.7190  179.1540  140.6100 C   0  0  0  0  0  3  0  0  0  0  0  0
  188.7770  177.8070  139.4250 C   0  0  1  0  0  3  0  0  0  0  0  0
  187.6600  177.7830  142.7430 C   0  0  0  0  0  0  0  0  0  0  0  0
  184.4220  179.1160  139.9850 C   0  0  0  0  0  0  0  0  0  0  0  0
  185.1060  178.3960  141.9470 C   0  0  0  0  0  0  0  0  0  0  0  0
  187.4540  178.2930  141.4920 C   0  0  0  0  0  0  0  0  0  0  0  0
  183.9840  178.7410  141.2420 C   0  0  0  0  0  0  0  0  0  0  0  0
  182.6390  178.7490  141.5930 C   0  0  0  0  0  3  0  0  0  0  0  0
  186.1610  178.5820  141.0710 C   0  0  0  0  0  0  0  0  0  0  0  0
  182.1590  179.5360  139.3240 C   0  0  0  0  0  3  0  0  0  0  0  0
  189.6960  177.2670  144.1450 C   0  0  0  0  0  0  0  0  0  0  0  0
  190.9820  176.9250  146.6060 C   0  0  0  0  0  0  0  0  0  0  0  0
  189.6810  177.4500  146.5610 C   0  0  0  0  0  3  0  0  0  0  0  0
  189.0400  177.6190  145.3330 C   0  0  0  0  0  3  0  0  0  0  0  0
  190.9910  176.7350  144.1920 C   0  0  0  0  0  3  0  0  0  0  0  0
  191.6310  176.5640  145.4200 C   0  0  0  0  0  3  0  0  0  0  0  0
  191.6580  176.7180  147.9180 C   0  0  0  0  0  2  0  0  0  0  0  0
  192.7730  175.7920  147.7670 N   0  0  0  0  0  1  0  0  0  0  0  0
  188.9860  178.9420  138.4380 C   0  0  0  0  0  2  0  0  0  0  0  0
  188.9550  178.4460  137.0020 C   0  0  0  0  0  2  0  0  0  0  0  0
  186.9690  178.4690  135.6630 O   0  0  0  0  0  1  0  0  0  0  0  0
  187.6230  177.7750  136.6850 C   0  0  1  0  0  3  0  0  0  0  0  0
  187.8250  176.3260  136.2620 C   0  0  0  0  0  2  0  0  0  0  0  0
  187.3140  175.4120  137.2740 N   0  0  0  0  0  2  0  0  0  0  0  0
  181.8360  174.7570  136.1380 O   0  0  0  0  0  1  0  0  0  0  0  0
  184.3640  172.4620  137.1010 C   0  0  1  0  0  3  0  0  0  0  0  0
  181.9910  172.5380  137.0300 C   0  0  0  0  0  2  0  0  0  0  0  0
  186.7560  173.0490  136.9320 C   0  0  0  0  0  2  0  0  0  0  0  0
  183.9750  173.8170  136.5930 C   0  0  2  0  0  3  0  0  0  0  0  0
  183.1700  171.6050  136.7770 C   0  0  0  0  0  2  0  0  0  0  0  0
  186.3590  174.5120  136.6420 C   0  0  1  0  0  3  0  0  0  0  0  0
  185.6790  172.0550  136.4600 C   0  0  0  0  0  2  0  0  0  0  0  0
  184.9440  174.8420  137.1570 C   0  0  0  0  0  2  0  0  0  0  0  0
  182.5400  173.9640  137.0460 C   0  0  1  0  0  3  0  0  0  0  0  0
  1 19  2  0  0  0  0
  1 13  1  0  0  0  0
  2  3  1  6  0  0  0
  2  9  1  0  0  0  0
  4  7  1  0  0  0  0
  5 13  1  0  0  0  0
  5 18  2  0  0  0  0
  6  3  1  0  0  0  0
  8 15  1  0  0  0  0
  8  2  1  0  0  0  0
  9 20  1  0  0  0  0
 10 17  2  0  0  0  0
 11 28  1  6  0  0  0
 11  6  1  0  0  0  0
 11  8  1  0  0  0  0
 12  9  1  0  0  0  0
 12  7  1  0  0  0  0
 13 16  2  0  0  0  0
 14  4  2  0  0  0  0
 15 12  2  0  0  0  0
 16 17  1  0  0  0  0
 16 14  1  0  0  0  0
 18 15  1  0  0  0  0
 18 14  1  0  0  0  0
 19 10  1  0  0  0  0
 20 24  2  0  0  0  0
 20 23  1  0  0  0  0
 21 26  1  0  0  0  0
 22 21  1  0  0  0  0
 23 22  2  0  0  0  0
 24 25  1  0  0  0  0
 25 21  2  0  0  0  0
 27 26  1  0  0  0  0
 29 28  1  0  0  0  0
 31 30  1  6  0  0  0
 31 29  1  0  0  0  0
 32 31  1  0  0  0  0
 32 33  1  0  0  0  0
 35 41  1  6  0  0  0
 36 43  1  0  0  0  0
 38 43  1  0  0  0  0
 38 35  1  0  0  0  0
 38 42  1  1  0  0  0
 39 36  1  0  0  0  0
 39 35  1  0  0  0  0
 40 37  1  0  0  0  0
 40 42  1  0  0  0  0
 40 33  1  1  0  0  0
 41 37  1  0  0  0  0
 43 34  1  6  0  0  0
M  END
>  <MODEL>
2

>  <REMARK>
 VINA RESULT:      -9.6      1.638      2.059
  Name = 
  8 active torsions:
  status: ('A' for Active; 'I' for Inactive)
    1  A    between atoms: C_3  and  C_12
    2  A    between atoms: C_5  and  N_26
    3  A    between atoms: C_9  and  C_10
    4  A    between atoms: C_9  and  C_39
    5  A    between atoms: C_10  and  C_24
    6  A    between atoms: N_18  and  C_19
    7  A    between atoms: N_18  and  C_39
    8  A    between atoms: C_24  and  C_28
                            x       y       z     vdW  Elec       q    Type
                         _______ _______ _______ _____ _____    ______ ____

>  <TORSDO>
F 8

$$$$
=
 OpenBabel10232409023D

 43 50  0  0  1  0  0  0  0  0999 V2000
  183.5230  179.5240  138.9950 C   0  0  0  0  0  3  0  0  0  0  0  0
  189.6890  177.8490  141.7000 C   0  0  1  0  0  3  0  0  0  0  0  0
  190.3020  176.6740  140.9690 C   0  0  0  0  0  2  0  0  0  0  0  0
  185.2450  177.8500  143.2360 C   0  0  0  0  0  3  0  0  0  0  0  0
  185.7580  179.0280  139.8680 N   0  0  0  0  0  0  0  0  0  0  0  0
  189.9920  176.9110  139.4950 C   0  0  0  0  0  2  0  0  0  0  0  0
  186.5580  177.5280  143.6530 C   0  0  0  0  0  2  0  0  0  0  0  0
  188.6550  178.3540  140.7990 N   0  0  0  0  0  0  0  0  0  0  0  0
  188.9960  177.4190  142.9250 N   0  0  0  0  0  0  0  0  0  0  0  0
  181.7020  179.1350  140.5810 C   0  0  0  0  0  3  0  0  0  0  0  0
  188.7790  177.8340  139.4600 C   0  0  1  0  0  3  0  0  0  0  0  0
  187.6260  177.7680  142.7650 C   0  0  0  0  0  0  0  0  0  0  0  0
  184.4120  179.1170  139.9860 C   0  0  0  0  0  0  0  0  0  0  0  0
  185.0780  178.3790  141.9470 C   0  0  0  0  0  0  0  0  0  0  0  0
  187.4320  178.2920  141.5180 C   0  0  0  0  0  0  0  0  0  0  0  0
  183.9620  178.7260  141.2340 C   0  0  0  0  0  0  0  0  0  0  0  0
  182.6140  178.7230  141.5700 C   0  0  0  0  0  3  0  0  0  0  0  0
  186.1420  178.5790  141.0850 C   0  0  0  0  0  0  0  0  0  0  0  0
  182.1540  179.5330  139.3050 C   0  0  0  0  0  3  0  0  0  0  0  0
  189.6490  177.2460  144.1830 C   0  0  0  0  0  0  0  0  0  0  0  0
  190.9460  176.9320  146.6420 C   0  0  0  0  0  0  0  0  0  0  0  0
  191.6160  176.6160  145.4500 C   0  0  0  0  0  3  0  0  0  0  0  0
  190.9690  176.7750  144.2240 C   0  0  0  0  0  3  0  0  0  0  0  0
  188.9840  177.5680  145.3740 C   0  0  0  0  0  3  0  0  0  0  0  0
  189.6330  177.4120  146.5990 C   0  0  0  0  0  3  0  0  0  0  0  0
  191.6450  176.7900  147.9500 C   0  0  0  0  0  2  0  0  0  0  0  0
  192.7350  175.8300  147.8350 N   0  0  0  0  0  1  0  0  0  0  0  0
  188.9930  178.9810  138.4880 C   0  0  0  0  0  2  0  0  0  0  0  0
  189.0570  178.4900  137.0510 C   0  0  0  0  0  2  0  0  0  0  0  0
  187.0460  178.3190  135.7610 O   0  0  0  0  0  1  0  0  0  0  0  0
  187.8320  177.6520  136.7050 C   0  0  1  0  0  3  0  0  0  0  0  0
  188.2360  176.2900  136.1560 C   0  0  0  0  0  2  0  0  0  0  0  0
  189.5650  176.3410  135.5640 N   0  0  0  0  0  2  0  0  0  0  0  0
  194.3080  175.6790  138.5290 O   0  0  0  0  0  1  0  0  0  0  0  0
  192.7960  173.7290  135.9810 C   0  0  1  0  0  3  0  0  0  0  0  0
  194.9260  173.9290  137.0120 C   0  0  0  0  0  2  0  0  0  0  0  0
  190.4310  174.0570  135.3520 C   0  0  0  0  0  2  0  0  0  0  0  0
  192.7000  174.8310  136.9930 C   0  0  2  0  0  3  0  0  0  0  0  0
  193.9460  172.8930  136.4720 C   0  0  0  0  0  2  0  0  0  0  0  0
  190.3980  175.3390  136.2120 C   0  0  1  0  0  3  0  0  0  0  0  0
  191.4500  173.0320  135.8840 C   0  0  0  0  0  2  0  0  0  0  0  0
  191.8060  175.9240  136.4350 C   0  0  0  0  0  2  0  0  0  0  0  0
  194.1420  175.2250  137.2190 C   0  0  1  0  0  3  0  0  0  0  0  0
  1 19  2  0  0  0  0
  1 13  1  0  0  0  0
  2  3  1  6  0  0  0
  2  9  1  0  0  0  0
  4  7  1  0  0  0  0
  5 13  1  0  0  0  0
  5 18  2  0  0  0  0
  6  3  1  0  0  0  0
  8 15  1  0  0  0  0
  8  2  1  0  0  0  0
  9 20  1  0  0  0  0
 10 17  2  0  0  0  0
 11 28  1  6  0  0  0
 11  6  1  0  0  0  0
 11  8  1  0  0  0  0
 12  9  1  0  0  0  0
 12  7  1  0  0  0  0
 13 16  2  0  0  0  0
 14  4  2  0  0  0  0
 15 12  2  0  0  0  0
 16 17  1  0  0  0  0
 16 14  1  0  0  0  0
 18 15  1  0  0  0  0
 18 14  1  0  0  0  0
 19 10  1  0  0  0  0
 20 23  2  0  0  0  0
 20 24  1  0  0  0  0
 21 26  1  0  0  0  0
 22 21  2  0  0  0  0
 23 22  1  0  0  0  0
 24 25  2  0  0  0  0
 25 21  1  0  0  0  0
 27 26  1  0  0  0  0
 29 28  1  0  0  0  0
 31 30  1  6  0  0  0
 31 29  1  0  0  0  0
 32 31  1  0  0  0  0
 33 32  1  0  0  0  0
 35 41  1  1  0  0  0
 35 39  1  0  0  0  0
 35 38  1  0  0  0  0
 36 43  1  0  0  0  0
 37 41  1  0  0  0  0
 37 40  1  0  0  0  0
 38 42  1  6  0  0  0
 38 43  1  0  0  0  0
 39 36  1  0  0  0  0
 40 33  1  6  0  0  0
 40 42  1  0  0  0  0
 43 34  1  1  0  0  0
M  END
>  <MODEL>
3

>  <REMARK>
 VINA RESULT:      -9.5      2.735      5.179
  Name = 
  8 active torsions:
  status: ('A' for Active; 'I' for Inactive)
    1  A    between atoms: C_3  and  C_12
    2  A    between atoms: C_5  and  N_26
    3  A    between atoms: C_9  and  C_10
    4  A    between atoms: C_9  and  C_39
    5  A    between atoms: C_10  and  C_24
    6  A    between atoms: N_18  and  C_19
    7  A    between atoms: N_18  and  C_39
    8  A    between atoms: C_24  and  C_28
                            x       y       z     vdW  Elec       q    Type
                         _______ _______ _______ _____ _____    ______ ____

>  <TORSDO>
F 8

$$$$
=
 OpenBabel10232409023D

 43 50  0  0  1  0  0  0  0  0999 V2000
  191.9290  176.1170  145.5950 C   0  0  0  0  0  3  0  0  0  0  0  0
  186.6290  177.8010  141.4460 C   0  0  1  0  0  3  0  0  0  0  0  0
  187.0010  178.9450  140.5260 C   0  0  0  0  0  2  0  0  0  0  0  0
  187.4200  177.9060  146.0790 C   0  0  0  0  0  3  0  0  0  0  0  0
  190.1000  176.6130  144.0430 N   0  0  0  0  0  0  0  0  0  0  0  0
  188.4370  178.6640  140.0950 C   0  0  0  0  0  2  0  0  0  0  0  0
  186.4300  178.2240  145.1190 C   0  0  0  0  0  3  0  0  0  0  0  0
  187.9050  177.2810  141.9320 N   0  0  0  0  0  0  0  0  0  0  0  0
  185.8980  178.2790  142.6300 N   0  0  0  0  0  0  0  0  0  0  0  0
  191.4230  176.5800  147.9430 C   0  0  0  0  0  3  0  0  0  0  0  0
  189.0300  177.7560  141.1660 C   0  0  1  0  0  3  0  0  0  0  0  0
  186.6900  177.9420  143.7630 C   0  0  0  0  0  0  0  0  0  0  0  0
  190.6420  176.5460  145.2810 C   0  0  0  0  0  0  0  0  0  0  0  0
  188.6190  177.3380  145.6200 C   0  0  0  0  0  0  0  0  0  0  0  0
  187.8650  177.3810  143.3480 C   0  0  0  0  0  0  0  0  0  0  0  0
  189.7730  176.9820  146.2640 C   0  0  0  0  0  0  0  0  0  0  0  0
  190.1270  177.0120  147.6080 C   0  0  0  0  0  3  0  0  0  0  0  0
  188.8590  177.0960  144.2790 C   0  0  0  0  0  0  0  0  0  0  0  0
  192.3150  176.1360  146.9440 C   0  0  0  0  0  2  0  0  0  0  0  0
  184.4860  178.4840  142.6570 C   0  0  0  0  0  0  0  0  0  0  0  0
  181.7220  178.9160  142.7150 C   0  0  0  0  0  0  0  0  0  0  0  0
  182.4770  179.0440  143.8910 C   0  0  0  0  0  3  0  0  0  0  0  0
  183.8550  178.8300  143.8610 C   0  0  0  0  0  3  0  0  0  0  0  0
  183.7320  178.3630  141.4830 C   0  0  0  0  0  3  0  0  0  0  0  0
  182.3540  178.5810  141.5130 C   0  0  0  0  0  3  0  0  0  0  0  0
  180.2540  179.1710  142.7390 C   0  0  0  0  0  2  0  0  0  0  0  0
  179.9960  180.6030  142.8130 N   0  0  0  0  0  1  0  0  0  0  0  0
  189.7540  176.5760  140.5420 C   0  0  0  0  0  2  0  0  0  0  0  0
  190.8700  177.0310  139.6160 C   0  0  0  0  0  2  0  0  0  0  0  0
  191.3260  174.9140  138.5930 O   0  0  0  0  0  1  0  0  0  0  0  0
  190.8810  176.2130  138.3300 C   0  0  1  0  0  3  0  0  0  0  0  0
  189.4930  176.1550  137.7050 C   0  0  0  0  0  2  0  0  0  0  0  0
  189.5490  175.5860  136.3650 N   0  0  0  0  0  2  0  0  0  0  0  0
  183.9280  175.9070  136.1990 O   0  0  0  0  0  1  0  0  0  0  0  0
  186.1400  173.4260  137.4370 C   0  0  1  0  0  3  0  0  0  0  0  0
  183.8490  174.0100  137.6620 C   0  0  0  0  0  2  0  0  0  0  0  0
  188.5230  173.4010  136.7930 C   0  0  0  0  0  2  0  0  0  0  0  0
  185.9110  174.6600  136.6170 C   0  0  2  0  0  3  0  0  0  0  0  0
  184.7730  172.8040  137.5330 C   0  0  0  0  0  2  0  0  0  0  0  0
  188.3470  174.7930  136.1510 C   0  0  1  0  0  3  0  0  0  0  0  0
  187.2170  172.5870  136.7720 C   0  0  0  0  0  2  0  0  0  0  0  0
  187.1360  175.5500  136.7310 C   0  0  0  0  0  2  0  0  0  0  0  0
  184.6380  175.2340  137.1950 C   0  0  1  0  0  3  0  0  0  0  0  0
  1 19  1  0  0  0  0
  2  3  1  6  0  0  0
  2  8  1  0  0  0  0
  2  9  1  0  0  0  0
  5 18  2  0  0  0  0
  5 13  1  0  0  0  0
  6  3  1  0  0  0  0
  6 11  1  0  0  0  0
  7  4  2  0  0  0  0
  8 15  1  0  0  0  0
  9 20  1  0  0  0  0
  9 12  1  0  0  0  0
 11 28  1  6  0  0  0
 11  8  1  0  0  0  0
 12  7  1  0  0  0  0
 13  1  2  0  0  0  0
 13 16  1  0  0  0  0
 14  4  1  0  0  0  0
 14 16  2  0  0  0  0
 15 12  2  0  0  0  0
 15 18  1  0  0  0  0
 16 17  1  0  0  0  0
 17 10  2  0  0  0  0
 18 14  1  0  0  0  0
 19 10  1  0  0  0  0
 20 23  1  0  0  0  0
 21 26  1  0  0  0  0
 21 22  1  0  0  0  0
 23 22  2  0  0  0  0
 24 25  1  0  0  0  0
 24 20  2  0  0  0  0
 25 21  2  0  0  0  0
 26 27  1  0  0  0  0
 29 28  1  0  0  0  0
 31 30  1  1  0  0  0
 31 29  1  0  0  0  0
 32 31  1  0  0  0  0
 33 32  1  0  0  0  0
 35 41  1  6  0  0  0
 35 39  1  0  0  0  0
 38 42  1  1  0  0  0
 38 43  1  0  0  0  0
 38 35  1  0  0  0  0
 39 36  1  0  0  0  0
 40 33  1  1  0  0  0
 40 42  1  0  0  0  0
 40 37  1  0  0  0  0
 41 37  1  0  0  0  0
 43 34  1  6  0  0  0
 43 36  1  0  0  0  0
M  END
>  <MODEL>
4

>  <REMARK>
 VINA RESULT:      -8.9      2.476      6.704
  Name = 
  8 active torsions:
  status: ('A' for Active; 'I' for Inactive)
    1  A    between atoms: C_3  and  C_12
    2  A    between atoms: C_5  and  N_26
    3  A    between atoms: C_9  and  C_10
    4  A    between atoms: C_9  and  C_39
    5  A    between atoms: C_10  and  C_24
    6  A    between atoms: N_18  and  C_19
    7  A    between atoms: N_18  and  C_39
    8  A    between atoms: C_24  and  C_28
                            x       y       z     vdW  Elec       q    Type
                         _______ _______ _______ _____ _____    ______ ____

>  <TORSDO>
F 8

$$$$
=
 OpenBabel10232409023D

 43 50  0  0  1  0  0  0  0  0999 V2000
  184.4640  179.0640  144.5700 C   0  0  0  0  0  3  0  0  0  0  0  0
  187.6420  177.9590  138.5020 C   0  0  1  0  0  3  0  0  0  0  0  0
  186.8130  177.0570  137.6110 C   0  0  0  0  0  2  0  0  0  0  0  0
  188.5600  176.9390  142.9980 C   0  0  0  0  0  3  0  0  0  0  0  0
  185.5290  178.7910  142.3810 N   0  0  0  0  0  0  0  0  0  0  0  0
  185.3710  177.5100  137.8110 C   0  0  0  0  0  2  0  0  0  0  0  0
  189.0870  176.7670  141.6970 C   0  0  0  0  0  3  0  0  0  0  0  0
  186.7080  178.4440  139.5160 N   0  0  0  0  0  0  0  0  0  0  0  0
  188.6770  177.2000  139.2210 N   0  0  0  0  0  0  0  0  0  0  0  0
  185.7120  178.0910  146.4350 C   0  0  0  0  0  3  0  0  0  0  0  0
  185.3300  178.2090  139.1640 C   0  0  1  0  0  3  0  0  0  0  0  0
  188.3980  177.3410  140.6090 C   0  0  0  0  0  0  0  0  0  0  0  0
  185.4820  178.6320  143.7230 C   0  0  0  0  0  0  0  0  0  0  0  0
  187.3650  177.6630  143.1310 C   0  0  0  0  0  0  0  0  0  0  0  0
  187.2400  178.0480  140.7720 C   0  0  0  0  0  0  0  0  0  0  0  0
  186.5790  177.9480  144.2150 C   0  0  0  0  0  0  0  0  0  0  0  0
  186.7300  177.6600  145.5670 C   0  0  0  0  0  3  0  0  0  0  0  0
  186.6950  178.1930  142.0430 C   0  0  0  0  0  0  0  0  0  0  0  0
  184.5890  178.7880  145.9400 C   0  0  0  0  0  2  0  0  0  0  0  0
  189.9640  176.9070  138.6760 C   0  0  0  0  0  0  0  0  0  0  0  0
  192.4840  176.3580  137.5910 C   0  0  0  0  0  0  0  0  0  0  0  0
  191.3300  176.1800  136.8120 C   0  0  0  0  0  3  0  0  0  0  0  0
  190.0740  176.4550  137.3530 C   0  0  0  0  0  3  0  0  0  0  0  0
  191.1170  177.0920  139.4500 C   0  0  0  0  0  3  0  0  0  0  0  0
  192.3730  176.8190  138.9070 C   0  0  0  0  0  3  0  0  0  0  0  0
  193.8280  176.0910  137.0060 C   0  0  0  0  0  2  0  0  0  0  0  0
  194.6810  175.4360  137.9880 N   0  0  0  0  0  1  0  0  0  0  0  0
  184.5970  179.5360  139.0710 C   0  0  0  0  0  2  0  0  0  0  0  0
  183.3210  179.5290  139.8980 C   0  0  0  0  0  2  0  0  0  0  0  0
  181.5510  178.0850  140.6180 O   0  0  0  0  0  1  0  0  0  0  0  0
  182.4840  178.2910  139.5970 C   0  0  1  0  0  3  0  0  0  0  0  0
  181.7550  178.4310  138.2670 C   0  0  0  0  0  2  0  0  0  0  0  0
  180.7670  179.4990  138.3240 N   0  0  0  0  0  2  0  0  0  0  0  0
  182.6060  184.7890  137.7210 O   0  0  0  0  0  1  0  0  0  0  0  0
  180.2130  182.8760  135.9320 C   0  0  1  0  0  3  0  0  0  0  0  0
  180.8040  185.1620  136.1850 C   0  0  0  0  0  2  0  0  0  0  0  0
  180.1230  180.4180  136.1440 C   0  0  0  0  0  2  0  0  0  0  0  0
  181.3430  182.9390  136.9150 C   0  0  2  0  0  3  0  0  0  0  0  0
  180.3610  184.1460  135.1380 C   0  0  0  0  0  2  0  0  0  0  0  0
  181.1130  180.5010  137.3260 C   0  0  1  0  0  3  0  0  0  0  0  0
  180.3140  181.5780  135.1500 C   0  0  0  0  0  2  0  0  0  0  0  0
  181.1090  181.8920  137.9890 C   0  0  0  0  0  2  0  0  0  0  0  0
  181.3140  184.3740  137.3910 C   0  0  1  0  0  3  0  0  0  0  0  0
  1 19  1  0  0  0  0
  2  3  1  6  0  0  0
  2  9  1  0  0  0  0
  2  8  1  0  0  0  0
  3  6  1  0  0  0  0
  4 14  1  0  0  0  0
  5 13  1  0  0  0  0
  6 11  1  0  0  0  0
  7  4  2  0  0  0  0
  8 15  1  0  0  0  0
  9 12  1  0  0  0  0
 11 28  1  6  0  0  0
 11  8  1  0  0  0  0
 12 15  2  0  0  0  0
 12  7  1  0  0  0  0
 13 16  1  0  0  0  0
 13  1  2  0  0  0  0
 14 16  2  0  0  0  0
 15 18  1  0  0  0  0
 16 17  1  0  0  0  0
 17 10  2  0  0  0  0
 18  5  2  0  0  0  0
 18 14  1  0  0  0  0
 19 10  1  0  0  0  0
 20  9  1  0  0  0  0
 20 24  1  0  0  0  0
 21 25  1  0  0  0  0
 22 23  1  0  0  0  0
 22 21  2  0  0  0  0
 23 20  2  0  0  0  0
 25 24  2  0  0  0  0
 26 21  1  0  0  0  0
 26 27  1  0  0  0  0
 28 29  1  0  0  0  0
 31 29  1  0  0  0  0
 31 30  1  1  0  0  0
 32 33  1  0  0  0  0
 32 31  1  0  0  0  0
 35 39  1  6  0  0  0
 35 38  1  0  0  0  0
 36 43  1  0  0  0  0
 37 40  1  0  0  0  0
 38 43  1  0  0  0  0
 38 42  1  1  0  0  0
 39 36  1  0  0  0  0
 40 42  1  0  0  0  0
 40 33  1  1  0  0  0
 41 35  1  0  0  0  0
 41 37  1  0  0  0  0
 43 34  1  6  0  0  0
M  END
>  <MODEL>
5

>  <REMARK>
 VINA RESULT:      -8.5      3.261      6.264
  Name = 
  8 active torsions:
  status: ('A' for Active; 'I' for Inactive)
    1  A    between atoms: C_3  and  C_12
    2  A    between atoms: C_5  and  N_26
    3  A    between atoms: C_9  and  C_10
    4  A    between atoms: C_9  and  C_39
    5  A    between atoms: C_10  and  C_24
    6  A    between atoms: N_18  and  C_19
    7  A    between atoms: N_18  and  C_39
    8  A    between atoms: C_24  and  C_28
                            x       y       z     vdW  Elec       q    Type
                         _______ _______ _______ _____ _____    ______ ____

>  <TORSDO>
F 8

$$$$
=
 OpenBabel10232409023D

 43 50  0  0  1  0  0  0  0  0999 V2000
  182.4510  172.9260  136.9700 C   0  0  0  0  0  3  0  0  0  0  0  0
  188.2270  176.7560  137.3020 C   0  0  1  0  0  3  0  0  0  0  0  0
  188.1580  177.9270  136.3450 C   0  0  0  0  0  2  0  0  0  0  0  0
  187.1950  172.3550  136.0090 C   0  0  0  0  0  3  0  0  0  0  0  0
  184.4340  174.3470  137.1930 N   0  0  0  0  0  0  0  0  0  0  0  0
  186.7240  178.4380  136.4370 C   0  0  0  0  0  2  0  0  0  0  0  0
  188.2860  173.2500  136.1090 C   0  0  0  0  0  3  0  0  0  0  0  0
  186.8430  176.3080  137.4470 N   0  0  0  0  0  0  0  0  0  0  0  0
  188.9680  175.6270  136.7180 N   0  0  0  0  0  0  0  0  0  0  0  0
  182.8990  170.6860  136.0960 C   0  0  0  0  0  3  0  0  0  0  0  0
  185.8900  177.2700  136.9510 C   0  0  1  0  0  3  0  0  0  0  0  0
  188.0560  174.5380  136.6340 C   0  0  0  0  0  0  0  0  0  0  0  0
  183.8160  173.1860  136.8760 C   0  0  0  0  0  0  0  0  0  0  0  0
  185.9350  172.8080  136.4270 C   0  0  0  0  0  0  0  0  0  0  0  0
  186.8170  174.9480  137.0400 C   0  0  0  0  0  0  0  0  0  0  0  0
  184.6950  172.2290  136.4030 C   0  0  0  0  0  0  0  0  0  0  0  0
  184.2740  170.9650  136.0050 C   0  0  0  0  0  3  0  0  0  0  0  0
  185.7320  174.0880  136.9140 C   0  0  1  0  0  3  0  0  0  0  0  0
  181.9960  171.6580  136.5750 C   0  0  0  0  0  3  0  0  0  0  0  0
  190.3880  175.4940  136.7840 C   0  0  0  0  0  0  0  0  0  0  0  0
  193.1680  175.2070  136.9270 C   0  0  0  0  0  0  0  0  0  0  0  0
  192.4200  175.3900  138.1000 C   0  0  0  0  0  3  0  0  0  0  0  0
  191.0340  175.5320  138.0290 C   0  0  0  0  0  3  0  0  0  0  0  0
  191.1350  175.3040  135.6140 C   0  0  0  0  0  3  0  0  0  0  0  0
  192.5210  175.1590  135.6870 C   0  0  0  0  0  3  0  0  0  0  0  0
  194.6440  175.0270  137.0040 C   0  0  0  0  0  2  0  0  0  0  0  0
  195.0930  175.1500  138.3850 N   0  0  0  0  0  1  0  0  0  0  0  0
  184.9760  177.7070  138.0820 C   0  0  0  0  0  2  0  0  0  0  0  0
  185.5600  178.8800  138.8510 C   0  0  0  0  0  2  0  0  0  0  0  0
  187.5430  178.7550  140.1890 O   0  0  0  0  0  1  0  0  0  0  0  0
  186.1870  178.4160  140.1610 C   0  0  1  0  0  3  0  0  0  0  0  0
  185.4840  179.0420  141.3580 C   0  0  0  0  0  2  0  0  0  0  0  0
  185.2480  178.0530  142.4000 N   0  0  0  0  0  2  0  0  0  0  0  0
  190.1200  177.4310  145.1580 O   0  0  0  0  0  1  0  0  0  0  0  0
  186.7630  177.6930  146.2740 C   0  0  1  0  0  3  0  0  0  0  0  0
  188.8540  176.9770  147.1420 C   0  0  0  0  0  2  0  0  0  0  0  0
  184.9830  178.5400  144.7880 C   0  0  0  0  0  2  0  0  0  0  0  0
  187.7750  177.8400  145.1790 C   0  0  2  0  0  3  0  0  0  0  0  0
  187.5890  177.7350  147.5310 C   0  0  0  0  0  2  0  0  0  0  0  0
  185.9640  178.4650  143.5990 C   0  0  1  0  0  3  0  0  0  0  0  0
  185.7120  178.7790  146.1230 C   0  0  0  0  0  2  0  0  0  0  0  0
  187.1170  177.4770  143.8600 C   0  0  0  0  0  2  0  0  0  0  0  0
  188.9000  176.9290  145.6150 C   0  0  1  0  0  3  0  0  0  0  0  0
  2  3  1  6  0  0  0
  2  8  1  0  0  0  0
  3  6  1  0  0  0  0
  4  7  2  0  0  0  0
  4 14  1  0  0  0  0
  6 11  1  0  0  0  0
  7 12  1  0  0  0  0
  9 20  1  0  0  0  0
  9  2  1  0  0  0  0
 10 19  1  0  0  0  0
 11  8  1  0  0  0  0
 11 28  1  1  0  0  0
 12  9  1  0  0  0  0
 12 15  2  0  0  0  0
 13  1  1  0  0  0  0
 13  5  2  0  0  0  0
 15  8  1  0  0  0  0
 16 14  2  0  0  0  0
 16 13  1  0  0  0  0
 17 10  2  0  0  0  0
 17 16  1  0  0  0  0
 18 14  1  6  0  0  0
 18 15  1  0  0  0  0
 18  5  1  0  0  0  0
 19  1  2  0  0  0  0
 20 23  1  0  0  0  0
 21 26  1  0  0  0  0
 21 22  1  0  0  0  0
 23 22  2  0  0  0  0
 24 25  1  0  0  0  0
 24 20  2  0  0  0  0
 25 21  2  0  0  0  0
 26 27  1  0  0  0  0
 28 29  1  0  0  0  0
 29 31  1  0  0  0  0
 31 30  1  6  0  0  0
 31 32  1  0  0  0  0
 32 33  1  0  0  0  0
 35 41  1  1  0  0  0
 35 39  1  0  0  0  0
 36 39  1  0  0  0  0
 37 41  1  0  0  0  0
 38 42  1  6  0  0  0
 38 43  1  0  0  0  0
 38 35  1  0  0  0  0
 40 33  1  6  0  0  0
 40 42  1  0  0  0  0
 40 37  1  0  0  0  0
 43 34  1  6  0  0  0
 43 36  1  0  0  0  0
M  END
>  <MODEL>
6

>  <REMARK>
 VINA RESULT:      -8.5      3.510      8.139
  Name = 
  8 active torsions:
  status: ('A' for Active; 'I' for Inactive)
    1  A    between atoms: C_3  and  C_12
    2  A    between atoms: C_5  and  N_26
    3  A    between atoms: C_9  and  C_10
    4  A    between atoms: C_9  and  C_39
    5  A    between atoms: C_10  and  C_24
    6  A    between atoms: N_18  and  C_19
    7  A    between atoms: N_18  and  C_39
    8  A    between atoms: C_24  and  C_28
                            x       y       z     vdW  Elec       q    Type
                         _______ _______ _______ _____ _____    ______ ____

>  <TORSDO>
F 8

$$$$
=
 OpenBabel10232409023D

 43 50  0  0  1  0  0  0  0  0999 V2000
  184.4000  179.0880  144.6970 C   0  0  0  0  0  3  0  0  0  0  0  0
  187.6490  178.0780  138.6510 C   0  0  1  0  0  3  0  0  0  0  0  0
  186.8240  177.2040  137.7300 C   0  0  0  0  0  2  0  0  0  0  0  0
  188.4950  176.9550  143.1370 C   0  0  0  0  0  3  0  0  0  0  0  0
  185.4920  178.8500  142.5170 N   0  0  0  0  0  0  0  0  0  0  0  0
  185.3830  177.6670  137.9200 C   0  0  0  0  0  2  0  0  0  0  0  0
  189.0380  176.8050  141.8390 C   0  0  0  0  0  3  0  0  0  0  0  0
  186.7060  178.5510  139.6620 N   0  0  0  0  0  0  0  0  0  0  0  0
  188.6670  177.2940  139.3680 N   0  0  0  0  0  0  0  0  0  0  0  0
  185.6120  178.0640  146.5590 C   0  0  0  0  0  3  0  0  0  0  0  0
  185.3310  178.3380  139.2870 C   0  0  1  0  0  3  0  0  0  0  0  0
  188.3700  177.4090  140.7540 C   0  0  0  0  0  0  0  0  0  0  0  0
  185.4250  178.6640  143.8560 C   0  0  0  0  0  0  0  0  0  0  0  0
  187.3060  177.6880  143.2690 C   0  0  0  0  0  0  0  0  0  0  0  0
  187.2170  178.1230  140.9170 C   0  0  0  0  0  0  0  0  0  0  0  0
  186.5080  177.9580  144.3480 C   0  0  0  0  0  0  0  0  0  0  0  0
  186.6380  177.6400  145.6950 C   0  0  0  0  0  3  0  0  0  0  0  0
  186.6560  178.2480  142.1830 C   0  0  0  0  0  0  0  0  0  0  0  0
  184.5030  178.7830  146.0630 C   0  0  0  0  0  2  0  0  0  0  0  0
  189.9580  176.9990  138.8340 C   0  0  0  0  0  0  0  0  0  0  0  0
  192.4910  176.3970  137.8090 C   0  0  0  0  0  0  0  0  0  0  0  0
  192.3660  176.9280  139.1010 C   0  0  0  0  0  3  0  0  0  0  0  0
  191.1020  177.2270  139.6130 C   0  0  0  0  0  3  0  0  0  0  0  0
  190.0840  176.4610  137.5470 C   0  0  0  0  0  3  0  0  0  0  0  0
  191.3480  176.1600  137.0370 C   0  0  0  0  0  3  0  0  0  0  0  0
  193.8360  176.0510  137.2710 C   0  0  0  0  0  2  0  0  0  0  0  0
  194.6060  175.3260  138.2740 N   0  0  0  0  0  1  0  0  0  0  0  0
  184.6120  179.6740  139.2120 C   0  0  0  0  0  2  0  0  0  0  0  0
  183.1150  179.4930  139.0260 C   0  0  0  0  0  2  0  0  0  0  0  0
  182.3150  179.1630  141.2600 O   0  0  0  0  0  1  0  0  0  0  0  0
  182.5530  178.5100  140.0470 C   0  0  1  0  0  3  0  0  0  0  0  0
  181.2580  177.8820  139.5480 C   0  0  0  0  0  2  0  0  0  0  0  0
  181.1780  176.4790  139.9310 N   0  0  0  0  0  2  0  0  0  0  0  0
  184.8730  172.7820  137.8340 O   0  0  0  0  0  1  0  0  0  0  0  0
  183.0570  175.4440  136.3500 C   0  0  1  0  0  3  0  0  0  0  0  0
  184.9480  174.1030  135.8350 C   0  0  0  0  0  2  0  0  0  0  0  0
  181.1070  176.4490  137.4810 C   0  0  0  0  0  2  0  0  0  0  0  0
  183.2710  174.5110  137.5030 C   0  0  2  0  0  3  0  0  0  0  0  0
  183.7200  174.7410  135.1960 C   0  0  0  0  0  2  0  0  0  0  0  0
  181.4660  175.6640  138.7610 C   0  0  1  0  0  3  0  0  0  0  0  0
  181.5710  175.7190  136.2070 C   0  0  0  0  0  2  0  0  0  0  0  0
  182.9500  175.2510  138.7900 C   0  0  0  0  0  2  0  0  0  0  0  0
  184.7110  174.0800  137.3450 C   0  0  1  0  0  3  0  0  0  0  0  0
  1 19  1  0  0  0  0
  2  3  1  6  0  0  0
  2  9  1  0  0  0  0
  2  8  1  0  0  0  0
  3  6  1  0  0  0  0
  4 14  1  0  0  0  0
  5 13  1  0  0  0  0
  6 11  1  0  0  0  0
  7  4  2  0  0  0  0
  8 15  1  0  0  0  0
  9 12  1  0  0  0  0
 11 28  1  6  0  0  0
 11  8  1  0  0  0  0
 12 15  2  0  0  0  0
 12  7  1  0  0  0  0
 13 16  1  0  0  0  0
 13  1  2  0  0  0  0
 14 16  2  0  0  0  0
 15 18  1  0  0  0  0
 16 17  1  0  0  0  0
 17 10  2  0  0  0  0
 18  5  2  0  0  0  0
 18 14  1  0  0  0  0
 19 10  1  0  0  0  0
 20  9  1  0  0  0  0
 20 23  1  0  0  0  0
 21 22  1  0  0  0  0
 22 23  2  0  0  0  0
 24 20  2  0  0  0  0
 25 24  1  0  0  0  0
 25 21  2  0  0  0  0
 26 21  1  0  0  0  0
 26 27  1  0  0  0  0
 29 28  1  0  0  0  0
 29 31  1  0  0  0  0
 31 30  1  1  0  0  0
 32 33  1  0  0  0  0
 32 31  1  0  0  0  0
 35 39  1  6  0  0  0
 35 38  1  0  0  0  0
 36 43  1  0  0  0  0
 37 40  1  0  0  0  0
 38 42  1  1  0  0  0
 39 36  1  0  0  0  0
 40 42  1  0  0  0  0
 40 33  1  1  0  0  0
 41 35  1  0  0  0  0
 41 37  1  0  0  0  0
 43 38  1  0  0  0  0
 43 34  1  6  0  0  0
M  END
>  <MODEL>
7

>  <REMARK>
 VINA RESULT:      -8.3      2.817      5.378
  Name = 
  8 active torsions:
  status: ('A' for Active; 'I' for Inactive)
    1  A    between atoms: C_3  and  C_12
    2  A    between atoms: C_5  and  N_26
    3  A    between atoms: C_9  and  C_10
    4  A    between atoms: C_9  and  C_39
    5  A    between atoms: C_10  and  C_24
    6  A    between atoms: N_18  and  C_19
    7  A    between atoms: N_18  and  C_39
    8  A    between atoms: C_24  and  C_28
                            x       y       z     vdW  Elec       q    Type
                         _______ _______ _______ _____ _____    ______ ____

>  <TORSDO>
F 8

$$$$
=
 OpenBabel10232409023D

 43 50  0  0  1  0  0  0  0  0999 V2000
  185.5310  178.7970  140.5670 C   0  0  0  0  0  3  0  0  0  0  0  0
  191.8940  176.2470  139.4900 C   0  0  1  0  0  3  0  0  0  0  0  0
  192.9540  177.2850  139.7930 C   0  0  0  0  0  2  0  0  0  0  0  0
  188.1470  177.1500  136.7980 C   0  0  0  0  0  3  0  0  0  0  0  0
  187.7750  177.8460  140.3150 N   0  0  0  0  0  0  0  0  0  0  0  0
  192.4650  178.0070  141.0440 C   0  0  0  0  0  2  0  0  0  0  0  0
  189.4740  176.6640  136.7180 C   0  0  0  0  0  3  0  0  0  0  0  0
  190.6860  176.7430  140.1460 N   0  0  0  0  0  0  0  0  0  0  0  0
  191.5910  176.1900  138.0520 N   0  0  0  0  0  0  0  0  0  0  0  0
  184.2550  178.9530  138.4860 C   0  0  0  0  0  3  0  0  0  0  0  0
  190.9560  177.7960  141.0920 C   0  0  1  0  0  3  0  0  0  0  0  0
  190.2190  176.5410  137.9080 C   0  0  0  0  0  0  0  0  0  0  0  0
  186.5730  178.2360  139.8320 C   0  0  0  0  0  0  0  0  0  0  0  0
  187.6510  177.4970  138.0640 C   0  0  0  0  0  0  0  0  0  0  0  0
  189.7050  176.8810  139.1280 C   0  0  0  0  0  0  0  0  0  0  0  0
  186.4620  178.0440  138.4670 C   0  0  0  0  0  0  0  0  0  0  0  0
  185.3170  178.3880  137.7580 C   0  0  0  0  0  3  0  0  0  0  0  0
  188.4140  177.3920  139.2130 C   0  0  0  0  0  0  0  0  0  0  0  0
  184.3620  179.1550  139.8790 C   0  0  0  0  0  2  0  0  0  0  0  0
  192.3300  175.4030  137.1180 C   0  0  0  0  0  0  0  0  0  0  0  0
  193.8030  173.8600  135.3080 C   0  0  0  0  0  0  0  0  0  0  0  0
  194.1070  175.2190  135.4810 C   0  0  0  0  0  3  0  0  0  0  0  0
  193.3720  175.9880  136.3850 C   0  0  0  0  0  3  0  0  0  0  0  0
  192.0340  174.0440  136.9510 C   0  0  0  0  0  3  0  0  0  0  0  0
  192.7700  173.2750  136.0490 C   0  0  0  0  0  3  0  0  0  0  0  0
  194.6040  173.0310  134.3640 C   0  0  0  0  0  2  0  0  0  0  0  0
  194.4020  171.6150  134.6440 N   0  0  0  0  0  1  0  0  0  0  0  0
  190.5080  177.3630  142.4770 C   0  0  0  0  0  2  0  0  0  0  0  0
  191.6940  177.0580  143.3770 C   0  0  0  0  0  2  0  0  0  0  0  0
  192.1410  174.8180  144.0970 O   0  0  0  0  0  1  0  0  0  0  0  0
  191.3590  175.9450  144.3640 C   0  0  1  0  0  3  0  0  0  0  0  0
  191.5940  176.3960  145.8000 C   0  0  0  0  0  2  0  0  0  0  0  0
  190.8800  177.6340  146.0810 N   0  0  0  0  0  2  0  0  0  0  0  0
  185.7680  177.6440  143.7170 O   0  0  0  0  0  1  0  0  0  0  0  0
  186.8790  178.3960  147.0000 C   0  0  1  0  0  3  0  0  0  0  0  0
  184.9470  178.7650  145.6700 C   0  0  0  0  0  2  0  0  0  0  0  0
  189.1170  177.7060  147.7830 C   0  0  0  0  0  2  0  0  0  0  0  0
  187.1460  177.8020  145.6500 C   0  0  2  0  0  3  0  0  0  0  0  0
  185.3770  178.4140  147.0900 C   0  0  0  0  0  2  0  0  0  0  0  0
  189.4830  177.3130  146.3360 C   0  0  1  0  0  3  0  0  0  0  0  0
  187.6060  177.5750  148.0510 C   0  0  0  0  0  2  0  0  0  0  0  0
  188.6040  178.0390  145.2980 C   0  0  0  0  0  2  0  0  0  0  0  0
  186.1430  178.4960  144.7570 C   0  0  1  0  0  3  0  0  0  0  0  0
  2  3  1  6  0  0  0
  2  8  1  0  0  0  0
  3  6  1  0  0  0  0
  4 14  1  0  0  0  0
  6 11  1  0  0  0  0
  7  4  2  0  0  0  0
  7 12  1  0  0  0  0
  8 11  1  0  0  0  0
  9  2  1  0  0  0  0
 10 19  1  0  0  0  0
 11 28  1  1  0  0  0
 12  9  1  0  0  0  0
 12 15  2  0  0  0  0
 13  5  1  0  0  0  0
 13  1  2  0  0  0  0
 14 16  2  0  0  0  0
 14 18  1  0  0  0  0
 15 18  1  0  0  0  0
 15  8  1  0  0  0  0
 16 13  1  0  0  0  0
 17 16  1  0  0  0  0
 17 10  2  0  0  0  0
 18  5  2  0  0  0  0
 19  1  1  0  0  0  0
 20  9  1  0  0  0  0
 21 22  2  0  0  0  0
 21 25  1  0  0  0  0
 22 23  1  0  0  0  0
 23 20  2  0  0  0  0
 24 20  1  0  0  0  0
 25 24  2  0  0  0  0
 26 27  1  0  0  0  0
 26 21  1  0  0  0  0
 28 29  1  0  0  0  0
 29 31  1  0  0  0  0
 31 30  1  6  0  0  0
 31 32  1  0  0  0  0
 32 33  1  0  0  0  0
 35 39  1  1  0  0  0
 35 41  1  0  0  0  0
 36 39  1  0  0  0  0
 37 41  1  0  0  0  0
 38 42  1  6  0  0  0
 38 35  1  0  0  0  0
 40 33  1  6  0  0  0
 40 37  1  0  0  0  0
 42 40  1  0  0  0  0
 43 34  1  6  0  0  0
 43 38  1  0  0  0  0
 43 36  1  0  0  0  0
M  END
>  <MODEL>
8

>  <REMARK>
 VINA RESULT:      -8.2      3.672      8.349
  Name = 
  8 active torsions:
  status: ('A' for Active; 'I' for Inactive)
    1  A    between atoms: C_3  and  C_12
    2  A    between atoms: C_5  and  N_26
    3  A    between atoms: C_9  and  C_10
    4  A    between atoms: C_9  and  C_39
    5  A    between atoms: C_10  and  C_24
    6  A    between atoms: N_18  and  C_19
    7  A    between atoms: N_18  and  C_39
    8  A    between atoms: C_24  and  C_28
                            x       y       z     vdW  Elec       q    Type
                         _______ _______ _______ _____ _____    ______ ____

>  <TORSDO>
F 8

$$$$
=
 OpenBabel10232409023D

 43 50  0  0  1  0  0  0  0  0999 V2000
  183.4790  179.1590  142.0420 C   0  0  0  0  0  3  0  0  0  0  0  0
  190.0250  177.3880  143.5090 C   0  0  1  0  0  3  0  0  0  0  0  0
  190.4510  176.1740  142.7110 C   0  0  0  0  0  2  0  0  0  0  0  0
  185.9850  177.5620  145.9060 C   0  0  0  0  0  3  0  0  0  0  0  0
  185.8320  178.6250  142.4650 N   0  0  0  0  0  0  0  0  0  0  0  0
  189.8560  176.3760  141.3220 C   0  0  0  0  0  2  0  0  0  0  0  0
  187.3470  177.2160  146.0620 C   0  0  0  0  0  2  0  0  0  0  0  0
  188.8420  177.8950  142.8170 N   0  0  0  0  0  0  0  0  0  0  0  0
  189.5850  177.0150  144.8630 N   0  0  0  0  0  0  0  0  0  0  0  0
  182.0080  178.8700  143.9750 C   0  0  0  0  0  3  0  0  0  0  0  0
  188.6820  177.3320  141.5000 C   0  0  1  0  0  3  0  0  0  0  0  0
  188.2190  177.3980  144.9690 C   0  0  0  0  0  0  0  0  0  0  0  0
  184.5410  178.7550  142.8480 C   0  0  0  0  0  0  0  0  0  0  0  0
  185.5720  178.0570  144.6600 C   0  0  0  0  0  0  0  0  0  0  0  0
  187.7880  177.8900  143.7690 C   0  0  0  0  0  0  0  0  0  0  0  0
  184.3440  178.4150  144.1730 C   0  0  0  0  0  0  0  0  0  0  0  0
  183.0910  178.4620  144.7740 C   0  0  0  0  0  3  0  0  0  0  0  0
  186.4440  178.2010  143.5940 C   0  0  0  0  0  0  0  0  0  0  0  0
  182.2020  179.2160  142.6210 C   0  0  0  0  0  3  0  0  0  0  0  0
  190.4740  176.8610  145.9690 C   0  0  0  0  0  0  0  0  0  0  0  0
  192.1950  176.5440  148.1520 C   0  0  0  0  0  0  0  0  0  0  0  0
  191.1290  177.4540  148.2250 C   0  0  0  0  0  3  0  0  0  0  0  0
  190.2700  177.6100  147.1360 C   0  0  0  0  0  3  0  0  0  0  0  0
  191.5340  175.9470  145.9000 C   0  0  0  0  0  3  0  0  0  0  0  0
  192.3910  175.7890  146.9910 C   0  0  0  0  0  3  0  0  0  0  0  0
  193.0960  176.3550  149.3240 C   0  0  0  0  0  2  0  0  0  0  0  0
  193.5080  177.6490  149.8530 N   0  0  0  0  0  1  0  0  0  0  0  0
  188.7200  178.4430  140.4650 C   0  0  0  0  0  2  0  0  0  0  0  0
  189.4750  178.0170  139.2160 C   0  0  0  0  0  2  0  0  0  0  0  0
  189.3580  179.1760  137.1230 O   0  0  0  0  0  1  0  0  0  0  0  0
  188.6590  178.3020  137.9610 C   0  0  1  0  0  3  0  0  0  0  0  0
  188.3480  177.0170  137.2050 C   0  0  0  0  0  2  0  0  0  0  0  0
  187.0890  177.1300  136.4820 N   0  0  0  0  0  2  0  0  0  0  0  0
  182.2690  174.3770  137.4410 O   0  0  0  0  0  1  0  0  0  0  0  0
  183.2560  177.7350  138.0210 C   0  0  1  0  0  3  0  0  0  0  0  0
  181.2360  176.4930  137.8900 C   0  0  0  0  0  2  0  0  0  0  0  0
  185.6350  178.3920  138.0000 C   0  0  0  0  0  2  0  0  0  0  0  0
  183.6230  176.3190  137.6980 C   0  0  2  0  0  3  0  0  0  0  0  0
  181.9070  177.6120  138.6780 C   0  0  0  0  0  2  0  0  0  0  0  0
  185.9960  177.0010  137.4350 C   0  0  1  0  0  3  0  0  0  0  0  0
  184.3610  178.3500  138.8630 C   0  0  0  0  0  2  0  0  0  0  0  0
  184.7970  176.3310  136.7350 C   0  0  0  0  0  2  0  0  0  0  0  0
  182.3390  175.7400  137.1460 C   0  0  1  0  0  3  0  0  0  0  0  0
  1 19  2  0  0  0  0
  1 13  1  0  0  0  0
  2  3  1  6  0  0  0
  2  9  1  0  0  0  0
  4  7  1  0  0  0  0
  5 13  1  0  0  0  0
  5 18  2  0  0  0  0
  6 11  1  0  0  0  0
  6  3  1  0  0  0  0
  8  2  1  0  0  0  0
  8 15  1  0  0  0  0
  9 12  1  0  0  0  0
  9 20  1  0  0  0  0
 10 17  2  0  0  0  0
 11 28  1  6  0  0  0
 11  8  1  0  0  0  0
 12  7  1  0  0  0  0
 13 16  2  0  0  0  0
 14  4  2  0  0  0  0
 15 12  2  0  0  0  0
 16 14  1  0  0  0  0
 16 17  1  0  0  0  0
 18 15  1  0  0  0  0
 18 14  1  0  0  0  0
 19 10  1  0  0  0  0
 20 23  1  0  0  0  0
 21 22  1  0  0  0  0
 21 26  1  0  0  0  0
 23 22  2  0  0  0  0
 24 20  2  0  0  0  0
 24 25  1  0  0  0  0
 25 21  2  0  0  0  0
 26 27  1  0  0  0  0
 29 28  1  0  0  0  0
 31 30  1  6  0  0  0
 31 29  1  0  0  0  0
 32 31  1  0  0  0  0
 33 32  1  0  0  0  0
 35 39  1  1  0  0  0
 35 41  1  0  0  0  0
 36 39  1  0  0  0  0
 37 41  1  0  0  0  0
 38 42  1  6  0  0  0
 38 35  1  0  0  0  0
 40 33  1  6  0  0  0
 40 37  1  0  0  0  0
 42 40  1  0  0  0  0
 43 34  1  1  0  0  0
 43 38  1  0  0  0  0
 43 36  1  0  0  0  0
M  END
>  <MODEL>
9

>  <REMARK>
 VINA RESULT:      -8.2      1.572      2.372
  Name = 
  8 active torsions:
  status: ('A' for Active; 'I' for Inactive)
    1  A    between atoms: C_3  and  C_12
    2  A    between atoms: C_5  and  N_26
    3  A    between atoms: C_9  and  C_10
    4  A    between atoms: C_9  and  C_39
    5  A    between atoms: C_10  and  C_24
    6  A    between atoms: N_18  and  C_19
    7  A    between atoms: N_18  and  C_39
    8  A    between atoms: C_24  and  C_28
                            x       y       z     vdW  Elec       q    Type
                         _______ _______ _______ _____ _____    ______ ____

>  <TORSDO>
F 8

$$$$
