=
 OpenBabel10232407513D

 61 65  0  0  1  0  0  0  0  0999 V2000
  181.6050  176.2160  138.8540 C   0  0  0  0  0  0  0  0  0  0  0  0
  185.3050  176.4880  137.4050 O   0  0  0  0  0  0  0  0  0  0  0  0
  185.4960  178.6870  138.2160 N   0  0  0  0  0  2  0  0  0  0  0  0
  184.5540  179.4910  140.2520 N   0  0  0  0  0  0  0  0  0  0  0  0
  182.8090  176.8540  138.4930 C   0  0  0  0  0  3  0  0  0  0  0  0
  182.8150  178.0030  140.6180 C   0  0  0  0  0  0  0  0  0  0  0  0
  181.6100  177.4060  140.9970 C   0  0  0  0  0  3  0  0  0  0  0  0
  184.4940  178.6740  139.2440 C   0  0  0  0  0  0  0  0  0  0  0  0
  183.5240  179.1620  141.2410 C   0  0  1  0  0  3  0  0  0  0  0  0
  185.9310  177.5870  137.4030 C   0  0  0  0  0  0  0  0  0  0  0  0
  181.0150  176.4890  140.1110 C   0  0  0  0  0  3  0  0  0  0  0  0
  183.4040  177.7230  139.4100 C   0  0  0  0  0  0  0  0  0  0  0  0
  183.4620  179.0620  143.7690 C   0  0  0  0  0  0  0  0  0  0  0  0
  184.1720  178.8440  142.5730 C   0  0  0  0  0  0  0  0  0  0  0  0
  185.5400  178.5570  142.6460 C   0  0  0  0  0  3  0  0  0  0  0  0
  186.1800  178.5140  143.8880 C   0  0  0  0  0  3  0  0  0  0  0  0
  182.0260  179.4840  143.7480 C   0  0  0  0  0  1  0  0  0  0  0  0
  184.1060  179.0100  144.9690 N   0  0  0  0  0  0  0  0  0  0  0  0
  185.4450  178.7740  145.0450 C   0  0  0  0  0  0  0  0  0  0  0  0
  186.1490  178.8350  146.3630 C   0  0  0  0  0  2  0  0  0  0  0  0
  187.0950  177.7320  146.4830 N   0  0  0  0  0  0  0  0  0  0  0  0
  186.4300  176.6000  146.1420 O   0  0  0  0  0  1  0  0  0  0  0  0
  190.0070  177.1730  145.8100 C   0  0  1  0  0  0  0  0  0  0  0  0
  188.1850  177.9750  145.5330 C   0  0  1  0  0  3  0  0  0  0  0  0
  189.3440  178.3320  146.2580 O   0  0  0  0  0  0  0  0  0  0  0  0
  188.8200  176.6970  145.0100 C   0  0  0  0  0  2  0  0  0  0  0  0
  191.9580  176.4520  144.5890 O   0  0  0  0  0  1  0  0  0  0  0  0
  191.1810  177.5660  144.9170 C   0  0  0  0  0  2  0  0  0  0  0  0
  190.4520  176.2480  146.9500 C   0  0  0  0  0  2  0  0  0  0  0  0
  191.6460  176.7640  147.7600 C   0  0  0  0  0  2  0  0  0  0  0  0
  192.7270  175.7010  147.8670 C   0  0  0  0  0  2  0  0  0  0  0  0
  193.4060  175.8030  149.1510 N   0  0  0  0  0  2  0  0  0  0  0  0
  193.4970  177.1220  149.4350 O   0  0  0  0  0  1  0  0  0  0  0  0
  180.7600  174.0050  138.5700 O   0  0  0  0  0  1  0  0  0  0  0  0
  180.9300  175.2410  137.9350 C   0  0  2  0  0  3  0  0  0  0  0  0
  182.1290  173.9350  136.2850 C   0  0  0  0  0  3  0  0  0  0  0  0
  182.7530  173.5790  134.9750 C   0  0  0  0  0  2  0  0  0  0  0  0
  182.6030  176.5160  134.7460 C   0  0  0  0  0  3  0  0  0  0  0  0
  181.5820  175.1250  136.5700 C   0  0  0  0  0  0  0  0  0  0  0  0
  183.8440  175.7400  134.5490 C   0  0  0  0  0  3  0  0  0  0  0  0
  183.9610  174.4220  134.6920 C   0  0  0  0  0  0  0  0  0  0  0  0
  181.5860  176.2670  135.5960 C   0  0  0  0  0  0  0  0  0  0  0  0
  186.3120  174.4440  134.9540 O   0  0  0  0  0  0  0  0  0  0  0  0
  187.3200  171.9550  135.6960 O   0  0  0  0  0  0  0  0  0  0  0  0
  185.2900  173.8060  134.3460 C   0  0  0  0  0  2  0  0  0  0  0  0
  185.4940  173.2900  137.1840 O   0  0  0  0  0  0  0  0  0  0  0  0
  185.9630  172.9500  135.7870 P   0  0  0  0  0  0  0  0  0  0  0  0
  180.4220  177.9100  134.3460 O   0  0  0  0  0  1  0  0  0  0  0  0
  180.4150  177.2120  135.5540 C   0  0  2  0  0  3  0  0  0  0  0  0
  180.4310  178.1960  136.7180 C   0  0  0  0  0  2  0  0  0  0  0  0
  180.6870  179.6230  136.2520 C   0  0  0  0  0  2  0  0  0  0  0  0
  180.5440  180.2410  138.6730 C   0  0  0  0  0  1  0  0  0  0  0  0
  180.1220  180.6110  137.2610 C   0  0  0  0  0  3  0  0  0  0  0  0
  180.6020  182.0080  136.9420 C   0  0  0  0  0  1  0  0  0  0  0  0
  187.2240  177.6980  136.6550 C   0  0  0  0  0  2  0  0  0  0  0  0
  188.0580  179.9210  136.8780 O   0  0  0  0  0  0  0  0  0  0  0  0
  188.1340  178.7160  137.2590 C   0  0  0  0  0  0  0  0  0  0  0  0
  189.4120  177.0610  138.7630 C   0  0  0  0  0  0  0  0  0  0  0  0
  189.0570  178.3790  138.3130 N   0  0  0  0  0  2  0  0  0  0  0  0
  190.2400  176.9100  139.9920 C   0  0  0  0  0  1  0  0  0  0  0  0
  189.0480  176.0040  138.1150 N   0  0  0  0  0  2  0  0  0  0  0  0
  1 11  1  0  0  0  0
  3  8  1  0  0  0  0
  4  9  1  0  0  0  0
  5  1  2  0  0  0  0
  5 12  1  0  0  0  0
  6  7  1  0  0  0  0
  6  9  1  0  0  0  0
  8 12  1  0  0  0  0
  8  4  2  0  0  0  0
  9 14  1  1  0  0  0
 10  2  2  0  0  0  0
 10  3  1  0  0  0  0
 11  7  2  0  0  0  0
 12  6  2  0  0  0  0
 13 18  1  0  0  0  0
 14 15  1  0  0  0  0
 14 13  2  0  0  0  0
 15 16  2  0  0  0  0
 16 19  1  0  0  0  0
 17 13  1  0  0  0  0
 18 19  2  0  0  0  0
 19 20  1  0  0  0  0
 20 21  1  0  0  0  0
 22 21  1  0  0  0  0
 23 28  1  6  0  0  0
 23 25  1  0  0  0  0
 23 29  1  0  0  0  0
 24 25  1  0  0  0  0
 24 21  1  1  0  0  0
 26 24  1  0  0  0  0
 26 23  1  0  0  0  0
 27 28  1  0  0  0  0
 29 30  1  0  0  0  0
 30 31  1  0  0  0  0
 31 32  1  0  0  0  0
 32 33  1  0  0  0  0
 35 34  1  1  0  0  0
 35  1  1  0  0  0  0
 36 39  2  0  0  0  0
 37 36  1  0  0  0  0
 38 42  2  0  0  0  0
 39 35  1  0  0  0  0
 40 41  2  0  0  0  0
 40 38  1  0  0  0  0
 41 37  1  0  0  0  0
 42 39  1  0  0  0  0
 43 47  1  0  0  0  0
 44 47  2  0  0  0  0
 45 41  1  0  0  0  0
 45 43  1  0  0  0  0
 47 46  2  0  0  0  0
 49 48  1  6  0  0  0
 49 42  1  0  0  0  0
 49 50  1  0  0  0  0
 51 50  1  0  0  0  0
 51 53  1  0  0  0  0
 53 52  1  0  0  0  0
 54 53  1  0  0  0  0
 55 57  1  0  0  0  0
 55 10  1  0  0  0  0
 56 57  2  0  0  0  0
 57 59  1  0  0  0  0
 58 60  1  0  0  0  0
 59 58  1  0  0  0  0
 61 58  2  0  0  0  0
M  END
>  <MODEL>
1

>  <REMARK>
 VINA RESULT:      -7.1      0.000      0.000
  Name = 
  18 active torsions:
  status: ('A' for Active; 'I' for Inactive)
    1  A    between atoms: C_2  and  C_40
    2  A    between atoms: C_7  and  C_30
    3  A    between atoms: C_7  and  C_49
    4  A    between atoms: N_11  and  C_36
    5  A    between atoms: C_15  and  C_18
    6  A    between atoms: C_17  and  C_41
    7  A    between atoms: C_18  and  C_48
    8  A    between atoms: C_20  and  C_40
    9  A    between atoms: C_21  and  C_22
   10  A    between atoms: C_21  and  C_53
   11  A    between atoms: C_22  and  C_46
   12  A    between atoms: C_23  and  C_30
   13  A    between atoms: N_24  and  C_38
   14  A    between atoms: N_24  and  C_43
   15  A    between atoms: C_32  and  C_44
   16  A    between atoms: C_36  and  C_49
   17  A    between atoms: C_38  and  C_58
   18  A    between atoms: C_42  and  C_53
                            x       y       z     vdW  Elec       q    Type
                         _______ _______ _______ _____ _____    ______ ____

>  <TORSDO>
F 18

$$$$
=
 OpenBabel10232407513D

 61 65  0  0  1  0  0  0  0  0999 V2000
  190.7040  178.0030  140.8320 C   0  0  0  0  0  0  0  0  0  0  0  0
  187.2680  177.4310  138.9030 O   0  0  0  0  0  0  0  0  0  0  0  0
  188.3680  177.5800  136.8290 N   0  0  0  0  0  2  0  0  0  0  0  0
  190.5660  176.7770  136.3760 N   0  0  0  0  0  0  0  0  0  0  0  0
  189.8380  177.9490  139.7210 C   0  0  0  0  0  3  0  0  0  0  0  0
  191.5310  176.7510  138.4830 C   0  0  0  0  0  0  0  0  0  0  0  0
  192.4230  176.8080  139.5570 C   0  0  0  0  0  3  0  0  0  0  0  0
  189.7120  177.2660  137.2250 C   0  0  0  0  0  0  0  0  0  0  0  0
  191.8000  176.3810  137.0600 C   0  0  1  0  0  3  0  0  0  0  0  0
  187.1890  177.5630  137.6470 C   0  0  0  0  0  0  0  0  0  0  0  0
  191.9920  177.4230  140.7470 C   0  0  0  0  0  3  0  0  0  0  0  0
  190.2720  177.2920  138.5680 C   0  0  0  0  0  0  0  0  0  0  0  0
  193.3310  174.3660  137.1060 C   0  0  0  0  0  0  0  0  0  0  0  0
  192.0560  174.9030  136.8460 C   0  0  0  0  0  0  0  0  0  0  0  0
  191.1160  174.1100  136.1760 C   0  0  0  0  0  3  0  0  0  0  0  0
  191.4590  172.8210  135.7610 C   0  0  0  0  0  3  0  0  0  0  0  0
  194.4110  175.2050  137.7150 C   0  0  0  0  0  1  0  0  0  0  0  0
  193.6410  173.1050  136.6950 N   0  0  0  0  0  0  0  0  0  0  0  0
  192.7470  172.3440  136.0060 C   0  0  0  0  0  0  0  0  0  0  0  0
  193.1500  171.0080  135.4670 C   0  0  0  0  0  2  0  0  0  0  0  0
  194.1600  170.4010  136.3250 N   0  0  0  0  0  0  0  0  0  0  0  0
  193.6290  169.2520  136.8130 O   0  0  0  0  0  1  0  0  0  0  0  0
  197.1620  170.7460  135.9890 C   0  0  1  0  0  0  0  0  0  0  0  0
  195.3270  170.0960  135.4910 C   0  0  1  0  0  3  0  0  0  0  0  0
  196.0640  171.2860  135.2930 O   0  0  0  0  0  0  0  0  0  0  0  0
  196.4600  169.4400  136.2630 C   0  0  0  0  0  2  0  0  0  0  0  0
  199.5390  170.9660  135.6400 O   0  0  0  0  0  1  0  0  0  0  0  0
  198.3410  170.5760  135.0340 C   0  0  0  0  0  2  0  0  0  0  0  0
  197.5560  171.5610  137.2290 C   0  0  0  0  0  2  0  0  0  0  0  0
  197.2960  173.0670  137.1110 C   0  0  0  0  0  2  0  0  0  0  0  0
  198.5220  173.8610  137.5290 C   0  0  0  0  0  2  0  0  0  0  0  0
  198.2380  175.2890  137.4720 N   0  0  0  0  0  2  0  0  0  0  0  0
  198.2110  175.7270  138.7510 O   0  0  0  0  0  1  0  0  0  0  0  0
  191.4150  179.0640  142.8450 O   0  0  0  0  0  1  0  0  0  0  0  0
  190.2900  178.6600  142.1160 C   0  0  2  0  0  3  0  0  0  0  0  0
  188.0760  177.7260  142.4200 C   0  0  0  0  0  3  0  0  0  0  0  0
  186.9790  176.9100  143.0220 C   0  0  0  0  0  2  0  0  0  0  0  0
  188.8670  177.0660  145.2830 C   0  0  0  0  0  3  0  0  0  0  0  0
  189.3070  177.8480  142.9370 C   0  0  0  0  0  0  0  0  0  0  0  0
  187.4430  177.4460  145.3750 C   0  0  0  0  0  3  0  0  0  0  0  0
  186.5740  177.4360  144.3670 C   0  0  0  0  0  0  0  0  0  0  0  0
  189.7030  177.2020  144.2330 C   0  0  0  0  0  0  0  0  0  0  0  0
  184.9990  179.0300  145.1260 O   0  0  0  0  0  0  0  0  0  0  0  0
  182.8470  179.3080  143.3800 O   0  0  0  0  0  0  0  0  0  0  0  0
  185.1410  177.7610  144.6890 C   0  0  0  0  0  2  0  0  0  0  0  0
  185.4050  179.7660  142.6220 O   0  0  0  0  0  0  0  0  0  0  0  0
  184.4830  178.9120  143.4620 P   0  0  0  0  0  0  0  0  0  0  0  0
  191.1180  175.3000  144.2280 O   0  0  0  0  0  1  0  0  0  0  0  0
  191.1060  176.6840  144.4070 C   0  0  2  0  0  3  0  0  0  0  0  0
  191.6800  177.0330  145.7750 C   0  0  0  0  0  2  0  0  0  0  0  0
  192.2850  175.8160  146.4640 C   0  0  0  0  0  2  0  0  0  0  0  0
  193.3900  175.9510  148.7050 C   0  0  0  0  0  1  0  0  0  0  0  0
  192.0640  175.9030  147.9660 C   0  0  0  0  0  3  0  0  0  0  0  0
  191.2570  177.1360  148.3000 C   0  0  0  0  0  1  0  0  0  0  0  0
  185.8440  177.5570  136.9870 C   0  0  0  0  0  2  0  0  0  0  0  0
  185.8610  175.4070  135.9580 O   0  0  0  0  0  0  0  0  0  0  0  0
  185.3160  176.1730  136.8050 C   0  0  0  0  0  0  0  0  0  0  0  0
  183.3870  176.4070  138.4960 C   0  0  0  0  0  0  0  0  0  0  0  0
  184.2390  175.6580  137.6130 N   0  0  0  0  0  2  0  0  0  0  0  0
  182.4500  175.6760  139.3940 C   0  0  0  0  0  1  0  0  0  0  0  0
  183.4000  177.6980  138.5150 N   0  0  0  0  0  2  0  0  0  0  0  0
  1 35  1  0  0  0  0
  3  8  1  0  0  0  0
  3 10  1  0  0  0  0
  4  9  1  0  0  0  0
  4  8  2  0  0  0  0
  5  1  2  0  0  0  0
  6 12  2  0  0  0  0
  6  7  1  0  0  0  0
  7 11  2  0  0  0  0
  8 12  1  0  0  0  0
  9 14  1  1  0  0  0
  9  6  1  0  0  0  0
 10  2  2  0  0  0  0
 11  1  1  0  0  0  0
 12  5  1  0  0  0  0
 13 17  1  0  0  0  0
 14 13  1  0  0  0  0
 15 14  2  0  0  0  0
 16 19  2  0  0  0  0
 16 15  1  0  0  0  0
 18 13  2  0  0  0  0
 19 18  1  0  0  0  0
 20 19  1  0  0  0  0
 20 21  1  0  0  0  0
 21 22  1  0  0  0  0
 23 28  1  6  0  0  0
 23 26  1  0  0  0  0
 23 29  1  0  0  0  0
 24 26  1  0  0  0  0
 24 21  1  1  0  0  0
 25 24  1  0  0  0  0
 25 23  1  0  0  0  0
 28 27  1  0  0  0  0
 30 29  1  0  0  0  0
 30 31  1  0  0  0  0
 32 31  1  0  0  0  0
 32 33  1  0  0  0  0
 35 34  1  1  0  0  0
 35 39  1  0  0  0  0
 36 39  2  0  0  0  0
 36 37  1  0  0  0  0
 37 41  1  0  0  0  0
 38 40  1  0  0  0  0
 39 42  1  0  0  0  0
 41 45  1  0  0  0  0
 41 40  2  0  0  0  0
 42 49  1  0  0  0  0
 42 38  2  0  0  0  0
 44 47  2  0  0  0  0
 45 43  1  0  0  0  0
 46 47  2  0  0  0  0
 47 43  1  0  0  0  0
 49 48  1  1  0  0  0
 49 50  1  0  0  0  0
 50 51  1  0  0  0  0
 51 53  1  0  0  0  0
 53 54  1  0  0  0  0
 53 52  1  0  0  0  0
 55 10  1  0  0  0  0
 56 57  2  0  0  0  0
 57 55  1  0  0  0  0
 57 59  1  0  0  0  0
 58 61  2  0  0  0  0
 58 60  1  0  0  0  0
 59 58  1  0  0  0  0
M  END
>  <MODEL>
2

>  <REMARK>
 VINA RESULT:      -6.7      5.277     11.394
  Name = 
  18 active torsions:
  status: ('A' for Active; 'I' for Inactive)
    1  A    between atoms: C_2  and  C_40
    2  A    between atoms: C_7  and  C_30
    3  A    between atoms: C_7  and  C_49
    4  A    between atoms: N_11  and  C_36
    5  A    between atoms: C_15  and  C_18
    6  A    between atoms: C_17  and  C_41
    7  A    between atoms: C_18  and  C_48
    8  A    between atoms: C_20  and  C_40
    9  A    between atoms: C_21  and  C_22
   10  A    between atoms: C_21  and  C_53
   11  A    between atoms: C_22  and  C_46
   12  A    between atoms: C_23  and  C_30
   13  A    between atoms: N_24  and  C_38
   14  A    between atoms: N_24  and  C_43
   15  A    between atoms: C_32  and  C_44
   16  A    between atoms: C_36  and  C_49
   17  A    between atoms: C_38  and  C_58
   18  A    between atoms: C_42  and  C_53
                            x       y       z     vdW  Elec       q    Type
                         _______ _______ _______ _____ _____    ______ ____

>  <TORSDO>
F 18

$$$$
=
 OpenBabel10232407513D

 61 65  0  0  1  0  0  0  0  0999 V2000
  185.5000  177.0660  136.5270 C   0  0  0  0  0  0  0  0  0  0  0  0
  188.9240  175.6040  135.1130 O   0  0  0  0  0  0  0  0  0  0  0  0
  190.1320  177.3280  136.1630 N   0  0  0  0  0  2  0  0  0  0  0  0
  189.6010  178.2920  138.2760 N   0  0  0  0  0  0  0  0  0  0  0  0
  186.8800  177.0540  136.2380 C   0  0  0  0  0  3  0  0  0  0  0  0
  187.3380  177.8370  138.4770 C   0  0  0  0  0  0  0  0  0  0  0  0
  185.9770  177.8840  138.7890 C   0  0  0  0  0  3  0  0  0  0  0  0
  189.2000  177.7150  137.1840 C   0  0  0  0  0  0  0  0  0  0  0  0
  188.4910  178.4250  139.2240 C   0  0  1  0  0  3  0  0  0  0  0  0
  190.0100  176.2420  135.2330 C   0  0  0  0  0  0  0  0  0  0  0  0
  185.0550  177.4740  137.8080 C   0  0  0  0  0  3  0  0  0  0  0  0
  187.7760  177.4200  137.2450 C   0  0  0  0  0  0  0  0  0  0  0  0
  188.0580  177.9350  141.6690 C   0  0  0  0  0  0  0  0  0  0  0  0
  188.8250  177.7000  140.5120 C   0  0  0  0  0  0  0  0  0  0  0  0
  190.0200  176.9810  140.6320 C   0  0  0  0  0  3  0  0  0  0  0  0
  190.4410  176.5290  141.8870 C   0  0  0  0  0  3  0  0  0  0  0  0
  186.8330  178.7930  141.6200 C   0  0  0  0  0  1  0  0  0  0  0  0
  188.4860  177.4810  142.8800 N   0  0  0  0  0  0  0  0  0  0  0  0
  189.6680  176.8170  143.0110 C   0  0  0  0  0  0  0  0  0  0  0  0
  190.1700  176.4310  144.3660 C   0  0  0  0  0  2  0  0  0  0  0  0
  190.7610  177.5850  145.0330 N   0  0  0  0  0  0  0  0  0  0  0  0
  190.2860  178.6920  144.4090 O   0  0  0  0  0  1  0  0  0  0  0  0
  188.3640  177.4150  146.8960 C   0  0  1  0  0  0  0  0  0  0  0  0
  190.3120  177.5700  146.4290 C   0  0  1  0  0  3  0  0  0  0  0  0
  189.2330  178.4720  146.5660 O   0  0  0  0  0  0  0  0  0  0  0  0
  189.4440  176.3690  146.7670 C   0  0  0  0  0  2  0  0  0  0  0  0
  188.4120  178.7320  148.9170 O   0  0  0  0  0  1  0  0  0  0  0  0
  187.8870  177.5730  148.3370 C   0  0  0  0  0  2  0  0  0  0  0  0
  187.1830  177.2730  145.9260 C   0  0  0  0  0  2  0  0  0  0  0  0
  185.9500  178.1030  146.2970 C   0  0  0  0  0  2  0  0  0  0  0  0
  185.7070  179.1990  145.2720 C   0  0  0  0  0  2  0  0  0  0  0  0
  184.3110  179.1960  144.8570 N   0  0  0  0  0  2  0  0  0  0  0  0
  183.5750  179.0520  145.9820 O   0  0  0  0  0  1  0  0  0  0  0  0
  184.5720  177.4570  134.3670 O   0  0  0  0  0  1  0  0  0  0  0  0
  184.4830  176.6490  135.5070 C   0  0  2  0  0  3  0  0  0  0  0  0
  182.3290  177.6530  135.9730 C   0  0  0  0  0  3  0  0  0  0  0  0
  180.8940  177.7470  136.3780 C   0  0  0  0  0  2  0  0  0  0  0  0
  181.6680  175.1970  137.6420 C   0  0  0  0  0  3  0  0  0  0  0  0
  183.0720  176.5390  136.0500 C   0  0  0  0  0  0  0  0  0  0  0  0
  181.0350  176.3150  138.3710 C   0  0  0  0  0  3  0  0  0  0  0  0
  180.7170  177.4960  137.8460 C   0  0  0  0  0  0  0  0  0  0  0  0
  182.5380  175.2540  136.6130 C   0  0  0  0  0  0  0  0  0  0  0  0
  180.4790  178.4770  139.9860 O   0  0  0  0  0  0  0  0  0  0  0  0
  180.4770  181.2610  139.8820 O   0  0  0  0  0  0  0  0  0  0  0  0
  179.9840  178.4680  138.7310 C   0  0  0  0  0  2  0  0  0  0  0  0
  182.5520  179.7710  138.9840 O   0  0  0  0  0  0  0  0  0  0  0  0
  181.0490  179.8760  139.1100 P   0  0  0  0  0  0  0  0  0  0  0  0
  181.9030  173.0790  135.9180 O   0  0  0  0  0  1  0  0  0  0  0  0
  182.9930  173.9430  136.0310 C   0  0  2  0  0  3  0  0  0  0  0  0
  184.0840  173.2900  136.8720 C   0  0  0  0  0  2  0  0  0  0  0  0
  184.0620  171.7720  136.7510 C   0  0  0  0  0  2  0  0  0  0  0  0
  184.6750  171.0950  134.4210 C   0  0  0  0  0  1  0  0  0  0  0  0
  185.1840  171.3050  135.8370 C   0  0  0  0  0  3  0  0  0  0  0  0
  186.2990  172.3240  135.8240 C   0  0  0  0  0  1  0  0  0  0  0  0
  191.2280  175.7680  134.5000 C   0  0  0  0  0  2  0  0  0  0  0  0
  190.4030  173.5310  134.4850 O   0  0  0  0  0  0  0  0  0  0  0  0
  191.4080  174.2910  134.6100 C   0  0  0  0  0  0  0  0  0  0  0  0
  193.9320  174.3750  135.1200 C   0  0  0  0  0  0  0  0  0  0  0  0
  192.7080  173.6960  134.7910 N   0  0  0  0  0  2  0  0  0  0  0  0
  195.2150  173.6200  135.0810 C   0  0  0  0  0  1  0  0  0  0  0  0
  193.9430  175.6190  135.4680 N   0  0  0  0  0  2  0  0  0  0  0  0
  1 11  1  0  0  0  0
  2 10  2  0  0  0  0
  3  8  1  0  0  0  0
  4  9  1  0  0  0  0
  5  1  2  0  0  0  0
  5 12  1  0  0  0  0
  6  7  1  0  0  0  0
  6  9  1  0  0  0  0
  8 12  1  0  0  0  0
  8  4  2  0  0  0  0
  9 14  1  1  0  0  0
 10  3  1  0  0  0  0
 11  7  2  0  0  0  0
 12  6  2  0  0  0  0
 13 18  1  0  0  0  0
 14 15  1  0  0  0  0
 14 13  2  0  0  0  0
 15 16  2  0  0  0  0
 16 19  1  0  0  0  0
 17 13  1  0  0  0  0
 18 19  2  0  0  0  0
 19 20  1  0  0  0  0
 20 21  1  0  0  0  0
 22 21  1  0  0  0  0
 23 29  1  6  0  0  0
 23 28  1  0  0  0  0
 24 21  1  6  0  0  0
 24 25  1  0  0  0  0
 24 26  1  0  0  0  0
 25 23  1  0  0  0  0
 26 23  1  0  0  0  0
 28 27  1  0  0  0  0
 29 30  1  0  0  0  0
 31 30  1  0  0  0  0
 32 31  1  0  0  0  0
 32 33  1  0  0  0  0
 35 34  1  6  0  0  0
 35 39  1  0  0  0  0
 35  1  1  0  0  0  0
 36 39  2  0  0  0  0
 36 37  1  0  0  0  0
 37 41  1  0  0  0  0
 38 40  1  0  0  0  0
 39 42  1  0  0  0  0
 41 40  2  0  0  0  0
 41 45  1  0  0  0  0
 42 38  2  0  0  0  0
 45 43  1  0  0  0  0
 46 47  2  0  0  0  0
 47 44  2  0  0  0  0
 47 43  1  0  0  0  0
 49 48  1  1  0  0  0
 49 42  1  0  0  0  0
 49 50  1  0  0  0  0
 51 50  1  0  0  0  0
 52 53  1  0  0  0  0
 53 51  1  0  0  0  0
 54 53  1  0  0  0  0
 55 57  1  0  0  0  0
 55 10  1  0  0  0  0
 56 57  2  0  0  0  0
 57 59  1  0  0  0  0
 58 61  2  0  0  0  0
 59 58  1  0  0  0  0
 60 58  1  0  0  0  0
M  END
>  <MODEL>
3

>  <REMARK>
 VINA RESULT:      -6.7      3.140      6.244
  Name = 
  18 active torsions:
  status: ('A' for Active; 'I' for Inactive)
    1  A    between atoms: C_2  and  C_40
    2  A    between atoms: C_7  and  C_30
    3  A    between atoms: C_7  and  C_49
    4  A    between atoms: N_11  and  C_36
    5  A    between atoms: C_15  and  C_18
    6  A    between atoms: C_17  and  C_41
    7  A    between atoms: C_18  and  C_48
    8  A    between atoms: C_20  and  C_40
    9  A    between atoms: C_21  and  C_22
   10  A    between atoms: C_21  and  C_53
   11  A    between atoms: C_22  and  C_46
   12  A    between atoms: C_23  and  C_30
   13  A    between atoms: N_24  and  C_38
   14  A    between atoms: N_24  and  C_43
   15  A    between atoms: C_32  and  C_44
   16  A    between atoms: C_36  and  C_49
   17  A    between atoms: C_38  and  C_58
   18  A    between atoms: C_42  and  C_53
                            x       y       z     vdW  Elec       q    Type
                         _______ _______ _______ _____ _____    ______ ____

>  <TORSDO>
F 18

$$$$
=
 OpenBabel10232407513D

 61 65  0  0  1  0  0  0  0  0999 V2000
  189.3100  178.1670  140.2180 C   0  0  0  0  0  0  0  0  0  0  0  0
  186.4100  177.3150  137.6250 O   0  0  0  0  0  0  0  0  0  0  0  0
  187.9260  177.4550  135.8320 N   0  0  0  0  0  2  0  0  0  0  0  0
  190.2080  176.7710  135.9020 N   0  0  0  0  0  0  0  0  0  0  0  0
  188.7110  178.0190  138.9500 C   0  0  0  0  0  3  0  0  0  0  0  0
  190.6920  176.8820  138.1660 C   0  0  0  0  0  0  0  0  0  0  0  0
  191.3250  177.0330  139.4020 C   0  0  0  0  0  3  0  0  0  0  0  0
  189.1670  177.2380  136.5230 C   0  0  0  0  0  0  0  0  0  0  0  0
  191.2830  176.4770  136.8540 C   0  0  1  0  0  3  0  0  0  0  0  0
  186.6000  177.3950  136.3770 C   0  0  0  0  0  0  0  0  0  0  0  0
  190.6140  177.6640  140.4400 C   0  0  0  0  0  3  0  0  0  0  0  0
  189.4190  177.3470  137.9520 C   0  0  0  0  0  0  0  0  0  0  0  0
  192.9480  174.5930  137.1410 C   0  0  0  0  0  0  0  0  0  0  0  0
  191.6550  175.0110  136.7730 C   0  0  0  0  0  0  0  0  0  0  0  0
  190.8150  174.1000  136.1220 C   0  0  0  0  0  3  0  0  0  0  0  0
  191.2720  172.8120  135.8290 C   0  0  0  0  0  3  0  0  0  0  0  0
  193.9290  175.5550  137.7360 C   0  0  0  0  0  1  0  0  0  0  0  0
  193.3710  173.3310  136.8490 N   0  0  0  0  0  0  0  0  0  0  0  0
  192.5740  172.4540  136.1790 C   0  0  0  0  0  0  0  0  0  0  0  0
  193.1020  171.1150  135.7700 C   0  0  0  0  0  2  0  0  0  0  0  0
  194.4050  170.8790  136.3790 N   0  0  0  0  0  0  0  0  0  0  0  0
  194.3350  169.6850  137.0190 O   0  0  0  0  0  1  0  0  0  0  0  0
  197.2600  171.5120  135.5470 C   0  0  1  0  0  0  0  0  0  0  0  0
  195.3950  170.8080  135.2990 C   0  0  1  0  0  3  0  0  0  0  0  0
  196.0210  172.0690  135.1770 O   0  0  0  0  0  0  0  0  0  0  0  0
  196.6880  170.1260  135.7150 C   0  0  0  0  0  2  0  0  0  0  0  0
  199.0930  172.6860  134.5060 O   0  0  0  0  0  1  0  0  0  0  0  0
  198.2310  171.5940  134.3720 C   0  0  0  0  0  2  0  0  0  0  0  0
  197.8560  172.1420  136.8130 C   0  0  0  0  0  2  0  0  0  0  0  0
  197.1420  173.4100  137.2910 C   0  0  0  0  0  2  0  0  0  0  0  0
  198.1350  174.5410  137.5080 C   0  0  0  0  0  2  0  0  0  0  0  0
  197.7330  175.3490  138.6510 N   0  0  0  0  0  2  0  0  0  0  0  0
  198.6880  175.1850  139.5930 O   0  0  0  0  0  1  0  0  0  0  0  0
  189.3560  178.7790  142.5210 O   0  0  0  0  0  1  0  0  0  0  0  0
  188.5930  178.8440  141.3490 C   0  0  2  0  0  3  0  0  0  0  0  0
  186.3790  178.4430  140.4550 C   0  0  0  0  0  3  0  0  0  0  0  0
  184.9630  177.9670  140.4010 C   0  0  0  0  0  2  0  0  0  0  0  0
  185.4160  178.0470  143.3150 C   0  0  0  0  0  3  0  0  0  0  0  0
  187.1630  178.3790  141.5410 C   0  0  0  0  0  0  0  0  0  0  0  0
  184.2900  178.7240  142.6400 C   0  0  0  0  0  3  0  0  0  0  0  0
  184.0810  178.7520  141.3260 C   0  0  0  0  0  0  0  0  0  0  0  0
  186.6720  177.8560  142.8590 C   0  0  0  0  0  0  0  0  0  0  0  0
  182.6230  179.2150  139.5220 O   0  0  0  0  0  0  0  0  0  0  0  0
  179.9830  178.5330  140.0910 O   0  0  0  0  0  0  0  0  0  0  0  0
  182.8170  179.4100  140.8430 C   0  0  0  0  0  2  0  0  0  0  0  0
  181.9980  176.7250  140.1470 O   0  0  0  0  0  0  0  0  0  0  0  0
  181.5860  178.1500  140.4400 P   0  0  0  0  0  0  0  0  0  0  0  0
  187.8530  175.8290  143.1990 O   0  0  0  0  0  1  0  0  0  0  0  0
  187.6110  177.0880  143.7500 C   0  0  2  0  0  3  0  0  0  0  0  0
  187.0620  176.9340  145.1640 C   0  0  0  0  0  2  0  0  0  0  0  0
  188.0970  177.3060  146.2180 C   0  0  0  0  0  2  0  0  0  0  0  0
  185.9980  178.3880  147.0470 C   0  0  0  0  0  1  0  0  0  0  0  0
  187.5080  178.3100  147.1970 C   0  0  0  0  0  3  0  0  0  0  0  0
  187.8540  177.9160  148.6140 C   0  0  0  0  0  1  0  0  0  0  0  0
  185.4320  177.2830  135.4440 C   0  0  0  0  0  2  0  0  0  0  0  0
  183.4380  177.3950  136.7450 O   0  0  0  0  0  0  0  0  0  0  0  0
  184.2470  176.6630  136.1040 C   0  0  0  0  0  0  0  0  0  0  0  0
  184.8240  174.2390  135.4480 C   0  0  0  0  0  0  0  0  0  0  0  0
  183.9580  175.2560  135.9800 N   0  0  0  0  0  2  0  0  0  0  0  0
  184.2840  172.8690  135.2240 C   0  0  0  0  0  1  0  0  0  0  0  0
  186.0640  174.4800  135.1800 N   0  0  0  0  0  2  0  0  0  0  0  0
  1 11  1  0  0  0  0
  1 35  1  0  0  0  0
  3 10  1  0  0  0  0
  3  8  1  0  0  0  0
  4  8  2  0  0  0  0
  4  9  1  0  0  0  0
  5  1  2  0  0  0  0
  6  7  1  0  0  0  0
  7 11  2  0  0  0  0
  8 12  1  0  0  0  0
  9 14  1  1  0  0  0
  9  6  1  0  0  0  0
 10  2  2  0  0  0  0
 12  6  2  0  0  0  0
 12  5  1  0  0  0  0
 13 17  1  0  0  0  0
 14 13  2  0  0  0  0
 15 14  1  0  0  0  0
 16 15  2  0  0  0  0
 16 19  1  0  0  0  0
 18 13  1  0  0  0  0
 19 18  2  0  0  0  0
 20 19  1  0  0  0  0
 20 21  1  0  0  0  0
 21 22  1  0  0  0  0
 23 28  1  6  0  0  0
 23 26  1  0  0  0  0
 23 29  1  0  0  0  0
 24 26  1  0  0  0  0
 24 21  1  1  0  0  0
 25 24  1  0  0  0  0
 25 23  1  0  0  0  0
 28 27  1  0  0  0  0
 29 30  1  0  0  0  0
 30 31  1  0  0  0  0
 31 32  1  0  0  0  0
 32 33  1  0  0  0  0
 35 39  1  0  0  0  0
 35 34  1  1  0  0  0
 36 39  2  0  0  0  0
 37 36  1  0  0  0  0
 37 41  1  0  0  0  0
 39 42  1  0  0  0  0
 40 38  1  0  0  0  0
 41 40  2  0  0  0  0
 42 38  2  0  0  0  0
 42 49  1  0  0  0  0
 43 47  1  0  0  0  0
 43 45  1  0  0  0  0
 44 47  2  0  0  0  0
 45 41  1  0  0  0  0
 46 47  2  0  0  0  0
 49 48  1  6  0  0  0
 49 50  1  0  0  0  0
 50 51  1  0  0  0  0
 51 53  1  0  0  0  0
 52 53  1  0  0  0  0
 53 54  1  0  0  0  0
 55 57  1  0  0  0  0
 55 10  1  0  0  0  0
 57 56  2  0  0  0  0
 58 59  1  0  0  0  0
 59 57  1  0  0  0  0
 60 58  1  0  0  0  0
 61 58  2  0  0  0  0
M  END
>  <MODEL>
4

>  <REMARK>
 VINA RESULT:      -6.6      5.174     10.214
  Name = 
  18 active torsions:
  status: ('A' for Active; 'I' for Inactive)
    1  A    between atoms: C_2  and  C_40
    2  A    between atoms: C_7  and  C_30
    3  A    between atoms: C_7  and  C_49
    4  A    between atoms: N_11  and  C_36
    5  A    between atoms: C_15  and  C_18
    6  A    between atoms: C_17  and  C_41
    7  A    between atoms: C_18  and  C_48
    8  A    between atoms: C_20  and  C_40
    9  A    between atoms: C_21  and  C_22
   10  A    between atoms: C_21  and  C_53
   11  A    between atoms: C_22  and  C_46
   12  A    between atoms: C_23  and  C_30
   13  A    between atoms: N_24  and  C_38
   14  A    between atoms: N_24  and  C_43
   15  A    between atoms: C_32  and  C_44
   16  A    between atoms: C_36  and  C_49
   17  A    between atoms: C_38  and  C_58
   18  A    between atoms: C_42  and  C_53
                            x       y       z     vdW  Elec       q    Type
                         _______ _______ _______ _____ _____    ______ ____

>  <TORSDO>
F 18

$$$$
=
 OpenBabel10232407513D

 61 65  0  0  1  0  0  0  0  0999 V2000
  187.2410  178.5080  138.0080 C   0  0  0  0  0  0  0  0  0  0  0  0
  185.6790  177.8980  141.6200 O   0  0  0  0  0  0  0  0  0  0  0  0
  183.5290  178.4130  140.8140 N   0  0  0  0  0  2  0  0  0  0  0  0
  182.7060  177.8690  138.6450 N   0  0  0  0  0  0  0  0  0  0  0  0
  186.2460  178.5250  139.0070 C   0  0  0  0  0  3  0  0  0  0  0  0
  184.6560  177.6500  137.4120 C   0  0  0  0  0  0  0  0  0  0  0  0
  185.6120  177.6430  136.3930 C   0  0  0  0  0  3  0  0  0  0  0  0
  183.7120  178.1660  139.4110 C   0  0  0  0  0  0  0  0  0  0  0  0
  183.1730  177.4950  137.3070 C   0  0  1  0  0  3  0  0  0  0  0  0
  184.4730  178.1860  141.8720 C   0  0  0  0  0  0  0  0  0  0  0  0
  186.9200  178.0580  136.7050 C   0  0  0  0  0  3  0  0  0  0  0  0
  184.9680  178.0640  138.6830 C   0  0  0  0  0  0  0  0  0  0  0  0
  181.4190  175.8580  136.5040 C   0  0  0  0  0  0  0  0  0  0  0  0
  182.7240  176.0860  136.9800 C   0  0  0  0  0  0  0  0  0  0  0  0
  183.5010  174.9860  137.3610 C   0  0  0  0  0  3  0  0  0  0  0  0
  182.9720  173.6950  137.2860 C   0  0  0  0  0  3  0  0  0  0  0  0
  180.5020  176.9990  136.1910 C   0  0  0  0  0  1  0  0  0  0  0  0
  180.9250  174.5900  136.4350 N   0  0  0  0  0  0  0  0  0  0  0  0
  181.6610  173.5190  136.8440 C   0  0  0  0  0  0  0  0  0  0  0  0
  181.0560  172.1510  136.8660 C   0  0  0  0  0  2  0  0  0  0  0  0
  180.8930  171.6490  135.5070 N   0  0  0  0  0  0  0  0  0  0  0  0
  181.5060  172.5340  134.6800 O   0  0  0  0  0  1  0  0  0  0  0  0
  183.5610  170.2160  135.2410 C   0  0  1  0  0  0  0  0  0  0  0  0
  181.5650  170.3480  135.4300 C   0  0  1  0  0  3  0  0  0  0  0  0
  182.4810  170.3760  134.3520 O   0  0  0  0  0  0  0  0  0  0  0  0
  182.6720  170.1830  136.4580 C   0  0  0  0  0  2  0  0  0  0  0  0
  184.1720  168.0530  136.1180 O   0  0  0  0  0  1  0  0  0  0  0  0
  184.2380  168.8720  134.9870 C   0  0  0  0  0  2  0  0  0  0  0  0
  184.5700  171.3720  135.1860 C   0  0  0  0  0  2  0  0  0  0  0  0
  186.0140  170.9460  134.9060 C   0  0  0  0  0  2  0  0  0  0  0  0
  186.9870  171.7280  135.7730 C   0  0  0  0  0  2  0  0  0  0  0  0
  187.2890  173.0120  135.1540 N   0  0  0  0  0  2  0  0  0  0  0  0
  186.9700  173.9620  136.0630 O   0  0  0  0  0  1  0  0  0  0  0  0
  189.3660  179.0970  137.1030 O   0  0  0  0  0  1  0  0  0  0  0  0
  188.6450  178.9520  138.2950 C   0  0  2  0  0  3  0  0  0  0  0  0
  189.0460  178.3520  140.6060 C   0  0  0  0  0  3  0  0  0  0  0  0
  189.5750  177.5860  141.7750 C   0  0  0  0  0  2  0  0  0  0  0  0
  191.4420  176.7350  139.6560 C   0  0  0  0  0  3  0  0  0  0  0  0
  189.3630  178.1050  139.3270 C   0  0  0  0  0  0  0  0  0  0  0  0
  191.8730  177.3000  140.9500 C   0  0  0  0  0  3  0  0  0  0  0  0
  191.0610  177.7410  141.9090 C   0  0  0  0  0  0  0  0  0  0  0  0
  190.3460  177.0410  138.9320 C   0  0  0  0  0  0  0  0  0  0  0  0
  190.7950  178.7420  144.0360 O   0  0  0  0  0  0  0  0  0  0  0  0
  191.8510  177.1770  146.0840 O   0  0  0  0  0  0  0  0  0  0  0  0
  191.6960  178.1870  143.1990 C   0  0  0  0  0  2  0  0  0  0  0  0
  189.8960  176.2900  144.4340 O   0  0  0  0  0  0  0  0  0  0  0  0
  191.1600  177.1130  144.5480 P   0  0  0  0  0  0  0  0  0  0  0  0
  189.9530  174.9180  137.9550 O   0  0  0  0  0  1  0  0  0  0  0  0
  190.1330  176.2690  137.6580 C   0  0  2  0  0  3  0  0  0  0  0  0
  191.2970  176.4330  136.6870 C   0  0  0  0  0  2  0  0  0  0  0  0
  191.7670  175.0940  136.1330 C   0  0  0  0  0  2  0  0  0  0  0  0
  193.9570  176.2870  136.3440 C   0  0  0  0  0  1  0  0  0  0  0  0
  193.2640  174.9360  136.3530 C   0  0  0  0  0  3  0  0  0  0  0  0
  193.5230  174.2460  137.6730 C   0  0  0  0  0  1  0  0  0  0  0  0
  183.9860  178.1500  143.2890 C   0  0  0  0  0  2  0  0  0  0  0  0
  183.8340  180.4790  143.7730 O   0  0  0  0  0  0  0  0  0  0  0  0
  184.3820  179.3720  144.0480 C   0  0  0  0  0  0  0  0  0  0  0  0
  186.1770  178.2120  145.4870 C   0  0  0  0  0  0  0  0  0  0  0  0
  185.3290  179.3180  145.1330 N   0  0  0  0  0  2  0  0  0  0  0  0
  186.9550  178.2690  146.7550 C   0  0  0  0  0  1  0  0  0  0  0  0
  186.2950  177.1780  144.7200 N   0  0  0  0  0  2  0  0  0  0  0  0
  1 35  1  0  0  0  0
  1  5  1  0  0  0  0
  2 10  2  0  0  0  0
  3 10  1  0  0  0  0
  4  8  2  0  0  0  0
  6 12  1  0  0  0  0
  7 11  1  0  0  0  0
  7  6  2  0  0  0  0
  8  3  1  0  0  0  0
  9 14  1  1  0  0  0
  9  6  1  0  0  0  0
  9  4  1  0  0  0  0
 10 55  1  0  0  0  0
 11  1  2  0  0  0  0
 12  5  2  0  0  0  0
 12  8  1  0  0  0  0
 13 14  1  0  0  0  0
 14 15  2  0  0  0  0
 16 15  1  0  0  0  0
 17 13  1  0  0  0  0
 18 13  2  0  0  0  0
 18 19  1  0  0  0  0
 19 20  1  0  0  0  0
 19 16  2  0  0  0  0
 21 20  1  0  0  0  0
 22 21  1  0  0  0  0
 23 28  1  6  0  0  0
 23 26  1  0  0  0  0
 24 21  1  1  0  0  0
 24 26  1  0  0  0  0
 25 23  1  0  0  0  0
 25 24  1  0  0  0  0
 28 27  1  0  0  0  0
 29 23  1  0  0  0  0
 30 29  1  0  0  0  0
 30 31  1  0  0  0  0
 32 31  1  0  0  0  0
 32 33  1  0  0  0  0
 35 34  1  6  0  0  0
 35 39  1  0  0  0  0
 36 37  1  0  0  0  0
 37 41  1  0  0  0  0
 38 40  1  0  0  0  0
 39 36  2  0  0  0  0
 40 41  2  0  0  0  0
 41 45  1  0  0  0  0
 42 39  1  0  0  0  0
 42 38  2  0  0  0  0
 43 47  1  0  0  0  0
 45 43  1  0  0  0  0
 46 47  2  0  0  0  0
 47 44  2  0  0  0  0
 49 48  1  1  0  0  0
 49 42  1  0  0  0  0
 50 49  1  0  0  0  0
 51 53  1  0  0  0  0
 51 50  1  0  0  0  0
 52 53  1  0  0  0  0
 53 54  1  0  0  0  0
 55 57  1  0  0  0  0
 56 57  2  0  0  0  0
 57 59  1  0  0  0  0
 58 60  1  0  0  0  0
 59 58  1  0  0  0  0
 61 58  2  0  0  0  0
M  END
>  <MODEL>
5

>  <REMARK>
 VINA RESULT:      -6.4      3.337     10.404
  Name = 
  18 active torsions:
  status: ('A' for Active; 'I' for Inactive)
    1  A    between atoms: C_2  and  C_40
    2  A    between atoms: C_7  and  C_30
    3  A    between atoms: C_7  and  C_49
    4  A    between atoms: N_11  and  C_36
    5  A    between atoms: C_15  and  C_18
    6  A    between atoms: C_17  and  C_41
    7  A    between atoms: C_18  and  C_48
    8  A    between atoms: C_20  and  C_40
    9  A    between atoms: C_21  and  C_22
   10  A    between atoms: C_21  and  C_53
   11  A    between atoms: C_22  and  C_46
   12  A    between atoms: C_23  and  C_30
   13  A    between atoms: N_24  and  C_38
   14  A    between atoms: N_24  and  C_43
   15  A    between atoms: C_32  and  C_44
   16  A    between atoms: C_36  and  C_49
   17  A    between atoms: C_38  and  C_58
   18  A    between atoms: C_42  and  C_53
                            x       y       z     vdW  Elec       q    Type
                         _______ _______ _______ _____ _____    ______ ____

>  <TORSDO>
F 18

$$$$
=
 OpenBabel10232407513D

 61 65  0  0  1  0  0  0  0  0999 V2000
  190.3850  178.2800  141.8440 C   0  0  0  0  0  0  0  0  0  0  0  0
  186.7730  177.7720  140.2440 O   0  0  0  0  0  0  0  0  0  0  0  0
  187.6330  178.1760  138.0920 N   0  0  0  0  0  2  0  0  0  0  0  0
  189.7890  177.5110  137.3240 N   0  0  0  0  0  0  0  0  0  0  0  0
  189.4030  178.3060  140.8320 C   0  0  0  0  0  3  0  0  0  0  0  0
  190.9820  177.3080  139.3000 C   0  0  0  0  0  0  0  0  0  0  0  0
  191.9850  177.2900  140.2720 C   0  0  0  0  0  3  0  0  0  0  0  0
  189.0210  177.8760  138.3060 C   0  0  0  0  0  0  0  0  0  0  0  0
  191.1020  177.0960  137.8260 C   0  0  1  0  0  3  0  0  0  0  0  0
  186.5530  178.0280  139.0250 C   0  0  0  0  0  0  0  0  0  0  0  0
  191.6710  177.7630  141.5600 C   0  0  0  0  0  3  0  0  0  0  0  0
  189.7250  177.7870  139.5770 C   0  0  0  0  0  0  0  0  0  0  0  0
  192.6840  175.2550  137.1080 C   0  0  0  0  0  0  0  0  0  0  0  0
  191.3740  175.6590  137.4300 C   0  0  0  0  0  0  0  0  0  0  0  0
  190.3150  174.7860  137.1550 C   0  0  0  0  0  3  0  0  0  0  0  0
  190.5660  173.5500  136.5530 C   0  0  0  0  0  3  0  0  0  0  0  0
  193.8410  176.1900  137.2730 C   0  0  0  0  0  1  0  0  0  0  0  0
  192.9050  174.0440  136.5250 N   0  0  0  0  0  0  0  0  0  0  0  0
  191.8750  173.2070  136.2170 C   0  0  0  0  0  0  0  0  0  0  0  0
  192.1330  171.9350  135.4740 C   0  0  0  0  0  2  0  0  0  0  0  0
  193.0380  171.0810  136.2350 N   0  0  0  0  0  0  0  0  0  0  0  0
  192.6610  169.7980  136.0050 O   0  0  0  0  0  1  0  0  0  0  0  0
  195.8700  169.9850  136.0820 C   0  0  1  0  0  0  0  0  0  0  0  0
  194.3940  171.3010  135.7240 C   0  0  1  0  0  3  0  0  0  0  0  0
  195.3140  171.0790  136.7740 O   0  0  0  0  0  0  0  0  0  0  0  0
  194.9270  170.1310  134.9140 C   0  0  0  0  0  2  0  0  0  0  0  0
  198.0780  170.6110  136.8280 O   0  0  0  0  0  1  0  0  0  0  0  0
  197.3130  170.3010  135.6990 C   0  0  0  0  0  2  0  0  0  0  0  0
  195.7700  168.6630  136.8550 C   0  0  0  0  0  2  0  0  0  0  0  0
  195.9360  168.7970  138.3720 C   0  0  0  0  0  2  0  0  0  0  0  0
  194.6150  168.5530  139.0840 C   0  0  0  0  0  2  0  0  0  0  0  0
  194.8550  168.0180  140.4180 N   0  0  0  0  0  2  0  0  0  0  0  0
  194.6140  169.0260  141.2860 O   0  0  0  0  0  1  0  0  0  0  0  0
  191.2860  178.9430  143.9490 O   0  0  0  0  0  1  0  0  0  0  0  0
  190.0970  178.7860  143.2270 C   0  0  2  0  0  3  0  0  0  0  0  0
  187.8920  177.7890  143.3230 C   0  0  0  0  0  3  0  0  0  0  0  0
  186.7560  176.9660  143.8390 C   0  0  0  0  0  2  0  0  0  0  0  0
  188.3580  177.3110  146.2920 C   0  0  0  0  0  3  0  0  0  0  0  0
  189.0490  177.9830  143.9730 C   0  0  0  0  0  0  0  0  0  0  0  0
  186.9220  177.6430  146.1960 C   0  0  0  0  0  3  0  0  0  0  0  0
  186.1790  177.5480  145.0950 C   0  0  0  0  0  0  0  0  0  0  0  0
  189.3080  177.4220  145.3400 C   0  0  0  0  0  0  0  0  0  0  0  0
  184.4830  179.0310  145.8150 O   0  0  0  0  0  0  0  0  0  0  0  0
  182.6300  179.5770  143.8070 O   0  0  0  0  0  0  0  0  0  0  0  0
  184.7080  177.8370  145.2290 C   0  0  0  0  0  2  0  0  0  0  0  0
  185.2700  180.1150  143.5380 O   0  0  0  0  0  0  0  0  0  0  0  0
  184.2380  179.1580  144.0900 P   0  0  0  0  0  0  0  0  0  0  0  0
  191.1190  175.9900  144.8030 O   0  0  0  0  0  1  0  0  0  0  0  0
  190.6950  176.9650  145.7060 C   0  0  2  0  0  3  0  0  0  0  0  0
  190.7610  176.4160  147.1270 C   0  0  0  0  0  2  0  0  0  0  0  0
  191.6110  177.2950  148.0360 C   0  0  0  0  0  2  0  0  0  0  0  0
  193.2510  175.4070  148.1270 C   0  0  0  0  0  1  0  0  0  0  0  0
  192.4750  176.4300  148.9400 C   0  0  0  0  0  3  0  0  0  0  0  0
  193.4420  177.2940  149.7140 C   0  0  0  0  0  1  0  0  0  0  0  0
  185.1430  178.0360  138.5160 C   0  0  0  0  0  2  0  0  0  0  0  0
  184.7940  180.2830  139.2320 O   0  0  0  0  0  0  0  0  0  0  0  0
  184.3250  179.1110  139.1510 C   0  0  0  0  0  0  0  0  0  0  0  0
  182.3410  177.5900  139.7740 C   0  0  0  0  0  0  0  0  0  0  0  0
  182.9850  178.8660  139.6210 N   0  0  0  0  0  2  0  0  0  0  0  0
  180.8870  177.5430  140.0930 C   0  0  0  0  0  1  0  0  0  0  0  0
  182.9980  176.4830  139.6620 N   0  0  0  0  0  2  0  0  0  0  0  0
  1 35  1  0  0  0  0
  3  8  1  0  0  0  0
  3 10  1  0  0  0  0
  4  9  1  0  0  0  0
  4  8  2  0  0  0  0
  5  1  2  0  0  0  0
  6 12  2  0  0  0  0
  6  7  1  0  0  0  0
  7 11  2  0  0  0  0
  8 12  1  0  0  0  0
  9 14  1  1  0  0  0
  9  6  1  0  0  0  0
 10  2  2  0  0  0  0
 11  1  1  0  0  0  0
 12  5  1  0  0  0  0
 13 17  1  0  0  0  0
 13 14  1  0  0  0  0
 15 14  2  0  0  0  0
 16 15  1  0  0  0  0
 18 13  2  0  0  0  0
 19 18  1  0  0  0  0
 19 16  2  0  0  0  0
 20 19  1  0  0  0  0
 20 21  1  0  0  0  0
 22 21  1  0  0  0  0
 23 28  1  6  0  0  0
 23 25  1  0  0  0  0
 23 29  1  0  0  0  0
 24 21  1  1  0  0  0
 24 25  1  0  0  0  0
 26 24  1  0  0  0  0
 26 23  1  0  0  0  0
 28 27  1  0  0  0  0
 29 30  1  0  0  0  0
 30 31  1  0  0  0  0
 31 32  1  0  0  0  0
 32 33  1  0  0  0  0
 35 34  1  1  0  0  0
 35 39  1  0  0  0  0
 36 37  1  0  0  0  0
 36 39  2  0  0  0  0
 37 41  1  0  0  0  0
 39 42  1  0  0  0  0
 40 38  1  0  0  0  0
 41 45  1  0  0  0  0
 41 40  2  0  0  0  0
 42 49  1  0  0  0  0
 42 38  2  0  0  0  0
 44 47  2  0  0  0  0
 45 43  1  0  0  0  0
 46 47  2  0  0  0  0
 47 43  1  0  0  0  0
 49 48  1  6  0  0  0
 49 50  1  0  0  0  0
 50 51  1  0  0  0  0
 51 53  1  0  0  0  0
 52 53  1  0  0  0  0
 53 54  1  0  0  0  0
 55 10  1  0  0  0  0
 55 57  1  0  0  0  0
 57 56  2  0  0  0  0
 57 59  1  0  0  0  0
 58 60  1  0  0  0  0
 59 58  1  0  0  0  0
 61 58  2  0  0  0  0
M  END
>  <MODEL>
6

>  <REMARK>
 VINA RESULT:      -6.2      5.053     11.339
  Name = 
  18 active torsions:
  status: ('A' for Active; 'I' for Inactive)
    1  A    between atoms: C_2  and  C_40
    2  A    between atoms: C_7  and  C_30
    3  A    between atoms: C_7  and  C_49
    4  A    between atoms: N_11  and  C_36
    5  A    between atoms: C_15  and  C_18
    6  A    between atoms: C_17  and  C_41
    7  A    between atoms: C_18  and  C_48
    8  A    between atoms: C_20  and  C_40
    9  A    between atoms: C_21  and  C_22
   10  A    between atoms: C_21  and  C_53
   11  A    between atoms: C_22  and  C_46
   12  A    between atoms: C_23  and  C_30
   13  A    between atoms: N_24  and  C_38
   14  A    between atoms: N_24  and  C_43
   15  A    between atoms: C_32  and  C_44
   16  A    between atoms: C_36  and  C_49
   17  A    between atoms: C_38  and  C_58
   18  A    between atoms: C_42  and  C_53
                            x       y       z     vdW  Elec       q    Type
                         _______ _______ _______ _____ _____    ______ ____

>  <TORSDO>
F 18

$$$$
=
 OpenBabel10232407513D

 61 65  0  0  1  0  0  0  0  0999 V2000
  189.3000  178.1000  140.8860 C   0  0  0  0  0  0  0  0  0  0  0  0
  185.3330  178.3690  141.1160 O   0  0  0  0  0  0  0  0  0  0  0  0
  185.1930  178.7690  138.8030 N   0  0  0  0  0  2  0  0  0  0  0  0
  186.5980  177.7860  137.1480 N   0  0  0  0  0  0  0  0  0  0  0  0
  187.9930  178.3760  140.4330 C   0  0  0  0  0  3  0  0  0  0  0  0
  188.4880  177.2270  138.3670 C   0  0  0  0  0  0  0  0  0  0  0  0
  189.7970  176.9580  138.7750 C   0  0  0  0  0  3  0  0  0  0  0  0
  186.4410  178.2100  138.3660 C   0  0  0  0  0  0  0  0  0  0  0  0
  187.8880  177.1060  137.0030 C   0  0  1  0  0  3  0  0  0  0  0  0
  184.6420  178.7490  140.1280 C   0  0  0  0  0  0  0  0  0  0  0  0
  190.1940  177.3830  140.0560 C   0  0  0  0  0  3  0  0  0  0  0  0
  187.6090  177.9020  139.1770 C   0  0  0  0  0  0  0  0  0  0  0  0
  187.0730  175.4200  135.3020 C   0  0  0  0  0  0  0  0  0  0  0  0
  187.6690  175.6780  136.5510 C   0  0  0  0  0  0  0  0  0  0  0  0
  187.8360  174.6160  137.4470 C   0  0  0  0  0  3  0  0  0  0  0  0
  187.3940  173.3350  137.1050 C   0  0  0  0  0  3  0  0  0  0  0  0
  186.7650  176.5330  134.3500 C   0  0  0  0  0  1  0  0  0  0  0  0
  186.6530  174.1620  134.9880 N   0  0  0  0  0  0  0  0  0  0  0  0
  186.7740  173.1330  135.8720 C   0  0  0  0  0  0  0  0  0  0  0  0
  186.2030  171.7890  135.5480 C   0  0  0  0  0  2  0  0  0  0  0  0
  184.8250  171.9220  135.0920 N   0  0  0  0  0  0  0  0  0  0  0  0
  184.5210  170.7900  134.4090 O   0  0  0  0  0  1  0  0  0  0  0  0
  182.2460  173.0620  136.2300 C   0  0  1  0  0  0  0  0  0  0  0  0
  183.9720  172.0330  136.2790 C   0  0  1  0  0  3  0  0  0  0  0  0
  183.6000  173.3870  136.4430 O   0  0  0  0  0  0  0  0  0  0  0  0
  182.5380  171.5960  136.0280 C   0  0  0  0  0  2  0  0  0  0  0  0
  180.4400  172.3680  137.6700 O   0  0  0  0  0  1  0  0  0  0  0  0
  181.4500  173.3200  137.5060 C   0  0  0  0  0  2  0  0  0  0  0  0
  181.6300  173.7870  135.0250 C   0  0  0  0  0  2  0  0  0  0  0  0
  180.6620  174.9180  135.3890 C   0  0  0  0  0  2  0  0  0  0  0  0
  181.3940  176.2480  135.4780 C   0  0  0  0  0  2  0  0  0  0  0  0
  182.7800  176.0860  135.0620 N   0  0  0  0  0  2  0  0  0  0  0  0
  183.5140  176.9130  135.8390 O   0  0  0  0  0  1  0  0  0  0  0  0
  191.1670  178.5090  142.3110 O   0  0  0  0  0  1  0  0  0  0  0  0
  189.7690  178.5450  142.2400 C   0  0  2  0  0  3  0  0  0  0  0  0
  187.7770  177.6200  143.2610 C   0  0  0  0  0  3  0  0  0  0  0  0
  186.9330  176.8700  144.2390 C   0  0  0  0  0  2  0  0  0  0  0  0
  189.3600  177.3490  145.8450 C   0  0  0  0  0  3  0  0  0  0  0  0
  189.0950  177.8290  143.3940 C   0  0  0  0  0  0  0  0  0  0  0  0
  187.9990  177.7130  146.2870 C   0  0  0  0  0  3  0  0  0  0  0  0
  186.8880  177.5580  145.5710 C   0  0  0  0  0  0  0  0  0  0  0  0
  189.8660  177.3630  144.5950 C   0  0  0  0  0  0  0  0  0  0  0  0
  185.4860  179.2150  146.5120 O   0  0  0  0  0  0  0  0  0  0  0  0
  182.9170  179.1650  145.4370 O   0  0  0  0  0  0  0  0  0  0  0  0
  185.5830  177.8970  146.2410 C   0  0  0  0  0  2  0  0  0  0  0  0
  185.1240  179.5560  143.9180 O   0  0  0  0  0  0  0  0  0  0  0  0
  184.5330  178.8250  145.1020 P   0  0  0  0  0  0  0  0  0  0  0  0
  191.2960  175.5840  143.9560 O   0  0  0  0  0  1  0  0  0  0  0  0
  191.2880  176.8960  144.4290 C   0  0  2  0  0  3  0  0  0  0  0  0
  192.0730  176.9790  145.7330 C   0  0  0  0  0  2  0  0  0  0  0  0
  191.6680  175.8840  146.7110 C   0  0  0  0  0  2  0  0  0  0  0  0
  192.3400  177.1390  148.7700 C   0  0  0  0  0  1  0  0  0  0  0  0
  192.5860  175.9010  147.9230 C   0  0  0  0  0  3  0  0  0  0  0  0
  192.3580  174.6650  148.7620 C   0  0  0  0  0  1  0  0  0  0  0  0
  183.1860  179.0480  140.3170 C   0  0  0  0  0  2  0  0  0  0  0  0
  182.3920  176.9920  139.4060 O   0  0  0  0  0  0  0  0  0  0  0  0
  182.3270  178.2560  139.3880 C   0  0  0  0  0  0  0  0  0  0  0  0
  181.2650  180.2920  138.2190 C   0  0  0  0  0  0  0  0  0  0  0  0
  181.3740  178.8880  138.5100 N   0  0  0  0  0  2  0  0  0  0  0  0
  180.0990  180.7830  137.4350 C   0  0  0  0  0  1  0  0  0  0  0  0
  182.1660  181.1340  138.6040 N   0  0  0  0  0  2  0  0  0  0  0  0
  1 35  1  0  0  0  0
  3 10  1  0  0  0  0
  4  8  2  0  0  0  0
  5  1  1  0  0  0  0
  6  7  2  0  0  0  0
  6 12  1  0  0  0  0
  7 11  1  0  0  0  0
  8  3  1  0  0  0  0
  8 12  1  0  0  0  0
  9 14  1  1  0  0  0
  9  4  1  0  0  0  0
  9  6  1  0  0  0  0
 10 55  1  0  0  0  0
 10  2  2  0  0  0  0
 11  1  2  0  0  0  0
 12  5  2  0  0  0  0
 13 14  1  0  0  0  0
 14 15  2  0  0  0  0
 16 15  1  0  0  0  0
 17 13  1  0  0  0  0
 18 13  2  0  0  0  0
 18 19  1  0  0  0  0
 19 16  2  0  0  0  0
 20 19  1  0  0  0  0
 21 20  1  0  0  0  0
 22 21  1  0  0  0  0
 23 29  1  6  0  0  0
 23 25  1  0  0  0  0
 23 28  1  0  0  0  0
 24 21  1  6  0  0  0
 24 25  1  0  0  0  0
 26 23  1  0  0  0  0
 26 24  1  0  0  0  0
 28 27  1  0  0  0  0
 29 30  1  0  0  0  0
 30 31  1  0  0  0  0
 32 31  1  0  0  0  0
 32 33  1  0  0  0  0
 35 34  1  6  0  0  0
 35 39  1  0  0  0  0
 36 39  2  0  0  0  0
 36 37  1  0  0  0  0
 37 41  1  0  0  0  0
 38 40  1  0  0  0  0
 39 42  1  0  0  0  0
 41 45  1  0  0  0  0
 41 40  2  0  0  0  0
 42 38  2  0  0  0  0
 45 43  1  0  0  0  0
 46 47  2  0  0  0  0
 47 44  2  0  0  0  0
 47 43  1  0  0  0  0
 49 48  1  1  0  0  0
 49 42  1  0  0  0  0
 49 50  1  0  0  0  0
 50 51  1  0  0  0  0
 51 53  1  0  0  0  0
 53 54  1  0  0  0  0
 53 52  1  0  0  0  0
 57 56  2  0  0  0  0
 57 55  1  0  0  0  0
 58 59  1  0  0  0  0
 58 61  2  0  0  0  0
 59 57  1  0  0  0  0
 60 58  1  0  0  0  0
M  END
>  <MODEL>
7

>  <REMARK>
 VINA RESULT:      -6.1      3.364     11.444
  Name = 
  18 active torsions:
  status: ('A' for Active; 'I' for Inactive)
    1  A    between atoms: C_2  and  C_40
    2  A    between atoms: C_7  and  C_30
    3  A    between atoms: C_7  and  C_49
    4  A    between atoms: N_11  and  C_36
    5  A    between atoms: C_15  and  C_18
    6  A    between atoms: C_17  and  C_41
    7  A    between atoms: C_18  and  C_48
    8  A    between atoms: C_20  and  C_40
    9  A    between atoms: C_21  and  C_22
   10  A    between atoms: C_21  and  C_53
   11  A    between atoms: C_22  and  C_46
   12  A    between atoms: C_23  and  C_30
   13  A    between atoms: N_24  and  C_38
   14  A    between atoms: N_24  and  C_43
   15  A    between atoms: C_32  and  C_44
   16  A    between atoms: C_36  and  C_49
   17  A    between atoms: C_38  and  C_58
   18  A    between atoms: C_42  and  C_53
                            x       y       z     vdW  Elec       q    Type
                         _______ _______ _______ _____ _____    ______ ____

>  <TORSDO>
F 18

$$$$
=
 OpenBabel10232407513D

 61 65  0  0  1  0  0  0  0  0999 V2000
  187.1400  177.3620  137.0610 C   0  0  0  0  0  0  0  0  0  0  0  0
  188.9440  178.5010  140.4240 O   0  0  0  0  0  0  0  0  0  0  0  0
  190.1590  176.4880  140.4930 N   0  0  0  0  0  2  0  0  0  0  0  0
  190.9940  175.3180  138.5930 N   0  0  0  0  0  0  0  0  0  0  0  0
  187.9370  177.2160  138.2150 C   0  0  0  0  0  3  0  0  0  0  0  0
  189.6010  176.0630  136.8960 C   0  0  0  0  0  0  0  0  0  0  0  0
  188.8250  176.1690  135.7390 C   0  0  0  0  0  3  0  0  0  0  0  0
  190.0950  176.0980  139.1130 C   0  0  0  0  0  0  0  0  0  0  0  0
  190.8060  175.2130  137.1430 C   0  0  1  0  0  3  0  0  0  0  0  0
  189.6720  177.7030  141.0820 C   0  0  0  0  0  0  0  0  0  0  0  0
  187.5930  176.8440  135.8240 C   0  0  0  0  0  3  0  0  0  0  0  0
  189.1760  176.5840  138.0940 C   0  0  0  0  0  0  0  0  0  0  0  0
  192.4180  175.1140  135.1940 C   0  0  0  0  0  0  0  0  0  0  0  0
  192.0520  175.6900  136.4260 C   0  0  0  0  0  0  0  0  0  0  0  0
  192.9680  176.5250  137.0750 C   0  0  0  0  0  3  0  0  0  0  0  0
  194.2260  176.7570  136.5100 C   0  0  0  0  0  3  0  0  0  0  0  0
  191.5260  174.1240  134.5120 C   0  0  0  0  0  1  0  0  0  0  0  0
  193.6480  175.3570  134.6610 N   0  0  0  0  0  0  0  0  0  0  0  0
  194.5590  176.1350  135.3070 C   0  0  0  0  0  0  0  0  0  0  0  0
  195.9410  176.2930  134.7570 C   0  0  0  0  0  2  0  0  0  0  0  0
  196.8640  175.3990  135.4460 N   0  0  0  0  0  0  0  0  0  0  0  0
  197.6090  176.1640  136.2830 O   0  0  0  0  0  1  0  0  0  0  0  0
  196.8080  172.6580  136.7610 C   0  0  1  0  0  0  0  0  0  0  0  0
  196.0650  174.4460  136.2220 C   0  0  1  0  0  3  0  0  0  0  0  0
  196.1690  173.1720  135.6170 O   0  0  0  0  0  0  0  0  0  0  0  0
  196.7570  173.9770  137.4910 C   0  0  0  0  0  2  0  0  0  0  0  0
  194.8770  171.2260  136.5650 O   0  0  0  0  0  1  0  0  0  0  0  0
  195.9200  171.6040  137.4150 C   0  0  0  0  0  2  0  0  0  0  0  0
  198.2140  172.1110  136.4770 C   0  0  0  0  0  2  0  0  0  0  0  0
  198.2760  170.5960  136.2570 C   0  0  0  0  0  2  0  0  0  0  0  0
  199.6640  170.0610  136.5700 C   0  0  0  0  0  2  0  0  0  0  0  0
  199.5650  168.7870  137.2680 N   0  0  0  0  0  2  0  0  0  0  0  0
  198.9850  169.0460  138.4620 O   0  0  0  0  0  1  0  0  0  0  0  0
  185.9700  179.3730  137.5820 O   0  0  0  0  0  1  0  0  0  0  0  0
  185.8150  178.0640  137.1090 C   0  0  2  0  0  3  0  0  0  0  0  0
  184.4590  176.0720  137.3500 C   0  0  0  0  0  3  0  0  0  0  0  0
  183.4860  175.1140  137.9570 C   0  0  0  0  0  2  0  0  0  0  0  0
  182.7350  177.6170  139.3250 C   0  0  0  0  0  3  0  0  0  0  0  0
  184.7320  177.2910  137.8370 C   0  0  0  0  0  0  0  0  0  0  0  0
  181.7780  176.7620  138.5950 C   0  0  0  0  0  3  0  0  0  0  0  0
  182.0870  175.6540  137.9250 C   0  0  0  0  0  0  0  0  0  0  0  0
  184.0330  177.8520  139.0400 C   0  0  0  0  0  0  0  0  0  0  0  0
  180.0350  175.6680  136.7480 O   0  0  0  0  0  0  0  0  0  0  0  0
  180.0640  173.9630  134.5460 O   0  0  0  0  0  0  0  0  0  0  0  0
  180.9500  174.8660  137.3330 C   0  0  0  0  0  2  0  0  0  0  0  0
  181.8080  176.0150  134.8220 O   0  0  0  0  0  0  0  0  0  0  0  0
  181.0400  174.9230  135.5300 P   0  0  0  0  0  0  0  0  0  0  0  0
  185.9320  178.0820  140.4390 O   0  0  0  0  0  1  0  0  0  0  0  0
  184.7890  178.7430  139.9910 C   0  0  2  0  0  3  0  0  0  0  0  0
  183.9350  179.1640  141.1810 C   0  0  0  0  0  2  0  0  0  0  0  0
  184.7000  179.0550  142.4950 C   0  0  0  0  0  2  0  0  0  0  0  0
  184.3180  178.8830  144.9620 C   0  0  0  0  0  1  0  0  0  0  0  0
  183.7890  178.5160  143.5860 C   0  0  0  0  0  3  0  0  0  0  0  0
  182.3940  179.0730  143.4180 C   0  0  0  0  0  1  0  0  0  0  0  0
  190.1510  178.0960  142.4460 C   0  0  0  0  0  2  0  0  0  0  0  0
  192.3340  177.2920  141.9260 O   0  0  0  0  0  0  0  0  0  0  0  0
  191.4330  177.4210  142.8050 C   0  0  0  0  0  0  0  0  0  0  0  0
  190.7620  176.8640  145.2290 C   0  0  0  0  0  0  0  0  0  0  0  0
  191.7010  176.9640  144.1460 N   0  0  0  0  0  2  0  0  0  0  0  0
  191.2610  176.5500  146.5970 C   0  0  0  0  0  1  0  0  0  0  0  0
  189.4930  177.0180  145.0410 N   0  0  0  0  0  2  0  0  0  0  0  0
  1 35  1  0  0  0  0
  1  5  1  0  0  0  0
  2 10  2  0  0  0  0
  3 10  1  0  0  0  0
  4  8  2  0  0  0  0
  6  9  1  0  0  0  0
  6 12  1  0  0  0  0
  7 11  1  0  0  0  0
  7  6  2  0  0  0  0
  8  3  1  0  0  0  0
  9 14  1  6  0  0  0
  9  4  1  0  0  0  0
 10 55  1  0  0  0  0
 11  1  2  0  0  0  0
 12  5  2  0  0  0  0
 12  8  1  0  0  0  0
 13 14  1  0  0  0  0
 14 15  2  0  0  0  0
 16 15  1  0  0  0  0
 17 13  1  0  0  0  0
 18 13  2  0  0  0  0
 18 19  1  0  0  0  0
 19 16  2  0  0  0  0
 20 19  1  0  0  0  0
 20 21  1  0  0  0  0
 21 22  1  0  0  0  0
 23 29  1  6  0  0  0
 23 28  1  0  0  0  0
 23 26  1  0  0  0  0
 24 21  1  6  0  0  0
 24 26  1  0  0  0  0
 25 24  1  0  0  0  0
 25 23  1  0  0  0  0
 27 28  1  0  0  0  0
 30 29  1  0  0  0  0
 30 31  1  0  0  0  0
 31 32  1  0  0  0  0
 32 33  1  0  0  0  0
 35 34  1  1  0  0  0
 35 39  1  0  0  0  0
 36 39  2  0  0  0  0
 36 37  1  0  0  0  0
 39 42  1  0  0  0  0
 40 38  1  0  0  0  0
 41 37  1  0  0  0  0
 41 40  2  0  0  0  0
 42 38  2  0  0  0  0
 42 49  1  0  0  0  0
 43 45  1  0  0  0  0
 44 47  2  0  0  0  0
 45 41  1  0  0  0  0
 46 47  2  0  0  0  0
 47 43  1  0  0  0  0
 49 48  1  1  0  0  0
 49 50  1  0  0  0  0
 50 51  1  0  0  0  0
 51 53  1  0  0  0  0
 53 52  1  0  0  0  0
 54 53  1  0  0  0  0
 55 57  1  0  0  0  0
 56 57  2  0  0  0  0
 57 59  1  0  0  0  0
 58 60  1  0  0  0  0
 59 58  1  0  0  0  0
 61 58  2  0  0  0  0
M  END
>  <MODEL>
8

>  <REMARK>
 VINA RESULT:      -5.9      5.243      9.335
  Name = 
  18 active torsions:
  status: ('A' for Active; 'I' for Inactive)
    1  A    between atoms: C_2  and  C_40
    2  A    between atoms: C_7  and  C_30
    3  A    between atoms: C_7  and  C_49
    4  A    between atoms: N_11  and  C_36
    5  A    between atoms: C_15  and  C_18
    6  A    between atoms: C_17  and  C_41
    7  A    between atoms: C_18  and  C_48
    8  A    between atoms: C_20  and  C_40
    9  A    between atoms: C_21  and  C_22
   10  A    between atoms: C_21  and  C_53
   11  A    between atoms: C_22  and  C_46
   12  A    between atoms: C_23  and  C_30
   13  A    between atoms: N_24  and  C_38
   14  A    between atoms: N_24  and  C_43
   15  A    between atoms: C_32  and  C_44
   16  A    between atoms: C_36  and  C_49
   17  A    between atoms: C_38  and  C_58
   18  A    between atoms: C_42  and  C_53
                            x       y       z     vdW  Elec       q    Type
                         _______ _______ _______ _____ _____    ______ ____

>  <TORSDO>
F 18

$$$$
=
 OpenBabel10232407513D

 61 65  0  0  1  0  0  0  0  0999 V2000
  187.6300  175.4140  136.5400 C   0  0  0  0  0  0  0  0  0  0  0  0
  191.0640  173.4300  136.1780 O   0  0  0  0  0  0  0  0  0  0  0  0
  192.2830  175.3940  136.6130 N   0  0  0  0  0  2  0  0  0  0  0  0
  191.6270  177.1150  138.1240 N   0  0  0  0  0  0  0  0  0  0  0  0
  189.0270  175.2540  136.4310 C   0  0  0  0  0  3  0  0  0  0  0  0
  189.3290  176.8320  138.2350 C   0  0  0  0  0  0  0  0  0  0  0  0
  187.9520  177.0320  138.3540 C   0  0  0  0  0  3  0  0  0  0  0  0
  191.2890  176.1700  137.2990 C   0  0  0  0  0  0  0  0  0  0  0  0
  190.4460  177.6340  138.8210 C   0  0  1  0  0  3  0  0  0  0  0  0
  192.1740  174.0350  136.1630 C   0  0  0  0  0  0  0  0  0  0  0  0
  187.0980  176.2970  137.5100 C   0  0  0  0  0  3  0  0  0  0  0  0
  189.8490  175.9590  137.3120 C   0  0  0  0  0  0  0  0  0  0  0  0
  191.9020  177.3530  140.8720 C   0  0  0  0  0  0  0  0  0  0  0  0
  190.6120  177.4570  140.3160 C   0  0  0  0  0  0  0  0  0  0  0  0
  189.5070  177.1630  141.1230 C   0  0  0  0  0  3  0  0  0  0  0  0
  189.6960  176.7540  142.4470 C   0  0  0  0  0  3  0  0  0  0  0  0
  193.1230  177.5430  140.0280 C   0  0  0  0  0  1  0  0  0  0  0  0
  192.0620  176.9570  142.1660 N   0  0  0  0  0  0  0  0  0  0  0  0
  190.9930  176.6290  142.9440 C   0  0  0  0  0  0  0  0  0  0  0  0
  191.2010  176.0880  144.3230 C   0  0  0  0  0  2  0  0  0  0  0  0
  191.6950  177.1370  145.2080 N   0  0  0  0  0  0  0  0  0  0  0  0
  191.3110  178.3220  144.6710 O   0  0  0  0  0  1  0  0  0  0  0  0
  189.1190  177.3960  146.8020 C   0  0  1  0  0  0  0  0  0  0  0  0
  191.0580  176.9530  146.5160 C   0  0  1  0  0  3  0  0  0  0  0  0
  190.3260  178.1210  146.8300 O   0  0  0  0  0  0  0  0  0  0  0  0
  189.8030  176.0970  146.4560 C   0  0  0  0  0  2  0  0  0  0  0  0
  188.7830  178.5490  148.8950 O   0  0  0  0  0  1  0  0  0  0  0  0
  188.5060  177.3680  148.2000 C   0  0  0  0  0  2  0  0  0  0  0  0
  188.1200  177.9180  145.7600 C   0  0  0  0  0  2  0  0  0  0  0  0
  186.6660  177.5050  146.0080 C   0  0  0  0  0  2  0  0  0  0  0  0
  185.7300  178.2180  145.0460 C   0  0  0  0  0  2  0  0  0  0  0  0
  184.7260  178.9700  145.7870 N   0  0  0  0  0  2  0  0  0  0  0  0
  185.2280  179.1630  147.0270 O   0  0  0  0  0  1  0  0  0  0  0  0
  187.2030  174.5610  134.3560 O   0  0  0  0  0  1  0  0  0  0  0  0
  186.6840  174.6600  135.6530 C   0  0  2  0  0  3  0  0  0  0  0  0
  185.1200  176.5070  135.5950 C   0  0  0  0  0  3  0  0  0  0  0  0
  183.8080  177.2210  135.5330 C   0  0  0  0  0  2  0  0  0  0  0  0
  182.9520  174.5540  136.4590 C   0  0  0  0  0  3  0  0  0  0  0  0
  185.2590  175.1770  135.6870 C   0  0  0  0  0  0  0  0  0  0  0  0
  182.6060  175.8130  137.1500 C   0  0  0  0  0  3  0  0  0  0  0  0
  183.0150  177.0280  136.7910 C   0  0  0  0  0  0  0  0  0  0  0  0
  184.0840  174.2490  135.7910 C   0  0  0  0  0  0  0  0  0  0  0  0
  182.4890  177.9690  138.8970 O   0  0  0  0  0  0  0  0  0  0  0  0
  183.5970  180.5020  139.2330 O   0  0  0  0  0  0  0  0  0  0  0  0
  182.4680  178.1960  137.5680 C   0  0  0  0  0  2  0  0  0  0  0  0
  185.1050  178.3060  138.7500 O   0  0  0  0  0  0  0  0  0  0  0  0
  183.8080  179.0240  138.4520 P   0  0  0  0  0  0  0  0  0  0  0  0
  182.8740  172.3250  135.1210 O   0  0  0  0  0  1  0  0  0  0  0  0
  184.1480  172.8930  135.1410 C   0  0  2  0  0  3  0  0  0  0  0  0
  185.1170  171.9590  135.8580 C   0  0  0  0  0  2  0  0  0  0  0  0
  185.9980  171.1950  134.8790 C   0  0  0  0  0  2  0  0  0  0  0  0
  188.4680  171.3930  134.5220 C   0  0  0  0  0  1  0  0  0  0  0  0
  187.3740  170.9650  135.4850 C   0  0  0  0  0  3  0  0  0  0  0  0
  187.5070  171.7400  136.7750 C   0  0  0  0  0  1  0  0  0  0  0  0
  193.4200  173.2830  135.8060 C   0  0  0  0  0  2  0  0  0  0  0  0
  194.5330  173.7260  137.8670 O   0  0  0  0  0  0  0  0  0  0  0  0
  194.1830  172.8580  137.0160 C   0  0  0  0  0  0  0  0  0  0  0  0
  194.3240  170.3670  136.3710 C   0  0  0  0  0  0  0  0  0  0  0  0
  194.4810  171.4720  137.2770 N   0  0  0  0  0  2  0  0  0  0  0  0
  194.5030  168.9790  136.8780 C   0  0  0  0  0  1  0  0  0  0  0  0
  194.0520  170.5520  135.1210 N   0  0  0  0  0  2  0  0  0  0  0  0
  1 11  1  0  0  0  0
  3  8  1  0  0  0  0
  4  9  1  0  0  0  0
  5  1  2  0  0  0  0
  5 12  1  0  0  0  0
  6  7  1  0  0  0  0
  6  9  1  0  0  0  0
  8 12  1  0  0  0  0
  8  4  2  0  0  0  0
  9 14  1  1  0  0  0
 10  2  2  0  0  0  0
 10  3  1  0  0  0  0
 11  7  2  0  0  0  0
 12  6  2  0  0  0  0
 13 18  1  0  0  0  0
 14 13  2  0  0  0  0
 14 15  1  0  0  0  0
 15 16  2  0  0  0  0
 16 19  1  0  0  0  0
 17 13  1  0  0  0  0
 18 19  2  0  0  0  0
 19 20  1  0  0  0  0
 20 21  1  0  0  0  0
 22 21  1  0  0  0  0
 23 29  1  6  0  0  0
 23 25  1  0  0  0  0
 23 28  1  0  0  0  0
 24 21  1  6  0  0  0
 24 25  1  0  0  0  0
 26 24  1  0  0  0  0
 26 23  1  0  0  0  0
 28 27  1  0  0  0  0
 29 30  1  0  0  0  0
 31 32  1  0  0  0  0
 31 30  1  0  0  0  0
 32 33  1  0  0  0  0
 35 34  1  6  0  0  0
 35 39  1  0  0  0  0
 35  1  1  0  0  0  0
 36 39  2  0  0  0  0
 37 36  1  0  0  0  0
 37 41  1  0  0  0  0
 38 40  1  0  0  0  0
 39 42  1  0  0  0  0
 41 40  2  0  0  0  0
 41 45  1  0  0  0  0
 42 38  2  0  0  0  0
 45 43  1  0  0  0  0
 47 46  2  0  0  0  0
 47 43  1  0  0  0  0
 47 44  2  0  0  0  0
 49 48  1  1  0  0  0
 49 42  1  0  0  0  0
 49 50  1  0  0  0  0
 51 53  1  0  0  0  0
 51 50  1  0  0  0  0
 52 53  1  0  0  0  0
 53 54  1  0  0  0  0
 55 10  1  0  0  0  0
 55 57  1  0  0  0  0
 57 59  1  0  0  0  0
 57 56  2  0  0  0  0
 58 60  1  0  0  0  0
 58 59  1  0  0  0  0
 61 58  2  0  0  0  0
M  END
>  <MODEL>
9

>  <REMARK>
 VINA RESULT:      -5.7      3.632      7.144
  Name = 
  18 active torsions:
  status: ('A' for Active; 'I' for Inactive)
    1  A    between atoms: C_2  and  C_40
    2  A    between atoms: C_7  and  C_30
    3  A    between atoms: C_7  and  C_49
    4  A    between atoms: N_11  and  C_36
    5  A    between atoms: C_15  and  C_18
    6  A    between atoms: C_17  and  C_41
    7  A    between atoms: C_18  and  C_48
    8  A    between atoms: C_20  and  C_40
    9  A    between atoms: C_21  and  C_22
   10  A    between atoms: C_21  and  C_53
   11  A    between atoms: C_22  and  C_46
   12  A    between atoms: C_23  and  C_30
   13  A    between atoms: N_24  and  C_38
   14  A    between atoms: N_24  and  C_43
   15  A    between atoms: C_32  and  C_44
   16  A    between atoms: C_36  and  C_49
   17  A    between atoms: C_38  and  C_58
   18  A    between atoms: C_42  and  C_53
                            x       y       z     vdW  Elec       q    Type
                         _______ _______ _______ _____ _____    ______ ____

>  <TORSDO>
F 18

$$$$
