=
 OpenBabel10232410483D

 35 38  0  0  1  0  0  0  0  0999 V2000
  191.4570  177.0490  139.5230 C   0  0  0  0  0  0  0  0  0  0  0  0
  190.5640  177.5210  138.5660 C   0  0  0  0  0  3  0  0  0  0  0  0
  188.9200  178.0030  140.2930 C   0  0  0  0  0  0  0  0  0  0  0  0
  189.8340  177.5350  141.2690 C   0  0  0  0  0  0  0  0  0  0  0  0
  191.0890  177.0630  140.8690 C   0  0  0  0  0  3  0  0  0  0  0  0
  189.2980  178.0060  138.9230 C   0  0  0  0  0  0  0  0  0  0  0  0
  187.2880  178.4720  140.7930 Cl  0  0  0  0  0  0  0  0  0  0  0  0
  188.8290  177.5390  145.4410 C   0  0  0  0  0  0  0  0  0  0  0  0
  188.4480  176.7490  143.1830 C   0  0  0  0  0  3  0  0  0  0  0  0
  189.5160  177.5290  142.7130 C   0  0  0  0  0  0  0  0  0  0  0  0
  189.8930  178.3230  144.9800 C   0  0  0  0  0  3  0  0  0  0  0  0
  188.1090  176.7510  144.5380 C   0  0  0  0  0  3  0  0  0  0  0  0
  190.2370  178.3250  143.6250 C   0  0  0  0  0  0  0  0  0  0  0  0
  191.3020  179.1100  143.1990 O   0  0  0  0  0  1  0  0  0  0  0  0
  188.4510  177.5200  146.8900 C   0  0  2  0  0  3  0  0  0  0  0  0
  187.6880  178.7110  147.2340 N   0  0  0  0  0  2  0  0  0  0  0  0
  184.1620  178.2760  146.6670 O   0  0  0  0  0  0  0  0  0  0  0  0
  185.6760  179.3760  145.2940 N   0  0  0  0  0  1  0  0  0  0  0  0
  186.3590  178.3070  147.4180 N   0  0  0  0  0  2  0  0  0  0  0  0
  185.3500  178.6390  146.4670 C   0  0  0  0  0  0  0  0  0  0  0  0
  189.6970  177.4220  147.7610 C   0  0  0  0  0  2  0  0  0  0  0  0
  190.6230  176.3220  147.2680 C   0  0  0  0  0  2  0  0  0  0  0  0
  191.9530  176.7200  147.4050 O   0  0  0  0  0  1  0  0  0  0  0  0
  188.5780  179.6480  137.3420 O   0  0  0  0  0  0  0  0  0  0  0  0
  188.4300  178.4920  137.8260 C   0  0  0  0  0  0  0  0  0  0  0  0
  187.4490  177.6430  137.3040 O   0  0  0  0  0  0  0  0  0  0  0  0
  187.7620  176.5560  136.4430 C   0  0  0  0  0  2  0  0  0  0  0  0
  188.0840  175.3790  137.2340 N   0  0  0  0  0  2  0  0  0  0  0  0
  190.0090  174.0030  137.4740 N   0  0  0  0  0  2  0  0  0  0  0  0
  189.1090  174.6510  136.5090 C   0  0  1  0  0  3  0  0  0  0  0  0
  188.9760  173.2240  136.7770 C   0  0  0  0  0  2  0  0  0  0  0  0
  192.7360  176.5670  139.1080 N   0  0  0  0  0  2  0  0  0  0  0  0
  193.9860  176.8720  137.2080 O   0  0  0  0  0  0  0  0  0  0  0  0
  194.3600  175.6230  137.6710 N   0  0  0  0  0  2  0  0  0  0  0  0
  193.0060  176.1080  137.7540 C   0  0  1  0  0  3  0  0  0  0  0  0
  1  5  1  0  0  0  0
  2  6  1  0  0  0  0
  2  1  2  0  0  0  0
  3  7  1  0  0  0  0
  3  4  1  0  0  0  0
  4 10  1  0  0  0  0
  5  4  2  0  0  0  0
  6  3  2  0  0  0  0
  8 15  1  0  0  0  0
  9 12  1  0  0  0  0
 10  9  2  0  0  0  0
 10 13  1  0  0  0  0
 11  8  1  0  0  0  0
 12  8  2  0  0  0  0
 13 11  2  0  0  0  0
 14 13  1  0  0  0  0
 15 16  1  0  0  0  0
 15 21  1  1  0  0  0
 16 19  1  0  0  0  0
 18 20  1  0  0  0  0
 20 17  2  0  0  0  0
 20 19  1  0  0  0  0
 22 23  1  0  0  0  0
 22 21  1  0  0  0  0
 24 25  2  0  0  0  0
 25  6  1  0  0  0  0
 26 25  1  0  0  0  0
 27 28  1  0  0  0  0
 27 26  1  0  0  0  0
 30 31  1  0  0  0  0
 30 28  1  1  0  0  0
 30 29  1  0  0  0  0
 31 29  1  0  0  0  0
 32  1  1  0  0  0  0
 33 34  1  0  0  0  0
 33 35  1  0  0  0  0
 34 35  1  0  0  0  0
 35 32  1  1  0  0  0
M  END
>  <MODEL>
1

>  <REMARK>
 VINA RESULT:      -7.6      0.000      0.000
  Name = 
  13 active torsions:
  status: ('A' for Active; 'I' for Inactive)
    1  A    between atoms: C_2  and  C_19
    2  A    between atoms: N_3  and  C_7
    3  A    between atoms: N_3  and  C_33
    4  A    between atoms: N_4  and  C_19
    5  A    between atoms: N_4  and  N_25
    6  A    between atoms: C_6  and  C_11
    7  A    between atoms: N_9  and  C_17
    8  A    between atoms: N_9  and  C_29
    9  A    between atoms: C_17  and  O_20
   10  A    between atoms: C_18  and  C_31
   11  A    between atoms: C_19  and  C_31
   12  A    between atoms: O_20  and  C_24
   13  A    between atoms: C_24  and  C_26
                            x       y       z     vdW  Elec       q    Type
                         _______ _______ _______ _____ _____    ______ ____

>  <TORSDO>
F 13

$$$$
=
 OpenBabel10232410483D

 35 38  0  0  1  0  0  0  0  0999 V2000
  190.7760  176.6140  138.8490 C   0  0  0  0  0  0  0  0  0  0  0  0
  189.8860  177.1700  137.9350 C   0  0  0  0  0  3  0  0  0  0  0  0
  188.4290  177.8890  139.7460 C   0  0  0  0  0  0  0  0  0  0  0  0
  189.3430  177.3340  140.6760 C   0  0  0  0  0  0  0  0  0  0  0  0
  190.5030  176.7030  140.2140 C   0  0  0  0  0  3  0  0  0  0  0  0
  188.7140  177.8140  138.3560 C   0  0  0  0  0  0  0  0  0  0  0  0
  186.9030  178.5660  140.3330 Cl  0  0  0  0  0  0  0  0  0  0  0  0
  188.6260  177.5660  144.9010 C   0  0  0  0  0  0  0  0  0  0  0  0
  187.9290  176.8980  142.6810 C   0  0  0  0  0  3  0  0  0  0  0  0
  189.1220  177.4000  142.1370 C   0  0  0  0  0  0  0  0  0  0  0  0
  189.8170  178.0740  144.3670 C   0  0  0  0  0  3  0  0  0  0  0  0
  187.6850  176.9760  144.0530 C   0  0  0  0  0  3  0  0  0  0  0  0
  190.0670  177.9980  142.9950 C   0  0  0  0  0  0  0  0  0  0  0  0
  191.2610  178.5070  142.4950 O   0  0  0  0  0  1  0  0  0  0  0  0
  188.3450  177.6330  146.3710 C   0  0  2  0  0  3  0  0  0  0  0  0
  189.0540  176.5740  147.0750 N   0  0  0  0  0  2  0  0  0  0  0  0
  192.2790  177.3190  148.4840 O   0  0  0  0  0  0  0  0  0  0  0  0
  191.7850  175.7010  146.8940 N   0  0  0  0  0  1  0  0  0  0  0  0
  190.0510  177.1890  147.8440 N   0  0  0  0  0  2  0  0  0  0  0  0
  191.4080  176.7580  147.7700 C   0  0  0  0  0  0  0  0  0  0  0  0
  186.8480  177.5290  146.6300 C   0  0  0  0  0  2  0  0  0  0  0  0
  186.2540  178.8890  146.9590 C   0  0  0  0  0  2  0  0  0  0  0  0
  184.8620  178.8080  146.9850 O   0  0  0  0  0  1  0  0  0  0  0  0
  187.8570  179.6110  137.0310 O   0  0  0  0  0  0  0  0  0  0  0  0
  187.8400  178.3780  137.3000 C   0  0  0  0  0  0  0  0  0  0  0  0
  187.0050  177.5210  136.5760 O   0  0  0  0  0  0  0  0  0  0  0  0
  185.8910  176.8650  137.1650 C   0  0  0  0  0  2  0  0  0  0  0  0
  185.7360  175.5410  136.5840 N   0  0  0  0  0  2  0  0  0  0  0  0
  186.3080  173.3270  137.2370 N   0  0  0  0  0  2  0  0  0  0  0  0
  186.7900  174.7120  137.1390 C   0  0  1  0  0  3  0  0  0  0  0  0
  187.2090  173.7270  136.1480 C   0  0  0  0  0  2  0  0  0  0  0  0
  191.9580  175.9700  138.3690 N   0  0  0  0  0  2  0  0  0  0  0  0
  194.2200  175.6700  138.1240 O   0  0  0  0  0  0  0  0  0  0  0  0
  193.8720  176.5320  137.0990 N   0  0  0  0  0  2  0  0  0  0  0  0
  193.2700  176.5980  138.4060 C   0  0  1  0  0  3  0  0  0  0  0  0
  1  5  1  0  0  0  0
  2  6  1  0  0  0  0
  2  1  2  0  0  0  0
  3  7  1  0  0  0  0
  3  4  1  0  0  0  0
  4 10  1  0  0  0  0
  5  4  2  0  0  0  0
  6  3  2  0  0  0  0
  8 15  1  0  0  0  0
  9 12  1  0  0  0  0
 10  9  2  0  0  0  0
 10 13  1  0  0  0  0
 11  8  1  0  0  0  0
 12  8  2  0  0  0  0
 13 11  2  0  0  0  0
 14 13  1  0  0  0  0
 15 21  1  6  0  0  0
 15 16  1  0  0  0  0
 16 19  1  0  0  0  0
 18 20  1  0  0  0  0
 20 19  1  0  0  0  0
 20 17  2  0  0  0  0
 21 22  1  0  0  0  0
 22 23  1  0  0  0  0
 24 25  2  0  0  0  0
 25  6  1  0  0  0  0
 26 27  1  0  0  0  0
 26 25  1  0  0  0  0
 28 27  1  0  0  0  0
 30 28  1  6  0  0  0
 30 29  1  0  0  0  0
 31 30  1  0  0  0  0
 31 29  1  0  0  0  0
 32  1  1  0  0  0  0
 33 35  1  0  0  0  0
 34 33  1  0  0  0  0
 34 35  1  0  0  0  0
 35 32  1  6  0  0  0
M  END
>  <MODEL>
2

>  <REMARK>
 VINA RESULT:      -7.6      1.615      3.061
  Name = 
  13 active torsions:
  status: ('A' for Active; 'I' for Inactive)
    1  A    between atoms: C_2  and  C_19
    2  A    between atoms: N_3  and  C_7
    3  A    between atoms: N_3  and  C_33
    4  A    between atoms: N_4  and  C_19
    5  A    between atoms: N_4  and  N_25
    6  A    between atoms: C_6  and  C_11
    7  A    between atoms: N_9  and  C_17
    8  A    between atoms: N_9  and  C_29
    9  A    between atoms: C_17  and  O_20
   10  A    between atoms: C_18  and  C_31
   11  A    between atoms: C_19  and  C_31
   12  A    between atoms: O_20  and  C_24
   13  A    between atoms: C_24  and  C_26
                            x       y       z     vdW  Elec       q    Type
                         _______ _______ _______ _____ _____    ______ ____

>  <TORSDO>
F 13

$$$$
=
 OpenBabel10232410483D

 35 38  0  0  1  0  0  0  0  0999 V2000
  190.6750  176.5560  139.0040 C   0  0  0  0  0  0  0  0  0  0  0  0
  189.8010  177.1360  138.0900 C   0  0  0  0  0  3  0  0  0  0  0  0
  188.3680  177.9030  139.9000 C   0  0  0  0  0  0  0  0  0  0  0  0
  189.2650  177.3230  140.8310 C   0  0  0  0  0  0  0  0  0  0  0  0
  190.4050  176.6560  140.3690 C   0  0  0  0  0  3  0  0  0  0  0  0
  188.6500  177.8170  138.5100 C   0  0  0  0  0  0  0  0  0  0  0  0
  186.8630  178.6270  140.4860 Cl  0  0  0  0  0  0  0  0  0  0  0  0
  188.5570  177.5810  145.0560 C   0  0  0  0  0  0  0  0  0  0  0  0
  187.8590  176.8910  142.8420 C   0  0  0  0  0  3  0  0  0  0  0  0
  189.0470  177.3980  142.2920 C   0  0  0  0  0  0  0  0  0  0  0  0
  189.7430  178.0940  144.5150 C   0  0  0  0  0  3  0  0  0  0  0  0
  187.6180  176.9780  144.2140 C   0  0  0  0  0  3  0  0  0  0  0  0
  189.9900  178.0090  143.1420 C   0  0  0  0  0  0  0  0  0  0  0  0
  191.1790  178.5230  142.6360 O   0  0  0  0  0  1  0  0  0  0  0  0
  188.2790  177.6580  146.5260 C   0  0  2  0  0  3  0  0  0  0  0  0
  188.9640  176.5840  147.2310 N   0  0  0  0  0  2  0  0  0  0  0  0
  192.2770  177.3270  148.4190 O   0  0  0  0  0  0  0  0  0  0  0  0
  191.6920  175.8190  146.7540 N   0  0  0  0  0  1  0  0  0  0  0  0
  190.0070  177.1710  147.9590 N   0  0  0  0  0  2  0  0  0  0  0  0
  191.3630  176.7930  147.7390 C   0  0  0  0  0  0  0  0  0  0  0  0
  186.7800  177.5880  146.7860 C   0  0  0  0  0  2  0  0  0  0  0  0
  186.2060  178.9710  147.0470 C   0  0  0  0  0  2  0  0  0  0  0  0
  184.8990  179.0440  146.5650 O   0  0  0  0  0  1  0  0  0  0  0  0
  188.0170  179.5610  137.0020 O   0  0  0  0  0  0  0  0  0  0  0  0
  187.7920  178.4050  137.4540 C   0  0  0  0  0  0  0  0  0  0  0  0
  186.7350  177.6510  136.9350 O   0  0  0  0  0  0  0  0  0  0  0  0
  185.4240  177.7000  137.4810 C   0  0  0  0  0  2  0  0  0  0  0  0
  184.5790  176.7180  136.8210 N   0  0  0  0  0  2  0  0  0  0  0  0
  182.5160  175.5740  137.1250 N   0  0  0  0  0  2  0  0  0  0  0  0
  183.6290  176.2460  137.8110 C   0  0  1  0  0  3  0  0  0  0  0  0
  183.5730  174.7900  137.7780 C   0  0  0  0  0  2  0  0  0  0  0  0
  191.8360  175.8750  138.5250 N   0  0  0  0  0  2  0  0  0  0  0  0
  193.7790  176.9380  139.1280 O   0  0  0  0  0  0  0  0  0  0  0  0
  194.1980  175.8220  138.4260 N   0  0  0  0  0  2  0  0  0  0  0  0
  193.0250  176.5730  138.0600 C   0  0  1  0  0  3  0  0  0  0  0  0
  1  5  1  0  0  0  0
  2  6  1  0  0  0  0
  2  1  2  0  0  0  0
  3  7  1  0  0  0  0
  3  4  1  0  0  0  0
  4 10  1  0  0  0  0
  5  4  2  0  0  0  0
  6  3  2  0  0  0  0
  8 15  1  0  0  0  0
  9 12  1  0  0  0  0
 10  9  2  0  0  0  0
 10 13  1  0  0  0  0
 11  8  1  0  0  0  0
 12  8  2  0  0  0  0
 13 11  2  0  0  0  0
 14 13  1  0  0  0  0
 15 21  1  6  0  0  0
 15 16  1  0  0  0  0
 16 19  1  0  0  0  0
 18 20  1  0  0  0  0
 20 19  1  0  0  0  0
 20 17  2  0  0  0  0
 21 22  1  0  0  0  0
 23 22  1  0  0  0  0
 24 25  2  0  0  0  0
 25  6  1  0  0  0  0
 26 25  1  0  0  0  0
 26 27  1  0  0  0  0
 28 27  1  0  0  0  0
 29 31  1  0  0  0  0
 29 30  1  0  0  0  0
 30 28  1  6  0  0  0
 31 30  1  0  0  0  0
 32  1  1  0  0  0  0
 34 33  1  0  0  0  0
 35 34  1  0  0  0  0
 35 32  1  1  0  0  0
 35 33  1  0  0  0  0
M  END
>  <MODEL>
3

>  <REMARK>
 VINA RESULT:      -7.5      2.120      3.540
  Name = 
  13 active torsions:
  status: ('A' for Active; 'I' for Inactive)
    1  A    between atoms: C_2  and  C_19
    2  A    between atoms: N_3  and  C_7
    3  A    between atoms: N_3  and  C_33
    4  A    between atoms: N_4  and  C_19
    5  A    between atoms: N_4  and  N_25
    6  A    between atoms: C_6  and  C_11
    7  A    between atoms: N_9  and  C_17
    8  A    between atoms: N_9  and  C_29
    9  A    between atoms: C_17  and  O_20
   10  A    between atoms: C_18  and  C_31
   11  A    between atoms: C_19  and  C_31
   12  A    between atoms: O_20  and  C_24
   13  A    between atoms: C_24  and  C_26
                            x       y       z     vdW  Elec       q    Type
                         _______ _______ _______ _____ _____    ______ ____

>  <TORSDO>
F 13

$$$$
=
 OpenBabel10232410483D

 35 38  0  0  1  0  0  0  0  0999 V2000
  189.1680  178.2730  139.0750 C   0  0  0  0  0  0  0  0  0  0  0  0
  190.4470  177.8150  138.7710 C   0  0  0  0  0  3  0  0  0  0  0  0
  190.8080  177.1910  141.0950 C   0  0  0  0  0  0  0  0  0  0  0  0
  189.5010  177.6450  141.4000 C   0  0  0  0  0  0  0  0  0  0  0  0
  188.7010  178.1810  140.3860 C   0  0  0  0  0  3  0  0  0  0  0  0
  191.2800  177.2680  139.7570 C   0  0  0  0  0  0  0  0  0  0  0  0
  191.8600  176.6390  142.4070 Cl  0  0  0  0  0  0  0  0  0  0  0  0
  187.7870  177.4490  145.3300 C   0  0  0  0  0  0  0  0  0  0  0  0
  187.8040  176.7750  143.0040 C   0  0  0  0  0  3  0  0  0  0  0  0
  188.9370  177.5700  142.7650 C   0  0  0  0  0  0  0  0  0  0  0  0
  188.9140  178.2480  145.1000 C   0  0  0  0  0  3  0  0  0  0  0  0
  187.2360  176.7120  144.2780 C   0  0  0  0  0  3  0  0  0  0  0  0
  189.4870  178.3150  143.8280 C   0  0  0  0  0  0  0  0  0  0  0  0
  190.6090  179.1130  143.6320 O   0  0  0  0  0  1  0  0  0  0  0  0
  187.1640  177.3610  146.6890 C   0  0  2  0  0  3  0  0  0  0  0  0
  186.5360  178.6250  147.0460 N   0  0  0  0  0  2  0  0  0  0  0  0
  183.2590  178.8130  145.5740 O   0  0  0  0  0  0  0  0  0  0  0  0
  185.2440  179.6190  144.6800 N   0  0  0  0  0  1  0  0  0  0  0  0
  185.1560  178.4620  146.8660 N   0  0  0  0  0  2  0  0  0  0  0  0
  184.5030  178.9600  145.7010 C   0  0  0  0  0  0  0  0  0  0  0  0
  188.2110  176.9800  147.7280 C   0  0  0  0  0  2  0  0  0  0  0  0
  188.3650  178.0730  148.7730 C   0  0  0  0  0  2  0  0  0  0  0  0
  189.6870  178.5200  148.8060 O   0  0  0  0  0  1  0  0  0  0  0  0
  193.6700  177.2900  139.8230 O   0  0  0  0  0  0  0  0  0  0  0  0
  192.6190  176.8030  139.3240 C   0  0  0  0  0  0  0  0  0  0  0  0
  192.7120  175.7880  138.3660 O   0  0  0  0  0  0  0  0  0  0  0  0
  193.3080  175.9950  137.0920 C   0  0  0  0  0  2  0  0  0  0  0  0
  194.6590  175.4580  137.0870 N   0  0  0  0  0  2  0  0  0  0  0  0
  196.7140  176.0050  136.0230 N   0  0  0  0  0  2  0  0  0  0  0  0
  195.2650  175.8530  135.8300 C   0  0  1  0  0  3  0  0  0  0  0  0
  196.1700  174.8050  135.3740 C   0  0  0  0  0  2  0  0  0  0  0  0
  188.3570  178.8200  138.0340 N   0  0  0  0  0  2  0  0  0  0  0  0
  187.7700  177.2130  136.5050 O   0  0  0  0  0  0  0  0  0  0  0  0
  187.1290  178.3580  136.0670 N   0  0  0  0  0  2  0  0  0  0  0  0
  188.4460  178.3810  136.6500 C   0  0  1  0  0  3  0  0  0  0  0  0
  1  5  1  0  0  0  0
  2  1  2  0  0  0  0
  2  6  1  0  0  0  0
  3  4  1  0  0  0  0
  3  7  1  0  0  0  0
  4 10  1  0  0  0  0
  5  4  2  0  0  0  0
  6  3  2  0  0  0  0
  8 15  1  0  0  0  0
  9 12  1  0  0  0  0
 10  9  2  0  0  0  0
 10 13  1  0  0  0  0
 11  8  1  0  0  0  0
 12  8  2  0  0  0  0
 13 11  2  0  0  0  0
 14 13  1  0  0  0  0
 15 16  1  0  0  0  0
 15 21  1  1  0  0  0
 17 20  2  0  0  0  0
 18 20  1  0  0  0  0
 19 16  1  0  0  0  0
 20 19  1  0  0  0  0
 21 22  1  0  0  0  0
 22 23  1  0  0  0  0
 25  6  1  0  0  0  0
 25 24  2  0  0  0  0
 26 25  1  0  0  0  0
 27 26  1  0  0  0  0
 28 27  1  0  0  0  0
 30 29  1  0  0  0  0
 30 28  1  1  0  0  0
 31 30  1  0  0  0  0
 31 29  1  0  0  0  0
 32  1  1  0  0  0  0
 33 35  1  0  0  0  0
 34 33  1  0  0  0  0
 34 35  1  0  0  0  0
 35 32  1  1  0  0  0
M  END
>  <MODEL>
4

>  <REMARK>
 VINA RESULT:      -7.4      2.151      3.990
  Name = 
  13 active torsions:
  status: ('A' for Active; 'I' for Inactive)
    1  A    between atoms: C_2  and  C_19
    2  A    between atoms: N_3  and  C_7
    3  A    between atoms: N_3  and  C_33
    4  A    between atoms: N_4  and  C_19
    5  A    between atoms: N_4  and  N_25
    6  A    between atoms: C_6  and  C_11
    7  A    between atoms: N_9  and  C_17
    8  A    between atoms: N_9  and  C_29
    9  A    between atoms: C_17  and  O_20
   10  A    between atoms: C_18  and  C_31
   11  A    between atoms: C_19  and  C_31
   12  A    between atoms: O_20  and  C_24
   13  A    between atoms: C_24  and  C_26
                            x       y       z     vdW  Elec       q    Type
                         _______ _______ _______ _____ _____    ______ ____

>  <TORSDO>
F 13

$$$$
=
 OpenBabel10232410483D

 35 38  0  0  1  0  0  0  0  0999 V2000
  190.5990  176.4040  139.1080 C   0  0  0  0  0  0  0  0  0  0  0  0
  189.7090  177.0390  138.2470 C   0  0  0  0  0  3  0  0  0  0  0  0
  188.4130  177.8520  140.1390 C   0  0  0  0  0  0  0  0  0  0  0  0
  189.3270  177.2150  141.0150 C   0  0  0  0  0  0  0  0  0  0  0  0
  190.4060  176.4990  140.4860 C   0  0  0  0  0  3  0  0  0  0  0  0
  188.6170  177.7700  138.7350 C   0  0  0  0  0  0  0  0  0  0  0  0
  186.9790  178.6420  140.8120 Cl  0  0  0  0  0  0  0  0  0  0  0  0
  188.8470  177.4360  145.2740 C   0  0  0  0  0  0  0  0  0  0  0  0
  188.1230  176.6190  143.1130 C   0  0  0  0  0  3  0  0  0  0  0  0
  189.1890  177.2820  142.4860 C   0  0  0  0  0  0  0  0  0  0  0  0
  189.9120  178.1050  144.6570 C   0  0  0  0  0  3  0  0  0  0  0  0
  187.9550  176.6920  144.4970 C   0  0  0  0  0  3  0  0  0  0  0  0
  190.0840  178.0350  143.2720 C   0  0  0  0  0  0  0  0  0  0  0  0
  191.1540  178.7050  142.6890 O   0  0  0  0  0  1  0  0  0  0  0  0
  188.6510  177.4950  146.7580 C   0  0  2  0  0  3  0  0  0  0  0  0
  187.8590  178.6620  147.1220 N   0  0  0  0  0  2  0  0  0  0  0  0
  184.3010  178.1540  146.9630 O   0  0  0  0  0  0  0  0  0  0  0  0
  185.6050  179.3970  145.4990 N   0  0  0  0  0  1  0  0  0  0  0  0
  186.5740  178.2030  147.4380 N   0  0  0  0  0  2  0  0  0  0  0  0
  185.4460  178.5690  146.6460 C   0  0  0  0  0  0  0  0  0  0  0  0
  189.9970  177.5280  147.4690 C   0  0  0  0  0  2  0  0  0  0  0  0
  190.7570  176.2290  147.2610 C   0  0  0  0  0  2  0  0  0  0  0  0
  192.0970  176.4990  146.9820 O   0  0  0  0  0  1  0  0  0  0  0  0
  188.0390  179.5280  137.2200 O   0  0  0  0  0  0  0  0  0  0  0  0
  187.7370  178.4150  137.7320 C   0  0  0  0  0  0  0  0  0  0  0  0
  186.5670  177.7610  137.3300 O   0  0  0  0  0  0  0  0  0  0  0  0
  185.2740  178.2050  137.7200 C   0  0  0  0  0  2  0  0  0  0  0  0
  184.5680  177.1290  138.3960 N   0  0  0  0  0  2  0  0  0  0  0  0
  182.6330  176.6720  139.7020 N   0  0  0  0  0  2  0  0  0  0  0  0
  183.3300  177.6900  138.9030 C   0  0  1  0  0  3  0  0  0  0  0  0
  183.3820  177.7520  140.3590 C   0  0  0  0  0  2  0  0  0  0  0  0
  191.6980  175.6730  138.5610 N   0  0  0  0  0  2  0  0  0  0  0  0
  193.5890  176.9620  138.7290 O   0  0  0  0  0  0  0  0  0  0  0  0
  194.0440  175.7390  138.2700 N   0  0  0  0  0  2  0  0  0  0  0  0
  192.7920  176.3100  137.8440 C   0  0  1  0  0  3  0  0  0  0  0  0
  1  5  1  0  0  0  0
  2  6  1  0  0  0  0
  2  1  2  0  0  0  0
  3  7  1  0  0  0  0
  3  4  1  0  0  0  0
  4 10  1  0  0  0  0
  5  4  2  0  0  0  0
  6  3  2  0  0  0  0
  8 15  1  0  0  0  0
  9 12  1  0  0  0  0
 10  9  2  0  0  0  0
 10 13  1  0  0  0  0
 11  8  1  0  0  0  0
 12  8  2  0  0  0  0
 13 11  2  0  0  0  0
 14 13  1  0  0  0  0
 15 16  1  0  0  0  0
 15 21  1  1  0  0  0
 16 19  1  0  0  0  0
 18 20  1  0  0  0  0
 20 17  2  0  0  0  0
 20 19  1  0  0  0  0
 22 21  1  0  0  0  0
 23 22  1  0  0  0  0
 24 25  2  0  0  0  0
 25  6  1  0  0  0  0
 26 27  1  0  0  0  0
 26 25  1  0  0  0  0
 27 28  1  0  0  0  0
 29 31  1  0  0  0  0
 30 28  1  6  0  0  0
 30 29  1  0  0  0  0
 30 31  1  0  0  0  0
 32  1  1  0  0  0  0
 34 33  1  0  0  0  0
 35 34  1  0  0  0  0
 35 32  1  1  0  0  0
 35 33  1  0  0  0  0
M  END
>  <MODEL>
5

>  <REMARK>
 VINA RESULT:      -7.4      1.969      2.509
  Name = 
  13 active torsions:
  status: ('A' for Active; 'I' for Inactive)
    1  A    between atoms: C_2  and  C_19
    2  A    between atoms: N_3  and  C_7
    3  A    between atoms: N_3  and  C_33
    4  A    between atoms: N_4  and  C_19
    5  A    between atoms: N_4  and  N_25
    6  A    between atoms: C_6  and  C_11
    7  A    between atoms: N_9  and  C_17
    8  A    between atoms: N_9  and  C_29
    9  A    between atoms: C_17  and  O_20
   10  A    between atoms: C_18  and  C_31
   11  A    between atoms: C_19  and  C_31
   12  A    between atoms: O_20  and  C_24
   13  A    between atoms: C_24  and  C_26
                            x       y       z     vdW  Elec       q    Type
                         _______ _______ _______ _____ _____    ______ ____

>  <TORSDO>
F 13

$$$$
=
 OpenBabel10232410483D

 35 38  0  0  1  0  0  0  0  0999 V2000
  187.8500  178.0860  139.5090 C   0  0  0  0  0  0  0  0  0  0  0  0
  188.8030  177.4140  138.7500 C   0  0  0  0  0  3  0  0  0  0  0  0
  190.0780  176.8940  140.7550 C   0  0  0  0  0  0  0  0  0  0  0  0
  189.1010  177.5680  141.5290 C   0  0  0  0  0  0  0  0  0  0  0  0
  188.0010  178.1550  140.8940 C   0  0  0  0  0  3  0  0  0  0  0  0
  189.9180  176.8080  139.3460 C   0  0  0  0  0  0  0  0  0  0  0  0
  191.5320  176.2710  141.5510 Cl  0  0  0  0  0  0  0  0  0  0  0  0
  189.4500  177.8600  145.7960 C   0  0  0  0  0  0  0  0  0  0  0  0
  190.0720  178.6020  143.5770 C   0  0  0  0  0  3  0  0  0  0  0  0
  189.1920  177.6720  143.0010 C   0  0  0  0  0  0  0  0  0  0  0  0
  188.5730  176.9250  145.2310 C   0  0  0  0  0  3  0  0  0  0  0  0
  190.1970  178.6980  144.9640 C   0  0  0  0  0  3  0  0  0  0  0  0
  188.4440  176.8250  143.8430 C   0  0  0  0  0  0  0  0  0  0  0  0
  187.5610  175.8920  143.3120 O   0  0  0  0  0  1  0  0  0  0  0  0
  189.5970  177.9850  147.2820 C   0  0  2  0  0  3  0  0  0  0  0  0
  190.8160  177.3280  147.7310 N   0  0  0  0  0  2  0  0  0  0  0  0
  192.5710  174.6950  146.0200 O   0  0  0  0  0  0  0  0  0  0  0  0
  193.1830  175.7230  148.0100 N   0  0  0  0  0  1  0  0  0  0  0  0
  191.1300  176.3510  146.7780 N   0  0  0  0  0  2  0  0  0  0  0  0
  192.3060  175.5550  146.9000 C   0  0  0  0  0  0  0  0  0  0  0  0
  188.3850  177.3880  147.9860 C   0  0  0  0  0  2  0  0  0  0  0  0
  187.3630  178.4620  148.3200 C   0  0  0  0  0  2  0  0  0  0  0  0
  186.3260  178.4400  147.3880 O   0  0  0  0  0  1  0  0  0  0  0  0
  190.6870  174.9060  138.1180 O   0  0  0  0  0  0  0  0  0  0  0  0
  190.8670  176.1110  138.4460 C   0  0  0  0  0  0  0  0  0  0  0  0
  191.9630  176.8130  137.9340 O   0  0  0  0  0  0  0  0  0  0  0  0
  193.2950  176.5660  138.3640 C   0  0  0  0  0  2  0  0  0  0  0  0
  194.0300  175.8770  137.3150 N   0  0  0  0  0  2  0  0  0  0  0  0
  195.0920  173.8100  136.8070 N   0  0  0  0  0  2  0  0  0  0  0  0
  194.2330  174.5140  137.7700 C   0  0  1  0  0  3  0  0  0  0  0  0
  195.6430  174.3060  138.0750 C   0  0  0  0  0  2  0  0  0  0  0  0
  186.7300  178.6850  138.8530 N   0  0  0  0  0  2  0  0  0  0  0  0
  185.1200  179.5280  140.2540 O   0  0  0  0  0  0  0  0  0  0  0  0
  184.6110  179.7260  138.9830 N   0  0  0  0  0  2  0  0  0  0  0  0
  185.3670  178.5540  139.3420 C   0  0  1  0  0  3  0  0  0  0  0  0
  1  5  1  0  0  0  0
  2  6  1  0  0  0  0
  2  1  2  0  0  0  0
  3  4  1  0  0  0  0
  3  7  1  0  0  0  0
  4 10  1  0  0  0  0
  5  4  2  0  0  0  0
  6  3  2  0  0  0  0
  8 15  1  0  0  0  0
  9 12  1  0  0  0  0
 10  9  2  0  0  0  0
 10 13  1  0  0  0  0
 11  8  1  0  0  0  0
 12  8  2  0  0  0  0
 13 11  2  0  0  0  0
 14 13  1  0  0  0  0
 15 16  1  0  0  0  0
 15 21  1  1  0  0  0
 17 20  2  0  0  0  0
 19 20  1  0  0  0  0
 19 16  1  0  0  0  0
 20 18  1  0  0  0  0
 21 22  1  0  0  0  0
 23 22  1  0  0  0  0
 24 25  2  0  0  0  0
 25  6  1  0  0  0  0
 26 27  1  0  0  0  0
 26 25  1  0  0  0  0
 28 27  1  0  0  0  0
 29 30  1  0  0  0  0
 29 31  1  0  0  0  0
 30 28  1  6  0  0  0
 30 31  1  0  0  0  0
 32  1  1  0  0  0  0
 34 35  1  0  0  0  0
 34 33  1  0  0  0  0
 35 32  1  6  0  0  0
 35 33  1  0  0  0  0
M  END
>  <MODEL>
6

>  <REMARK>
 VINA RESULT:      -7.3      2.766      5.255
  Name = 
  13 active torsions:
  status: ('A' for Active; 'I' for Inactive)
    1  A    between atoms: C_2  and  C_19
    2  A    between atoms: N_3  and  C_7
    3  A    between atoms: N_3  and  C_33
    4  A    between atoms: N_4  and  C_19
    5  A    between atoms: N_4  and  N_25
    6  A    between atoms: C_6  and  C_11
    7  A    between atoms: N_9  and  C_17
    8  A    between atoms: N_9  and  C_29
    9  A    between atoms: C_17  and  O_20
   10  A    between atoms: C_18  and  C_31
   11  A    between atoms: C_19  and  C_31
   12  A    between atoms: O_20  and  C_24
   13  A    between atoms: C_24  and  C_26
                            x       y       z     vdW  Elec       q    Type
                         _______ _______ _______ _____ _____    ______ ____

>  <TORSDO>
F 13

$$$$
=
 OpenBabel10232410483D

 35 38  0  0  1  0  0  0  0  0999 V2000
  190.8130  176.7200  139.1800 C   0  0  0  0  0  0  0  0  0  0  0  0
  189.7690  177.1740  138.3790 C   0  0  0  0  0  3  0  0  0  0  0  0
  188.5520  177.9330  140.3430 C   0  0  0  0  0  0  0  0  0  0  0  0
  189.6210  177.4820  141.1570 C   0  0  0  0  0  0  0  0  0  0  0  0
  190.7350  176.8810  140.5640 C   0  0  0  0  0  3  0  0  0  0  0  0
  188.6360  177.7860  138.9330 C   0  0  0  0  0  0  0  0  0  0  0  0
  187.0900  178.5700  141.1120 Cl  0  0  0  0  0  0  0  0  0  0  0  0
  189.6750  177.8990  145.4290 C   0  0  0  0  0  0  0  0  0  0  0  0
  190.4030  178.6150  143.2330 C   0  0  0  0  0  3  0  0  0  0  0  0
  189.6100  177.6280  142.6290 C   0  0  0  0  0  0  0  0  0  0  0  0
  188.8830  176.9070  144.8350 C   0  0  0  0  0  3  0  0  0  0  0  0
  190.4320  178.7530  144.6220 C   0  0  0  0  0  3  0  0  0  0  0  0
  188.8500  176.7660  143.4450 C   0  0  0  0  0  0  0  0  0  0  0  0
  188.0500  175.7760  142.8850 O   0  0  0  0  0  1  0  0  0  0  0  0
  189.7170  178.0690  146.9160 C   0  0  2  0  0  3  0  0  0  0  0  0
  191.0140  177.6640  147.4390 N   0  0  0  0  0  2  0  0  0  0  0  0
  192.7300  174.6670  146.4320 O   0  0  0  0  0  0  0  0  0  0  0  0
  192.7480  175.6520  148.5350 N   0  0  0  0  0  1  0  0  0  0  0  0
  191.4630  176.6010  146.6450 N   0  0  0  0  0  2  0  0  0  0  0  0
  192.3310  175.6020  147.1740 C   0  0  0  0  0  0  0  0  0  0  0  0
  188.6070  177.2590  147.5740 C   0  0  0  0  0  2  0  0  0  0  0  0
  187.4780  178.1610  148.0430 C   0  0  0  0  0  2  0  0  0  0  0  0
  186.4560  178.1800  147.0940 O   0  0  0  0  0  1  0  0  0  0  0  0
  187.7690  179.2480  137.2520 O   0  0  0  0  0  0  0  0  0  0  0  0
  187.5880  178.2410  137.9890 C   0  0  0  0  0  0  0  0  0  0  0  0
  186.3920  177.5210  137.9000 O   0  0  0  0  0  0  0  0  0  0  0  0
  185.1250  178.1140  138.1530 C   0  0  0  0  0  2  0  0  0  0  0  0
  184.1080  177.4660  137.3410 N   0  0  0  0  0  2  0  0  0  0  0  0
  183.3500  175.4070  138.2600 N   0  0  0  0  0  2  0  0  0  0  0  0
  184.3650  176.0390  137.4040 C   0  0  1  0  0  3  0  0  0  0  0  0
  183.2540  175.3160  136.7970 C   0  0  0  0  0  2  0  0  0  0  0  0
  191.9480  176.1060  138.5670 N   0  0  0  0  0  2  0  0  0  0  0  0
  194.2030  175.7950  138.2740 O   0  0  0  0  0  0  0  0  0  0  0  0
  193.8190  176.5770  137.1990 N   0  0  0  0  0  2  0  0  0  0  0  0
  193.2570  176.7380  138.5160 C   0  0  1  0  0  3  0  0  0  0  0  0
  1  5  1  0  0  0  0
  2  6  1  0  0  0  0
  2  1  2  0  0  0  0
  3  7  1  0  0  0  0
  3  4  1  0  0  0  0
  4 10  1  0  0  0  0
  5  4  2  0  0  0  0
  6  3  2  0  0  0  0
  8 15  1  0  0  0  0
  9 12  1  0  0  0  0
 10  9  2  0  0  0  0
 10 13  1  0  0  0  0
 11  8  1  0  0  0  0
 12  8  2  0  0  0  0
 13 11  2  0  0  0  0
 14 13  1  0  0  0  0
 15 16  1  0  0  0  0
 15 21  1  1  0  0  0
 17 20  2  0  0  0  0
 19 20  1  0  0  0  0
 19 16  1  0  0  0  0
 20 18  1  0  0  0  0
 21 22  1  0  0  0  0
 23 22  1  0  0  0  0
 24 25  2  0  0  0  0
 25  6  1  0  0  0  0
 26 25  1  0  0  0  0
 26 27  1  0  0  0  0
 28 27  1  0  0  0  0
 30 28  1  6  0  0  0
 30 29  1  0  0  0  0
 31 30  1  0  0  0  0
 31 29  1  0  0  0  0
 32  1  1  0  0  0  0
 33 35  1  0  0  0  0
 34 33  1  0  0  0  0
 34 35  1  0  0  0  0
 35 32  1  6  0  0  0
M  END
>  <MODEL>
7

>  <REMARK>
 VINA RESULT:      -7.0      2.462      3.820
  Name = 
  13 active torsions:
  status: ('A' for Active; 'I' for Inactive)
    1  A    between atoms: C_2  and  C_19
    2  A    between atoms: N_3  and  C_7
    3  A    between atoms: N_3  and  C_33
    4  A    between atoms: N_4  and  C_19
    5  A    between atoms: N_4  and  N_25
    6  A    between atoms: C_6  and  C_11
    7  A    between atoms: N_9  and  C_17
    8  A    between atoms: N_9  and  C_29
    9  A    between atoms: C_17  and  O_20
   10  A    between atoms: C_18  and  C_31
   11  A    between atoms: C_19  and  C_31
   12  A    between atoms: O_20  and  C_24
   13  A    between atoms: C_24  and  C_26
                            x       y       z     vdW  Elec       q    Type
                         _______ _______ _______ _____ _____    ______ ____

>  <TORSDO>
F 13

$$$$
=
 OpenBabel10232410483D

 35 38  0  0  1  0  0  0  0  0999 V2000
  187.6810  178.1240  139.4120 C   0  0  0  0  0  0  0  0  0  0  0  0
  188.7390  177.6450  138.6470 C   0  0  0  0  0  3  0  0  0  0  0  0
  189.9790  177.0770  140.6610 C   0  0  0  0  0  0  0  0  0  0  0  0
  188.8950  177.5540  141.4400 C   0  0  0  0  0  0  0  0  0  0  0  0
  187.7620  178.0720  140.8040 C   0  0  0  0  0  3  0  0  0  0  0  0
  189.8910  177.1140  139.2440 C   0  0  0  0  0  0  0  0  0  0  0  0
  191.4590  176.5480  141.4740 Cl  0  0  0  0  0  0  0  0  0  0  0  0
  188.8500  177.4710  145.7310 C   0  0  0  0  0  0  0  0  0  0  0  0
  188.0390  176.6540  143.6000 C   0  0  0  0  0  3  0  0  0  0  0  0
  188.9090  177.5200  142.9190 C   0  0  0  0  0  0  0  0  0  0  0  0
  189.7180  178.3410  145.0590 C   0  0  0  0  0  3  0  0  0  0  0  0
  188.0130  176.6260  144.9960 C   0  0  0  0  0  3  0  0  0  0  0  0
  189.7490  178.3730  143.6630 C   0  0  0  0  0  0  0  0  0  0  0  0
  190.6250  179.2440  143.0250 O   0  0  0  0  0  1  0  0  0  0  0  0
  188.8100  177.4190  147.2270 C   0  0  2  0  0  3  0  0  0  0  0  0
  187.9990  178.5080  147.7530 N   0  0  0  0  0  2  0  0  0  0  0  0
  184.4840  178.0910  147.1090 O   0  0  0  0  0  0  0  0  0  0  0  0
  185.9520  179.5070  146.0010 N   0  0  0  0  0  1  0  0  0  0  0  0
  186.6840  178.0310  147.8470 N   0  0  0  0  0  2  0  0  0  0  0  0
  185.6590  178.5260  146.9900 C   0  0  0  0  0  0  0  0  0  0  0  0
  190.2200  177.4880  147.7990 C   0  0  0  0  0  2  0  0  0  0  0  0
  191.0680  176.3290  147.3000 C   0  0  0  0  0  2  0  0  0  0  0  0
  192.3380  176.3860  147.8760 O   0  0  0  0  0  1  0  0  0  0  0  0
  192.1660  176.9170  138.5330 O   0  0  0  0  0  0  0  0  0  0  0  0
  190.9550  176.6230  138.3360 C   0  0  0  0  0  0  0  0  0  0  0  0
  190.6070  175.7990  137.2610 O   0  0  0  0  0  0  0  0  0  0  0  0
  190.7710  174.3870  137.2990 C   0  0  0  0  0  2  0  0  0  0  0  0
  189.4680  173.7420  137.3360 N   0  0  0  0  0  2  0  0  0  0  0  0
  187.6580  173.6360  135.7970 N   0  0  0  0  0  2  0  0  0  0  0  0
  188.5820  174.5340  136.5040 C   0  0  1  0  0  3  0  0  0  0  0  0
  187.2100  174.3890  136.9750 C   0  0  0  0  0  2  0  0  0  0  0  0
  186.5270  178.6540  138.7550 N   0  0  0  0  0  2  0  0  0  0  0  0
  185.0770  179.5430  140.2960 O   0  0  0  0  0  0  0  0  0  0  0  0
  184.5000  179.8290  139.0710 N   0  0  0  0  0  2  0  0  0  0  0  0
  185.1930  178.5940  139.3320 C   0  0  1  0  0  3  0  0  0  0  0  0
  1  5  1  0  0  0  0
  2  6  1  0  0  0  0
  2  1  2  0  0  0  0
  3  4  1  0  0  0  0
  3  7  1  0  0  0  0
  4 10  1  0  0  0  0
  5  4  2  0  0  0  0
  6  3  2  0  0  0  0
  8 15  1  0  0  0  0
  9 12  1  0  0  0  0
 10  9  2  0  0  0  0
 10 13  1  0  0  0  0
 11  8  1  0  0  0  0
 12  8  2  0  0  0  0
 13 11  2  0  0  0  0
 14 13  1  0  0  0  0
 15 16  1  0  0  0  0
 15 21  1  1  0  0  0
 16 19  1  0  0  0  0
 18 20  1  0  0  0  0
 20 17  2  0  0  0  0
 20 19  1  0  0  0  0
 22 21  1  0  0  0  0
 22 23  1  0  0  0  0
 25 24  2  0  0  0  0
 25  6  1  0  0  0  0
 26 27  1  0  0  0  0
 26 25  1  0  0  0  0
 27 28  1  0  0  0  0
 29 30  1  0  0  0  0
 29 31  1  0  0  0  0
 30 31  1  0  0  0  0
 30 28  1  1  0  0  0
 32  1  1  0  0  0  0
 34 35  1  0  0  0  0
 34 33  1  0  0  0  0
 35 32  1  6  0  0  0
 35 33  1  0  0  0  0
M  END
>  <MODEL>
8

>  <REMARK>
 VINA RESULT:      -7.0      2.057      3.645
  Name = 
  13 active torsions:
  status: ('A' for Active; 'I' for Inactive)
    1  A    between atoms: C_2  and  C_19
    2  A    between atoms: N_3  and  C_7
    3  A    between atoms: N_3  and  C_33
    4  A    between atoms: N_4  and  C_19
    5  A    between atoms: N_4  and  N_25
    6  A    between atoms: C_6  and  C_11
    7  A    between atoms: N_9  and  C_17
    8  A    between atoms: N_9  and  C_29
    9  A    between atoms: C_17  and  O_20
   10  A    between atoms: C_18  and  C_31
   11  A    between atoms: C_19  and  C_31
   12  A    between atoms: O_20  and  C_24
   13  A    between atoms: C_24  and  C_26
                            x       y       z     vdW  Elec       q    Type
                         _______ _______ _______ _____ _____    ______ ____

>  <TORSDO>
F 13

$$$$
=
 OpenBabel10232410483D

 35 38  0  0  1  0  0  0  0  0999 V2000
  189.7720  176.0410  137.2320 C   0  0  0  0  0  0  0  0  0  0  0  0
  191.1560  176.0900  137.0960 C   0  0  0  0  0  3  0  0  0  0  0  0
  191.3850  176.8530  139.3950 C   0  0  0  0  0  0  0  0  0  0  0  0
  189.9760  176.7900  139.5360 C   0  0  0  0  0  0  0  0  0  0  0  0
  189.1900  176.3860  138.4520 C   0  0  0  0  0  3  0  0  0  0  0  0
  191.9810  176.4850  138.1590 C   0  0  0  0  0  0  0  0  0  0  0  0
  192.3600  177.4920  140.7270 Cl  0  0  0  0  0  0  0  0  0  0  0  0
  187.9730  177.7020  143.2210 C   0  0  0  0  0  0  0  0  0  0  0  0
  189.6380  176.4550  141.9820 C   0  0  0  0  0  3  0  0  0  0  0  0
  189.2930  177.1330  140.8020 C   0  0  0  0  0  0  0  0  0  0  0  0
  187.6190  178.3810  142.0480 C   0  0  0  0  0  3  0  0  0  0  0  0
  188.9870  176.7400  143.1830 C   0  0  0  0  0  3  0  0  0  0  0  0
  188.2680  178.1000  140.8430 C   0  0  0  0  0  0  0  0  0  0  0  0
  187.8980  178.7940  139.6970 O   0  0  0  0  0  1  0  0  0  0  0  0
  187.2920  177.9960  144.5220 C   0  0  2  0  0  3  0  0  0  0  0  0
  187.6450  176.9960  145.5200 N   0  0  0  0  0  2  0  0  0  0  0  0
  189.0330  178.2430  148.5960 O   0  0  0  0  0  0  0  0  0  0  0  0
  190.1160  176.9670  146.9860 N   0  0  0  0  0  1  0  0  0  0  0  0
  187.7530  177.6630  146.7470 N   0  0  0  0  0  2  0  0  0  0  0  0
  188.9710  177.6480  147.4890 C   0  0  0  0  0  0  0  0  0  0  0  0
  185.7810  178.0400  144.3310 C   0  0  0  0  0  2  0  0  0  0  0  0
  185.1910  179.3020  144.9380 C   0  0  0  0  0  2  0  0  0  0  0  0
  184.2390  179.8460  144.0760 O   0  0  0  0  0  1  0  0  0  0  0  0
  193.9430  177.2120  137.0010 O   0  0  0  0  0  0  0  0  0  0  0  0
  193.4420  176.4940  137.9090 C   0  0  0  0  0  0  0  0  0  0  0  0
  194.2760  175.7120  138.7150 O   0  0  0  0  0  0  0  0  0  0  0  0
  194.9420  174.5550  138.2260 C   0  0  0  0  0  2  0  0  0  0  0  0
  196.3530  174.8460  138.0300 N   0  0  0  0  0  2  0  0  0  0  0  0
  197.3620  175.9700  136.1920 N   0  0  0  0  0  2  0  0  0  0  0  0
  196.6020  174.7800  136.6020 C   0  0  1  0  0  3  0  0  0  0  0  0
  198.0360  174.6750  136.3610 C   0  0  0  0  0  2  0  0  0  0  0  0
  188.9750  175.6290  136.1200 N   0  0  0  0  0  2  0  0  0  0  0  0
  187.1770  175.6420  134.6940 O   0  0  0  0  0  0  0  0  0  0  0  0
  186.6390  175.3170  135.9270 N   0  0  0  0  0  2  0  0  0  0  0  0
  187.7130  176.2650  135.7750 C   0  0  1  0  0  3  0  0  0  0  0  0
  1  5  1  0  0  0  0
  2  1  2  0  0  0  0
  2  6  1  0  0  0  0
  3  4  1  0  0  0  0
  3  7  1  0  0  0  0
  4 10  1  0  0  0  0
  5  4  2  0  0  0  0
  6  3  2  0  0  0  0
  8 15  1  0  0  0  0
  9 12  2  0  0  0  0
 10 13  2  0  0  0  0
 10  9  1  0  0  0  0
 11  8  2  0  0  0  0
 12  8  1  0  0  0  0
 13 11  1  0  0  0  0
 14 13  1  0  0  0  0
 15 21  1  6  0  0  0
 15 16  1  0  0  0  0
 16 19  1  0  0  0  0
 18 20  1  0  0  0  0
 19 20  1  0  0  0  0
 20 17  2  0  0  0  0
 21 22  1  0  0  0  0
 23 22  1  0  0  0  0
 24 25  2  0  0  0  0
 25  6  1  0  0  0  0
 25 26  1  0  0  0  0
 27 26  1  0  0  0  0
 28 27  1  0  0  0  0
 29 31  1  0  0  0  0
 29 30  1  0  0  0  0
 30 28  1  1  0  0  0
 31 30  1  0  0  0  0
 32  1  1  0  0  0  0
 33 35  1  0  0  0  0
 33 34  1  0  0  0  0
 35 34  1  0  0  0  0
 35 32  1  1  0  0  0
M  END
>  <MODEL>
9

>  <REMARK>
 VINA RESULT:      -6.9      2.349      5.325
  Name = 
  13 active torsions:
  status: ('A' for Active; 'I' for Inactive)
    1  A    between atoms: C_2  and  C_19
    2  A    between atoms: N_3  and  C_7
    3  A    between atoms: N_3  and  C_33
    4  A    between atoms: N_4  and  C_19
    5  A    between atoms: N_4  and  N_25
    6  A    between atoms: C_6  and  C_11
    7  A    between atoms: N_9  and  C_17
    8  A    between atoms: N_9  and  C_29
    9  A    between atoms: C_17  and  O_20
   10  A    between atoms: C_18  and  C_31
   11  A    between atoms: C_19  and  C_31
   12  A    between atoms: O_20  and  C_24
   13  A    between atoms: C_24  and  C_26
                            x       y       z     vdW  Elec       q    Type
                         _______ _______ _______ _____ _____    ______ ____

>  <TORSDO>
F 13

$$$$
