=
 OpenBabel10222422003D

 44 50  0  0  1  0  0  0  0  0999 V2000
  187.7920  177.3710  146.3980 C   0  0  0  0  0  3  0  0  0  0  0  0
  186.6260  177.8790  143.1620 C   0  0  0  0  0  0  0  0  0  0  0  0
  185.6370  178.1710  145.2910 C   0  0  0  0  0  3  0  0  0  0  0  0
  189.3480  177.5030  142.4930 C   0  0  0  0  0  0  0  0  0  0  0  0
  187.4020  177.2390  143.9990 C   0  0  0  0  0  0  0  0  0  0  0  0
  191.5800  177.3010  146.0740 N   0  0  0  0  0  2  0  0  0  0  0  0
  185.5180  178.4560  143.8550 N   0  0  0  0  0  0  0  0  0  0  0  0
  186.9400  177.4360  145.3600 C   0  0  0  0  0  0  0  0  0  0  0  0
  190.4040  177.2710  146.8940 C   0  0  0  0  0  0  0  0  0  0  0  0
  188.7570  176.7250  143.6540 C   0  0  0  0  0  0  0  0  0  0  0  0
  189.2020  176.9880  146.1090 C   0  0  0  0  0  0  0  0  0  0  0  0
  190.6660  177.8010  142.4650 C   0  0  0  0  0  3  0  0  0  0  0  0
  187.1020  178.2240  141.7990 C   0  0  0  0  0  3  0  0  0  0  0  0
  189.6260  176.7970  144.8650 C   0  0  0  0  0  0  0  0  0  0  0  0
  191.5570  177.5580  143.6410 C   0  0  0  0  0  3  0  0  0  0  0  0
  190.4150  177.5170  148.1260 O   0  0  0  0  0  0  0  0  0  0  0  0
  191.0370  177.0700  144.7760 C   0  0  0  0  0  0  0  0  0  0  0  0
  188.3970  178.0270  141.4670 C   0  0  0  0  0  0  0  0  0  0  0  0
  188.8640  178.3980  140.1010 C   0  0  0  0  0  2  0  0  0  0  0  0
  187.7400  178.3670  139.1770 N   0  0  0  0  0  2  0  0  0  0  0  0
  188.6560  177.2550  134.7390 C   0  0  0  0  0  2  0  0  0  0  0  0
  190.5130  174.4940  136.4650 C   0  0  0  0  0  0  0  0  0  0  0  0
  191.6310  174.3490  135.9020 O   0  0  0  0  0  0  0  0  0  0  0  0
  189.8760  176.3630  134.8820 C   0  0  0  0  0  2  0  0  0  0  0  0
  189.6150  175.5200  136.0310 N   0  0  0  0  0  0  0  0  0  0  0  0
  186.7530  177.9820  136.5870 S   0  0  0  0  0  0  0  0  0  0  0  0
  187.7050  177.5300  138.0190 C   0  0  0  0  0  0  0  0  0  0  0  0
  188.2990  175.7190  136.6070 C   0  0  2  0  0  3  0  0  0  0  0  0
  187.5820  176.6610  135.6430 C   0  0  2  0  0  3  0  0  0  0  0  0
  188.4180  176.4230  137.9140 C   0  0  0  0  0  3  0  0  0  0  0  0
  190.1590  173.6470  137.5090 O   0  0  0  0  0  1  0  0  0  0  0  0
  184.5590  179.3920  143.2860 C   0  0  0  0  0  2  0  0  0  0  0  0
  183.3010  179.4640  144.1450 C   0  0  0  0  0  2  0  0  0  0  0  0
  182.0680  179.0700  143.3430 C   0  0  0  0  0  2  0  0  0  0  0  0
  182.4440  178.7620  141.9740 N   0  0  0  0  0  2  0  0  0  0  0  0
  181.2160  178.7330  141.1980 C   0  0  0  0  0  2  0  0  0  0  0  0
  181.5290  178.5380  139.7870 N   0  0  0  0  0  0  0  0  0  0  0  0
  181.9220  180.6770  138.7410 C   0  0  0  0  0  2  0  0  0  0  0  0
  182.3630  179.4630  139.0620 C   0  0  0  0  0  0  0  0  0  0  0  0
  184.6790  179.8840  139.5800 N   0  0  0  0  0  1  0  0  0  0  0  0
  183.7800  179.1180  138.7350 C   0  0  0  0  0  2  0  0  0  0  0  0
  180.9980  177.3410  139.1470 C   0  0  0  0  0  2  0  0  0  0  0  0
  182.6490  175.6990  139.1250 C   0  0  0  0  0  1  0  0  0  0  0  0
  181.4730  176.1540  139.8400 N   0  0  0  0  0  2  0  0  0  0  0  0
  2  7  1  0  0  0  0
  2  5  1  0  0  0  0
  3  8  2  0  0  0  0
  4 10  1  0  0  0  0
  5  8  1  0  0  0  0
  6  9  1  0  0  0  0
  7  3  1  0  0  0  0
  8  1  1  0  0  0  0
  9 16  2  0  0  0  0
 10  5  2  0  0  0  0
 10 14  1  0  0  0  0
 11  1  2  0  0  0  0
 11  9  1  0  0  0  0
 12  4  1  0  0  0  0
 12 15  2  0  0  0  0
 13  2  2  0  0  0  0
 14 11  1  0  0  0  0
 15 17  1  0  0  0  0
 17 14  2  0  0  0  0
 17  6  1  0  0  0  0
 18 13  1  0  0  0  0
 18  4  2  0  0  0  0
 19 18  1  0  0  0  0
 20 19  1  0  0  0  0
 21 24  1  0  0  0  0
 22 31  1  0  0  0  0
 23 22  2  0  0  0  0
 24 25  1  0  0  0  0
 25 22  1  0  0  0  0
 25 28  1  0  0  0  0
 26 27  1  0  0  0  0
 27 20  1  0  0  0  0
 28 30  1  1  0  0  0
 29 21  1  6  0  0  0
 29 26  1  0  0  0  0
 29 28  1  0  0  0  0
 30 27  2  0  0  0  0
 32  7  1  0  0  0  0
 32 33  1  0  0  0  0
 34 33  1  0  0  0  0
 35 34  1  0  0  0  0
 36 35  1  0  0  0  0
 37 36  1  0  0  0  0
 38 39  2  0  0  0  0
 39 37  1  0  0  0  0
 41 39  1  0  0  0  0
 41 40  1  0  0  0  0
 42 37  1  0  0  0  0
 42 44  1  0  0  0  0
 43 44  1  0  0  0  0
M  END
>  <MODEL>
1

>  <REMARK>
 VINA RESULT:      -9.0      0.000      0.000
  Name = 
  13 active torsions:
  status: ('A' for Active; 'I' for Inactive)
    1  A    between atoms: C_1  and  N_3
    2  A    between atoms: C_1  and  C_44
    3  A    between atoms: N_3  and  C_29
    4  A    between atoms: C_4  and  N_10
    5  A    between atoms: C_4  and  N_42
    6  A    between atoms: N_10  and  C_19
    7  A    between atoms: C_16  and  N_22
    8  A    between atoms: C_16  and  C_24
    9  A    between atoms: C_19  and  C_24
   10  A    between atoms: N_20  and  C_21
   11  A    between atoms: C_21  and  N_42
   12  A    between atoms: C_31  and  C_32
   13  A    between atoms: C_32  and  N_42
                            x       y       z     vdW  Elec       q    Type
                         _______ _______ _______ _____ _____    ______ ____

>  <TORSDO>
F 13

$$$$
=
 OpenBabel10222422003D

 44 50  0  0  1  0  0  0  0  0999 V2000
  187.9470  177.4020  146.4630 C   0  0  0  0  0  3  0  0  0  0  0  0
  186.5770  177.9490  143.3140 C   0  0  0  0  0  0  0  0  0  0  0  0
  185.7630  178.3090  145.5070 C   0  0  0  0  0  3  0  0  0  0  0  0
  189.2180  177.4220  142.4540 C   0  0  0  0  0  0  0  0  0  0  0  0
  187.3760  177.2740  144.1000 C   0  0  0  0  0  0  0  0  0  0  0  0
  191.6920  177.1240  145.8650 N   0  0  0  0  0  2  0  0  0  0  0  0
  185.5540  178.5910  144.0800 N   0  0  0  0  0  0  0  0  0  0  0  0
  187.0260  177.5060  145.4880 C   0  0  0  0  0  0  0  0  0  0  0  0
  190.5790  177.1630  146.7690 C   0  0  0  0  0  0  0  0  0  0  0  0
  188.6720  176.6850  143.6630 C   0  0  0  0  0  0  0  0  0  0  0  0
  189.3090  176.9410  146.0760 C   0  0  0  0  0  0  0  0  0  0  0  0
  190.5450  177.6470  142.3270 C   0  0  0  0  0  3  0  0  0  0  0  0
  186.9700  178.2590  141.9170 C   0  0  0  0  0  3  0  0  0  0  0  0
  189.6300  176.7190  144.8070 C   0  0  0  0  0  0  0  0  0  0  0  0
  191.5050  177.3640  143.4380 C   0  0  0  0  0  3  0  0  0  0  0  0
  190.6940  177.4170  147.9940 O   0  0  0  0  0  0  0  0  0  0  0  0
  191.0440  176.9130  144.6120 C   0  0  0  0  0  0  0  0  0  0  0  0
  188.2240  177.9890  141.4930 C   0  0  0  0  0  0  0  0  0  0  0  0
  188.6090  178.3250  140.0940 C   0  0  0  0  0  2  0  0  0  0  0  0
  187.4180  178.3760  139.2600 N   0  0  0  0  0  2  0  0  0  0  0  0
  188.5220  176.1570  135.3060 C   0  0  0  0  0  2  0  0  0  0  0  0
  184.7830  176.0240  135.0680 C   0  0  0  0  0  0  0  0  0  0  0  0
  184.4460  174.8700  134.6890 O   0  0  0  0  0  0  0  0  0  0  0  0
  187.2370  175.4110  134.9940 C   0  0  0  0  0  2  0  0  0  0  0  0
  186.1620  176.3370  135.2870 N   0  0  0  0  0  0  0  0  0  0  0  0
  188.9700  178.3310  136.9320 S   0  0  0  0  0  0  0  0  0  0  0  0
  187.4490  178.1960  137.8420 C   0  0  0  0  0  0  0  0  0  0  0  0
  186.6250  177.6520  135.6850 C   0  0  2  0  0  3  0  0  0  0  0  0
  188.1360  177.6230  135.4730 C   0  0  2  0  0  3  0  0  0  0  0  0
  186.3830  177.8570  137.1400 C   0  0  0  0  0  3  0  0  0  0  0  0
  183.8050  176.9910  135.2680 O   0  0  0  0  0  1  0  0  0  0  0  0
  184.6080  179.5740  143.5710 C   0  0  0  0  0  2  0  0  0  0  0  0
  183.2710  179.4590  144.2970 C   0  0  0  0  0  2  0  0  0  0  0  0
  182.2310  178.7740  143.4220 C   0  0  0  0  0  2  0  0  0  0  0  0
  182.6880  178.7400  142.0430 N   0  0  0  0  0  2  0  0  0  0  0  0
  181.5210  178.9740  141.2080 C   0  0  0  0  0  2  0  0  0  0  0  0
  181.7280  178.3780  139.8930 N   0  0  0  0  0  0  0  0  0  0  0  0
  181.5960  178.8930  137.5380 C   0  0  0  0  0  2  0  0  0  0  0  0
  182.0760  179.1800  138.7470 C   0  0  0  0  0  0  0  0  0  0  0  0
  184.2930  180.0390  139.1450 N   0  0  0  0  0  1  0  0  0  0  0  0
  182.9100  180.4100  138.9000 C   0  0  0  0  0  2  0  0  0  0  0  0
  181.6110  176.9290  139.7920 C   0  0  0  0  0  2  0  0  0  0  0  0
  182.8770  175.4870  138.4740 C   0  0  0  0  0  1  0  0  0  0  0  0
  182.9290  176.3330  139.6500 N   0  0  0  0  0  2  0  0  0  0  0  0
  2  7  1  0  0  0  0
  2  5  1  0  0  0  0
  4 10  1  0  0  0  0
  5  8  1  0  0  0  0
  6  9  1  0  0  0  0
  7  3  1  0  0  0  0
  8  3  2  0  0  0  0
  8  1  1  0  0  0  0
  9 16  2  0  0  0  0
 10  5  2  0  0  0  0
 10 14  1  0  0  0  0
 11  1  2  0  0  0  0
 11  9  1  0  0  0  0
 12  4  1  0  0  0  0
 12 15  2  0  0  0  0
 13  2  2  0  0  0  0
 14 11  1  0  0  0  0
 15 17  1  0  0  0  0
 17 14  2  0  0  0  0
 17  6  1  0  0  0  0
 18 13  1  0  0  0  0
 18  4  2  0  0  0  0
 19 18  1  0  0  0  0
 20 19  1  0  0  0  0
 22 31  1  0  0  0  0
 22 25  1  0  0  0  0
 23 22  2  0  0  0  0
 24 25  1  0  0  0  0
 24 21  1  0  0  0  0
 25 28  1  0  0  0  0
 26 27  1  0  0  0  0
 27 20  1  0  0  0  0
 28 30  1  1  0  0  0
 29 21  1  1  0  0  0
 29 28  1  0  0  0  0
 29 26  1  0  0  0  0
 30 27  2  0  0  0  0
 32  7  1  0  0  0  0
 32 33  1  0  0  0  0
 34 33  1  0  0  0  0
 35 34  1  0  0  0  0
 36 35  1  0  0  0  0
 37 36  1  0  0  0  0
 38 39  2  0  0  0  0
 39 41  1  0  0  0  0
 39 37  1  0  0  0  0
 41 40  1  0  0  0  0
 42 37  1  0  0  0  0
 43 44  1  0  0  0  0
 44 42  1  0  0  0  0
M  END
>  <MODEL>
2

>  <REMARK>
 VINA RESULT:      -8.9      1.816      2.152
  Name = 
  13 active torsions:
  status: ('A' for Active; 'I' for Inactive)
    1  A    between atoms: C_1  and  N_3
    2  A    between atoms: C_1  and  C_44
    3  A    between atoms: N_3  and  C_29
    4  A    between atoms: C_4  and  N_10
    5  A    between atoms: C_4  and  N_42
    6  A    between atoms: N_10  and  C_19
    7  A    between atoms: C_16  and  N_22
    8  A    between atoms: C_16  and  C_24
    9  A    between atoms: C_19  and  C_24
   10  A    between atoms: N_20  and  C_21
   11  A    between atoms: C_21  and  N_42
   12  A    between atoms: C_31  and  C_32
   13  A    between atoms: C_32  and  N_42
                            x       y       z     vdW  Elec       q    Type
                         _______ _______ _______ _____ _____    ______ ____

>  <TORSDO>
F 13

$$$$
=
 OpenBabel10222422003D

 44 50  0  0  1  0  0  0  0  0999 V2000
  186.5640  177.9260  146.0510 C   0  0  0  0  0  3  0  0  0  0  0  0
  187.2610  177.6900  142.6530 C   0  0  0  0  0  0  0  0  0  0  0  0
  185.4010  178.5180  143.8590 C   0  0  0  0  0  3  0  0  0  0  0  0
  189.8580  177.0650  143.5820 C   0  0  0  0  0  0  0  0  0  0  0  0
  187.4070  177.2400  143.8730 C   0  0  0  0  0  0  0  0  0  0  0  0
  189.9450  177.6400  147.7660 N   0  0  0  0  0  2  0  0  0  0  0  0
  186.0600  178.4570  142.5470 N   0  0  0  0  0  0  0  0  0  0  0  0
  186.3640  177.7730  144.7300 C   0  0  0  0  0  0  0  0  0  0  0  0
  188.5290  177.8500  147.8430 C   0  0  0  0  0  0  0  0  0  0  0  0
  188.6540  176.6090  144.3860 C   0  0  0  0  0  0  0  0  0  0  0  0
  187.8510  177.4330  146.6150 C   0  0  0  0  0  0  0  0  0  0  0  0
  191.0420  177.2980  144.1900 C   0  0  0  0  0  3  0  0  0  0  0  0
  188.4000  177.6820  141.7010 C   0  0  0  0  0  3  0  0  0  0  0  0
  188.8030  176.9360  145.8340 C   0  0  0  0  0  0  0  0  0  0  0  0
  191.1780  177.3100  145.6790 C   0  0  0  0  0  3  0  0  0  0  0  0
  187.9620  178.3820  148.8310 O   0  0  0  0  0  0  0  0  0  0  0  0
  190.0940  177.1260  146.4450 C   0  0  0  0  0  0  0  0  0  0  0  0
  189.6390  177.3640  142.1350 C   0  0  0  0  0  0  0  0  0  0  0  0
  190.7760  177.3810  141.1710 C   0  0  0  0  0  2  0  0  0  0  0  0
  190.6010  176.3170  140.1940 N   0  0  0  0  0  2  0  0  0  0  0  0
  189.6600  175.1920  135.7640 C   0  0  0  0  0  2  0  0  0  0  0  0
  187.2620  178.0400  136.2030 C   0  0  0  0  0  0  0  0  0  0  0  0
  186.1580  177.7180  135.6870 O   0  0  0  0  0  0  0  0  0  0  0  0
  188.2920  175.8190  135.5630 C   0  0  0  0  0  2  0  0  0  0  0  0
  188.3500  177.1110  136.2160 N   0  0  0  0  0  0  0  0  0  0  0  0
  191.5960  175.7060  137.6500 S   0  0  0  0  0  0  0  0  0  0  0  0
  190.5240  176.5560  138.7860 C   0  0  0  0  0  0  0  0  0  0  0  0
  189.6580  177.4270  136.7570 C   0  0  2  0  0  3  0  0  0  0  0  0
  190.5720  176.3070  136.2660 C   0  0  2  0  0  3  0  0  0  0  0  0
  189.6230  177.3550  138.2440 C   0  0  0  0  0  3  0  0  0  0  0  0
  187.4150  179.3060  136.7550 O   0  0  0  0  0  1  0  0  0  0  0  0
  185.6710  179.2650  141.4000 C   0  0  0  0  0  2  0  0  0  0  0  0
  184.3350  178.7930  140.8370 C   0  0  0  0  0  2  0  0  0  0  0  0
  184.0350  179.4640  139.5040 C   0  0  0  0  0  2  0  0  0  0  0  0
  183.2420  178.5780  138.6690 N   0  0  0  0  0  2  0  0  0  0  0  0
  184.0560  177.4010  138.4130 C   0  0  0  0  0  2  0  0  0  0  0  0
  183.2010  176.2260  138.2920 N   0  0  0  0  0  0  0  0  0  0  0  0
  183.0340  175.9750  135.8970 C   0  0  0  0  0  2  0  0  0  0  0  0
  183.1890  175.4200  137.0970 C   0  0  0  0  0  0  0  0  0  0  0  0
  184.7550  173.7060  137.7430 N   0  0  0  0  0  1  0  0  0  0  0  0
  183.4450  173.9490  137.1660 C   0  0  0  0  0  2  0  0  0  0  0  0
  182.3880  175.8720  139.4480 C   0  0  0  0  0  2  0  0  0  0  0  0
  180.2730  176.5010  140.1910 C   0  0  0  0  0  1  0  0  0  0  0  0
  180.9790  175.8810  139.0880 N   0  0  0  0  0  2  0  0  0  0  0  0
  1 11  2  0  0  0  0
  2  5  1  0  0  0  0
  3  8  2  0  0  0  0
  4 12  1  0  0  0  0
  4 10  1  0  0  0  0
  5 10  2  0  0  0  0
  5  8  1  0  0  0  0
  6  9  1  0  0  0  0
  7  2  1  0  0  0  0
  7  3  1  0  0  0  0
  8  1  1  0  0  0  0
  9 16  2  0  0  0  0
 10 14  1  0  0  0  0
 11  9  1  0  0  0  0
 12 15  2  0  0  0  0
 13 18  1  0  0  0  0
 13  2  2  0  0  0  0
 14 17  2  0  0  0  0
 14 11  1  0  0  0  0
 15 17  1  0  0  0  0
 17  6  1  0  0  0  0
 18  4  2  0  0  0  0
 19 18  1  0  0  0  0
 20 19  1  0  0  0  0
 22 25  1  0  0  0  0
 22 31  1  0  0  0  0
 23 22  2  0  0  0  0
 24 21  1  0  0  0  0
 24 25  1  0  0  0  0
 25 28  1  0  0  0  0
 26 27  1  0  0  0  0
 27 20  1  0  0  0  0
 28 30  1  1  0  0  0
 29 21  1  1  0  0  0
 29 28  1  0  0  0  0
 29 26  1  0  0  0  0
 30 27  2  0  0  0  0
 32  7  1  0  0  0  0
 33 32  1  0  0  0  0
 34 33  1  0  0  0  0
 35 34  1  0  0  0  0
 36 35  1  0  0  0  0
 37 36  1  0  0  0  0
 37 42  1  0  0  0  0
 38 39  2  0  0  0  0
 39 41  1  0  0  0  0
 39 37  1  0  0  0  0
 41 40  1  0  0  0  0
 44 42  1  0  0  0  0
 44 43  1  0  0  0  0
M  END
>  <MODEL>
3

>  <REMARK>
 VINA RESULT:      -8.7      2.332      3.206
  Name = 
  13 active torsions:
  status: ('A' for Active; 'I' for Inactive)
    1  A    between atoms: C_1  and  N_3
    2  A    between atoms: C_1  and  C_44
    3  A    between atoms: N_3  and  C_29
    4  A    between atoms: C_4  and  N_10
    5  A    between atoms: C_4  and  N_42
    6  A    between atoms: N_10  and  C_19
    7  A    between atoms: C_16  and  N_22
    8  A    between atoms: C_16  and  C_24
    9  A    between atoms: C_19  and  C_24
   10  A    between atoms: N_20  and  C_21
   11  A    between atoms: C_21  and  N_42
   12  A    between atoms: C_31  and  C_32
   13  A    between atoms: C_32  and  N_42
                            x       y       z     vdW  Elec       q    Type
                         _______ _______ _______ _____ _____    ______ ____

>  <TORSDO>
F 13

$$$$
=
 OpenBabel10222422003D

 44 50  0  0  1  0  0  0  0  0999 V2000
  187.8580  177.2420  146.2450 C   0  0  0  0  0  3  0  0  0  0  0  0
  186.5860  177.8710  143.0710 C   0  0  0  0  0  0  0  0  0  0  0  0
  185.6550  178.0430  145.2390 C   0  0  0  0  0  3  0  0  0  0  0  0
  189.2940  177.5870  142.3080 C   0  0  0  0  0  0  0  0  0  0  0  0
  187.4000  177.2110  143.8550 C   0  0  0  0  0  0  0  0  0  0  0  0
  191.6350  177.2730  145.8100 N   0  0  0  0  0  2  0  0  0  0  0  0
  185.4860  178.3910  143.8220 N   0  0  0  0  0  0  0  0  0  0  0  0
  186.9740  177.3360  145.2360 C   0  0  0  0  0  0  0  0  0  0  0  0
  190.4850  177.1790  146.6610 C   0  0  0  0  0  0  0  0  0  0  0  0
  188.7540  176.7440  143.4470 C   0  0  0  0  0  0  0  0  0  0  0  0
  189.2670  176.9050  145.8980 C   0  0  0  0  0  0  0  0  0  0  0  0
  190.6040  177.9160  142.2560 C   0  0  0  0  0  3  0  0  0  0  0  0
  187.0140  178.2880  141.7130 C   0  0  0  0  0  3  0  0  0  0  0  0
  189.6570  176.7810  144.6350 C   0  0  0  0  0  0  0  0  0  0  0  0
  191.5340  177.6390  143.3930 C   0  0  0  0  0  3  0  0  0  0  0  0
  190.5280  177.3690  147.9020 O   0  0  0  0  0  0  0  0  0  0  0  0
  191.0590  177.0890  144.5180 C   0  0  0  0  0  0  0  0  0  0  0  0
  188.3020  178.1360  141.3340 C   0  0  0  0  0  0  0  0  0  0  0  0
  188.7200  178.5790  139.9740 C   0  0  0  0  0  2  0  0  0  0  0  0
  188.2270  177.6360  138.9820 N   0  0  0  0  0  2  0  0  0  0  0  0
  190.2850  175.3040  135.5030 C   0  0  0  0  0  2  0  0  0  0  0  0
  193.3290  176.4220  137.3860 C   0  0  0  0  0  0  0  0  0  0  0  0
  194.1840  176.8330  136.5570 O   0  0  0  0  0  0  0  0  0  0  0  0
  191.6940  175.8700  135.5340 C   0  0  0  0  0  2  0  0  0  0  0  0
  192.0450  175.9760  136.9360 N   0  0  0  0  0  0  0  0  0  0  0  0
  188.3200  175.3100  137.4290 S   0  0  0  0  0  0  0  0  0  0  0  0
  189.0370  176.6010  138.4190 C   0  0  0  0  0  0  0  0  0  0  0  0
  191.0280  175.4550  137.8280 C   0  0  2  0  0  3  0  0  0  0  0  0
  189.9940  174.8020  136.9140 C   0  0  2  0  0  3  0  0  0  0  0  0
  190.3520  176.5760  138.5380 C   0  0  0  0  0  3  0  0  0  0  0  0
  193.6430  176.4020  138.7390 O   0  0  0  0  0  1  0  0  0  0  0  0
  184.4910  179.3300  143.3240 C   0  0  0  0  0  2  0  0  0  0  0  0
  183.1770  179.1730  144.0810 C   0  0  0  0  0  2  0  0  0  0  0  0
  182.0100  179.0000  143.1190 C   0  0  0  0  0  2  0  0  0  0  0  0
  182.4500  179.2400  141.7560 N   0  0  0  0  0  2  0  0  0  0  0  0
  181.5600  178.4870  140.8880 C   0  0  0  0  0  2  0  0  0  0  0  0
  182.0530  178.5320  139.5160 N   0  0  0  0  0  0  0  0  0  0  0  0
  183.1380  176.5120  138.7620 C   0  0  0  0  0  2  0  0  0  0  0  0
  183.2230  177.7950  139.1090 C   0  0  0  0  0  0  0  0  0  0  0  0
  184.3780  179.9100  139.1280 N   0  0  0  0  0  1  0  0  0  0  0  0
  184.5450  178.4760  138.9720 C   0  0  0  0  0  2  0  0  0  0  0  0
  181.2870  179.3200  138.5590 C   0  0  0  0  0  2  0  0  0  0  0  0
  181.2120  181.6470  138.5720 C   0  0  0  0  0  1  0  0  0  0  0  0
  180.6860  180.4640  139.2250 N   0  0  0  0  0  2  0  0  0  0  0  0
  2  7  1  0  0  0  0
  2  5  1  0  0  0  0
  4 10  1  0  0  0  0
  5  8  1  0  0  0  0
  6  9  1  0  0  0  0
  7  3  1  0  0  0  0
  8  3  2  0  0  0  0
  8  1  1  0  0  0  0
  9 16  2  0  0  0  0
 10  5  2  0  0  0  0
 10 14  1  0  0  0  0
 11  1  2  0  0  0  0
 11  9  1  0  0  0  0
 12  4  1  0  0  0  0
 12 15  2  0  0  0  0
 13  2  2  0  0  0  0
 14 11  1  0  0  0  0
 15 17  1  0  0  0  0
 17 14  2  0  0  0  0
 17  6  1  0  0  0  0
 18 13  1  0  0  0  0
 18  4  2  0  0  0  0
 19 18  1  0  0  0  0
 20 19  1  0  0  0  0
 21 24  1  0  0  0  0
 22 31  1  0  0  0  0
 23 22  2  0  0  0  0
 24 25  1  0  0  0  0
 25 22  1  0  0  0  0
 25 28  1  0  0  0  0
 26 27  1  0  0  0  0
 27 30  2  0  0  0  0
 27 20  1  0  0  0  0
 28 30  1  6  0  0  0
 29 21  1  6  0  0  0
 29 26  1  0  0  0  0
 29 28  1  0  0  0  0
 32  7  1  0  0  0  0
 32 33  1  0  0  0  0
 34 33  1  0  0  0  0
 35 34  1  0  0  0  0
 36 35  1  0  0  0  0
 37 36  1  0  0  0  0
 38 39  2  0  0  0  0
 39 37  1  0  0  0  0
 41 39  1  0  0  0  0
 41 40  1  0  0  0  0
 42 44  1  0  0  0  0
 42 37  1  0  0  0  0
 43 44  1  0  0  0  0
M  END
>  <MODEL>
4

>  <REMARK>
 VINA RESULT:      -8.6      1.476      2.078
  Name = 
  13 active torsions:
  status: ('A' for Active; 'I' for Inactive)
    1  A    between atoms: C_1  and  N_3
    2  A    between atoms: C_1  and  C_44
    3  A    between atoms: N_3  and  C_29
    4  A    between atoms: C_4  and  N_10
    5  A    between atoms: C_4  and  N_42
    6  A    between atoms: N_10  and  C_19
    7  A    between atoms: C_16  and  N_22
    8  A    between atoms: C_16  and  C_24
    9  A    between atoms: C_19  and  C_24
   10  A    between atoms: N_20  and  C_21
   11  A    between atoms: C_21  and  N_42
   12  A    between atoms: C_31  and  C_32
   13  A    between atoms: C_32  and  N_42
                            x       y       z     vdW  Elec       q    Type
                         _______ _______ _______ _____ _____    ______ ____

>  <TORSDO>
F 13

$$$$
=
 OpenBabel10222422003D

 44 50  0  0  1  0  0  0  0  0999 V2000
  186.6760  177.9260  146.2480 C   0  0  0  0  0  3  0  0  0  0  0  0
  187.2780  177.6370  142.8360 C   0  0  0  0  0  0  0  0  0  0  0  0
  185.4540  178.4880  144.0800 C   0  0  0  0  0  3  0  0  0  0  0  0
  189.8980  177.0180  143.7020 C   0  0  0  0  0  0  0  0  0  0  0  0
  187.4560  177.2050  144.0580 C   0  0  0  0  0  0  0  0  0  0  0  0
  190.1030  177.6550  147.8730 N   0  0  0  0  0  2  0  0  0  0  0  0
  186.0760  178.4060  142.7510 N   0  0  0  0  0  0  0  0  0  0  0  0
  186.4390  177.7540  144.9350 C   0  0  0  0  0  0  0  0  0  0  0  0
  188.6900  177.8710  147.9860 C   0  0  0  0  0  0  0  0  0  0  0  0
  188.7160  176.5780  144.5450 C   0  0  0  0  0  0  0  0  0  0  0  0
  187.9770  177.4370  146.7830 C   0  0  0  0  0  0  0  0  0  0  0  0
  191.0990  177.2570  144.2730 C   0  0  0  0  0  3  0  0  0  0  0  0
  188.3890  177.6120  141.8530 C   0  0  0  0  0  3  0  0  0  0  0  0
  188.9060  176.9260  145.9840 C   0  0  0  0  0  0  0  0  0  0  0  0
  191.2760  177.2900  145.7570 C   0  0  0  0  0  3  0  0  0  0  0  0
  188.1520  178.4190  148.9800 O   0  0  0  0  0  0  0  0  0  0  0  0
  190.2130  177.1210  146.5550 C   0  0  0  0  0  0  0  0  0  0  0  0
  189.6400  177.2960  142.2570 C   0  0  0  0  0  0  0  0  0  0  0  0
  190.7490  177.2960  141.2620 C   0  0  0  0  0  2  0  0  0  0  0  0
  190.4900  176.2880  140.2440 N   0  0  0  0  0  2  0  0  0  0  0  0
  189.6040  175.3370  135.7630 C   0  0  0  0  0  2  0  0  0  0  0  0
  187.0610  178.0320  136.3390 C   0  0  0  0  0  0  0  0  0  0  0  0
  185.9750  177.6790  135.8060 O   0  0  0  0  0  0  0  0  0  0  0  0
  188.2040  175.9010  135.5910 C   0  0  0  0  0  2  0  0  0  0  0  0
  188.1960  177.1600  136.3080 N   0  0  0  0  0  0  0  0  0  0  0  0
  191.5120  175.8570  137.6750 S   0  0  0  0  0  0  0  0  0  0  0  0
  190.3990  176.5920  138.8500 C   0  0  0  0  0  0  0  0  0  0  0  0
  189.4870  177.5160  136.8650 C   0  0  2  0  0  3  0  0  0  0  0  0
  190.4570  176.4720  136.3210 C   0  0  2  0  0  3  0  0  0  0  0  0
  189.4570  177.3690  138.3470 C   0  0  0  0  0  3  0  0  0  0  0  0
  187.1480  179.2750  136.9540 O   0  0  0  0  0  1  0  0  0  0  0  0
  185.6570  179.1980  141.6040 C   0  0  0  0  0  2  0  0  0  0  0  0
  184.2600  178.7900  141.1490 C   0  0  0  0  0  2  0  0  0  0  0  0
  184.2860  178.2350  139.7320 C   0  0  0  0  0  2  0  0  0  0  0  0
  184.0020  179.2940  138.7790 N   0  0  0  0  0  2  0  0  0  0  0  0
  182.7680  179.9280  139.2110 C   0  0  0  0  0  2  0  0  0  0  0  0
  181.6240  179.1980  138.6750 N   0  0  0  0  0  0  0  0  0  0  0  0
  182.0010  178.0330  136.5960 C   0  0  0  0  0  2  0  0  0  0  0  0
  181.4280  179.0360  137.2570 C   0  0  0  0  0  0  0  0  0  0  0  0
  181.0840  180.2910  135.2280 N   0  0  0  0  0  1  0  0  0  0  0  0
  180.4980  179.9340  136.5070 C   0  0  0  0  0  2  0  0  0  0  0  0
  180.7080  178.5990  139.6370 C   0  0  0  0  0  2  0  0  0  0  0  0
  180.3530  178.4140  141.9310 C   0  0  0  0  0  1  0  0  0  0  0  0
  180.7420  179.3410  140.8860 N   0  0  0  0  0  2  0  0  0  0  0  0
  1 11  2  0  0  0  0
  2  5  1  0  0  0  0
  3  8  2  0  0  0  0
  4 12  1  0  0  0  0
  4 10  1  0  0  0  0
  5 10  2  0  0  0  0
  5  8  1  0  0  0  0
  6  9  1  0  0  0  0
  7  2  1  0  0  0  0
  7  3  1  0  0  0  0
  8  1  1  0  0  0  0
  9 16  2  0  0  0  0
 10 14  1  0  0  0  0
 11  9  1  0  0  0  0
 12 15  2  0  0  0  0
 13 18  1  0  0  0  0
 13  2  2  0  0  0  0
 14 17  2  0  0  0  0
 14 11  1  0  0  0  0
 15 17  1  0  0  0  0
 17  6  1  0  0  0  0
 18  4  2  0  0  0  0
 19 18  1  0  0  0  0
 20 19  1  0  0  0  0
 22 31  1  0  0  0  0
 23 22  2  0  0  0  0
 24 21  1  0  0  0  0
 24 25  1  0  0  0  0
 25 22  1  0  0  0  0
 25 28  1  0  0  0  0
 26 27  1  0  0  0  0
 27 20  1  0  0  0  0
 28 30  1  1  0  0  0
 29 21  1  1  0  0  0
 29 28  1  0  0  0  0
 29 26  1  0  0  0  0
 30 27  2  0  0  0  0
 32  7  1  0  0  0  0
 33 32  1  0  0  0  0
 34 33  1  0  0  0  0
 35 36  1  0  0  0  0
 35 34  1  0  0  0  0
 37 36  1  0  0  0  0
 37 42  1  0  0  0  0
 38 39  2  0  0  0  0
 39 37  1  0  0  0  0
 40 41  1  0  0  0  0
 41 39  1  0  0  0  0
 42 44  1  0  0  0  0
 44 43  1  0  0  0  0
M  END
>  <MODEL>
5

>  <REMARK>
 VINA RESULT:      -8.3      2.301      2.995
  Name = 
  13 active torsions:
  status: ('A' for Active; 'I' for Inactive)
    1  A    between atoms: C_1  and  N_3
    2  A    between atoms: C_1  and  C_44
    3  A    between atoms: N_3  and  C_29
    4  A    between atoms: C_4  and  N_10
    5  A    between atoms: C_4  and  N_42
    6  A    between atoms: N_10  and  C_19
    7  A    between atoms: C_16  and  N_22
    8  A    between atoms: C_16  and  C_24
    9  A    between atoms: C_19  and  C_24
   10  A    between atoms: N_20  and  C_21
   11  A    between atoms: C_21  and  N_42
   12  A    between atoms: C_31  and  C_32
   13  A    between atoms: C_32  and  N_42
                            x       y       z     vdW  Elec       q    Type
                         _______ _______ _______ _____ _____    ______ ____

>  <TORSDO>
F 13

$$$$
=
 OpenBabel10222422003D

 44 50  0  0  1  0  0  0  0  0999 V2000
  187.8990  177.4340  146.8370 C   0  0  0  0  0  3  0  0  0  0  0  0
  186.3840  177.9870  143.7570 C   0  0  0  0  0  0  0  0  0  0  0  0
  185.6520  178.2890  145.9860 C   0  0  0  0  0  3  0  0  0  0  0  0
  189.0020  177.5530  142.7800 C   0  0  0  0  0  0  0  0  0  0  0  0
  187.2350  177.3250  144.4980 C   0  0  0  0  0  0  0  0  0  0  0  0
  191.6230  177.2780  146.0810 N   0  0  0  0  0  2  0  0  0  0  0  0
  185.3760  178.5860  144.5740 N   0  0  0  0  0  0  0  0  0  0  0  0
  186.9360  177.5250  145.9030 C   0  0  0  0  0  0  0  0  0  0  0  0
  190.5480  177.2700  147.0310 C   0  0  0  0  0  0  0  0  0  0  0  0
  188.5290  176.7820  143.9980 C   0  0  0  0  0  0  0  0  0  0  0  0
  189.2580  177.0200  146.3870 C   0  0  0  0  0  0  0  0  0  0  0  0
  190.3150  177.8200  142.6020 C   0  0  0  0  0  3  0  0  0  0  0  0
  186.7090  178.3290  142.3500 C   0  0  0  0  0  3  0  0  0  0  0  0
  189.5320  176.8270  145.1020 C   0  0  0  0  0  0  0  0  0  0  0  0
  191.3280  177.5490  143.6680 C   0  0  0  0  0  3  0  0  0  0  0  0
  190.7060  177.5090  148.2540 O   0  0  0  0  0  0  0  0  0  0  0  0
  190.9300  177.0670  144.8530 C   0  0  0  0  0  0  0  0  0  0  0  0
  187.9520  178.1040  141.8710 C   0  0  0  0  0  0  0  0  0  0  0  0
  188.2690  178.4730  140.4620 C   0  0  0  0  0  2  0  0  0  0  0  0
  188.6140  177.2750  139.7120 N   0  0  0  0  0  2  0  0  0  0  0  0
  190.1000  176.8570  135.3080 C   0  0  0  0  0  2  0  0  0  0  0  0
  188.1340  173.6780  135.6040 C   0  0  0  0  0  0  0  0  0  0  0  0
  188.8000  172.7440  135.0800 O   0  0  0  0  0  0  0  0  0  0  0  0
  189.9390  175.3670  135.0610 C   0  0  0  0  0  2  0  0  0  0  0  0
  188.6760  175.0010  135.6690 N   0  0  0  0  0  0  0  0  0  0  0  0
  188.9540  178.4810  137.2100 S   0  0  0  0  0  0  0  0  0  0  0  0
  188.4510  177.1660  138.2960 C   0  0  0  0  0  0  0  0  0  0  0  0
  187.9520  176.1290  136.2220 C   0  0  2  0  0  3  0  0  0  0  0  0
  188.7420  177.3600  135.7870 C   0  0  2  0  0  3  0  0  0  0  0  0
  187.9890  176.0760  137.7090 C   0  0  0  0  0  3  0  0  0  0  0  0
  186.8690  173.4120  136.1140 O   0  0  0  0  0  1  0  0  0  0  0  0
  184.3800  179.5470  144.1210 C   0  0  0  0  0  2  0  0  0  0  0  0
  182.9820  178.9430  144.1830 C   0  0  0  0  0  2  0  0  0  0  0  0
  182.3460  178.8930  142.8010 C   0  0  0  0  0  2  0  0  0  0  0  0
  183.3740  178.9820  141.7780 N   0  0  0  0  0  2  0  0  0  0  0  0
  183.0130  178.0370  140.7350 C   0  0  0  0  0  2  0  0  0  0  0  0
  182.7810  178.7480  139.4830 N   0  0  0  0  0  0  0  0  0  0  0  0
  181.3430  179.2660  137.6150 C   0  0  0  0  0  2  0  0  0  0  0  0
  181.5120  178.6880  138.8030 C   0  0  0  0  0  0  0  0  0  0  0  0
  180.0850  176.7700  138.4990 N   0  0  0  0  0  1  0  0  0  0  0  0
  180.3790  177.8950  139.3680 C   0  0  0  0  0  2  0  0  0  0  0  0
  183.8750  179.5610  138.9680 C   0  0  0  0  0  2  0  0  0  0  0  0
  184.9870  177.9660  137.6860 C   0  0  0  0  0  1  0  0  0  0  0  0
  185.0910  178.7680  138.8900 N   0  0  0  0  0  2  0  0  0  0  0  0
  2  5  1  0  0  0  0
  2  7  1  0  0  0  0
  4 10  1  0  0  0  0
  5  8  1  0  0  0  0
  6  9  1  0  0  0  0
  7  3  1  0  0  0  0
  8  3  2  0  0  0  0
  8  1  1  0  0  0  0
  9 16  2  0  0  0  0
 10  5  2  0  0  0  0
 10 14  1  0  0  0  0
 11  1  2  0  0  0  0
 11  9  1  0  0  0  0
 12  4  1  0  0  0  0
 12 15  2  0  0  0  0
 13  2  2  0  0  0  0
 14 11  1  0  0  0  0
 15 17  1  0  0  0  0
 17 14  2  0  0  0  0
 17  6  1  0  0  0  0
 18 13  1  0  0  0  0
 18  4  2  0  0  0  0
 19 18  1  0  0  0  0
 20 19  1  0  0  0  0
 22 25  1  0  0  0  0
 22 31  1  0  0  0  0
 23 22  2  0  0  0  0
 24 21  1  0  0  0  0
 24 25  1  0  0  0  0
 25 28  1  0  0  0  0
 26 27  1  0  0  0  0
 27 20  1  0  0  0  0
 28 30  1  1  0  0  0
 29 21  1  1  0  0  0
 29 28  1  0  0  0  0
 29 26  1  0  0  0  0
 30 27  2  0  0  0  0
 32 33  1  0  0  0  0
 32  7  1  0  0  0  0
 34 33  1  0  0  0  0
 35 34  1  0  0  0  0
 36 35  1  0  0  0  0
 37 36  1  0  0  0  0
 38 39  2  0  0  0  0
 39 41  1  0  0  0  0
 39 37  1  0  0  0  0
 40 41  1  0  0  0  0
 42 37  1  0  0  0  0
 43 44  1  0  0  0  0
 44 42  1  0  0  0  0
M  END
>  <MODEL>
6

>  <REMARK>
 VINA RESULT:      -8.3      1.248      1.888
  Name = 
  13 active torsions:
  status: ('A' for Active; 'I' for Inactive)
    1  A    between atoms: C_1  and  N_3
    2  A    between atoms: C_1  and  C_44
    3  A    between atoms: N_3  and  C_29
    4  A    between atoms: C_4  and  N_10
    5  A    between atoms: C_4  and  N_42
    6  A    between atoms: N_10  and  C_19
    7  A    between atoms: C_16  and  N_22
    8  A    between atoms: C_16  and  C_24
    9  A    between atoms: C_19  and  C_24
   10  A    between atoms: N_20  and  C_21
   11  A    between atoms: C_21  and  N_42
   12  A    between atoms: C_31  and  C_32
   13  A    between atoms: C_32  and  N_42
                            x       y       z     vdW  Elec       q    Type
                         _______ _______ _______ _____ _____    ______ ____

>  <TORSDO>
F 13

$$$$
=
 OpenBabel10222422003D

 44 50  0  0  1  0  0  0  0  0999 V2000
  186.7120  177.9000  146.1350 C   0  0  0  0  0  3  0  0  0  0  0  0
  187.3270  177.6170  142.7240 C   0  0  0  0  0  0  0  0  0  0  0  0
  185.4960  178.4600  143.9630 C   0  0  0  0  0  3  0  0  0  0  0  0
  189.9470  177.0080  143.5990 C   0  0  0  0  0  0  0  0  0  0  0  0
  187.5030  177.1840  143.9460 C   0  0  0  0  0  0  0  0  0  0  0  0
  190.1340  177.6410  147.7710 N   0  0  0  0  0  2  0  0  0  0  0  0
  186.1230  178.3820  142.6360 N   0  0  0  0  0  0  0  0  0  0  0  0
  186.4810  177.7290  144.8210 C   0  0  0  0  0  0  0  0  0  0  0  0
  188.7200  177.8510  147.8800 C   0  0  0  0  0  0  0  0  0  0  0  0
  188.7630  176.5620  144.4370 C   0  0  0  0  0  0  0  0  0  0  0  0
  188.0130  177.4160  146.6740 C   0  0  0  0  0  0  0  0  0  0  0  0
  191.1450  177.2510  144.1750 C   0  0  0  0  0  3  0  0  0  0  0  0
  188.4430  177.5980  141.7450 C   0  0  0  0  0  3  0  0  0  0  0  0
  188.9470  176.9090  145.8770 C   0  0  0  0  0  0  0  0  0  0  0  0
  191.3170  177.2830  145.6600 C   0  0  0  0  0  3  0  0  0  0  0  0
  188.1770  178.3960  148.8730 O   0  0  0  0  0  0  0  0  0  0  0  0
  190.2510  177.1090  146.4530 C   0  0  0  0  0  0  0  0  0  0  0  0
  189.6930  177.2860  142.1530 C   0  0  0  0  0  0  0  0  0  0  0  0
  190.8060  177.2920  141.1620 C   0  0  0  0  0  2  0  0  0  0  0  0
  190.4530  176.4490  140.0300 N   0  0  0  0  0  2  0  0  0  0  0  0
  194.1130  174.6920  137.7300 C   0  0  0  0  0  2  0  0  0  0  0  0
  191.3350  173.2650  135.6560 C   0  0  0  0  0  0  0  0  0  0  0  0
  191.6030  172.0610  135.4000 O   0  0  0  0  0  1  0  0  0  0  0  0
  193.4830  173.5410  136.9660 C   0  0  0  0  0  2  0  0  0  0  0  0
  192.2140  174.0410  136.4770 N   0  0  0  0  0  0  0  0  0  0  0  0
  192.9620  176.9110  138.8790 S   0  0  0  0  0  0  0  0  0  0  0  0
  191.3030  176.2690  138.8950 C   0  0  0  0  0  0  0  0  0  0  0  0
  191.9880  175.4410  136.7810 C   0  0  2  0  0  3  0  0  0  0  0  0
  193.3030  175.9350  137.3770 C   0  0  2  0  0  3  0  0  0  0  0  0
  190.9440  175.5700  137.8340 C   0  0  0  0  0  3  0  0  0  0  0  0
  190.1820  173.8350  135.1310 O   0  0  0  0  0  0  0  0  0  0  0  0
  185.7050  179.1730  141.4880 C   0  0  0  0  0  2  0  0  0  0  0  0
  184.5250  178.5150  140.7810 C   0  0  0  0  0  2  0  0  0  0  0  0
  184.4380  178.9630  139.3290 C   0  0  0  0  0  2  0  0  0  0  0  0
  184.9140  177.9040  138.4550 N   0  0  0  0  0  2  0  0  0  0  0  0
  186.2300  178.3050  137.9870 C   0  0  0  0  0  2  0  0  0  0  0  0
  186.4530  177.7910  136.6400 N   0  0  0  0  0  0  0  0  0  0  0  0
  184.4940  176.8900  135.5560 C   0  0  0  0  0  2  0  0  0  0  0  0
  185.6860  176.6900  136.1150 C   0  0  0  0  0  0  0  0  0  0  0  0
  187.0630  175.0920  137.2800 N   0  0  0  0  0  1  0  0  0  0  0  0
  186.2500  175.3060  136.0960 C   0  0  0  0  0  2  0  0  0  0  0  0
  187.4560  178.4670  135.8270 C   0  0  0  0  0  2  0  0  0  0  0  0
  189.3010  177.2970  135.0230 C   0  0  0  0  0  1  0  0  0  0  0  0
  188.7840  177.9960  136.1840 N   0  0  0  0  0  2  0  0  0  0  0  0
  1 11  2  0  0  0  0
  2  5  1  0  0  0  0
  3  8  2  0  0  0  0
  4 12  1  0  0  0  0
  4 10  1  0  0  0  0
  5 10  2  0  0  0  0
  5  8  1  0  0  0  0
  6  9  1  0  0  0  0
  7  2  1  0  0  0  0
  7  3  1  0  0  0  0
  8  1  1  0  0  0  0
  9 16  2  0  0  0  0
 10 14  1  0  0  0  0
 11  9  1  0  0  0  0
 12 15  2  0  0  0  0
 13 18  1  0  0  0  0
 13  2  2  0  0  0  0
 14 17  2  0  0  0  0
 14 11  1  0  0  0  0
 15 17  1  0  0  0  0
 17  6  1  0  0  0  0
 18  4  2  0  0  0  0
 19 18  1  0  0  0  0
 20 19  1  0  0  0  0
 22 25  1  0  0  0  0
 23 22  1  0  0  0  0
 24 21  1  0  0  0  0
 25 28  1  0  0  0  0
 25 24  1  0  0  0  0
 26 27  1  0  0  0  0
 27 20  1  0  0  0  0
 28 29  1  0  0  0  0
 28 30  1  1  0  0  0
 29 21  1  1  0  0  0
 29 26  1  0  0  0  0
 30 27  2  0  0  0  0
 31 22  2  0  0  0  0
 32  7  1  0  0  0  0
 33 32  1  0  0  0  0
 34 33  1  0  0  0  0
 35 34  1  0  0  0  0
 36 35  1  0  0  0  0
 37 36  1  0  0  0  0
 38 39  2  0  0  0  0
 39 37  1  0  0  0  0
 41 39  1  0  0  0  0
 41 40  1  0  0  0  0
 42 44  1  0  0  0  0
 42 37  1  0  0  0  0
 43 44  1  0  0  0  0
M  END
>  <MODEL>
7

>  <REMARK>
 VINA RESULT:      -8.1      2.344      4.019
  Name = 
  13 active torsions:
  status: ('A' for Active; 'I' for Inactive)
    1  A    between atoms: C_1  and  N_3
    2  A    between atoms: C_1  and  C_44
    3  A    between atoms: N_3  and  C_29
    4  A    between atoms: C_4  and  N_10
    5  A    between atoms: C_4  and  N_42
    6  A    between atoms: N_10  and  C_19
    7  A    between atoms: C_16  and  N_22
    8  A    between atoms: C_16  and  C_24
    9  A    between atoms: C_19  and  C_24
   10  A    between atoms: N_20  and  C_21
   11  A    between atoms: C_21  and  N_42
   12  A    between atoms: C_31  and  C_32
   13  A    between atoms: C_32  and  N_42
                            x       y       z     vdW  Elec       q    Type
                         _______ _______ _______ _____ _____    ______ ____

>  <TORSDO>
F 13

$$$$
=
 OpenBabel10222422003D

 44 50  0  0  1  0  0  0  0  0999 V2000
  191.7330  177.1120  144.0820 C   0  0  0  0  0  3  0  0  0  0  0  0
  189.0390  177.9660  142.0550 C   0  0  0  0  0  0  0  0  0  0  0  0
  191.2240  177.1890  141.5830 C   0  0  0  0  0  3  0  0  0  0  0  0
  187.6390  177.9770  144.5110 C   0  0  0  0  0  0  0  0  0  0  0  0
  189.7120  178.1160  143.1670 C   0  0  0  0  0  0  0  0  0  0  0  0
  190.2190  176.5080  147.5170 N   0  0  0  0  0  2  0  0  0  0  0  0
  189.8830  177.4310  141.0320 N   0  0  0  0  0  0  0  0  0  0  0  0
  191.0500  177.5740  143.0190 C   0  0  0  0  0  0  0  0  0  0  0  0
  191.3560  176.5030  146.6440 C   0  0  0  0  0  0  0  0  0  0  0  0
  189.0880  178.4260  144.4830 C   0  0  0  0  0  0  0  0  0  0  0  0
  191.1070  177.2720  145.4240 C   0  0  0  0  0  0  0  0  0  0  0  0
  187.1070  177.4420  145.6320 C   0  0  0  0  0  3  0  0  0  0  0  0
  187.5560  178.0070  142.0540 C   0  0  0  0  0  3  0  0  0  0  0  0
  189.8870  177.7760  145.5630 C   0  0  0  0  0  0  0  0  0  0  0  0
  187.9480  177.0900  146.8170 C   0  0  0  0  0  3  0  0  0  0  0  0
  192.4100  175.8630  146.8870 O   0  0  0  0  0  0  0  0  0  0  0  0
  189.2750  177.2660  146.7630 C   0  0  0  0  0  0  0  0  0  0  0  0
  186.8810  178.0340  143.2250 C   0  0  0  0  0  0  0  0  0  0  0  0
  185.3910  178.0530  143.2080 C   0  0  0  0  0  2  0  0  0  0  0  0
  184.9250  178.4450  141.8870 N   0  0  0  0  0  2  0  0  0  0  0  0
  180.7780  179.6920  140.1490 C   0  0  0  0  0  2  0  0  0  0  0  0
  181.9290  177.3960  137.4180 C   0  0  0  0  0  0  0  0  0  0  0  0
  181.6670  177.9310  136.3070 O   0  0  0  0  0  0  0  0  0  0  0  0
  180.9380  179.3550  138.6770 C   0  0  0  0  0  2  0  0  0  0  0  0
  181.6340  178.0850  138.6370 N   0  0  0  0  0  0  0  0  0  0  0  0
  182.1890  178.8150  142.3420 S   0  0  0  0  0  0  0  0  0  0  0  0
  183.5910  178.2130  141.4290 C   0  0  0  0  0  0  0  0  0  0  0  0
  181.8730  177.5150  139.9490 C   0  0  2  0  0  3  0  0  0  0  0  0
  181.1180  178.4210  140.9190 C   0  0  2  0  0  3  0  0  0  0  0  0
  183.3210  177.6080  140.2860 C   0  0  0  0  0  3  0  0  0  0  0  0
  182.5040  176.1320  137.4480 O   0  0  0  0  0  1  0  0  0  0  0  0
  189.4380  176.9570  139.7300 C   0  0  0  0  0  2  0  0  0  0  0  0
  190.5800  176.2720  138.9870 C   0  0  0  0  0  2  0  0  0  0  0  0
  190.3400  176.2850  137.4840 C   0  0  0  0  0  2  0  0  0  0  0  0
  189.3280  175.3030  137.1340 N   0  0  0  0  0  2  0  0  0  0  0  0
  188.4620  175.9240  136.1460 C   0  0  0  0  0  2  0  0  0  0  0  0
  187.2260  176.3660  136.7820 N   0  0  0  0  0  0  0  0  0  0  0  0
  186.1480  178.1030  138.0650 C   0  0  0  0  0  2  0  0  0  0  0  0
  186.9920  177.7530  137.0970 C   0  0  0  0  0  0  0  0  0  0  0  0
  188.6470  179.4860  137.3590 N   0  0  0  0  0  1  0  0  0  0  0  0
  187.7630  178.8330  136.4100 C   0  0  0  0  0  2  0  0  0  0  0  0
  186.2140  175.3520  137.0460 C   0  0  0  0  0  2  0  0  0  0  0  0
  185.2320  173.3930  136.2590 C   0  0  0  0  0  1  0  0  0  0  0  0
  185.9650  174.5730  135.8440 N   0  0  0  0  0  2  0  0  0  0  0  0
  1 11  2  0  0  0  0
  2  5  1  0  0  0  0
  3  8  2  0  0  0  0
  4 12  1  0  0  0  0
  5 10  2  0  0  0  0
  7  3  1  0  0  0  0
  7  2  1  0  0  0  0
  8  5  1  0  0  0  0
  8  1  1  0  0  0  0
  9 16  2  0  0  0  0
  9  6  1  0  0  0  0
 10  4  1  0  0  0  0
 10 14  1  0  0  0  0
 11 14  1  0  0  0  0
 11  9  1  0  0  0  0
 12 15  2  0  0  0  0
 13  2  2  0  0  0  0
 13 18  1  0  0  0  0
 14 17  2  0  0  0  0
 17 15  1  0  0  0  0
 17  6  1  0  0  0  0
 18  4  2  0  0  0  0
 19 18  1  0  0  0  0
 20 19  1  0  0  0  0
 22 31  1  0  0  0  0
 22 25  1  0  0  0  0
 23 22  2  0  0  0  0
 24 21  1  0  0  0  0
 25 24  1  0  0  0  0
 25 28  1  0  0  0  0
 27 20  1  0  0  0  0
 27 26  1  0  0  0  0
 28 30  1  1  0  0  0
 28 29  1  0  0  0  0
 29 21  1  6  0  0  0
 29 26  1  0  0  0  0
 30 27  2  0  0  0  0
 32  7  1  0  0  0  0
 33 32  1  0  0  0  0
 34 33  1  0  0  0  0
 35 34  1  0  0  0  0
 36 37  1  0  0  0  0
 36 35  1  0  0  0  0
 37 42  1  0  0  0  0
 37 39  1  0  0  0  0
 39 38  2  0  0  0  0
 41 39  1  0  0  0  0
 41 40  1  0  0  0  0
 44 43  1  0  0  0  0
 44 42  1  0  0  0  0
M  END
>  <MODEL>
8

>  <REMARK>
 VINA RESULT:      -8.1      2.788      6.194
  Name = 
  13 active torsions:
  status: ('A' for Active; 'I' for Inactive)
    1  A    between atoms: C_1  and  N_3
    2  A    between atoms: C_1  and  C_44
    3  A    between atoms: N_3  and  C_29
    4  A    between atoms: C_4  and  N_10
    5  A    between atoms: C_4  and  N_42
    6  A    between atoms: N_10  and  C_19
    7  A    between atoms: C_16  and  N_22
    8  A    between atoms: C_16  and  C_24
    9  A    between atoms: C_19  and  C_24
   10  A    between atoms: N_20  and  C_21
   11  A    between atoms: C_21  and  N_42
   12  A    between atoms: C_31  and  C_32
   13  A    between atoms: C_32  and  N_42
                            x       y       z     vdW  Elec       q    Type
                         _______ _______ _______ _____ _____    ______ ____

>  <TORSDO>
F 13

$$$$
=
 OpenBabel10222422003D

 44 50  0  0  1  0  0  0  0  0999 V2000
  191.6320  177.0710  143.9830 C   0  0  0  0  0  3  0  0  0  0  0  0
  188.7920  177.9480  142.1790 C   0  0  0  0  0  0  0  0  0  0  0  0
  190.9210  177.1410  141.5340 C   0  0  0  0  0  3  0  0  0  0  0  0
  187.5980  177.9890  144.7420 C   0  0  0  0  0  0  0  0  0  0  0  0
  189.5550  178.0950  143.2310 C   0  0  0  0  0  0  0  0  0  0  0  0
  190.3970  176.5030  147.5350 N   0  0  0  0  0  2  0  0  0  0  0  0
  189.5420  177.3960  141.0940 N   0  0  0  0  0  0  0  0  0  0  0  0
  190.8690  177.5350  142.9770 C   0  0  0  0  0  0  0  0  0  0  0  0
  191.4600  176.4790  146.5710 C   0  0  0  0  0  0  0  0  0  0  0  0
  189.0450  178.4190  144.5920 C   0  0  0  0  0  0  0  0  0  0  0  0
  191.1210  177.2450  145.3710 C   0  0  0  0  0  0  0  0  0  0  0  0
  187.1530  177.4660  145.9060 C   0  0  0  0  0  3  0  0  0  0  0  0
  187.3140  178.0060  142.3000 C   0  0  0  0  0  3  0  0  0  0  0  0
  189.9220  177.7650  145.6070 C   0  0  0  0  0  0  0  0  0  0  0  0
  188.0840  177.1100  147.0200 C   0  0  0  0  0  3  0  0  0  0  0  0
  192.5210  175.8270  146.7310 O   0  0  0  0  0  0  0  0  0  0  0  0
  189.4040  177.2690  146.8560 C   0  0  0  0  0  0  0  0  0  0  0  0
  186.7380  178.0480  143.5210 C   0  0  0  0  0  0  0  0  0  0  0  0
  185.2520  178.0860  143.6260 C   0  0  0  0  0  2  0  0  0  0  0  0
  184.7020  178.8040  142.4870 N   0  0  0  0  0  2  0  0  0  0  0  0
  180.6920  179.6950  140.2730 C   0  0  0  0  0  2  0  0  0  0  0  0
  182.3650  177.5560  137.6880 C   0  0  0  0  0  0  0  0  0  0  0  0
  182.1880  178.0820  136.5570 O   0  0  0  0  0  0  0  0  0  0  0  0
  181.0560  179.3970  138.8290 C   0  0  0  0  0  2  0  0  0  0  0  0
  181.8660  178.1960  138.8670 N   0  0  0  0  0  0  0  0  0  0  0  0
  181.9080  178.9160  142.6140 S   0  0  0  0  0  0  0  0  0  0  0  0
  183.4580  178.4580  141.8730 C   0  0  0  0  0  0  0  0  0  0  0  0
  182.0000  177.6300  140.1950 C   0  0  2  0  0  3  0  0  0  0  0  0
  181.0550  178.4470  141.0730 C   0  0  2  0  0  3  0  0  0  0  0  0
  183.3820  177.8490  140.7030 C   0  0  0  0  0  3  0  0  0  0  0  0
  183.0470  176.3490  137.7820 O   0  0  0  0  0  1  0  0  0  0  0  0
  188.9860  176.9210  139.8360 C   0  0  0  0  0  2  0  0  0  0  0  0
  189.7340  177.5270  138.6530 C   0  0  0  0  0  2  0  0  0  0  0  0
  190.1420  176.4530  137.6550 C   0  0  0  0  0  2  0  0  0  0  0  0
  191.2240  175.6530  138.2030 N   0  0  0  0  0  2  0  0  0  0  0  0
  192.4580  176.3690  137.9260 C   0  0  0  0  0  2  0  0  0  0  0  0
  193.3290  175.5490  137.0920 N   0  0  0  0  0  0  0  0  0  0  0  0
  192.4320  175.9910  134.8950 C   0  0  0  0  0  2  0  0  0  0  0  0
  193.4890  175.8070  135.6830 C   0  0  0  0  0  0  0  0  0  0  0  0
  195.4600  177.1900  135.5800 N   0  0  0  0  0  1  0  0  0  0  0  0
  194.8490  175.9690  135.0860 C   0  0  0  0  0  2  0  0  0  0  0  0
  194.0690  174.4810  137.7520 C   0  0  0  0  0  2  0  0  0  0  0  0
  196.1220  174.1370  138.7950 C   0  0  0  0  0  1  0  0  0  0  0  0
  194.9930  175.0430  138.7240 N   0  0  0  0  0  2  0  0  0  0  0  0
  1 11  2  0  0  0  0
  2 13  2  0  0  0  0
  2  5  1  0  0  0  0
  3  8  2  0  0  0  0
  4 12  1  0  0  0  0
  5 10  2  0  0  0  0
  7  3  1  0  0  0  0
  7  2  1  0  0  0  0
  8  5  1  0  0  0  0
  8  1  1  0  0  0  0
  9 16  2  0  0  0  0
  9  6  1  0  0  0  0
 10  4  1  0  0  0  0
 10 14  1  0  0  0  0
 11 14  1  0  0  0  0
 11  9  1  0  0  0  0
 12 15  2  0  0  0  0
 13 18  1  0  0  0  0
 14 17  2  0  0  0  0
 17 15  1  0  0  0  0
 17  6  1  0  0  0  0
 18 19  1  0  0  0  0
 18  4  2  0  0  0  0
 20 19  1  0  0  0  0
 22 31  1  0  0  0  0
 22 25  1  0  0  0  0
 23 22  2  0  0  0  0
 24 25  1  0  0  0  0
 24 21  1  0  0  0  0
 25 28  1  0  0  0  0
 27 20  1  0  0  0  0
 27 26  1  0  0  0  0
 28 30  1  1  0  0  0
 28 29  1  0  0  0  0
 29 21  1  6  0  0  0
 29 26  1  0  0  0  0
 30 27  2  0  0  0  0
 32  7  1  0  0  0  0
 33 32  1  0  0  0  0
 34 35  1  0  0  0  0
 34 33  1  0  0  0  0
 36 35  1  0  0  0  0
 37 42  1  0  0  0  0
 37 36  1  0  0  0  0
 38 39  2  0  0  0  0
 39 37  1  0  0  0  0
 41 40  1  0  0  0  0
 41 39  1  0  0  0  0
 42 44  1  0  0  0  0
 44 43  1  0  0  0  0
M  END
>  <MODEL>
9

>  <REMARK>
 VINA RESULT:      -8.1      3.266      7.961
  Name = 
  13 active torsions:
  status: ('A' for Active; 'I' for Inactive)
    1  A    between atoms: C_1  and  N_3
    2  A    between atoms: C_1  and  C_44
    3  A    between atoms: N_3  and  C_29
    4  A    between atoms: C_4  and  N_10
    5  A    between atoms: C_4  and  N_42
    6  A    between atoms: N_10  and  C_19
    7  A    between atoms: C_16  and  N_22
    8  A    between atoms: C_16  and  C_24
    9  A    between atoms: C_19  and  C_24
   10  A    between atoms: N_20  and  C_21
   11  A    between atoms: C_21  and  N_42
   12  A    between atoms: C_31  and  C_32
   13  A    between atoms: C_32  and  N_42
                            x       y       z     vdW  Elec       q    Type
                         _______ _______ _______ _____ _____    ______ ____

>  <TORSDO>
F 13

$$$$
