=
 OpenBabel10232408193D

 32 36  0  0  1  0  0  0  0  0999 V2000
  184.0750  178.7430  141.1630 C   0  0  0  0  0  0  0  0  0  0  0  0
  184.8020  178.4020  143.4700 C   0  0  0  0  0  0  0  0  0  0  0  0
  185.0880  178.4880  142.0990 C   0  0  0  0  0  3  0  0  0  0  0  0
  182.7620  178.9290  141.6170 C   0  0  0  0  0  3  0  0  0  0  0  0
  183.4800  178.5840  143.9020 C   0  0  0  0  0  3  0  0  0  0  0  0
  182.4640  178.8470  142.9800 C   0  0  0  0  0  0  0  0  0  0  0  0
  187.0880  177.6580  144.0990 C   0  0  0  0  0  3  0  0  0  0  0  0
  187.7720  177.5420  145.2840 C   0  0  0  0  0  0  0  0  0  0  0  0
  189.0290  177.1390  145.7010 C   0  0  0  0  0  0  0  0  0  0  0  0
  190.0960  176.6780  144.9360 C   0  0  0  0  0  3  0  0  0  0  0  0
  186.9630  177.9350  146.2840 C   0  0  0  0  0  0  0  0  0  0  0  0
  187.7060  177.8310  147.7960 S   0  0  0  0  0  0  0  0  0  0  0  0
  190.2870  176.9080  147.7310 N   0  0  0  0  0  0  0  0  0  0  0  0
  185.7510  178.3100  145.7650 C   0  0  0  0  0  3  0  0  0  0  0  0
  191.2780  176.3300  145.6100 C   0  0  0  0  0  3  0  0  0  0  0  0
  191.3560  176.4520  147.0130 C   0  0  0  0  0  0  0  0  0  0  0  0
  185.8490  178.1310  144.4170 N   0  0  0  0  0  0  0  0  0  0  0  0
  189.1430  177.2450  147.0860 C   0  0  0  0  0  0  0  0  0  0  0  0
  192.5680  176.0930  147.6920 C   0  0  0  0  0  0  0  0  0  0  0  0
  193.5450  175.8030  148.2390 N   0  0  0  0  0  0  0  0  0  0  0  0
  184.7440  177.8350  137.5550 O   0  0  0  0  0  0  0  0  0  0  0  0
  183.6820  177.3530  136.7690 C   0  0  2  0  0  3  0  0  0  0  0  0
  182.9340  176.3140  137.5880 C   0  0  0  0  0  2  0  0  0  0  0  0
  184.2750  177.7340  138.8250 N   0  0  0  0  0  0  0  0  0  0  0  0
  184.7630  179.9650  139.2590 O   0  0  0  0  0  0  0  0  0  0  0  0
  184.3790  178.8550  139.7180 C   0  0  0  0  0  0  0  0  0  0  0  0
  183.2600  176.7160  138.9960 C   0  0  0  0  0  2  0  0  0  0  0  0
  183.7900  175.4150  135.3480 O   0  0  0  0  0  1  0  0  0  0  0  0
  185.7040  176.8290  135.4060 C   0  0  0  0  0  1  0  0  0  0  0  0
  184.1920  176.7480  135.4660 C   0  0  2  0  0  3  0  0  0  0  0  0
  179.9820  179.1940  143.8120 C   0  0  0  0  0  3  0  0  0  0  0  0
  181.1150  179.0360  143.4320 C   0  0  0  0  0  0  0  0  0  0  0  0
  1  4  2  0  0  0  0
  1  3  1  0  0  0  0
  2  5  1  0  0  0  0
  2 17  1  0  0  0  0
  3  2  2  0  0  0  0
  4  6  1  0  0  0  0
  6 32  1  0  0  0  0
  6  5  2  0  0  0  0
  7 17  1  0  0  0  0
  7  8  2  0  0  0  0
  8  9  1  0  0  0  0
  8 11  1  0  0  0  0
  9 18  1  0  0  0  0
 10 15  1  0  0  0  0
 10  9  2  0  0  0  0
 11 12  1  0  0  0  0
 14 11  2  0  0  0  0
 15 16  2  0  0  0  0
 16 19  1  0  0  0  0
 16 13  1  0  0  0  0
 17 14  1  0  0  0  0
 18 13  2  0  0  0  0
 18 12  1  0  0  0  0
 19 20  3  0  0  0  0
 21 24  1  0  0  0  0
 22 30  1  6  0  0  0
 22 21  1  0  0  0  0
 22 23  1  0  0  0  0
 23 27  1  0  0  0  0
 24 27  1  0  0  0  0
 24 26  1  0  0  0  0
 25 26  2  0  0  0  0
 26  1  1  0  0  0  0
 28 30  1  0  0  0  0
 30 29  1  1  0  0  0
 32 31  3  0  0  0  0
M  END
>  <MODEL>
1

>  <REMARK>
 VINA RESULT:      -9.2      0.000      0.000
  Name = 
  5 active torsions:
  status: ('A' for Active; 'I' for Inactive)
    1  A    between atoms: C_2  and  C_29
    2  A    between atoms: C_10  and  C_11
    3  A    between atoms: C_17  and  N_31
    4  A    between atoms: C_22  and  C_30
    5  A    between atoms: C_27  and  C_28
                            x       y       z     vdW  Elec       q    Type
                         _______ _______ _______ _____ _____    ______ ____

>  <TORSDO>
F 5

$$$$
=
 OpenBabel10232408193D

 32 36  0  0  1  0  0  0  0  0999 V2000
  184.0540  178.5350  141.3590 C   0  0  0  0  0  0  0  0  0  0  0  0
  184.7680  178.3970  143.6910 C   0  0  0  0  0  0  0  0  0  0  0  0
  185.0560  178.3370  142.3190 C   0  0  0  0  0  3  0  0  0  0  0  0
  182.7490  178.8160  141.7880 C   0  0  0  0  0  3  0  0  0  0  0  0
  183.4540  178.6710  144.0980 C   0  0  0  0  0  3  0  0  0  0  0  0
  182.4490  178.8810  143.1510 C   0  0  0  0  0  0  0  0  0  0  0  0
  187.0550  177.7150  144.3830 C   0  0  0  0  0  3  0  0  0  0  0  0
  187.7220  177.6580  145.5820 C   0  0  0  0  0  0  0  0  0  0  0  0
  188.9790  177.2920  146.0340 C   0  0  0  0  0  0  0  0  0  0  0  0
  190.0640  176.8160  145.3040 C   0  0  0  0  0  3  0  0  0  0  0  0
  186.8930  178.0810  146.5530 C   0  0  0  0  0  0  0  0  0  0  0  0
  187.6150  178.0520  148.0790 S   0  0  0  0  0  0  0  0  0  0  0  0
  190.2090  177.1650  148.0900 N   0  0  0  0  0  0  0  0  0  0  0  0
  185.6830  178.4160  146.0010 C   0  0  0  0  0  3  0  0  0  0  0  0
  191.2400  176.5140  146.0090 C   0  0  0  0  0  3  0  0  0  0  0  0
  191.2950  176.6960  147.4070 C   0  0  0  0  0  0  0  0  0  0  0  0
  185.8040  178.1830  144.6640 N   0  0  0  0  0  0  0  0  0  0  0  0
  189.0700  177.4580  147.4140 C   0  0  0  0  0  0  0  0  0  0  0  0
  192.5020  176.3830  148.1180 C   0  0  0  0  0  0  0  0  0  0  0  0
  193.4750  176.1320  148.6910 N   0  0  0  0  0  0  0  0  0  0  0  0
  185.8710  178.8910  138.0630 O   0  0  0  0  0  0  0  0  0  0  0  0
  186.9600  178.0440  137.7950 C   0  0  2  0  0  3  0  0  0  0  0  0
  187.8360  178.0090  139.0360 C   0  0  0  0  0  2  0  0  0  0  0  0
  185.6780  178.7530  139.4000 N   0  0  0  0  0  0  0  0  0  0  0  0
  183.4310  178.2420  139.0960 O   0  0  0  0  0  0  0  0  0  0  0  0
  184.3610  178.4920  139.9100 C   0  0  0  0  0  0  0  0  0  0  0  0
  186.8670  178.3600  140.1260 C   0  0  0  0  0  2  0  0  0  0  0  0
  187.7770  177.5620  135.5840 O   0  0  0  0  0  1  0  0  0  0  0  0
  189.1730  178.8760  136.9970 C   0  0  0  0  0  1  0  0  0  0  0  0
  187.7540  178.5330  136.5880 C   0  0  2  0  0  3  0  0  0  0  0  0
  179.9820  179.4030  143.9360 C   0  0  0  0  0  3  0  0  0  0  0  0
  181.1080  179.1650  143.5780 C   0  0  0  0  0  0  0  0  0  0  0  0
  1  4  2  0  0  0  0
  1  3  1  0  0  0  0
  2  5  1  0  0  0  0
  2 17  1  0  0  0  0
  3  2  2  0  0  0  0
  4  6  1  0  0  0  0
  6 32  1  0  0  0  0
  6  5  2  0  0  0  0
  7 17  1  0  0  0  0
  7  8  2  0  0  0  0
  8  9  1  0  0  0  0
  8 11  1  0  0  0  0
  9 18  1  0  0  0  0
 10 15  1  0  0  0  0
 10  9  2  0  0  0  0
 11 12  1  0  0  0  0
 14 11  2  0  0  0  0
 15 16  2  0  0  0  0
 16 13  1  0  0  0  0
 16 19  1  0  0  0  0
 17 14  1  0  0  0  0
 18 12  1  0  0  0  0
 18 13  2  0  0  0  0
 19 20  3  0  0  0  0
 21 24  1  0  0  0  0
 22 30  1  6  0  0  0
 22 21  1  0  0  0  0
 22 23  1  0  0  0  0
 23 27  1  0  0  0  0
 24 26  1  0  0  0  0
 24 27  1  0  0  0  0
 25 26  2  0  0  0  0
 26  1  1  0  0  0  0
 28 30  1  0  0  0  0
 30 29  1  1  0  0  0
 32 31  3  0  0  0  0
M  END
>  <MODEL>
2

>  <REMARK>
 VINA RESULT:      -8.9      1.634      2.002
  Name = 
  5 active torsions:
  status: ('A' for Active; 'I' for Inactive)
    1  A    between atoms: C_2  and  C_29
    2  A    between atoms: C_10  and  C_11
    3  A    between atoms: C_17  and  N_31
    4  A    between atoms: C_22  and  C_30
    5  A    between atoms: C_27  and  C_28
                            x       y       z     vdW  Elec       q    Type
                         _______ _______ _______ _____ _____    ______ ____

>  <TORSDO>
F 5

$$$$
=
 OpenBabel10232408193D

 32 36  0  0  1  0  0  0  0  0999 V2000
  187.0230  177.9290  145.0430 C   0  0  0  0  0  0  0  0  0  0  0  0
  186.8610  178.0180  142.6070 C   0  0  0  0  0  0  0  0  0  0  0  0
  187.6050  177.7900  143.7750 C   0  0  0  0  0  3  0  0  0  0  0  0
  185.6700  178.2850  145.1340 C   0  0  0  0  0  3  0  0  0  0  0  0
  185.5110  178.3810  142.7210 C   0  0  0  0  0  3  0  0  0  0  0  0
  184.9170  178.5130  143.9790 C   0  0  0  0  0  0  0  0  0  0  0  0
  188.6520  177.2360  141.0720 C   0  0  0  0  0  3  0  0  0  0  0  0
  188.8730  177.3350  139.7200 C   0  0  0  0  0  0  0  0  0  0  0  0
  189.8370  176.9300  138.8120 C   0  0  0  0  0  0  0  0  0  0  0  0
  191.0070  176.2130  139.0430 C   0  0  0  0  0  3  0  0  0  0  0  0
  187.8540  178.0190  139.1700 C   0  0  0  0  0  0  0  0  0  0  0  0
  188.0260  178.2020  137.5000 S   0  0  0  0  0  0  0  0  0  0  0  0
  190.2930  177.0630  136.4610 N   0  0  0  0  0  0  0  0  0  0  0  0
  186.9630  178.3710  140.1500 C   0  0  0  0  0  3  0  0  0  0  0  0
  191.8230  175.9270  137.9370 C   0  0  0  0  0  3  0  0  0  0  0  0
  191.4490  176.3610  136.6480 C   0  0  0  0  0  0  0  0  0  0  0  0
  187.4730  177.8800  141.3140 N   0  0  0  0  0  0  0  0  0  0  0  0
  189.5000  177.3430  137.5250 C   0  0  0  0  0  0  0  0  0  0  0  0
  192.2910  176.0630  135.5250 C   0  0  0  0  0  0  0  0  0  0  0  0
  192.9710  175.8230  134.6200 N   0  0  0  0  0  0  0  0  0  0  0  0
  189.6520  176.6050  147.4160 O   0  0  0  0  0  0  0  0  0  0  0  0
  190.9700  177.0790  147.2990 C   0  0  2  0  0  3  0  0  0  0  0  0
  191.3380  177.0660  145.8250 C   0  0  0  0  0  2  0  0  0  0  0  0
  189.0680  176.9900  146.2510 N   0  0  0  0  0  0  0  0  0  0  0  0
  187.3270  178.0330  147.3860 O   0  0  0  0  0  0  0  0  0  0  0  0
  187.8010  177.6690  146.2760 C   0  0  0  0  0  0  0  0  0  0  0  0
  189.9990  177.1560  145.1560 C   0  0  0  0  0  2  0  0  0  0  0  0
  192.8200  177.0170  148.8360 O   0  0  0  0  0  1  0  0  0  0  0  0
  192.7220  175.3080  147.1820 C   0  0  0  0  0  1  0  0  0  0  0  0
  191.9380  176.2190  148.1050 C   0  0  2  0  0  3  0  0  0  0  0  0
  182.3720  179.1910  144.1740 C   0  0  0  0  0  3  0  0  0  0  0  0
  183.5340  178.8820  144.0850 C   0  0  0  0  0  0  0  0  0  0  0  0
  1  4  1  0  0  0  0
  1 26  1  0  0  0  0
  2  5  2  0  0  0  0
  2  3  1  0  0  0  0
  3  1  2  0  0  0  0
  5  6  1  0  0  0  0
  6 32  1  0  0  0  0
  6  4  2  0  0  0  0
  7 17  1  0  0  0  0
  8  7  2  0  0  0  0
  9 10  1  0  0  0  0
  9  8  1  0  0  0  0
 11  8  1  0  0  0  0
 11 14  2  0  0  0  0
 12 18  1  0  0  0  0
 12 11  1  0  0  0  0
 13 16  2  0  0  0  0
 13 18  1  0  0  0  0
 14 17  1  0  0  0  0
 15 10  2  0  0  0  0
 16 15  1  0  0  0  0
 17  2  1  0  0  0  0
 18  9  2  0  0  0  0
 19 16  1  0  0  0  0
 20 19  3  0  0  0  0
 22 21  1  0  0  0  0
 22 30  1  1  0  0  0
 23 22  1  0  0  0  0
 24 26  1  0  0  0  0
 24 21  1  0  0  0  0
 26 25  2  0  0  0  0
 27 23  1  0  0  0  0
 27 24  1  0  0  0  0
 30 29  1  6  0  0  0
 30 28  1  0  0  0  0
 32 31  3  0  0  0  0
M  END
>  <MODEL>
3

>  <REMARK>
 VINA RESULT:      -8.7      5.231      8.896
  Name = 
  5 active torsions:
  status: ('A' for Active; 'I' for Inactive)
    1  A    between atoms: C_2  and  C_29
    2  A    between atoms: C_10  and  C_11
    3  A    between atoms: C_17  and  N_31
    4  A    between atoms: C_22  and  C_30
    5  A    between atoms: C_27  and  C_28
                            x       y       z     vdW  Elec       q    Type
                         _______ _______ _______ _____ _____    ______ ____

>  <TORSDO>
F 5

$$$$
=
 OpenBabel10232408193D

 32 36  0  0  1  0  0  0  0  0999 V2000
  185.6960  178.2790  144.4780 C   0  0  0  0  0  0  0  0  0  0  0  0
  187.9620  177.7690  143.7240 C   0  0  0  0  0  0  0  0  0  0  0  0
  186.6230  178.0830  143.4450 C   0  0  0  0  0  3  0  0  0  0  0  0
  186.1280  178.1760  145.8070 C   0  0  0  0  0  3  0  0  0  0  0  0
  188.3710  177.6630  145.0610 C   0  0  0  0  0  3  0  0  0  0  0  0
  187.4590  177.8660  146.0990 C   0  0  0  0  0  0  0  0  0  0  0  0
  188.5640  177.2350  141.3720 C   0  0  0  0  0  3  0  0  0  0  0  0
  189.7450  177.1300  140.6800 C   0  0  0  0  0  0  0  0  0  0  0  0
  190.1480  176.8390  139.3880 C   0  0  0  0  0  0  0  0  0  0  0  0
  189.3660  176.5290  138.2790 C   0  0  0  0  0  3  0  0  0  0  0  0
  190.7590  177.3890  141.5250 C   0  0  0  0  0  0  0  0  0  0  0  0
  192.2680  177.2870  140.7740 S   0  0  0  0  0  0  0  0  0  0  0  0
  192.1700  176.6380  138.1120 N   0  0  0  0  0  0  0  0  0  0  0  0
  190.2540  177.6620  142.7700 C   0  0  0  0  0  3  0  0  0  0  0  0
  190.0280  176.2700  137.0680 C   0  0  0  0  0  3  0  0  0  0  0  0
  191.4350  176.3300  137.0030 C   0  0  0  0  0  0  0  0  0  0  0  0
  188.9000  177.5610  142.6540 N   0  0  0  0  0  0  0  0  0  0  0  0
  191.5370  176.8880  139.2850 C   0  0  0  0  0  0  0  0  0  0  0  0
  192.1020  176.0650  135.7590 C   0  0  0  0  0  0  0  0  0  0  0  0
  192.6380  175.8500  134.7570 N   0  0  0  0  0  0  0  0  0  0  0  0
  182.5650  179.3250  142.6330 O   0  0  0  0  0  0  0  0  0  0  0  0
  181.9970  178.4350  141.7040 C   0  0  2  0  0  3  0  0  0  0  0  0
  183.1210  177.8840  140.8450 C   0  0  0  0  0  2  0  0  0  0  0  0
  183.8080  178.8190  142.8440 N   0  0  0  0  0  0  0  0  0  0  0  0
  183.4850  178.7940  145.1460 O   0  0  0  0  0  0  0  0  0  0  0  0
  184.2860  178.6310  144.1860 C   0  0  0  0  0  0  0  0  0  0  0  0
  184.3170  178.0370  141.7380 C   0  0  0  0  0  2  0  0  0  0  0  0
  180.2500  180.0850  141.5860 O   0  0  0  0  0  1  0  0  0  0  0  0
  179.9820  178.1210  140.2680 C   0  0  0  0  0  1  0  0  0  0  0  0
  180.9520  179.1350  140.8420 C   0  0  2  0  0  3  0  0  0  0  0  0
  188.2490  177.6680  148.6110 C   0  0  0  0  0  3  0  0  0  0  0  0
  187.8880  177.7580  147.4640 C   0  0  0  0  0  0  0  0  0  0  0  0
  1  4  1  0  0  0  0
  2  5  2  0  0  0  0
  3  2  1  0  0  0  0
  3  1  2  0  0  0  0
  4  6  2  0  0  0  0
  5  6  1  0  0  0  0
  6 32  1  0  0  0  0
  7 17  1  0  0  0  0
  8  7  2  0  0  0  0
  8 11  1  0  0  0  0
  9  8  1  0  0  0  0
 10  9  2  0  0  0  0
 11 14  2  0  0  0  0
 12 11  1  0  0  0  0
 13 18  2  0  0  0  0
 15 10  1  0  0  0  0
 16 15  2  0  0  0  0
 16 13  1  0  0  0  0
 17 14  1  0  0  0  0
 17  2  1  0  0  0  0
 18  9  1  0  0  0  0
 18 12  1  0  0  0  0
 19 16  1  0  0  0  0
 20 19  3  0  0  0  0
 21 24  1  0  0  0  0
 22 30  1  6  0  0  0
 22 21  1  0  0  0  0
 23 22  1  0  0  0  0
 23 27  1  0  0  0  0
 24 26  1  0  0  0  0
 26  1  1  0  0  0  0
 26 25  2  0  0  0  0
 27 24  1  0  0  0  0
 30 29  1  1  0  0  0
 30 28  1  0  0  0  0
 32 31  3  0  0  0  0
M  END
>  <MODEL>
4

>  <REMARK>
 VINA RESULT:      -8.4      4.274      6.954
  Name = 
  5 active torsions:
  status: ('A' for Active; 'I' for Inactive)
    1  A    between atoms: C_2  and  C_29
    2  A    between atoms: C_10  and  C_11
    3  A    between atoms: C_17  and  N_31
    4  A    between atoms: C_22  and  C_30
    5  A    between atoms: C_27  and  C_28
                            x       y       z     vdW  Elec       q    Type
                         _______ _______ _______ _____ _____    ______ ____

>  <TORSDO>
F 5

$$$$
=
 OpenBabel10232408193D

 32 36  0  0  1  0  0  0  0  0999 V2000
  182.9760  178.7880  140.5120 C   0  0  0  0  0  0  0  0  0  0  0  0
  184.4520  178.3810  142.4140 C   0  0  0  0  0  0  0  0  0  0  0  0
  184.2520  178.5360  141.0340 C   0  0  0  0  0  3  0  0  0  0  0  0
  181.8920  178.9030  141.3930 C   0  0  0  0  0  3  0  0  0  0  0  0
  183.3530  178.4910  143.2780 C   0  0  0  0  0  3  0  0  0  0  0  0
  182.0780  178.7520  142.7700 C   0  0  0  0  0  0  0  0  0  0  0  0
  186.0560  177.8950  144.2500 C   0  0  0  0  0  3  0  0  0  0  0  0
  187.4110  177.6820  144.3150 C   0  0  0  0  0  0  0  0  0  0  0  0
  188.3550  177.4120  145.2910 C   0  0  0  0  0  0  0  0  0  0  0  0
  188.1750  177.2590  146.6620 C   0  0  0  0  0  3  0  0  0  0  0  0
  187.9160  177.7690  143.0720 C   0  0  0  0  0  0  0  0  0  0  0  0
  189.5860  177.5220  143.0340 S   0  0  0  0  0  0  0  0  0  0  0  0
  190.7160  177.0300  145.4830 N   0  0  0  0  0  0  0  0  0  0  0  0
  186.9030  178.0390  142.1880 C   0  0  0  0  0  3  0  0  0  0  0  0
  189.3100  176.9860  147.4410 C   0  0  0  0  0  3  0  0  0  0  0  0
  190.5770  176.8740  146.8330 C   0  0  0  0  0  0  0  0  0  0  0  0
  185.7650  178.1130  142.9350 N   0  0  0  0  0  0  0  0  0  0  0  0
  189.6230  177.2950  144.7250 C   0  0  0  0  0  0  0  0  0  0  0  0
  191.7310  176.5940  147.6390 C   0  0  0  0  0  0  0  0  0  0  0  0
  192.6610  176.3680  148.2900 N   0  0  0  0  0  0  0  0  0  0  0  0
  182.8200  178.1180  136.7940 O   0  0  0  0  0  0  0  0  0  0  0  0
  181.8320  177.2450  136.3040 C   0  0  2  0  0  3  0  0  0  0  0  0
  181.8120  176.0190  137.2010 C   0  0  0  0  0  2  0  0  0  0  0  0
  182.8270  177.8760  138.1300 N   0  0  0  0  0  0  0  0  0  0  0  0
  182.5490  180.1330  138.6130 O   0  0  0  0  0  0  0  0  0  0  0  0
  182.7660  178.9730  139.0570 C   0  0  0  0  0  0  0  0  0  0  0  0
  182.3700  176.5500  138.4890 C   0  0  0  0  0  2  0  0  0  0  0  0
  181.4430  175.6730  134.5250 O   0  0  0  0  0  1  0  0  0  0  0  0
  183.6050  176.6620  134.6480 C   0  0  0  0  0  1  0  0  0  0  0  0
  182.1160  176.8500  134.8580 C   0  0  2  0  0  3  0  0  0  0  0  0
  180.0200  178.9650  144.4120 C   0  0  0  0  0  3  0  0  0  0  0  0
  180.9590  178.8680  143.6620 C   0  0  0  0  0  0  0  0  0  0  0  0
  1  3  2  0  0  0  0
  1  4  1  0  0  0  0
  2 17  1  0  0  0  0
  2  5  2  0  0  0  0
  3  2  1  0  0  0  0
  4  6  2  0  0  0  0
  6  5  1  0  0  0  0
  6 32  1  0  0  0  0
  7  8  2  0  0  0  0
  8  9  1  0  0  0  0
  9 10  1  0  0  0  0
 10 15  2  0  0  0  0
 11  8  1  0  0  0  0
 12 11  1  0  0  0  0
 12 18  1  0  0  0  0
 13 16  2  0  0  0  0
 14 17  1  0  0  0  0
 14 11  2  0  0  0  0
 16 15  1  0  0  0  0
 16 19  1  0  0  0  0
 17  7  1  0  0  0  0
 18  9  2  0  0  0  0
 18 13  1  0  0  0  0
 19 20  3  0  0  0  0
 21 24  1  0  0  0  0
 22 30  1  6  0  0  0
 22 21  1  0  0  0  0
 22 23  1  0  0  0  0
 23 27  1  0  0  0  0
 24 27  1  0  0  0  0
 24 26  1  0  0  0  0
 25 26  2  0  0  0  0
 26  1  1  0  0  0  0
 28 30  1  0  0  0  0
 30 29  1  1  0  0  0
 32 31  3  0  0  0  0
M  END
>  <MODEL>
5

>  <REMARK>
 VINA RESULT:      -8.3      1.606      2.013
  Name = 
  5 active torsions:
  status: ('A' for Active; 'I' for Inactive)
    1  A    between atoms: C_2  and  C_29
    2  A    between atoms: C_10  and  C_11
    3  A    between atoms: C_17  and  N_31
    4  A    between atoms: C_22  and  C_30
    5  A    between atoms: C_27  and  C_28
                            x       y       z     vdW  Elec       q    Type
                         _______ _______ _______ _____ _____    ______ ____

>  <TORSDO>
F 5

$$$$
=
 OpenBabel10232408193D

 32 36  0  0  1  0  0  0  0  0999 V2000
  191.6920  176.2150  136.9580 C   0  0  0  0  0  0  0  0  0  0  0  0
  190.4290  176.6650  139.0000 C   0  0  0  0  0  0  0  0  0  0  0  0
  191.6510  176.5010  138.3300 C   0  0  0  0  0  3  0  0  0  0  0  0
  190.4870  176.1110  136.2500 C   0  0  0  0  0  3  0  0  0  0  0  0
  189.2340  176.5490  138.2730 C   0  0  0  0  0  3  0  0  0  0  0  0
  189.2630  176.2740  136.9040 C   0  0  0  0  0  0  0  0  0  0  0  0
  189.2990  176.8490  141.2060 C   0  0  0  0  0  3  0  0  0  0  0  0
  189.7030  177.2060  142.4680 C   0  0  0  0  0  0  0  0  0  0  0  0
  189.1340  177.3300  143.7240 C   0  0  0  0  0  0  0  0  0  0  0  0
  187.8190  177.0960  144.1140 C   0  0  0  0  0  3  0  0  0  0  0  0
  191.0120  177.5110  142.4270 C   0  0  0  0  0  0  0  0  0  0  0  0
  191.6170  177.9680  143.9360 S   0  0  0  0  0  0  0  0  0  0  0  0
  189.7650  177.9420  145.9570 N   0  0  0  0  0  0  0  0  0  0  0  0
  191.4730  177.3570  141.1450 C   0  0  0  0  0  3  0  0  0  0  0  0
  187.4940  177.2980  145.4650 C   0  0  0  0  0  3  0  0  0  0  0  0
  188.4830  177.7220  146.3760 C   0  0  0  0  0  0  0  0  0  0  0  0
  190.4020  176.9490  140.4080 N   0  0  0  0  0  0  0  0  0  0  0  0
  190.0840  177.7500  144.6530 C   0  0  0  0  0  0  0  0  0  0  0  0
  188.1410  177.9260  147.7540 C   0  0  0  0  0  0  0  0  0  0  0  0
  187.8650  178.0900  148.8660 N   0  0  0  0  0  0  0  0  0  0  0  0
  195.3870  175.8030  136.2720 O   0  0  0  0  0  0  0  0  0  0  0  0
  196.0010  174.5760  136.5810 C   0  0  2  0  0  3  0  0  0  0  0  0
  195.5310  174.1590  137.9640 C   0  0  0  0  0  2  0  0  0  0  0  0
  194.2020  175.7450  136.9340 N   0  0  0  0  0  0  0  0  0  0  0  0
  193.0150  176.2390  134.9970 O   0  0  0  0  0  0  0  0  0  0  0  0
  192.9820  176.0620  136.2450 C   0  0  0  0  0  0  0  0  0  0  0  0
  194.2200  174.8760  138.0910 C   0  0  0  0  0  2  0  0  0  0  0  0
  197.9890  175.4330  137.6300 O   0  0  0  0  0  1  0  0  0  0  0  0
  197.9600  175.3590  135.2500 C   0  0  0  0  0  1  0  0  0  0  0  0
  197.5200  174.6950  136.5400 C   0  0  2  0  0  3  0  0  0  0  0  0
  187.0040  176.0660  135.5520 C   0  0  0  0  0  3  0  0  0  0  0  0
  188.0350  176.1610  136.1690 C   0  0  0  0  0  0  0  0  0  0  0  0
  1  3  1  0  0  0  0
  2 17  1  0  0  0  0
  3  2  2  0  0  0  0
  4  6  1  0  0  0  0
  4  1  2  0  0  0  0
  5  2  1  0  0  0  0
  6  5  2  0  0  0  0
  7  8  2  0  0  0  0
  8  9  1  0  0  0  0
  9 10  2  0  0  0  0
  9 18  1  0  0  0  0
 10 15  1  0  0  0  0
 11  8  1  0  0  0  0
 11 12  1  0  0  0  0
 12 18  1  0  0  0  0
 13 16  1  0  0  0  0
 14 11  2  0  0  0  0
 15 16  2  0  0  0  0
 16 19  1  0  0  0  0
 17 14  1  0  0  0  0
 17  7  1  0  0  0  0
 18 13  2  0  0  0  0
 19 20  3  0  0  0  0
 21 22  1  0  0  0  0
 21 24  1  0  0  0  0
 22 30  1  1  0  0  0
 22 23  1  0  0  0  0
 23 27  1  0  0  0  0
 24 27  1  0  0  0  0
 25 26  2  0  0  0  0
 26 24  1  0  0  0  0
 26  1  1  0  0  0  0
 30 29  1  6  0  0  0
 30 28  1  0  0  0  0
 31 32  3  0  0  0  0
 32  6  1  0  0  0  0
M  END
>  <MODEL>
6

>  <REMARK>
 VINA RESULT:      -8.2      6.593      8.636
  Name = 
  5 active torsions:
  status: ('A' for Active; 'I' for Inactive)
    1  A    between atoms: C_2  and  C_29
    2  A    between atoms: C_10  and  C_11
    3  A    between atoms: C_17  and  N_31
    4  A    between atoms: C_22  and  C_30
    5  A    between atoms: C_27  and  C_28
                            x       y       z     vdW  Elec       q    Type
                         _______ _______ _______ _____ _____    ______ ____

>  <TORSDO>
F 5

$$$$
=
 OpenBabel10232408193D

 32 36  0  0  1  0  0  0  0  0999 V2000
  188.9040  177.5150  137.4780 C   0  0  0  0  0  0  0  0  0  0  0  0
  190.0720  177.1620  139.5940 C   0  0  0  0  0  0  0  0  0  0  0  0
  188.9460  177.5960  138.8770 C   0  0  0  0  0  3  0  0  0  0  0  0
  190.0030  176.9760  136.7960 C   0  0  0  0  0  3  0  0  0  0  0  0
  191.1640  176.6330  138.8910 C   0  0  0  0  0  3  0  0  0  0  0  0
  191.1300  176.5390  137.4980 C   0  0  0  0  0  0  0  0  0  0  0  0
  189.0040  177.3340  141.8320 C   0  0  0  0  0  3  0  0  0  0  0  0
  189.4730  177.4130  143.1200 C   0  0  0  0  0  0  0  0  0  0  0  0
  188.9420  177.5110  144.3950 C   0  0  0  0  0  0  0  0  0  0  0  0
  187.6060  177.5640  144.7820 C   0  0  0  0  0  3  0  0  0  0  0  0
  190.8170  177.3850  143.0870 C   0  0  0  0  0  0  0  0  0  0  0  0
  191.5040  177.4780  144.6270 S   0  0  0  0  0  0  0  0  0  0  0  0
  189.6850  177.6530  146.6710 N   0  0  0  0  0  0  0  0  0  0  0  0
  191.2370  177.2880  141.7850 C   0  0  0  0  0  3  0  0  0  0  0  0
  187.3300  177.6630  146.1550 C   0  0  0  0  0  3  0  0  0  0  0  0
  188.3860  177.7070  147.0890 C   0  0  0  0  0  0  0  0  0  0  0  0
  190.1040  177.2590  141.0280 N   0  0  0  0  0  0  0  0  0  0  0  0
  189.9580  177.5570  145.3460 C   0  0  0  0  0  0  0  0  0  0  0  0
  188.0930  177.8090  148.4900 C   0  0  0  0  0  0  0  0  0  0  0  0
  187.8570  177.8910  149.6200 N   0  0  0  0  0  0  0  0  0  0  0  0
  185.8420  177.4630  135.2610 O   0  0  0  0  0  0  0  0  0  0  0  0
  184.6790  176.8250  135.7270 C   0  0  2  0  0  3  0  0  0  0  0  0
  185.0910  175.4900  136.3230 C   0  0  0  0  0  2  0  0  0  0  0  0
  186.8120  177.0160  136.1010 N   0  0  0  0  0  0  0  0  0  0  0  0
  187.4820  179.1870  136.5960 O   0  0  0  0  0  0  0  0  0  0  0  0
  187.7080  177.9530  136.7210 C   0  0  0  0  0  0  0  0  0  0  0  0
  186.5240  175.7300  136.6970 C   0  0  0  0  0  2  0  0  0  0  0  0
  182.7380  177.6640  134.5800 O   0  0  0  0  0  1  0  0  0  0  0  0
  182.9560  175.3000  134.7650 C   0  0  0  0  0  1  0  0  0  0  0  0
  183.6720  176.6250  134.6000 C   0  0  2  0  0  3  0  0  0  0  0  0
  193.1920  175.5330  136.1910 C   0  0  0  0  0  3  0  0  0  0  0  0
  192.2510  175.9920  136.7870 C   0  0  0  0  0  0  0  0  0  0  0  0
  1  3  1  0  0  0  0
  2 17  1  0  0  0  0
  3  2  2  0  0  0  0
  4  1  2  0  0  0  0
  4  6  1  0  0  0  0
  5  2  1  0  0  0  0
  6  5  2  0  0  0  0
  7  8  2  0  0  0  0
  8  9  1  0  0  0  0
  9 10  2  0  0  0  0
  9 18  1  0  0  0  0
 10 15  1  0  0  0  0
 11  8  1  0  0  0  0
 11 12  1  0  0  0  0
 12 18  1  0  0  0  0
 13 16  1  0  0  0  0
 14 11  2  0  0  0  0
 15 16  2  0  0  0  0
 16 19  1  0  0  0  0
 17 14  1  0  0  0  0
 17  7  1  0  0  0  0
 18 13  2  0  0  0  0
 19 20  3  0  0  0  0
 21 22  1  0  0  0  0
 21 24  1  0  0  0  0
 22 30  1  6  0  0  0
 22 23  1  0  0  0  0
 23 27  1  0  0  0  0
 24 27  1  0  0  0  0
 24 26  1  0  0  0  0
 25 26  2  0  0  0  0
 26  1  1  0  0  0  0
 28 30  1  0  0  0  0
 30 29  1  1  0  0  0
 31 32  3  0  0  0  0
 32  6  1  0  0  0  0
M  END
>  <MODEL>
7

>  <REMARK>
 VINA RESULT:      -7.8      3.660      6.021
  Name = 
  5 active torsions:
  status: ('A' for Active; 'I' for Inactive)
    1  A    between atoms: C_2  and  C_29
    2  A    between atoms: C_10  and  C_11
    3  A    between atoms: C_17  and  N_31
    4  A    between atoms: C_22  and  C_30
    5  A    between atoms: C_27  and  C_28
                            x       y       z     vdW  Elec       q    Type
                         _______ _______ _______ _____ _____    ______ ____

>  <TORSDO>
F 5

$$$$
=
 OpenBabel10232408193D

 32 36  0  0  1  0  0  0  0  0999 V2000
  191.6690  176.4780  137.7040 C   0  0  0  0  0  0  0  0  0  0  0  0
  190.4780  177.1730  139.7200 C   0  0  0  0  0  0  0  0  0  0  0  0
  191.6010  176.6050  139.0980 C   0  0  0  0  0  3  0  0  0  0  0  0
  190.6000  176.9450  136.9260 C   0  0  0  0  0  3  0  0  0  0  0  0
  189.4170  177.6280  138.9230 C   0  0  0  0  0  3  0  0  0  0  0  0
  189.4780  177.5160  137.5320 C   0  0  0  0  0  0  0  0  0  0  0  0
  189.2690  177.3030  141.8870 C   0  0  0  0  0  3  0  0  0  0  0  0
  189.6540  177.4270  143.1990 C   0  0  0  0  0  0  0  0  0  0  0  0
  189.0420  177.5060  144.4390 C   0  0  0  0  0  0  0  0  0  0  0  0
  187.6860  177.4780  144.7460 C   0  0  0  0  0  3  0  0  0  0  0  0
  190.9970  177.4840  143.2460 C   0  0  0  0  0  0  0  0  0  0  0  0
  191.5830  177.6390  144.8220 S   0  0  0  0  0  0  0  0  0  0  0  0
  189.6380  177.7220  146.7530 N   0  0  0  0  0  0  0  0  0  0  0  0
  191.5000  177.3990  141.9740 C   0  0  0  0  0  3  0  0  0  0  0  0
  187.3220  177.5770  146.0980 C   0  0  0  0  0  3  0  0  0  0  0  0
  188.3150  177.6980  147.0920 C   0  0  0  0  0  0  0  0  0  0  0  0
  190.4180  177.2890  141.1510 N   0  0  0  0  0  0  0  0  0  0  0  0
  189.9960  177.6280  145.4480 C   0  0  0  0  0  0  0  0  0  0  0  0
  187.9320  177.7970  148.4720 C   0  0  0  0  0  0  0  0  0  0  0  0
  187.6240  177.8770  149.5840 N   0  0  0  0  0  0  0  0  0  0  0  0
  194.2170  173.9840  136.4450 O   0  0  0  0  0  0  0  0  0  0  0  0
  193.8530  173.1100  135.4050 C   0  0  2  0  0  3  0  0  0  0  0  0
  192.4790  172.5490  135.7320 C   0  0  0  0  0  2  0  0  0  0  0  0
  193.0290  174.4790  136.8790 N   0  0  0  0  0  0  0  0  0  0  0  0
  193.7710  176.6690  136.6360 O   0  0  0  0  0  0  0  0  0  0  0  0
  192.8620  175.8960  137.0440 C   0  0  0  0  0  0  0  0  0  0  0  0
  191.9030  173.6040  136.6290 C   0  0  0  0  0  2  0  0  0  0  0  0
  194.7390  171.0500  136.2790 O   0  0  0  0  0  1  0  0  0  0  0  0
  196.2790  172.5490  135.2540 C   0  0  0  0  0  1  0  0  0  0  0  0
  194.8720  171.9860  135.2500 C   0  0  2  0  0  3  0  0  0  0  0  0
  187.4730  178.3830  136.0480 C   0  0  0  0  0  3  0  0  0  0  0  0
  188.3880  177.9870  136.7260 C   0  0  0  0  0  0  0  0  0  0  0  0
  1  3  1  0  0  0  0
  2 17  1  0  0  0  0
  3  2  2  0  0  0  0
  4  6  1  0  0  0  0
  4  1  2  0  0  0  0
  5  2  1  0  0  0  0
  6  5  2  0  0  0  0
  7  8  2  0  0  0  0
  8 11  1  0  0  0  0
  8  9  1  0  0  0  0
  9 10  2  0  0  0  0
  9 18  1  0  0  0  0
 10 15  1  0  0  0  0
 11 12  1  0  0  0  0
 12 18  1  0  0  0  0
 13 16  1  0  0  0  0
 14 11  2  0  0  0  0
 15 16  2  0  0  0  0
 16 19  1  0  0  0  0
 17  7  1  0  0  0  0
 17 14  1  0  0  0  0
 18 13  2  0  0  0  0
 19 20  3  0  0  0  0
 21 24  1  0  0  0  0
 22 30  1  1  0  0  0
 22 23  1  0  0  0  0
 22 21  1  0  0  0  0
 23 27  1  0  0  0  0
 24 26  1  0  0  0  0
 25 26  2  0  0  0  0
 26  1  1  0  0  0  0
 27 24  1  0  0  0  0
 30 29  1  1  0  0  0
 30 28  1  0  0  0  0
 31 32  3  0  0  0  0
 32  6  1  0  0  0  0
M  END
>  <MODEL>
8

>  <REMARK>
 VINA RESULT:      -7.7      6.144      7.888
  Name = 
  5 active torsions:
  status: ('A' for Active; 'I' for Inactive)
    1  A    between atoms: C_2  and  C_29
    2  A    between atoms: C_10  and  C_11
    3  A    between atoms: C_17  and  N_31
    4  A    between atoms: C_22  and  C_30
    5  A    between atoms: C_27  and  C_28
                            x       y       z     vdW  Elec       q    Type
                         _______ _______ _______ _____ _____    ______ ____

>  <TORSDO>
F 5

$$$$
=
 OpenBabel10232408193D

 32 36  0  0  1  0  0  0  0  0999 V2000
  192.0760  176.2770  137.4710 C   0  0  0  0  0  0  0  0  0  0  0  0
  190.1390  176.6600  138.9090 C   0  0  0  0  0  0  0  0  0  0  0  0
  191.5280  176.5700  138.7280 C   0  0  0  0  0  3  0  0  0  0  0  0
  191.2140  176.0890  136.3810 C   0  0  0  0  0  3  0  0  0  0  0  0
  189.2950  176.4610  137.8070 C   0  0  0  0  0  3  0  0  0  0  0  0
  189.8290  176.1780  136.5480 C   0  0  0  0  0  0  0  0  0  0  0  0
  190.2590  176.8080  141.3870 C   0  0  0  0  0  3  0  0  0  0  0  0
  189.3840  177.1920  142.3730 C   0  0  0  0  0  0  0  0  0  0  0  0
  189.3840  177.2960  143.7540 C   0  0  0  0  0  0  0  0  0  0  0  0
  190.4070  177.0040  144.6510 C   0  0  0  0  0  3  0  0  0  0  0  0
  188.2250  177.5570  141.7960 C   0  0  0  0  0  0  0  0  0  0  0  0
  187.0680  178.0500  142.9230 S   0  0  0  0  0  0  0  0  0  0  0  0
  187.9110  177.9510  145.5300 N   0  0  0  0  0  0  0  0  0  0  0  0
  188.3310  177.4160  140.4370 C   0  0  0  0  0  3  0  0  0  0  0  0
  190.1490  177.1980  146.0170 C   0  0  0  0  0  3  0  0  0  0  0  0
  188.8910  177.6750  146.4410 C   0  0  0  0  0  0  0  0  0  0  0  0
  189.5920  176.9530  140.2060 N   0  0  0  0  0  0  0  0  0  0  0  0
  188.1530  177.7650  144.2090 C   0  0  0  0  0  0  0  0  0  0  0  0
  188.6390  177.8690  147.8400 C   0  0  0  0  0  0  0  0  0  0  0  0
  188.4360  178.0270  148.9680 N   0  0  0  0  0  0  0  0  0  0  0  0
  195.6520  175.0540  137.5600 O   0  0  0  0  0  0  0  0  0  0  0  0
  196.0070  173.9410  136.7770 C   0  0  2  0  0  3  0  0  0  0  0  0
  194.9380  172.8800  136.9700 C   0  0  0  0  0  2  0  0  0  0  0  0
  194.2950  175.0160  137.5750 N   0  0  0  0  0  0  0  0  0  0  0  0
  194.1530  177.2190  136.8460 O   0  0  0  0  0  0  0  0  0  0  0  0
  193.5420  176.2020  137.2720 C   0  0  0  0  0  0  0  0  0  0  0  0
  193.7430  173.6930  137.3740 C   0  0  0  0  0  2  0  0  0  0  0  0
  197.3280  172.0230  137.3820 O   0  0  0  0  0  1  0  0  0  0  0  0
  197.8640  174.0900  138.4370 C   0  0  0  0  0  1  0  0  0  0  0  0
  197.3780  173.4040  137.1750 C   0  0  2  0  0  3  0  0  0  0  0  0
  188.2240  175.8130  134.4830 C   0  0  0  0  0  3  0  0  0  0  0  0
  188.9560  175.9800  135.4260 C   0  0  0  0  0  0  0  0  0  0  0  0
  1  3  1  0  0  0  0
  2 17  1  0  0  0  0
  3  2  2  0  0  0  0
  4  6  1  0  0  0  0
  4  1  2  0  0  0  0
  5  2  1  0  0  0  0
  6  5  2  0  0  0  0
  7  8  2  0  0  0  0
  8  9  1  0  0  0  0
  9 18  2  0  0  0  0
  9 10  1  0  0  0  0
 10 15  2  0  0  0  0
 11  8  1  0  0  0  0
 11 12  1  0  0  0  0
 12 18  1  0  0  0  0
 13 16  2  0  0  0  0
 14 11  2  0  0  0  0
 15 16  1  0  0  0  0
 16 19  1  0  0  0  0
 17 14  1  0  0  0  0
 17  7  1  0  0  0  0
 18 13  1  0  0  0  0
 19 20  3  0  0  0  0
 21 24  1  0  0  0  0
 22 23  1  0  0  0  0
 22 30  1  1  0  0  0
 22 21  1  0  0  0  0
 23 27  1  0  0  0  0
 25 26  2  0  0  0  0
 26  1  1  0  0  0  0
 26 24  1  0  0  0  0
 27 24  1  0  0  0  0
 30 28  1  0  0  0  0
 30 29  1  1  0  0  0
 31 32  3  0  0  0  0
 32  6  1  0  0  0  0
M  END
>  <MODEL>
9

>  <REMARK>
 VINA RESULT:      -7.7      6.627      8.726
  Name = 
  5 active torsions:
  status: ('A' for Active; 'I' for Inactive)
    1  A    between atoms: C_2  and  C_29
    2  A    between atoms: C_10  and  C_11
    3  A    between atoms: C_17  and  N_31
    4  A    between atoms: C_22  and  C_30
    5  A    between atoms: C_27  and  C_28
                            x       y       z     vdW  Elec       q    Type
                         _______ _______ _______ _____ _____    ______ ____

>  <TORSDO>
F 5

$$$$
