=
 OpenBabel10232407483D

 67 73  0  0  1  0  0  0  0  0999 V2000
  186.4210  178.2230  143.2310 C   0  0  0  0  0  0  0  0  0  0  0  0
  185.5180  179.0940  142.4030 C   0  0  2  0  0  3  0  0  0  0  0  0
  183.5160  178.9680  143.8520 C   0  0  0  0  0  0  0  0  0  0  0  0
  186.4160  178.3410  144.5600 C   0  0  0  0  0  3  0  0  0  0  0  0
  187.4410  177.2840  141.2340 C   0  0  0  0  0  3  0  0  0  0  0  0
  184.2630  179.4740  144.9760 N   0  0  0  0  0  0  0  0  0  0  0  0
  184.0780  178.7360  142.6450 C   0  0  0  0  0  0  0  0  0  0  0  0
  186.7040  178.2680  140.4120 C   0  0  0  0  0  0  0  0  0  0  0  0
  185.4970  179.2150  145.3140 C   0  0  0  0  0  3  0  0  0  0  0  0
  185.8610  179.0870  140.9730 N   0  0  0  0  0  0  0  0  0  0  0  0
  187.3220  177.2630  142.5590 C   0  0  0  0  0  0  0  0  0  0  0  0
  187.2830  178.4010  136.0840 C   0  0  0  0  0  0  0  0  0  0  0  0
  188.4130  178.5290  137.0200 C   0  0  0  0  0  0  0  0  0  0  0  0
  189.5880  178.6830  136.5940 O   0  0  0  0  0  0  0  0  0  0  0  0
  186.9210  178.3410  138.9500 C   0  0  0  0  0  0  0  0  0  0  0  0
  186.0420  178.2770  136.5580 C   0  0  0  0  0  3  0  0  0  0  0  0
  185.7180  178.3480  138.0300 C   0  0  0  0  0  2  0  0  0  0  0  0
  188.1650  178.4540  138.4620 C   0  0  0  0  0  3  0  0  0  0  0  0
  187.5120  178.3330  134.6120 C   0  0  0  0  0  2  0  0  0  0  0  0
  188.6490  177.5690  134.3470 O   0  0  0  0  0  1  0  0  0  0  0  0
  182.6580  177.6680  140.6730 C   0  0  0  0  0  0  0  0  0  0  0  0
  183.3070  178.1470  141.5680 C   0  0  0  0  0  0  0  0  0  0  0  0
  181.8550  177.0850  139.5940 C   0  0  0  0  0  2  0  0  0  0  0  0
  182.5560  175.6040  136.3670 O   0  0  0  0  0  0  0  0  0  0  0  0
  183.1200  174.6810  137.2680 C   0  0  2  0  0  3  0  0  0  0  0  0
  183.3390  175.3720  138.6040 C   0  0  0  0  0  2  0  0  0  0  0  0
  182.7470  176.7310  138.4190 C   0  0  1  0  0  3  0  0  0  0  0  0
  181.9390  176.5820  137.1560 C   0  0  0  0  0  2  0  0  0  0  0  0
  185.9170  174.8230  134.8200 C   0  0  0  0  0  2  0  0  0  0  0  0
  185.6190  174.8550  137.3380 C   0  0  0  0  0  2  0  0  0  0  0  0
  184.5290  174.3190  135.1990 C   0  0  2  0  0  3  0  0  0  0  0  0
  187.0290  174.6100  136.2380 S   0  0  0  0  0  0  0  0  0  0  0  0
  184.4380  174.1380  136.7120 C   0  0  2  0  0  3  0  0  0  0  0  0
  184.1610  171.9790  135.1070 O   0  0  0  0  0  0  0  0  0  0  0  0
  184.2260  173.0320  134.4940 C   0  0  0  0  0  3  0  0  0  0  0  0
  180.9640  178.6150  144.2140 N   0  0  0  0  0  0  0  0  0  0  0  0
  182.0990  178.7720  144.0530 C   0  0  0  0  0  0  0  0  0  0  0  0
  188.0720  176.2290  143.3360 C   0  0  0  0  0  2  0  0  0  0  0  0
  189.5670  176.4810  143.2190 C   0  0  0  0  0  2  0  0  0  0  0  0
  189.8970  177.1580  141.8980 C   0  0  0  0  0  2  0  0  0  0  0  0
  192.1690  177.0790  142.6200 O   0  0  0  0  0  0  0  0  0  0  0  0
  191.3730  177.1350  141.6460 C   0  0  0  0  0  0  0  0  0  0  0  0
  191.8940  177.1880  140.3180 N   0  0  0  0  0  2  0  0  0  0  0  0
  191.0420  177.1020  139.1420 C   0  0  0  0  0  2  0  0  0  0  0  0
  193.8260  175.1900  137.2800 C   0  0  2  0  0  3  0  0  0  0  0  0
  191.6300  173.9850  137.2170 C   0  0  0  0  0  2  0  0  0  0  0  0
  193.1940  176.1570  138.2850 C   0  0  1  0  0  3  0  0  0  0  0  0
  193.7090  177.4390  138.0780 O   0  0  0  0  0  1  0  0  0  0  0  0
  191.6710  176.1730  138.1210 C   0  0  1  0  0  3  0  0  0  0  0  0
  193.1430  173.8190  137.3330 C   0  0  1  0  0  3  0  0  0  0  0  0
  191.1350  174.8250  138.3030 N   0  0  0  0  0  2  0  0  0  0  0  0
  195.1900  175.0530  137.5690 O   0  0  0  0  0  0  0  0  0  0  0  0
  195.2390  174.6790  138.8330 O   0  0  0  0  0  0  0  0  0  0  0  0
  196.5590  174.2660  139.0430 C   0  0  0  0  0  2  0  0  0  0  0  0
  197.4340  174.6640  137.8650 C   0  0  0  0  0  2  0  0  0  0  0  0
  198.7090  173.8420  137.8470 C   0  0  0  0  0  2  0  0  0  0  0  0
  199.0880  173.5310  136.4150 C   0  0  0  0  0  2  0  0  0  0  0  0
  198.7830  174.7320  135.5460 C   0  0  0  0  0  1  0  0  0  0  0  0
  193.6320  172.9460  136.1900 C   0  0  0  0  0  2  0  0  0  0  0  0
  193.5410  171.5730  136.5480 O   0  0  0  0  0  0  0  0  0  0  0  0
  194.4940  169.2710  136.4550 C   0  0  0  0  0  2  0  0  0  0  0  0
  198.0890  168.3980  136.6990 F   0  0  0  0  0  0  0  0  0  0  0  0
  195.8420  171.2790  136.8960 N   0  0  0  0  0  0  0  0  0  0  0  0
  197.0710  170.5070  137.0800 C   0  0  0  0  0  2  0  0  0  0  0  0
  196.9830  169.1610  136.3770 C   0  0  2  0  0  3  0  0  0  0  0  0
  195.7240  168.4630  136.8600 C   0  0  0  0  0  2  0  0  0  0  0  0
  194.6670  170.7540  136.6720 C   0  0  0  0  0  0  0  0  0  0  0  0
  1  4  2  0  0  0  0
  2 10  1  6  0  0  0
  2  7  1  0  0  0  0
  2  1  1  0  0  0  0
  3 37  1  0  0  0  0
  3  6  1  0  0  0  0
  4  9  1  0  0  0  0
  5 11  2  0  0  0  0
  6  9  2  0  0  0  0
  7  3  2  0  0  0  0
  8 10  2  0  0  0  0
  8  5  1  0  0  0  0
 11  1  1  0  0  0  0
 11 38  1  0  0  0  0
 12 16  2  0  0  0  0
 12 13  1  0  0  0  0
 13 18  1  0  0  0  0
 14 13  2  0  0  0  0
 15  8  1  0  0  0  0
 16 17  1  0  0  0  0
 17 15  1  0  0  0  0
 18 15  2  0  0  0  0
 19 12  1  0  0  0  0
 20 19  1  0  0  0  0
 21 22  3  0  0  0  0
 22  7  1  0  0  0  0
 23 21  1  0  0  0  0
 24 28  1  0  0  0  0
 24 25  1  0  0  0  0
 25 26  1  1  0  0  0
 27 26  1  0  0  0  0
 27 23  1  1  0  0  0
 28 27  1  0  0  0  0
 29 31  1  0  0  0  0
 29 32  1  0  0  0  0
 31 35  1  6  0  0  0
 31 33  1  0  0  0  0
 32 30  1  0  0  0  0
 33 25  1  0  0  0  0
 33 30  1  1  0  0  0
 35 34  2  0  0  0  0
 37 36  3  0  0  0  0
 39 38  1  0  0  0  0
 40 39  1  0  0  0  0
 42 40  1  0  0  0  0
 42 41  2  0  0  0  0
 43 42  1  0  0  0  0
 44 43  1  0  0  0  0
 45 50  1  0  0  0  0
 45 52  1  1  0  0  0
 45 47  1  0  0  0  0
 46 50  1  0  0  0  0
 46 51  1  0  0  0  0
 47 48  1  6  0  0  0
 49 47  1  0  0  0  0
 49 51  1  0  0  0  0
 49 44  1  1  0  0  0
 50 59  1  6  0  0  0
 52 53  1  0  0  0  0
 53 54  1  0  0  0  0
 55 54  1  0  0  0  0
 56 55  1  0  0  0  0
 57 56  1  0  0  0  0
 58 57  1  0  0  0  0
 59 60  1  0  0  0  0
 60 67  1  0  0  0  0
 61 67  1  0  0  0  0
 61 66  1  0  0  0  0
 63 64  1  0  0  0  0
 65 62  1  1  0  0  0
 65 66  1  0  0  0  0
 65 64  1  0  0  0  0
 67 63  2  0  0  0  0
M  END
>  <MODEL>
1

>  <REMARK>
 VINA RESULT:      -6.2      0.000      0.000
  Name = 
  23 active torsions:
  status: ('A' for Active; 'I' for Inactive)
    1  A    between atoms: C_1  and  C_32
    2  A    between atoms: C_1  and  C_52
    3  A    between atoms: C_3  and  C_13
    4  A    between atoms: C_4  and  C_60
    5  A    between atoms: C_5  and  O_63
    6  A    between atoms: C_7  and  C_31
    7  A    between atoms: C_7  and  O_47
    8  A    between atoms: C_12  and  C_59
    9  A    between atoms: C_12  and  C_66
   10  A    between atoms: O_19  and  C_22
   11  A    between atoms: O_19  and  O_63
   12  A    between atoms: C_20  and  C_41
   13  A    between atoms: C_21  and  C_50
   14  A    between atoms: C_22  and  C_52
   15  A    between atoms: C_24  and  C_29
   16  A    between atoms: C_25  and  C_42
   17  A    between atoms: C_37  and  C_53
   18  A    between atoms: C_37  and  C_59
   19  A    between atoms: C_41  and  N_56
   20  A    between atoms: C_44  and  C_51
   21  A    between atoms: C_45  and  C_60
   22  A    between atoms: C_46  and  C_49
   23  A    between atoms: O_47  and  C_62
                            x       y       z     vdW  Elec       q    Type
                         _______ _______ _______ _____ _____    ______ ____

>  <TORSDO>
F 23

$$$$
=
 OpenBabel10232407483D

 67 73  0  0  1  0  0  0  0  0999 V2000
  190.0440  177.2100  138.5920 C   0  0  0  0  0  0  0  0  0  0  0  0
  190.5650  176.8490  137.2290 C   0  0  0  0  0  0  0  0  0  0  0  0
  188.3960  176.2740  136.1860 C   0  0  0  0  0  0  0  0  0  0  0  0
  188.9180  177.9180  138.7020 C   0  0  0  0  0  3  0  0  0  0  0  0
  192.0060  176.2510  139.6600 C   0  0  0  0  0  3  0  0  0  0  0  0
  187.8710  177.5810  136.4930 N   0  0  0  0  0  0  0  0  0  0  0  0
  189.6360  175.8800  136.5520 C   0  0  0  0  0  0  0  0  0  0  0  0
  192.6220  176.0630  138.3290 C   0  0  0  0  0  0  0  0  0  0  0  0
  188.0630  178.3020  137.5630 C   0  0  0  0  0  3  0  0  0  0  0  0
  191.9540  176.3650  137.2520 N   0  0  0  0  0  2  0  0  0  0  0  0
  190.8000  176.7980  139.7940 C   0  0  0  0  0  0  0  0  0  0  0  0
  196.6590  174.4530  137.8920 C   0  0  0  0  0  0  0  0  0  0  0  0
  196.0940  174.7770  139.2130 C   0  0  0  0  0  0  0  0  0  0  0  0
  196.7660  174.5980  140.2620 O   0  0  0  0  0  0  0  0  0  0  0  0
  194.0000  175.5420  138.2040 C   0  0  0  0  0  0  0  0  0  0  0  0
  195.9430  174.6870  136.7910 C   0  0  0  0  0  3  0  0  0  0  0  0
  194.5920  175.3570  136.8210 C   0  0  0  0  0  2  0  0  0  0  0  0
  194.7250  175.2930  139.3040 C   0  0  0  0  0  3  0  0  0  0  0  0
  197.9930  173.7980  137.7700 C   0  0  0  0  0  2  0  0  0  0  0  0
  198.9710  174.7620  137.5250 O   0  0  0  0  0  1  0  0  0  0  0  0
  190.4710  173.4070  136.0720 C   0  0  0  0  0  0  0  0  0  0  0  0
  190.0910  174.5280  136.2960 C   0  0  0  0  0  0  0  0  0  0  0  0
  190.9220  172.0420  135.7850 C   0  0  0  0  0  2  0  0  0  0  0  0
  193.9580  170.5300  134.5200 O   0  0  0  0  0  0  0  0  0  0  0  0
  194.3240  170.9380  135.8170 C   0  0  2  0  0  3  0  0  0  0  0  0
  193.3430  171.9970  136.2930 C   0  0  0  0  0  2  0  0  0  0  0  0
  192.3230  172.0720  135.2030 C   0  0  1  0  0  3  0  0  0  0  0  0
  192.5970  170.8310  134.3940 C   0  0  0  0  0  2  0  0  0  0  0  0
  197.9230  170.6100  134.9350 C   0  0  0  0  0  2  0  0  0  0  0  0
  196.0320  172.2530  134.5400 C   0  0  0  0  0  2  0  0  0  0  0  0
  196.7840  170.3600  135.9170 C   0  0  2  0  0  3  0  0  0  0  0  0
  197.8260  172.3240  134.3460 S   0  0  0  0  0  0  0  0  0  0  0  0
  195.7540  171.4820  135.8150 C   0  0  2  0  0  3  0  0  0  0  0  0
  198.4030  169.7570  137.5410 O   0  0  0  0  0  0  0  0  0  0  0  0
  197.3100  170.2510  137.3160 C   0  0  0  0  0  3  0  0  0  0  0  0
  186.8720  174.7080  134.7750 N   0  0  0  0  0  0  0  0  0  0  0  0
  187.5500  175.4050  135.4020 C   0  0  0  0  0  0  0  0  0  0  0  0
  190.2180  176.9390  141.1630 C   0  0  0  0  0  2  0  0  0  0  0  0
  191.1180  176.2530  142.1790 C   0  0  0  0  0  2  0  0  0  0  0  0
  190.7170  176.6320  143.5960 C   0  0  0  0  0  2  0  0  0  0  0  0
  191.0940  178.9560  143.2110 O   0  0  0  0  0  0  0  0  0  0  0  0
  190.3180  178.0740  143.6640 C   0  0  0  0  0  0  0  0  0  0  0  0
  189.0760  178.4670  144.2460 N   0  0  0  0  0  2  0  0  0  0  0  0
  188.0650  177.5020  144.6520 C   0  0  0  0  0  2  0  0  0  0  0  0
  184.5900  178.4100  143.2450 C   0  0  2  0  0  3  0  0  0  0  0  0
  186.2780  178.0040  141.4390 C   0  0  0  0  0  2  0  0  0  0  0  0
  185.7440  178.3470  144.2490 C   0  0  1  0  0  3  0  0  0  0  0  0
  185.2930  177.7590  145.4340 O   0  0  0  0  0  1  0  0  0  0  0  0
  186.9060  177.5320  143.6730 C   0  0  1  0  0  3  0  0  0  0  0  0
  185.0870  178.8560  141.8660 C   0  0  1  0  0  3  0  0  0  0  0  0
  187.3560  178.1260  142.4150 N   0  0  0  0  0  2  0  0  0  0  0  0
  183.6210  179.3060  143.7150 O   0  0  0  0  0  0  0  0  0  0  0  0
  182.4950  178.6200  143.7320 O   0  0  0  0  0  0  0  0  0  0  0  0
  181.5300  179.5090  144.2190 C   0  0  0  0  0  2  0  0  0  0  0  0
  180.1720  179.2070  143.6070 C   0  0  0  0  0  2  0  0  0  0  0  0
  180.2850  178.0910  142.5850 C   0  0  0  0  0  2  0  0  0  0  0  0
  180.4690  178.6880  141.2060 C   0  0  0  0  0  2  0  0  0  0  0  0
  180.2920  177.6030  140.1650 C   0  0  0  0  0  1  0  0  0  0  0  0
  183.9790  178.7070  140.8370 C   0  0  0  0  0  2  0  0  0  0  0  0
  184.5320  178.4290  139.5570 O   0  0  0  0  0  0  0  0  0  0  0  0
  183.4940  176.2260  139.0270 C   0  0  0  0  0  2  0  0  0  0  0  0
  181.6390  175.3880  135.9280 F   0  0  0  0  0  0  0  0  0  0  0  0
  183.5570  178.1090  137.4480 N   0  0  0  0  0  0  0  0  0  0  0  0
  182.9110  177.3380  136.3850 C   0  0  0  0  0  2  0  0  0  0  0  0
  182.1040  176.1830  136.9580 C   0  0  2  0  0  3  0  0  0  0  0  0
  183.0240  175.3700  137.8540 C   0  0  0  0  0  2  0  0  0  0  0  0
  183.8810  177.6250  138.6170 C   0  0  0  0  0  0  0  0  0  0  0  0
  1  4  1  0  0  0  0
  1 11  2  0  0  0  0
  2 10  1  0  0  0  0
  2  1  1  0  0  0  0
  3  6  2  0  0  0  0
  3  7  1  0  0  0  0
  5 11  1  0  0  0  0
  6  9  1  0  0  0  0
  7  2  2  0  0  0  0
  8  5  2  0  0  0  0
  9  4  2  0  0  0  0
 10  8  1  0  0  0  0
 11 38  1  0  0  0  0
 12 13  1  0  0  0  0
 13 18  1  0  0  0  0
 13 14  2  0  0  0  0
 15  8  1  0  0  0  0
 15 18  2  0  0  0  0
 16 17  1  0  0  0  0
 16 12  2  0  0  0  0
 17 15  1  0  0  0  0
 19 12  1  0  0  0  0
 20 19  1  0  0  0  0
 21 22  3  0  0  0  0
 22  7  1  0  0  0  0
 23 21  1  0  0  0  0
 24 25  1  0  0  0  0
 25 26  1  6  0  0  0
 27 23  1  1  0  0  0
 27 26  1  0  0  0  0
 28 24  1  0  0  0  0
 28 27  1  0  0  0  0
 29 31  1  0  0  0  0
 31 35  1  1  0  0  0
 32 30  1  0  0  0  0
 32 29  1  0  0  0  0
 33 30  1  6  0  0  0
 33 25  1  0  0  0  0
 33 31  1  0  0  0  0
 35 34  2  0  0  0  0
 36 37  3  0  0  0  0
 37  3  1  0  0  0  0
 38 39  1  0  0  0  0
 39 40  1  0  0  0  0
 40 42  1  0  0  0  0
 41 42  2  0  0  0  0
 42 43  1  0  0  0  0
 43 44  1  0  0  0  0
 45 52  1  1  0  0  0
 45 47  1  0  0  0  0
 46 50  1  0  0  0  0
 46 51  1  0  0  0  0
 47 48  1  1  0  0  0
 49 47  1  0  0  0  0
 49 44  1  1  0  0  0
 50 59  1  6  0  0  0
 50 45  1  0  0  0  0
 51 49  1  0  0  0  0
 52 53  1  0  0  0  0
 53 54  1  0  0  0  0
 55 54  1  0  0  0  0
 56 55  1  0  0  0  0
 57 56  1  0  0  0  0
 58 57  1  0  0  0  0
 60 59  1  0  0  0  0
 63 67  2  0  0  0  0
 64 65  1  0  0  0  0
 64 63  1  0  0  0  0
 65 62  1  6  0  0  0
 65 66  1  0  0  0  0
 66 61  1  0  0  0  0
 67 61  1  0  0  0  0
 67 60  1  0  0  0  0
M  END
>  <MODEL>
2

>  <REMARK>
 VINA RESULT:      -5.3      3.736     11.317
  Name = 
  23 active torsions:
  status: ('A' for Active; 'I' for Inactive)
    1  A    between atoms: C_1  and  C_32
    2  A    between atoms: C_1  and  C_52
    3  A    between atoms: C_3  and  C_13
    4  A    between atoms: C_4  and  C_60
    5  A    between atoms: C_5  and  O_63
    6  A    between atoms: C_7  and  C_31
    7  A    between atoms: C_7  and  O_47
    8  A    between atoms: C_12  and  C_59
    9  A    between atoms: C_12  and  C_66
   10  A    between atoms: O_19  and  C_22
   11  A    between atoms: O_19  and  O_63
   12  A    between atoms: C_20  and  C_41
   13  A    between atoms: C_21  and  C_50
   14  A    between atoms: C_22  and  C_52
   15  A    between atoms: C_24  and  C_29
   16  A    between atoms: C_25  and  C_42
   17  A    between atoms: C_37  and  C_53
   18  A    between atoms: C_37  and  C_59
   19  A    between atoms: C_41  and  N_56
   20  A    between atoms: C_44  and  C_51
   21  A    between atoms: C_45  and  C_60
   22  A    between atoms: C_46  and  C_49
   23  A    between atoms: O_47  and  C_62
                            x       y       z     vdW  Elec       q    Type
                         _______ _______ _______ _____ _____    ______ ____

>  <TORSDO>
F 23

$$$$
=
 OpenBabel10232407483D

 67 73  0  0  1  0  0  0  0  0999 V2000
  186.3540  178.2340  143.3160 C   0  0  0  0  0  0  0  0  0  0  0  0
  185.5280  179.0630  142.3720 C   0  0  2  0  0  3  0  0  0  0  0  0
  183.4220  179.0440  143.6710 C   0  0  0  0  0  0  0  0  0  0  0  0
  186.2510  178.4310  144.6320 C   0  0  0  0  0  3  0  0  0  0  0  0
  187.5060  177.1670  141.4600 C   0  0  0  0  0  3  0  0  0  0  0  0
  184.0900  179.6090  144.8160 N   0  0  0  0  0  0  0  0  0  0  0  0
  184.0680  178.7350  142.5250 C   0  0  0  0  0  0  0  0  0  0  0  0
  186.8470  178.1070  140.5280 C   0  0  0  0  0  0  0  0  0  0  0  0
  185.2910  179.3580  145.2610 C   0  0  0  0  0  3  0  0  0  0  0  0
  185.9770  178.9670  140.9750 N   0  0  0  0  0  0  0  0  0  0  0  0
  187.2880  177.2260  142.7720 C   0  0  0  0  0  0  0  0  0  0  0  0
  187.8100  177.9540  136.2710 C   0  0  0  0  0  0  0  0  0  0  0  0
  188.5320  178.8440  137.1950 C   0  0  0  0  0  0  0  0  0  0  0  0
  189.4540  179.5930  136.7790 O   0  0  0  0  0  0  0  0  0  0  0  0
  187.1740  178.0910  139.0860 C   0  0  0  0  0  0  0  0  0  0  0  0
  186.8100  177.1970  136.7260 C   0  0  0  0  0  3  0  0  0  0  0  0
  186.3140  177.2680  138.1480 C   0  0  0  0  0  2  0  0  0  0  0  0
  188.1840  178.8390  138.6190 C   0  0  0  0  0  3  0  0  0  0  0  0
  188.2280  177.8300  134.8450 C   0  0  0  0  0  2  0  0  0  0  0  0
  188.3100  176.4820  134.4920 O   0  0  0  0  0  1  0  0  0  0  0  0
  182.7920  177.5660  140.5130 C   0  0  0  0  0  0  0  0  0  0  0  0
  183.3710  178.0910  141.4300 C   0  0  0  0  0  0  0  0  0  0  0  0
  182.0740  176.9400  139.3990 C   0  0  0  0  0  2  0  0  0  0  0  0
  183.4830  176.0540  136.1850 O   0  0  0  0  0  0  0  0  0  0  0  0
  182.7370  174.9110  136.5300 C   0  0  2  0  0  3  0  0  0  0  0  0
  182.4870  174.9220  138.0290 C   0  0  0  0  0  2  0  0  0  0  0  0
  183.0550  176.2270  138.4880 C   0  0  1  0  0  3  0  0  0  0  0  0
  183.2460  176.9860  137.2010 C   0  0  0  0  0  2  0  0  0  0  0  0
  183.6400  171.3430  137.0680 C   0  0  0  0  0  2  0  0  0  0  0  0
  182.6150  172.7670  135.2380 C   0  0  0  0  0  2  0  0  0  0  0  0
  183.9190  172.8190  137.3230 C   0  0  2  0  0  3  0  0  0  0  0  0
  183.3090  171.1020  135.3000 S   0  0  0  0  0  0  0  0  0  0  0  0
  183.4890  173.6450  136.1130 C   0  0  2  0  0  3  0  0  0  0  0  0
  186.0180  173.8800  137.0220 O   0  0  0  0  0  0  0  0  0  0  0  0
  185.3710  173.0370  137.6220 C   0  0  0  0  0  3  0  0  0  0  0  0
  180.8440  178.7400  143.8590 N   0  0  0  0  0  0  0  0  0  0  0  0
  181.9910  178.8750  143.7760 C   0  0  0  0  0  0  0  0  0  0  0  0
  187.9630  176.2320  143.6620 C   0  0  0  0  0  2  0  0  0  0  0  0
  189.4720  176.3600  143.5250 C   0  0  0  0  0  2  0  0  0  0  0  0
  189.8320  177.2110  142.3180 C   0  0  0  0  0  2  0  0  0  0  0  0
  192.0940  176.7340  142.9100 O   0  0  0  0  0  0  0  0  0  0  0  0
  191.2930  177.0960  142.0080 C   0  0  0  0  0  0  0  0  0  0  0  0
  191.7950  177.4020  140.7080 N   0  0  0  0  0  2  0  0  0  0  0  0
  190.9200  177.6790  139.5790 C   0  0  0  0  0  2  0  0  0  0  0  0
  192.9900  175.3070  137.3500 C   0  0  2  0  0  3  0  0  0  0  0  0
  190.5680  174.6720  137.4330 C   0  0  0  0  0  2  0  0  0  0  0  0
  192.6980  176.3150  138.4640 C   0  0  1  0  0  3  0  0  0  0  0  0
  193.4940  177.4480  138.2810 O   0  0  0  0  0  1  0  0  0  0  0  0
  191.2180  176.7090  138.4500 C   0  0  1  0  0  3  0  0  0  0  0  0
  191.9970  174.1400  137.3920 C   0  0  1  0  0  3  0  0  0  0  0  0
  190.3830  175.5200  138.6070 N   0  0  0  0  0  2  0  0  0  0  0  0
  194.2970  174.8240  137.4980 O   0  0  0  0  0  0  0  0  0  0  0  0
  194.6530  174.4190  136.2940 O   0  0  0  0  0  0  0  0  0  0  0  0
  195.8270  175.1240  136.0020 C   0  0  0  0  0  2  0  0  0  0  0  0
  196.8470  174.9410  137.1140 C   0  0  0  0  0  2  0  0  0  0  0  0
  197.2350  173.4810  137.2460 C   0  0  0  0  0  2  0  0  0  0  0  0
  197.1430  172.8100  135.8930 C   0  0  0  0  0  2  0  0  0  0  0  0
  198.2990  173.2670  135.0290 C   0  0  0  0  0  1  0  0  0  0  0  0
  192.1630  173.2670  136.1600 C   0  0  0  0  0  2  0  0  0  0  0  0
  190.9730  173.2830  135.3830 O   0  0  0  0  0  0  0  0  0  0  0  0
  188.6980  172.2690  135.4870 C   0  0  0  0  0  2  0  0  0  0  0  0
  187.7840  168.8610  134.3480 F   0  0  0  0  0  0  0  0  0  0  0  0
  190.6950  171.0420  134.7490 N   0  0  0  0  0  0  0  0  0  0  0  0
  189.9550  169.7920  134.5700 C   0  0  0  0  0  2  0  0  0  0  0  0
  188.4730  170.0590  134.3560 C   0  0  2  0  0  3  0  0  0  0  0  0
  187.9830  170.9200  135.5070 C   0  0  0  0  0  2  0  0  0  0  0  0
  190.1750  172.1470  135.2100 C   0  0  0  0  0  0  0  0  0  0  0  0
  1  4  2  0  0  0  0
  2 10  1  6  0  0  0
  2  7  1  0  0  0  0
  2  1  1  0  0  0  0
  3 37  1  0  0  0  0
  3  6  1  0  0  0  0
  4  9  1  0  0  0  0
  5 11  2  0  0  0  0
  6  9  2  0  0  0  0
  7  3  2  0  0  0  0
  8 10  2  0  0  0  0
  8  5  1  0  0  0  0
 11  1  1  0  0  0  0
 11 38  1  0  0  0  0
 12 16  2  0  0  0  0
 12 13  1  0  0  0  0
 13 18  1  0  0  0  0
 14 13  2  0  0  0  0
 15  8  1  0  0  0  0
 16 17  1  0  0  0  0
 17 15  1  0  0  0  0
 18 15  2  0  0  0  0
 19 12  1  0  0  0  0
 20 19  1  0  0  0  0
 21 22  3  0  0  0  0
 22  7  1  0  0  0  0
 23 21  1  0  0  0  0
 24 25  1  0  0  0  0
 24 28  1  0  0  0  0
 25 26  1  1  0  0  0
 26 27  1  0  0  0  0
 27 23  1  1  0  0  0
 28 27  1  0  0  0  0
 29 31  1  0  0  0  0
 30 32  1  0  0  0  0
 31 35  1  6  0  0  0
 32 29  1  0  0  0  0
 33 30  1  6  0  0  0
 33 25  1  0  0  0  0
 33 31  1  0  0  0  0
 34 35  2  0  0  0  0
 37 36  3  0  0  0  0
 39 38  1  0  0  0  0
 40 39  1  0  0  0  0
 42 40  1  0  0  0  0
 42 41  2  0  0  0  0
 43 42  1  0  0  0  0
 44 43  1  0  0  0  0
 45 50  1  0  0  0  0
 45 52  1  1  0  0  0
 45 47  1  0  0  0  0
 46 51  1  0  0  0  0
 47 48  1  6  0  0  0
 49 47  1  0  0  0  0
 49 51  1  0  0  0  0
 49 44  1  1  0  0  0
 50 59  1  6  0  0  0
 50 46  1  0  0  0  0
 53 52  1  0  0  0  0
 54 53  1  0  0  0  0
 54 55  1  0  0  0  0
 55 56  1  0  0  0  0
 57 56  1  0  0  0  0
 58 57  1  0  0  0  0
 60 59  1  0  0  0  0
 61 66  1  0  0  0  0
 63 67  2  0  0  0  0
 64 63  1  0  0  0  0
 65 62  1  1  0  0  0
 65 64  1  0  0  0  0
 65 66  1  0  0  0  0
 67 60  1  0  0  0  0
 67 61  1  0  0  0  0
M  END
>  <MODEL>
3

>  <REMARK>
 VINA RESULT:      -5.1      2.257      2.928
  Name = 
  23 active torsions:
  status: ('A' for Active; 'I' for Inactive)
    1  A    between atoms: C_1  and  C_32
    2  A    between atoms: C_1  and  C_52
    3  A    between atoms: C_3  and  C_13
    4  A    between atoms: C_4  and  C_60
    5  A    between atoms: C_5  and  O_63
    6  A    between atoms: C_7  and  C_31
    7  A    between atoms: C_7  and  O_47
    8  A    between atoms: C_12  and  C_59
    9  A    between atoms: C_12  and  C_66
   10  A    between atoms: O_19  and  C_22
   11  A    between atoms: O_19  and  O_63
   12  A    between atoms: C_20  and  C_41
   13  A    between atoms: C_21  and  C_50
   14  A    between atoms: C_22  and  C_52
   15  A    between atoms: C_24  and  C_29
   16  A    between atoms: C_25  and  C_42
   17  A    between atoms: C_37  and  C_53
   18  A    between atoms: C_37  and  C_59
   19  A    between atoms: C_41  and  N_56
   20  A    between atoms: C_44  and  C_51
   21  A    between atoms: C_45  and  C_60
   22  A    between atoms: C_46  and  C_49
   23  A    between atoms: O_47  and  C_62
                            x       y       z     vdW  Elec       q    Type
                         _______ _______ _______ _____ _____    ______ ____

>  <TORSDO>
F 23

$$$$
=
 OpenBabel10232407483D

 67 73  0  0  1  0  0  0  0  0999 V2000
  185.3280  178.8270  140.6020 C   0  0  2  0  0  3  0  0  0  0  0  0
  186.7420  179.0260  140.1320 C   0  0  0  0  0  0  0  0  0  0  0  0
  186.3280  178.7530  137.7080 C   0  0  0  0  0  0  0  0  0  0  0  0
  184.3220  179.3770  139.9190 C   0  0  0  0  0  3  0  0  0  0  0  0
  186.0930  177.6550  142.5900 C   0  0  0  0  0  3  0  0  0  0  0  0
  185.3600  179.8210  137.7240 N   0  0  0  0  0  0  0  0  0  0  0  0
  186.9630  178.3240  138.8200 C   0  0  0  0  0  0  0  0  0  0  0  0
  187.4870  178.0090  142.2450 C   0  0  0  0  0  0  0  0  0  0  0  0
  184.4810  180.1050  138.6460 C   0  0  0  0  0  3  0  0  0  0  0  0
  187.7440  178.6490  141.1400 N   0  0  0  0  0  0  0  0  0  0  0  0
  185.0720  178.0440  141.8290 C   0  0  0  0  0  0  0  0  0  0  0  0
  190.7570  177.0440  144.9750 C   0  0  0  0  0  0  0  0  0  0  0  0
  190.8980  176.8970  143.5170 C   0  0  0  0  0  0  0  0  0  0  0  0
  191.9750  176.4840  143.0120 O   0  0  0  0  0  0  0  0  0  0  0  0
  188.6000  177.6520  143.1520 C   0  0  0  0  0  0  0  0  0  0  0  0
  189.5940  177.4460  145.4900 C   0  0  0  0  0  3  0  0  0  0  0  0
  188.3650  177.6820  144.6490 C   0  0  0  0  0  2  0  0  0  0  0  0
  189.7770  177.2580  142.6450 C   0  0  0  0  0  3  0  0  0  0  0  0
  191.9190  176.8200  145.8830 C   0  0  0  0  0  2  0  0  0  0  0  0
  191.5260  177.0100  147.2080 O   0  0  0  0  0  1  0  0  0  0  0  0
  188.6240  176.2560  138.7220 C   0  0  0  0  0  0  0  0  0  0  0  0
  187.8660  177.1900  138.7700 C   0  0  0  0  0  0  0  0  0  0  0  0
  189.5480  175.1210  138.6470 C   0  0  0  0  0  2  0  0  0  0  0  0
  192.0280  176.6260  136.4810 O   0  0  0  0  0  0  0  0  0  0  0  0
  192.3250  175.2530  136.3970 C   0  0  2  0  0  3  0  0  0  0  0  0
  191.7100  174.5430  137.5920 C   0  0  0  0  0  2  0  0  0  0  0  0
  190.9420  175.6110  138.3000 C   0  0  1  0  0  3  0  0  0  0  0  0
  190.8850  176.7210  137.2830 C   0  0  0  0  0  2  0  0  0  0  0  0
  195.3260  173.1340  136.9800 C   0  0  0  0  0  2  0  0  0  0  0  0
  194.2590  174.3920  135.0550 C   0  0  0  0  0  2  0  0  0  0  0  0
  194.3140  174.1470  137.5010 C   0  0  2  0  0  3  0  0  0  0  0  0
  195.8810  173.6500  135.3310 S   0  0  0  0  0  0  0  0  0  0  0  0
  193.8410  175.0420  136.3590 C   0  0  2  0  0  3  0  0  0  0  0  0
  196.0060  174.6940  139.0700 O   0  0  0  0  0  0  0  0  0  0  0  0
  194.9120  174.9680  138.6030 C   0  0  0  0  0  3  0  0  0  0  0  0
  186.8980  177.7360  135.3810 N   0  0  0  0  0  0  0  0  0  0  0  0
  186.6440  178.1880  136.4160 C   0  0  0  0  0  0  0  0  0  0  0  0
  183.6870  177.6340  142.2140 C   0  0  0  0  0  2  0  0  0  0  0  0
  183.2350  178.4260  143.4310 C   0  0  0  0  0  2  0  0  0  0  0  0
  182.0640  179.3300  143.0810 C   0  0  0  0  0  2  0  0  0  0  0  0
  180.2320  178.2870  144.1990 O   0  0  0  0  0  0  0  0  0  0  0  0
  180.7790  178.5610  143.0980 C   0  0  0  0  0  0  0  0  0  0  0  0
  180.1690  178.1220  141.8850 N   0  0  0  0  0  2  0  0  0  0  0  0
  180.6560  178.5260  140.5750 C   0  0  0  0  0  2  0  0  0  0  0  0
  181.2350  176.3460  137.4460 C   0  0  2  0  0  3  0  0  0  0  0  0
  180.1670  175.0690  139.3190 C   0  0  0  0  0  2  0  0  0  0  0  0
  181.4440  177.4960  138.4350 C   0  0  1  0  0  3  0  0  0  0  0  0
  181.3040  178.7130  137.7640 O   0  0  0  0  0  1  0  0  0  0  0  0
  180.4240  177.4090  139.5750 C   0  0  1  0  0  3  0  0  0  0  0  0
  181.1750  175.0000  138.1760 C   0  0  1  0  0  3  0  0  0  0  0  0
  180.5460  176.1220  140.2560 N   0  0  0  0  0  2  0  0  0  0  0  0
  182.2860  176.3390  136.5200 O   0  0  0  0  0  0  0  0  0  0  0  0
  183.3860  176.2880  137.2470 O   0  0  0  0  0  0  0  0  0  0  0  0
  184.3100  175.5860  136.4650 C   0  0  0  0  0  2  0  0  0  0  0  0
  185.0720  174.5830  137.3150 C   0  0  0  0  0  2  0  0  0  0  0  0
  186.4670  174.3650  136.7600 C   0  0  0  0  0  2  0  0  0  0  0  0
  186.8380  172.9040  136.8890 C   0  0  0  0  0  2  0  0  0  0  0  0
  186.4130  172.1670  135.6370 C   0  0  0  0  0  1  0  0  0  0  0  0
  180.7550  173.9020  137.2140 C   0  0  0  0  0  2  0  0  0  0  0  0
  181.8160  173.6010  136.3170 O   0  0  0  0  0  0  0  0  0  0  0  0
  182.9820  171.4710  136.8810 C   0  0  0  0  0  2  0  0  0  0  0  0
  182.7620  168.3030  134.9680 F   0  0  0  0  0  0  0  0  0  0  0  0
  181.6410  171.7840  134.8450 N   0  0  0  0  0  0  0  0  0  0  0  0
  181.9440  170.4420  134.3470 C   0  0  0  0  0  2  0  0  0  0  0  0
  182.3340  169.5100  135.4850 C   0  0  2  0  0  3  0  0  0  0  0  0
  183.4660  170.1650  136.2570 C   0  0  0  0  0  2  0  0  0  0  0  0
  182.1330  172.2920  135.9420 C   0  0  0  0  0  0  0  0  0  0  0  0
  1  4  1  1  0  0  0
  1 11  1  0  0  0  0
  2  1  1  0  0  0  0
  2 10  1  0  0  0  0
  3  6  2  0  0  0  0
  3  7  1  0  0  0  0
  6  9  1  0  0  0  0
  7  2  2  0  0  0  0
  8  5  1  0  0  0  0
  8 15  1  0  0  0  0
  9  4  2  0  0  0  0
 10  8  2  0  0  0  0
 11 38  1  0  0  0  0
 11  5  2  0  0  0  0
 12 16  2  0  0  0  0
 12 19  1  0  0  0  0
 13 12  1  0  0  0  0
 14 13  2  0  0  0  0
 15 17  1  0  0  0  0
 17 16  1  0  0  0  0
 18 15  2  0  0  0  0
 18 13  1  0  0  0  0
 19 20  1  0  0  0  0
 21 22  3  0  0  0  0
 22  7  1  0  0  0  0
 23 21  1  0  0  0  0
 24 28  1  0  0  0  0
 25 24  1  0  0  0  0
 25 26  1  1  0  0  0
 26 27  1  0  0  0  0
 27 23  1  6  0  0  0
 28 27  1  0  0  0  0
 29 31  1  0  0  0  0
 30 32  1  0  0  0  0
 31 35  1  1  0  0  0
 32 29  1  0  0  0  0
 33 30  1  6  0  0  0
 33 25  1  0  0  0  0
 33 31  1  0  0  0  0
 35 34  2  0  0  0  0
 36 37  3  0  0  0  0
 37  3  1  0  0  0  0
 38 39  1  0  0  0  0
 40 42  1  0  0  0  0
 40 39  1  0  0  0  0
 42 41  2  0  0  0  0
 43 42  1  0  0  0  0
 44 43  1  0  0  0  0
 45 52  1  6  0  0  0
 45 50  1  0  0  0  0
 45 47  1  0  0  0  0
 46 51  1  0  0  0  0
 47 48  1  6  0  0  0
 47 49  1  0  0  0  0
 49 51  1  0  0  0  0
 49 44  1  1  0  0  0
 50 59  1  6  0  0  0
 50 46  1  0  0  0  0
 52 53  1  0  0  0  0
 54 53  1  0  0  0  0
 54 55  1  0  0  0  0
 56 57  1  0  0  0  0
 56 55  1  0  0  0  0
 58 57  1  0  0  0  0
 60 59  1  0  0  0  0
 63 67  2  0  0  0  0
 64 63  1  0  0  0  0
 64 65  1  0  0  0  0
 65 62  1  6  0  0  0
 65 66  1  0  0  0  0
 66 61  1  0  0  0  0
 67 60  1  0  0  0  0
 67 61  1  0  0  0  0
M  END
>  <MODEL>
4

>  <REMARK>
 VINA RESULT:      -4.9      3.495     10.062
  Name = 
  23 active torsions:
  status: ('A' for Active; 'I' for Inactive)
    1  A    between atoms: C_1  and  C_32
    2  A    between atoms: C_1  and  C_52
    3  A    between atoms: C_3  and  C_13
    4  A    between atoms: C_4  and  C_60
    5  A    between atoms: C_5  and  O_63
    6  A    between atoms: C_7  and  C_31
    7  A    between atoms: C_7  and  O_47
    8  A    between atoms: C_12  and  C_59
    9  A    between atoms: C_12  and  C_66
   10  A    between atoms: O_19  and  C_22
   11  A    between atoms: O_19  and  O_63
   12  A    between atoms: C_20  and  C_41
   13  A    between atoms: C_21  and  C_50
   14  A    between atoms: C_22  and  C_52
   15  A    between atoms: C_24  and  C_29
   16  A    between atoms: C_25  and  C_42
   17  A    between atoms: C_37  and  C_53
   18  A    between atoms: C_37  and  C_59
   19  A    between atoms: C_41  and  N_56
   20  A    between atoms: C_44  and  C_51
   21  A    between atoms: C_45  and  C_60
   22  A    between atoms: C_46  and  C_49
   23  A    between atoms: O_47  and  C_62
                            x       y       z     vdW  Elec       q    Type
                         _______ _______ _______ _____ _____    ______ ____

>  <TORSDO>
F 23

$$$$
=
 OpenBabel10232407483D

 67 73  0  0  1  0  0  0  0  0999 V2000
  188.5060  177.4020  139.3460 C   0  0  0  0  0  0  0  0  0  0  0  0
  189.4200  176.3760  139.9560 C   0  0  0  0  0  0  0  0  0  0  0  0
  190.0820  177.6710  141.9580 C   0  0  0  0  0  0  0  0  0  0  0  0
  187.6790  178.0990  140.1290 C   0  0  0  0  0  3  0  0  0  0  0  0
  189.2150  176.7850  137.1040 C   0  0  0  0  0  3  0  0  0  0  0  0
  188.7040  177.8150  142.3560 N   0  0  0  0  0  0  0  0  0  0  0  0
  190.4540  177.0420  140.8210 C   0  0  0  0  0  0  0  0  0  0  0  0
  189.9690  175.6460  137.6710 C   0  0  0  0  0  0  0  0  0  0  0  0
  187.6580  178.0130  141.6010 C   0  0  0  0  0  3  0  0  0  0  0  0
  190.0220  175.4750  138.9620 N   0  0  0  0  0  0  0  0  0  0  0  0
  188.5170  177.6080  137.8820 C   0  0  2  0  0  3  0  0  0  0  0  0
  191.9930  172.7310  135.1240 C   0  0  0  0  0  0  0  0  0  0  0  0
  192.5650  174.0630  135.3800 C   0  0  0  0  0  0  0  0  0  0  0  0
  193.6630  174.4030  134.8660 O   0  0  0  0  0  0  0  0  0  0  0  0
  190.6600  174.6850  136.7850 C   0  0  0  0  0  0  0  0  0  0  0  0
  190.8090  172.4070  135.6480 C   0  0  0  0  0  3  0  0  0  0  0  0
  189.9690  173.3820  136.4350 C   0  0  0  0  0  2  0  0  0  0  0  0
  191.8550  174.9940  136.2620 C   0  0  0  0  0  3  0  0  0  0  0  0
  192.7510  171.7090  134.3470 C   0  0  0  0  0  2  0  0  0  0  0  0
  193.6710  171.0710  135.1790 O   0  0  0  0  0  1  0  0  0  0  0  0
  193.0060  176.9560  140.0970 C   0  0  0  0  0  0  0  0  0  0  0  0
  191.8460  176.9960  140.4190 C   0  0  0  0  0  0  0  0  0  0  0  0
  194.4210  176.9210  139.7160 C   0  0  0  0  0  2  0  0  0  0  0  0
  196.8750  174.3330  139.1010 O   0  0  0  0  0  0  0  0  0  0  0  0
  196.1510  174.3770  137.8940 C   0  0  2  0  0  3  0  0  0  0  0  0
  194.8110  175.0470  138.1500 C   0  0  0  0  0  2  0  0  0  0  0  0
  194.8830  175.4830  139.5780 C   0  0  1  0  0  3  0  0  0  0  0  0
  196.3490  175.3550  139.9000 C   0  0  0  0  0  2  0  0  0  0  0  0
  197.2150  170.8230  137.6200 C   0  0  0  0  0  2  0  0  0  0  0  0
  195.1470  172.1180  138.3090 C   0  0  0  0  0  2  0  0  0  0  0  0
  197.2920  172.2580  137.1130 C   0  0  2  0  0  3  0  0  0  0  0  0
  195.4750  170.3900  137.9040 S   0  0  0  0  0  0  0  0  0  0  0  0
  195.9570  172.9620  137.3440 C   0  0  2  0  0  3  0  0  0  0  0  0
  196.7990  172.2820  134.7940 O   0  0  0  0  0  0  0  0  0  0  0  0
  197.6590  172.2840  135.6610 C   0  0  0  0  0  3  0  0  0  0  0  0
  191.8710  178.5920  143.6080 N   0  0  0  0  0  0  0  0  0  0  0  0
  191.0760  178.1820  142.8740 C   0  0  0  0  0  0  0  0  0  0  0  0
  187.7960  178.7580  137.2550 C   0  0  0  0  0  2  0  0  0  0  0  0
  186.4940  178.2730  136.6370 C   0  0  0  0  0  2  0  0  0  0  0  0
  185.7490  177.3600  137.5990 C   0  0  0  0  0  2  0  0  0  0  0  0
  185.2620  175.1900  136.7330 O   0  0  0  0  0  0  0  0  0  0  0  0
  184.8920  176.3890  136.8480 C   0  0  0  0  0  0  0  0  0  0  0  0
  183.6640  176.8020  136.2480 N   0  0  0  0  0  2  0  0  0  0  0  0
  183.0970  178.1240  136.4630 C   0  0  0  0  0  2  0  0  0  0  0  0
  181.6600  179.7780  139.6380 C   0  0  2  0  0  3  0  0  0  0  0  0
  180.8950  177.4080  139.3630 C   0  0  0  0  0  2  0  0  0  0  0  0
  182.2520  179.6820  138.2290 C   0  0  1  0  0  3  0  0  0  0  0  0
  183.4290  180.4330  138.1720 O   0  0  0  0  0  1  0  0  0  0  0  0
  182.5460  178.2220  137.8740 C   0  0  1  0  0  3  0  0  0  0  0  0
  180.4850  178.8090  139.8050 C   0  0  1  0  0  3  0  0  0  0  0  0
  181.3220  177.4290  137.9670 N   0  0  0  0  0  2  0  0  0  0  0  0
  181.2310  181.0910  139.8690 O   0  0  0  0  0  0  0  0  0  0  0  0
  180.0490  181.1740  139.2890 O   0  0  0  0  0  0  0  0  0  0  0  0
  179.9840  182.4740  138.7740 C   0  0  0  0  0  2  0  0  0  0  0  0
  181.0780  182.6920  137.7410 C   0  0  0  0  0  2  0  0  0  0  0  0
  180.4850  183.1830  136.4340 C   0  0  0  0  0  2  0  0  0  0  0  0
  180.7380  184.6690  136.2920 C   0  0  0  0  0  2  0  0  0  0  0  0
  181.5400  185.1550  137.4800 C   0  0  0  0  0  1  0  0  0  0  0  0
  180.0510  178.7590  141.2600 C   0  0  0  0  0  2  0  0  0  0  0  0
  180.8590  177.8400  141.9830 O   0  0  0  0  0  0  0  0  0  0  0  0
  183.3370  178.0950  142.0810 C   0  0  0  0  0  2  0  0  0  0  0  0
  185.2420  179.7680  144.7870 F   0  0  0  0  0  0  0  0  0  0  0  0
  181.8290  178.7940  143.8930 N   0  0  0  0  0  0  0  0  0  0  0  0
  182.9360  179.2110  144.7550 C   0  0  0  0  0  2  0  0  0  0  0  0
  184.1780  179.5300  143.9380 C   0  0  2  0  0  3  0  0  0  0  0  0
  184.4830  178.3270  143.0630 C   0  0  0  0  0  2  0  0  0  0  0  0
  181.9780  178.2420  142.7190 C   0  0  0  0  0  0  0  0  0  0  0  0
  1  2  1  0  0  0  0
  1  4  2  0  0  0  0
  2  7  1  0  0  0  0
  3  6  1  0  0  0  0
  3 37  1  0  0  0  0
  4  9  1  0  0  0  0
  5  8  2  0  0  0  0
  5 11  1  0  0  0  0
  7  3  2  0  0  0  0
  8 10  1  0  0  0  0
  9  6  2  0  0  0  0
 10  2  2  0  0  0  0
 11 38  1  1  0  0  0
 11  1  1  0  0  0  0
 12 13  1  0  0  0  0
 12 16  2  0  0  0  0
 13 18  1  0  0  0  0
 14 13  2  0  0  0  0
 15  8  1  0  0  0  0
 16 17  1  0  0  0  0
 17 15  1  0  0  0  0
 18 15  2  0  0  0  0
 19 12  1  0  0  0  0
 19 20  1  0  0  0  0
 21 22  3  0  0  0  0
 22  7  1  0  0  0  0
 23 21  1  0  0  0  0
 24 28  1  0  0  0  0
 25 26  1  1  0  0  0
 25 24  1  0  0  0  0
 26 27  1  0  0  0  0
 27 23  1  6  0  0  0
 27 28  1  0  0  0  0
 29 32  1  0  0  0  0
 31 35  1  6  0  0  0
 31 33  1  0  0  0  0
 31 29  1  0  0  0  0
 32 30  1  0  0  0  0
 33 25  1  0  0  0  0
 33 30  1  1  0  0  0
 34 35  2  0  0  0  0
 37 36  3  0  0  0  0
 39 38  1  0  0  0  0
 39 40  1  0  0  0  0
 41 42  2  0  0  0  0
 42 40  1  0  0  0  0
 43 44  1  0  0  0  0
 43 42  1  0  0  0  0
 45 50  1  0  0  0  0
 45 52  1  6  0  0  0
 46 50  1  0  0  0  0
 47 48  1  1  0  0  0
 47 45  1  0  0  0  0
 49 44  1  6  0  0  0
 49 51  1  0  0  0  0
 49 47  1  0  0  0  0
 50 59  1  1  0  0  0
 51 46  1  0  0  0  0
 53 52  1  0  0  0  0
 54 53  1  0  0  0  0
 55 54  1  0  0  0  0
 56 55  1  0  0  0  0
 57 56  1  0  0  0  0
 57 58  1  0  0  0  0
 59 60  1  0  0  0  0
 60 67  1  0  0  0  0
 61 67  1  0  0  0  0
 61 66  1  0  0  0  0
 63 64  1  0  0  0  0
 65 64  1  0  0  0  0
 65 62  1  1  0  0  0
 66 65  1  0  0  0  0
 67 63  2  0  0  0  0
M  END
>  <MODEL>
5

>  <REMARK>
 VINA RESULT:      -4.2      4.076     11.954
  Name = 
  23 active torsions:
  status: ('A' for Active; 'I' for Inactive)
    1  A    between atoms: C_1  and  C_32
    2  A    between atoms: C_1  and  C_52
    3  A    between atoms: C_3  and  C_13
    4  A    between atoms: C_4  and  C_60
    5  A    between atoms: C_5  and  O_63
    6  A    between atoms: C_7  and  C_31
    7  A    between atoms: C_7  and  O_47
    8  A    between atoms: C_12  and  C_59
    9  A    between atoms: C_12  and  C_66
   10  A    between atoms: O_19  and  C_22
   11  A    between atoms: O_19  and  O_63
   12  A    between atoms: C_20  and  C_41
   13  A    between atoms: C_21  and  C_50
   14  A    between atoms: C_22  and  C_52
   15  A    between atoms: C_24  and  C_29
   16  A    between atoms: C_25  and  C_42
   17  A    between atoms: C_37  and  C_53
   18  A    between atoms: C_37  and  C_59
   19  A    between atoms: C_41  and  N_56
   20  A    between atoms: C_44  and  C_51
   21  A    between atoms: C_45  and  C_60
   22  A    between atoms: C_46  and  C_49
   23  A    between atoms: O_47  and  C_62
                            x       y       z     vdW  Elec       q    Type
                         _______ _______ _______ _____ _____    ______ ____

>  <TORSDO>
F 23

$$$$
=
 OpenBabel10232407483D

 67 73  0  0  1  0  0  0  0  0999 V2000
  190.7450  176.2770  137.5010 C   0  0  2  0  0  3  0  0  0  0  0  0
  191.1480  177.3070  138.5190 C   0  0  0  0  0  0  0  0  0  0  0  0
  193.4890  176.5670  138.8310 C   0  0  0  0  0  0  0  0  0  0  0  0
  191.5920  175.9470  136.5230 C   0  0  0  0  0  3  0  0  0  0  0  0
  188.5130  176.1270  138.4520 C   0  0  0  0  0  3  0  0  0  0  0  0
  193.7550  176.7230  137.4230 N   0  0  0  0  0  0  0  0  0  0  0  0
  192.2720  176.7880  139.3740 C   0  0  0  0  0  0  0  0  0  0  0  0
  188.8260  177.2730  139.3330 C   0  0  0  0  0  0  0  0  0  0  0  0
  192.9730  176.4540  136.4140 C   0  0  0  0  0  3  0  0  0  0  0  0
  190.0190  177.7980  139.3220 N   0  0  0  0  0  0  0  0  0  0  0  0
  189.4040  175.6590  137.5820 C   0  0  0  0  0  0  0  0  0  0  0  0
  185.7690  178.8590  142.0190 C   0  0  0  0  0  0  0  0  0  0  0  0
  185.7100  179.0800  140.5640 C   0  0  0  0  0  0  0  0  0  0  0  0
  184.7690  179.7380  140.0500 O   0  0  0  0  0  0  0  0  0  0  0  0
  187.7930  177.8410  140.2250 C   0  0  0  0  0  0  0  0  0  0  0  0
  186.7970  178.1910  142.5460 C   0  0  0  0  0  3  0  0  0  0  0  0
  187.9680  177.7130  141.7250 C   0  0  0  0  0  2  0  0  0  0  0  0
  186.7500  178.5050  139.7060 C   0  0  0  0  0  3  0  0  0  0  0  0
  184.6580  179.3090  142.9060 C   0  0  0  0  0  2  0  0  0  0  0  0
  184.2980  178.2750  143.7710 O   0  0  0  0  0  1  0  0  0  0  0  0
  191.8170  176.3340  141.9490 C   0  0  0  0  0  0  0  0  0  0  0  0
  192.0290  176.5370  140.7810 C   0  0  0  0  0  0  0  0  0  0  0  0
  191.5570  176.1050  143.3730 C   0  0  0  0  0  2  0  0  0  0  0  0
  189.5380  178.7570  144.7850 O   0  0  0  0  0  0  0  0  0  0  0  0
  189.5340  177.7810  145.8000 C   0  0  2  0  0  3  0  0  0  0  0  0
  189.9150  176.4400  145.1930 C   0  0  0  0  0  2  0  0  0  0  0  0
  190.2470  176.7600  143.7710 C   0  0  1  0  0  3  0  0  0  0  0  0
  190.3770  178.2610  143.7810 C   0  0  0  0  0  2  0  0  0  0  0  0
  186.9200  179.2030  148.0320 C   0  0  0  0  0  2  0  0  0  0  0  0
  187.1230  178.4430  145.6210 C   0  0  0  0  0  2  0  0  0  0  0  0
  188.1580  178.3340  147.8500 C   0  0  2  0  0  3  0  0  0  0  0  0
  185.7350  178.8250  146.7100 S   0  0  0  0  0  0  0  0  0  0  0  0
  188.1530  177.7090  146.4570 C   0  0  2  0  0  3  0  0  0  0  0  0
  188.3180  176.0930  148.6070 O   0  0  0  0  0  0  0  0  0  0  0  0
  188.2160  177.2720  148.9050 C   0  0  0  0  0  3  0  0  0  0  0  0
  195.5150  175.9350  140.3360 N   0  0  0  0  0  0  0  0  0  0  0  0
  194.6140  176.2150  139.6660 C   0  0  0  0  0  0  0  0  0  0  0  0
  189.0400  174.4820  136.7350 C   0  0  0  0  0  2  0  0  0  0  0  0
  187.5360  174.4540  136.5130 C   0  0  0  0  0  2  0  0  0  0  0  0
  187.1690  173.4370  135.4430 C   0  0  0  0  0  2  0  0  0  0  0  0
  188.1950  171.7480  136.7790 O   0  0  0  0  0  0  0  0  0  0  0  0
  187.2660  172.0440  135.9830 C   0  0  0  0  0  0  0  0  0  0  0  0
  186.3260  171.0400  135.6010 N   0  0  0  0  0  2  0  0  0  0  0  0
  185.1430  171.3400  134.8100 C   0  0  0  0  0  2  0  0  0  0  0  0
  182.4920  174.0190  135.6330 C   0  0  2  0  0  3  0  0  0  0  0  0
  182.2750  171.9810  137.0760 C   0  0  0  0  0  2  0  0  0  0  0  0
  183.5160  173.2420  134.8020 C   0  0  1  0  0  3  0  0  0  0  0  0
  184.5010  174.1220  134.3460 O   0  0  0  0  0  1  0  0  0  0  0  0
  184.1550  172.1340  135.6450 C   0  0  1  0  0  3  0  0  0  0  0  0
  181.5090  173.0650  136.3220 C   0  0  1  0  0  3  0  0  0  0  0  0
  183.1220  171.2330  136.1510 N   0  0  0  0  0  2  0  0  0  0  0  0
  181.7920  174.8980  134.7970 O   0  0  0  0  0  0  0  0  0  0  0  0
  182.1000  176.1050  135.2320 O   0  0  0  0  0  0  0  0  0  0  0  0
  183.0920  176.5670  134.3600 C   0  0  0  0  0  2  0  0  0  0  0  0
  184.1930  177.2720  135.1350 C   0  0  0  0  0  2  0  0  0  0  0  0
  185.4910  177.2580  134.3490 C   0  0  0  0  0  2  0  0  0  0  0  0
  186.6410  177.6130  135.2670 C   0  0  0  0  0  2  0  0  0  0  0  0
  187.9350  177.5750  134.4840 C   0  0  0  0  0  1  0  0  0  0  0  0
  180.6410  173.8300  137.3070 C   0  0  0  0  0  2  0  0  0  0  0  0
  180.8830  175.2260  137.1940 O   0  0  0  0  0  0  0  0  0  0  0  0
  180.2600  175.6600  139.5680 C   0  0  0  0  0  2  0  0  0  0  0  0
  181.6060  178.3750  141.7050 F   0  0  0  0  0  0  0  0  0  0  0  0
  181.7580  177.1160  138.2720 N   0  0  0  0  0  0  0  0  0  0  0  0
  181.9040  178.0720  139.3710 C   0  0  0  0  0  2  0  0  0  0  0  0
  181.6130  177.4150  140.7120 C   0  0  2  0  0  3  0  0  0  0  0  0
  180.2440  176.7630  140.6240 C   0  0  0  0  0  2  0  0  0  0  0  0
  180.9890  176.0620  138.3100 C   0  0  0  0  0  0  0  0  0  0  0  0
  1  4  1  6  0  0  0
  1 11  1  0  0  0  0
  1  2  1  0  0  0  0
  2 10  1  0  0  0  0
  2  7  2  0  0  0  0
  3  7  1  0  0  0  0
  3 37  1  0  0  0  0
  5  8  1  0  0  0  0
  6  3  2  0  0  0  0
  7 22  1  0  0  0  0
  8 15  1  0  0  0  0
  9  4  2  0  0  0  0
  9  6  1  0  0  0  0
 10  8  2  0  0  0  0
 11  5  2  0  0  0  0
 12 16  2  0  0  0  0
 12 19  1  0  0  0  0
 13 12  1  0  0  0  0
 14 13  2  0  0  0  0
 15 17  1  0  0  0  0
 17 16  1  0  0  0  0
 18 15  2  0  0  0  0
 18 13  1  0  0  0  0
 19 20  1  0  0  0  0
 21 23  1  0  0  0  0
 22 21  3  0  0  0  0
 24 25  1  0  0  0  0
 25 26  1  6  0  0  0
 25 33  1  0  0  0  0
 27 23  1  1  0  0  0
 27 28  1  0  0  0  0
 27 26  1  0  0  0  0
 28 24  1  0  0  0  0
 30 32  1  0  0  0  0
 31 29  1  0  0  0  0
 31 35  1  1  0  0  0
 32 29  1  0  0  0  0
 33 30  1  6  0  0  0
 33 31  1  0  0  0  0
 34 35  2  0  0  0  0
 37 36  3  0  0  0  0
 38 11  1  0  0  0  0
 39 38  1  0  0  0  0
 40 42  1  0  0  0  0
 40 39  1  0  0  0  0
 42 41  2  0  0  0  0
 43 42  1  0  0  0  0
 44 43  1  0  0  0  0
 45 52  1  6  0  0  0
 45 50  1  0  0  0  0
 47 48  1  1  0  0  0
 47 45  1  0  0  0  0
 47 49  1  0  0  0  0
 49 44  1  6  0  0  0
 49 51  1  0  0  0  0
 50 46  1  0  0  0  0
 50 59  1  1  0  0  0
 51 46  1  0  0  0  0
 52 53  1  0  0  0  0
 54 55  1  0  0  0  0
 54 53  1  0  0  0  0
 56 55  1  0  0  0  0
 56 57  1  0  0  0  0
 58 57  1  0  0  0  0
 60 59  1  0  0  0  0
 60 67  1  0  0  0  0
 61 66  1  0  0  0  0
 63 67  2  0  0  0  0
 63 64  1  0  0  0  0
 64 65  1  0  0  0  0
 65 62  1  1  0  0  0
 66 65  1  0  0  0  0
 67 61  1  0  0  0  0
M  END
>  <MODEL>
6

>  <REMARK>
 VINA RESULT:      -4.0      4.735     11.219
  Name = 
  23 active torsions:
  status: ('A' for Active; 'I' for Inactive)
    1  A    between atoms: C_1  and  C_32
    2  A    between atoms: C_1  and  C_52
    3  A    between atoms: C_3  and  C_13
    4  A    between atoms: C_4  and  C_60
    5  A    between atoms: C_5  and  O_63
    6  A    between atoms: C_7  and  C_31
    7  A    between atoms: C_7  and  O_47
    8  A    between atoms: C_12  and  C_59
    9  A    between atoms: C_12  and  C_66
   10  A    between atoms: O_19  and  C_22
   11  A    between atoms: O_19  and  O_63
   12  A    between atoms: C_20  and  C_41
   13  A    between atoms: C_21  and  C_50
   14  A    between atoms: C_22  and  C_52
   15  A    between atoms: C_24  and  C_29
   16  A    between atoms: C_25  and  C_42
   17  A    between atoms: C_37  and  C_53
   18  A    between atoms: C_37  and  C_59
   19  A    between atoms: C_41  and  N_56
   20  A    between atoms: C_44  and  C_51
   21  A    between atoms: C_45  and  C_60
   22  A    between atoms: C_46  and  C_49
   23  A    between atoms: O_47  and  C_62
                            x       y       z     vdW  Elec       q    Type
                         _______ _______ _______ _____ _____    ______ ____

>  <TORSDO>
F 23

$$$$
=
 OpenBabel10232407483D

 67 73  0  0  1  0  0  0  0  0999 V2000
  188.5970  177.6300  143.4550 C   0  0  0  0  0  0  0  0  0  0  0  0
  187.6010  178.6820  143.0530 C   0  0  0  0  0  0  0  0  0  0  0  0
  186.1430  178.5370  145.0470 C   0  0  0  0  0  0  0  0  0  0  0  0
  189.0160  177.5660  144.7200 C   0  0  0  0  0  3  0  0  0  0  0  0
  188.8250  176.8850  141.1520 C   0  0  0  0  0  3  0  0  0  0  0  0
  187.2570  178.8170  145.9170 N   0  0  0  0  0  0  0  0  0  0  0  0
  186.2720  178.4230  143.7070 C   0  0  0  0  0  0  0  0  0  0  0  0
  188.0020  178.0320  140.7140 C   0  0  0  0  0  0  0  0  0  0  0  0
  188.4920  178.4070  145.8130 C   0  0  0  0  0  3  0  0  0  0  0  0
  187.4830  178.8390  141.5960 N   0  0  0  0  0  0  0  0  0  0  0  0
  189.1180  176.6940  142.4360 C   0  0  2  0  0  3  0  0  0  0  0  0
  187.2250  178.7100  136.4690 C   0  0  0  0  0  0  0  0  0  0  0  0
  188.5860  178.4680  136.9770 C   0  0  0  0  0  0  0  0  0  0  0  0
  189.5720  178.4500  136.1950 O   0  0  0  0  0  0  0  0  0  0  0  0
  187.7660  178.2840  139.2750 C   0  0  0  0  0  0  0  0  0  0  0  0
  186.2000  178.7620  137.3220 C   0  0  0  0  0  3  0  0  0  0  0  0
  186.3740  178.6690  138.8170 C   0  0  0  0  0  2  0  0  0  0  0  0
  188.7870  178.2230  138.4080 C   0  0  0  0  0  3  0  0  0  0  0  0
  186.9640  178.8240  135.0060 C   0  0  0  0  0  2  0  0  0  0  0  0
  186.2750  177.6960  134.5600 O   0  0  0  0  0  1  0  0  0  0  0  0
  184.1900  177.7580  142.2010 C   0  0  0  0  0  0  0  0  0  0  0  0
  185.1380  178.0560  142.8810 C   0  0  0  0  0  0  0  0  0  0  0  0
  183.0260  177.3880  141.3900 C   0  0  0  0  0  2  0  0  0  0  0  0
  182.9400  177.3980  137.7710 O   0  0  0  0  0  0  0  0  0  0  0  0
  182.2640  176.2070  138.1010 C   0  0  2  0  0  3  0  0  0  0  0  0
  182.6300  175.8140  139.5230 C   0  0  0  0  0  2  0  0  0  0  0  0
  183.4790  176.9430  140.0110 C   0  0  1  0  0  3  0  0  0  0  0  0
  183.2330  178.0220  138.9890 C   0  0  0  0  0  2  0  0  0  0  0  0
  184.0230  173.0280  137.3030 C   0  0  0  0  0  2  0  0  0  0  0  0
  181.6600  173.9440  137.2120 C   0  0  0  0  0  2  0  0  0  0  0  0
  184.0370  174.5500  137.3880 C   0  0  2  0  0  3  0  0  0  0  0  0
  182.4790  172.4960  136.5100 S   0  0  0  0  0  0  0  0  0  0  0  0
  182.6380  175.0980  137.1160 C   0  0  2  0  0  3  0  0  0  0  0  0
  184.7940  175.1430  135.2210 O   0  0  0  0  0  0  0  0  0  0  0  0
  185.0270  175.1210  136.4190 C   0  0  0  0  0  3  0  0  0  0  0  0
  183.8040  178.3640  146.1730 N   0  0  0  0  0  0  0  0  0  0  0  0
  184.8440  178.4410  145.6720 C   0  0  0  0  0  0  0  0  0  0  0  0
  189.9330  175.5020  142.8220 C   0  0  0  0  0  2  0  0  0  0  0  0
  191.4070  175.8750  142.8580 C   0  0  0  0  0  2  0  0  0  0  0  0
  191.6960  177.0140  141.8920 C   0  0  0  0  0  2  0  0  0  0  0  0
  193.9640  176.2980  141.6960 O   0  0  0  0  0  0  0  0  0  0  0  0
  192.9410  176.7370  141.1070 C   0  0  0  0  0  0  0  0  0  0  0  0
  192.9910  176.9730  139.7000 N   0  0  0  0  0  2  0  0  0  0  0  0
  191.8130  177.3340  138.9270 C   0  0  0  0  0  2  0  0  0  0  0  0
  192.7690  174.8280  136.1550 C   0  0  2  0  0  3  0  0  0  0  0  0
  190.5340  174.3250  137.1710 C   0  0  0  0  0  2  0  0  0  0  0  0
  192.9690  175.8640  137.2650 C   0  0  1  0  0  3  0  0  0  0  0  0
  193.6860  176.9500  136.7580 O   0  0  0  0  0  1  0  0  0  0  0  0
  191.6140  176.3360  137.8010 C   0  0  1  0  0  3  0  0  0  0  0  0
  191.8150  173.7170  136.6070 C   0  0  1  0  0  3  0  0  0  0  0  0
  190.8490  175.1950  138.3000 N   0  0  0  0  0  2  0  0  0  0  0  0
  194.0100  174.2780  135.8110 O   0  0  0  0  0  0  0  0  0  0  0  0
  194.3930  173.5980  136.8740 O   0  0  0  0  0  0  0  0  0  0  0  0
  195.3680  172.7070  136.4080 C   0  0  0  0  0  2  0  0  0  0  0  0
  194.7680  171.3280  136.1950 C   0  0  0  0  0  2  0  0  0  0  0  0
  195.5910  170.5380  135.1940 C   0  0  0  0  0  2  0  0  0  0  0  0
  194.8810  169.2420  134.8680 C   0  0  0  0  0  2  0  0  0  0  0  0
  193.4910  169.2690  135.4660 C   0  0  0  0  0  1  0  0  0  0  0  0
  191.4600  172.8220  135.4320 C   0  0  0  0  0  2  0  0  0  0  0  0
  190.1620  173.1400  134.9470 O   0  0  0  0  0  0  0  0  0  0  0  0
  189.5000  170.7430  135.1150 C   0  0  0  0  0  2  0  0  0  0  0  0
  186.0520  169.4160  134.7920 F   0  0  0  0  0  0  0  0  0  0  0  0
  187.9310  172.5460  134.5370 N   0  0  0  0  0  0  0  0  0  0  0  0
  186.8150  171.6180  134.3490 C   0  0  0  0  0  2  0  0  0  0  0  0
  187.0420  170.3240  135.1150 C   0  0  2  0  0  3  0  0  0  0  0  0
  188.3960  169.7700  134.7060 C   0  0  0  0  0  2  0  0  0  0  0  0
  189.1520  172.1820  134.8240 C   0  0  0  0  0  0  0  0  0  0  0  0
  1  4  2  0  0  0  0
  2  1  1  0  0  0  0
  2  7  1  0  0  0  0
  3 37  1  0  0  0  0
  3  6  1  0  0  0  0
  4  9  1  0  0  0  0
  5 11  1  0  0  0  0
  7  3  2  0  0  0  0
  8  5  2  0  0  0  0
  8 10  1  0  0  0  0
  9  6  2  0  0  0  0
 10  2  2  0  0  0  0
 11 38  1  1  0  0  0
 11  1  1  0  0  0  0
 12 13  1  0  0  0  0
 12 16  2  0  0  0  0
 13 18  1  0  0  0  0
 14 13  2  0  0  0  0
 15  8  1  0  0  0  0
 16 17  1  0  0  0  0
 17 15  1  0  0  0  0
 18 15  2  0  0  0  0
 19 12  1  0  0  0  0
 20 19  1  0  0  0  0
 21 22  3  0  0  0  0
 22  7  1  0  0  0  0
 23 21  1  0  0  0  0
 24 25  1  0  0  0  0
 24 28  1  0  0  0  0
 25 26  1  1  0  0  0
 26 27  1  0  0  0  0
 27 23  1  1  0  0  0
 28 27  1  0  0  0  0
 29 31  1  0  0  0  0
 31 35  1  6  0  0  0
 32 30  1  0  0  0  0
 32 29  1  0  0  0  0
 33 30  1  1  0  0  0
 33 31  1  0  0  0  0
 33 25  1  0  0  0  0
 34 35  2  0  0  0  0
 37 36  3  0  0  0  0
 38 39  1  0  0  0  0
 40 39  1  0  0  0  0
 42 41  2  0  0  0  0
 42 40  1  0  0  0  0
 43 42  1  0  0  0  0
 44 43  1  0  0  0  0
 45 52  1  1  0  0  0
 45 50  1  0  0  0  0
 45 47  1  0  0  0  0
 46 51  1  0  0  0  0
 47 48  1  6  0  0  0
 47 49  1  0  0  0  0
 49 51  1  0  0  0  0
 49 44  1  1  0  0  0
 50 59  1  6  0  0  0
 50 46  1  0  0  0  0
 52 53  1  0  0  0  0
 54 53  1  0  0  0  0
 55 54  1  0  0  0  0
 56 55  1  0  0  0  0
 57 56  1  0  0  0  0
 57 58  1  0  0  0  0
 60 59  1  0  0  0  0
 63 67  2  0  0  0  0
 64 63  1  0  0  0  0
 64 65  1  0  0  0  0
 65 62  1  6  0  0  0
 66 65  1  0  0  0  0
 66 61  1  0  0  0  0
 67 60  1  0  0  0  0
 67 61  1  0  0  0  0
M  END
>  <MODEL>
7

>  <REMARK>
 VINA RESULT:      -3.2      2.525      3.849
  Name = 
  23 active torsions:
  status: ('A' for Active; 'I' for Inactive)
    1  A    between atoms: C_1  and  C_32
    2  A    between atoms: C_1  and  C_52
    3  A    between atoms: C_3  and  C_13
    4  A    between atoms: C_4  and  C_60
    5  A    between atoms: C_5  and  O_63
    6  A    between atoms: C_7  and  C_31
    7  A    between atoms: C_7  and  O_47
    8  A    between atoms: C_12  and  C_59
    9  A    between atoms: C_12  and  C_66
   10  A    between atoms: O_19  and  C_22
   11  A    between atoms: O_19  and  O_63
   12  A    between atoms: C_20  and  C_41
   13  A    between atoms: C_21  and  C_50
   14  A    between atoms: C_22  and  C_52
   15  A    between atoms: C_24  and  C_29
   16  A    between atoms: C_25  and  C_42
   17  A    between atoms: C_37  and  C_53
   18  A    between atoms: C_37  and  C_59
   19  A    between atoms: C_41  and  N_56
   20  A    between atoms: C_44  and  C_51
   21  A    between atoms: C_45  and  C_60
   22  A    between atoms: C_46  and  C_49
   23  A    between atoms: O_47  and  C_62
                            x       y       z     vdW  Elec       q    Type
                         _______ _______ _______ _____ _____    ______ ____

>  <TORSDO>
F 23

$$$$
