=
 OpenBabel10232408293D

 45 50  0  0  1  0  0  0  0  0999 V2000
  182.4050  176.9830  140.2580 C   0  0  0  0  0  2  0  0  0  0  0  0
  182.6270  178.5050  137.7280 N   0  0  2  0  0  0  0  0  0  0  0  0
  181.1070  176.4700  137.5650 O   0  0  0  0  0  0  0  0  0  0  0  0
  182.0310  177.3760  136.9850 C   0  0  2  0  0  3  0  0  0  0  0  0
  181.2760  175.1200  137.1980 C   0  0  0  0  0  0  0  0  0  0  0  0
  183.3040  176.4310  139.1500 C   0  0  0  0  0  2  0  0  0  0  0  0
  183.2640  177.1570  137.7670 C   0  0  2  0  0  0  0  0  0  0  0  0
  180.5710  174.2330  137.7460 O   0  0  0  0  0  0  0  0  0  0  0  0
  181.7070  178.8370  138.8230 C   0  0  0  0  0  2  0  0  0  0  0  0
  183.7880  175.0450  136.5440 C   0  0  0  0  0  2  0  0  0  0  0  0
  182.2790  178.4900  140.1830 C   0  0  2  0  0  3  0  0  0  0  0  0
  182.3190  174.7170  136.1580 C   0  0  0  0  0  2  0  0  0  0  0  0
  184.1340  176.5570  136.6770 C   0  0  2  0  0  3  0  0  0  0  0  0
  185.5340  176.7030  137.0390 N   0  0  0  0  0  2  0  0  0  0  0  0
  186.1410  177.6720  135.0060 O   0  0  0  0  0  0  0  0  0  0  0  0
  186.5000  177.2620  136.1440 C   0  0  0  0  0  0  0  0  0  0  0  0
  189.6150  177.2380  138.3910 C   0  0  0  0  0  0  0  0  0  0  0  0
  188.2400  177.1940  137.8460 C   0  0  0  0  0  3  0  0  0  0  0  0
  190.7200  176.2390  136.4190 C   0  0  0  0  0  3  0  0  0  0  0  0
  187.9090  177.3700  136.5650 C   0  0  0  0  0  0  0  0  0  0  0  0
  189.9410  176.6330  135.4120 C   0  0  0  0  0  3  0  0  0  0  0  0
  188.9510  177.7340  135.5560 C   0  0  0  0  0  2  0  0  0  0  0  0
  190.6610  176.7880  137.7470 N   0  0  0  0  0  0  0  0  0  0  0  0
  189.7630  177.7370  139.6880 O   0  0  0  0  0  0  0  0  0  0  0  0
  190.0960  176.9110  140.7980 C   0  0  0  0  0  2  0  0  0  0  0  0
  191.2220  177.5590  141.5810 C   0  0  2  0  0  3  0  0  0  0  0  0
  192.3910  177.5640  140.8100 O   0  0  0  0  0  1  0  0  0  0  0  0
  191.4590  176.7780  142.8700 C   0  0  0  0  0  2  0  0  0  0  0  0
  191.1030  178.8920  143.8040 C   0  0  0  0  0  1  0  0  0  0  0  0
  191.5180  177.0630  145.1840 C   0  0  0  0  0  1  0  0  0  0  0  0
  191.8920  177.6790  143.9250 N   0  0  0  0  0  0  0  0  0  0  0  0
  183.6110  179.1890  140.4410 C   0  0  0  0  0  2  0  0  0  0  0  0
  184.1110  178.8970  141.8500 C   0  0  0  0  0  2  0  0  0  0  0  0
  185.5500  178.4780  141.8120 C   0  0  0  0  0  0  0  0  0  0  0  0
  187.6120  177.5660  142.9170 C   0  0  0  0  0  2  0  0  0  0  0  0
  185.8800  178.4110  146.7190 C   0  0  2  0  0  3  0  0  0  0  0  0
  185.5360  178.0570  144.2900 C   0  0  0  0  0  2  0  0  0  0  0  0
  187.8420  177.1060  146.6120 O   0  0  0  0  0  0  0  0  0  0  0  0
  185.5470  179.6470  147.2700 O   0  0  0  0  0  1  0  0  0  0  0  0
  187.0090  177.7900  147.5050 C   0  0  0  0  0  2  0  0  0  0  0  0
  187.8060  177.8500  145.4210 C   0  0  1  0  0  3  0  0  0  0  0  0
  186.2260  178.0410  143.0010 N   0  0  0  0  0  0  0  0  0  0  0  0
  188.0550  176.9190  144.2290 C   0  0  0  0  0  2  0  0  0  0  0  0
  186.4740  178.6080  145.3590 C   0  0  2  0  0  3  0  0  0  0  0  0
  186.1740  178.5370  140.7140 O   0  0  0  0  0  0  0  0  0  0  0  0
  2  7  1  0  0  0  0
  2  9  1  1  0  0  0
  4  3  1  1  0  0  0
  4  2  1  0  0  0  0
  4  7  1  0  0  0  0
  5  3  1  0  0  0  0
  5  8  2  0  0  0  0
  6  1  1  0  0  0  0
  7  6  1  1  0  0  0
  9 11  1  0  0  0  0
 10 13  1  0  0  0  0
 11  1  1  0  0  0  0
 11 32  1  6  0  0  0
 12 10  1  0  0  0  0
 12  5  1  0  0  0  0
 13 14  1  1  0  0  0
 13  7  1  0  0  0  0
 15 16  2  0  0  0  0
 16 20  1  0  0  0  0
 16 14  1  0  0  0  0
 17 24  1  0  0  0  0
 18 17  1  0  0  0  0
 19 23  1  0  0  0  0
 20 18  2  0  0  0  0
 21 22  1  0  0  0  0
 21 19  2  0  0  0  0
 22 20  1  0  0  0  0
 23 17  2  0  0  0  0
 24 25  1  0  0  0  0
 25 26  1  0  0  0  0
 26 27  1  6  0  0  0
 26 28  1  0  0  0  0
 28 31  1  0  0  0  0
 29 31  1  0  0  0  0
 31 30  1  0  0  0  0
 32 33  1  0  0  0  0
 34 33  1  0  0  0  0
 34 42  1  0  0  0  0
 35 42  1  0  0  0  0
 35 43  1  0  0  0  0
 36 39  1  1  0  0  0
 36 40  1  0  0  0  0
 38 40  1  0  0  0  0
 41 43  1  6  0  0  0
 41 38  1  0  0  0  0
 42 37  1  0  0  0  0
 44 37  1  6  0  0  0
 44 41  1  0  0  0  0
 44 36  1  0  0  0  0
 45 34  2  0  0  0  0
M  END
>  <MODEL>
1

>  <REMARK>
 VINA RESULT:      -8.2      0.000      0.000
  Name = 
  10 active torsions:
  status: ('A' for Active; 'I' for Inactive)
    1  A    between atoms: C_1  and  O_42
    2  A    between atoms: N_2  and  C_44
    3  A    between atoms: C_3  and  C_38
    4  A    between atoms: C_8  and  C_38
    5  A    between atoms: C_8  and  C_40
    6  A    between atoms: C_14  and  N_28
    7  A    between atoms: C_14  and  C_29
    8  A    between atoms: C_23  and  C_29
    9  A    between atoms: C_23  and  O_42
   10  A    between atoms: C_24  and  C_31
                            x       y       z     vdW  Elec       q    Type
                         _______ _______ _______ _____ _____    ______ ____

>  <TORSDO>
F 10

$$$$
=
 OpenBabel10232408293D

 45 50  0  0  1  0  0  0  0  0999 V2000
  186.6210  176.3620  137.1870 C   0  0  0  0  0  2  0  0  0  0  0  0
  188.2780  178.8140  137.2560 N   0  0  2  0  0  0  0  0  0  0  0  0
  189.2980  176.9300  135.8810 O   0  0  0  0  0  0  0  0  0  0  0  0
  189.4330  178.0590  136.7280 C   0  0  2  0  0  3  0  0  0  0  0  0
  190.1940  175.8730  136.1370 C   0  0  0  0  0  0  0  0  0  0  0  0
  187.8460  176.3900  138.1030 C   0  0  0  0  0  2  0  0  0  0  0  0
  188.7990  177.6220  137.9870 C   0  0  2  0  0  0  0  0  0  0  0  0
  190.0770  174.7910  135.5060 O   0  0  0  0  0  0  0  0  0  0  0  0
  187.1580  178.5910  136.3350 C   0  0  0  0  0  2  0  0  0  0  0  0
  190.7860  176.2580  138.6370 C   0  0  0  0  0  2  0  0  0  0  0  0
  186.0600  177.7490  136.9540 C   0  0  2  0  0  3  0  0  0  0  0  0
  191.2930  176.0170  137.1870 C   0  0  0  0  0  2  0  0  0  0  0  0
  190.0280  177.5970  138.8780 C   0  0  2  0  0  3  0  0  0  0  0  0
  189.6200  177.6770  140.2710 N   0  0  0  0  0  2  0  0  0  0  0  0
  191.8030  177.6780  141.0930 O   0  0  0  0  0  0  0  0  0  0  0  0
  190.5660  177.7010  141.3430 C   0  0  0  0  0  0  0  0  0  0  0  0
  188.3710  177.1460  144.4450 C   0  0  0  0  0  0  0  0  0  0  0  0
  188.9400  177.1830  143.0800 C   0  0  0  0  0  3  0  0  0  0  0  0
  190.5310  176.9980  145.6370 C   0  0  0  0  0  3  0  0  0  0  0  0
  190.0880  177.7700  142.7360 C   0  0  0  0  0  0  0  0  0  0  0  0
  191.3600  177.6550  144.8270 C   0  0  0  0  0  3  0  0  0  0  0  0
  190.8730  178.5500  143.7430 C   0  0  0  0  0  2  0  0  0  0  0  0
  189.0970  177.0380  145.5270 N   0  0  0  0  0  0  0  0  0  0  0  0
  186.9770  177.1680  144.5470 O   0  0  0  0  0  0  0  0  0  0  0  0
  186.2930  177.8030  145.6220 C   0  0  0  0  0  2  0  0  0  0  0  0
  185.2640  178.7650  145.0590 C   0  0  2  0  0  3  0  0  0  0  0  0
  184.2540  178.9800  146.0040 O   0  0  0  0  0  1  0  0  0  0  0  0
  184.6610  178.1760  143.7870 C   0  0  0  0  0  2  0  0  0  0  0  0
  185.6150  179.2290  141.9300 C   0  0  0  0  0  1  0  0  0  0  0  0
  183.3230  178.8220  141.9890 C   0  0  0  0  0  1  0  0  0  0  0  0
  184.4540  179.2250  142.8030 N   0  0  0  0  0  0  0  0  0  0  0  0
  185.5150  178.3690  138.2380 C   0  0  0  0  0  2  0  0  0  0  0  0
  184.4020  177.5110  138.8240 C   0  0  0  0  0  2  0  0  0  0  0  0
  183.3030  177.3320  137.8200 C   0  0  0  0  0  0  0  0  0  0  0  0
  181.7580  175.8800  136.4750 C   0  0  0  0  0  2  0  0  0  0  0  0
  184.2810  172.5420  137.2850 C   0  0  2  0  0  3  0  0  0  0  0  0
  183.5730  174.8340  137.9060 C   0  0  0  0  0  2  0  0  0  0  0  0
  182.1680  172.1760  136.3020 O   0  0  0  0  0  0  0  0  0  0  0  0
  185.6010  172.3300  136.8920 O   0  0  0  0  0  1  0  0  0  0  0  0
  183.3790  171.5420  136.6020 C   0  0  0  0  0  2  0  0  0  0  0  0
  182.5030  173.5090  136.0150 C   0  0  1  0  0  3  0  0  0  0  0  0
  182.8860  176.0230  137.4020 N   0  0  0  0  0  0  0  0  0  0  0  0
  181.3200  174.4200  136.3580 C   0  0  0  0  0  2  0  0  0  0  0  0
  183.8000  173.8570  136.7570 C   0  0  2  0  0  3  0  0  0  0  0  0
  182.7580  178.3590  137.3220 O   0  0  0  0  0  0  0  0  0  0  0  0
  1  6  1  0  0  0  0
  2  9  1  6  0  0  0
  2  7  1  0  0  0  0
  3  5  1  0  0  0  0
  4  3  1  6  0  0  0
  4  2  1  0  0  0  0
  4  7  1  0  0  0  0
  5 12  1  0  0  0  0
  7  6  1  6  0  0  0
  7 13  1  0  0  0  0
  8  5  2  0  0  0  0
  9 11  1  0  0  0  0
 10 13  1  0  0  0  0
 11  1  1  0  0  0  0
 11 32  1  1  0  0  0
 12 10  1  0  0  0  0
 13 14  1  1  0  0  0
 14 16  1  0  0  0  0
 15 16  2  0  0  0  0
 16 20  1  0  0  0  0
 17 24  1  0  0  0  0
 17 23  2  0  0  0  0
 18 17  1  0  0  0  0
 20 18  2  0  0  0  0
 20 22  1  0  0  0  0
 21 19  2  0  0  0  0
 22 21  1  0  0  0  0
 23 19  1  0  0  0  0
 24 25  1  0  0  0  0
 26 25  1  0  0  0  0
 26 27  1  1  0  0  0
 28 26  1  0  0  0  0
 29 31  1  0  0  0  0
 30 31  1  0  0  0  0
 31 28  1  0  0  0  0
 32 33  1  0  0  0  0
 34 33  1  0  0  0  0
 35 42  1  0  0  0  0
 36 39  1  6  0  0  0
 38 40  1  0  0  0  0
 40 36  1  0  0  0  0
 41 38  1  0  0  0  0
 41 43  1  1  0  0  0
 41 44  1  0  0  0  0
 42 34  1  0  0  0  0
 42 37  1  0  0  0  0
 43 35  1  0  0  0  0
 44 36  1  0  0  0  0
 44 37  1  1  0  0  0
 45 34  2  0  0  0  0
M  END
>  <MODEL>
2

>  <REMARK>
 VINA RESULT:      -8.1      2.045      7.990
  Name = 
  10 active torsions:
  status: ('A' for Active; 'I' for Inactive)
    1  A    between atoms: C_1  and  O_42
    2  A    between atoms: N_2  and  C_44
    3  A    between atoms: C_3  and  C_38
    4  A    between atoms: C_8  and  C_38
    5  A    between atoms: C_8  and  C_40
    6  A    between atoms: C_14  and  N_28
    7  A    between atoms: C_14  and  C_29
    8  A    between atoms: C_23  and  C_29
    9  A    between atoms: C_23  and  O_42
   10  A    between atoms: C_24  and  C_31
                            x       y       z     vdW  Elec       q    Type
                         _______ _______ _______ _____ _____    ______ ____

>  <TORSDO>
F 10

$$$$
=
 OpenBabel10232408293D

 45 50  0  0  1  0  0  0  0  0999 V2000
  187.1660  175.9730  136.6610 C   0  0  0  0  0  2  0  0  0  0  0  0
  187.7520  178.8470  137.0650 N   0  0  2  0  0  0  0  0  0  0  0  0
  189.8350  177.4060  136.8120 O   0  0  0  0  0  0  0  0  0  0  0  0
  189.1630  178.5270  137.3620 C   0  0  2  0  0  3  0  0  0  0  0  0
  190.6970  176.7270  137.6960 C   0  0  0  0  0  0  0  0  0  0  0  0
  187.6250  176.4380  138.0440 C   0  0  0  0  0  2  0  0  0  0  0  0
  188.0960  177.9210  138.1820 C   0  0  2  0  0  0  0  0  0  0  0  0
  191.2520  175.6590  137.3260 O   0  0  0  0  0  0  0  0  0  0  0  0
  187.4320  178.2350  135.7690 C   0  0  0  0  0  2  0  0  0  0  0  0
  189.6910  177.3370  140.0110 C   0  0  0  0  0  2  0  0  0  0  0  0
  186.4630  177.0780  135.9000 C   0  0  2  0  0  3  0  0  0  0  0  0
  190.9510  177.2590  139.1040 C   0  0  0  0  0  2  0  0  0  0  0  0
  188.5870  178.3360  139.5570 C   0  0  2  0  0  3  0  0  0  0  0  0
  187.4820  178.2960  140.5000 N   0  0  0  0  0  2  0  0  0  0  0  0
  188.8570  178.1220  142.3760 O   0  0  0  0  0  0  0  0  0  0  0  0
  187.6840  178.1730  141.9100 C   0  0  0  0  0  0  0  0  0  0  0  0
  185.6030  178.2980  145.1360 C   0  0  0  0  0  0  0  0  0  0  0  0
  186.6880  178.2870  144.1290 C   0  0  0  0  0  3  0  0  0  0  0  0
  183.9140  179.3970  143.7050 C   0  0  0  0  0  3  0  0  0  0  0  0
  186.5210  178.1250  142.8140 C   0  0  0  0  0  0  0  0  0  0  0  0
  184.2530  178.9890  142.4820 C   0  0  0  0  0  3  0  0  0  0  0  0
  185.1660  177.8370  142.2510 C   0  0  0  0  0  2  0  0  0  0  0  0
  184.4220  178.8140  144.9180 N   0  0  0  0  0  0  0  0  0  0  0  0
  185.9100  177.7750  146.3950 O   0  0  0  0  0  0  0  0  0  0  0  0
  186.7770  178.4350  147.3120 C   0  0  0  0  0  2  0  0  0  0  0  0
  187.8580  177.4690  147.7570 C   0  0  2  0  0  3  0  0  0  0  0  0
  187.8600  177.3740  149.1540 O   0  0  0  0  0  1  0  0  0  0  0  0
  189.2170  177.9700  147.2740 C   0  0  0  0  0  2  0  0  0  0  0  0
  190.4550  177.5080  145.3450 C   0  0  0  0  0  1  0  0  0  0  0  0
  191.0380  176.5160  147.3690 C   0  0  0  0  0  1  0  0  0  0  0  0
  189.9070  176.9140  146.5520 N   0  0  0  0  0  0  0  0  0  0  0  0
  185.1580  177.4960  136.5730 C   0  0  0  0  0  2  0  0  0  0  0  0
  184.0690  176.4590  136.3310 C   0  0  0  0  0  2  0  0  0  0  0  0
  183.5220  175.9680  137.6380 C   0  0  0  0  0  0  0  0  0  0  0  0
  181.9910  176.1970  139.6140 C   0  0  0  0  0  2  0  0  0  0  0  0
  181.4490  180.3120  138.6470 C   0  0  2  0  0  3  0  0  0  0  0  0
  182.1460  178.0560  137.8950 C   0  0  0  0  0  2  0  0  0  0  0  0
  180.0610  179.3210  140.2750 O   0  0  0  0  0  0  0  0  0  0  0  0
  182.3910  181.3390  138.6480 O   0  0  0  0  0  1  0  0  0  0  0  0
  180.4280  180.5560  139.7310 C   0  0  0  0  0  2  0  0  0  0  0  0
  181.2180  178.5270  140.2170 C   0  0  1  0  0  3  0  0  0  0  0  0
  182.5630  176.7390  138.3770 N   0  0  0  0  0  0  0  0  0  0  0  0
  180.8220  177.0510  140.1040 C   0  0  0  0  0  2  0  0  0  0  0  0
  182.0990  179.0310  139.0670 C   0  0  2  0  0  3  0  0  0  0  0  0
  183.9380  174.8660  138.0970 O   0  0  0  0  0  0  0  0  0  0  0  0
  1  6  1  0  0  0  0
  2  9  1  6  0  0  0
  2  4  1  0  0  0  0
  2  7  1  0  0  0  0
  3  5  1  0  0  0  0
  4  3  1  6  0  0  0
  4  7  1  0  0  0  0
  5 12  1  0  0  0  0
  7  6  1  6  0  0  0
  7 13  1  0  0  0  0
  8  5  2  0  0  0  0
  9 11  1  0  0  0  0
 11 32  1  1  0  0  0
 11  1  1  0  0  0  0
 12 10  1  0  0  0  0
 13 10  1  0  0  0  0
 13 14  1  1  0  0  0
 14 16  1  0  0  0  0
 16 15  2  0  0  0  0
 16 20  1  0  0  0  0
 17 24  1  0  0  0  0
 18 17  1  0  0  0  0
 19 23  1  0  0  0  0
 20 18  2  0  0  0  0
 21 19  2  0  0  0  0
 22 21  1  0  0  0  0
 22 20  1  0  0  0  0
 23 17  2  0  0  0  0
 24 25  1  0  0  0  0
 25 26  1  0  0  0  0
 26 27  1  1  0  0  0
 28 26  1  0  0  0  0
 29 31  1  0  0  0  0
 31 28  1  0  0  0  0
 31 30  1  0  0  0  0
 33 32  1  0  0  0  0
 33 34  1  0  0  0  0
 34 45  2  0  0  0  0
 34 42  1  0  0  0  0
 35 43  1  0  0  0  0
 36 39  1  1  0  0  0
 36 44  1  0  0  0  0
 36 40  1  0  0  0  0
 37 42  1  0  0  0  0
 40 38  1  0  0  0  0
 41 43  1  6  0  0  0
 41 38  1  0  0  0  0
 42 35  1  0  0  0  0
 44 37  1  6  0  0  0
 44 41  1  0  0  0  0
M  END
>  <MODEL>
3

>  <REMARK>
 VINA RESULT:      -7.9      2.103      7.379
  Name = 
  10 active torsions:
  status: ('A' for Active; 'I' for Inactive)
    1  A    between atoms: C_1  and  O_42
    2  A    between atoms: N_2  and  C_44
    3  A    between atoms: C_3  and  C_38
    4  A    between atoms: C_8  and  C_38
    5  A    between atoms: C_8  and  C_40
    6  A    between atoms: C_14  and  N_28
    7  A    between atoms: C_14  and  C_29
    8  A    between atoms: C_23  and  C_29
    9  A    between atoms: C_23  and  O_42
   10  A    between atoms: C_24  and  C_31
                            x       y       z     vdW  Elec       q    Type
                         _______ _______ _______ _____ _____    ______ ____

>  <TORSDO>
F 10

$$$$
=
 OpenBabel10232408293D

 45 50  0  0  1  0  0  0  0  0999 V2000
  182.5650  175.8770  139.4860 C   0  0  0  0  0  2  0  0  0  0  0  0
  183.2820  178.3750  138.0690 N   0  0  2  0  0  0  0  0  0  0  0  0
  181.7990  176.8180  136.7070 O   0  0  0  0  0  0  0  0  0  0  0  0
  182.8260  177.7920  136.7900 C   0  0  2  0  0  3  0  0  0  0  0  0
  182.0200  175.7870  135.7710 C   0  0  0  0  0  0  0  0  0  0  0  0
  183.6530  175.8210  138.4120 C   0  0  0  0  0  2  0  0  0  0  0  0
  183.8850  177.1100  137.5600 C   0  0  2  0  0  0  0  0  0  0  0  0
  181.2130  174.8230  135.7050 O   0  0  0  0  0  0  0  0  0  0  0  0
  182.1740  178.2470  139.0230 C   0  0  0  0  0  2  0  0  0  0  0  0
  184.6100  175.7750  135.5790 C   0  0  0  0  0  2  0  0  0  0  0  0
  182.4720  177.2480  140.1230 C   0  0  2  0  0  3  0  0  0  0  0  0
  183.2370  175.8150  134.8500 C   0  0  0  0  0  2  0  0  0  0  0  0
  184.9410  177.0050  136.4740 C   0  0  2  0  0  3  0  0  0  0  0  0
  186.2480  176.8230  137.0830 N   0  0  0  0  0  2  0  0  0  0  0  0
  186.6630  179.1080  137.2960 O   0  0  0  0  0  0  0  0  0  0  0  0
  187.0740  177.9260  137.4630 C   0  0  0  0  0  0  0  0  0  0  0  0
  189.7660  177.1920  140.1020 C   0  0  0  0  0  0  0  0  0  0  0  0
  188.5080  177.4890  139.3810 C   0  0  0  0  0  3  0  0  0  0  0  0
  190.7860  175.8230  138.3150 C   0  0  0  0  0  3  0  0  0  0  0  0
  188.3960  177.6750  138.0640 C   0  0  0  0  0  0  0  0  0  0  0  0
  190.2730  176.3550  137.2060 C   0  0  0  0  0  3  0  0  0  0  0  0
  189.6130  177.6880  137.1940 C   0  0  0  0  0  2  0  0  0  0  0  0
  190.7190  176.4420  139.6120 N   0  0  0  0  0  0  0  0  0  0  0  0
  189.8860  177.7060  141.3960 O   0  0  0  0  0  0  0  0  0  0  0  0
  190.9130  177.2980  142.2940 C   0  0  0  0  0  2  0  0  0  0  0  0
  190.8200  178.1220  143.5640 C   0  0  2  0  0  3  0  0  0  0  0  0
  191.1390  179.4560  143.2850 O   0  0  0  0  0  1  0  0  0  0  0  0
  191.7910  177.5670  144.6020 C   0  0  0  0  0  2  0  0  0  0  0  0
  191.9550  175.2650  144.2260 C   0  0  0  0  0  1  0  0  0  0  0  0
  191.8730  176.0870  146.4030 C   0  0  0  0  0  1  0  0  0  0  0  0
  191.3320  176.2700  145.0690 N   0  0  0  0  0  0  0  0  0  0  0  0
  183.7380  177.6070  140.8960 C   0  0  0  0  0  2  0  0  0  0  0  0
  183.6480  179.0220  141.4550 C   0  0  0  0  0  2  0  0  0  0  0  0
  183.1990  178.9860  142.8850 C   0  0  0  0  0  0  0  0  0  0  0  0
  183.6790  178.8510  145.3450 C   0  0  0  0  0  2  0  0  0  0  0  0
  187.5870  177.4070  144.4460 C   0  0  2  0  0  3  0  0  0  0  0  0
  185.5570  178.5910  143.6600 C   0  0  0  0  0  2  0  0  0  0  0  0
  187.0740  178.0370  146.6610 O   0  0  0  0  0  0  0  0  0  0  0  0
  187.9540  176.2170  143.8200 O   0  0  0  0  0  1  0  0  0  0  0  0
  188.0410  177.3860  145.8860 C   0  0  0  0  0  2  0  0  0  0  0  0
  185.8450  177.7510  146.0450 C   0  0  1  0  0  3  0  0  0  0  0  0
  184.1400  178.8070  143.9540 N   0  0  0  0  0  0  0  0  0  0  0  0
  184.8580  178.8910  146.3180 C   0  0  0  0  0  2  0  0  0  0  0  0
  186.0960  177.4810  144.5560 C   0  0  2  0  0  3  0  0  0  0  0  0
  181.9650  179.0930  143.1400 O   0  0  0  0  0  0  0  0  0  0  0  0
  1 11  1  0  0  0  0
  2  9  1  1  0  0  0
  4  3  1  1  0  0  0
  4  7  1  0  0  0  0
  4  2  1  0  0  0  0
  5  3  1  0  0  0  0
  6  1  1  0  0  0  0
  7  2  1  0  0  0  0
  7  6  1  1  0  0  0
  8  5  2  0  0  0  0
  9 11  1  0  0  0  0
 10 13  1  0  0  0  0
 11 32  1  6  0  0  0
 12 10  1  0  0  0  0
 12  5  1  0  0  0  0
 13 14  1  1  0  0  0
 13  7  1  0  0  0  0
 14 16  1  0  0  0  0
 15 16  2  0  0  0  0
 16 20  1  0  0  0  0
 17 24  1  0  0  0  0
 18 17  1  0  0  0  0
 19 23  1  0  0  0  0
 20 18  2  0  0  0  0
 21 19  2  0  0  0  0
 22 21  1  0  0  0  0
 22 20  1  0  0  0  0
 23 17  2  0  0  0  0
 24 25  1  0  0  0  0
 25 26  1  0  0  0  0
 26 27  1  6  0  0  0
 26 28  1  0  0  0  0
 28 31  1  0  0  0  0
 29 31  1  0  0  0  0
 31 30  1  0  0  0  0
 32 33  1  0  0  0  0
 33 34  1  0  0  0  0
 34 45  2  0  0  0  0
 34 42  1  0  0  0  0
 35 43  1  0  0  0  0
 36 39  1  1  0  0  0
 36 44  1  0  0  0  0
 36 40  1  0  0  0  0
 37 42  1  0  0  0  0
 40 38  1  0  0  0  0
 41 43  1  6  0  0  0
 41 38  1  0  0  0  0
 42 35  1  0  0  0  0
 44 37  1  6  0  0  0
 44 41  1  0  0  0  0
M  END
>  <MODEL>
4

>  <REMARK>
 VINA RESULT:      -7.9      1.652      2.277
  Name = 
  10 active torsions:
  status: ('A' for Active; 'I' for Inactive)
    1  A    between atoms: C_1  and  O_42
    2  A    between atoms: N_2  and  C_44
    3  A    between atoms: C_3  and  C_38
    4  A    between atoms: C_8  and  C_38
    5  A    between atoms: C_8  and  C_40
    6  A    between atoms: C_14  and  N_28
    7  A    between atoms: C_14  and  C_29
    8  A    between atoms: C_23  and  C_29
    9  A    between atoms: C_23  and  O_42
   10  A    between atoms: C_24  and  C_31
                            x       y       z     vdW  Elec       q    Type
                         _______ _______ _______ _____ _____    ______ ____

>  <TORSDO>
F 10

$$$$
=
 OpenBabel10232408293D

 45 50  0  0  1  0  0  0  0  0999 V2000
  190.8360  175.8410  143.3650 C   0  0  0  0  0  2  0  0  0  0  0  0
  190.7340  178.6700  144.2340 N   0  0  2  0  0  0  0  0  0  0  0  0
  191.2120  177.0370  146.1270 O   0  0  0  0  0  0  0  0  0  0  0  0
  190.6430  178.2430  145.6450 C   0  0  2  0  0  3  0  0  0  0  0  0
  190.4300  176.3350  147.0670 C   0  0  0  0  0  0  0  0  0  0  0  0
  189.5790  176.3410  144.0800 C   0  0  0  0  0  2  0  0  0  0  0  0
  189.6230  177.7820  144.6830 C   0  0  2  0  0  0  0  0  0  0  0  0
  190.8060  175.2030  147.4680 O   0  0  0  0  0  0  0  0  0  0  0  0
  191.9160  178.0160  143.6590 C   0  0  0  0  0  2  0  0  0  0  0  0
  188.0330  177.1630  146.5050 C   0  0  0  0  0  2  0  0  0  0  0  0
  191.5520  176.9600  142.6370 C   0  0  2  0  0  3  0  0  0  0  0  0
  189.1210  176.9220  147.5890 C   0  0  0  0  0  2  0  0  0  0  0  0
  188.3760  178.2290  145.4230 C   0  0  2  0  0  3  0  0  0  0  0  0
  187.2690  178.3410  144.4880 N   0  0  0  0  0  2  0  0  0  0  0  0
  185.7980  179.2350  146.0610 O   0  0  0  0  0  0  0  0  0  0  0  0
  185.9880  178.8450  144.8760 C   0  0  0  0  0  0  0  0  0  0  0  0
  183.9100  178.1260  141.7280 C   0  0  0  0  0  0  0  0  0  0  0  0
  184.9490  178.1710  142.7800 C   0  0  0  0  0  3  0  0  0  0  0  0
  181.9780  178.4240  143.2410 C   0  0  0  0  0  3  0  0  0  0  0  0
  184.9020  178.9210  143.8830 C   0  0  0  0  0  0  0  0  0  0  0  0
  182.4880  179.1580  144.2290 C   0  0  0  0  0  3  0  0  0  0  0  0
  183.7790  179.8860  144.0960 C   0  0  0  0  0  2  0  0  0  0  0  0
  182.6280  178.2130  141.9750 N   0  0  0  0  0  0  0  0  0  0  0  0
  184.3490  177.9180  140.4180 O   0  0  0  0  0  0  0  0  0  0  0  0
  184.7430  178.9830  139.5590 C   0  0  0  0  0  2  0  0  0  0  0  0
  185.0740  178.4220  138.1890 C   0  0  2  0  0  3  0  0  0  0  0  0
  184.3230  177.2620  137.9610 O   0  0  0  0  0  1  0  0  0  0  0  0
  186.5630  178.0930  138.1210 C   0  0  0  0  0  2  0  0  0  0  0  0
  188.5960  178.9330  137.3290 C   0  0  0  0  0  1  0  0  0  0  0  0
  187.0800  177.9640  135.8510 C   0  0  0  0  0  1  0  0  0  0  0  0
  187.1810  178.8150  137.0220 N   0  0  0  0  0  0  0  0  0  0  0  0
  190.7120  177.5290  141.4970 C   0  0  0  0  0  2  0  0  0  0  0  0
  191.4500  177.4120  140.1690 C   0  0  0  0  0  2  0  0  0  0  0  0
  190.7030  176.5040  139.2400 C   0  0  0  0  0  0  0  0  0  0  0  0
  190.6350  174.8530  137.3490 C   0  0  0  0  0  2  0  0  0  0  0  0
  194.5620  176.0670  136.2220 C   0  0  2  0  0  3  0  0  0  0  0  0
  192.8150  175.9870  137.9780 C   0  0  0  0  0  2  0  0  0  0  0  0
  193.6190  174.1490  135.2230 O   0  0  0  0  0  0  0  0  0  0  0  0
  194.9910  177.3090  135.7580 O   0  0  0  0  0  1  0  0  0  0  0  0
  194.6940  175.0400  135.1230 C   0  0  0  0  0  2  0  0  0  0  0  0
  192.5380  174.9160  135.6860 C   0  0  1  0  0  3  0  0  0  0  0  0
  191.3820  175.7900  138.1950 N   0  0  0  0  0  0  0  0  0  0  0  0
  191.5780  174.0220  136.4780 C   0  0  0  0  0  2  0  0  0  0  0  0
  193.0880  176.1060  136.4820 C   0  0  2  0  0  3  0  0  0  0  0  0
  189.4510  176.3900  139.3730 O   0  0  0  0  0  0  0  0  0  0  0  0
  1  6  1  0  0  0  0
  2  9  1  6  0  0  0
  2  7  1  0  0  0  0
  2  4  1  0  0  0  0
  3  5  1  0  0  0  0
  4  3  1  6  0  0  0
  5  8  2  0  0  0  0
  5 12  1  0  0  0  0
  7  6  1  6  0  0  0
  7 13  1  0  0  0  0
  7  4  1  0  0  0  0
 10 12  1  0  0  0  0
 11 32  1  6  0  0  0
 11  1  1  0  0  0  0
 11  9  1  0  0  0  0
 13 14  1  6  0  0  0
 13 10  1  0  0  0  0
 14 16  1  0  0  0  0
 16 15  2  0  0  0  0
 17 23  2  0  0  0  0
 17 18  1  0  0  0  0
 18 20  2  0  0  0  0
 19 21  2  0  0  0  0
 20 22  1  0  0  0  0
 20 16  1  0  0  0  0
 22 21  1  0  0  0  0
 23 19  1  0  0  0  0
 24 17  1  0  0  0  0
 25 24  1  0  0  0  0
 26 27  1  1  0  0  0
 26 25  1  0  0  0  0
 28 26  1  0  0  0  0
 30 31  1  0  0  0  0
 31 29  1  0  0  0  0
 31 28  1  0  0  0  0
 33 32  1  0  0  0  0
 34 45  2  0  0  0  0
 34 33  1  0  0  0  0
 35 42  1  0  0  0  0
 36 39  1  6  0  0  0
 36 44  1  0  0  0  0
 37 42  1  0  0  0  0
 38 41  1  0  0  0  0
 40 38  1  0  0  0  0
 40 36  1  0  0  0  0
 41 43  1  1  0  0  0
 41 44  1  0  0  0  0
 42 34  1  0  0  0  0
 43 35  1  0  0  0  0
 44 37  1  1  0  0  0
M  END
>  <MODEL>
5

>  <REMARK>
 VINA RESULT:      -7.8      2.487     10.018
  Name = 
  10 active torsions:
  status: ('A' for Active; 'I' for Inactive)
    1  A    between atoms: C_1  and  O_42
    2  A    between atoms: N_2  and  C_44
    3  A    between atoms: C_3  and  C_38
    4  A    between atoms: C_8  and  C_38
    5  A    between atoms: C_8  and  C_40
    6  A    between atoms: C_14  and  N_28
    7  A    between atoms: C_14  and  C_29
    8  A    between atoms: C_23  and  C_29
    9  A    between atoms: C_23  and  O_42
   10  A    between atoms: C_24  and  C_31
                            x       y       z     vdW  Elec       q    Type
                         _______ _______ _______ _____ _____    ______ ____

>  <TORSDO>
F 10

$$$$
=
 OpenBabel10232408293D

 45 50  0  0  1  0  0  0  0  0999 V2000
  190.3730  175.9940  143.1860 C   0  0  0  0  0  2  0  0  0  0  0  0
  190.2100  178.8280  144.0260 N   0  0  2  0  0  0  0  0  0  0  0  0
  190.7650  177.2300  145.9280 O   0  0  0  0  0  0  0  0  0  0  0  0
  190.1550  178.4150  145.4430 C   0  0  2  0  0  3  0  0  0  0  0  0
  190.0190  176.5180  146.8890 C   0  0  0  0  0  0  0  0  0  0  0  0
  189.1160  176.4680  143.9170 C   0  0  0  0  0  2  0  0  0  0  0  0
  189.1320  177.9160  144.5040 C   0  0  2  0  0  0  0  0  0  0  0  0
  190.4330  175.4010  147.2950 O   0  0  0  0  0  0  0  0  0  0  0  0
  191.3990  178.2000  143.4380 C   0  0  0  0  0  2  0  0  0  0  0  0
  187.5910  177.2750  146.3610 C   0  0  0  0  0  2  0  0  0  0  0  0
  191.0460  177.1230  142.4330 C   0  0  2  0  0  3  0  0  0  0  0  0
  188.7040  177.0760  147.4280 C   0  0  0  0  0  2  0  0  0  0  0  0
  187.8860  178.3380  145.2620 C   0  0  2  0  0  3  0  0  0  0  0  0
  186.7600  178.4100  144.3450 N   0  0  0  0  0  2  0  0  0  0  0  0
  185.3760  179.5260  145.8540 O   0  0  0  0  0  0  0  0  0  0  0  0
  185.5150  179.0110  144.7100 C   0  0  0  0  0  0  0  0  0  0  0  0
  183.5110  178.4090  141.4900 C   0  0  0  0  0  0  0  0  0  0  0  0
  184.5540  178.4800  142.5370 C   0  0  0  0  0  3  0  0  0  0  0  0
  181.5970  178.1410  143.0300 C   0  0  0  0  0  3  0  0  0  0  0  0
  184.4070  179.0410  143.7390 C   0  0  0  0  0  0  0  0  0  0  0  0
  181.9980  178.8010  144.1160 C   0  0  0  0  0  3  0  0  0  0  0  0
  183.1400  179.7540  144.0930 C   0  0  0  0  0  2  0  0  0  0  0  0
  182.2410  178.2340  141.7470 N   0  0  0  0  0  0  0  0  0  0  0  0
  183.9460  178.4730  140.1630 O   0  0  0  0  0  0  0  0  0  0  0  0
  185.2910  178.7770  139.8080 C   0  0  0  0  0  2  0  0  0  0  0  0
  185.5160  178.4130  138.3530 C   0  0  2  0  0  3  0  0  0  0  0  0
  184.6660  177.3600  137.9930 O   0  0  0  0  0  1  0  0  0  0  0  0
  186.9690  177.9910  138.1530 C   0  0  0  0  0  2  0  0  0  0  0  0
  188.9890  179.0720  137.6840 C   0  0  0  0  0  1  0  0  0  0  0  0
  187.7060  178.1940  135.9500 C   0  0  0  0  0  1  0  0  0  0  0  0
  187.6240  178.8910  137.2200 N   0  0  0  0  0  0  0  0  0  0  0  0
  190.1710  177.6570  141.3020 C   0  0  0  0  0  2  0  0  0  0  0  0
  189.9020  176.5720  140.2670 C   0  0  0  0  0  2  0  0  0  0  0  0
  191.0080  176.5370  139.2550 C   0  0  0  0  0  0  0  0  0  0  0  0
  191.8850  176.0020  136.9640 C   0  0  0  0  0  2  0  0  0  0  0  0
  188.5140  173.4730  136.3250 C   0  0  2  0  0  3  0  0  0  0  0  0
  189.5310  175.3240  137.6220 C   0  0  0  0  0  2  0  0  0  0  0  0
  189.9160  174.0040  134.5040 O   0  0  0  0  0  0  0  0  0  0  0  0
  188.1660  172.2990  136.9910 O   0  0  0  0  0  1  0  0  0  0  0  0
  188.8710  173.1590  134.8920 C   0  0  0  0  0  2  0  0  0  0  0  0
  190.6920  174.1960  135.6580 C   0  0  1  0  0  3  0  0  0  0  0  0
  190.8070  175.9550  137.9580 N   0  0  0  0  0  0  0  0  0  0  0  0
  191.3880  175.5590  135.5880 C   0  0  0  0  0  2  0  0  0  0  0  0
  189.7920  174.0130  136.8870 C   0  0  2  0  0  3  0  0  0  0  0  0
  192.1370  177.0100  139.5680 O   0  0  0  0  0  0  0  0  0  0  0  0
  1  6  1  0  0  0  0
  2  9  1  6  0  0  0
  2  7  1  0  0  0  0
  2  4  1  0  0  0  0
  3  5  1  0  0  0  0
  4  3  1  6  0  0  0
  5  8  2  0  0  0  0
  5 12  1  0  0  0  0
  7  6  1  6  0  0  0
  7 13  1  0  0  0  0
  7  4  1  0  0  0  0
 10 12  1  0  0  0  0
 11 32  1  6  0  0  0
 11  1  1  0  0  0  0
 11  9  1  0  0  0  0
 13 14  1  6  0  0  0
 13 10  1  0  0  0  0
 14 16  1  0  0  0  0
 16 15  2  0  0  0  0
 17 23  2  0  0  0  0
 17 18  1  0  0  0  0
 18 20  2  0  0  0  0
 19 21  2  0  0  0  0
 20 22  1  0  0  0  0
 20 16  1  0  0  0  0
 22 21  1  0  0  0  0
 23 19  1  0  0  0  0
 24 17  1  0  0  0  0
 25 24  1  0  0  0  0
 26 27  1  1  0  0  0
 26 25  1  0  0  0  0
 28 26  1  0  0  0  0
 30 31  1  0  0  0  0
 31 29  1  0  0  0  0
 31 28  1  0  0  0  0
 33 32  1  0  0  0  0
 34 45  2  0  0  0  0
 34 33  1  0  0  0  0
 35 42  1  0  0  0  0
 36 44  1  0  0  0  0
 36 39  1  1  0  0  0
 37 42  1  0  0  0  0
 38 40  1  0  0  0  0
 38 41  1  0  0  0  0
 40 36  1  0  0  0  0
 41 43  1  6  0  0  0
 41 44  1  0  0  0  0
 42 34  1  0  0  0  0
 43 35  1  0  0  0  0
 44 37  1  6  0  0  0
M  END
>  <MODEL>
6

>  <REMARK>
 VINA RESULT:      -7.6      2.514      9.614
  Name = 
  10 active torsions:
  status: ('A' for Active; 'I' for Inactive)
    1  A    between atoms: C_1  and  O_42
    2  A    between atoms: N_2  and  C_44
    3  A    between atoms: C_3  and  C_38
    4  A    between atoms: C_8  and  C_38
    5  A    between atoms: C_8  and  C_40
    6  A    between atoms: C_14  and  N_28
    7  A    between atoms: C_14  and  C_29
    8  A    between atoms: C_23  and  C_29
    9  A    between atoms: C_23  and  O_42
   10  A    between atoms: C_24  and  C_31
                            x       y       z     vdW  Elec       q    Type
                         _______ _______ _______ _____ _____    ______ ____

>  <TORSDO>
F 10

$$$$
=
 OpenBabel10232408293D

 45 50  0  0  1  0  0  0  0  0999 V2000
  190.0560  175.5720  142.9750 C   0  0  0  0  0  2  0  0  0  0  0  0
  189.7670  178.5130  142.7900 N   0  0  2  0  0  0  0  0  0  0  0  0
  189.7460  177.6330  145.1780 O   0  0  0  0  0  0  0  0  0  0  0  0
  189.3250  178.5670  144.1980 C   0  0  2  0  0  3  0  0  0  0  0  0
  188.7490  177.2220  146.0860 C   0  0  0  0  0  0  0  0  0  0  0  0
  188.6660  176.1820  143.1610 C   0  0  0  0  0  2  0  0  0  0  0  0
  188.5710  177.7400  143.2350 C   0  0  2  0  0  0  0  0  0  0  0  0
  189.0040  176.3150  146.9220 O   0  0  0  0  0  0  0  0  0  0  0  0
  191.0490  177.7980  142.7660 C   0  0  0  0  0  2  0  0  0  0  0  0
  186.5740  177.6360  144.7290 C   0  0  0  0  0  2  0  0  0  0  0  0
  190.9400  176.4400  142.1030 C   0  0  2  0  0  3  0  0  0  0  0  0
  187.3570  177.8470  146.0550 C   0  0  0  0  0  2  0  0  0  0  0  0
  187.1830  178.3100  143.4650 C   0  0  2  0  0  3  0  0  0  0  0  0
  186.3440  178.0250  142.3130 N   0  0  0  0  0  2  0  0  0  0  0  0
  185.0160  179.9220  142.5890 O   0  0  0  0  0  0  0  0  0  0  0  0
  185.2570  178.8720  141.9310 C   0  0  0  0  0  0  0  0  0  0  0  0
  182.7540  177.0000  139.7000 C   0  0  0  0  0  0  0  0  0  0  0  0
  183.6530  177.4390  140.7900 C   0  0  0  0  0  3  0  0  0  0  0  0
  182.1270  179.2640  138.9350 C   0  0  0  0  0  3  0  0  0  0  0  0
  184.4340  178.5220  140.7600 C   0  0  0  0  0  0  0  0  0  0  0  0
  183.2120  179.9830  139.2200 C   0  0  0  0  0  3  0  0  0  0  0  0
  184.5270  179.3550  139.5210 C   0  0  0  0  0  2  0  0  0  0  0  0
  182.0890  177.8260  138.9360 N   0  0  0  0  0  0  0  0  0  0  0  0
  182.5800  175.6220  139.5460 O   0  0  0  0  0  0  0  0  0  0  0  0
  182.0820  175.0380  138.3470 C   0  0  0  0  0  2  0  0  0  0  0  0
  183.2480  174.6900  137.4410 C   0  0  2  0  0  3  0  0  0  0  0  0
  183.4460  175.7170  136.5110 O   0  0  0  0  0  1  0  0  0  0  0  0
  182.9500  173.3840  136.7090 C   0  0  0  0  0  2  0  0  0  0  0  0
  183.8920  171.2790  136.3210 C   0  0  0  0  0  1  0  0  0  0  0  0
  184.9660  172.7960  137.7240 C   0  0  0  0  0  1  0  0  0  0  0  0
  183.6620  172.2860  137.3420 N   0  0  0  0  0  0  0  0  0  0  0  0
  190.4140  176.5380  140.6740 C   0  0  0  0  0  2  0  0  0  0  0  0
  191.3820  177.3180  139.7930 C   0  0  0  0  0  2  0  0  0  0  0  0
  191.6440  176.5690  138.5220 C   0  0  0  0  0  0  0  0  0  0  0  0
  191.1070  176.0280  136.1290 C   0  0  0  0  0  2  0  0  0  0  0  0
  187.2570  177.7790  136.6560 C   0  0  2  0  0  3  0  0  0  0  0  0
  189.5890  177.5600  137.4650 C   0  0  0  0  0  2  0  0  0  0  0  0
  187.9780  177.2190  134.4820 O   0  0  0  0  0  0  0  0  0  0  0  0
  186.2170  177.3660  137.4860 O   0  0  0  0  0  1  0  0  0  0  0  0
  186.8520  177.6140  135.2120 C   0  0  0  0  0  2  0  0  0  0  0  0
  188.7320  176.4210  135.3570 C   0  0  1  0  0  3  0  0  0  0  0  0
  190.7820  176.7170  137.3830 N   0  0  0  0  0  0  0  0  0  0  0  0
  190.2150  176.5120  134.9850 C   0  0  0  0  0  2  0  0  0  0  0  0
  188.4180  176.8460  136.7980 C   0  0  2  0  0  3  0  0  0  0  0  0
  192.6290  175.7790  138.4710 O   0  0  0  0  0  0  0  0  0  0  0  0
  1  6  1  0  0  0  0
  2  9  1  1  0  0  0
  2  7  1  0  0  0  0
  2  4  1  0  0  0  0
  3  5  1  0  0  0  0
  4  3  1  1  0  0  0
  5  8  2  0  0  0  0
  7  6  1  1  0  0  0
  7 13  1  0  0  0  0
  7  4  1  0  0  0  0
 10 12  1  0  0  0  0
 11 32  1  6  0  0  0
 11  9  1  0  0  0  0
 11  1  1  0  0  0  0
 12  5  1  0  0  0  0
 13 14  1  6  0  0  0
 13 10  1  0  0  0  0
 16 14  1  0  0  0  0
 16 15  2  0  0  0  0
 17 18  1  0  0  0  0
 19 23  1  0  0  0  0
 19 21  2  0  0  0  0
 20 18  2  0  0  0  0
 20 16  1  0  0  0  0
 21 22  1  0  0  0  0
 22 20  1  0  0  0  0
 23 17  2  0  0  0  0
 24 17  1  0  0  0  0
 25 24  1  0  0  0  0
 26 27  1  6  0  0  0
 26 25  1  0  0  0  0
 28 31  1  0  0  0  0
 28 26  1  0  0  0  0
 29 31  1  0  0  0  0
 31 30  1  0  0  0  0
 33 32  1  0  0  0  0
 34 33  1  0  0  0  0
 35 42  1  0  0  0  0
 36 44  1  0  0  0  0
 36 39  1  1  0  0  0
 38 40  1  0  0  0  0
 38 41  1  0  0  0  0
 40 36  1  0  0  0  0
 41 43  1  6  0  0  0
 41 44  1  0  0  0  0
 42 37  1  0  0  0  0
 42 34  1  0  0  0  0
 43 35  1  0  0  0  0
 44 37  1  6  0  0  0
 45 34  2  0  0  0  0
M  END
>  <MODEL>
7

>  <REMARK>
 VINA RESULT:      -7.6      1.870      9.193
  Name = 
  10 active torsions:
  status: ('A' for Active; 'I' for Inactive)
    1  A    between atoms: C_1  and  O_42
    2  A    between atoms: N_2  and  C_44
    3  A    between atoms: C_3  and  C_38
    4  A    between atoms: C_8  and  C_38
    5  A    between atoms: C_8  and  C_40
    6  A    between atoms: C_14  and  N_28
    7  A    between atoms: C_14  and  C_29
    8  A    between atoms: C_23  and  C_29
    9  A    between atoms: C_23  and  O_42
   10  A    between atoms: C_24  and  C_31
                            x       y       z     vdW  Elec       q    Type
                         _______ _______ _______ _____ _____    ______ ____

>  <TORSDO>
F 10

$$$$
=
 OpenBabel10232408293D

 45 50  0  0  1  0  0  0  0  0999 V2000
  190.5480  175.9740  143.3490 C   0  0  0  0  0  2  0  0  0  0  0  0
  190.4410  178.8020  144.2200 N   0  0  2  0  0  0  0  0  0  0  0  0
  191.0040  177.1760  146.0960 O   0  0  0  0  0  0  0  0  0  0  0  0
  190.4040  178.3750  145.6330 C   0  0  2  0  0  3  0  0  0  0  0  0
  190.2630  176.4650  147.0620 C   0  0  0  0  0  0  0  0  0  0  0  0
  189.3100  176.4590  144.1060 C   0  0  0  0  0  2  0  0  0  0  0  0
  189.3570  177.9010  144.7070 C   0  0  2  0  0  0  0  0  0  0  0  0
  190.6670  175.3380  147.4500 O   0  0  0  0  0  0  0  0  0  0  0  0
  191.6110  178.1620  143.6050 C   0  0  0  0  0  2  0  0  0  0  0  0
  187.8380  177.2640  146.5830 C   0  0  0  0  0  2  0  0  0  0  0  0
  191.2250  177.1010  142.5960 C   0  0  2  0  0  3  0  0  0  0  0  0
  188.9660  177.0370  147.6290 C   0  0  0  0  0  2  0  0  0  0  0  0
  188.1310  178.3330  145.4900 C   0  0  2  0  0  3  0  0  0  0  0  0
  186.9910  178.4310  144.5930 N   0  0  0  0  0  2  0  0  0  0  0  0
  185.6330  179.5100  146.1510 O   0  0  0  0  0  0  0  0  0  0  0  0
  185.7530  179.0260  144.9920 C   0  0  0  0  0  0  0  0  0  0  0  0
  183.6440  178.3920  141.8460 C   0  0  0  0  0  0  0  0  0  0  0  0
  184.7110  178.4440  142.8700 C   0  0  0  0  0  3  0  0  0  0  0  0
  181.7480  178.3560  143.4310 C   0  0  0  0  0  3  0  0  0  0  0  0
  184.6300  179.0830  144.0400 C   0  0  0  0  0  0  0  0  0  0  0  0
  182.2190  179.0450  144.4700 C   0  0  0  0  0  3  0  0  0  0  0  0
  183.4270  179.9070  144.3720 C   0  0  0  0  0  2  0  0  0  0  0  0
  182.3700  178.3270  142.1340 N   0  0  0  0  0  0  0  0  0  0  0  0
  184.0550  178.3480  140.5110 O   0  0  0  0  0  0  0  0  0  0  0  0
  183.1500  178.1250  139.4340 C   0  0  0  0  0  2  0  0  0  0  0  0
  183.2730  179.2630  138.4380 C   0  0  2  0  0  3  0  0  0  0  0  0
  184.0500  180.2900  138.9880 O   0  0  0  0  0  1  0  0  0  0  0  0
  181.8820  179.7940  138.1010 C   0  0  0  0  0  2  0  0  0  0  0  0
  181.1050  181.9750  138.4310 C   0  0  0  0  0  1  0  0  0  0  0  0
  180.2240  180.2210  139.6840 C   0  0  0  0  0  1  0  0  0  0  0  0
  181.4530  180.7420  139.1150 N   0  0  0  0  0  0  0  0  0  0  0  0
  190.3390  177.6590  141.4850 C   0  0  0  0  0  2  0  0  0  0  0  0
  189.8340  176.5410  140.5820 C   0  0  0  0  0  2  0  0  0  0  0  0
  190.3970  176.6960  139.2020 C   0  0  0  0  0  0  0  0  0  0  0  0
  190.1470  177.2600  136.7680 C   0  0  0  0  0  2  0  0  0  0  0  0
  185.9230  176.8540  137.1650 C   0  0  2  0  0  3  0  0  0  0  0  0
  188.1110  177.1890  138.2790 C   0  0  0  0  0  2  0  0  0  0  0  0
  186.8090  177.7850  135.1870 O   0  0  0  0  0  0  0  0  0  0  0  0
  185.1810  175.7150  137.4720 O   0  0  0  0  0  1  0  0  0  0  0  0
  185.6280  177.2880  135.7500 C   0  0  0  0  0  2  0  0  0  0  0  0
  187.8440  177.0240  135.7540 C   0  0  1  0  0  3  0  0  0  0  0  0
  189.5540  177.0420  138.0920 N   0  0  0  0  0  0  0  0  0  0  0  0
  189.1280  177.8570  135.7970 C   0  0  0  0  0  2  0  0  0  0  0  0
  187.3800  176.5130  137.1240 C   0  0  2  0  0  3  0  0  0  0  0  0
  191.6310  176.4930  139.0200 O   0  0  0  0  0  0  0  0  0  0  0  0
  1  6  1  0  0  0  0
  2  9  1  6  0  0  0
  2  7  1  0  0  0  0
  2  4  1  0  0  0  0
  3  5  1  0  0  0  0
  4  3  1  6  0  0  0
  5  8  2  0  0  0  0
  5 12  1  0  0  0  0
  7  6  1  6  0  0  0
  7 13  1  0  0  0  0
  7  4  1  0  0  0  0
 10 12  1  0  0  0  0
 11 32  1  6  0  0  0
 11  1  1  0  0  0  0
 11  9  1  0  0  0  0
 13 14  1  6  0  0  0
 13 10  1  0  0  0  0
 14 16  1  0  0  0  0
 16 15  2  0  0  0  0
 17 23  2  0  0  0  0
 17 18  1  0  0  0  0
 18 20  2  0  0  0  0
 19 21  2  0  0  0  0
 20 22  1  0  0  0  0
 20 16  1  0  0  0  0
 22 21  1  0  0  0  0
 23 19  1  0  0  0  0
 24 17  1  0  0  0  0
 25 24  1  0  0  0  0
 26 27  1  1  0  0  0
 26 25  1  0  0  0  0
 28 26  1  0  0  0  0
 28 31  1  0  0  0  0
 29 31  1  0  0  0  0
 31 30  1  0  0  0  0
 33 32  1  0  0  0  0
 34 33  1  0  0  0  0
 35 42  1  0  0  0  0
 36 39  1  6  0  0  0
 38 40  1  0  0  0  0
 38 41  1  0  0  0  0
 40 36  1  0  0  0  0
 41 43  1  1  0  0  0
 41 44  1  0  0  0  0
 42 37  1  0  0  0  0
 42 34  1  0  0  0  0
 43 35  1  0  0  0  0
 44 36  1  0  0  0  0
 44 37  1  1  0  0  0
 45 34  2  0  0  0  0
M  END
>  <MODEL>
8

>  <REMARK>
 VINA RESULT:      -7.6      2.110      9.842
  Name = 
  10 active torsions:
  status: ('A' for Active; 'I' for Inactive)
    1  A    between atoms: C_1  and  O_42
    2  A    between atoms: N_2  and  C_44
    3  A    between atoms: C_3  and  C_38
    4  A    between atoms: C_8  and  C_38
    5  A    between atoms: C_8  and  C_40
    6  A    between atoms: C_14  and  N_28
    7  A    between atoms: C_14  and  C_29
    8  A    between atoms: C_23  and  C_29
    9  A    between atoms: C_23  and  O_42
   10  A    between atoms: C_24  and  C_31
                            x       y       z     vdW  Elec       q    Type
                         _______ _______ _______ _____ _____    ______ ____

>  <TORSDO>
F 10

$$$$
=
 OpenBabel10232408293D

 45 50  0  0  1  0  0  0  0  0999 V2000
  189.3060  173.8050  136.7510 C   0  0  0  0  0  2  0  0  0  0  0  0
  189.0870  176.7250  136.3120 N   0  0  2  0  0  0  0  0  0  0  0  0
  191.3200  175.7460  135.5790 O   0  0  0  0  0  0  0  0  0  0  0  0
  190.5470  176.8120  136.1050 C   0  0  2  0  0  3  0  0  0  0  0  0
  192.5790  175.5580  136.1850 C   0  0  0  0  0  0  0  0  0  0  0  0
  190.0100  174.7450  137.7300 C   0  0  0  0  0  2  0  0  0  0  0  0
  190.0280  176.2670  137.3750 C   0  0  2  0  0  0  0  0  0  0  0  0
  193.2870  174.5700  135.8550 O   0  0  0  0  0  0  0  0  0  0  0  0
  188.5800  175.7020  135.3880 C   0  0  0  0  0  2  0  0  0  0  0  0
  192.2130  176.6030  138.5340 C   0  0  0  0  0  2  0  0  0  0  0  0
  188.1000  174.4600  136.1100 C   0  0  2  0  0  3  0  0  0  0  0  0
  193.0860  176.5260  137.2500 C   0  0  0  0  0  2  0  0  0  0  0  0
  190.7740  177.1660  138.3440 C   0  0  2  0  0  3  0  0  0  0  0  0
  190.0860  177.1760  139.6250 N   0  0  0  0  0  2  0  0  0  0  0  0
  188.6740  178.9420  139.0520 O   0  0  0  0  0  0  0  0  0  0  0  0
  189.0430  178.1070  139.9240 C   0  0  0  0  0  0  0  0  0  0  0  0
  186.2880  178.0040  142.5980 C   0  0  0  0  0  0  0  0  0  0  0  0
  187.0610  178.0730  141.3380 C   0  0  0  0  0  3  0  0  0  0  0  0
  187.8650  176.5320  143.8050 C   0  0  0  0  0  3  0  0  0  0  0  0
  188.3930  178.0760  141.2470 C   0  0  0  0  0  0  0  0  0  0  0  0
  189.0410  176.8610  143.2730 C   0  0  0  0  0  3  0  0  0  0  0  0
  189.2380  178.1050  142.4810 C   0  0  0  0  0  2  0  0  0  0  0  0
  186.6610  177.3010  143.6360 N   0  0  0  0  0  0  0  0  0  0  0  0
  185.0700  178.6890  142.6260 O   0  0  0  0  0  0  0  0  0  0  0  0
  184.8270  179.7910  143.4950 C   0  0  0  0  0  2  0  0  0  0  0  0
  183.5490  179.5380  144.2730 C   0  0  2  0  0  3  0  0  0  0  0  0
  183.8150  178.6900  145.3540 O   0  0  0  0  0  1  0  0  0  0  0  0
  182.5150  178.8920  143.3550 C   0  0  0  0  0  2  0  0  0  0  0  0
  180.5240  179.8550  142.5950 C   0  0  0  0  0  1  0  0  0  0  0  0
  180.4590  178.0650  144.0830 C   0  0  0  0  0  1  0  0  0  0  0  0
  181.1760  179.2850  143.7610 N   0  0  0  0  0  0  0  0  0  0  0  0
  187.0090  174.7740  137.1300 C   0  0  0  0  0  2  0  0  0  0  0  0
  185.7340  175.2340  136.4360 C   0  0  0  0  0  2  0  0  0  0  0  0
  184.5320  174.8060  137.2240 C   0  0  0  0  0  0  0  0  0  0  0  0
  182.4250  175.3220  138.4870 C   0  0  0  0  0  2  0  0  0  0  0  0
  183.6770  179.3840  138.8070 C   0  0  2  0  0  3  0  0  0  0  0  0
  183.9070  177.2030  137.6520 C   0  0  0  0  0  2  0  0  0  0  0  0
  181.4720  178.8090  139.4140 O   0  0  0  0  0  0  0  0  0  0  0  0
  184.7800  179.9050  139.4810 O   0  0  0  0  0  1  0  0  0  0  0  0
  182.4060  179.8480  139.4750 C   0  0  0  0  0  2  0  0  0  0  0  0
  182.2210  177.6250  139.5100 C   0  0  1  0  0  3  0  0  0  0  0  0
  183.6310  175.7730  137.7850 N   0  0  0  0  0  0  0  0  0  0  0  0
  181.4870  176.4930  138.7830 C   0  0  0  0  0  2  0  0  0  0  0  0
  183.6350  177.8970  138.9820 C   0  0  2  0  0  3  0  0  0  0  0  0
  184.3320  173.5720  137.4090 O   0  0  0  0  0  0  0  0  0  0  0  0
  1  6  1  0  0  0  0
  2  9  1  6  0  0  0
  2  7  1  0  0  0  0
  3  5  1  0  0  0  0
  4  3  1  6  0  0  0
  4  2  1  0  0  0  0
  4  7  1  0  0  0  0
  5 12  1  0  0  0  0
  7  6  1  1  0  0  0
  7 13  1  0  0  0  0
  8  5  2  0  0  0  0
  9 11  1  0  0  0  0
 11  1  1  0  0  0  0
 11 32  1  1  0  0  0
 12 10  1  0  0  0  0
 13 10  1  0  0  0  0
 13 14  1  1  0  0  0
 14 16  1  0  0  0  0
 15 16  2  0  0  0  0
 16 20  1  0  0  0  0
 17 24  1  0  0  0  0
 17 23  2  0  0  0  0
 18 17  1  0  0  0  0
 20 18  2  0  0  0  0
 20 22  1  0  0  0  0
 21 19  2  0  0  0  0
 22 21  1  0  0  0  0
 23 19  1  0  0  0  0
 24 25  1  0  0  0  0
 25 26  1  0  0  0  0
 26 27  1  1  0  0  0
 28 31  1  0  0  0  0
 28 26  1  0  0  0  0
 29 31  1  0  0  0  0
 31 30  1  0  0  0  0
 33 32  1  0  0  0  0
 33 34  1  0  0  0  0
 34 45  2  0  0  0  0
 34 42  1  0  0  0  0
 35 43  1  0  0  0  0
 36 44  1  0  0  0  0
 36 40  1  0  0  0  0
 36 39  1  1  0  0  0
 37 42  1  0  0  0  0
 38 40  1  0  0  0  0
 38 41  1  0  0  0  0
 41 43  1  6  0  0  0
 42 35  1  0  0  0  0
 44 37  1  6  0  0  0
 44 41  1  0  0  0  0
M  END
>  <MODEL>
9

>  <REMARK>
 VINA RESULT:      -7.6      2.476      8.055
  Name = 
  10 active torsions:
  status: ('A' for Active; 'I' for Inactive)
    1  A    between atoms: C_1  and  O_42
    2  A    between atoms: N_2  and  C_44
    3  A    between atoms: C_3  and  C_38
    4  A    between atoms: C_8  and  C_38
    5  A    between atoms: C_8  and  C_40
    6  A    between atoms: C_14  and  N_28
    7  A    between atoms: C_14  and  C_29
    8  A    between atoms: C_23  and  C_29
    9  A    between atoms: C_23  and  O_42
   10  A    between atoms: C_24  and  C_31
                            x       y       z     vdW  Elec       q    Type
                         _______ _______ _______ _____ _____    ______ ____

>  <TORSDO>
F 10

$$$$
