=
 OpenBabel10232410103D

 62 70  0  0  1  0  0  0  0  0999 V2000
  190.5940  176.8050  137.0360 C   0  0  0  0  0  0  0  0  0  0  0  0
  187.8760  177.2930  137.5190 C   0  0  0  0  0  0  0  0  0  0  0  0
  188.2690  177.5420  142.6150 C   0  0  0  0  0  0  0  0  0  0  0  0
  193.7000  177.5610  139.6240 O   0  0  0  0  0  0  0  0  0  0  0  0
  188.7480  177.4410  141.3960 C   0  0  0  0  0  0  0  0  0  0  0  0
  188.6300  176.5650  143.6960 C   0  0  1  0  0  3  0  0  0  0  0  0
  190.2040  174.9820  135.7740 N   0  0  0  0  0  0  0  0  0  0  0  0
  191.1200  176.8380  140.7280 C   0  0  0  0  0  0  0  0  0  0  0  0
  189.7540  175.2850  141.9780 O   0  0  0  0  0  0  0  0  0  0  0  0
  191.8680  176.1270  136.8840 C   0  0  1  0  0  3  0  0  0  0  0  0
  190.2510  177.6610  137.9420 N   0  0  0  0  0  0  0  0  0  0  0  0
  188.1770  176.2810  136.4190 C   0  0  0  0  0  3  0  0  0  0  0  0
  193.1580  176.4100  137.6080 C   0  0  0  0  0  2  0  0  0  0  0  0
  188.8640  177.9320  138.2120 C   0  0  0  0  0  0  0  0  0  0  0  0
  192.9260  176.7520  139.0450 C   0  0  0  0  0  0  0  0  0  0  0  0
  191.8350  176.1880  139.7170 O   0  0  0  0  0  0  0  0  0  0  0  0
  188.5700  178.9240  139.2990 C   0  0  0  0  0  2  0  0  0  0  0  0
  188.0330  178.2960  140.5040 N   0  0  0  0  0  0  0  0  0  0  0  0
  191.6100  177.8140  141.3540 O   0  0  0  0  0  0  0  0  0  0  0  0
  187.0330  178.9890  141.3120 C   0  0  0  0  0  3  0  0  0  0  0  0
  189.8980  175.8040  143.2890 C   0  0  0  0  0  2  0  0  0  0  0  0
  187.1680  178.4400  142.6610 N   0  0  0  0  0  0  0  0  0  0  0  0
  189.6440  176.0100  136.3250 C   0  0  0  0  0  0  0  0  0  0  0  0
  191.5990  175.0600  136.1240 C   0  0  0  0  0  0  0  0  0  0  0  0
  189.7370  176.3500  141.0340 C   0  0  1  0  0  3  0  0  0  0  0  0
  190.2420  178.2080  146.7700 C   0  0  0  0  0  2  0  0  0  0  0  0
  188.7770  177.2090  145.0430 C   0  0  0  0  0  0  0  0  0  0  0  0
  189.1640  177.8380  147.7910 C   0  0  0  0  0  2  0  0  0  0  0  0
  190.0160  177.4720  145.4790 C   0  0  0  0  0  3  0  0  0  0  0  0
  187.7980  177.9320  147.1670 C   0  0  0  0  0  3  0  0  0  0  0  0
  187.6050  177.5930  145.8800 C   0  0  0  0  0  0  0  0  0  0  0  0
  186.3210  177.6070  145.3210 O   0  0  0  0  0  0  0  0  0  0  0  0
  185.3090  178.5130  145.7480 C   0  0  0  0  0  2  0  0  0  0  0  0
  183.9680  178.0890  145.1830 C   0  0  0  0  0  2  0  0  0  0  0  0
  183.5650  179.0860  143.7220 P   0  0  2  0  0  0  0  0  0  0  0  0
  184.4870  180.2860  143.6740 O   0  0  0  0  0  0  0  0  0  0  0  0
  181.9590  179.6080  143.8140 O   0  0  0  0  0  1  0  0  0  0  0  0
  183.7750  178.1290  142.3360 O   0  0  0  0  0  0  0  0  0  0  0  0
  182.7130  178.4540  141.4890 C   0  0  2  0  0  3  0  0  0  0  0  0
  182.7500  177.6010  140.3070 C   0  0  0  0  0  2  0  0  0  0  0  0
  183.2550  178.9810  140.2290 N   0  0  0  0  0  2  0  0  0  0  0  0
  185.3700  177.7650  138.0220 N   0  0  0  0  0  0  0  0  0  0  0  0
  186.4860  177.5550  137.7990 C   0  0  0  0  0  0  0  0  0  0  0  0
  192.1790  172.8230  135.3240 C   0  0  0  0  0  3  0  0  0  0  0  0
  192.5420  173.9590  135.9060 C   0  0  0  0  0  3  0  0  0  0  0  0
  193.1110  171.6890  135.2270 C   0  0  0  0  0  0  0  0  0  0  0  0
  192.8940  170.7750  134.3850 O   0  0  0  0  0  0  0  0  0  0  0  0
  196.6970  171.5570  137.5680 C   0  0  0  0  0  3  0  0  0  0  0  0
  194.3330  171.6370  136.0540 C   0  0  0  0  0  0  0  0  0  0  0  0
  194.6020  170.5400  136.8860 C   0  0  0  0  0  3  0  0  0  0  0  0
  195.2530  172.6920  135.9950 C   0  0  0  0  0  3  0  0  0  0  0  0
  196.4420  172.6560  136.7380 C   0  0  0  0  0  0  0  0  0  0  0  0
  195.7800  170.5020  137.6400 C   0  0  0  0  0  3  0  0  0  0  0  0
  199.8570  173.5750  137.1450 C   0  0  0  0  0  2  0  0  0  0  0  0
  199.7950  174.4670  135.5730 S   0  0  0  0  0  0  0  0  0  0  0  0
  198.0950  173.8800  135.3370 C   0  0  1  0  0  3  0  0  0  0  0  0
  197.4210  173.7990  136.7000 C   0  0  2  0  0  3  0  0  0  0  0  0
  198.4900  173.6790  137.7900 C   0  0  2  0  0  3  0  0  0  0  0  0
  197.2200  176.0440  135.2460 C   0  0  0  0  0  1  0  0  0  0  0  0
  197.3680  174.8110  134.4900 N   0  0  0  0  0  2  0  0  0  0  0  0
  198.4490  174.8780  138.7310 C   0  0  0  0  0  2  0  0  0  0  0  0
  197.1270  174.9950  139.3240 N   0  0  0  0  0  1  0  0  0  0  0  0
  1 11  1  0  0  0  0
  2 43  1  0  0  0  0
  2 14  1  0  0  0  0
  3 22  1  0  0  0  0
  3  6  1  0  0  0  0
  5  3  2  0  0  0  0
  6 27  1  1  0  0  0
  7 24  2  0  0  0  0
  7 23  1  0  0  0  0
  8 19  2  0  0  0  0
  9 21  1  0  0  0  0
 10  1  1  0  0  0  0
 10 13  1  1  0  0  0
 11 14  2  0  0  0  0
 12  2  2  0  0  0  0
 13 15  1  0  0  0  0
 14 17  1  0  0  0  0
 15  4  2  0  0  0  0
 15 16  1  0  0  0  0
 16  8  1  0  0  0  0
 17 18  1  0  0  0  0
 18 20  1  0  0  0  0
 18  5  1  0  0  0  0
 20 22  2  0  0  0  0
 21  6  1  0  0  0  0
 23 12  1  0  0  0  0
 23  1  2  0  0  0  0
 24 10  1  0  0  0  0
 25  8  1  1  0  0  0
 25  5  1  0  0  0  0
 25  9  1  0  0  0  0
 26 28  1  0  0  0  0
 27 29  2  0  0  0  0
 27 31  1  0  0  0  0
 29 26  1  0  0  0  0
 30 28  1  0  0  0  0
 31 30  2  0  0  0  0
 32 33  1  0  0  0  0
 32 31  1  0  0  0  0
 34 33  1  0  0  0  0
 35 36  2  6  0  0  0
 35 37  1  0  0  0  0
 35 34  1  0  0  0  0
 38 35  1  0  0  0  0
 39 38  1  1  0  0  0
 40 39  1  0  0  0  0
 41 40  1  0  0  0  0
 41 39  1  0  0  0  0
 43 42  3  0  0  0  0
 44 45  2  0  0  0  0
 45 24  1  0  0  0  0
 46 44  1  0  0  0  0
 46 49  1  0  0  0  0
 47 46  2  0  0  0  0
 48 53  1  0  0  0  0
 49 50  1  0  0  0  0
 50 53  2  0  0  0  0
 51 49  2  0  0  0  0
 51 52  1  0  0  0  0
 52 48  2  0  0  0  0
 54 58  1  0  0  0  0
 55 54  1  0  0  0  0
 56 60  1  6  0  0  0
 56 55  1  0  0  0  0
 56 57  1  0  0  0  0
 57 52  1  6  0  0  0
 57 58  1  0  0  0  0
 58 61  1  1  0  0  0
 60 59  1  0  0  0  0
 61 62  1  0  0  0  0
M  END
>  <MODEL>
1

>  <REMARK>
 VINA RESULT:      -7.7      0.000      0.000
  Name = 
  14 active torsions:
  status: ('A' for Active; 'I' for Inactive)
    1  A    between atoms: P_1  and  O_6
    2  A    between atoms: P_1  and  C_60
    3  A    between atoms: O_6  and  C_15
    4  A    between atoms: C_8  and  C_10
    5  A    between atoms: C_9  and  C_11
    6  A    between atoms: C_11  and  C_14
    7  A    between atoms: C_18  and  C_26
    8  A    between atoms: O_29  and  C_44
    9  A    between atoms: O_29  and  C_61
   10  A    between atoms: C_30  and  C_55
   11  A    between atoms: C_36  and  N_49
   12  A    between atoms: C_43  and  C_47
   13  A    between atoms: C_44  and  C_60
   14  A    between atoms: C_57  and  C_58
                            x       y       z     vdW  Elec       q    Type
                         _______ _______ _______ _____ _____    ______ ____

>  <TORSDO>
F 14

$$$$
=
 OpenBabel10232410103D

 62 70  0  0  1  0  0  0  0  0999 V2000
  189.9230  175.3680  136.5050 C   0  0  0  0  0  0  0  0  0  0  0  0
  189.9080  172.6650  135.7630 C   0  0  0  0  0  0  0  0  0  0  0  0
  184.8350  172.0550  136.0410 C   0  0  0  0  0  0  0  0  0  0  0  0
  186.7260  177.9510  136.3510 O   0  0  0  0  0  0  0  0  0  0  0  0
  185.9460  172.7550  136.0800 C   0  0  0  0  0  0  0  0  0  0  0  0
  183.8250  172.1020  137.1500 C   0  0  1  0  0  3  0  0  0  0  0  0
  191.4360  175.0710  138.1450 N   0  0  0  0  0  0  0  0  0  0  0  0
  186.2190  175.1470  136.8810 C   0  0  0  0  0  0  0  0  0  0  0  0
  185.4360  173.4230  138.3810 O   0  0  0  0  0  0  0  0  0  0  0  0
  189.9090  176.5790  137.3050 C   0  0  0  0  0  0  0  0  0  0  0  0
  189.0060  174.9320  135.7060 N   0  0  0  0  0  0  0  0  0  0  0  0
  191.0410  173.0850  136.6930 C   0  0  0  0  0  2  0  0  0  0  0  0
  188.9270  177.7190  137.2390 C   0  0  0  0  0  2  0  0  0  0  0  0
  188.9740  173.5490  135.3060 C   0  0  0  0  0  0  0  0  0  0  0  0
  187.5300  177.2370  137.0100 C   0  0  0  0  0  0  0  0  0  0  0  0
  187.1450  175.9870  137.5090 O   0  0  0  0  0  0  0  0  0  0  0  0
  187.8550  173.1370  134.3950 C   0  0  0  0  0  2  0  0  0  0  0  0
  186.8530  172.3150  135.0690 N   0  0  0  0  0  0  0  0  0  0  0  0
  185.4040  175.5910  136.0290 O   0  0  0  0  0  0  0  0  0  0  0  0
  186.1740  171.2420  134.3470 C   0  0  0  0  0  3  0  0  0  0  0  0
  184.0700  173.3500  138.0070 C   0  0  0  0  0  2  0  0  0  0  0  0
  184.8960  171.0540  135.0330 N   0  0  0  0  0  0  0  0  0  0  0  0
  190.8860  174.5100  137.1180 C   0  0  0  0  0  0  0  0  0  0  0  0
  190.8230  176.3690  138.2580 C   0  0  0  0  0  0  0  0  0  0  0  0
  186.2370  173.6920  137.2360 C   0  0  1  0  0  3  0  0  0  0  0  0
  180.3630  170.7040  136.2500 C   0  0  0  0  0  2  0  0  0  0  0  0
  182.4100  172.0360  136.6560 C   0  0  0  0  0  0  0  0  0  0  0  0
  179.9980  171.7320  135.1770 C   0  0  0  0  0  2  0  0  0  0  0  0
  181.8110  170.8380  136.6330 C   0  0  0  0  0  3  0  0  0  0  0  0
  180.4890  173.0980  135.5720 C   0  0  0  0  0  3  0  0  0  0  0  0
  181.6510  173.2470  136.2320 C   0  0  0  0  0  0  0  0  0  0  0  0
  182.1470  174.5220  136.5320 O   0  0  0  0  0  0  0  0  0  0  0  0
  181.3520  175.5250  137.1580 C   0  0  0  0  0  2  0  0  0  0  0  0
  182.2280  176.6930  137.5650 C   0  0  0  0  0  2  0  0  0  0  0  0
  181.7080  177.3240  139.1850 P   0  0  2  0  0  0  0  0  0  0  0  0
  181.0530  176.2030  139.9650 O   0  0  0  0  0  1  0  0  0  0  0  0
  180.6070  178.5900  138.9760 O   0  0  0  0  0  0  0  0  0  0  0  0
  183.0770  177.8910  140.0120 O   0  0  0  0  0  0  0  0  0  0  0  0
  184.1040  177.9190  139.0660 C   0  0  2  0  0  3  0  0  0  0  0  0
  185.2240  178.6980  139.5820 C   0  0  0  0  0  2  0  0  0  0  0  0
  184.2960  179.3040  138.6140 N   0  0  0  0  0  2  0  0  0  0  0  0
  189.8370  170.1630  135.0600 N   0  0  0  0  0  0  0  0  0  0  0  0
  189.8680  171.2770  135.3730 C   0  0  0  0  0  0  0  0  0  0  0  0
  191.2330  176.7400  140.6410 C   0  0  0  0  0  3  0  0  0  0  0  0
  190.9830  177.2320  139.4330 C   0  0  0  0  0  3  0  0  0  0  0  0
  191.2680  177.6160  141.8230 C   0  0  0  0  0  0  0  0  0  0  0  0
  192.3300  178.2350  142.1050 O   0  0  0  0  0  0  0  0  0  0  0  0
  187.7710  178.1800  144.2320 C   0  0  0  0  0  3  0  0  0  0  0  0
  190.0620  177.8340  142.6440 C   0  0  0  0  0  0  0  0  0  0  0  0
  188.9130  178.4330  142.1060 C   0  0  0  0  0  3  0  0  0  0  0  0
  190.0530  177.4210  143.9830 C   0  0  0  0  0  3  0  0  0  0  0  0
  188.9090  177.5780  144.7800 C   0  0  0  0  0  0  0  0  0  0  0  0
  187.7720  178.6050  142.8980 C   0  0  0  0  0  3  0  0  0  0  0  0
  190.1420  178.3390  148.0320 C   0  0  0  0  0  2  0  0  0  0  0  0
  188.4630  178.2020  148.6910 S   0  0  0  0  0  0  0  0  0  0  0  0
  187.8510  177.9380  147.0040 C   0  0  1  0  0  3  0  0  0  0  0  0
  188.9030  177.1600  146.2260 C   0  0  2  0  0  3  0  0  0  0  0  0
  190.2720  177.3540  146.8870 C   0  0  2  0  0  3  0  0  0  0  0  0
  185.5340  178.1270  147.2290 C   0  0  0  0  0  1  0  0  0  0  0  0
  186.6150  177.1740  147.0450 N   0  0  0  0  0  2  0  0  0  0  0  0
  190.8250  176.0300  147.4010 C   0  0  0  0  0  2  0  0  0  0  0  0
  192.1150  176.2450  148.0340 N   0  0  0  0  0  1  0  0  0  0  0  0
  1 23  1  0  0  0  0
  1 10  1  0  0  0  0
  2 12  1  0  0  0  0
  3  5  2  0  0  0  0
  3  6  1  0  0  0  0
  4 15  2  0  0  0  0
  6 27  1  6  0  0  0
  6 21  1  0  0  0  0
  7 24  1  0  0  0  0
  8 25  1  0  0  0  0
  8 16  1  0  0  0  0
 10 24  2  0  0  0  0
 11  1  2  0  0  0  0
 12 23  1  0  0  0  0
 13 10  1  0  0  0  0
 14 11  1  0  0  0  0
 14  2  2  0  0  0  0
 15 13  1  0  0  0  0
 15 16  1  0  0  0  0
 17 18  1  0  0  0  0
 17 14  1  0  0  0  0
 18  5  1  0  0  0  0
 19  8  2  0  0  0  0
 20 22  2  0  0  0  0
 20 18  1  0  0  0  0
 21  9  1  0  0  0  0
 22  3  1  0  0  0  0
 23  7  2  0  0  0  0
 24 45  1  0  0  0  0
 25  5  1  6  0  0  0
 25  9  1  0  0  0  0
 26 29  1  0  0  0  0
 28 30  1  0  0  0  0
 28 26  1  0  0  0  0
 29 27  2  0  0  0  0
 30 31  2  0  0  0  0
 31 32  1  0  0  0  0
 31 27  1  0  0  0  0
 32 33  1  0  0  0  0
 33 34  1  0  0  0  0
 34 35  1  0  0  0  0
 35 37  2  6  0  0  0
 35 36  1  0  0  0  0
 35 38  1  0  0  0  0
 39 40  1  0  0  0  0
 39 38  1  1  0  0  0
 41 39  1  0  0  0  0
 41 40  1  0  0  0  0
 42 43  3  0  0  0  0
 43  2  1  0  0  0  0
 44 46  1  0  0  0  0
 45 44  2  0  0  0  0
 46 47  2  0  0  0  0
 46 49  1  0  0  0  0
 48 52  1  0  0  0  0
 49 51  1  0  0  0  0
 50 49  2  0  0  0  0
 50 53  1  0  0  0  0
 51 52  2  0  0  0  0
 53 48  2  0  0  0  0
 54 55  1  0  0  0  0
 56 60  1  1  0  0  0
 56 55  1  0  0  0  0
 57 52  1  6  0  0  0
 57 58  1  0  0  0  0
 57 56  1  0  0  0  0
 58 61  1  1  0  0  0
 58 54  1  0  0  0  0
 60 59  1  0  0  0  0
 61 62  1  0  0  0  0
M  END
>  <MODEL>
2

>  <REMARK>
 VINA RESULT:      -5.8      4.676      9.727
  Name = 
  14 active torsions:
  status: ('A' for Active; 'I' for Inactive)
    1  A    between atoms: P_1  and  O_6
    2  A    between atoms: P_1  and  C_60
    3  A    between atoms: O_6  and  C_15
    4  A    between atoms: C_8  and  C_10
    5  A    between atoms: C_9  and  C_11
    6  A    between atoms: C_11  and  C_14
    7  A    between atoms: C_18  and  C_26
    8  A    between atoms: O_29  and  C_44
    9  A    between atoms: O_29  and  C_61
   10  A    between atoms: C_30  and  C_55
   11  A    between atoms: C_36  and  N_49
   12  A    between atoms: C_43  and  C_47
   13  A    between atoms: C_44  and  C_60
   14  A    between atoms: C_57  and  C_58
                            x       y       z     vdW  Elec       q    Type
                         _______ _______ _______ _____ _____    ______ ____

>  <TORSDO>
F 14

$$$$
=
 OpenBabel10232410103D

 62 70  0  0  1  0  0  0  0  0999 V2000
  190.6040  176.8670  137.8920 C   0  0  0  0  0  0  0  0  0  0  0  0
  187.8210  176.9050  137.5520 C   0  0  0  0  0  0  0  0  0  0  0  0
  186.6870  177.7350  142.4730 C   0  0  0  0  0  0  0  0  0  0  0  0
  192.6870  178.4260  141.0770 O   0  0  0  0  0  0  0  0  0  0  0  0
  187.5060  177.5980  141.4550 C   0  0  0  0  0  0  0  0  0  0  0  0
  186.8570  176.9530  143.7420 C   0  0  1  0  0  3  0  0  0  0  0  0
  190.8600  174.8860  136.8550 N   0  0  0  0  0  0  0  0  0  0  0  0
  190.0310  177.3660  141.5430 C   0  0  0  0  0  0  0  0  0  0  0  0
  188.6010  175.7280  142.5960 O   0  0  0  0  0  0  0  0  0  0  0  0
  191.9510  176.4170  138.1890 C   0  0  1  0  0  3  0  0  0  0  0  0
  189.8950  177.7340  138.5370 N   0  0  0  0  0  0  0  0  0  0  0  0
  188.5690  175.8580  136.7340 C   0  0  0  0  0  3  0  0  0  0  0  0
  192.9220  176.9980  139.1820 C   0  0  0  0  0  2  0  0  0  0  0  0
  188.4650  177.7780  138.3820 C   0  0  0  0  0  0  0  0  0  0  0  0
  192.2390  177.4370  140.4370 C   0  0  0  0  0  0  0  0  0  0  0  0
  191.0930  176.7570  140.8680 O   0  0  0  0  0  0  0  0  0  0  0  0
  187.7300  178.8060  139.1920 C   0  0  0  0  0  2  0  0  0  0  0  0
  186.9640  178.2170  140.2880 N   0  0  0  0  0  0  0  0  0  0  0  0
  190.1740  178.4730  142.1270 O   0  0  0  0  0  0  0  0  0  0  0  0
  185.6840  178.7970  140.6870 C   0  0  0  0  0  3  0  0  0  0  0  0
  188.2840  176.3940  143.8070 C   0  0  0  0  0  2  0  0  0  0  0  0
  185.5020  178.4200  142.0890 N   0  0  0  0  0  0  0  0  0  0  0  0
  190.0240  175.8460  137.0780 C   0  0  0  0  0  0  0  0  0  0  0  0
  192.0690  175.2480  137.5500 C   0  0  0  0  0  0  0  0  0  0  0  0
  188.7040  176.6720  141.5360 C   0  0  1  0  0  3  0  0  0  0  0  0
  184.8740  179.1050  146.2290 C   0  0  0  0  0  2  0  0  0  0  0  0
  186.5150  177.7460  144.9690 C   0  0  0  0  0  0  0  0  0  0  0  0
  186.0660  179.7390  146.9490 C   0  0  0  0  0  2  0  0  0  0  0  0
  185.3340  178.3770  144.9960 C   0  0  0  0  0  3  0  0  0  0  0  0
  187.1750  178.7360  147.1080 C   0  0  0  0  0  3  0  0  0  0  0  0
  187.4180  177.8200  146.1530 C   0  0  0  0  0  0  0  0  0  0  0  0
  188.4990  176.9370  146.2650 O   0  0  0  0  0  0  0  0  0  0  0  0
  189.3440  176.9030  147.4110 C   0  0  0  0  0  2  0  0  0  0  0  0
  190.2280  175.6730  147.3590 C   0  0  0  0  0  2  0  0  0  0  0  0
  191.8210  176.0850  146.5920 P   0  0  2  0  0  0  0  0  0  0  0  0
  191.9510  175.3240  145.2880 O   0  0  0  0  0  0  0  0  0  0  0  0
  193.0820  175.6500  147.6310 O   0  0  0  0  0  1  0  0  0  0  0  0
  191.8700  177.7560  146.3030 O   0  0  0  0  0  0  0  0  0  0  0  0
  191.6430  177.9090  144.9340 C   0  0  2  0  0  3  0  0  0  0  0  0
  191.9280  179.2840  144.5400 C   0  0  0  0  0  2  0  0  0  0  0  0
  190.5350  178.8540  144.7380 N   0  0  0  0  0  2  0  0  0  0  0  0
  185.2360  176.9690  137.2890 N   0  0  0  0  0  0  0  0  0  0  0  0
  186.3870  176.9400  137.4080 C   0  0  0  0  0  0  0  0  0  0  0  0
  194.4480  174.7230  137.7730 C   0  0  0  0  0  3  0  0  0  0  0  0
  193.1830  174.3180  137.7580 C   0  0  0  0  0  3  0  0  0  0  0  0
  195.5520  173.7560  137.8610 C   0  0  0  0  0  0  0  0  0  0  0  0
  196.1930  173.6410  138.9430 O   0  0  0  0  0  0  0  0  0  0  0  0
  196.5700  171.1730  134.5990 C   0  0  0  0  0  3  0  0  0  0  0  0
  195.8800  172.8700  136.7280 C   0  0  0  0  0  0  0  0  0  0  0  0
  195.5990  173.2450  135.4060 C   0  0  0  0  0  3  0  0  0  0  0  0
  196.4990  171.6360  136.9710 C   0  0  0  0  0  3  0  0  0  0  0  0
  196.8590  170.7880  135.9130 C   0  0  0  0  0  0  0  0  0  0  0  0
  195.9440  172.3990  134.3460 C   0  0  0  0  0  3  0  0  0  0  0  0
  199.5400  169.1160  137.5530 C   0  0  0  0  0  2  0  0  0  0  0  0
  198.3660  167.9220  138.2370 S   0  0  0  0  0  0  0  0  0  0  0  0
  197.0110  168.8670  137.4890 C   0  0  1  0  0  3  0  0  0  0  0  0
  197.5000  169.4510  136.1710 C   0  0  2  0  0  3  0  0  0  0  0  0
  199.0290  169.5390  136.1900 C   0  0  2  0  0  3  0  0  0  0  0  0
  194.7920  168.4490  138.0880 C   0  0  0  0  0  1  0  0  0  0  0  0
  195.8790  167.9890  137.2410 N   0  0  0  0  0  2  0  0  0  0  0  0
  199.6420  168.6570  135.1080 C   0  0  0  0  0  2  0  0  0  0  0  0
  198.5960  167.9150  134.4240 N   0  0  0  0  0  1  0  0  0  0  0  0
  1 10  1  0  0  0  0
  1 11  1  0  0  0  0
  2 14  1  0  0  0  0
  3  6  1  0  0  0  0
  5  3  2  0  0  0  0
  6 21  1  0  0  0  0
  6 27  1  1  0  0  0
  7 23  1  0  0  0  0
  7 24  2  0  0  0  0
  8 19  2  0  0  0  0
  9 21  1  0  0  0  0
 10 13  1  1  0  0  0
 12 23  1  0  0  0  0
 12  2  2  0  0  0  0
 13 15  1  0  0  0  0
 14 11  2  0  0  0  0
 14 17  1  0  0  0  0
 15 16  1  0  0  0  0
 15  4  2  0  0  0  0
 16  8  1  0  0  0  0
 17 18  1  0  0  0  0
 18 20  1  0  0  0  0
 18  5  1  0  0  0  0
 20 22  2  0  0  0  0
 22  3  1  0  0  0  0
 23  1  2  0  0  0  0
 24 45  1  0  0  0  0
 24 10  1  0  0  0  0
 25  5  1  1  0  0  0
 25  8  1  0  0  0  0
 25  9  1  0  0  0  0
 26 28  1  0  0  0  0
 27 29  2  0  0  0  0
 27 31  1  0  0  0  0
 28 30  1  0  0  0  0
 29 26  1  0  0  0  0
 31 32  1  0  0  0  0
 31 30  2  0  0  0  0
 32 33  1  0  0  0  0
 34 33  1  0  0  0  0
 35 36  2  6  0  0  0
 35 34  1  0  0  0  0
 35 37  1  0  0  0  0
 38 35  1  0  0  0  0
 39 38  1  1  0  0  0
 40 41  1  0  0  0  0
 40 39  1  0  0  0  0
 41 39  1  0  0  0  0
 42 43  3  0  0  0  0
 43  2  1  0  0  0  0
 44 46  1  0  0  0  0
 45 44  2  0  0  0  0
 46 47  2  0  0  0  0
 48 52  1  0  0  0  0
 49 51  1  0  0  0  0
 49 46  1  0  0  0  0
 50 49  2  0  0  0  0
 52 51  2  0  0  0  0
 53 48  2  0  0  0  0
 53 50  1  0  0  0  0
 54 55  1  0  0  0  0
 56 60  1  6  0  0  0
 56 55  1  0  0  0  0
 57 52  1  1  0  0  0
 57 58  1  0  0  0  0
 57 56  1  0  0  0  0
 58 61  1  6  0  0  0
 58 54  1  0  0  0  0
 60 59  1  0  0  0  0
 62 61  1  0  0  0  0
M  END
>  <MODEL>
3

>  <REMARK>
 VINA RESULT:      -5.4      3.016      4.744
  Name = 
  14 active torsions:
  status: ('A' for Active; 'I' for Inactive)
    1  A    between atoms: P_1  and  O_6
    2  A    between atoms: P_1  and  C_60
    3  A    between atoms: O_6  and  C_15
    4  A    between atoms: C_8  and  C_10
    5  A    between atoms: C_9  and  C_11
    6  A    between atoms: C_11  and  C_14
    7  A    between atoms: C_18  and  C_26
    8  A    between atoms: O_29  and  C_44
    9  A    between atoms: O_29  and  C_61
   10  A    between atoms: C_30  and  C_55
   11  A    between atoms: C_36  and  N_49
   12  A    between atoms: C_43  and  C_47
   13  A    between atoms: C_44  and  C_60
   14  A    between atoms: C_57  and  C_58
                            x       y       z     vdW  Elec       q    Type
                         _______ _______ _______ _____ _____    ______ ____

>  <TORSDO>
F 14

$$$$
=
 OpenBabel10232410103D

 62 70  0  0  1  0  0  0  0  0999 V2000
  190.5530  176.8680  138.0670 C   0  0  0  0  0  0  0  0  0  0  0  0
  187.7760  177.0480  137.7270 C   0  0  0  0  0  0  0  0  0  0  0  0
  186.6720  177.7980  142.6670 C   0  0  0  0  0  0  0  0  0  0  0  0
  192.7020  178.2400  141.2950 O   0  0  0  0  0  0  0  0  0  0  0  0
  187.4860  177.6500  141.6470 C   0  0  0  0  0  0  0  0  0  0  0  0
  186.8030  176.9750  143.9150 C   0  0  1  0  0  3  0  0  0  0  0  0
  190.7170  174.9060  136.9770 N   0  0  0  0  0  0  0  0  0  0  0  0
  189.9970  177.2960  141.7310 C   0  0  0  0  0  0  0  0  0  0  0  0
  188.4880  175.7000  142.7380 O   0  0  0  0  0  0  0  0  0  0  0  0
  191.8770  176.3460  138.3530 C   0  0  1  0  0  3  0  0  0  0  0  0
  189.8840  177.7510  138.7350 N   0  0  0  0  0  0  0  0  0  0  0  0
  188.4750  175.9890  136.8810 C   0  0  0  0  0  3  0  0  0  0  0  0
  192.8720  176.8540  139.3620 C   0  0  0  0  0  2  0  0  0  0  0  0
  188.4590  177.8670  138.5800 C   0  0  0  0  0  0  0  0  0  0  0  0
  192.2080  177.2910  140.6290 C   0  0  0  0  0  0  0  0  0  0  0  0
  191.0300  176.6550  141.0400 O   0  0  0  0  0  0  0  0  0  0  0  0
  187.7720  178.9070  139.4180 C   0  0  0  0  0  2  0  0  0  0  0  0
  186.9770  178.3260  140.4960 N   0  0  0  0  0  0  0  0  0  0  0  0
  190.1920  178.3790  142.3440 O   0  0  0  0  0  0  0  0  0  0  0  0
  185.7250  178.9550  140.9100 C   0  0  0  0  0  3  0  0  0  0  0  0
  188.2010  176.3480  143.9650 C   0  0  0  0  0  2  0  0  0  0  0  0
  185.5220  178.5500  142.3010 N   0  0  0  0  0  0  0  0  0  0  0  0
  189.9270  175.8990  137.2260 C   0  0  0  0  0  0  0  0  0  0  0  0
  191.9400  175.1910  137.6830 C   0  0  0  0  0  0  0  0  0  0  0  0
  188.6380  176.6660  141.7030 C   0  0  1  0  0  3  0  0  0  0  0  0
  187.2080  178.5490  147.3940 C   0  0  0  0  0  2  0  0  0  0  0  0
  186.4960  177.7500  145.1630 C   0  0  0  0  0  0  0  0  0  0  0  0
  185.7230  178.6570  147.7460 C   0  0  0  0  0  2  0  0  0  0  0  0
  187.3940  177.7170  146.1560 C   0  0  0  0  0  3  0  0  0  0  0  0
  184.9230  179.0340  146.5300 C   0  0  0  0  0  3  0  0  0  0  0  0
  185.2600  178.5710  145.3130 C   0  0  0  0  0  0  0  0  0  0  0  0
  184.4710  178.8580  144.1920 O   0  0  0  0  0  0  0  0  0  0  0  0
  183.0540  178.7190  144.1980 C   0  0  0  0  0  2  0  0  0  0  0  0
  182.4980  179.0730  142.8340 C   0  0  0  0  0  2  0  0  0  0  0  0
  180.6850  178.9870  142.8580 P   0  0  2  0  0  0  0  0  0  0  0  0
  180.1300  180.3620  143.1640 O   0  0  0  0  0  0  0  0  0  0  0  0
  180.1840  177.8950  144.0480 O   0  0  0  0  0  1  0  0  0  0  0  0
  180.1460  178.4610  141.3380 O   0  0  0  0  0  0  0  0  0  0  0  0
  181.2670  177.9180  140.7070 C   0  0  2  0  0  3  0  0  0  0  0  0
  181.4280  178.5210  139.3890 C   0  0  0  0  0  2  0  0  0  0  0  0
  180.8310  177.1820  139.5120 N   0  0  0  0  0  2  0  0  0  0  0  0
  185.1970  177.2450  137.4660 N   0  0  0  0  0  0  0  0  0  0  0  0
  186.3450  177.1560  137.5820 C   0  0  0  0  0  0  0  0  0  0  0  0
  194.2860  174.5540  137.9570 C   0  0  0  0  0  3  0  0  0  0  0  0
  193.0080  174.2030  137.8660 C   0  0  0  0  0  3  0  0  0  0  0  0
  195.3470  173.5380  138.0180 C   0  0  0  0  0  0  0  0  0  0  0  0
  195.8780  173.2600  139.1280 O   0  0  0  0  0  0  0  0  0  0  0  0
  196.5990  171.3630  134.5460 C   0  0  0  0  0  3  0  0  0  0  0  0
  195.7550  172.7900  136.8130 C   0  0  0  0  0  0  0  0  0  0  0  0
  195.3800  173.2160  135.5300 C   0  0  0  0  0  3  0  0  0  0  0  0
  196.5460  171.6410  136.9470 C   0  0  0  0  0  3  0  0  0  0  0  0
  196.9830  170.9290  135.8200 C   0  0  0  0  0  0  0  0  0  0  0  0
  195.8020  172.5040  134.4010 C   0  0  0  0  0  3  0  0  0  0  0  0
  199.8920  169.5200  137.3100 C   0  0  0  0  0  2  0  0  0  0  0  0
  198.9080  168.1170  137.8860 S   0  0  0  0  0  0  0  0  0  0  0  0
  197.4240  168.9200  137.2220 C   0  0  1  0  0  3  0  0  0  0  0  0
  197.8100  169.6800  135.9600 C   0  0  2  0  0  3  0  0  0  0  0  0
  199.3120  169.9830  135.9890 C   0  0  2  0  0  3  0  0  0  0  0  0
  195.4540  167.9170  137.9760 C   0  0  0  0  0  1  0  0  0  0  0  0
  196.4260  167.9140  136.8960 N   0  0  0  0  0  2  0  0  0  0  0  0
  200.0310  169.2950  134.8350 C   0  0  0  0  0  2  0  0  0  0  0  0
  199.2630  168.1460  134.3880 N   0  0  0  0  0  1  0  0  0  0  0  0
  1 10  1  0  0  0  0
  1 11  1  0  0  0  0
  2 14  1  0  0  0  0
  3  6  1  0  0  0  0
  5  3  2  0  0  0  0
  6 21  1  0  0  0  0
  6 27  1  1  0  0  0
  7 23  1  0  0  0  0
  7 24  2  0  0  0  0
  8 19  2  0  0  0  0
  9 21  1  0  0  0  0
 10 13  1  1  0  0  0
 12 23  1  0  0  0  0
 12  2  2  0  0  0  0
 13 15  1  0  0  0  0
 14 11  2  0  0  0  0
 14 17  1  0  0  0  0
 15 16  1  0  0  0  0
 15  4  2  0  0  0  0
 16  8  1  0  0  0  0
 17 18  1  0  0  0  0
 18 20  1  0  0  0  0
 18  5  1  0  0  0  0
 20 22  2  0  0  0  0
 22  3  1  0  0  0  0
 23  1  2  0  0  0  0
 24 45  1  0  0  0  0
 24 10  1  0  0  0  0
 25  5  1  1  0  0  0
 25  8  1  0  0  0  0
 25  9  1  0  0  0  0
 26 28  1  0  0  0  0
 27 31  1  0  0  0  0
 27 29  2  0  0  0  0
 29 26  1  0  0  0  0
 30 28  1  0  0  0  0
 31 30  2  0  0  0  0
 32 33  1  0  0  0  0
 32 31  1  0  0  0  0
 34 35  1  0  0  0  0
 34 33  1  0  0  0  0
 35 36  2  1  0  0  0
 35 37  1  0  0  0  0
 38 35  1  0  0  0  0
 39 38  1  1  0  0  0
 40 41  1  0  0  0  0
 40 39  1  0  0  0  0
 41 39  1  0  0  0  0
 42 43  3  0  0  0  0
 43  2  1  0  0  0  0
 44 46  1  0  0  0  0
 45 44  2  0  0  0  0
 46 47  2  0  0  0  0
 48 52  1  0  0  0  0
 49 51  1  0  0  0  0
 49 46  1  0  0  0  0
 50 49  2  0  0  0  0
 52 51  2  0  0  0  0
 53 48  2  0  0  0  0
 53 50  1  0  0  0  0
 54 55  1  0  0  0  0
 56 60  1  6  0  0  0
 56 55  1  0  0  0  0
 57 52  1  1  0  0  0
 57 58  1  0  0  0  0
 57 56  1  0  0  0  0
 58 61  1  6  0  0  0
 58 54  1  0  0  0  0
 60 59  1  0  0  0  0
 62 61  1  0  0  0  0
M  END
>  <MODEL>
4

>  <REMARK>
 VINA RESULT:      -5.3      2.459      3.338
  Name = 
  14 active torsions:
  status: ('A' for Active; 'I' for Inactive)
    1  A    between atoms: P_1  and  O_6
    2  A    between atoms: P_1  and  C_60
    3  A    between atoms: O_6  and  C_15
    4  A    between atoms: C_8  and  C_10
    5  A    between atoms: C_9  and  C_11
    6  A    between atoms: C_11  and  C_14
    7  A    between atoms: C_18  and  C_26
    8  A    between atoms: O_29  and  C_44
    9  A    between atoms: O_29  and  C_61
   10  A    between atoms: C_30  and  C_55
   11  A    between atoms: C_36  and  N_49
   12  A    between atoms: C_43  and  C_47
   13  A    between atoms: C_44  and  C_60
   14  A    between atoms: C_57  and  C_58
                            x       y       z     vdW  Elec       q    Type
                         _______ _______ _______ _____ _____    ______ ____

>  <TORSDO>
F 14

$$$$
=
 OpenBabel10232410103D

 62 70  0  0  1  0  0  0  0  0999 V2000
  189.5570  176.9300  137.7820 C   0  0  0  0  0  0  0  0  0  0  0  0
  186.8260  177.5370  137.9540 C   0  0  0  0  0  0  0  0  0  0  0  0
  186.6800  177.9370  143.0530 C   0  0  0  0  0  0  0  0  0  0  0  0
  192.3960  177.6500  140.6700 O   0  0  0  0  0  0  0  0  0  0  0  0
  187.2820  177.7770  141.8970 C   0  0  0  0  0  0  0  0  0  0  0  0
  186.8820  176.9820  144.1940 C   0  0  1  0  0  3  0  0  0  0  0  0
  189.2290  175.0830  136.5370 N   0  0  0  0  0  0  0  0  0  0  0  0
  189.6840  177.0620  141.5070 C   0  0  0  0  0  0  0  0  0  0  0  0
  188.1290  175.6040  142.6450 O   0  0  0  0  0  0  0  0  0  0  0  0
  190.8110  176.1980  137.7890 C   0  0  1  0  0  3  0  0  0  0  0  0
  189.1550  177.8270  138.6210 N   0  0  0  0  0  0  0  0  0  0  0  0
  187.2010  176.4790  136.9210 C   0  0  0  0  0  3  0  0  0  0  0  0
  192.0260  176.4550  138.6400 C   0  0  0  0  0  2  0  0  0  0  0  0
  187.7600  178.1600  138.7310 C   0  0  0  0  0  0  0  0  0  0  0  0
  191.6560  176.8530  140.0330 C   0  0  0  0  0  0  0  0  0  0  0  0
  190.4760  176.3530  140.5990 O   0  0  0  0  0  0  0  0  0  0  0  0
  187.3920  179.1970  139.7520 C   0  0  0  0  0  2  0  0  0  0  0  0
  186.7030  178.6300  140.9080 N   0  0  0  0  0  0  0  0  0  0  0  0
  190.1460  178.0390  142.1550 O   0  0  0  0  0  0  0  0  0  0  0  0
  185.6520  179.3870  141.5830 C   0  0  0  0  0  3  0  0  0  0  0  0
  188.1530  176.1600  143.9480 C   0  0  0  0  0  2  0  0  0  0  0  0
  185.6190  178.8770  142.9540 N   0  0  0  0  0  0  0  0  0  0  0  0
  188.6570  176.1490  136.9950 C   0  0  0  0  0  0  0  0  0  0  0  0
  190.5800  175.1180  137.0340 C   0  0  0  0  0  0  0  0  0  0  0  0
  188.2580  176.6380  141.6750 C   0  0  1  0  0  3  0  0  0  0  0  0
  185.6850  178.7590  147.3810 C   0  0  0  0  0  2  0  0  0  0  0  0
  186.9100  177.6640  145.5300 C   0  0  0  0  0  0  0  0  0  0  0  0
  186.9900  179.4840  147.7160 C   0  0  0  0  0  2  0  0  0  0  0  0
  185.7580  178.1550  146.0060 C   0  0  0  0  0  3  0  0  0  0  0  0
  188.1700  178.6060  147.4050 C   0  0  0  0  0  3  0  0  0  0  0  0
  188.1520  177.7770  146.3460 C   0  0  0  0  0  0  0  0  0  0  0  0
  189.2800  177.0170  146.0120 O   0  0  0  0  0  0  0  0  0  0  0  0
  190.5140  177.6100  145.6200 C   0  0  0  0  0  2  0  0  0  0  0  0
  191.6550  176.6530  145.9010 C   0  0  0  0  0  2  0  0  0  0  0  0
  191.6810  176.2150  147.6620 P   0  0  2  0  0  0  0  0  0  0  0  0
  191.0900  174.8310  147.8350 O   0  0  0  0  0  0  0  0  0  0  0  0
  190.7680  177.3360  148.5390 O   0  0  0  0  0  1  0  0  0  0  0  0
  193.2890  176.2390  148.2040 O   0  0  0  0  0  0  0  0  0  0  0  0
  193.2160  176.3890  149.5910 C   0  0  2  0  0  3  0  0  0  0  0  0
  193.3310  177.8010  149.9370 C   0  0  0  0  0  2  0  0  0  0  0  0
  194.4980  176.9160  150.0790 N   0  0  0  0  0  2  0  0  0  0  0  0
  184.3020  178.1190  138.1700 N   0  0  0  0  0  0  0  0  0  0  0  0
  185.4260  177.8610  138.0740 C   0  0  0  0  0  0  0  0  0  0  0  0
  192.0870  173.6260  135.8150 C   0  0  0  0  0  3  0  0  0  0  0  0
  191.4950  173.9760  136.9510 C   0  0  0  0  0  3  0  0  0  0  0  0
  192.9020  172.4040  135.7310 C   0  0  0  0  0  0  0  0  0  0  0  0
  192.5020  171.4370  135.0270 O   0  0  0  0  0  0  0  0  0  0  0  0
  196.7410  172.1700  137.6180 C   0  0  0  0  0  3  0  0  0  0  0  0
  194.2130  172.3180  136.4030 C   0  0  0  0  0  0  0  0  0  0  0  0
  194.5400  171.2290  137.2240 C   0  0  0  0  0  3  0  0  0  0  0  0
  195.1600  173.3320  136.2050 C   0  0  0  0  0  3  0  0  0  0  0  0
  196.4300  173.2610  136.7980 C   0  0  0  0  0  0  0  0  0  0  0  0
  195.8000  171.1560  137.8290 C   0  0  0  0  0  3  0  0  0  0  0  0
  199.9010  174.0480  136.7760 C   0  0  0  0  0  2  0  0  0  0  0  0
  199.6900  174.8990  135.1950 S   0  0  0  0  0  0  0  0  0  0  0  0
  197.9530  174.3780  135.1770 C   0  0  1  0  0  3  0  0  0  0  0  0
  197.4400  174.3610  136.6100 C   0  0  2  0  0  3  0  0  0  0  0  0
  198.6240  174.2260  137.5730 C   0  0  2  0  0  3  0  0  0  0  0  0
  196.9440  176.4840  135.2260 C   0  0  0  0  0  1  0  0  0  0  0  0
  197.1680  175.3160  134.3910 N   0  0  0  0  0  2  0  0  0  0  0  0
  198.7390  175.4490  138.4740 C   0  0  0  0  0  2  0  0  0  0  0  0
  197.7370  175.3860  139.5240 N   0  0  0  0  0  1  0  0  0  0  0  0
  1 10  1  0  0  0  0
  1 11  1  0  0  0  0
  2 43  1  0  0  0  0
  2 14  1  0  0  0  0
  3  6  1  0  0  0  0
  5  3  2  0  0  0  0
  6 27  1  1  0  0  0
  7 23  1  0  0  0  0
  7 24  2  0  0  0  0
  8 19  2  0  0  0  0
  9 21  1  0  0  0  0
 10 13  1  1  0  0  0
 11 14  2  0  0  0  0
 12 23  1  0  0  0  0
 12  2  2  0  0  0  0
 13 15  1  0  0  0  0
 14 17  1  0  0  0  0
 15 16  1  0  0  0  0
 15  4  2  0  0  0  0
 16  8  1  0  0  0  0
 17 18  1  0  0  0  0
 18 20  1  0  0  0  0
 18  5  1  0  0  0  0
 20 22  2  0  0  0  0
 21  6  1  0  0  0  0
 22  3  1  0  0  0  0
 23  1  2  0  0  0  0
 24 10  1  0  0  0  0
 25  8  1  1  0  0  0
 25  5  1  0  0  0  0
 25  9  1  0  0  0  0
 26 28  1  0  0  0  0
 27 29  2  0  0  0  0
 27 31  1  0  0  0  0
 29 26  1  0  0  0  0
 30 28  1  0  0  0  0
 31 30  2  0  0  0  0
 32 31  1  0  0  0  0
 33 34  1  0  0  0  0
 33 32  1  0  0  0  0
 34 35  1  0  0  0  0
 35 36  2  1  0  0  0
 35 38  1  0  0  0  0
 35 37  1  0  0  0  0
 39 38  1  6  0  0  0
 39 40  1  0  0  0  0
 39 41  1  0  0  0  0
 40 41  1  0  0  0  0
 43 42  3  0  0  0  0
 44 45  2  0  0  0  0
 45 24  1  0  0  0  0
 46 44  1  0  0  0  0
 46 49  1  0  0  0  0
 47 46  2  0  0  0  0
 48 53  1  0  0  0  0
 49 50  1  0  0  0  0
 50 53  2  0  0  0  0
 51 49  2  0  0  0  0
 51 52  1  0  0  0  0
 52 48  2  0  0  0  0
 54 58  1  0  0  0  0
 55 54  1  0  0  0  0
 56 60  1  6  0  0  0
 56 55  1  0  0  0  0
 56 57  1  0  0  0  0
 57 52  1  6  0  0  0
 57 58  1  0  0  0  0
 58 61  1  6  0  0  0
 60 59  1  0  0  0  0
 61 62  1  0  0  0  0
M  END
>  <MODEL>
5

>  <REMARK>
 VINA RESULT:      -5.3      2.650      4.489
  Name = 
  14 active torsions:
  status: ('A' for Active; 'I' for Inactive)
    1  A    between atoms: P_1  and  O_6
    2  A    between atoms: P_1  and  C_60
    3  A    between atoms: O_6  and  C_15
    4  A    between atoms: C_8  and  C_10
    5  A    between atoms: C_9  and  C_11
    6  A    between atoms: C_11  and  C_14
    7  A    between atoms: C_18  and  C_26
    8  A    between atoms: O_29  and  C_44
    9  A    between atoms: O_29  and  C_61
   10  A    between atoms: C_30  and  C_55
   11  A    between atoms: C_36  and  N_49
   12  A    between atoms: C_43  and  C_47
   13  A    between atoms: C_44  and  C_60
   14  A    between atoms: C_57  and  C_58
                            x       y       z     vdW  Elec       q    Type
                         _______ _______ _______ _____ _____    ______ ____

>  <TORSDO>
F 14

$$$$
=
 OpenBabel10232410103D

 62 70  0  0  1  0  0  0  0  0999 V2000
  190.1170  175.7740  137.0740 C   0  0  0  0  0  0  0  0  0  0  0  0
  190.5670  173.1390  136.2290 C   0  0  0  0  0  0  0  0  0  0  0  0
  185.6330  171.8230  135.9080 C   0  0  0  0  0  0  0  0  0  0  0  0
  186.6190  177.8970  136.6610 O   0  0  0  0  0  0  0  0  0  0  0  0
  186.6210  172.6660  136.1000 C   0  0  0  0  0  0  0  0  0  0  0  0
  184.5140  171.6690  136.8970 C   0  0  1  0  0  3  0  0  0  0  0  0
  191.4740  175.5980  138.8610 N   0  0  0  0  0  0  0  0  0  0  0  0
  186.4640  175.0250  137.0200 C   0  0  0  0  0  0  0  0  0  0  0  0
  185.7800  173.1300  138.3530 O   0  0  0  0  0  0  0  0  0  0  0  0
  189.8450  176.9260  137.9140 C   0  0  0  0  0  0  0  0  0  0  0  0
  189.3620  175.2600  136.1590 N   0  0  0  0  0  0  0  0  0  0  0  0
  191.5230  173.6600  137.2970 C   0  0  0  0  0  2  0  0  0  0  0  0
  188.7230  177.9220  137.7820 C   0  0  0  0  0  2  0  0  0  0  0  0
  189.5700  173.9100  135.7050 C   0  0  0  0  0  0  0  0  0  0  0  0
  187.4410  177.2660  137.3780 C   0  0  0  0  0  0  0  0  0  0  0  0
  187.1880  175.9490  137.7810 O   0  0  0  0  0  0  0  0  0  0  0  0
  188.6240  173.3980  134.6570 C   0  0  0  0  0  2  0  0  0  0  0  0
  187.6840  172.4110  135.1820 N   0  0  0  0  0  0  0  0  0  0  0  0
  185.6890  175.3990  136.1000 O   0  0  0  0  0  0  0  0  0  0  0  0
  187.2460  171.2950  134.3460 C   0  0  0  0  0  3  0  0  0  0  0  0
  184.4860  172.8900  137.8250 C   0  0  0  0  0  2  0  0  0  0  0  0
  185.9420  170.8970  134.8760 N   0  0  0  0  0  0  0  0  0  0  0  0
  191.1220  175.0240  137.7570 C   0  0  0  0  0  0  0  0  0  0  0  0
  190.6740  176.7920  138.9550 C   0  0  0  0  0  0  0  0  0  0  0  0
  186.6520  173.5700  137.3180 C   0  0  1  0  0  3  0  0  0  0  0  0
  181.5230  169.8530  135.3160 C   0  0  0  0  0  2  0  0  0  0  0  0
  183.1830  171.4360  136.2450 C   0  0  0  0  0  0  0  0  0  0  0  0
  180.9970  171.0170  134.4730 C   0  0  0  0  0  2  0  0  0  0  0  0
  182.8770  170.1840  135.8800 C   0  0  0  0  0  3  0  0  0  0  0  0
  181.1390  172.3130  135.2240 C   0  0  0  0  0  3  0  0  0  0  0  0
  182.1950  172.5300  136.0280 C   0  0  0  0  0  0  0  0  0  0  0  0
  182.3670  173.7650  136.6660 O   0  0  0  0  0  0  0  0  0  0  0  0
  181.4400  174.2680  137.6230 C   0  0  0  0  0  2  0  0  0  0  0  0
  181.6660  175.7530  137.8260 C   0  0  0  0  0  2  0  0  0  0  0  0
  181.3850  176.6430  136.2690 P   0  0  2  0  0  0  0  0  0  0  0  0
  180.4270  175.8440  135.4100 O   0  0  0  0  0  0  0  0  0  0  0  0
  182.8530  176.8360  135.4520 O   0  0  0  0  0  1  0  0  0  0  0  0
  180.7250  178.1650  136.6250 O   0  0  0  0  0  0  0  0  0  0  0  0
  180.4590  178.1490  137.9960 C   0  0  2  0  0  3  0  0  0  0  0  0
  180.1750  179.5040  138.4550 C   0  0  0  0  0  2  0  0  0  0  0  0
  181.5030  178.9160  138.6910 N   0  0  0  0  0  2  0  0  0  0  0  0
  190.9280  170.6940  135.4230 N   0  0  0  0  0  0  0  0  0  0  0  0
  190.7670  171.7820  135.7830 C   0  0  0  0  0  0  0  0  0  0  0  0
  191.1120  177.2070  141.3250 C   0  0  0  0  0  3  0  0  0  0  0  0
  190.5830  177.6030  140.1730 C   0  0  0  0  0  3  0  0  0  0  0  0
  190.9030  177.9800  142.5590 C   0  0  0  0  0  0  0  0  0  0  0  0
  191.7410  178.8640  142.8890 O   0  0  0  0  0  0  0  0  0  0  0  0
  187.3810  177.4850  144.9470 C   0  0  0  0  0  3  0  0  0  0  0  0
  189.6950  177.7850  143.3830 C   0  0  0  0  0  0  0  0  0  0  0  0
  189.7350  177.0350  144.5680 C   0  0  0  0  0  3  0  0  0  0  0  0
  188.4850  178.3720  142.9880 C   0  0  0  0  0  3  0  0  0  0  0  0
  187.3270  178.2390  143.7680 C   0  0  0  0  0  0  0  0  0  0  0  0
  188.5810  176.8870  145.3460 C   0  0  0  0  0  3  0  0  0  0  0  0
  184.3190  177.6690  141.9540 C   0  0  0  0  0  2  0  0  0  0  0  0
  183.3640  178.2980  143.3550 S   0  0  0  0  0  0  0  0  0  0  0  0
  184.9050  178.4610  144.2970 C   0  0  1  0  0  3  0  0  0  0  0  0
  186.0200  178.8450  143.3340 C   0  0  2  0  0  3  0  0  0  0  0  0
  185.6330  178.4220  141.9130 C   0  0  2  0  0  3  0  0  0  0  0  0
  184.6020  178.8270  146.5840 C   0  0  0  0  0  1  0  0  0  0  0  0
  184.7570  179.4990  145.3050 N   0  0  0  0  0  2  0  0  0  0  0  0
  185.5110  179.6330  140.9960 C   0  0  0  0  0  2  0  0  0  0  0  0
  184.9290  179.2340  139.7250 N   0  0  0  0  0  1  0  0  0  0  0  0
  1 23  1  0  0  0  0
  1 10  1  0  0  0  0
  2 12  1  0  0  0  0
  3  5  2  0  0  0  0
  3  6  1  0  0  0  0
  4 15  2  0  0  0  0
  6 27  1  6  0  0  0
  6 21  1  0  0  0  0
  7 24  1  0  0  0  0
  8 25  1  0  0  0  0
  8 16  1  0  0  0  0
 10 24  2  0  0  0  0
 11  1  2  0  0  0  0
 12 23  1  0  0  0  0
 13 10  1  0  0  0  0
 14 11  1  0  0  0  0
 14  2  2  0  0  0  0
 15 16  1  0  0  0  0
 15 13  1  0  0  0  0
 17 18  1  0  0  0  0
 17 14  1  0  0  0  0
 18  5  1  0  0  0  0
 19  8  2  0  0  0  0
 20 22  2  0  0  0  0
 20 18  1  0  0  0  0
 21  9  1  0  0  0  0
 22  3  1  0  0  0  0
 23  7  2  0  0  0  0
 24 45  1  0  0  0  0
 25  5  1  6  0  0  0
 25  9  1  0  0  0  0
 26 29  1  0  0  0  0
 28 30  1  0  0  0  0
 28 26  1  0  0  0  0
 29 27  2  0  0  0  0
 30 31  2  0  0  0  0
 31 27  1  0  0  0  0
 31 32  1  0  0  0  0
 32 33  1  0  0  0  0
 33 34  1  0  0  0  0
 35 36  2  6  0  0  0
 35 38  1  0  0  0  0
 35 34  1  0  0  0  0
 37 35  1  0  0  0  0
 39 38  1  6  0  0  0
 39 40  1  0  0  0  0
 39 41  1  0  0  0  0
 40 41  1  0  0  0  0
 42 43  3  0  0  0  0
 43  2  1  0  0  0  0
 44 46  1  0  0  0  0
 45 44  2  0  0  0  0
 46 47  2  0  0  0  0
 46 49  1  0  0  0  0
 48 53  1  0  0  0  0
 49 50  1  0  0  0  0
 50 53  2  0  0  0  0
 51 49  2  0  0  0  0
 51 52  1  0  0  0  0
 52 48  2  0  0  0  0
 54 55  1  0  0  0  0
 55 56  1  0  0  0  0
 56 60  1  1  0  0  0
 57 52  1  1  0  0  0
 57 56  1  0  0  0  0
 58 61  1  6  0  0  0
 58 54  1  0  0  0  0
 58 57  1  0  0  0  0
 60 59  1  0  0  0  0
 62 61  1  0  0  0  0
M  END
>  <MODEL>
6

>  <REMARK>
 VINA RESULT:      -5.0      4.949     10.259
  Name = 
  14 active torsions:
  status: ('A' for Active; 'I' for Inactive)
    1  A    between atoms: P_1  and  O_6
    2  A    between atoms: P_1  and  C_60
    3  A    between atoms: O_6  and  C_15
    4  A    between atoms: C_8  and  C_10
    5  A    between atoms: C_9  and  C_11
    6  A    between atoms: C_11  and  C_14
    7  A    between atoms: C_18  and  C_26
    8  A    between atoms: O_29  and  C_44
    9  A    between atoms: O_29  and  C_61
   10  A    between atoms: C_30  and  C_55
   11  A    between atoms: C_36  and  N_49
   12  A    between atoms: C_43  and  C_47
   13  A    between atoms: C_44  and  C_60
   14  A    between atoms: C_57  and  C_58
                            x       y       z     vdW  Elec       q    Type
                         _______ _______ _______ _____ _____    ______ ____

>  <TORSDO>
F 14

$$$$
=
 OpenBabel10232410103D

 62 70  0  0  1  0  0  0  0  0999 V2000
  185.3540  178.4700  138.9110 C   0  0  0  0  0  0  0  0  0  0  0  0
  183.2770  178.5040  140.7930 C   0  0  0  0  0  0  0  0  0  0  0  0
  186.2750  178.0530  144.9150 C   0  0  0  0  0  0  0  0  0  0  0  0
  189.3230  179.2560  139.6520 O   0  0  0  0  0  0  0  0  0  0  0  0
  186.0460  178.1980  143.6300 C   0  0  0  0  0  0  0  0  0  0  0  0
  187.1880  176.9860  145.4460 C   0  0  1  0  0  3  0  0  0  0  0  0
  184.4330  176.8160  137.6920 N   0  0  0  0  0  0  0  0  0  0  0  0
  187.7370  178.0310  141.7460 C   0  0  0  0  0  0  0  0  0  0  0  0
  187.2940  176.1390  143.1820 O   0  0  0  0  0  0  0  0  0  0  0  0
  186.3860  178.0030  138.0020 C   0  0  0  0  0  0  0  0  0  0  0  0
  185.5040  179.1280  140.0130 N   0  0  0  0  0  0  0  0  0  0  0  0
  182.9960  177.7160  139.5180 C   0  0  0  0  0  3  0  0  0  0  0  0
  187.8500  178.3500  138.0100 C   0  0  0  0  0  2  0  0  0  0  0  0
  184.4550  179.1640  140.9980 C   0  0  0  0  0  0  0  0  0  0  0  0
  188.3930  178.4430  139.4010 C   0  0  0  0  0  0  0  0  0  0  0  0
  187.8410  177.6410  140.4070 O   0  0  0  0  0  0  0  0  0  0  0  0
  184.7350  179.9350  142.2550 C   0  0  0  0  0  2  0  0  0  0  0  0
  184.9360  179.0700  143.4140 N   0  0  0  0  0  0  0  0  0  0  0  0
  188.4430  178.9630  142.2140 O   0  0  0  0  0  0  0  0  0  0  0  0
  184.4820  179.4920  144.7360 C   0  0  0  0  0  3  0  0  0  0  0  0
  188.0830  176.4740  144.3100 C   0  0  0  0  0  2  0  0  0  0  0  0
  185.3260  178.7740  145.6900 N   0  0  0  0  0  0  0  0  0  0  0  0
  184.2060  177.6650  138.6410 C   0  0  1  0  0  3  0  0  0  0  0  0
  185.8000  177.0330  137.2920 C   0  0  0  0  0  0  0  0  0  0  0  0
  186.7410  177.3190  142.6090 C   0  0  1  0  0  3  0  0  0  0  0  0
  188.4640  177.3050  149.0540 C   0  0  0  0  0  2  0  0  0  0  0  0
  187.9940  177.4390  146.6270 C   0  0  0  0  0  0  0  0  0  0  0  0
  189.0500  178.7130  148.9420 C   0  0  0  0  0  2  0  0  0  0  0  0
  187.6440  176.9790  147.8360 C   0  0  0  0  0  3  0  0  0  0  0  0
  189.6970  178.9060  147.5980 C   0  0  0  0  0  3  0  0  0  0  0  0
  189.1740  178.3410  146.4950 C   0  0  0  0  0  0  0  0  0  0  0  0
  189.7310  178.5830  145.2330 O   0  0  0  0  0  0  0  0  0  0  0  0
  190.9090  177.9260  144.7770 C   0  0  0  0  0  2  0  0  0  0  0  0
  191.0230  178.0630  143.2720 C   0  0  0  0  0  2  0  0  0  0  0  0
  191.5800  176.4960  142.5450 P   0  0  2  0  0  0  0  0  0  0  0  0
  190.4410  175.8880  141.7530 O   0  0  0  0  0  0  0  0  0  0  0  0
  192.0470  175.4330  143.7740 O   0  0  0  0  0  1  0  0  0  0  0  0
  192.9010  176.8090  141.5270 O   0  0  0  0  0  0  0  0  0  0  0  0
  192.3900  177.5560  140.4640 C   0  0  2  0  0  3  0  0  0  0  0  0
  192.6370  176.8560  139.2090 C   0  0  0  0  0  2  0  0  0  0  0  0
  193.5020  177.9790  139.6020 N   0  0  0  0  0  2  0  0  0  0  0  0
  181.3930  178.5490  142.5840 N   0  0  0  0  0  0  0  0  0  0  0  0
  182.2310  178.5290  141.7860 C   0  0  0  0  0  0  0  0  0  0  0  0
  187.3240  175.1620  136.8910 C   0  0  0  0  0  3  0  0  0  0  0  0
  186.5330  176.1150  136.4130 C   0  0  0  0  0  3  0  0  0  0  0  0
  188.1420  174.3350  135.9890 C   0  0  0  0  0  0  0  0  0  0  0  0
  189.2470  174.7780  135.5710 O   0  0  0  0  0  0  0  0  0  0  0  0
  186.8720  170.3730  134.9680 C   0  0  0  0  0  3  0  0  0  0  0  0
  187.7230  172.9690  135.6210 C   0  0  0  0  0  0  0  0  0  0  0  0
  188.6580  171.9340  135.4810 C   0  0  0  0  0  3  0  0  0  0  0  0
  186.3630  172.6930  135.4220 C   0  0  0  0  0  3  0  0  0  0  0  0
  185.9270  171.3970  135.1080 C   0  0  0  0  0  0  0  0  0  0  0  0
  188.2330  170.6400  135.1560 C   0  0  0  0  0  3  0  0  0  0  0  0
  182.9690  170.0130  136.5240 C   0  0  0  0  0  2  0  0  0  0  0  0
  182.0510  171.4890  136.0270 S   0  0  0  0  0  0  0  0  0  0  0  0
  183.5990  172.2170  135.4250 C   0  0  1  0  0  3  0  0  0  0  0  0
  184.4720  171.1010  134.8680 C   0  0  2  0  0  3  0  0  0  0  0  0
  184.0450  169.7650  135.4860 C   0  0  2  0  0  3  0  0  0  0  0  0
  181.9060  173.5260  134.4900 C   0  0  0  0  0  1  0  0  0  0  0  0
  183.3120  173.1800  134.3740 N   0  0  0  0  0  2  0  0  0  0  0  0
  183.5280  168.8090  134.4180 C   0  0  0  0  0  2  0  0  0  0  0  0
  182.1800  168.3790  134.7510 N   0  0  0  0  0  1  0  0  0  0  0  0
  1 11  1  0  0  0  0
  2 14  1  0  0  0  0
  2 43  1  0  0  0  0
  3  6  1  0  0  0  0
  3 22  1  0  0  0  0
  5  3  2  0  0  0  0
  6 27  1  1  0  0  0
  7 23  1  0  0  0  0
  8 19  2  0  0  0  0
  9 21  1  0  0  0  0
 10 13  1  0  0  0  0
 10  1  2  0  0  0  0
 11 14  2  0  0  0  0
 12  2  2  0  0  0  0
 13 15  1  0  0  0  0
 14 17  1  0  0  0  0
 15  4  2  0  0  0  0
 15 16  1  0  0  0  0
 16  8  1  0  0  0  0
 17 18  1  0  0  0  0
 18  5  1  0  0  0  0
 18 20  1  0  0  0  0
 20 22  2  0  0  0  0
 21  6  1  0  0  0  0
 23  1  1  0  0  0  0
 23 12  1  1  0  0  0
 24  7  2  0  0  0  0
 24 10  1  0  0  0  0
 25  8  1  1  0  0  0
 25  9  1  0  0  0  0
 25  5  1  0  0  0  0
 27 29  2  0  0  0  0
 28 26  1  0  0  0  0
 29 26  1  0  0  0  0
 30 28  1  0  0  0  0
 31 27  1  0  0  0  0
 31 30  2  0  0  0  0
 32 31  1  0  0  0  0
 33 32  1  0  0  0  0
 34 33  1  0  0  0  0
 35 36  2  6  0  0  0
 35 34  1  0  0  0  0
 35 37  1  0  0  0  0
 38 35  1  0  0  0  0
 39 38  1  1  0  0  0
 40 41  1  0  0  0  0
 40 39  1  0  0  0  0
 41 39  1  0  0  0  0
 43 42  3  0  0  0  0
 45 44  2  0  0  0  0
 45 24  1  0  0  0  0
 46 44  1  0  0  0  0
 47 46  2  0  0  0  0
 48 52  2  0  0  0  0
 48 53  1  0  0  0  0
 49 46  1  0  0  0  0
 50 49  1  0  0  0  0
 51 49  2  0  0  0  0
 52 51  1  0  0  0  0
 53 50  2  0  0  0  0
 55 54  1  0  0  0  0
 56 60  1  6  0  0  0
 56 55  1  0  0  0  0
 57 52  1  1  0  0  0
 57 56  1  0  0  0  0
 57 58  1  0  0  0  0
 58 61  1  6  0  0  0
 58 54  1  0  0  0  0
 60 59  1  0  0  0  0
 61 62  1  0  0  0  0
M  END
>  <MODEL>
7

>  <REMARK>
 VINA RESULT:      -4.9      4.611      8.269
  Name = 
  14 active torsions:
  status: ('A' for Active; 'I' for Inactive)
    1  A    between atoms: P_1  and  O_6
    2  A    between atoms: P_1  and  C_60
    3  A    between atoms: O_6  and  C_15
    4  A    between atoms: C_8  and  C_10
    5  A    between atoms: C_9  and  C_11
    6  A    between atoms: C_11  and  C_14
    7  A    between atoms: C_18  and  C_26
    8  A    between atoms: O_29  and  C_44
    9  A    between atoms: O_29  and  C_61
   10  A    between atoms: C_30  and  C_55
   11  A    between atoms: C_36  and  N_49
   12  A    between atoms: C_43  and  C_47
   13  A    between atoms: C_44  and  C_60
   14  A    between atoms: C_57  and  C_58
                            x       y       z     vdW  Elec       q    Type
                         _______ _______ _______ _____ _____    ______ ____

>  <TORSDO>
F 14

$$$$
