=
 OpenBabel10232411333D

 27 30  0  0  1  0  0  0  0  0999 V2000
  187.7100  177.3520  144.0270 N   0  0  0  0  0  0  0  0  0  0  0  0
  187.9040  177.5380  146.4950 C   0  0  0  0  0  3  0  0  0  0  0  0
  187.4090  177.9420  147.7330 C   0  0  0  0  0  0  0  0  0  0  0  0
  185.5360  177.7920  143.0220 C   0  0  1  0  0  3  0  0  0  0  0  0
  182.5700  178.8860  142.1190 C   0  0  0  0  0  2  0  0  0  0  0  0
  183.0810  179.8020  143.2340 C   0  0  0  0  0  2  0  0  0  0  0  0
  187.1930  177.8060  145.3090 C   0  0  0  0  0  0  0  0  0  0  0  0
  187.0440  177.8150  142.7980 C   0  0  0  0  0  2  0  0  0  0  0  0
  185.1920  178.8090  144.1310 C   0  0  2  0  0  3  0  0  0  0  0  0
  185.9430  178.4580  145.3960 C   0  0  0  0  0  0  0  0  0  0  0  0
  188.1940  177.7020  148.9710 C   0  0  0  0  0  1  0  0  0  0  0  0
  185.4490  178.8580  146.6460 C   0  0  0  0  0  3  0  0  0  0  0  0
  183.3710  177.6680  141.9530 N   0  0  0  0  0  2  0  0  0  0  0  0
  184.7690  178.0220  141.7180 C   0  0  0  0  0  2  0  0  0  0  0  0
  183.6850  179.0010  144.3790 C   0  0  0  0  0  2  0  0  0  0  0  0
  186.1640  178.5790  147.8150 C   0  0  0  0  0  3  0  0  0  0  0  0
  190.0690  177.8090  144.4070 C   0  0  0  0  0  0  0  0  0  0  0  0
  190.7220  178.6770  143.4130 C   0  0  0  0  0  0  0  0  0  0  0  0
  190.1250  177.0780  141.6980 C   0  0  0  0  0  0  0  0  0  0  0  0
  189.0670  176.7920  143.9320 C   0  0  2  0  0  3  0  0  0  0  0  0
  190.3250  177.9270  145.6340 O   0  0  0  0  0  0  0  0  0  0  0  0
  189.3830  176.3320  142.5290 C   0  0  0  0  0  3  0  0  0  0  0  0
  190.7300  178.3080  142.1640 N   0  0  0  0  0  0  0  0  0  0  0  0
  191.3780  179.8070  143.7940 F   0  0  0  0  0  0  0  0  0  0  0  0
  190.3770  176.6270  140.2800 C   0  0  1  0  0  3  0  0  0  0  0  0
  189.3020  177.0060  139.4670 O   0  0  0  0  0  1  0  0  0  0  0  0
  191.6560  177.2320  139.7160 C   0  0  0  0  0  1  0  0  0  0  0  0
  1  7  1  0  0  0  0
  2  3  1  0  0  0  0
  3 16  2  0  0  0  0
  3 11  1  0  0  0  0
  4 14  1  6  0  0  0
  4  9  1  0  0  0  0
  5  6  1  0  0  0  0
  6 15  1  0  0  0  0
  7 10  1  0  0  0  0
  7  2  2  0  0  0  0
  8  4  1  0  0  0  0
  8  1  1  0  0  0  0
  9 15  1  1  0  0  0
  9 10  1  0  0  0  0
 10 12  2  0  0  0  0
 12 16  1  0  0  0  0
 13  5  1  0  0  0  0
 14 13  1  0  0  0  0
 17 21  2  0  0  0  0
 18 24  1  0  0  0  0
 18 17  1  0  0  0  0
 19 23  1  0  0  0  0
 19 22  2  0  0  0  0
 20 22  1  6  0  0  0
 20  1  1  0  0  0  0
 20 17  1  0  0  0  0
 23 18  2  0  0  0  0
 25 27  1  6  0  0  0
 25 19  1  0  0  0  0
 26 25  1  0  0  0  0
M  END
>  <MODEL>
1

>  <REMARK>
 VINA RESULT:      -9.0      0.000      0.000
  Name = 
  2 active torsions:
  status: ('A' for Active; 'I' for Inactive)
    1  A    between atoms: N_1  and  C_17
    2  A    between atoms: C_4  and  C_16
                            x       y       z     vdW  Elec       q    Type
                         _______ _______ _______ _____ _____    ______ ____

>  <TORSDO>
F 2

$$$$
=
 OpenBabel10232411333D

 27 30  0  0  1  0  0  0  0  0999 V2000
  188.3230  177.9030  140.1140 N   0  0  0  0  0  0  0  0  0  0  0  0
  189.9170  177.0120  141.7940 C   0  0  0  0  0  3  0  0  0  0  0  0
  190.2510  176.6750  143.1050 C   0  0  0  0  0  0  0  0  0  0  0  0
  185.9950  178.1580  140.7790 C   0  0  1  0  0  3  0  0  0  0  0  0
  183.1140  178.7190  142.2620 C   0  0  0  0  0  2  0  0  0  0  0  0
  184.2230  179.1390  143.2310 C   0  0  0  0  0  2  0  0  0  0  0  0
  188.6660  177.5830  141.4910 C   0  0  0  0  0  0  0  0  0  0  0  0
  187.0950  178.6720  139.8570 C   0  0  0  0  0  2  0  0  0  0  0  0
  186.4080  178.4430  142.2400 C   0  0  2  0  0  3  0  0  0  0  0  0
  187.7330  177.7750  142.5330 C   0  0  0  0  0  0  0  0  0  0  0  0
  191.5930  176.1230  143.4200 C   0  0  0  0  0  1  0  0  0  0  0  0
  188.0750  177.4300  143.8490 C   0  0  0  0  0  3  0  0  0  0  0  0
  183.6070  177.9610  141.1060 N   0  0  0  0  0  2  0  0  0  0  0  0
  184.6290  178.7350  140.4040 C   0  0  0  0  0  2  0  0  0  0  0  0
  185.3350  178.1010  143.2870 C   0  0  0  0  0  2  0  0  0  0  0  0
  189.3190  176.8570  144.1340 C   0  0  0  0  0  3  0  0  0  0  0  0
  188.9050  178.6280  137.8650 C   0  0  0  0  0  0  0  0  0  0  0  0
  188.2010  177.9430  136.7690 C   0  0  0  0  0  0  0  0  0  0  0  0
  189.1020  175.8440  137.5660 C   0  0  0  0  0  0  0  0  0  0  0  0
  189.3450  177.8220  139.0570 C   0  0  2  0  0  3  0  0  0  0  0  0
  189.1190  179.8680  137.8210 O   0  0  0  0  0  0  0  0  0  0  0  0
  189.6320  176.3910  138.6700 C   0  0  0  0  0  3  0  0  0  0  0  0
  188.3130  176.6510  136.6590 N   0  0  0  0  0  0  0  0  0  0  0  0
  187.5080  178.6490  135.8340 F   0  0  0  0  0  0  0  0  0  0  0  0
  189.3540  174.3940  137.2310 C   0  0  1  0  0  3  0  0  0  0  0  0
  188.5860  174.0280  136.1190 O   0  0  0  0  0  1  0  0  0  0  0  0
  190.8220  174.1350  136.9200 C   0  0  0  0  0  1  0  0  0  0  0  0
  1  7  1  0  0  0  0
  2  3  1  0  0  0  0
  3 11  1  0  0  0  0
  3 16  2  0  0  0  0
  4  8  1  6  0  0  0
  4  9  1  0  0  0  0
  5  6  1  0  0  0  0
  6 15  1  0  0  0  0
  7  2  2  0  0  0  0
  7 10  1  0  0  0  0
  8  1  1  0  0  0  0
  9 10  1  0  0  0  0
  9 15  1  1  0  0  0
 10 12  2  0  0  0  0
 12 16  1  0  0  0  0
 13  5  1  0  0  0  0
 14  4  1  0  0  0  0
 14 13  1  0  0  0  0
 17 20  1  0  0  0  0
 18 17  1  0  0  0  0
 19 22  2  0  0  0  0
 20 22  1  6  0  0  0
 20  1  1  0  0  0  0
 21 17  2  0  0  0  0
 23 18  2  0  0  0  0
 23 19  1  0  0  0  0
 24 18  1  0  0  0  0
 25 27  1  6  0  0  0
 25 19  1  0  0  0  0
 26 25  1  0  0  0  0
M  END
>  <MODEL>
2

>  <REMARK>
 VINA RESULT:      -8.4      3.313      4.770
  Name = 
  2 active torsions:
  status: ('A' for Active; 'I' for Inactive)
    1  A    between atoms: N_1  and  C_17
    2  A    between atoms: C_4  and  C_16
                            x       y       z     vdW  Elec       q    Type
                         _______ _______ _______ _____ _____    ______ ____

>  <TORSDO>
F 2

$$$$
=
 OpenBabel10232411333D

 27 30  0  0  1  0  0  0  0  0999 V2000
  189.0440  177.2010  138.6680 N   0  0  0  0  0  0  0  0  0  0  0  0
  191.3070  176.7130  137.7730 C   0  0  0  0  0  3  0  0  0  0  0  0
  192.6850  176.5870  137.9370 C   0  0  0  0  0  0  0  0  0  0  0  0
  188.7710  177.2870  141.0860 C   0  0  1  0  0  3  0  0  0  0  0  0
  189.0010  177.7190  144.3370 C   0  0  0  0  0  2  0  0  0  0  0  0
  190.2250  178.3790  143.6960 C   0  0  0  0  0  2  0  0  0  0  0  0
  190.4840  177.1020  138.8480 C   0  0  0  0  0  0  0  0  0  0  0  0
  188.2400  177.7930  139.7500 C   0  0  0  0  0  2  0  0  0  0  0  0
  190.2160  177.8010  141.2640 C   0  0  2  0  0  3  0  0  0  0  0  0
  191.0720  177.3250  140.1120 C   0  0  0  0  0  0  0  0  0  0  0  0
  193.5490  176.2300  136.7830 C   0  0  0  0  0  1  0  0  0  0  0  0
  192.4600  177.1920  140.2700 C   0  0  0  0  0  3  0  0  0  0  0  0
  188.2400  176.8760  143.4080 N   0  0  0  0  0  2  0  0  0  0  0  0
  187.8400  177.6590  142.2410 C   0  0  0  0  0  2  0  0  0  0  0  0
  190.8450  177.4830  142.6320 C   0  0  0  0  0  2  0  0  0  0  0  0
  193.2630  176.7990  139.1940 C   0  0  0  0  0  3  0  0  0  0  0  0
  187.2600  178.0030  137.2200 C   0  0  0  0  0  0  0  0  0  0  0  0
  185.9230  177.4450  137.4790 C   0  0  0  0  0  0  0  0  0  0  0  0
  186.8220  175.2350  137.0760 C   0  0  0  0  0  0  0  0  0  0  0  0
  188.4560  177.0960  137.3230 C   0  0  2  0  0  3  0  0  0  0  0  0
  187.4080  179.2210  136.9370 O   0  0  0  0  0  0  0  0  0  0  0  0
  188.0870  175.6700  136.9870 C   0  0  0  0  0  3  0  0  0  0  0  0
  185.7550  176.1560  137.4050 N   0  0  0  0  0  0  0  0  0  0  0  0
  184.8590  178.2590  137.7150 F   0  0  0  0  0  0  0  0  0  0  0  0
  186.4850  173.7910  136.7950 C   0  0  1  0  0  3  0  0  0  0  0  0
  187.6120  172.9910  137.0240 O   0  0  0  0  0  1  0  0  0  0  0  0
  185.3450  173.2970  137.6750 C   0  0  0  0  0  1  0  0  0  0  0  0
  1  7  1  0  0  0  0
  1  8  1  0  0  0  0
  2  3  2  0  0  0  0
  2  7  1  0  0  0  0
  3 16  1  0  0  0  0
  4  8  1  6  0  0  0
  4  9  1  0  0  0  0
  4 14  1  0  0  0  0
  6  5  1  0  0  0  0
  7 10  2  0  0  0  0
  9 15  1  1  0  0  0
 10 12  1  0  0  0  0
 10  9  1  0  0  0  0
 11  3  1  0  0  0  0
 13  5  1  0  0  0  0
 14 13  1  0  0  0  0
 15  6  1  0  0  0  0
 16 12  2  0  0  0  0
 17 20  1  0  0  0  0
 17 18  1  0  0  0  0
 18 24  1  0  0  0  0
 19 23  1  0  0  0  0
 20 22  1  1  0  0  0
 20  1  1  0  0  0  0
 21 17  2  0  0  0  0
 22 19  2  0  0  0  0
 23 18  2  0  0  0  0
 25 26  1  0  0  0  0
 25 19  1  0  0  0  0
 25 27  1  1  0  0  0
M  END
>  <MODEL>
3

>  <REMARK>
 VINA RESULT:      -8.4      4.014      7.645
  Name = 
  2 active torsions:
  status: ('A' for Active; 'I' for Inactive)
    1  A    between atoms: N_1  and  C_17
    2  A    between atoms: C_4  and  C_16
                            x       y       z     vdW  Elec       q    Type
                         _______ _______ _______ _____ _____    ______ ____

>  <TORSDO>
F 2

$$$$
=
 OpenBabel10232411333D

 27 30  0  0  1  0  0  0  0  0999 V2000
  188.3620  176.8240  143.8340 N   0  0  0  0  0  0  0  0  0  0  0  0
  186.2620  177.6870  142.8300 C   0  0  0  0  0  3  0  0  0  0  0  0
  185.0270  178.3230  142.9380 C   0  0  0  0  0  0  0  0  0  0  0  0
  188.9210  177.5420  146.0920 C   0  0  1  0  0  3  0  0  0  0  0  0
  189.0140  178.4350  149.2550 C   0  0  0  0  0  2  0  0  0  0  0  0
  187.5700  178.0430  148.9280 C   0  0  0  0  0  2  0  0  0  0  0  0
  187.0620  177.4640  143.9680 C   0  0  0  0  0  0  0  0  0  0  0  0
  189.0810  176.4340  145.0580 C   0  0  0  0  0  2  0  0  0  0  0  0
  187.4260  177.6510  146.4640 C   0  0  2  0  0  3  0  0  0  0  0  0
  186.6120  177.9330  145.2210 C   0  0  0  0  0  0  0  0  0  0  0  0
  184.1680  178.5030  141.7400 C   0  0  0  0  0  1  0  0  0  0  0  0
  185.3690  178.5760  145.3210 C   0  0  0  0  0  3  0  0  0  0  0  0
  189.8650  178.5670  148.0680 N   0  0  0  0  0  2  0  0  0  0  0  0
  189.8390  177.3270  147.2970 C   0  0  0  0  0  2  0  0  0  0  0  0
  187.1200  178.6400  147.6020 C   0  0  0  0  0  2  0  0  0  0  0  0
  184.5890  178.7960  144.1810 C   0  0  0  0  0  3  0  0  0  0  0  0
  190.2550  176.0240  142.5310 C   0  0  0  0  0  0  0  0  0  0  0  0
  191.1000  177.0650  141.9240 C   0  0  0  0  0  0  0  0  0  0  0  0
  189.1560  177.8830  140.7380 C   0  0  0  0  0  0  0  0  0  0  0  0
  188.7640  176.2240  142.5520 C   0  0  2  0  0  3  0  0  0  0  0  0
  190.7670  174.9950  143.0450 O   0  0  0  0  0  0  0  0  0  0  0  0
  188.3110  177.0610  141.3800 C   0  0  0  0  0  3  0  0  0  0  0  0
  190.5580  177.9120  141.0970 N   0  0  0  0  0  0  0  0  0  0  0  0
  192.4410  177.1000  142.1540 F   0  0  0  0  0  0  0  0  0  0  0  0
  188.6680  178.7560  139.6090 C   0  0  1  0  0  3  0  0  0  0  0  0
  189.5500  178.6610  138.5250 O   0  0  0  0  0  1  0  0  0  0  0  0
  187.2750  178.3510  139.1450 C   0  0  0  0  0  1  0  0  0  0  0  0
  1  7  1  0  0  0  0
  1  8  1  0  0  0  0
  2  3  2  0  0  0  0
  2  7  1  0  0  0  0
  3 16  1  0  0  0  0
  4  8  1  6  0  0  0
  4  9  1  0  0  0  0
  4 14  1  0  0  0  0
  6  5  1  0  0  0  0
  7 10  2  0  0  0  0
  9 15  1  1  0  0  0
 10 12  1  0  0  0  0
 10  9  1  0  0  0  0
 11  3  1  0  0  0  0
 13  5  1  0  0  0  0
 14 13  1  0  0  0  0
 15  6  1  0  0  0  0
 16 12  2  0  0  0  0
 17 20  1  0  0  0  0
 17 21  2  0  0  0  0
 18 24  1  0  0  0  0
 18 17  1  0  0  0  0
 19 23  1  0  0  0  0
 19 22  2  0  0  0  0
 20 22  1  6  0  0  0
 20  1  1  0  0  0  0
 23 18  2  0  0  0  0
 25 27  1  6  0  0  0
 25 19  1  0  0  0  0
 26 25  1  0  0  0  0
M  END
>  <MODEL>
4

>  <REMARK>
 VINA RESULT:      -8.4      1.900      4.583
  Name = 
  2 active torsions:
  status: ('A' for Active; 'I' for Inactive)
    1  A    between atoms: N_1  and  C_17
    2  A    between atoms: C_4  and  C_16
                            x       y       z     vdW  Elec       q    Type
                         _______ _______ _______ _____ _____    ______ ____

>  <TORSDO>
F 2

$$$$
=
 OpenBabel10232411333D

 27 30  0  0  1  0  0  0  0  0999 V2000
  186.3490  178.6500  141.0710 N   0  0  0  0  0  0  0  0  0  0  0  0
  186.0410  178.7870  143.5300 C   0  0  0  0  0  3  0  0  0  0  0  0
  185.2260  178.8380  144.6590 C   0  0  0  0  0  0  0  0  0  0  0  0
  184.4250  178.0220  139.7170 C   0  0  1  0  0  3  0  0  0  0  0  0
  181.4850  177.5730  138.3170 C   0  0  0  0  0  2  0  0  0  0  0  0
  181.3010  178.5670  139.4670 C   0  0  0  0  0  2  0  0  0  0  0  0
  185.4840  178.7310  142.2370 C   0  0  0  0  0  0  0  0  0  0  0  0
  185.7430  178.7880  139.7360 C   0  0  0  0  0  2  0  0  0  0  0  0
  183.4590  178.6870  140.7220 C   0  0  2  0  0  3  0  0  0  0  0  0
  184.0790  178.6860  142.1010 C   0  0  0  0  0  0  0  0  0  0  0  0
  185.8240  178.9520  146.0130 C   0  0  0  0  0  1  0  0  0  0  0  0
  183.2650  178.7340  143.2430 C   0  0  0  0  0  3  0  0  0  0  0  0
  182.7940  176.9100  138.3220 N   0  0  0  0  0  2  0  0  0  0  0  0
  183.8570  177.9120  138.3010 C   0  0  0  0  0  2  0  0  0  0  0  0
  182.0340  178.1070  140.7200 C   0  0  0  0  0  2  0  0  0  0  0  0
  183.8340  178.7830  144.5200 C   0  0  0  0  0  3  0  0  0  0  0  0
  188.4940  178.3790  139.9530 C   0  0  0  0  0  0  0  0  0  0  0  0
  189.0100  177.0030  139.8820 C   0  0  0  0  0  0  0  0  0  0  0  0
  188.9560  176.9090  142.2990 C   0  0  0  0  0  0  0  0  0  0  0  0
  187.8030  178.8290  141.2130 C   0  0  2  0  0  3  0  0  0  0  0  0
  188.6070  179.1640  138.9740 O   0  0  0  0  0  0  0  0  0  0  0  0
  188.3390  178.0940  142.4180 C   0  0  0  0  0  3  0  0  0  0  0  0
  189.2130  176.3490  140.9890 N   0  0  0  0  0  0  0  0  0  0  0  0
  189.3480  176.4440  138.6880 F   0  0  0  0  0  0  0  0  0  0  0  0
  189.4300  176.1640  143.5220 C   0  0  1  0  0  3  0  0  0  0  0  0
  190.7690  175.7880  143.3570 O   0  0  0  0  0  1  0  0  0  0  0  0
  189.3100  177.0130  144.7810 C   0  0  0  0  0  1  0  0  0  0  0  0
  1  7  1  0  0  0  0
  2  3  1  0  0  0  0
  3 11  1  0  0  0  0
  4 14  1  6  0  0  0
  4  8  1  0  0  0  0
  4  9  1  0  0  0  0
  5 13  1  0  0  0  0
  5  6  1  0  0  0  0
  6 15  1  0  0  0  0
  7  2  2  0  0  0  0
  8  1  1  0  0  0  0
  9 15  1  1  0  0  0
  9 10  1  0  0  0  0
 10  7  1  0  0  0  0
 10 12  2  0  0  0  0
 12 16  1  0  0  0  0
 14 13  1  0  0  0  0
 16  3  2  0  0  0  0
 17 20  1  0  0  0  0
 18 17  1  0  0  0  0
 18 23  2  0  0  0  0
 19 22  2  0  0  0  0
 19 25  1  0  0  0  0
 20  1  1  6  0  0  0
 20 22  1  0  0  0  0
 21 17  2  0  0  0  0
 23 19  1  0  0  0  0
 24 18  1  0  0  0  0
 25 27  1  1  0  0  0
 26 25  1  0  0  0  0
M  END
>  <MODEL>
5

>  <REMARK>
 VINA RESULT:      -8.3      2.475      4.107
  Name = 
  2 active torsions:
  status: ('A' for Active; 'I' for Inactive)
    1  A    between atoms: N_1  and  C_17
    2  A    between atoms: C_4  and  C_16
                            x       y       z     vdW  Elec       q    Type
                         _______ _______ _______ _____ _____    ______ ____

>  <TORSDO>
F 2

$$$$
=
 OpenBabel10232411333D

 27 30  0  0  1  0  0  0  0  0999 V2000
  189.2760  177.5740  139.9100 N   0  0  0  0  0  0  0  0  0  0  0  0
  186.9480  178.4090  139.7090 C   0  0  0  0  0  3  0  0  0  0  0  0
  185.7320  178.7880  140.2740 C   0  0  0  0  0  0  0  0  0  0  0  0
  190.2970  177.5760  142.1210 C   0  0  1  0  0  3  0  0  0  0  0  0
  191.0650  177.3740  145.3110 C   0  0  0  0  0  2  0  0  0  0  0  0
  189.6150  176.9090  145.1540 C   0  0  0  0  0  2  0  0  0  0  0  0
  188.0040  177.9400  140.5130 C   0  0  0  0  0  0  0  0  0  0  0  0
  190.2860  176.9090  140.7500 C   0  0  0  0  0  2  0  0  0  0  0  0
  188.9270  177.3390  142.7910 C   0  0  2  0  0  3  0  0  0  0  0  0
  187.8280  177.8970  141.9140 C   0  0  0  0  0  0  0  0  0  0  0  0
  184.6070  179.2300  139.4110 C   0  0  0  0  0  1  0  0  0  0  0  0
  186.6020  178.2840  142.4760 C   0  0  0  0  0  3  0  0  0  0  0  0
  191.6050  178.0130  144.1060 N   0  0  0  0  0  2  0  0  0  0  0  0
  191.4830  177.1080  142.9660 C   0  0  0  0  0  2  0  0  0  0  0  0
  188.8280  177.8400  144.2420 C   0  0  0  0  0  2  0  0  0  0  0  0
  185.5650  178.7540  141.6640 C   0  0  0  0  0  3  0  0  0  0  0  0
  188.7470  176.2430  137.9430 C   0  0  0  0  0  0  0  0  0  0  0  0
  189.5730  175.0410  137.7420 C   0  0  0  0  0  0  0  0  0  0  0  0
  191.5330  176.4580  137.6750 C   0  0  0  0  0  0  0  0  0  0  0  0
  189.4080  177.4980  138.4460 C   0  0  2  0  0  3  0  0  0  0  0  0
  187.5080  176.2200  137.7210 O   0  0  0  0  0  0  0  0  0  0  0  0
  190.8530  177.5630  138.0130 C   0  0  0  0  0  3  0  0  0  0  0  0
  190.8620  175.1760  137.6220 N   0  0  0  0  0  0  0  0  0  0  0  0
  189.0000  173.8140  137.6030 F   0  0  0  0  0  0  0  0  0  0  0  0
  192.9930  176.5380  137.3030 C   0  0  1  0  0  3  0  0  0  0  0  0
  193.7770  176.5020  138.4640 O   0  0  0  0  0  1  0  0  0  0  0  0
  193.4080  175.3890  136.3940 C   0  0  0  0  0  1  0  0  0  0  0  0
  1  7  1  0  0  0  0
  1  8  1  0  0  0  0
  2  3  2  0  0  0  0
  2  7  1  0  0  0  0
  3 16  1  0  0  0  0
  4  8  1  6  0  0  0
  4  9  1  0  0  0  0
  4 14  1  0  0  0  0
  6  5  1  0  0  0  0
  7 10  2  0  0  0  0
  9 15  1  1  0  0  0
 10 12  1  0  0  0  0
 10  9  1  0  0  0  0
 11  3  1  0  0  0  0
 13  5  1  0  0  0  0
 14 13  1  0  0  0  0
 15  6  1  0  0  0  0
 16 12  2  0  0  0  0
 17 20  1  0  0  0  0
 18 17  1  0  0  0  0
 19 22  2  0  0  0  0
 20 22  1  1  0  0  0
 20  1  1  0  0  0  0
 21 17  2  0  0  0  0
 23 19  1  0  0  0  0
 23 18  2  0  0  0  0
 24 18  1  0  0  0  0
 25 27  1  6  0  0  0
 25 19  1  0  0  0  0
 25 26  1  0  0  0  0
M  END
>  <MODEL>
6

>  <REMARK>
 VINA RESULT:      -8.2      3.585      6.320
  Name = 
  2 active torsions:
  status: ('A' for Active; 'I' for Inactive)
    1  A    between atoms: N_1  and  C_17
    2  A    between atoms: C_4  and  C_16
                            x       y       z     vdW  Elec       q    Type
                         _______ _______ _______ _____ _____    ______ ____

>  <TORSDO>
F 2

$$$$
=
 OpenBabel10232411333D

 27 30  0  0  1  0  0  0  0  0999 V2000
  187.2460  178.6330  142.5760 N   0  0  0  0  0  0  0  0  0  0  0  0
  187.7330  178.1270  144.9570 C   0  0  0  0  0  3  0  0  0  0  0  0
  187.3180  177.9010  146.2680 C   0  0  0  0  0  0  0  0  0  0  0  0
  184.9400  178.4330  141.8200 C   0  0  1  0  0  3  0  0  0  0  0  0
  181.6800  178.4430  141.3960 C   0  0  0  0  0  2  0  0  0  0  0  0
  181.9730  179.1050  142.7460 C   0  0  0  0  0  2  0  0  0  0  0  0
  186.8000  178.4270  143.9450 C   0  0  0  0  0  0  0  0  0  0  0  0
  186.2750  179.1320  141.5890 C   0  0  0  0  0  2  0  0  0  0  0  0
  184.4130  178.8360  143.2140 C   0  0  2  0  0  3  0  0  0  0  0  0
  185.4260  178.4560  144.2710 C   0  0  0  0  0  0  0  0  0  0  0  0
  188.3160  177.6400  147.3370 C   0  0  0  0  0  1  0  0  0  0  0  0
  185.0160  178.2240  145.5930 C   0  0  0  0  0  3  0  0  0  0  0  0
  182.8450  177.7690  140.8130 N   0  0  0  0  0  2  0  0  0  0  0  0
  183.9530  178.7120  140.6860 C   0  0  0  0  0  2  0  0  0  0  0  0
  183.0030  178.3140  143.5400 C   0  0  0  0  0  2  0  0  0  0  0  0
  185.9540  177.9210  146.5850 C   0  0  0  0  0  3  0  0  0  0  0  0
  188.9480  178.1780  140.8970 C   0  0  0  0  0  0  0  0  0  0  0  0
  189.3590  176.7710  140.7660 C   0  0  0  0  0  0  0  0  0  0  0  0
  190.0220  176.7990  143.0920 C   0  0  0  0  0  0  0  0  0  0  0  0
  188.6830  178.7290  142.2720 C   0  0  2  0  0  3  0  0  0  0  0  0
  188.7980  178.9060  139.8800 O   0  0  0  0  0  0  0  0  0  0  0  0
  189.5200  178.0230  143.3110 C   0  0  0  0  0  3  0  0  0  0  0  0
  189.8530  176.1610  141.8040 N   0  0  0  0  0  0  0  0  0  0  0  0
  189.3020  176.1350  139.5640 F   0  0  0  0  0  0  0  0  0  0  0  0
  190.8050  176.0860  144.1680 C   0  0  1  0  0  3  0  0  0  0  0  0
  191.9030  175.4310  143.5960 O   0  0  0  0  0  1  0  0  0  0  0  0
  191.3100  177.0530  145.2310 C   0  0  0  0  0  1  0  0  0  0  0  0
  1  7  1  0  0  0  0
  2  3  1  0  0  0  0
  3 16  2  0  0  0  0
  3 11  1  0  0  0  0
  4 14  1  6  0  0  0
  4  9  1  0  0  0  0
  5  6  1  0  0  0  0
  6 15  1  0  0  0  0
  7 10  1  0  0  0  0
  7  2  2  0  0  0  0
  8  4  1  0  0  0  0
  8  1  1  0  0  0  0
  9 15  1  1  0  0  0
  9 10  1  0  0  0  0
 10 12  2  0  0  0  0
 12 16  1  0  0  0  0
 13  5  1  0  0  0  0
 14 13  1  0  0  0  0
 17 20  1  0  0  0  0
 18 17  1  0  0  0  0
 18 23  2  0  0  0  0
 19 22  2  0  0  0  0
 19 25  1  0  0  0  0
 20  1  1  1  0  0  0
 20 22  1  0  0  0  0
 21 17  2  0  0  0  0
 23 19  1  0  0  0  0
 24 18  1  0  0  0  0
 25 27  1  1  0  0  0
 26 25  1  0  0  0  0
M  END
>  <MODEL>
7

>  <REMARK>
 VINA RESULT:      -8.1      1.906      2.880
  Name = 
  2 active torsions:
  status: ('A' for Active; 'I' for Inactive)
    1  A    between atoms: N_1  and  C_17
    2  A    between atoms: C_4  and  C_16
                            x       y       z     vdW  Elec       q    Type
                         _______ _______ _______ _____ _____    ______ ____

>  <TORSDO>
F 2

$$$$
=
 OpenBabel10232411333D

 27 30  0  0  1  0  0  0  0  0999 V2000
  186.7950  178.2300  139.8020 N   0  0  0  0  0  0  0  0  0  0  0  0
  188.7190  177.4860  138.4210 C   0  0  0  0  0  3  0  0  0  0  0  0
  190.0360  177.0490  138.2940 C   0  0  0  0  0  0  0  0  0  0  0  0
  186.9120  177.8620  142.2070 C   0  0  1  0  0  3  0  0  0  0  0  0
  187.7170  177.5490  145.3790 C   0  0  0  0  0  2  0  0  0  0  0  0
  188.9540  178.0630  144.6370 C   0  0  0  0  0  2  0  0  0  0  0  0
  188.1810  177.8020  139.6840 C   0  0  0  0  0  0  0  0  0  0  0  0
  186.3260  178.7350  141.1030 C   0  0  0  0  0  2  0  0  0  0  0  0
  188.4480  178.0210  142.1900 C   0  0  2  0  0  3  0  0  0  0  0  0
  188.9860  177.6300  140.8310 C   0  0  0  0  0  0  0  0  0  0  0  0
  190.6090  176.7710  136.9530 C   0  0  0  0  0  1  0  0  0  0  0  0
  190.3100  177.1850  140.6950 C   0  0  0  0  0  3  0  0  0  0  0  0
  186.6480  177.0930  144.4830 N   0  0  0  0  0  2  0  0  0  0  0  0
  186.2780  178.1670  143.5650 C   0  0  0  0  0  2  0  0  0  0  0  0
  189.1790  177.3020  143.3380 C   0  0  0  0  0  2  0  0  0  0  0  0
  190.8280  176.8700  139.4350 C   0  0  0  0  0  3  0  0  0  0  0  0
  184.6450  179.0310  138.9940 C   0  0  0  0  0  0  0  0  0  0  0  0
  183.5330  178.0700  139.0710 C   0  0  0  0  0  0  0  0  0  0  0  0
  184.8000  176.5650  137.6620 C   0  0  0  0  0  0  0  0  0  0  0  0
  186.0070  178.5310  138.5960 C   0  0  2  0  0  3  0  0  0  0  0  0
  184.4690  180.2460  139.2740 O   0  0  0  0  0  0  0  0  0  0  0  0
  185.9010  177.3290  137.6880 C   0  0  0  0  0  3  0  0  0  0  0  0
  183.6370  176.9350  138.4420 N   0  0  0  0  0  0  0  0  0  0  0  0
  182.3780  178.3860  139.7200 F   0  0  0  0  0  0  0  0  0  0  0  0
  184.7390  175.3340  136.7910 C   0  0  1  0  0  3  0  0  0  0  0  0
  186.0260  175.0100  136.3440 O   0  0  0  0  0  1  0  0  0  0  0  0
  184.1640  174.1410  137.5410 C   0  0  0  0  0  1  0  0  0  0  0  0
  1  8  1  0  0  0  0
  2  7  1  0  0  0  0
  3  2  2  0  0  0  0
  3 16  1  0  0  0  0
  4  8  1  6  0  0  0
  4 14  1  0  0  0  0
  6  5  1  0  0  0  0
  7  1  1  0  0  0  0
  7 10  2  0  0  0  0
  9  4  1  0  0  0  0
  9 15  1  1  0  0  0
 10  9  1  0  0  0  0
 11  3  1  0  0  0  0
 12 10  1  0  0  0  0
 13  5  1  0  0  0  0
 14 13  1  0  0  0  0
 15  6  1  0  0  0  0
 16 12  2  0  0  0  0
 17 18  1  0  0  0  0
 17 21  2  0  0  0  0
 18 24  1  0  0  0  0
 19 22  2  0  0  0  0
 19 23  1  0  0  0  0
 20 22  1  6  0  0  0
 20 17  1  0  0  0  0
 20  1  1  0  0  0  0
 23 18  2  0  0  0  0
 25 27  1  1  0  0  0
 25 19  1  0  0  0  0
 26 25  1  0  0  0  0
M  END
>  <MODEL>
8

>  <REMARK>
 VINA RESULT:      -7.9      3.643      7.073
  Name = 
  2 active torsions:
  status: ('A' for Active; 'I' for Inactive)
    1  A    between atoms: N_1  and  C_17
    2  A    between atoms: C_4  and  C_16
                            x       y       z     vdW  Elec       q    Type
                         _______ _______ _______ _____ _____    ______ ____

>  <TORSDO>
F 2

$$$$
=
 OpenBabel10232411333D

 27 30  0  0  1  0  0  0  0  0999 V2000
  188.2470  178.2250  142.0900 N   0  0  0  0  0  0  0  0  0  0  0  0
  188.6780  178.4040  139.6530 C   0  0  0  0  0  3  0  0  0  0  0  0
  188.2320  178.5080  138.3360 C   0  0  0  0  0  0  0  0  0  0  0  0
  185.9960  178.7050  142.8850 C   0  0  1  0  0  3  0  0  0  0  0  0
  182.7650  179.0180  143.4030 C   0  0  0  0  0  2  0  0  0  0  0  0
  182.9500  178.1800  142.1350 C   0  0  0  0  0  2  0  0  0  0  0  0
  187.7650  178.3050  140.7200 C   0  0  0  0  0  0  0  0  0  0  0  0
  187.2790  177.9280  143.1590 C   0  0  0  0  0  2  0  0  0  0  0  0
  185.3840  178.1870  141.5660 C   0  0  2  0  0  3  0  0  0  0  0  0
  186.3810  178.3530  140.4410 C   0  0  0  0  0  0  0  0  0  0  0  0
  189.2040  178.5580  137.2150 C   0  0  0  0  0  1  0  0  0  0  0  0
  185.9400  178.4620  139.1140 C   0  0  0  0  0  3  0  0  0  0  0  0
  184.0020  179.6560  143.8660 N   0  0  0  0  0  2  0  0  0  0  0  0
  185.0350  178.6440  144.0730 C   0  0  0  0  0  2  0  0  0  0  0  0
  184.0080  178.7830  141.2210 C   0  0  0  0  0  2  0  0  0  0  0  0
  186.8590  178.5670  138.0650 C   0  0  0  0  0  3  0  0  0  0  0  0
  190.0800  176.6240  142.0580 C   0  0  0  0  0  0  0  0  0  0  0  0
  190.0940  175.6440  143.1560 C   0  0  0  0  0  0  0  0  0  0  0  0
  190.2010  177.4790  144.7290 C   0  0  0  0  0  0  0  0  0  0  0  0
  189.6820  178.0440  142.3610 C   0  0  2  0  0  3  0  0  0  0  0  0
  190.3740  176.2820  140.8820 O   0  0  0  0  0  0  0  0  0  0  0  0
  190.0310  178.4140  143.7830 C   0  0  0  0  0  3  0  0  0  0  0  0
  190.1500  176.0740  144.3830 N   0  0  0  0  0  0  0  0  0  0  0  0
  190.1280  174.3070  142.9000 F   0  0  0  0  0  0  0  0  0  0  0  0
  190.4890  177.8740  146.1560 C   0  0  1  0  0  3  0  0  0  0  0  0
  189.2850  178.0320  146.8540 O   0  0  0  0  0  1  0  0  0  0  0  0
  191.3360  176.8290  146.8700 C   0  0  0  0  0  1  0  0  0  0  0  0
  1  8  1  0  0  0  0
  2  7  1  0  0  0  0
  3  2  2  0  0  0  0
  4  8  1  1  0  0  0
  4 14  1  0  0  0  0
  5 13  1  0  0  0  0
  6  5  1  0  0  0  0
  7  1  1  0  0  0  0
  9 15  1  6  0  0  0
  9  4  1  0  0  0  0
 10  7  2  0  0  0  0
 10  9  1  0  0  0  0
 11  3  1  0  0  0  0
 12 10  1  0  0  0  0
 13 14  1  0  0  0  0
 15  6  1  0  0  0  0
 16  3  1  0  0  0  0
 16 12  2  0  0  0  0
 17 20  1  0  0  0  0
 17 18  1  0  0  0  0
 18 23  2  0  0  0  0
 19 25  1  0  0  0  0
 20  1  1  1  0  0  0
 20 22  1  0  0  0  0
 21 17  2  0  0  0  0
 22 19  2  0  0  0  0
 23 19  1  0  0  0  0
 24 18  1  0  0  0  0
 25 26  1  0  0  0  0
 25 27  1  1  0  0  0
M  END
>  <MODEL>
9

>  <REMARK>
 VINA RESULT:      -7.7      2.342      5.331
  Name = 
  2 active torsions:
  status: ('A' for Active; 'I' for Inactive)
    1  A    between atoms: N_1  and  C_17
    2  A    between atoms: C_4  and  C_16
                            x       y       z     vdW  Elec       q    Type
                         _______ _______ _______ _____ _____    ______ ____

>  <TORSDO>
F 2

$$$$
