=
 OpenBabel10232411333D

 27 30  0  0  1  0  0  0  0  0999 V2000
  190.0440  176.9070  145.4530 C   0  0  2  0  0  3  0  0  0  0  0  0
  187.0330  178.1710  147.4240 C   0  0  0  0  0  3  0  0  0  0  0  0
  185.5120  178.2330  144.0610 C   0  0  0  0  0  3  0  0  0  0  0  0
  183.9480  178.9670  145.7010 N   0  0  0  0  0  0  0  0  0  0  0  0
  188.6720  177.4040  145.8000 C   0  0  0  0  0  0  0  0  0  0  0  0
  188.3160  177.7030  147.1260 C   0  0  0  0  0  3  0  0  0  0  0  0
  184.8490  178.7940  146.6730 N   0  0  0  0  0  0  0  0  0  0  0  0
  186.4540  178.0500  145.0690 C   0  0  0  0  0  0  0  0  0  0  0  0
  186.1000  178.3420  146.3990 C   0  0  0  0  0  0  0  0  0  0  0  0
  187.7380  177.5830  144.7730 C   0  0  0  0  0  3  0  0  0  0  0  0
  184.2430  178.6990  144.4000 C   0  0  0  0  0  3  0  0  0  0  0  0
  192.1990  176.4040  146.3720 O   0  0  0  0  0  0  0  0  0  0  0  0
  191.0590  177.2070  146.5580 C   0  0  2  0  0  3  0  0  0  0  0  0
  191.3020  175.9970  147.3750 C   0  0  0  0  0  2  0  0  0  0  0  0
  191.5130  178.4270  144.1770 N   0  0  0  0  0  1  0  0  0  0  0  0
  190.4880  177.3960  144.0690 C   0  0  1  0  0  3  0  0  0  0  0  0
  190.9930  176.2350  143.2260 C   0  0  0  0  0  2  0  0  0  0  0  0
  190.1540  176.0640  142.0510 N   0  0  0  0  0  2  0  0  0  0  0  0
  190.9090  176.4760  140.9420 N   0  0  0  0  0  0  0  0  0  0  0  0
  189.8190  177.7190  139.5390 C   0  0  2  0  0  3  0  0  0  0  0  0
  190.0910  176.2450  139.7590 C   0  0  0  0  0  2  0  0  0  0  0  0
  190.6790  177.9040  140.7780 C   0  0  0  0  0  2  0  0  0  0  0  0
  187.9790  178.5510  140.9510 C   0  0  0  0  0  2  0  0  0  0  0  0
  188.3610  178.0310  139.7830 C   0  0  0  0  0  0  0  0  0  0  0  0
  186.0970  178.5730  138.8120 N   0  0  0  0  0  1  0  0  0  0  0  0
  187.4030  178.0260  138.6550 C   0  0  0  0  0  0  0  0  0  0  0  0
  187.7310  177.5370  137.5400 O   0  0  0  0  0  0  0  0  0  0  0  0
  1 16  1  6  0  0  0
  1  5  1  0  0  0  0
  3 11  2  0  0  0  0
  3  8  1  0  0  0  0
  4  7  2  0  0  0  0
  5  6  2  0  0  0  0
  6  2  1  0  0  0  0
  8  9  1  0  0  0  0
  9  7  1  0  0  0  0
  9  2  2  0  0  0  0
 10  8  2  0  0  0  0
 10  5  1  0  0  0  0
 11  4  1  0  0  0  0
 12 13  1  0  0  0  0
 12 14  1  0  0  0  0
 13  1  1  6  0  0  0
 13 14  1  0  0  0  0
 16 15  1  1  0  0  0
 17 16  1  0  0  0  0
 18 17  1  0  0  0  0
 19 18  1  0  0  0  0
 20 21  1  0  0  0  0
 20 24  1  1  0  0  0
 20 22  1  0  0  0  0
 21 19  1  0  0  0  0
 22 19  1  0  0  0  0
 24 23  2  0  0  0  0
 26 25  1  0  0  0  0
 26 24  1  0  0  0  0
 27 26  2  0  0  0  0
M  END
>  <MODEL>
1

>  <REMARK>
 VINA RESULT:      -8.5      0.000      0.000
  Name = 
  8 active torsions:
  status: ('A' for Active; 'I' for Inactive)
    1  A    between atoms: N_2  and  N_14
    2  A    between atoms: C_3  and  C_13
    3  A    between atoms: C_10  and  C_19
    4  A    between atoms: C_12  and  C_19
    5  A    between atoms: C_13  and  C_20
    6  A    between atoms: N_14  and  C_15
    7  A    between atoms: C_15  and  C_22
    8  A    between atoms: C_19  and  C_22
                            x       y       z     vdW  Elec       q    Type
                         _______ _______ _______ _____ _____    ______ ____

>  <TORSDO>
F 8

$$$$
=
 OpenBabel10232411333D

 27 30  0  0  1  0  0  0  0  0999 V2000
  189.8630  176.9410  145.1650 C   0  0  2  0  0  3  0  0  0  0  0  0
  186.8980  178.1910  147.2120 C   0  0  0  0  0  3  0  0  0  0  0  0
  185.2980  178.2690  143.8860 C   0  0  0  0  0  3  0  0  0  0  0  0
  183.7720  178.9930  145.5660 N   0  0  0  0  0  0  0  0  0  0  0  0
  188.4990  177.4350  145.5460 C   0  0  0  0  0  0  0  0  0  0  0  0
  188.1740  177.7260  146.8810 C   0  0  0  0  0  3  0  0  0  0  0  0
  184.6960  178.8160  146.5150 N   0  0  0  0  0  0  0  0  0  0  0  0
  186.2640  178.0820  144.8700 C   0  0  0  0  0  0  0  0  0  0  0  0
  185.9410  178.3670  146.2100 C   0  0  0  0  0  0  0  0  0  0  0  0
  187.5410  177.6180  144.5420 C   0  0  0  0  0  3  0  0  0  0  0  0
  184.0370  178.7320  144.2570 C   0  0  0  0  0  3  0  0  0  0  0  0
  192.0050  176.3940  146.0890 O   0  0  0  0  0  0  0  0  0  0  0  0
  190.9090  177.2660  146.2330 C   0  0  2  0  0  3  0  0  0  0  0  0
  191.1040  176.1060  147.1300 C   0  0  0  0  0  2  0  0  0  0  0  0
  191.3710  178.3530  143.8120 N   0  0  0  0  0  1  0  0  0  0  0  0
  190.2610  177.4110  143.7600 C   0  0  1  0  0  3  0  0  0  0  0  0
  190.6160  176.2240  142.8770 C   0  0  0  0  0  2  0  0  0  0  0  0
  189.8350  176.2570  141.6510 N   0  0  0  0  0  2  0  0  0  0  0  0
  189.8510  177.5820  141.1880 N   0  0  0  0  0  0  0  0  0  0  0  0
  189.5670  177.7780  139.0480 C   0  0  2  0  0  3  0  0  0  0  0  0
  190.7190  177.6160  140.0190 C   0  0  0  0  0  2  0  0  0  0  0  0
  188.7080  177.7360  140.3000 C   0  0  0  0  0  2  0  0  0  0  0  0
  188.2140  176.1820  137.7450 C   0  0  0  0  0  2  0  0  0  0  0  0
  189.4190  176.5410  138.1910 C   0  0  0  0  0  0  0  0  0  0  0  0
  191.0210  174.5980  138.0650 N   0  0  0  0  0  1  0  0  0  0  0  0
  190.6180  175.8890  137.6190 C   0  0  0  0  0  0  0  0  0  0  0  0
  191.2970  176.4680  136.7290 O   0  0  0  0  0  0  0  0  0  0  0  0
  1 16  1  6  0  0  0
  1  5  1  0  0  0  0
  3 11  2  0  0  0  0
  3  8  1  0  0  0  0
  4  7  2  0  0  0  0
  5  6  2  0  0  0  0
  6  2  1  0  0  0  0
  8  9  1  0  0  0  0
  9  7  1  0  0  0  0
  9  2  2  0  0  0  0
 10  8  2  0  0  0  0
 10  5  1  0  0  0  0
 11  4  1  0  0  0  0
 12 13  1  0  0  0  0
 12 14  1  0  0  0  0
 13  1  1  6  0  0  0
 13 14  1  0  0  0  0
 16 15  1  1  0  0  0
 17 16  1  0  0  0  0
 18 17  1  0  0  0  0
 19 18  1  0  0  0  0
 20 24  1  6  0  0  0
 20 21  1  0  0  0  0
 20 22  1  0  0  0  0
 21 19  1  0  0  0  0
 22 19  1  0  0  0  0
 23 24  2  0  0  0  0
 26 25  1  0  0  0  0
 26 24  1  0  0  0  0
 27 26  2  0  0  0  0
M  END
>  <MODEL>
2

>  <REMARK>
 VINA RESULT:      -8.5      1.346      1.964
  Name = 
  8 active torsions:
  status: ('A' for Active; 'I' for Inactive)
    1  A    between atoms: N_2  and  N_14
    2  A    between atoms: C_3  and  C_13
    3  A    between atoms: C_10  and  C_19
    4  A    between atoms: C_12  and  C_19
    5  A    between atoms: C_13  and  C_20
    6  A    between atoms: N_14  and  C_15
    7  A    between atoms: C_15  and  C_22
    8  A    between atoms: C_19  and  C_22
                            x       y       z     vdW  Elec       q    Type
                         _______ _______ _______ _____ _____    ______ ____

>  <TORSDO>
F 8

$$$$
=
 OpenBabel10232411333D

 27 30  0  0  1  0  0  0  0  0999 V2000
  189.6910  177.3420  144.0190 C   0  0  2  0  0  3  0  0  0  0  0  0
  187.1750  177.8680  146.8370 C   0  0  0  0  0  3  0  0  0  0  0  0
  184.9580  178.6990  144.0040 C   0  0  0  0  0  3  0  0  0  0  0  0
  183.7850  178.8890  146.0690 N   0  0  0  0  0  0  0  0  0  0  0  0
  188.4250  177.6470  144.7630 C   0  0  0  0  0  0  0  0  0  0  0  0
  188.3640  177.5720  146.1640 C   0  0  0  0  0  3  0  0  0  0  0  0
  184.8770  178.5280  146.7500 N   0  0  0  0  0  0  0  0  0  0  0  0
  186.0980  178.3220  144.7080 C   0  0  0  0  0  0  0  0  0  0  0  0
  186.0400  178.2400  146.1120 C   0  0  0  0  0  0  0  0  0  0  0  0
  187.2880  178.0270  144.0380 C   0  0  0  0  0  3  0  0  0  0  0  0
  183.7910  178.9830  144.7120 C   0  0  0  0  0  3  0  0  0  0  0  0
  191.7070  178.3200  143.1730 O   0  0  0  0  0  0  0  0  0  0  0  0
  190.3680  178.6090  143.4950 C   0  0  2  0  0  3  0  0  0  0  0  0
  191.4850  178.9990  144.3830 C   0  0  0  0  0  2  0  0  0  0  0  0
  188.2520  175.5140  143.1910 N   0  0  0  0  0  1  0  0  0  0  0  0
  189.4650  176.2790  142.9350 C   0  0  1  0  0  3  0  0  0  0  0  0
  189.4040  176.9230  141.5580 C   0  0  0  0  0  2  0  0  0  0  0  0
  190.4240  176.3530  140.6920 N   0  0  0  0  0  2  0  0  0  0  0  0
  190.8580  177.3780  139.8370 N   0  0  0  0  0  0  0  0  0  0  0  0
  190.1170  177.2140  137.8060 C   0  0  2  0  0  3  0  0  0  0  0  0
  191.3140  176.7450  138.6070 C   0  0  0  0  0  2  0  0  0  0  0  0
  189.6860  177.8540  139.1150 C   0  0  0  0  0  2  0  0  0  0  0  0
  187.9220  176.1390  137.4860 C   0  0  0  0  0  2  0  0  0  0  0  0
  189.2500  176.0390  137.4130 C   0  0  0  0  0  0  0  0  0  0  0  0
  189.9380  173.6150  137.3200 N   0  0  0  0  0  1  0  0  0  0  0  0
  189.8420  174.8900  136.6930 C   0  0  0  0  0  0  0  0  0  0  0  0
  190.2700  175.0260  135.5150 O   0  0  0  0  0  0  0  0  0  0  0  0
  1 16  1  6  0  0  0
  1  5  1  0  0  0  0
  3  8  1  0  0  0  0
  3 11  2  0  0  0  0
  4  7  2  0  0  0  0
  5  6  2  0  0  0  0
  6  2  1  0  0  0  0
  8  9  1  0  0  0  0
  9  7  1  0  0  0  0
  9  2  2  0  0  0  0
 10  8  2  0  0  0  0
 10  5  1  0  0  0  0
 11  4  1  0  0  0  0
 12 13  1  0  0  0  0
 12 14  1  0  0  0  0
 13  1  1  1  0  0  0
 13 14  1  0  0  0  0
 16 15  1  1  0  0  0
 17 16  1  0  0  0  0
 18 17  1  0  0  0  0
 19 18  1  0  0  0  0
 20 24  1  1  0  0  0
 20 21  1  0  0  0  0
 20 22  1  0  0  0  0
 21 19  1  0  0  0  0
 22 19  1  0  0  0  0
 24 23  2  0  0  0  0
 26 25  1  0  0  0  0
 26 24  1  0  0  0  0
 27 26  2  0  0  0  0
M  END
>  <MODEL>
3

>  <REMARK>
 VINA RESULT:      -7.5      2.146      2.731
  Name = 
  8 active torsions:
  status: ('A' for Active; 'I' for Inactive)
    1  A    between atoms: N_2  and  N_14
    2  A    between atoms: C_3  and  C_13
    3  A    between atoms: C_10  and  C_19
    4  A    between atoms: C_12  and  C_19
    5  A    between atoms: C_13  and  C_20
    6  A    between atoms: N_14  and  C_15
    7  A    between atoms: C_15  and  C_22
    8  A    between atoms: C_19  and  C_22
                            x       y       z     vdW  Elec       q    Type
                         _______ _______ _______ _____ _____    ______ ____

>  <TORSDO>
F 8

$$$$
=
 OpenBabel10232411333D

 27 30  0  0  1  0  0  0  0  0999 V2000
  185.3300  178.1570  143.8830 C   0  0  2  0  0  3  0  0  0  0  0  0
  188.4990  176.1230  143.2770 C   0  0  0  0  0  3  0  0  0  0  0  0
  188.7840  178.3970  140.3830 C   0  0  0  0  0  3  0  0  0  0  0  0
  190.6180  176.8760  140.4360 N   0  0  0  0  0  0  0  0  0  0  0  0
  186.6090  177.6520  143.2830 C   0  0  0  0  0  0  0  0  0  0  0  0
  187.3120  176.5800  143.8570 C   0  0  0  0  0  3  0  0  0  0  0  0
  190.1410  176.3030  141.5460 N   0  0  0  0  0  0  0  0  0  0  0  0
  188.2830  177.8040  141.5380 C   0  0  0  0  0  0  0  0  0  0  0  0
  188.9880  176.7340  142.1200 C   0  0  0  0  0  0  0  0  0  0  0  0
  187.0970  178.2590  142.1200 C   0  0  0  0  0  3  0  0  0  0  0  0
  189.9720  177.9130  139.8370 C   0  0  0  0  0  3  0  0  0  0  0  0
  183.1750  178.9680  143.2200 O   0  0  0  0  0  0  0  0  0  0  0  0
  184.5450  179.0340  142.9060 C   0  0  2  0  0  3  0  0  0  0  0  0
  183.6040  178.2090  142.1170 C   0  0  0  0  0  2  0  0  0  0  0  0
  184.3130  179.1850  145.8840 N   0  0  0  0  0  1  0  0  0  0  0  0
  185.5700  178.8240  145.2430 C   0  0  1  0  0  3  0  0  0  0  0  0
  186.3850  177.9140  146.1500 C   0  0  0  0  0  2  0  0  0  0  0  0
  187.2410  178.7060  147.0190 N   0  0  0  0  0  2  0  0  0  0  0  0
  187.7260  177.8450  148.0160 N   0  0  0  0  0  0  0  0  0  0  0  0
  189.6440  176.9450  147.5570 C   0  0  2  0  0  3  0  0  0  0  0  0
  188.1760  176.6300  147.3500 C   0  0  0  0  0  2  0  0  0  0  0  0
  189.1200  178.1970  148.2410 C   0  0  0  0  0  2  0  0  0  0  0  0
  190.0280  178.3590  145.5750 C   0  0  0  0  0  2  0  0  0  0  0  0
  190.3150  177.2360  146.2340 C   0  0  0  0  0  0  0  0  0  0  0  0
  192.2660  175.7270  146.7590 N   0  0  0  0  0  1  0  0  0  0  0  0
  191.4810  176.4320  145.8020 C   0  0  0  0  0  0  0  0  0  0  0  0
  191.7930  176.3630  144.5830 O   0  0  0  0  0  0  0  0  0  0  0  0
  1 16  1  1  0  0  0
  2  6  1  0  0  0  0
  3  8  1  0  0  0  0
  4  7  2  0  0  0  0
  5  6  2  0  0  0  0
  5  1  1  0  0  0  0
  7  9  1  0  0  0  0
  8  9  1  0  0  0  0
  8 10  2  0  0  0  0
  9  2  2  0  0  0  0
 10  5  1  0  0  0  0
 11  3  2  0  0  0  0
 11  4  1  0  0  0  0
 13 12  1  0  0  0  0
 13  1  1  1  0  0  0
 14 13  1  0  0  0  0
 14 12  1  0  0  0  0
 16 15  1  1  0  0  0
 16 17  1  0  0  0  0
 17 18  1  0  0  0  0
 18 19  1  0  0  0  0
 19 22  1  0  0  0  0
 20 24  1  6  0  0  0
 20 22  1  0  0  0  0
 21 20  1  0  0  0  0
 21 19  1  0  0  0  0
 23 24  2  0  0  0  0
 26 24  1  0  0  0  0
 26 25  1  0  0  0  0
 27 26  2  0  0  0  0
M  END
>  <MODEL>
4

>  <REMARK>
 VINA RESULT:      -7.3      2.239      6.970
  Name = 
  8 active torsions:
  status: ('A' for Active; 'I' for Inactive)
    1  A    between atoms: N_2  and  N_14
    2  A    between atoms: C_3  and  C_13
    3  A    between atoms: C_10  and  C_19
    4  A    between atoms: C_12  and  C_19
    5  A    between atoms: C_13  and  C_20
    6  A    between atoms: N_14  and  C_15
    7  A    between atoms: C_15  and  C_22
    8  A    between atoms: C_19  and  C_22
                            x       y       z     vdW  Elec       q    Type
                         _______ _______ _______ _____ _____    ______ ____

>  <TORSDO>
F 8

$$$$
=
 OpenBabel10232411333D

 27 30  0  0  1  0  0  0  0  0999 V2000
  185.0100  178.4340  144.1080 C   0  0  2  0  0  3  0  0  0  0  0  0
  184.7950  178.6600  140.3060 C   0  0  0  0  0  3  0  0  0  0  0  0
  188.4670  178.4150  140.6030 C   0  0  0  0  0  3  0  0  0  0  0  0
  187.8200  178.5800  138.3150 N   0  0  0  0  0  0  0  0  0  0  0  0
  185.3900  178.4860  142.6580 C   0  0  0  0  0  0  0  0  0  0  0  0
  184.4170  178.6070  141.6520 C   0  0  0  0  0  3  0  0  0  0  0  0
  186.5300  178.6390  138.6600 N   0  0  0  0  0  0  0  0  0  0  0  0
  187.1250  178.4760  140.9670 C   0  0  0  0  0  0  0  0  0  0  0  0
  186.1470  178.5920  139.9620 C   0  0  0  0  0  0  0  0  0  0  0  0
  186.7440  178.4240  142.3100 C   0  0  0  0  0  3  0  0  0  0  0  0
  188.8020  178.4680  139.2510 C   0  0  0  0  0  3  0  0  0  0  0  0
  183.2380  179.0090  145.6140 O   0  0  0  0  0  0  0  0  0  0  0  0
  183.9000  179.4310  144.4460 C   0  0  2  0  0  3  0  0  0  0  0  0
  182.5790  178.7650  144.3960 C   0  0  0  0  0  2  0  0  0  0  0  0
  185.9470  179.3720  146.1900 N   0  0  0  0  0  1  0  0  0  0  0  0
  186.2390  178.5590  145.0180 C   0  0  1  0  0  3  0  0  0  0  0  0
  186.7370  177.1840  145.4380 C   0  0  0  0  0  2  0  0  0  0  0  0
  188.0900  176.9700  144.9520 N   0  0  0  0  0  2  0  0  0  0  0  0
  188.9350  177.8000  145.7050 N   0  0  0  0  0  0  0  0  0  0  0  0
  191.0470  177.5130  145.3070 C   0  0  2  0  0  3  0  0  0  0  0  0
  189.9940  176.9570  146.2440 C   0  0  0  0  0  2  0  0  0  0  0  0
  189.9060  178.3680  144.7810 C   0  0  0  0  0  2  0  0  0  0  0  0
  191.9180  175.2720  144.7640 C   0  0  0  0  0  2  0  0  0  0  0  0
  191.4910  176.4560  144.3220 C   0  0  0  0  0  0  0  0  0  0  0  0
  190.1710  175.8470  142.2610 N   0  0  0  0  0  1  0  0  0  0  0  0
  191.1970  176.6170  142.8800 C   0  0  0  0  0  0  0  0  0  0  0  0
  191.8530  177.4370  142.1820 O   0  0  0  0  0  0  0  0  0  0  0  0
  1 16  1  1  0  0  0
  2  6  1  0  0  0  0
  3  8  1  0  0  0  0
  4  7  2  0  0  0  0
  4 11  1  0  0  0  0
  5  1  1  0  0  0  0
  6  5  2  0  0  0  0
  7  9  1  0  0  0  0
  8 10  2  0  0  0  0
  9  2  2  0  0  0  0
  9  8  1  0  0  0  0
 10  5  1  0  0  0  0
 11  3  2  0  0  0  0
 13  1  1  6  0  0  0
 13 12  1  0  0  0  0
 14 13  1  0  0  0  0
 14 12  1  0  0  0  0
 16 17  1  0  0  0  0
 16 15  1  1  0  0  0
 18 17  1  0  0  0  0
 18 19  1  0  0  0  0
 19 21  1  0  0  0  0
 20 24  1  6  0  0  0
 20 21  1  0  0  0  0
 22 20  1  0  0  0  0
 22 19  1  0  0  0  0
 24 23  2  0  0  0  0
 25 26  1  0  0  0  0
 26 24  1  0  0  0  0
 27 26  2  0  0  0  0
M  END
>  <MODEL>
5

>  <REMARK>
 VINA RESULT:      -7.1      2.561      6.278
  Name = 
  8 active torsions:
  status: ('A' for Active; 'I' for Inactive)
    1  A    between atoms: N_2  and  N_14
    2  A    between atoms: C_3  and  C_13
    3  A    between atoms: C_10  and  C_19
    4  A    between atoms: C_12  and  C_19
    5  A    between atoms: C_13  and  C_20
    6  A    between atoms: N_14  and  C_15
    7  A    between atoms: C_15  and  C_22
    8  A    between atoms: C_19  and  C_22
                            x       y       z     vdW  Elec       q    Type
                         _______ _______ _______ _____ _____    ______ ____

>  <TORSDO>
F 8

$$$$
=
 OpenBabel10232411333D

 27 30  0  0  1  0  0  0  0  0999 V2000
  188.8180  177.1380  142.5750 C   0  0  2  0  0  3  0  0  0  0  0  0
  187.1410  177.8480  145.9260 C   0  0  0  0  0  3  0  0  0  0  0  0
  184.2670  178.6110  143.7390 C   0  0  0  0  0  3  0  0  0  0  0  0
  183.6810  178.9190  146.0270 N   0  0  0  0  0  0  0  0  0  0  0  0
  187.7970  177.5070  143.6100 C   0  0  0  0  0  0  0  0  0  0  0  0
  188.1070  177.4940  144.9800 C   0  0  0  0  0  3  0  0  0  0  0  0
  184.9100  178.5600  146.4140 N   0  0  0  0  0  0  0  0  0  0  0  0
  185.5470  178.2360  144.1360 C   0  0  0  0  0  0  0  0  0  0  0  0
  185.8600  178.2160  145.5080 C   0  0  0  0  0  0  0  0  0  0  0  0
  186.5150  177.8830  143.1920 C   0  0  0  0  0  3  0  0  0  0  0  0
  183.3310  178.9550  144.7130 C   0  0  0  0  0  3  0  0  0  0  0  0
  191.1590  176.8400  142.1600 O   0  0  0  0  0  0  0  0  0  0  0  0
  190.2430  177.4440  143.0410 C   0  0  2  0  0  3  0  0  0  0  0  0
  190.9490  176.1910  143.3890 C   0  0  0  0  0  2  0  0  0  0  0  0
  188.9000  179.1400  141.1320 N   0  0  0  0  0  1  0  0  0  0  0  0
  188.4810  177.7470  141.2080 C   0  0  1  0  0  3  0  0  0  0  0  0
  189.1220  176.9400  140.0890 C   0  0  0  0  0  2  0  0  0  0  0  0
  189.5720  177.8240  139.0260 N   0  0  0  0  0  2  0  0  0  0  0  0
  188.5560  177.8560  138.0580 N   0  0  0  0  0  0  0  0  0  0  0  0
  188.8950  176.5390  136.3700 C   0  0  2  0  0  3  0  0  0  0  0  0
  189.2050  177.9710  136.7590 C   0  0  0  0  0  2  0  0  0  0  0  0
  188.2320  176.4740  137.7360 C   0  0  0  0  0  2  0  0  0  0  0  0
  191.1560  176.1090  135.4880 C   0  0  0  0  0  2  0  0  0  0  0  0
  190.1650  175.7240  136.2940 C   0  0  0  0  0  0  0  0  0  0  0  0
  189.7430  173.4250  137.2410 N   0  0  0  0  0  1  0  0  0  0  0  0
  190.4310  174.6710  137.3000 C   0  0  0  0  0  0  0  0  0  0  0  0
  191.2680  174.8640  138.2220 O   0  0  0  0  0  0  0  0  0  0  0  0
  1 16  1  6  0  0  0
  1  5  1  0  0  0  0
  3  8  2  0  0  0  0
  3 11  1  0  0  0  0
  4  7  1  0  0  0  0
  5  6  1  0  0  0  0
  6  2  2  0  0  0  0
  8  9  1  0  0  0  0
  9  2  1  0  0  0  0
  9  7  2  0  0  0  0
 10  5  2  0  0  0  0
 10  8  1  0  0  0  0
 11  4  2  0  0  0  0
 12 13  1  0  0  0  0
 12 14  1  0  0  0  0
 13  1  1  6  0  0  0
 13 14  1  0  0  0  0
 16 15  1  1  0  0  0
 17 16  1  0  0  0  0
 18 17  1  0  0  0  0
 19 18  1  0  0  0  0
 20 24  1  1  0  0  0
 20 21  1  0  0  0  0
 20 22  1  0  0  0  0
 21 19  1  0  0  0  0
 22 19  1  0  0  0  0
 23 24  2  0  0  0  0
 24 26  1  0  0  0  0
 25 26  1  0  0  0  0
 26 27  2  0  0  0  0
M  END
>  <MODEL>
6

>  <REMARK>
 VINA RESULT:      -7.0      2.475      3.575
  Name = 
  8 active torsions:
  status: ('A' for Active; 'I' for Inactive)
    1  A    between atoms: N_2  and  N_14
    2  A    between atoms: C_3  and  C_13
    3  A    between atoms: C_10  and  C_19
    4  A    between atoms: C_12  and  C_19
    5  A    between atoms: C_13  and  C_20
    6  A    between atoms: N_14  and  C_15
    7  A    between atoms: C_15  and  C_22
    8  A    between atoms: C_19  and  C_22
                            x       y       z     vdW  Elec       q    Type
                         _______ _______ _______ _____ _____    ______ ____

>  <TORSDO>
F 8

$$$$
=
 OpenBabel10232411333D

 27 30  0  0  1  0  0  0  0  0999 V2000
  189.1160  177.0950  143.4260 C   0  0  2  0  0  3  0  0  0  0  0  0
  186.8080  178.0830  146.2980 C   0  0  0  0  0  3  0  0  0  0  0  0
  184.4200  178.5690  143.5250 C   0  0  0  0  0  3  0  0  0  0  0  0
  183.3930  179.0810  145.6140 N   0  0  0  0  0  0  0  0  0  0  0  0
  187.9100  177.5380  144.1990 C   0  0  0  0  0  0  0  0  0  0  0  0
  187.9430  177.6630  145.5980 C   0  0  0  0  0  3  0  0  0  0  0  0
  184.5220  178.7880  146.2670 N   0  0  0  0  0  0  0  0  0  0  0  0
  185.5980  178.2630  144.2000 C   0  0  0  0  0  0  0  0  0  0  0  0
  185.6340  178.3810  145.6020 C   0  0  0  0  0  0  0  0  0  0  0  0
  186.7340  177.8440  143.5030 C   0  0  0  0  0  3  0  0  0  0  0  0
  183.3090  178.9830  144.2590 C   0  0  0  0  0  3  0  0  0  0  0  0
  191.5100  177.0050  143.4110 O   0  0  0  0  0  0  0  0  0  0  0  0
  190.4140  177.6350  144.0300 C   0  0  2  0  0  3  0  0  0  0  0  0
  191.1630  176.5450  144.6940 C   0  0  0  0  0  2  0  0  0  0  0  0
  189.1740  178.8140  141.6540 N   0  0  0  0  0  1  0  0  0  0  0  0
  188.9690  177.3980  141.9290 C   0  0  1  0  0  3  0  0  0  0  0  0
  189.9370  176.5550  141.1140 C   0  0  0  0  0  2  0  0  0  0  0  0
  190.2730  177.2340  139.8720 N   0  0  0  0  0  2  0  0  0  0  0  0
  190.3470  176.2520  138.8730 N   0  0  0  0  0  0  0  0  0  0  0  0
  189.2010  176.7110  137.0900 C   0  0  2  0  0  3  0  0  0  0  0  0
  188.9870  176.0050  138.4140 C   0  0  0  0  0  2  0  0  0  0  0  0
  190.6070  176.9420  137.6170 C   0  0  0  0  0  2  0  0  0  0  0  0
  188.9770  179.1640  137.1750 C   0  0  0  0  0  2  0  0  0  0  0  0
  188.3820  177.9790  137.0280 C   0  0  0  0  0  0  0  0  0  0  0  0
  185.9030  177.7650  137.4380 N   0  0  0  0  0  1  0  0  0  0  0  0
  186.9880  177.9360  136.5320 C   0  0  0  0  0  0  0  0  0  0  0  0
  186.7440  178.0500  135.3000 O   0  0  0  0  0  0  0  0  0  0  0  0
  1 16  1  6  0  0  0
  1  5  1  0  0  0  0
  3  8  2  0  0  0  0
  3 11  1  0  0  0  0
  4  7  1  0  0  0  0
  5  6  1  0  0  0  0
  6  2  2  0  0  0  0
  8  9  1  0  0  0  0
  9  7  2  0  0  0  0
  9  2  1  0  0  0  0
 10  5  2  0  0  0  0
 10  8  1  0  0  0  0
 11  4  2  0  0  0  0
 12 13  1  0  0  0  0
 12 14  1  0  0  0  0
 13  1  1  6  0  0  0
 13 14  1  0  0  0  0
 16 15  1  1  0  0  0
 17 16  1  0  0  0  0
 18 17  1  0  0  0  0
 19 18  1  0  0  0  0
 20 24  1  1  0  0  0
 20 22  1  0  0  0  0
 20 21  1  0  0  0  0
 21 19  1  0  0  0  0
 22 19  1  0  0  0  0
 24 23  2  0  0  0  0
 26 24  1  0  0  0  0
 26 25  1  0  0  0  0
 27 26  2  0  0  0  0
M  END
>  <MODEL>
7

>  <REMARK>
 VINA RESULT:      -7.0      1.751      2.259
  Name = 
  8 active torsions:
  status: ('A' for Active; 'I' for Inactive)
    1  A    between atoms: N_2  and  N_14
    2  A    between atoms: C_3  and  C_13
    3  A    between atoms: C_10  and  C_19
    4  A    between atoms: C_12  and  C_19
    5  A    between atoms: C_13  and  C_20
    6  A    between atoms: N_14  and  C_15
    7  A    between atoms: C_15  and  C_22
    8  A    between atoms: C_19  and  C_22
                            x       y       z     vdW  Elec       q    Type
                         _______ _______ _______ _____ _____    ______ ____

>  <TORSDO>
F 8

$$$$
=
 OpenBabel10232411333D

 27 30  0  0  1  0  0  0  0  0999 V2000
  185.9080  178.4340  144.7200 C   0  0  2  0  0  3  0  0  0  0  0  0
  188.5150  176.4330  142.7830 C   0  0  0  0  0  3  0  0  0  0  0  0
  190.5400  177.1490  145.7860 C   0  0  0  0  0  3  0  0  0  0  0  0
  191.7920  175.8640  144.2190 N   0  0  0  0  0  0  0  0  0  0  0  0
  187.1820  177.7370  144.3440 C   0  0  0  0  0  0  0  0  0  0  0  0
  187.3160  177.0700  143.1150 C   0  0  0  0  0  3  0  0  0  0  0  0
  190.7570  175.8430  143.3730 N   0  0  0  0  0  0  0  0  0  0  0  0
  189.4590  177.1300  144.9090 C   0  0  0  0  0  0  0  0  0  0  0  0
  189.5860  176.4590  143.6790 C   0  0  0  0  0  0  0  0  0  0  0  0
  188.2600  177.7680  145.2380 C   0  0  0  0  0  3  0  0  0  0  0  0
  191.7180  176.5000  145.4190 C   0  0  0  0  0  3  0  0  0  0  0  0
  184.5360  178.9840  146.6050 O   0  0  0  0  0  0  0  0  0  0  0  0
  185.4000  177.9970  146.0950 C   0  0  2  0  0  3  0  0  0  0  0  0
  185.8390  178.9560  147.1330 C   0  0  0  0  0  2  0  0  0  0  0  0
  183.5140  178.5680  144.1300 N   0  0  0  0  0  1  0  0  0  0  0  0
  184.8520  178.3130  143.6140 C   0  0  1  0  0  3  0  0  0  0  0  0
  185.1660  179.2620  142.4670 C   0  0  0  0  0  2  0  0  0  0  0  0
  184.3010  178.9830  141.3320 N   0  0  0  0  0  2  0  0  0  0  0  0
  184.9190  179.5340  140.1980 N   0  0  0  0  0  0  0  0  0  0  0  0
  184.4110  178.5410  138.3390 C   0  0  2  0  0  3  0  0  0  0  0  0
  185.4620  178.4260  139.4250 C   0  0  0  0  0  2  0  0  0  0  0  0
  183.8860  179.6890  139.1850 C   0  0  0  0  0  2  0  0  0  0  0  0
  182.2080  177.4820  138.6550 C   0  0  0  0  0  2  0  0  0  0  0  0
  183.4990  177.3360  138.3540 C   0  0  0  0  0  0  0  0  0  0  0  0
  184.8790  176.0410  136.6860 N   0  0  0  0  0  1  0  0  0  0  0  0
  183.9570  176.0540  137.7720 C   0  0  0  0  0  0  0  0  0  0  0  0
  183.5360  174.9580  138.2310 O   0  0  0  0  0  0  0  0  0  0  0  0
  1 16  1  6  0  0  0
  2  6  2  0  0  0  0
  2  9  1  0  0  0  0
  4 11  2  0  0  0  0
  5  1  1  0  0  0  0
  5 10  2  0  0  0  0
  6  5  1  0  0  0  0
  7  9  2  0  0  0  0
  7  4  1  0  0  0  0
  8 10  1  0  0  0  0
  8  3  2  0  0  0  0
  9  8  1  0  0  0  0
 11  3  1  0  0  0  0
 12 14  1  0  0  0  0
 13  1  1  6  0  0  0
 13 12  1  0  0  0  0
 13 14  1  0  0  0  0
 16 15  1  1  0  0  0
 17 16  1  0  0  0  0
 18 17  1  0  0  0  0
 19 18  1  0  0  0  0
 20 24  1  1  0  0  0
 20 22  1  0  0  0  0
 20 21  1  0  0  0  0
 21 19  1  0  0  0  0
 22 19  1  0  0  0  0
 24 23  2  0  0  0  0
 25 26  1  0  0  0  0
 26 27  2  0  0  0  0
 26 24  1  0  0  0  0
M  END
>  <MODEL>
8

>  <REMARK>
 VINA RESULT:      -7.0      2.975      5.827
  Name = 
  8 active torsions:
  status: ('A' for Active; 'I' for Inactive)
    1  A    between atoms: N_2  and  N_14
    2  A    between atoms: C_3  and  C_13
    3  A    between atoms: C_10  and  C_19
    4  A    between atoms: C_12  and  C_19
    5  A    between atoms: C_13  and  C_20
    6  A    between atoms: N_14  and  C_15
    7  A    between atoms: C_15  and  C_22
    8  A    between atoms: C_19  and  C_22
                            x       y       z     vdW  Elec       q    Type
                         _______ _______ _______ _____ _____    ______ ____

>  <TORSDO>
F 8

$$$$
=
 OpenBabel10232411333D

 27 30  0  0  1  0  0  0  0  0999 V2000
  188.2280  177.5860  142.1020 C   0  0  2  0  0  3  0  0  0  0  0  0
  186.0940  178.0380  145.2320 C   0  0  0  0  0  3  0  0  0  0  0  0
  189.3700  177.6630  146.8910 C   0  0  0  0  0  3  0  0  0  0  0  0
  187.6470  177.9860  148.5040 N   0  0  0  0  0  0  0  0  0  0  0  0
  187.8080  177.7210  143.5360 C   0  0  0  0  0  0  0  0  0  0  0  0
  186.4630  177.9210  143.8880 C   0  0  0  0  0  3  0  0  0  0  0  0
  186.7260  178.0690  147.5390 N   0  0  0  0  0  0  0  0  0  0  0  0
  188.4150  177.7480  145.8820 C   0  0  0  0  0  0  0  0  0  0  0  0
  187.0680  177.9550  146.2290 C   0  0  0  0  0  0  0  0  0  0  0  0
  188.7810  177.6310  144.5380 C   0  0  0  0  0  3  0  0  0  0  0  0
  188.9620  177.7870  148.2180 C   0  0  0  0  0  3  0  0  0  0  0  0
  190.0290  176.5300  140.9280 O   0  0  0  0  0  0  0  0  0  0  0  0
  189.7440  177.4430  141.9600 C   0  0  2  0  0  3  0  0  0  0  0  0
  190.1570  176.0510  142.2430 C   0  0  0  0  0  2  0  0  0  0  0  0
  188.5700  179.1140  140.1940 N   0  0  0  0  0  1  0  0  0  0  0  0
  187.6370  178.7040  141.2350 C   0  0  1  0  0  3  0  0  0  0  0  0
  186.3180  178.2650  140.6180 C   0  0  0  0  0  2  0  0  0  0  0  0
  185.3900  179.3830  140.5650 N   0  0  0  0  0  2  0  0  0  0  0  0
  185.0130  179.5420  139.2220 N   0  0  0  0  0  0  0  0  0  0  0  0
  183.1530  178.5570  138.7000 C   0  0  2  0  0  3  0  0  0  0  0  0
  184.6310  178.2260  138.7260 C   0  0  0  0  0  2  0  0  0  0  0  0
  183.6050  179.9130  139.2170 C   0  0  0  0  0  2  0  0  0  0  0  0
  182.4140  176.4180  139.6750 C   0  0  0  0  0  2  0  0  0  0  0  0
  182.4100  177.7500  139.7400 C   0  0  0  0  0  0  0  0  0  0  0  0
  180.6230  178.9940  141.0120 N   0  0  0  0  0  1  0  0  0  0  0  0
  181.9190  178.4040  140.9730 C   0  0  0  0  0  0  0  0  0  0  0  0
  182.6420  178.4480  142.0050 O   0  0  0  0  0  0  0  0  0  0  0  0
  1 16  1  6  0  0  0
  1  5  1  0  0  0  0
  2  9  1  0  0  0  0
  3 11  1  0  0  0  0
  5  6  1  0  0  0  0
  5 10  2  0  0  0  0
  6  2  2  0  0  0  0
  7  4  1  0  0  0  0
  8  9  1  0  0  0  0
  8  3  2  0  0  0  0
  9  7  2  0  0  0  0
 10  8  1  0  0  0  0
 11  4  2  0  0  0  0
 12 13  1  0  0  0  0
 12 14  1  0  0  0  0
 13  1  1  6  0  0  0
 13 14  1  0  0  0  0
 16 15  1  6  0  0  0
 17 16  1  0  0  0  0
 18 17  1  0  0  0  0
 19 18  1  0  0  0  0
 20 21  1  0  0  0  0
 20 22  1  0  0  0  0
 20 24  1  1  0  0  0
 21 19  1  0  0  0  0
 22 19  1  0  0  0  0
 23 24  2  0  0  0  0
 24 26  1  0  0  0  0
 26 25  1  0  0  0  0
 26 27  2  0  0  0  0
M  END
>  <MODEL>
9

>  <REMARK>
 VINA RESULT:      -6.7      3.119      5.115
  Name = 
  8 active torsions:
  status: ('A' for Active; 'I' for Inactive)
    1  A    between atoms: N_2  and  N_14
    2  A    between atoms: C_3  and  C_13
    3  A    between atoms: C_10  and  C_19
    4  A    between atoms: C_12  and  C_19
    5  A    between atoms: C_13  and  C_20
    6  A    between atoms: N_14  and  C_15
    7  A    between atoms: C_15  and  C_22
    8  A    between atoms: C_19  and  C_22
                            x       y       z     vdW  Elec       q    Type
                         _______ _______ _______ _____ _____    ______ ____

>  <TORSDO>
F 8

$$$$
