=
 OpenBabel10222421423D

 47 53  0  0  1  0  0  0  0  0999 V2000
  188.3660  177.9860  138.8880 C   0  0  2  0  0  3  0  0  0  0  0  0
  186.9350  176.2380  136.0650 C   0  0  0  0  0  2  0  0  0  0  0  0
  187.1400  177.3250  138.2830 C   0  0  2  0  0  3  0  0  0  0  0  0
  187.6660  176.8360  137.0060 C   0  0  0  0  0  0  0  0  0  0  0  0
  189.4220  178.0550  137.9460 O   0  0  0  0  0  0  0  0  0  0  0  0
  189.0550  177.3110  136.8070 C   0  0  1  0  0  3  0  0  0  0  0  0
  194.3760  174.5340  137.3150 N   0  0  0  0  0  0  0  0  0  0  0  0
  192.0670  174.3930  137.2020 C   0  0  0  0  0  0  0  0  0  0  0  0
  191.4550  176.6360  136.7500 N   0  0  0  0  0  0  0  0  0  0  0  0
  194.4100  176.4570  135.8040 C   0  0  0  0  0  1  0  0  0  0  0  0
  189.7520  174.9430  137.4740 C   0  0  0  0  0  2  0  0  0  0  0  0
  190.8670  173.9770  137.4550 N   0  0  0  0  0  0  0  0  0  0  0  0
  190.0610  176.1830  136.6020 C   0  0  1  0  0  3  0  0  0  0  0  0
  192.3700  175.7400  136.9550 C   0  0  0  0  0  0  0  0  0  0  0  0
  193.8410  175.9030  137.0910 C   0  0  1  0  0  3  0  0  0  0  0  0
  193.2570  173.6760  137.4070 N   0  0  0  0  0  2  0  0  0  0  0  0
  195.0180  174.5260  138.6180 C   0  0  0  0  0  2  0  0  0  0  0  0
  196.4050  173.9300  138.5060 C   0  0  0  0  0  2  0  0  0  0  0  0
  197.3590  174.9510  138.4270 O   0  0  0  0  0  0  0  0  0  0  0  0
  197.8920  175.7460  135.8230 O   0  0  0  0  0  0  0  0  0  0  0  0
  199.9100  174.6840  137.3740 O   0  0  0  0  0  1  0  0  0  0  0  0
  197.9120  173.2250  136.5370 O   0  0  0  0  0  1  0  0  0  0  0  0
  198.2540  174.6120  137.0260 P   0  0  0  0  0  0  0  0  0  0  0  0
  188.7920  177.2430  140.0650 N   0  0  0  0  0  2  0  0  0  0  0  0
  189.0580  178.1870  141.1360 C   0  0  1  0  0  3  0  0  0  0  0  0
  187.7660  178.5830  141.8480 C   0  0  0  0  0  2  0  0  0  0  0  0
  187.2250  177.4620  142.6000 N   0  0  0  0  0  2  0  0  0  0  0  0
  186.1030  177.8470  144.8710 N   0  0  0  0  0  0  0  0  0  0  0  0
  186.6080  177.6710  143.8440 C   0  0  0  0  0  0  0  0  0  0  0  0
  190.0340  177.5640  142.1150 C   0  0  0  0  0  2  0  0  0  0  0  0
  190.2820  177.7760  144.5720 C   0  0  0  0  0  2  0  0  0  0  0  0
  190.3370  178.5190  143.2480 C   0  0  0  0  0  3  0  0  0  0  0  0
  191.6200  178.0750  143.9200 C   0  0  0  0  0  2  0  0  0  0  0  0
  186.0540  178.3750  138.0400 C   0  0  0  0  0  2  0  0  0  0  0  0
  185.5990  178.9500  139.2940 N   0  0  0  0  0  2  0  0  0  0  0  0
  182.7060  178.8100  141.3570 O   0  0  0  0  0  0  0  0  0  0  0  0
  184.3330  178.3190  139.6370 C   0  0  1  0  0  3  0  0  0  0  0  0
  181.0900  177.1140  138.4130 C   0  0  0  0  0  2  0  0  0  0  0  0
  182.0970  178.7090  140.0980 C   0  0  2  0  0  0  0  0  0  0  0  0
  184.0600  178.4320  141.1400 C   0  0  0  0  0  2  0  0  0  0  0  0
  180.5450  179.5430  138.3400 C   0  0  0  0  0  2  0  0  0  0  0  0
  182.7850  178.6550  137.7420 O   0  0  0  0  0  0  0  0  0  0  0  0
  180.9150  179.6480  139.8490 C   0  0  0  0  0  2  0  0  0  0  0  0
  183.4160  180.4350  139.0590 O   0  0  0  0  0  1  0  0  0  0  0  0
  181.3780  178.4130  137.6530 C   0  0  1  0  0  3  0  0  0  0  0  0
  181.5780  177.2700  139.8640 C   0  0  0  0  0  2  0  0  0  0  0  0
  183.1580  179.0590  139.0590 C   0  0  2  0  0  0  0  0  0  0  0  0
  1 24  1  1  0  0  0
  2  4  2  0  0  0  0
  3 34  1  6  0  0  0
  3  1  1  0  0  0  0
  4  3  1  0  0  0  0
  5  1  1  0  0  0  0
  6  4  1  1  0  0  0
  6  5  1  0  0  0  0
  7 16  1  0  0  0  0
  7 17  1  0  0  0  0
  8 16  1  0  0  0  0
  8 12  2  0  0  0  0
  9 14  2  0  0  0  0
 12 11  1  0  0  0  0
 13  9  1  0  0  0  0
 13  6  1  0  0  0  0
 13 11  1  1  0  0  0
 14 15  1  0  0  0  0
 14  8  1  0  0  0  0
 15 10  1  6  0  0  0
 15  7  1  0  0  0  0
 18 17  1  0  0  0  0
 19 18  1  0  0  0  0
 20 23  2  0  0  0  0
 22 23  1  0  0  0  0
 23 21  1  0  0  0  0
 23 19  1  0  0  0  0
 24 25  1  0  0  0  0
 25 26  1  1  0  0  0
 25 30  1  0  0  0  0
 26 27  1  0  0  0  0
 27 29  1  0  0  0  0
 29 28  3  0  0  0  0
 30 32  1  0  0  0  0
 32 33  1  0  0  0  0
 32 31  1  0  0  0  0
 33 31  1  0  0  0  0
 34 35  1  0  0  0  0
 37 35  1  1  0  0  0
 37 40  1  0  0  0  0
 38 46  1  0  0  0  0
 39 43  1  6  0  0  0
 39 36  1  0  0  0  0
 40 36  1  0  0  0  0
 41 43  1  0  0  0  0
 42 47  1  0  0  0  0
 45 42  1  0  0  0  0
 45 41  1  1  0  0  0
 45 38  1  0  0  0  0
 46 39  1  0  0  0  0
 47 44  1  1  0  0  0
 47 37  1  0  0  0  0
 47 39  1  0  0  0  0
M  END
>  <MODEL>
1

>  <REMARK>
 VINA RESULT:      -6.9      0.000      0.000
  Name = 
  15 active torsions:
  status: ('A' for Active; 'I' for Inactive)
    1  A    between atoms: C_1  and  N_5
    2  A    between atoms: C_1  and  C_10
    3  A    between atoms: N_3  and  C_14
    4  A    between atoms: N_3  and  C_17
    5  A    between atoms: C_4  and  N_7
    6  A    between atoms: N_5  and  C_38
    7  A    between atoms: N_7  and  C_10
    8  A    between atoms: N_8  and  C_22
    9  A    between atoms: C_10  and  C_47
   10  A    between atoms: C_14  and  C_18
   11  A    between atoms: C_22  and  C_45
   12  A    between atoms: O_24  and  C_45
   13  A    between atoms: O_24  and  P_46
   14  A    between atoms: C_33  and  C_36
   15  A    between atoms: C_34  and  C_47
                            x       y       z     vdW  Elec       q    Type
                         _______ _______ _______ _____ _____    ______ ____

>  <TORSDO>
F 15

$$$$
=
 OpenBabel10222421423D

 47 53  0  0  1  0  0  0  0  0999 V2000
  189.6080  176.8530  139.0110 C   0  0  2  0  0  3  0  0  0  0  0  0
  188.6820  177.7540  135.6340 C   0  0  0  0  0  2  0  0  0  0  0  0
  190.0620  177.3710  137.6580 C   0  0  2  0  0  3  0  0  0  0  0  0
  188.7960  177.4240  136.9220 C   0  0  0  0  0  0  0  0  0  0  0  0
  188.2530  176.4440  138.9710 O   0  0  0  0  0  0  0  0  0  0  0  0
  187.7060  176.8320  137.7320 C   0  0  1  0  0  3  0  0  0  0  0  0
  181.9660  178.3510  138.7470 N   0  0  0  0  0  0  0  0  0  0  0  0
  184.2190  178.7700  139.0840 C   0  0  0  0  0  0  0  0  0  0  0  0
  185.2380  177.1810  137.6520 N   0  0  0  0  0  0  0  0  0  0  0  0
  182.3790  177.5230  136.4820 C   0  0  0  0  0  1  0  0  0  0  0  0
  186.5650  178.4040  139.3940 C   0  0  0  0  0  2  0  0  0  0  0  0
  185.3070  179.1120  139.6970 N   0  0  0  0  0  0  0  0  0  0  0  0
  186.5420  177.7870  137.9760 C   0  0  1  0  0  3  0  0  0  0  0  0
  184.1700  177.7330  138.1410 C   0  0  0  0  0  0  0  0  0  0  0  0
  182.7430  177.3700  137.9430 C   0  0  1  0  0  3  0  0  0  0  0  0
  182.9110  179.1430  139.4370 N   0  0  0  0  0  2  0  0  0  0  0  0
  181.2320  177.6030  139.7530 C   0  0  0  0  0  2  0  0  0  0  0  0
  180.3030  178.5290  140.5080 C   0  0  0  0  0  2  0  0  0  0  0  0
  179.9820  177.9750  141.7520 O   0  0  0  0  0  0  0  0  0  0  0  0
  182.3530  178.9400  142.8220 O   0  0  0  0  0  1  0  0  0  0  0  0
  180.1780  180.6170  142.5700 O   0  0  0  0  0  0  0  0  0  0  0  0
  180.1940  178.6400  144.2760 O   0  0  0  0  0  1  0  0  0  0  0  0
  180.6650  179.0280  142.8940 P   0  0  0  0  0  0  0  0  0  0  0  0
  189.7900  177.8880  140.0180 N   0  0  0  0  0  2  0  0  0  0  0  0
  189.9570  177.2500  141.3120 C   0  0  1  0  0  3  0  0  0  0  0  0
  191.4090  177.3350  141.7790 C   0  0  0  0  0  2  0  0  0  0  0  0
  191.6460  176.4370  142.8980 N   0  0  0  0  0  2  0  0  0  0  0  0
  191.3690  177.2600  145.3100 N   0  0  0  0  0  0  0  0  0  0  0  0
  191.4940  176.8910  144.2190 C   0  0  0  0  0  0  0  0  0  0  0  0
  189.0360  177.9170  142.3160 C   0  0  0  0  0  2  0  0  0  0  0  0
  187.7000  176.8820  144.1280 C   0  0  0  0  0  2  0  0  0  0  0  0
  187.8510  177.0290  142.6250 C   0  0  0  0  0  3  0  0  0  0  0  0
  186.8150  177.8510  143.3640 C   0  0  0  0  0  2  0  0  0  0  0  0
  191.0090  176.3610  137.0090 C   0  0  0  0  0  2  0  0  0  0  0  0
  192.2420  176.2440  137.7670 N   0  0  0  0  0  2  0  0  0  0  0  0
  193.4810  174.0470  135.2610 O   0  0  0  0  0  0  0  0  0  0  0  0
  192.8660  174.9800  137.4050 C   0  0  1  0  0  3  0  0  0  0  0  0
  195.6470  172.6620  138.0070 C   0  0  0  0  0  2  0  0  0  0  0  0
  194.5570  174.0010  136.1590 C   0  0  2  0  0  0  0  0  0  0  0  0
  192.3780  174.5080  136.0310 C   0  0  0  0  0  2  0  0  0  0  0  0
  196.9510  174.3590  136.7330 C   0  0  0  0  0  2  0  0  0  0  0  0
  195.1550  174.9750  138.3320 O   0  0  0  0  0  0  0  0  0  0  0  0
  195.9450  174.2130  135.5540 C   0  0  0  0  0  2  0  0  0  0  0  0
  194.6110  176.3710  136.5840 O   0  0  0  0  0  1  0  0  0  0  0  0
  196.2390  174.0720  138.0950 C   0  0  1  0  0  3  0  0  0  0  0  0
  194.5920  172.6360  136.8870 C   0  0  0  0  0  2  0  0  0  0  0  0
  194.3440  175.1270  137.1680 C   0  0  2  0  0  0  0  0  0  0  0  0
  1 24  1  1  0  0  0
  2  4  2  0  0  0  0
  3 34  1  6  0  0  0
  3  1  1  0  0  0  0
  4  3  1  0  0  0  0
  5  1  1  0  0  0  0
  6  4  1  6  0  0  0
  6 13  1  0  0  0  0
  6  5  1  0  0  0  0
  7 16  1  0  0  0  0
  7 17  1  0  0  0  0
  8 16  1  0  0  0  0
  8 12  2  0  0  0  0
  9 13  1  0  0  0  0
  9 14  2  0  0  0  0
 11 12  1  0  0  0  0
 13 11  1  1  0  0  0
 14  8  1  0  0  0  0
 15 10  1  6  0  0  0
 15 14  1  0  0  0  0
 15  7  1  0  0  0  0
 17 18  1  0  0  0  0
 18 19  1  0  0  0  0
 19 23  1  0  0  0  0
 20 23  1  0  0  0  0
 21 23  2  0  0  0  0
 23 22  1  0  0  0  0
 24 25  1  0  0  0  0
 25 26  1  1  0  0  0
 25 30  1  0  0  0  0
 26 27  1  0  0  0  0
 27 29  1  0  0  0  0
 29 28  3  0  0  0  0
 30 32  1  0  0  0  0
 32 33  1  0  0  0  0
 32 31  1  0  0  0  0
 33 31  1  0  0  0  0
 34 35  1  0  0  0  0
 36 40  1  0  0  0  0
 36 39  1  0  0  0  0
 37 35  1  6  0  0  0
 38 45  1  0  0  0  0
 39 43  1  6  0  0  0
 39 46  1  0  0  0  0
 39 47  1  0  0  0  0
 40 37  1  0  0  0  0
 43 41  1  0  0  0  0
 45 41  1  6  0  0  0
 45 42  1  0  0  0  0
 46 38  1  0  0  0  0
 47 44  1  6  0  0  0
 47 37  1  0  0  0  0
 47 42  1  0  0  0  0
M  END
>  <MODEL>
2

>  <REMARK>
 VINA RESULT:      -6.8      3.542     11.038
  Name = 
  15 active torsions:
  status: ('A' for Active; 'I' for Inactive)
    1  A    between atoms: C_1  and  N_5
    2  A    between atoms: C_1  and  C_10
    3  A    between atoms: N_3  and  C_14
    4  A    between atoms: N_3  and  C_17
    5  A    between atoms: C_4  and  N_7
    6  A    between atoms: N_5  and  C_38
    7  A    between atoms: N_7  and  C_10
    8  A    between atoms: N_8  and  C_22
    9  A    between atoms: C_10  and  C_47
   10  A    between atoms: C_14  and  C_18
   11  A    between atoms: C_22  and  C_45
   12  A    between atoms: O_24  and  C_45
   13  A    between atoms: O_24  and  P_46
   14  A    between atoms: C_33  and  C_36
   15  A    between atoms: C_34  and  C_47
                            x       y       z     vdW  Elec       q    Type
                         _______ _______ _______ _____ _____    ______ ____

>  <TORSDO>
F 15

$$$$
=
 OpenBabel10222421423D

 47 53  0  0  1  0  0  0  0  0999 V2000
  187.9300  177.7700  138.0440 C   0  0  2  0  0  3  0  0  0  0  0  0
  186.8110  175.2430  135.7120 C   0  0  0  0  0  2  0  0  0  0  0  0
  186.8210  176.8220  137.6230 C   0  0  2  0  0  3  0  0  0  0  0  0
  187.4340  176.1370  136.4820 C   0  0  0  0  0  0  0  0  0  0  0  0
  188.9810  177.7750  137.0940 O   0  0  0  0  0  0  0  0  0  0  0  0
  188.7440  176.7480  136.1590 C   0  0  1  0  0  3  0  0  0  0  0  0
  194.3190  174.8660  137.4440 N   0  0  0  0  0  0  0  0  0  0  0  0
  192.0670  174.3800  137.2010 C   0  0  0  0  0  0  0  0  0  0  0  0
  191.2080  176.4230  136.3670 N   0  0  0  0  0  0  0  0  0  0  0  0
  194.2320  176.5350  135.6580 C   0  0  0  0  0  1  0  0  0  0  0  0
  189.6860  174.6260  137.2300 C   0  0  0  0  0  2  0  0  0  0  0  0
  190.9150  173.8380  137.4350 N   0  0  0  0  0  0  0  0  0  0  0  0
  189.9040  175.7580  136.1980 C   0  0  1  0  0  3  0  0  0  0  0  0
  192.2110  175.7070  136.7690 C   0  0  0  0  0  0  0  0  0  0  0  0
  193.6300  176.0970  136.9750 C   0  0  1  0  0  3  0  0  0  0  0  0
  193.3200  173.8780  137.5940 N   0  0  0  0  0  2  0  0  0  0  0  0
  194.8400  175.1380  138.7720 C   0  0  0  0  0  2  0  0  0  0  0  0
  195.9540  174.1670  139.0980 C   0  0  0  0  0  2  0  0  0  0  0  0
  197.1410  174.8660  139.3490 O   0  0  0  0  0  0  0  0  0  0  0  0
  197.9100  172.9910  137.4540 O   0  0  0  0  0  1  0  0  0  0  0  0
  197.6850  175.6470  136.7440 O   0  0  0  0  0  0  0  0  0  0  0  0
  199.5630  174.8130  138.3560 O   0  0  0  0  0  1  0  0  0  0  0  0
  198.1160  174.5830  137.9890 P   0  0  0  0  0  0  0  0  0  0  0  0
  188.4370  177.3820  139.3520 N   0  0  0  0  0  2  0  0  0  0  0  0
  187.9740  178.3480  140.3320 C   0  0  1  0  0  3  0  0  0  0  0  0
  186.4750  178.1980  140.5810 C   0  0  0  0  0  2  0  0  0  0  0  0
  185.9160  179.4260  141.1250 N   0  0  0  0  0  2  0  0  0  0  0  0
  184.7530  179.4250  143.4080 N   0  0  0  0  0  0  0  0  0  0  0  0
  185.2810  179.4240  142.3770 C   0  0  0  0  0  0  0  0  0  0  0  0
  188.7480  178.1540  141.6220 C   0  0  0  0  0  2  0  0  0  0  0  0
  189.2600  176.3330  143.2230 C   0  0  0  0  0  2  0  0  0  0  0  0
  188.1610  177.0190  142.4320 C   0  0  0  0  0  3  0  0  0  0  0  0
  188.3440  177.3350  143.9020 C   0  0  0  0  0  2  0  0  0  0  0  0
  185.6010  177.6240  137.1660 C   0  0  0  0  0  2  0  0  0  0  0  0
  184.3830  176.8470  137.3170 N   0  0  0  0  0  2  0  0  0  0  0  0
  180.9810  177.8080  136.9310 O   0  0  0  0  0  0  0  0  0  0  0  0
  183.3010  177.7740  137.6140 C   0  0  1  0  0  3  0  0  0  0  0  0
  181.4480  179.5740  140.2200 C   0  0  0  0  0  2  0  0  0  0  0  0
  181.1010  177.9380  138.3220 C   0  0  2  0  0  0  0  0  0  0  0  0
  182.3160  177.8510  136.4420 C   0  0  0  0  0  2  0  0  0  0  0  0
  180.4480  177.3330  140.6460 C   0  0  0  0  0  2  0  0  0  0  0  0
  182.8350  177.6400  140.0350 O   0  0  0  0  0  0  0  0  0  0  0  0
  180.0040  177.2730  139.1550 C   0  0  0  0  0  2  0  0  0  0  0  0
  182.3060  175.8790  138.6500 O   0  0  0  0  0  1  0  0  0  0  0  0
  181.7500  178.1850  140.7930 C   0  0  1  0  0  3  0  0  0  0  0  0
  181.1190  179.4330  138.7230 C   0  0  0  0  0  2  0  0  0  0  0  0
  182.4150  177.2730  138.7210 C   0  0  2  0  0  0  0  0  0  0  0  0
  1 24  1  1  0  0  0
  2  4  2  0  0  0  0
  3 34  1  6  0  0  0
  3  1  1  0  0  0  0
  4  3  1  0  0  0  0
  5  1  1  0  0  0  0
  6 13  1  0  0  0  0
  6  4  1  1  0  0  0
  6  5  1  0  0  0  0
  7 16  1  0  0  0  0
  7 17  1  0  0  0  0
  8 12  2  0  0  0  0
  8 16  1  0  0  0  0
  9 14  2  0  0  0  0
 11 12  1  0  0  0  0
 13  9  1  0  0  0  0
 13 11  1  1  0  0  0
 14 15  1  0  0  0  0
 14  8  1  0  0  0  0
 15 10  1  6  0  0  0
 15  7  1  0  0  0  0
 17 18  1  0  0  0  0
 18 19  1  0  0  0  0
 20 23  1  0  0  0  0
 21 23  2  0  0  0  0
 23 22  1  0  0  0  0
 23 19  1  0  0  0  0
 24 25  1  0  0  0  0
 25 26  1  1  0  0  0
 25 30  1  0  0  0  0
 26 27  1  0  0  0  0
 27 29  1  0  0  0  0
 29 28  3  0  0  0  0
 30 32  1  0  0  0  0
 31 33  1  0  0  0  0
 32 31  1  0  0  0  0
 32 33  1  0  0  0  0
 34 35  1  0  0  0  0
 36 39  1  0  0  0  0
 37 35  1  6  0  0  0
 37 47  1  0  0  0  0
 39 47  1  0  0  0  0
 39 46  1  1  0  0  0
 39 43  1  0  0  0  0
 40 36  1  0  0  0  0
 40 37  1  0  0  0  0
 41 45  1  0  0  0  0
 42 45  1  0  0  0  0
 43 41  1  0  0  0  0
 45 38  1  6  0  0  0
 46 38  1  0  0  0  0
 47 44  1  6  0  0  0
 47 42  1  0  0  0  0
M  END
>  <MODEL>
3

>  <REMARK>
 VINA RESULT:      -6.4      1.404      2.230
  Name = 
  15 active torsions:
  status: ('A' for Active; 'I' for Inactive)
    1  A    between atoms: C_1  and  N_5
    2  A    between atoms: C_1  and  C_10
    3  A    between atoms: N_3  and  C_14
    4  A    between atoms: N_3  and  C_17
    5  A    between atoms: C_4  and  N_7
    6  A    between atoms: N_5  and  C_38
    7  A    between atoms: N_7  and  C_10
    8  A    between atoms: N_8  and  C_22
    9  A    between atoms: C_10  and  C_47
   10  A    between atoms: C_14  and  C_18
   11  A    between atoms: C_22  and  C_45
   12  A    between atoms: O_24  and  C_45
   13  A    between atoms: O_24  and  P_46
   14  A    between atoms: C_33  and  C_36
   15  A    between atoms: C_34  and  C_47
                            x       y       z     vdW  Elec       q    Type
                         _______ _______ _______ _____ _____    ______ ____

>  <TORSDO>
F 15

$$$$
=
 OpenBabel10222421423D

 47 53  0  0  1  0  0  0  0  0999 V2000
  187.9450  178.4510  137.9690 C   0  0  2  0  0  3  0  0  0  0  0  0
  188.0830  175.1680  136.4600 C   0  0  0  0  0  2  0  0  0  0  0  0
  187.5010  177.0000  138.0260 C   0  0  2  0  0  3  0  0  0  0  0  0
  188.2110  176.4280  136.8780 C   0  0  0  0  0  0  0  0  0  0  0  0
  188.6590  178.7180  136.7740 O   0  0  0  0  0  0  0  0  0  0  0  0
  188.8940  177.4970  136.1120 C   0  0  1  0  0  3  0  0  0  0  0  0
  194.2810  175.2620  137.6190 N   0  0  0  0  0  0  0  0  0  0  0  0
  192.8090  175.9490  135.9670 C   0  0  0  0  0  0  0  0  0  0  0  0
  191.0200  176.8400  137.2390 N   0  0  0  0  0  0  0  0  0  0  0  0
  193.4490  176.9560  139.1740 C   0  0  0  0  0  1  0  0  0  0  0  0
  190.7650  176.3610  134.7900 C   0  0  0  0  0  2  0  0  0  0  0  0
  192.1840  175.9610  134.8330 N   0  0  0  0  0  0  0  0  0  0  0  0
  190.3990  177.2820  135.9780 C   0  0  1  0  0  3  0  0  0  0  0  0
  192.1920  176.2870  137.1810 C   0  0  0  0  0  0  0  0  0  0  0  0
  193.0630  175.7980  138.2810 C   0  0  1  0  0  3  0  0  0  0  0  0
  194.0520  175.3480  136.2270 N   0  0  0  0  0  2  0  0  0  0  0  0
  194.3650  173.8480  137.9420 C   0  0  0  0  0  2  0  0  0  0  0  0
  195.6720  173.5580  138.6470 C   0  0  0  0  0  2  0  0  0  0  0  0
  196.3570  174.7520  138.8980 O   0  0  0  0  0  0  0  0  0  0  0  0
  197.7510  175.6220  136.6630 O   0  0  0  0  0  0  0  0  0  0  0  0
  199.1060  175.0940  139.0060 O   0  0  0  0  0  1  0  0  0  0  0  0
  198.0070  173.1880  137.5990 O   0  0  0  0  0  1  0  0  0  0  0  0
  197.8070  174.6230  138.0270 P   0  0  0  0  0  0  0  0  0  0  0  0
  188.7730  178.7570  139.1260 N   0  0  0  0  0  2  0  0  0  0  0  0
  188.4900  177.7830  140.1660 C   0  0  1  0  0  3  0  0  0  0  0  0
  189.7440  176.9890  140.5260 C   0  0  0  0  0  2  0  0  0  0  0  0
  190.5650  177.7210  141.4780 N   0  0  0  0  0  2  0  0  0  0  0  0
  191.6620  176.5080  143.4510 N   0  0  0  0  0  0  0  0  0  0  0  0
  191.1670  177.0550  142.5580 C   0  0  0  0  0  0  0  0  0  0  0  0
  187.9500  178.5050  141.3860 C   0  0  0  0  0  2  0  0  0  0  0  0
  187.4620  177.1750  143.4200 C   0  0  0  0  0  2  0  0  0  0  0  0
  186.9120  177.6590  142.0900 C   0  0  0  0  0  3  0  0  0  0  0  0
  186.5130  178.3590  143.3730 C   0  0  0  0  0  2  0  0  0  0  0  0
  185.9900  176.9130  137.8100 C   0  0  0  0  0  2  0  0  0  0  0  0
  185.3240  178.1000  138.3170 N   0  0  0  0  0  2  0  0  0  0  0  0
  182.1940  176.5010  138.8570 O   0  0  0  0  0  0  0  0  0  0  0  0
  183.9070  177.9800  138.0050 C   0  0  1  0  0  3  0  0  0  0  0  0
  180.7030  179.7280  137.6250 C   0  0  0  0  0  2  0  0  0  0  0  0
  181.7820  177.8400  138.9170 C   0  0  2  0  0  0  0  0  0  0  0  0
  183.4370  176.5300  138.1670 C   0  0  0  0  0  2  0  0  0  0  0  0
  180.7650  179.7700  140.1150 C   0  0  0  0  0  2  0  0  0  0  0  0
  182.7980  180.0670  138.7200 O   0  0  0  0  0  0  0  0  0  0  0  0
  180.9090  178.2200  140.1150 C   0  0  0  0  0  2  0  0  0  0  0  0
  183.6170  178.5900  140.2850 O   0  0  0  0  0  1  0  0  0  0  0  0
  181.4050  180.3770  138.8240 C   0  0  1  0  0  3  0  0  0  0  0  0
  180.9820  178.2150  137.6470 C   0  0  0  0  0  2  0  0  0  0  0  0
  183.0450  178.6920  139.0110 C   0  0  2  0  0  0  0  0  0  0  0  0
  1  3  1  0  0  0  0
  1 24  1  1  0  0  0
  2  4  2  0  0  0  0
  3 34  1  6  0  0  0
  4  3  1  0  0  0  0
  5  1  1  0  0  0  0
  6  5  1  1  0  0  0
  6  4  1  0  0  0  0
  7 17  1  0  0  0  0
  7 15  1  0  0  0  0
  8 16  1  0  0  0  0
  8 14  1  0  0  0  0
 11 12  1  0  0  0  0
 12  8  2  0  0  0  0
 13 11  1  6  0  0  0
 13  6  1  0  0  0  0
 13  9  1  0  0  0  0
 14  9  2  0  0  0  0
 14 15  1  0  0  0  0
 15 10  1  1  0  0  0
 16  7  1  0  0  0  0
 17 18  1  0  0  0  0
 18 19  1  0  0  0  0
 20 23  2  0  0  0  0
 22 23  1  0  0  0  0
 23 19  1  0  0  0  0
 23 21  1  0  0  0  0
 24 25  1  0  0  0  0
 25 26  1  1  0  0  0
 25 30  1  0  0  0  0
 26 27  1  0  0  0  0
 27 29  1  0  0  0  0
 29 28  3  0  0  0  0
 30 32  1  0  0  0  0
 32 33  1  0  0  0  0
 32 31  1  0  0  0  0
 33 31  1  0  0  0  0
 34 35  1  0  0  0  0
 36 39  1  0  0  0  0
 37 40  1  0  0  0  0
 37 35  1  1  0  0  0
 37 47  1  0  0  0  0
 38 46  1  0  0  0  0
 39 46  1  6  0  0  0
 39 47  1  0  0  0  0
 39 43  1  0  0  0  0
 40 36  1  0  0  0  0
 41 43  1  0  0  0  0
 42 45  1  0  0  0  0
 42 47  1  0  0  0  0
 45 38  1  6  0  0  0
 45 41  1  0  0  0  0
 47 44  1  1  0  0  0
M  END
>  <MODEL>
4

>  <REMARK>
 VINA RESULT:      -6.3      1.664      2.406
  Name = 
  15 active torsions:
  status: ('A' for Active; 'I' for Inactive)
    1  A    between atoms: C_1  and  N_5
    2  A    between atoms: C_1  and  C_10
    3  A    between atoms: N_3  and  C_14
    4  A    between atoms: N_3  and  C_17
    5  A    between atoms: C_4  and  N_7
    6  A    between atoms: N_5  and  C_38
    7  A    between atoms: N_7  and  C_10
    8  A    between atoms: N_8  and  C_22
    9  A    between atoms: C_10  and  C_47
   10  A    between atoms: C_14  and  C_18
   11  A    between atoms: C_22  and  C_45
   12  A    between atoms: O_24  and  C_45
   13  A    between atoms: O_24  and  P_46
   14  A    between atoms: C_33  and  C_36
   15  A    between atoms: C_34  and  C_47
                            x       y       z     vdW  Elec       q    Type
                         _______ _______ _______ _____ _____    ______ ____

>  <TORSDO>
F 15

$$$$
=
 OpenBabel10222421423D

 47 53  0  0  1  0  0  0  0  0999 V2000
  190.9220  176.2880  139.2230 C   0  0  2  0  0  3  0  0  0  0  0  0
  190.8740  176.4410  135.6100 C   0  0  0  0  0  2  0  0  0  0  0  0
  191.6960  176.5660  137.9460 C   0  0  2  0  0  3  0  0  0  0  0  0
  190.6610  176.3770  136.9260 C   0  0  0  0  0  0  0  0  0  0  0  0
  189.6340  175.7760  138.9350 O   0  0  0  0  0  0  0  0  0  0  0  0
  189.4140  175.8730  137.5460 C   0  0  1  0  0  3  0  0  0  0  0  0
  183.5800  177.3680  137.6230 N   0  0  0  0  0  0  0  0  0  0  0  0
  185.7980  178.0210  137.7640 C   0  0  0  0  0  0  0  0  0  0  0  0
  186.9400  176.0060  137.2670 N   0  0  0  0  0  0  0  0  0  0  0  0
  184.1220  175.6000  136.0220 C   0  0  0  0  0  1  0  0  0  0  0  0
  188.1420  177.9750  138.2530 C   0  0  0  0  0  2  0  0  0  0  0  0
  186.8450  178.6700  138.1640 N   0  0  0  0  0  0  0  0  0  0  0  0
  188.2030  176.7640  137.2910 C   0  0  1  0  0  3  0  0  0  0  0  0
  185.8310  176.6620  137.4190 C   0  0  0  0  0  0  0  0  0  0  0  0
  184.4290  176.1700  137.3890 C   0  0  1  0  0  3  0  0  0  0  0  0
  184.4630  178.4420  137.8770 N   0  0  0  0  0  2  0  0  0  0  0  0
  182.8350  177.1400  138.8490 C   0  0  0  0  0  2  0  0  0  0  0  0
  182.9630  178.3410  139.7610 C   0  0  0  0  0  2  0  0  0  0  0  0
  182.6860  177.9710  141.0820 O   0  0  0  0  0  0  0  0  0  0  0  0
  180.7950  179.8220  140.2480 O   0  0  0  0  0  0  0  0  0  0  0  0
  179.9840  177.4900  141.4770 O   0  0  0  0  0  1  0  0  0  0  0  0
  181.2590  179.3570  142.7850 O   0  0  0  0  0  1  0  0  0  0  0  0
  181.1860  178.6810  141.4350 P   0  0  0  0  0  0  0  0  0  0  0  0
  190.8130  177.5110  140.0050 N   0  0  0  0  0  2  0  0  0  0  0  0
  190.6130  177.1520  141.3980 C   0  0  1  0  0  3  0  0  0  0  0  0
  191.8820  177.3980  142.2130 C   0  0  0  0  0  2  0  0  0  0  0  0
  191.5620  177.9930  143.5010 N   0  0  0  0  0  2  0  0  0  0  0  0
  191.6020  176.5700  145.6320 N   0  0  0  0  0  0  0  0  0  0  0  0
  191.5810  177.2130  144.6690 C   0  0  0  0  0  0  0  0  0  0  0  0
  189.4580  177.9600  141.9570 C   0  0  0  0  0  2  0  0  0  0  0  0
  187.8570  177.2120  143.6940 C   0  0  0  0  0  2  0  0  0  0  0  0
  188.2700  177.0670  142.2400 C   0  0  0  0  0  3  0  0  0  0  0  0
  187.0890  177.9420  142.6070 C   0  0  0  0  0  2  0  0  0  0  0  0
  192.8030  175.5250  137.7750 C   0  0  0  0  0  2  0  0  0  0  0  0
  194.0480  176.1540  137.3690 N   0  0  0  0  0  2  0  0  0  0  0  0
  196.7910  175.4570  135.2150 O   0  0  0  0  0  0  0  0  0  0  0  0
  194.6930  175.2750  136.4040 C   0  0  1  0  0  3  0  0  0  0  0  0
  195.7870  171.8560  135.6390 C   0  0  0  0  0  2  0  0  0  0  0  0
  196.6780  174.2140  135.8540 C   0  0  2  0  0  0  0  0  0  0  0  0
  195.5290  176.0840  135.4070 C   0  0  0  0  0  2  0  0  0  0  0  0
  197.5960  172.3850  137.2690 C   0  0  0  0  0  2  0  0  0  0  0  0
  195.2580  173.1690  137.5630 O   0  0  0  0  0  0  0  0  0  0  0  0
  197.9760  173.6260  136.4100 C   0  0  0  0  0  2  0  0  0  0  0  0
  196.3830  175.1130  138.0690 O   0  0  0  0  0  1  0  0  0  0  0  0
  196.0700  172.0720  137.1300 C   0  0  1  0  0  3  0  0  0  0  0  0
  196.0930  173.1610  134.8830 C   0  0  0  0  0  2  0  0  0  0  0  0
  195.7420  174.4070  137.0440 C   0  0  2  0  0  0  0  0  0  0  0  0
  1 24  1  6  0  0  0
  2  4  2  0  0  0  0
  3 34  1  6  0  0  0
  3  1  1  0  0  0  0
  4  3  1  0  0  0  0
  5  1  1  0  0  0  0
  6  4  1  6  0  0  0
  6  5  1  0  0  0  0
  7 16  1  0  0  0  0
  7 17  1  0  0  0  0
  8 16  1  0  0  0  0
  8 12  2  0  0  0  0
  9 13  1  0  0  0  0
  9 14  2  0  0  0  0
 12 11  1  0  0  0  0
 13  6  1  0  0  0  0
 13 11  1  1  0  0  0
 14  8  1  0  0  0  0
 15 10  1  6  0  0  0
 15 14  1  0  0  0  0
 15  7  1  0  0  0  0
 17 18  1  0  0  0  0
 18 19  1  0  0  0  0
 19 23  1  0  0  0  0
 20 23  2  0  0  0  0
 23 21  1  0  0  0  0
 23 22  1  0  0  0  0
 24 25  1  0  0  0  0
 25 30  1  1  0  0  0
 25 26  1  0  0  0  0
 26 27  1  0  0  0  0
 27 29  1  0  0  0  0
 29 28  3  0  0  0  0
 30 32  1  0  0  0  0
 32 33  1  0  0  0  0
 32 31  1  0  0  0  0
 33 31  1  0  0  0  0
 35 34  1  0  0  0  0
 36 40  1  0  0  0  0
 36 39  1  0  0  0  0
 37 47  1  0  0  0  0
 37 35  1  1  0  0  0
 39 46  1  6  0  0  0
 39 43  1  0  0  0  0
 39 47  1  0  0  0  0
 40 37  1  0  0  0  0
 43 41  1  0  0  0  0
 45 38  1  6  0  0  0
 45 41  1  0  0  0  0
 45 42  1  0  0  0  0
 46 38  1  0  0  0  0
 47 42  1  0  0  0  0
 47 44  1  1  0  0  0
M  END
>  <MODEL>
5

>  <REMARK>
 VINA RESULT:      -6.2      3.438     11.071
  Name = 
  15 active torsions:
  status: ('A' for Active; 'I' for Inactive)
    1  A    between atoms: C_1  and  N_5
    2  A    between atoms: C_1  and  C_10
    3  A    between atoms: N_3  and  C_14
    4  A    between atoms: N_3  and  C_17
    5  A    between atoms: C_4  and  N_7
    6  A    between atoms: N_5  and  C_38
    7  A    between atoms: N_7  and  C_10
    8  A    between atoms: N_8  and  C_22
    9  A    between atoms: C_10  and  C_47
   10  A    between atoms: C_14  and  C_18
   11  A    between atoms: C_22  and  C_45
   12  A    between atoms: O_24  and  C_45
   13  A    between atoms: O_24  and  P_46
   14  A    between atoms: C_33  and  C_36
   15  A    between atoms: C_34  and  C_47
                            x       y       z     vdW  Elec       q    Type
                         _______ _______ _______ _____ _____    ______ ____

>  <TORSDO>
F 15

$$$$
=
 OpenBabel10222421423D

 47 53  0  0  1  0  0  0  0  0999 V2000
  190.0210  174.9300  137.3280 C   0  0  2  0  0  3  0  0  0  0  0  0
  192.8600  176.9740  138.2420 C   0  0  0  0  0  2  0  0  0  0  0  0
  190.5530  176.3240  137.6070 C   0  0  2  0  0  3  0  0  0  0  0  0
  191.9690  176.0530  137.8680 C   0  0  0  0  0  0  0  0  0  0  0  0
  190.9960  173.9450  137.6220 O   0  0  0  0  0  0  0  0  0  0  0  0
  192.2160  174.5930  137.8960 C   0  0  1  0  0  3  0  0  0  0  0  0
  197.5320  172.3920  136.1130 N   0  0  0  0  0  0  0  0  0  0  0  0
  195.2480  172.5780  135.7770 C   0  0  0  0  0  0  0  0  0  0  0  0
  194.6270  174.1380  137.4480 N   0  0  0  0  0  0  0  0  0  0  0  0
  197.6610  174.6590  137.0240 C   0  0  0  0  0  1  0  0  0  0  0  0
  192.9050  172.7800  136.2290 C   0  0  0  0  0  2  0  0  0  0  0  0
  194.0400  172.2340  135.4620 N   0  0  0  0  0  0  0  0  0  0  0  0
  193.2640  174.1340  136.8870 C   0  0  1  0  0  3  0  0  0  0  0  0
  195.5400  173.4470  136.8390 C   0  0  0  0  0  0  0  0  0  0  0  0
  196.9870  173.3100  137.1480 C   0  0  1  0  0  3  0  0  0  0  0  0
  196.4310  171.9590  135.3410 N   0  0  0  0  0  2  0  0  0  0  0  0
  198.0480  171.2210  136.8000 C   0  0  0  0  0  2  0  0  0  0  0  0
  197.2800  169.9900  136.3680 C   0  0  0  0  0  2  0  0  0  0  0  0
  197.1610  169.0990  137.4410 O   0  0  0  0  0  0  0  0  0  0  0  0
  195.1100  170.5340  138.6380 O   0  0  0  0  0  1  0  0  0  0  0  0
  194.5850  168.9770  136.4220 O   0  0  0  0  0  0  0  0  0  0  0  0
  195.2100  167.9170  138.7260 O   0  0  0  0  0  1  0  0  0  0  0  0
  195.5110  169.0990  137.8350 P   0  0  0  0  0  0  0  0  0  0  0  0
  189.6120  174.8310  135.9340 N   0  0  0  0  0  2  0  0  0  0  0  0
  188.1800  174.5970  135.8870 C   0  0  1  0  0  3  0  0  0  0  0  0
  187.4220  175.8940  135.6140 C   0  0  0  0  0  2  0  0  0  0  0  0
  186.5930  176.2590  136.7510 N   0  0  0  0  0  2  0  0  0  0  0  0
  186.6250  178.6530  137.6640 N   0  0  0  0  0  0  0  0  0  0  0  0
  186.6120  177.5700  137.2540 C   0  0  0  0  0  0  0  0  0  0  0  0
  187.8820  173.5700  134.8110 C   0  0  0  0  0  2  0  0  0  0  0  0
  187.8270  171.2560  135.6980 C   0  0  0  0  0  2  0  0  0  0  0  0
  186.9890  172.4750  135.3510 C   0  0  0  0  0  3  0  0  0  0  0  0
  187.3750  172.2070  136.7920 C   0  0  0  0  0  2  0  0  0  0  0  0
  189.8840  176.8930  138.8590 C   0  0  0  0  0  2  0  0  0  0  0  0
  190.5180  176.3850  140.0620 N   0  0  0  0  0  2  0  0  0  0  0  0
  188.4250  177.9900  142.4470 O   0  0  0  0  0  0  0  0  0  0  0  0
  190.3450  177.3820  141.1090 C   0  0  1  0  0  3  0  0  0  0  0  0
  191.6320  178.7660  144.2540 C   0  0  0  0  0  2  0  0  0  0  0  0
  189.5460  177.7450  143.2530 C   0  0  2  0  0  0  0  0  0  0  0  0
  188.9100  177.9210  141.1120 C   0  0  0  0  0  2  0  0  0  0  0  0
  190.6400  176.6990  145.2290 C   0  0  0  0  0  2  0  0  0  0  0  0
  191.7690  176.7290  143.0170 O   0  0  0  0  0  0  0  0  0  0  0  0
  189.2670  177.0940  144.6090 C   0  0  0  0  0  2  0  0  0  0  0  0
  189.9030  175.4910  142.4810 O   0  0  0  0  0  1  0  0  0  0  0  0
  191.8120  177.2470  144.3500 C   0  0  1  0  0  3  0  0  0  0  0  0
  190.3020  179.0640  143.5400 C   0  0  0  0  0  2  0  0  0  0  0  0
  190.4460  176.7810  142.4840 C   0  0  2  0  0  0  0  0  0  0  0  0
  1 24  1  6  0  0  0
  1  3  1  0  0  0  0
  1  5  1  0  0  0  0
  3  4  1  0  0  0  0
  3 34  1  1  0  0  0
  4  6  1  0  0  0  0
  4  2  2  0  0  0  0
  6  5  1  6  0  0  0
  7 17  1  0  0  0  0
  7 15  1  0  0  0  0
  8 14  1  0  0  0  0
 12  8  2  0  0  0  0
 12 11  1  0  0  0  0
 13 11  1  1  0  0  0
 13  9  1  0  0  0  0
 13  6  1  0  0  0  0
 14 15  1  0  0  0  0
 14  9  2  0  0  0  0
 15 10  1  6  0  0  0
 16  8  1  0  0  0  0
 16  7  1  0  0  0  0
 18 17  1  0  0  0  0
 18 19  1  0  0  0  0
 19 23  1  0  0  0  0
 21 23  2  0  0  0  0
 23 20  1  0  0  0  0
 23 22  1  0  0  0  0
 25 30  1  6  0  0  0
 25 24  1  0  0  0  0
 26 25  1  0  0  0  0
 26 27  1  0  0  0  0
 27 29  1  0  0  0  0
 29 28  3  0  0  0  0
 30 32  1  0  0  0  0
 31 33  1  0  0  0  0
 32 31  1  0  0  0  0
 32 33  1  0  0  0  0
 34 35  1  0  0  0  0
 36 39  1  0  0  0  0
 37 35  1  6  0  0  0
 37 40  1  0  0  0  0
 37 47  1  0  0  0  0
 39 46  1  1  0  0  0
 39 43  1  0  0  0  0
 40 36  1  0  0  0  0
 42 45  1  0  0  0  0
 43 41  1  0  0  0  0
 45 38  1  6  0  0  0
 45 41  1  0  0  0  0
 46 38  1  0  0  0  0
 47 44  1  1  0  0  0
 47 42  1  0  0  0  0
 47 39  1  0  0  0  0
M  END
>  <MODEL>
6

>  <REMARK>
 VINA RESULT:      -6.2      3.875      7.045
  Name = 
  15 active torsions:
  status: ('A' for Active; 'I' for Inactive)
    1  A    between atoms: C_1  and  N_5
    2  A    between atoms: C_1  and  C_10
    3  A    between atoms: N_3  and  C_14
    4  A    between atoms: N_3  and  C_17
    5  A    between atoms: C_4  and  N_7
    6  A    between atoms: N_5  and  C_38
    7  A    between atoms: N_7  and  C_10
    8  A    between atoms: N_8  and  C_22
    9  A    between atoms: C_10  and  C_47
   10  A    between atoms: C_14  and  C_18
   11  A    between atoms: C_22  and  C_45
   12  A    between atoms: O_24  and  C_45
   13  A    between atoms: O_24  and  P_46
   14  A    between atoms: C_33  and  C_36
   15  A    between atoms: C_34  and  C_47
                            x       y       z     vdW  Elec       q    Type
                         _______ _______ _______ _____ _____    ______ ____

>  <TORSDO>
F 15

$$$$
=
 OpenBabel10222421423D

 47 53  0  0  1  0  0  0  0  0999 V2000
  188.5210  176.4900  136.7370 C   0  0  2  0  0  3  0  0  0  0  0  0
  185.5250  178.1520  137.8930 C   0  0  0  0  0  2  0  0  0  0  0  0
  187.7740  177.1070  137.9060 C   0  0  2  0  0  3  0  0  0  0  0  0
  186.5070  177.4900  137.2770 C   0  0  0  0  0  0  0  0  0  0  0  0
  187.8290  176.7050  135.5200 O   0  0  0  0  0  0  0  0  0  0  0  0
  186.5670  177.2580  135.8150 C   0  0  1  0  0  3  0  0  0  0  0  0
  181.9630  173.4040  136.2900 N   0  0  0  0  0  0  0  0  0  0  0  0
  183.0110  175.1100  135.1250 C   0  0  0  0  0  0  0  0  0  0  0  0
  185.0410  175.3530  136.3220 N   0  0  0  0  0  0  0  0  0  0  0  0
  184.1080  172.4670  137.0020 C   0  0  0  0  0  1  0  0  0  0  0  0
  184.2890  177.0820  134.6680 C   0  0  0  0  0  2  0  0  0  0  0  0
  183.1460  176.1850  134.4170 N   0  0  0  0  0  0  0  0  0  0  0  0
  185.4780  176.3220  135.3020 C   0  0  1  0  0  3  0  0  0  0  0  0
  183.9030  174.7540  136.1470 C   0  0  0  0  0  0  0  0  0  0  0  0
  183.2460  173.7100  136.9770 C   0  0  1  0  0  3  0  0  0  0  0  0
  181.8640  174.3030  135.2050 N   0  0  0  0  0  2  0  0  0  0  0  0
  180.8890  173.7380  137.2100 C   0  0  0  0  0  2  0  0  0  0  0  0
  181.3810  174.7340  138.2370 C   0  0  0  0  0  2  0  0  0  0  0  0
  180.7720  175.9770  138.0290 O   0  0  0  0  0  0  0  0  0  0  0  0
  180.1510  176.7710  140.6130 O   0  0  0  0  0  1  0  0  0  0  0  0
  182.7880  176.4430  139.8740 O   0  0  0  0  0  1  0  0  0  0  0  0
  181.3250  178.3800  138.9100 O   0  0  0  0  0  0  0  0  0  0  0  0
  181.2570  176.9340  139.3430 P   0  0  0  0  0  0  0  0  0  0  0  0
  188.6990  175.0640  136.9680 N   0  0  0  0  0  2  0  0  0  0  0  0
  189.9340  174.6430  136.3310 C   0  0  1  0  0  3  0  0  0  0  0  0
  191.0800  174.5960  137.3400 C   0  0  0  0  0  2  0  0  0  0  0  0
  192.1550  175.4920  136.9440 N   0  0  0  0  0  2  0  0  0  0  0  0
  193.3820  176.9060  138.6940 N   0  0  0  0  0  0  0  0  0  0  0  0
  192.8250  176.2670  137.9040 C   0  0  0  0  0  0  0  0  0  0  0  0
  189.7260  173.2790  135.7000 C   0  0  0  0  0  2  0  0  0  0  0  0
  188.0690  171.6910  134.7660 C   0  0  0  0  0  2  0  0  0  0  0  0
  188.2510  172.9800  135.5490 C   0  0  0  0  0  3  0  0  0  0  0  0
  187.9460  171.6890  136.2800 C   0  0  0  0  0  2  0  0  0  0  0  0
  188.5170  178.3500  138.3960 C   0  0  0  0  0  2  0  0  0  0  0  0
  189.7510  177.9840  139.0700 N   0  0  0  0  0  2  0  0  0  0  0  0
  188.1170  177.3380  142.1620 O   0  0  0  0  0  0  0  0  0  0  0  0
  189.5860  178.2770  140.4860 C   0  0  1  0  0  3  0  0  0  0  0  0
  191.2460  178.7170  143.7300 C   0  0  0  0  0  2  0  0  0  0  0  0
  189.4480  177.3420  142.6010 C   0  0  2  0  0  0  0  0  0  0  0  0
  188.1370  178.0390  140.9240 C   0  0  0  0  0  2  0  0  0  0  0  0
  191.4150  176.2330  143.6490 C   0  0  0  0  0  2  0  0  0  0  0  0
  191.6830  177.6590  141.6340 O   0  0  0  0  0  0  0  0  0  0  0  0
  189.8700  176.1570  143.4730 C   0  0  0  0  0  2  0  0  0  0  0  0
  190.3050  176.0290  140.7720 O   0  0  0  0  0  1  0  0  0  0  0  0
  191.9690  177.5590  143.0330 C   0  0  1  0  0  3  0  0  0  0  0  0
  189.7420  178.6220  143.4190 C   0  0  0  0  0  2  0  0  0  0  0  0
  190.3300  177.3010  141.3560 C   0  0  2  0  0  0  0  0  0  0  0  0
  1 24  1  1  0  0  0
  1  3  1  0  0  0  0
  3 34  1  6  0  0  0
  4  2  2  0  0  0  0
  4  3  1  0  0  0  0
  5  1  1  0  0  0  0
  6  5  1  1  0  0  0
  6  4  1  0  0  0  0
  7 15  1  0  0  0  0
  7 17  1  0  0  0  0
  8 16  1  0  0  0  0
  8 14  1  0  0  0  0
 12 11  1  0  0  0  0
 12  8  2  0  0  0  0
 13 11  1  1  0  0  0
 13  6  1  0  0  0  0
 13  9  1  0  0  0  0
 14  9  2  0  0  0  0
 14 15  1  0  0  0  0
 15 10  1  6  0  0  0
 16  7  1  0  0  0  0
 17 18  1  0  0  0  0
 19 18  1  0  0  0  0
 19 23  1  0  0  0  0
 22 23  2  0  0  0  0
 23 21  1  0  0  0  0
 23 20  1  0  0  0  0
 25 30  1  1  0  0  0
 25 24  1  0  0  0  0
 25 26  1  0  0  0  0
 27 26  1  0  0  0  0
 27 29  1  0  0  0  0
 29 28  3  0  0  0  0
 31 32  1  0  0  0  0
 31 33  1  0  0  0  0
 32 30  1  0  0  0  0
 32 33  1  0  0  0  0
 34 35  1  0  0  0  0
 36 39  1  0  0  0  0
 37 35  1  6  0  0  0
 37 40  1  0  0  0  0
 37 47  1  0  0  0  0
 39 46  1  1  0  0  0
 39 43  1  0  0  0  0
 40 36  1  0  0  0  0
 42 45  1  0  0  0  0
 43 41  1  0  0  0  0
 45 41  1  1  0  0  0
 45 38  1  0  0  0  0
 46 38  1  0  0  0  0
 47 44  1  6  0  0  0
 47 42  1  0  0  0  0
 47 39  1  0  0  0  0
M  END
>  <MODEL>
7

>  <REMARK>
 VINA RESULT:      -6.2      4.428      9.895
  Name = 
  15 active torsions:
  status: ('A' for Active; 'I' for Inactive)
    1  A    between atoms: C_1  and  N_5
    2  A    between atoms: C_1  and  C_10
    3  A    between atoms: N_3  and  C_14
    4  A    between atoms: N_3  and  C_17
    5  A    between atoms: C_4  and  N_7
    6  A    between atoms: N_5  and  C_38
    7  A    between atoms: N_7  and  C_10
    8  A    between atoms: N_8  and  C_22
    9  A    between atoms: C_10  and  C_47
   10  A    between atoms: C_14  and  C_18
   11  A    between atoms: C_22  and  C_45
   12  A    between atoms: O_24  and  C_45
   13  A    between atoms: O_24  and  P_46
   14  A    between atoms: C_33  and  C_36
   15  A    between atoms: C_34  and  C_47
                            x       y       z     vdW  Elec       q    Type
                         _______ _______ _______ _____ _____    ______ ____

>  <TORSDO>
F 15

$$$$
=
 OpenBabel10222421423D

 47 53  0  0  1  0  0  0  0  0999 V2000
  185.2790  177.7270  137.4890 C   0  0  2  0  0  3  0  0  0  0  0  0
  181.8710  178.6930  138.2160 C   0  0  0  0  0  2  0  0  0  0  0  0
  183.9660  178.2770  136.9590 C   0  0  2  0  0  3  0  0  0  0  0  0
  183.1560  178.3370  138.1780 C   0  0  0  0  0  0  0  0  0  0  0  0
  185.1470  177.3100  138.8370 O   0  0  0  0  0  0  0  0  0  0  0  0
  183.8850  177.7210  139.3110 C   0  0  1  0  0  3  0  0  0  0  0  0
  183.8740  179.3180  145.1180 N   0  0  0  0  0  0  0  0  0  0  0  0
  184.8200  179.5010  143.0120 C   0  0  0  0  0  0  0  0  0  0  0  0
  183.3210  178.2350  141.6840 N   0  0  0  0  0  0  0  0  0  0  0  0
  181.6360  179.0260  144.1740 C   0  0  0  0  0  1  0  0  0  0  0  0
  185.5700  178.9230  140.8130 C   0  0  0  0  0  2  0  0  0  0  0  0
  185.7350  179.6180  142.1030 N   0  0  0  0  0  0  0  0  0  0  0  0
  184.0780  178.6630  140.4950 C   0  0  1  0  0  3  0  0  0  0  0  0
  183.6660  178.7220  142.8360 C   0  0  0  0  0  0  0  0  0  0  0  0
  183.0580  178.5090  144.1750 C   0  0  1  0  0  3  0  0  0  0  0  0
  184.9380  179.8610  144.3640 N   0  0  0  0  0  2  0  0  0  0  0  0
  184.4650  178.4010  146.0770 C   0  0  0  0  0  2  0  0  0  0  0  0
  185.9720  178.5440  146.0650 C   0  0  0  0  0  2  0  0  0  0  0  0
  186.5720  177.3060  146.3220 O   0  0  0  0  0  0  0  0  0  0  0  0
  187.9540  178.7770  148.2250 O   0  0  0  0  0  1  0  0  0  0  0  0
  188.8510  176.2680  147.5140 O   0  0  0  0  0  1  0  0  0  0  0  0
  188.9560  178.2830  145.8550 O   0  0  0  0  0  0  0  0  0  0  0  0
  188.1050  177.6790  146.9470 P   0  0  0  0  0  0  0  0  0  0  0  0
  186.3160  178.7420  137.3770 N   0  0  0  0  0  2  0  0  0  0  0  0
  187.3900  178.2170  136.5550 C   0  0  1  0  0  3  0  0  0  0  0  0
  188.7460  178.4250  137.2270 C   0  0  0  0  0  2  0  0  0  0  0  0
  188.5790  178.8470  138.6090 N   0  0  0  0  0  2  0  0  0  0  0  0
  189.3070  177.3200  140.5340 N   0  0  0  0  0  0  0  0  0  0  0  0
  188.9770  178.0080  139.6620 C   0  0  0  0  0  0  0  0  0  0  0  0
  187.1440  176.7410  136.3020 C   0  0  0  0  0  2  0  0  0  0  0  0
  188.1600  174.4930  136.5350 C   0  0  0  0  0  2  0  0  0  0  0  0
  188.4450  175.9700  136.3300 C   0  0  0  0  0  3  0  0  0  0  0  0
  188.4690  175.0250  135.1470 C   0  0  0  0  0  2  0  0  0  0  0  0
  183.3550  177.2870  135.9660 C   0  0  0  0  0  2  0  0  0  0  0  0
  182.7650  176.1550  136.6590 N   0  0  0  0  0  2  0  0  0  0  0  0
  184.7760  173.8150  134.8900 O   0  0  0  0  0  0  0  0  0  0  0  0
  182.8640  174.9980  135.7800 C   0  0  1  0  0  3  0  0  0  0  0  0
  181.7790  171.5530  135.1310 C   0  0  0  0  0  2  0  0  0  0  0  0
  183.8700  172.9310  135.4920 C   0  0  2  0  0  0  0  0  0  0  0  0
  184.1270  175.0800  134.9150 C   0  0  0  0  0  2  0  0  0  0  0  0
  183.3410  171.0210  136.9970 C   0  0  0  0  0  2  0  0  0  0  0  0
  181.9200  173.0570  136.9800 O   0  0  0  0  0  0  0  0  0  0  0  0
  184.4840  171.7290  136.2120 C   0  0  0  0  0  2  0  0  0  0  0  0
  183.9150  173.9860  137.6570 O   0  0  0  0  0  1  0  0  0  0  0  0
  181.9600  171.6660  136.6480 C   0  0  1  0  0  3  0  0  0  0  0  0
  182.8890  172.3640  134.4380 C   0  0  0  0  0  2  0  0  0  0  0  0
  183.1040  173.7270  136.5460 C   0  0  2  0  0  0  0  0  0  0  0  0
  1 24  1  1  0  0  0
  1  5  1  0  0  0  0
  3 34  1  6  0  0  0
  3  1  1  0  0  0  0
  3  4  1  0  0  0  0
  4  2  2  0  0  0  0
  5  6  1  0  0  0  0
  6  4  1  6  0  0  0
  6 13  1  0  0  0  0
  7 17  1  0  0  0  0
  8 16  1  0  0  0  0
  9 14  2  0  0  0  0
 11 12  1  0  0  0  0
 12  8  2  0  0  0  0
 13 11  1  1  0  0  0
 13  9  1  0  0  0  0
 14  8  1  0  0  0  0
 14 15  1  0  0  0  0
 15 10  1  6  0  0  0
 15  7  1  0  0  0  0
 16  7  1  0  0  0  0
 18 17  1  0  0  0  0
 18 19  1  0  0  0  0
 19 23  1  0  0  0  0
 22 23  2  0  0  0  0
 23 21  1  0  0  0  0
 23 20  1  0  0  0  0
 25 30  1  1  0  0  0
 25 26  1  0  0  0  0
 25 24  1  0  0  0  0
 26 27  1  0  0  0  0
 27 29  1  0  0  0  0
 29 28  3  0  0  0  0
 30 32  1  0  0  0  0
 32 31  1  0  0  0  0
 33 32  1  0  0  0  0
 33 31  1  0  0  0  0
 34 35  1  0  0  0  0
 36 40  1  0  0  0  0
 36 39  1  0  0  0  0
 37 47  1  0  0  0  0
 37 35  1  1  0  0  0
 39 46  1  6  0  0  0
 39 43  1  0  0  0  0
 39 47  1  0  0  0  0
 40 37  1  0  0  0  0
 43 41  1  0  0  0  0
 45 38  1  6  0  0  0
 45 42  1  0  0  0  0
 45 41  1  0  0  0  0
 46 38  1  0  0  0  0
 47 42  1  0  0  0  0
 47 44  1  1  0  0  0
M  END
>  <MODEL>
8

>  <REMARK>
 VINA RESULT:      -6.1      5.529      9.147
  Name = 
  15 active torsions:
  status: ('A' for Active; 'I' for Inactive)
    1  A    between atoms: C_1  and  N_5
    2  A    between atoms: C_1  and  C_10
    3  A    between atoms: N_3  and  C_14
    4  A    between atoms: N_3  and  C_17
    5  A    between atoms: C_4  and  N_7
    6  A    between atoms: N_5  and  C_38
    7  A    between atoms: N_7  and  C_10
    8  A    between atoms: N_8  and  C_22
    9  A    between atoms: C_10  and  C_47
   10  A    between atoms: C_14  and  C_18
   11  A    between atoms: C_22  and  C_45
   12  A    between atoms: O_24  and  C_45
   13  A    between atoms: O_24  and  P_46
   14  A    between atoms: C_33  and  C_36
   15  A    between atoms: C_34  and  C_47
                            x       y       z     vdW  Elec       q    Type
                         _______ _______ _______ _____ _____    ______ ____

>  <TORSDO>
F 15

$$$$
=
 OpenBabel10222421423D

 47 53  0  0  1  0  0  0  0  0999 V2000
  191.0750  176.7450  137.4160 C   0  0  2  0  0  3  0  0  0  0  0  0
  193.5020  176.7480  140.0960 C   0  0  0  0  0  2  0  0  0  0  0  0
  192.4690  176.3570  137.8770 C   0  0  2  0  0  3  0  0  0  0  0  0
  192.4550  176.8040  139.2720 C   0  0  0  0  0  0  0  0  0  0  0  0
  190.4180  177.5330  138.3920 O   0  0  0  0  0  0  0  0  0  0  0  0
  191.2030  177.5400  139.5630 C   0  0  1  0  0  3  0  0  0  0  0  0
  189.3000  177.0120  145.2530 N   0  0  0  0  0  0  0  0  0  0  0  0
  188.8480  176.8530  142.9870 C   0  0  0  0  0  0  0  0  0  0  0  0
  190.9790  177.2450  142.0290 N   0  0  0  0  0  0  0  0  0  0  0  0
  191.6170  176.3020  144.9210 C   0  0  0  0  0  1  0  0  0  0  0  0
  188.8940  177.3040  140.6360 C   0  0  0  0  0  2  0  0  0  0  0  0
  188.1870  176.9370  141.8770 N   0  0  0  0  0  0  0  0  0  0  0  0
  190.3960  176.9410  140.7100 C   0  0  1  0  0  3  0  0  0  0  0  0
  190.2240  177.1120  143.0750 C   0  0  0  0  0  0  0  0  0  0  0  0
  190.5560  177.3000  144.5120 C   0  0  1  0  0  3  0  0  0  0  0  0
  188.3020  176.7860  144.2790 N   0  0  0  0  0  2  0  0  0  0  0  0
  188.9270  178.2250  145.9610 C   0  0  0  0  0  2  0  0  0  0  0  0
  187.9320  177.8980  147.0540 C   0  0  0  0  0  2  0  0  0  0  0  0
  186.7740  177.3440  146.4960 O   0  0  0  0  0  0  0  0  0  0  0  0
  184.1090  178.0850  146.7070 O   0  0  0  0  0  1  0  0  0  0  0  0
  186.0870  179.8340  147.5060 O   0  0  0  0  0  1  0  0  0  0  0  0
  185.7340  179.2190  144.9920 O   0  0  0  0  0  0  0  0  0  0  0  0
  185.6770  178.6340  146.3840 P   0  0  0  0  0  0  0  0  0  0  0  0
  190.3000  175.5450  137.1360 N   0  0  0  0  0  2  0  0  0  0  0  0
  188.9210  175.9300  136.8980 C   0  0  1  0  0  3  0  0  0  0  0  0
  188.7090  176.3340  135.4410 C   0  0  0  0  0  2  0  0  0  0  0  0
  188.2780  177.7200  135.3450 N   0  0  0  0  0  2  0  0  0  0  0  0
  187.0510  178.8350  137.2990 N   0  0  0  0  0  0  0  0  0  0  0  0
  187.6030  178.3300  136.4140 C   0  0  0  0  0  0  0  0  0  0  0  0
  188.0130  174.7720  137.2650 C   0  0  0  0  0  2  0  0  0  0  0  0
  187.8170  172.3090  137.0670 C   0  0  0  0  0  2  0  0  0  0  0  0
  188.2850  173.5780  136.3770 C   0  0  0  0  0  3  0  0  0  0  0  0
  186.9600  172.9530  135.9930 C   0  0  0  0  0  2  0  0  0  0  0  0
  193.5130  177.1420  137.0810 C   0  0  0  0  0  2  0  0  0  0  0  0
  193.8030  176.4860  135.8180 N   0  0  0  0  0  2  0  0  0  0  0  0
  195.1560  173.3660  134.7760 O   0  0  0  0  0  0  0  0  0  0  0  0
  194.0970  175.0880  136.1020 C   0  0  1  0  0  3  0  0  0  0  0  0
  195.5860  172.6950  138.4530 C   0  0  0  0  0  2  0  0  0  0  0  0
  195.7420  173.4590  136.0460 C   0  0  2  0  0  0  0  0  0  0  0  0
  194.0440  174.2510  134.8190 C   0  0  0  0  0  2  0  0  0  0  0  0
  197.7280  173.5820  137.5410 C   0  0  0  0  0  2  0  0  0  0  0  0
  195.7450  175.0220  137.9400 O   0  0  0  0  0  0  0  0  0  0  0  0
  197.2490  173.2020  136.1090 C   0  0  0  0  0  2  0  0  0  0  0  0
  196.3580  175.7790  135.8540 O   0  0  0  0  0  1  0  0  0  0  0  0
  196.5040  173.9220  138.4520 C   0  0  1  0  0  3  0  0  0  0  0  0
  195.0790  172.4550  137.0190 C   0  0  0  0  0  2  0  0  0  0  0  0
  195.5220  174.8870  136.5360 C   0  0  2  0  0  0  0  0  0  0  0  0
  1 24  1  1  0  0  0
  1  3  1  0  0  0  0
  1  5  1  0  0  0  0
  3 34  1  6  0  0  0
  3  4  1  0  0  0  0
  4  6  1  0  0  0  0
  4  2  2  0  0  0  0
  6  5  1  6  0  0  0
  6 13  1  0  0  0  0
  7 17  1  0  0  0  0
  8 14  1  0  0  0  0
  8 16  1  0  0  0  0
  9 14  2  0  0  0  0
 11 12  1  0  0  0  0
 12  8  2  0  0  0  0
 13 11  1  1  0  0  0
 13  9  1  0  0  0  0
 14 15  1  0  0  0  0
 15 10  1  1  0  0  0
 15  7  1  0  0  0  0
 16  7  1  0  0  0  0
 17 18  1  0  0  0  0
 19 18  1  0  0  0  0
 22 23  2  0  0  0  0
 23 19  1  0  0  0  0
 23 20  1  0  0  0  0
 23 21  1  0  0  0  0
 25 26  1  6  0  0  0
 25 24  1  0  0  0  0
 25 30  1  0  0  0  0
 27 26  1  0  0  0  0
 27 29  1  0  0  0  0
 29 28  3  0  0  0  0
 32 31  1  0  0  0  0
 32 30  1  0  0  0  0
 33 32  1  0  0  0  0
 33 31  1  0  0  0  0
 35 34  1  0  0  0  0
 36 40  1  0  0  0  0
 36 39  1  0  0  0  0
 37 35  1  6  0  0  0
 37 47  1  0  0  0  0
 39 43  1  6  0  0  0
 39 47  1  0  0  0  0
 39 46  1  0  0  0  0
 40 37  1  0  0  0  0
 42 45  1  0  0  0  0
 43 41  1  0  0  0  0
 45 41  1  6  0  0  0
 45 38  1  0  0  0  0
 46 38  1  0  0  0  0
 47 44  1  6  0  0  0
 47 42  1  0  0  0  0
M  END
>  <MODEL>
9

>  <REMARK>
 VINA RESULT:      -6.0      4.331     10.932
  Name = 
  15 active torsions:
  status: ('A' for Active; 'I' for Inactive)
    1  A    between atoms: C_1  and  N_5
    2  A    between atoms: C_1  and  C_10
    3  A    between atoms: N_3  and  C_14
    4  A    between atoms: N_3  and  C_17
    5  A    between atoms: C_4  and  N_7
    6  A    between atoms: N_5  and  C_38
    7  A    between atoms: N_7  and  C_10
    8  A    between atoms: N_8  and  C_22
    9  A    between atoms: C_10  and  C_47
   10  A    between atoms: C_14  and  C_18
   11  A    between atoms: C_22  and  C_45
   12  A    between atoms: O_24  and  C_45
   13  A    between atoms: O_24  and  P_46
   14  A    between atoms: C_33  and  C_36
   15  A    between atoms: C_34  and  C_47
                            x       y       z     vdW  Elec       q    Type
                         _______ _______ _______ _____ _____    ______ ____

>  <TORSDO>
F 15

$$$$
