=
 OpenBabel10232412303D

 29 35  0  0  1  0  0  0  0  0999 V2000
  185.4140  179.0980  140.2510 C   0  0  1  0  0  3  0  0  0  0  0  0
  187.2160  177.7970  139.8290 C   0  0  1  0  0  3  0  0  0  0  0  0
  189.1620  178.5110  142.6830 O   0  0  0  0  0  0  0  0  0  0  0  0
  187.0850  177.5500  143.4910 C   0  0  2  0  0  3  0  0  0  0  0  0
  183.7540  178.0800  142.3200 C   0  0  0  0  0  2  0  0  0  0  0  0
  185.9070  178.4180  143.0590 C   0  0  2  0  0  0  0  0  0  0  0  0
  184.9940  179.1440  144.0290 C   0  0  0  0  0  2  0  0  0  0  0  0
  185.1490  177.6780  142.0870 N   0  0  2  0  0  0  0  0  0  0  0  0
  187.3990  178.4420  141.1990 C   0  0  1  0  0  3  0  0  0  0  0  0
  187.7090  177.8440  144.8620 C   0  0  0  0  0  2  0  0  0  0  0  0
  185.9940  178.8490  141.6210 C   0  0  1  0  0  0  0  0  0  0  0  0
  189.4340  177.1570  142.4480 C   0  0  1  0  0  3  0  0  0  0  0  0
  189.0860  177.1680  145.0440 C   0  0  1  0  0  3  0  0  0  0  0  0
  189.6190  176.4180  143.7970 C   0  0  0  0  0  2  0  0  0  0  0  0
  188.0570  177.6970  142.3280 C   0  0  1  0  0  0  0  0  0  0  0  0
  186.0530  178.4810  139.3200 N   0  0  0  0  0  2  0  0  0  0  0  0
  183.6120  178.6750  143.7050 C   0  0  0  0  0  2  0  0  0  0  0  0
  190.0180  178.1310  145.4300 O   0  0  0  0  0  1  0  0  0  0  0  0
  181.8290  180.0060  139.0010 C   0  0  0  0  0  1  0  0  0  0  0  0
  184.1780  180.2820  138.5950 O   0  0  0  0  0  0  0  0  0  0  0  0
  184.2140  179.9650  139.9680 C   0  0  1  0  0  3  0  0  0  0  0  0
  183.3960  178.0030  138.3980 C   0  0  0  0  0  1  0  0  0  0  0  0
  183.2080  179.3710  139.0420 C   0  0  0  0  0  0  0  0  0  0  0  0
  188.8920  179.2140  138.8720 O   0  0  0  0  0  0  0  0  0  0  0  0
  190.4500  176.9560  138.0180 C   0  0  0  0  0  1  0  0  0  0  0  0
  188.4080  178.0490  138.9580 C   0  0  0  0  0  0  0  0  0  0  0  0
  189.0100  176.9700  138.2290 N   0  0  0  0  0  0  0  0  0  0  0  0
  188.1950  176.0810  137.4190 C   0  0  0  0  0  2  0  0  0  0  0  0
  187.3190  176.8110  136.6380 F   0  0  0  0  0  0  0  0  0  0  0  0
  1 16  1  1  0  0  0
  1 11  1  0  0  0  0
  2 26  1  6  0  0  0
  2  9  1  0  0  0  0
  4 10  1  1  0  0  0
  5 17  1  0  0  0  0
  6  4  1  0  0  0  0
  6  7  1  1  0  0  0
  8  5  1  1  0  0  0
  8  6  1  0  0  0  0
  9 11  1  0  0  0  0
  9 15  1  0  0  0  0
 10 13  1  0  0  0  0
 11  8  1  0  0  0  0
 11  6  1  0  0  0  0
 12  3  1  0  0  0  0
 12 14  1  0  0  0  0
 13 18  1  0  0  0  0
 14 13  1  0  0  0  0
 15 12  1  0  0  0  0
 15  3  1  0  0  0  0
 15  4  1  0  0  0  0
 16  2  1  0  0  0  0
 17  7  1  0  0  0  0
 19 23  1  0  0  0  0
 20 23  1  0  0  0  0
 20 21  1  0  0  0  0
 21  1  1  0  0  0  0
 22 23  1  0  0  0  0
 23 21  1  0  0  0  0
 24 26  2  0  0  0  0
 25 27  1  0  0  0  0
 27 26  1  0  0  0  0
 28 27  1  0  0  0  0
 29 28  1  0  0  0  0
M  END
>  <MODEL>
1

>  <REMARK>
 VINA RESULT:      -7.4      0.000      0.000
  Name = 
  3 active torsions:
  status: ('A' for Active; 'I' for Inactive)
    1  A    between atoms: C_1  and  C_21
    2  A    between atoms: C_2  and  C_13
    3  A    between atoms: C_8  and  N_25
                            x       y       z     vdW  Elec       q    Type
                         _______ _______ _______ _____ _____    ______ ____

>  <TORSDO>
F 3

$$$$
=
 OpenBabel10232412303D

 29 35  0  0  1  0  0  0  0  0999 V2000
  186.1460  178.7690  141.9990 C   0  0  1  0  0  3  0  0  0  0  0  0
  187.8900  177.3610  142.3040 C   0  0  1  0  0  3  0  0  0  0  0  0
  189.0340  178.4820  145.4480 O   0  0  0  0  0  0  0  0  0  0  0  0
  186.7480  177.7350  145.7750 C   0  0  2  0  0  3  0  0  0  0  0  0
  183.9130  178.1640  143.6480 C   0  0  0  0  0  2  0  0  0  0  0  0
  185.8020  178.5550  144.9020 C   0  0  2  0  0  0  0  0  0  0  0  0
  184.7180  179.4610  145.4540 C   0  0  0  0  0  2  0  0  0  0  0  0
  185.2830  177.6860  143.8810 N   0  0  2  0  0  0  0  0  0  0  0  0
  187.7420  178.2200  143.5560 C   0  0  1  0  0  3  0  0  0  0  0  0
  186.9950  178.2350  147.2050 C   0  0  0  0  0  2  0  0  0  0  0  0
  186.3110  178.7360  143.4990 C   0  0  1  0  0  0  0  0  0  0  0  0
  189.2550  177.1010  145.5080 C   0  0  1  0  0  3  0  0  0  0  0  0
  188.2150  177.5580  147.8670 C   0  0  1  0  0  3  0  0  0  0  0  0
  189.0090  176.5930  146.9510 C   0  0  0  0  0  2  0  0  0  0  0  0
  188.0080  177.6550  144.9240 C   0  0  1  0  0  0  0  0  0  0  0  0
  186.9660  177.9850  141.3910 N   0  0  0  0  0  2  0  0  0  0  0  0
  183.4450  178.9870  144.8300 C   0  0  0  0  0  2  0  0  0  0  0  0
  189.0770  178.5420  148.3490 O   0  0  0  0  0  1  0  0  0  0  0  0
  182.9050  179.5860  139.9830 C   0  0  0  0  0  1  0  0  0  0  0  0
  185.2980  179.4270  139.8730 O   0  0  0  0  0  0  0  0  0  0  0  0
  185.1390  179.6130  141.2620 C   0  0  1  0  0  3  0  0  0  0  0  0
  184.1810  177.3320  140.3340 C   0  0  0  0  0  1  0  0  0  0  0  0
  184.1510  178.8510  140.4450 C   0  0  0  0  0  0  0  0  0  0  0  0
  189.5290  178.0390  140.6970 O   0  0  0  0  0  0  0  0  0  0  0  0
  191.6860  177.4120  142.4890 C   0  0  0  0  0  1  0  0  0  0  0  0
  189.2900  177.4260  141.7760 C   0  0  0  0  0  0  0  0  0  0  0  0
  190.3630  176.8050  142.4990 N   0  0  0  0  0  0  0  0  0  0  0  0
  190.2480  175.4300  142.9530 C   0  0  0  0  0  2  0  0  0  0  0  0
  191.3670  175.0690  143.6800 F   0  0  0  0  0  0  0  0  0  0  0  0
  1 16  1  1  0  0  0
  1 11  1  0  0  0  0
  2 26  1  6  0  0  0
  2  9  1  0  0  0  0
  3 12  1  0  0  0  0
  4 10  1  1  0  0  0
  5 17  1  0  0  0  0
  6  7  1  1  0  0  0
  6  4  1  0  0  0  0
  8  5  1  6  0  0  0
  8  6  1  0  0  0  0
  9 15  1  0  0  0  0
 10 13  1  0  0  0  0
 11  9  1  0  0  0  0
 11  8  1  0  0  0  0
 11  6  1  0  0  0  0
 12 14  1  0  0  0  0
 13 18  1  0  0  0  0
 14 13  1  0  0  0  0
 15  3  1  0  0  0  0
 15 12  1  0  0  0  0
 15  4  1  0  0  0  0
 16  2  1  0  0  0  0
 17  7  1  0  0  0  0
 19 23  1  0  0  0  0
 20 23  1  0  0  0  0
 20 21  1  0  0  0  0
 21  1  1  0  0  0  0
 22 23  1  0  0  0  0
 23 21  1  0  0  0  0
 24 26  2  0  0  0  0
 25 27  1  0  0  0  0
 26 27  1  0  0  0  0
 27 28  1  0  0  0  0
 28 29  1  0  0  0  0
M  END
>  <MODEL>
2

>  <REMARK>
 VINA RESULT:      -7.0      2.508      3.097
  Name = 
  3 active torsions:
  status: ('A' for Active; 'I' for Inactive)
    1  A    between atoms: C_1  and  C_21
    2  A    between atoms: C_2  and  C_13
    3  A    between atoms: C_8  and  N_25
                            x       y       z     vdW  Elec       q    Type
                         _______ _______ _______ _____ _____    ______ ____

>  <TORSDO>
F 3

$$$$
=
 OpenBabel10232412303D

 29 35  0  0  1  0  0  0  0  0999 V2000
  189.0580  176.9850  143.5700 C   0  0  1  0  0  3  0  0  0  0  0  0
  188.1400  178.4750  142.1360 C   0  0  1  0  0  3  0  0  0  0  0  0
  184.7190  177.9300  142.8000 O   0  0  0  0  0  0  0  0  0  0  0  0
  185.7170  178.6540  144.8900 C   0  0  2  0  0  3  0  0  0  0  0  0
  188.8870  177.7930  146.2890 C   0  0  0  0  0  2  0  0  0  0  0  0
  186.8050  177.6730  145.3150 C   0  0  2  0  0  0  0  0  0  0  0  0
  186.7430  176.8410  146.5820 C   0  0  0  0  0  2  0  0  0  0  0  0
  188.0720  178.3420  145.1960 N   0  0  2  0  0  0  0  0  0  0  0  0
  187.0180  177.8340  142.9460 C   0  0  1  0  0  3  0  0  0  0  0  0
  184.3000  178.4080  145.4270 C   0  0  0  0  0  2  0  0  0  0  0  0
  187.7090  177.2750  144.1810 C   0  0  1  0  0  0  0  0  0  0  0  0
  184.7750  179.3080  142.5570 C   0  0  1  0  0  3  0  0  0  0  0  0
  183.2290  179.2220  144.6680 C   0  0  1  0  0  3  0  0  0  0  0  0
  183.7580  180.0420  143.4650 C   0  0  0  0  0  2  0  0  0  0  0  0
  185.8130  178.6270  143.3710 C   0  0  1  0  0  0  0  0  0  0  0  0
  189.2830  177.6800  142.5100 N   0  0  0  0  0  2  0  0  0  0  0  0
  187.9910  177.1660  147.3370 C   0  0  0  0  0  2  0  0  0  0  0  0
  182.2280  178.3580  144.2260 O   0  0  0  0  0  1  0  0  0  0  0  0
  192.2340  175.7440  145.4710 C   0  0  0  0  0  1  0  0  0  0  0  0
  191.2160  176.0120  143.3130 O   0  0  0  0  0  0  0  0  0  0  0  0
  190.0580  176.0010  144.1180 C   0  0  1  0  0  3  0  0  0  0  0  0
  191.6380  178.0880  144.4800 C   0  0  0  0  0  1  0  0  0  0  0  0
  191.3430  176.5970  144.5840 C   0  0  0  0  0  0  0  0  0  0  0  0
  186.6970  178.5390  140.2270 O   0  0  0  0  0  0  0  0  0  0  0  0
  188.9300  178.6490  138.4220 C   0  0  0  0  0  1  0  0  0  0  0  0
  187.8690  178.3630  140.6670 C   0  0  0  0  0  0  0  0  0  0  0  0
  188.9380  178.0680  139.7570 N   0  0  0  0  0  0  0  0  0  0  0  0
  189.8360  176.9550  140.0100 C   0  0  0  0  0  2  0  0  0  0  0  0
  191.1500  177.3850  139.9990 F   0  0  0  0  0  0  0  0  0  0  0  0
  1 16  1  1  0  0  0
  1 21  1  0  0  0  0
  1 11  1  0  0  0  0
  2 26  1  6  0  0  0
  2 16  1  0  0  0  0
  2  9  1  0  0  0  0
  3 15  1  0  0  0  0
  4  6  1  0  0  0  0
  4 10  1  6  0  0  0
  5 17  1  0  0  0  0
  6  7  1  1  0  0  0
  7 17  1  0  0  0  0
  8  6  1  0  0  0  0
  8  5  1  1  0  0  0
  9 15  1  0  0  0  0
  9 11  1  0  0  0  0
 11  8  1  0  0  0  0
 11  6  1  0  0  0  0
 12  3  1  0  0  0  0
 12 15  1  0  0  0  0
 12 14  1  0  0  0  0
 13 10  1  0  0  0  0
 14 13  1  0  0  0  0
 15  4  1  0  0  0  0
 18 13  1  0  0  0  0
 20 21  1  0  0  0  0
 20 23  1  0  0  0  0
 21 23  1  0  0  0  0
 22 23  1  0  0  0  0
 23 19  1  0  0  0  0
 24 26  2  0  0  0  0
 25 27  1  0  0  0  0
 27 28  1  0  0  0  0
 27 26  1  0  0  0  0
 29 28  1  0  0  0  0
M  END
>  <MODEL>
3

>  <REMARK>
 VINA RESULT:      -7.0      2.606      5.869
  Name = 
  3 active torsions:
  status: ('A' for Active; 'I' for Inactive)
    1  A    between atoms: C_1  and  C_21
    2  A    between atoms: C_2  and  C_13
    3  A    between atoms: C_8  and  N_25
                            x       y       z     vdW  Elec       q    Type
                         _______ _______ _______ _____ _____    ______ ____

>  <TORSDO>
F 3

$$$$
=
 OpenBabel10232412303D

 29 35  0  0  1  0  0  0  0  0999 V2000
  186.6340  177.8260  142.9430 C   0  0  1  0  0  3  0  0  0  0  0  0
  188.3600  176.4330  143.3920 C   0  0  1  0  0  3  0  0  0  0  0  0
  189.8810  178.1860  146.0480 O   0  0  0  0  0  0  0  0  0  0  0  0
  187.6250  177.6620  146.7740 C   0  0  2  0  0  3  0  0  0  0  0  0
  184.5830  177.7420  144.9070 C   0  0  0  0  0  2  0  0  0  0  0  0
  186.6120  178.3080  145.8340 C   0  0  2  0  0  0  0  0  0  0  0  0
  185.6230  179.3750  146.2640 C   0  0  0  0  0  2  0  0  0  0  0  0
  185.9570  177.2570  145.1050 N   0  0  2  0  0  0  0  0  0  0  0  0
  188.3770  177.5650  144.4140 C   0  0  1  0  0  3  0  0  0  0  0  0
  188.0460  178.4650  148.0130 C   0  0  0  0  0  2  0  0  0  0  0  0
  186.9650  178.1310  144.3830 C   0  0  1  0  0  0  0  0  0  0  0  0
  190.0670  176.8460  146.4090 C   0  0  1  0  0  3  0  0  0  0  0  0
  189.3120  177.8930  148.6880 C   0  0  1  0  0  3  0  0  0  0  0  0
  189.9690  176.7000  147.9490 C   0  0  0  0  0  2  0  0  0  0  0  0
  188.7790  177.3180  145.8420 C   0  0  1  0  0  0  0  0  0  0  0  0
  187.3570  176.8790  142.4560 N   0  0  0  0  0  2  0  0  0  0  0  0
  184.2750  178.8410  145.9030 C   0  0  0  0  0  2  0  0  0  0  0  0
  190.2520  178.9130  148.8330 O   0  0  0  0  0  1  0  0  0  0  0  0
  184.8130  179.1570  139.7570 C   0  0  0  0  0  1  0  0  0  0  0  0
  186.0690  179.7800  141.7050 O   0  0  0  0  0  0  0  0  0  0  0  0
  185.5760  178.5310  142.1350 C   0  0  1  0  0  3  0  0  0  0  0  0
  187.2920  178.4160  140.1280 C   0  0  0  0  0  1  0  0  0  0  0  0
  185.9370  178.7960  140.7120 C   0  0  0  0  0  0  0  0  0  0  0  0
  190.3100  175.1960  142.7650 O   0  0  0  0  0  0  0  0  0  0  0  0
  191.0670  177.1820  140.8310 C   0  0  0  0  0  1  0  0  0  0  0  0
  189.6930  176.2980  142.7230 C   0  0  0  0  0  0  0  0  0  0  0  0
  190.2650  177.4120  142.0250 N   0  0  0  0  0  0  0  0  0  0  0  0
  190.3480  178.7170  142.6590 C   0  0  0  0  0  2  0  0  0  0  0  0
  191.4870  178.8010  143.4380 F   0  0  0  0  0  0  0  0  0  0  0  0
  1 16  1  1  0  0  0
  1 11  1  0  0  0  0
  2 26  1  6  0  0  0
  2  9  1  0  0  0  0
  3 12  1  0  0  0  0
  4 10  1  1  0  0  0
  5 17  1  0  0  0  0
  6  7  1  1  0  0  0
  6  4  1  0  0  0  0
  8  5  1  6  0  0  0
  8  6  1  0  0  0  0
  9 15  1  0  0  0  0
 10 13  1  0  0  0  0
 11  9  1  0  0  0  0
 11  8  1  0  0  0  0
 11  6  1  0  0  0  0
 12 14  1  0  0  0  0
 13 18  1  0  0  0  0
 14 13  1  0  0  0  0
 15  3  1  0  0  0  0
 15 12  1  0  0  0  0
 15  4  1  0  0  0  0
 16  2  1  0  0  0  0
 17  7  1  0  0  0  0
 19 23  1  0  0  0  0
 20 21  1  0  0  0  0
 21  1  1  0  0  0  0
 22 23  1  0  0  0  0
 23 20  1  0  0  0  0
 23 21  1  0  0  0  0
 25 27  1  0  0  0  0
 26 24  2  0  0  0  0
 27 28  1  0  0  0  0
 27 26  1  0  0  0  0
 28 29  1  0  0  0  0
M  END
>  <MODEL>
4

>  <REMARK>
 VINA RESULT:      -6.8      2.690      3.933
  Name = 
  3 active torsions:
  status: ('A' for Active; 'I' for Inactive)
    1  A    between atoms: C_1  and  C_21
    2  A    between atoms: C_2  and  C_13
    3  A    between atoms: C_8  and  N_25
                            x       y       z     vdW  Elec       q    Type
                         _______ _______ _______ _____ _____    ______ ____

>  <TORSDO>
F 3

$$$$
=
 OpenBabel10232412303D

 29 35  0  0  1  0  0  0  0  0999 V2000
  188.6810  177.8960  144.1090 C   0  0  1  0  0  3  0  0  0  0  0  0
  186.8160  177.7450  142.8370 C   0  0  1  0  0  3  0  0  0  0  0  0
  188.0500  179.0310  139.7930 O   0  0  0  0  0  0  0  0  0  0  0  0
  189.3830  177.0670  140.2990 C   0  0  2  0  0  3  0  0  0  0  0  0
  190.6500  175.9570  143.4470 C   0  0  0  0  0  2  0  0  0  0  0  0
  190.1080  177.2590  141.6280 C   0  0  2  0  0  0  0  0  0  0  0  0
  191.6180  177.3090  141.7670 C   0  0  0  0  0  2  0  0  0  0  0  0
  189.5300  176.3480  142.5790 N   0  0  2  0  0  0  0  0  0  0  0  0
  187.9590  178.2390  141.9570 C   0  0  1  0  0  3  0  0  0  0  0  0
  190.1300  177.4860  139.0260 C   0  0  0  0  0  2  0  0  0  0  0  0
  189.2210  177.8280  142.7010 C   0  0  1  0  0  0  0  0  0  0  0  0
  187.1560  178.0380  139.3740 C   0  0  1  0  0  3  0  0  0  0  0  0
  189.1980  177.5870  137.7980 C   0  0  1  0  0  3  0  0  0  0  0  0
  187.6950  177.3540  138.0940 C   0  0  0  0  0  2  0  0  0  0  0  0
  188.0740  177.8130  140.5180 C   0  0  1  0  0  0  0  0  0  0  0  0
  187.3990  177.7950  144.1550 N   0  0  0  0  0  2  0  0  0  0  0  0
  191.9660  176.2430  142.7540 C   0  0  0  0  0  2  0  0  0  0  0  0
  189.3570  178.8410  137.2080 O   0  0  0  0  0  1  0  0  0  0  0  0
  189.9150  177.2220  147.7500 C   0  0  0  0  0  1  0  0  0  0  0  0
  188.8000  178.7880  146.3130 O   0  0  0  0  0  0  0  0  0  0  0  0
  189.5230  178.0590  145.3470 C   0  0  1  0  0  3  0  0  0  0  0  0
  187.6360  176.6870  146.5880 C   0  0  0  0  0  1  0  0  0  0  0  0
  188.9720  177.4200  146.5770 C   0  0  0  0  0  0  0  0  0  0  0  0
  185.6070  179.5630  141.8550 O   0  0  0  0  0  0  0  0  0  0  0  0
  183.1770  178.7880  143.1790 C   0  0  0  0  0  1  0  0  0  0  0  0
  185.6340  178.6610  142.7400 C   0  0  0  0  0  0  0  0  0  0  0  0
  184.5290  178.5090  143.6420 N   0  0  0  0  0  0  0  0  0  0  0  0
  184.7520  178.4130  145.0740 C   0  0  0  0  0  2  0  0  0  0  0  0
  185.3300  179.5760  145.5490 F   0  0  0  0  0  0  0  0  0  0  0  0
  1 16  1  1  0  0  0
  1 21  1  0  0  0  0
  2 26  1  1  0  0  0
  2 16  1  0  0  0  0
  3 15  1  0  0  0  0
  4 10  1  6  0  0  0
  4 15  1  0  0  0  0
  4  6  1  0  0  0  0
  6  7  1  1  0  0  0
  6  8  1  0  0  0  0
  6 11  1  0  0  0  0
  7 17  1  0  0  0  0
  8 11  1  0  0  0  0
  8  5  1  1  0  0  0
  9 11  1  0  0  0  0
  9  2  1  0  0  0  0
 11  1  1  0  0  0  0
 12  3  1  0  0  0  0
 12 15  1  0  0  0  0
 13 14  1  0  0  0  0
 13 10  1  0  0  0  0
 14 12  1  0  0  0  0
 15  9  1  0  0  0  0
 17  5  1  0  0  0  0
 18 13  1  0  0  0  0
 20 23  1  0  0  0  0
 21 20  1  0  0  0  0
 21 23  1  0  0  0  0
 23 22  1  0  0  0  0
 23 19  1  0  0  0  0
 24 26  2  0  0  0  0
 25 27  1  0  0  0  0
 26 27  1  0  0  0  0
 27 28  1  0  0  0  0
 28 29  1  0  0  0  0
M  END
>  <MODEL>
5

>  <REMARK>
 VINA RESULT:      -6.8      2.934      6.849
  Name = 
  3 active torsions:
  status: ('A' for Active; 'I' for Inactive)
    1  A    between atoms: C_1  and  C_21
    2  A    between atoms: C_2  and  C_13
    3  A    between atoms: C_8  and  N_25
                            x       y       z     vdW  Elec       q    Type
                         _______ _______ _______ _____ _____    ______ ____

>  <TORSDO>
F 3

$$$$
=
 OpenBabel10232412303D

 29 35  0  0  1  0  0  0  0  0999 V2000
  188.6130  177.2890  141.3070 C   0  0  1  0  0  3  0  0  0  0  0  0
  186.8830  178.4550  142.1840 C   0  0  1  0  0  3  0  0  0  0  0  0
  186.7410  177.0070  145.3970 O   0  0  0  0  0  0  0  0  0  0  0  0
  188.9440  178.0010  145.1890 C   0  0  2  0  0  3  0  0  0  0  0  0
  191.1350  178.0520  142.3710 C   0  0  0  0  0  2  0  0  0  0  0  0
  189.6980  177.3580  144.0290 C   0  0  2  0  0  0  0  0  0  0  0  0
  190.9760  176.5560  144.1940 C   0  0  0  0  0  2  0  0  0  0  0  0
  189.8360  178.3460  142.9940 N   0  0  2  0  0  0  0  0  0  0  0  0
  187.4460  177.5420  143.2680 C   0  0  1  0  0  3  0  0  0  0  0  0
  189.1400  177.3850  146.5810 C   0  0  0  0  0  2  0  0  0  0  0  0
  188.8530  177.2070  142.7950 C   0  0  1  0  0  0  0  0  0  0  0  0
  186.4070  178.3450  145.6410 C   0  0  1  0  0  3  0  0  0  0  0  0
  188.0820  177.8680  147.5970 C   0  0  1  0  0  3  0  0  0  0  0  0
  186.9790  178.7860  147.0110 C   0  0  0  0  0  2  0  0  0  0  0  0
  187.5020  177.9830  144.7050 C   0  0  1  0  0  0  0  0  0  0  0  0
  187.5870  178.0050  141.0080 N   0  0  0  0  0  2  0  0  0  0  0  0
  191.9820  177.2180  143.3090 C   0  0  0  0  0  2  0  0  0  0  0  0
  187.4810  176.7580  148.1920 O   0  0  0  0  0  1  0  0  0  0  0  0
  190.8500  176.9940  138.1220 C   0  0  0  0  0  1  0  0  0  0  0  0
  188.7140  176.4610  139.0770 O   0  0  0  0  0  0  0  0  0  0  0  0
  189.4650  176.6200  140.2600 C   0  0  1  0  0  3  0  0  0  0  0  0
  189.1380  178.8300  138.8480 C   0  0  0  0  0  1  0  0  0  0  0  0
  189.7230  177.4360  139.0380 C   0  0  0  0  0  0  0  0  0  0  0  0
  184.7540  177.6640  142.9390 O   0  0  0  0  0  0  0  0  0  0  0  0
  183.3650  179.2400  140.9790 C   0  0  0  0  0  1  0  0  0  0  0  0
  185.4070  178.2550  142.0320 C   0  0  0  0  0  0  0  0  0  0  0  0
  184.7290  178.7430  140.8660 N   0  0  0  0  0  0  0  0  0  0  0  0
  185.2370  178.4460  139.5380 C   0  0  0  0  0  2  0  0  0  0  0  0
  184.5860  179.2150  138.5920 F   0  0  0  0  0  0  0  0  0  0  0  0
  1 16  1  6  0  0  0
  1 11  1  0  0  0  0
  2 26  1  6  0  0  0
  2  9  1  0  0  0  0
  3 12  1  0  0  0  0
  4 10  1  1  0  0  0
  5 17  1  0  0  0  0
  6  7  1  1  0  0  0
  6  4  1  0  0  0  0
  8  5  1  6  0  0  0
  8  6  1  0  0  0  0
  9 15  1  0  0  0  0
 10 13  1  0  0  0  0
 11  8  1  0  0  0  0
 11  9  1  0  0  0  0
 11  6  1  0  0  0  0
 12 14  1  0  0  0  0
 13 18  1  0  0  0  0
 14 13  1  0  0  0  0
 15  4  1  0  0  0  0
 15  3  1  0  0  0  0
 15 12  1  0  0  0  0
 16  2  1  0  0  0  0
 17  7  1  0  0  0  0
 19 23  1  0  0  0  0
 20 21  1  0  0  0  0
 21  1  1  0  0  0  0
 22 23  1  0  0  0  0
 23 20  1  0  0  0  0
 23 21  1  0  0  0  0
 26 24  2  0  0  0  0
 27 25  1  0  0  0  0
 27 26  1  0  0  0  0
 28 27  1  0  0  0  0
 29 28  1  0  0  0  0
M  END
>  <MODEL>
6

>  <REMARK>
 VINA RESULT:      -6.5      2.292      5.193
  Name = 
  3 active torsions:
  status: ('A' for Active; 'I' for Inactive)
    1  A    between atoms: C_1  and  C_21
    2  A    between atoms: C_2  and  C_13
    3  A    between atoms: C_8  and  N_25
                            x       y       z     vdW  Elec       q    Type
                         _______ _______ _______ _____ _____    ______ ____

>  <TORSDO>
F 3

$$$$
=
 OpenBabel10232412303D

 29 35  0  0  1  0  0  0  0  0999 V2000
  186.1750  178.6940  142.1070 C   0  0  1  0  0  3  0  0  0  0  0  0
  187.8670  177.2220  142.4070 C   0  0  1  0  0  3  0  0  0  0  0  0
  189.1110  178.3500  145.5090 O   0  0  0  0  0  0  0  0  0  0  0  0
  186.8040  177.7000  145.8900 C   0  0  2  0  0  3  0  0  0  0  0  0
  183.9500  178.2070  143.8060 C   0  0  0  0  0  2  0  0  0  0  0  0
  185.8760  178.5430  145.0200 C   0  0  2  0  0  0  0  0  0  0  0  0
  184.8380  179.5000  145.5740 C   0  0  0  0  0  2  0  0  0  0  0  0
  185.3040  177.6790  144.0230 N   0  0  2  0  0  0  0  0  0  0  0  0
  187.7750  178.1080  143.6450 C   0  0  1  0  0  3  0  0  0  0  0  0
  187.0970  178.2140  147.3060 C   0  0  0  0  0  2  0  0  0  0  0  0
  186.3650  178.6790  143.6040 C   0  0  1  0  0  0  0  0  0  0  0  0
  189.2790  176.9620  145.5890 C   0  0  1  0  0  3  0  0  0  0  0  0
  188.3010  177.5000  147.9580 C   0  0  1  0  0  3  0  0  0  0  0  0
  189.0390  176.4890  147.0450 C   0  0  0  0  0  2  0  0  0  0  0  0
  188.0440  177.5560  145.0180 C   0  0  1  0  0  0  0  0  0  0  0  0
  186.9510  177.8680  141.4990 N   0  0  0  0  0  2  0  0  0  0  0  0
  183.5360  179.0680  144.9810 C   0  0  0  0  0  2  0  0  0  0  0  0
  189.2110  178.4570  148.4080 O   0  0  0  0  0  1  0  0  0  0  0  0
  182.9310  179.6070  140.1370 C   0  0  0  0  0  1  0  0  0  0  0  0
  185.3120  179.3480  139.9860 O   0  0  0  0  0  0  0  0  0  0  0  0
  185.1880  179.5650  141.3740 C   0  0  1  0  0  3  0  0  0  0  0  0
  184.1200  177.3100  140.5070 C   0  0  0  0  0  1  0  0  0  0  0  0
  184.1550  178.8300  140.5900 C   0  0  0  0  0  0  0  0  0  0  0  0
  190.2470  177.1090  142.6320 O   0  0  0  0  0  0  0  0  0  0  0  0
  190.5880  176.6440  139.8170 C   0  0  0  0  0  1  0  0  0  0  0  0
  189.2580  177.2230  141.8530 C   0  0  0  0  0  0  0  0  0  0  0  0
  189.4710  177.3410  140.4390 N   0  0  0  0  0  0  0  0  0  0  0  0
  188.8160  178.3920  139.6790 C   0  0  0  0  0  2  0  0  0  0  0  0
  188.2320  177.8680  138.5410 F   0  0  0  0  0  0  0  0  0  0  0  0
  1 16  1  1  0  0  0
  1 11  1  0  0  0  0
  2 26  1  6  0  0  0
  2  9  1  0  0  0  0
  3 12  1  0  0  0  0
  4 10  1  1  0  0  0
  5 17  1  0  0  0  0
  6  7  1  1  0  0  0
  6  4  1  0  0  0  0
  8  5  1  6  0  0  0
  8  6  1  0  0  0  0
  9 15  1  0  0  0  0
 10 13  1  0  0  0  0
 11  9  1  0  0  0  0
 11  8  1  0  0  0  0
 11  6  1  0  0  0  0
 12 14  1  0  0  0  0
 13 18  1  0  0  0  0
 14 13  1  0  0  0  0
 15  3  1  0  0  0  0
 15 12  1  0  0  0  0
 15  4  1  0  0  0  0
 16  2  1  0  0  0  0
 17  7  1  0  0  0  0
 19 23  1  0  0  0  0
 20 23  1  0  0  0  0
 20 21  1  0  0  0  0
 21  1  1  0  0  0  0
 22 23  1  0  0  0  0
 23 21  1  0  0  0  0
 25 27  1  0  0  0  0
 26 24  2  0  0  0  0
 27 26  1  0  0  0  0
 28 27  1  0  0  0  0
 29 28  1  0  0  0  0
M  END
>  <MODEL>
7

>  <REMARK>
 VINA RESULT:      -6.4      1.729      2.515
  Name = 
  3 active torsions:
  status: ('A' for Active; 'I' for Inactive)
    1  A    between atoms: C_1  and  C_21
    2  A    between atoms: C_2  and  C_13
    3  A    between atoms: C_8  and  N_25
                            x       y       z     vdW  Elec       q    Type
                         _______ _______ _______ _____ _____    ______ ____

>  <TORSDO>
F 3

$$$$
=
 OpenBabel10232412303D

 29 35  0  0  1  0  0  0  0  0999 V2000
  186.9140  177.9190  143.2070 C   0  0  1  0  0  3  0  0  0  0  0  0
  187.2090  178.7870  141.1390 C   0  0  1  0  0  3  0  0  0  0  0  0
  184.1290  177.9020  139.6650 O   0  0  0  0  0  0  0  0  0  0  0  0
  183.6000  179.3260  141.5570 C   0  0  2  0  0  3  0  0  0  0  0  0
  185.0910  179.4060  144.8000 C   0  0  0  0  0  2  0  0  0  0  0  0
  184.1090  178.6880  142.8460 C   0  0  2  0  0  0  0  0  0  0  0  0
  183.2060  178.2390  143.9800 C   0  0  0  0  0  2  0  0  0  0  0  0
  185.1940  179.4950  143.3360 N   0  0  2  0  0  0  0  0  0  0  0  0
  185.7950  178.2220  141.2260 C   0  0  1  0  0  3  0  0  0  0  0  0
  182.1560  179.0120  141.1410 C   0  0  0  0  0  2  0  0  0  0  0  0
  185.5050  178.1440  142.7180 C   0  0  1  0  0  0  0  0  0  0  0  0
  184.4040  179.1490  139.0910 C   0  0  1  0  0  3  0  0  0  0  0  0
  181.8640  179.4020  139.6760 C   0  0  1  0  0  3  0  0  0  0  0  0
  183.0830  179.9320  138.8810 C   0  0  0  0  0  2  0  0  0  0  0  0
  184.6420  178.8960  140.5340 C   0  0  1  0  0  0  0  0  0  0  0  0
  187.8020  178.3210  142.3670 N   0  0  0  0  0  2  0  0  0  0  0  0
  183.7000  178.9570  145.1940 C   0  0  0  0  0  2  0  0  0  0  0  0
  181.3290  178.2990  139.0090 O   0  0  0  0  0  1  0  0  0  0  0  0
  188.9510  177.3430  146.4880 C   0  0  0  0  0  1  0  0  0  0  0  0
  188.3620  176.4150  144.3530 O   0  0  0  0  0  0  0  0  0  0  0  0
  187.2780  177.2990  144.5310 C   0  0  1  0  0  3  0  0  0  0  0  0
  189.6250  178.4730  144.2300 C   0  0  0  0  0  1  0  0  0  0  0  0
  188.6490  177.6150  145.0240 C   0  0  0  0  0  0  0  0  0  0  0  0
  187.4250  178.3370  138.7980 O   0  0  0  0  0  0  0  0  0  0  0  0
  190.2170  177.7170  139.0770 C   0  0  0  0  0  1  0  0  0  0  0  0
  187.9320  178.2320  139.9510 C   0  0  0  0  0  0  0  0  0  0  0  0
  189.2050  177.5920  140.1170 N   0  0  0  0  0  0  0  0  0  0  0  0
  189.3870  176.5590  141.1220 C   0  0  0  0  0  2  0  0  0  0  0  0
  190.6380  176.6650  141.7000 F   0  0  0  0  0  0  0  0  0  0  0  0
  1 16  1  1  0  0  0
  1 21  1  0  0  0  0
  2 26  1  6  0  0  0
  2  9  1  0  0  0  0
  2 16  1  0  0  0  0
  3 15  1  0  0  0  0
  4 10  1  6  0  0  0
  4  6  1  0  0  0  0
  5 17  1  0  0  0  0
  6  8  1  0  0  0  0
  6  7  1  1  0  0  0
  7 17  1  0  0  0  0
  8  5  1  1  0  0  0
  9 11  1  0  0  0  0
 11  6  1  0  0  0  0
 11  1  1  0  0  0  0
 11  8  1  0  0  0  0
 12  3  1  0  0  0  0
 12 15  1  0  0  0  0
 13 10  1  0  0  0  0
 14 12  1  0  0  0  0
 14 13  1  0  0  0  0
 15  9  1  0  0  0  0
 15  4  1  0  0  0  0
 18 13  1  0  0  0  0
 20 21  1  0  0  0  0
 20 23  1  0  0  0  0
 21 23  1  0  0  0  0
 22 23  1  0  0  0  0
 23 19  1  0  0  0  0
 24 26  2  0  0  0  0
 25 27  1  0  0  0  0
 26 27  1  0  0  0  0
 27 28  1  0  0  0  0
 28 29  1  0  0  0  0
M  END
>  <MODEL>
8

>  <REMARK>
 VINA RESULT:      -6.2      1.974      5.618
  Name = 
  3 active torsions:
  status: ('A' for Active; 'I' for Inactive)
    1  A    between atoms: C_1  and  C_21
    2  A    between atoms: C_2  and  C_13
    3  A    between atoms: C_8  and  N_25
                            x       y       z     vdW  Elec       q    Type
                         _______ _______ _______ _____ _____    ______ ____

>  <TORSDO>
F 3

$$$$
=
 OpenBabel10232412303D

 29 35  0  0  1  0  0  0  0  0999 V2000
  188.7290  178.3520  141.6220 C   0  0  1  0  0  3  0  0  0  0  0  0
  186.5590  177.9700  141.1050 C   0  0  1  0  0  3  0  0  0  0  0  0
  186.5590  178.9610  137.7190 O   0  0  0  0  0  0  0  0  0  0  0  0
  188.1440  177.1320  137.8990 C   0  0  2  0  0  3  0  0  0  0  0  0
  190.5050  176.4460  140.4890 C   0  0  0  0  0  2  0  0  0  0  0  0
  189.2630  177.5070  138.8670 C   0  0  2  0  0  0  0  0  0  0  0  0
  190.7190  177.6440  138.4610 C   0  0  0  0  0  2  0  0  0  0  0  0
  189.1260  176.6830  140.0370 N   0  0  2  0  0  0  0  0  0  0  0  0
  187.2840  178.4150  139.8390 C   0  0  1  0  0  3  0  0  0  0  0  0
  188.3700  177.4380  136.4130 C   0  0  0  0  0  2  0  0  0  0  0  0
  188.7550  178.1510  140.1270 C   0  0  1  0  0  0  0  0  0  0  0  0
  185.6620  177.8860  137.7310 C   0  0  1  0  0  3  0  0  0  0  0  0
  187.0680  177.3570  135.5860 C   0  0  1  0  0  3  0  0  0  0  0  0
  185.7830  177.0870  136.4100 C   0  0  0  0  0  2  0  0  0  0  0  0
  186.9330  177.8360  138.4960 C   0  0  1  0  0  0  0  0  0  0  0  0
  187.5540  178.1960  142.1240 N   0  0  0  0  0  2  0  0  0  0  0  0
  191.4730  176.7130  139.3550 C   0  0  0  0  0  2  0  0  0  0  0  0
  186.9080  178.5420  134.8680 O   0  0  0  0  0  1  0  0  0  0  0  0
  191.6270  177.7840  144.1750 C   0  0  0  0  0  1  0  0  0  0  0  0
  189.5230  178.8780  143.8050 O   0  0  0  0  0  0  0  0  0  0  0  0
  189.9280  178.6930  142.4670 C   0  0  1  0  0  3  0  0  0  0  0  0
  189.4060  176.4640  143.7840 C   0  0  0  0  0  1  0  0  0  0  0  0
  190.2500  177.7070  143.5380 C   0  0  0  0  0  0  0  0  0  0  0  0
  185.0780  179.7740  140.5700 O   0  0  0  0  0  0  0  0  0  0  0  0
  183.0430  178.7480  142.3210 C   0  0  0  0  0  1  0  0  0  0  0  0
  185.3450  178.8120  141.3470 C   0  0  0  0  0  0  0  0  0  0  0  0
  184.4760  178.5240  142.4510 N   0  0  0  0  0  0  0  0  0  0  0  0
  185.0160  178.3380  143.7870 C   0  0  0  0  0  2  0  0  0  0  0  0
  184.0100  178.4280  144.7290 F   0  0  0  0  0  0  0  0  0  0  0  0
  1 16  1  1  0  0  0
  1 21  1  0  0  0  0
  2 26  1  1  0  0  0
  2 16  1  0  0  0  0
  3 12  1  0  0  0  0
  3 15  1  0  0  0  0
  4 10  1  6  0  0  0
  4 15  1  0  0  0  0
  4  6  1  0  0  0  0
  6  7  1  6  0  0  0
  6  8  1  0  0  0  0
  6 11  1  0  0  0  0
  7 17  1  0  0  0  0
  8 11  1  0  0  0  0
  8  5  1  1  0  0  0
  9 11  1  0  0  0  0
  9  2  1  0  0  0  0
 11  1  1  0  0  0  0
 12 15  1  0  0  0  0
 13 14  1  0  0  0  0
 13 10  1  0  0  0  0
 14 12  1  0  0  0  0
 15  9  1  0  0  0  0
 17  5  1  0  0  0  0
 18 13  1  0  0  0  0
 21 23  1  0  0  0  0
 21 20  1  0  0  0  0
 23 22  1  0  0  0  0
 23 20  1  0  0  0  0
 23 19  1  0  0  0  0
 24 26  2  0  0  0  0
 25 27  1  0  0  0  0
 26 27  1  0  0  0  0
 27 28  1  0  0  0  0
 28 29  1  0  0  0  0
M  END
>  <MODEL>
9

>  <REMARK>
 VINA RESULT:      -6.1      2.468      6.988
  Name = 
  3 active torsions:
  status: ('A' for Active; 'I' for Inactive)
    1  A    between atoms: C_1  and  C_21
    2  A    between atoms: C_2  and  C_13
    3  A    between atoms: C_8  and  N_25
                            x       y       z     vdW  Elec       q    Type
                         _______ _______ _______ _____ _____    ______ ____

>  <TORSDO>
F 3

$$$$
