=
 OpenBabel10232408183D

 32 36  0  0  1  0  0  0  0  0999 V2000
  191.2380  174.5940  136.8740 N   0  0  0  0  0  0  0  0  0  0  0  0
  190.9040  176.9340  139.4360 C   0  0  0  0  0  3  0  0  0  0  0  0
  188.5000  177.4200  138.9870 C   0  0  0  0  0  0  0  0  0  0  0  0
  191.2330  176.7820  137.9910 C   0  0  0  0  0  2  0  0  0  0  0  0
  188.4860  174.4800  136.7530 C   0  0  0  0  0  3  0  0  0  0  0  0
  190.5120  175.6080  137.4210 C   0  0  0  0  0  0  0  0  0  0  0  0
  189.6810  177.2270  139.8820 C   0  0  0  0  0  0  0  0  0  0  0  0
  189.1050  175.5610  137.3860 C   0  0  0  0  0  0  0  0  0  0  0  0
  190.6430  173.5270  136.2780 C   0  0  0  0  0  3  0  0  0  0  0  0
  189.2530  173.4530  136.2030 C   0  0  0  0  0  3  0  0  0  0  0  0
  188.2450  176.6290  137.9340 C   0  0  0  0  0  3  0  0  0  0  0  0
  189.3450  177.4200  142.4980 C   0  0  0  0  0  0  0  0  0  0  0  0
  189.5060  177.3430  141.3050 C   0  0  0  0  0  0  0  0  0  0  0  0
  188.4910  177.8690  148.5710 C   0  0  0  0  0  3  0  0  0  0  0  0
  188.0300  177.8290  145.8220 C   0  0  0  0  0  0  0  0  0  0  0  0
  190.3540  177.2850  145.0680 S   0  0  0  0  0  0  0  0  0  0  0  0
  187.2030  178.1260  148.0630 C   0  0  0  0  0  3  0  0  0  0  0  0
  189.2940  177.5770  146.3340 C   0  0  0  0  0  0  0  0  0  0  0  0
  189.1340  177.4950  143.9140 C   0  0  0  0  0  0  0  0  0  0  0  0
  187.9340  177.7870  144.4700 N   0  0  0  0  0  0  0  0  0  0  0  0
  186.9640  178.1090  146.6770 C   0  0  0  0  0  3  0  0  0  0  0  0
  189.5570  177.5900  147.7000 C   0  0  0  0  0  3  0  0  0  0  0  0
  187.4980  178.3880  139.3150 N   0  0  0  0  0  2  0  0  0  0  0  0
  186.2440  178.5210  138.5910 C   0  0  0  0  0  2  0  0  0  0  0  0
  185.4630  178.9650  140.8380 C   0  0  2  0  0  3  0  0  0  0  0  0
  184.6060  179.7310  139.9220 N   0  0  0  0  0  2  0  0  0  0  0  0
  185.0820  178.3910  139.5540 C   0  0  1  0  0  3  0  0  0  0  0  0
  184.6080  178.3670  141.9380 C   0  0  0  0  0  2  0  0  0  0  0  0
  184.8240  179.1150  143.2440 C   0  0  0  0  0  2  0  0  0  0  0  0
  182.4510  179.1550  143.4790 O   0  0  0  0  0  0  0  0  0  0  0  0
  183.6380  179.1140  145.4390 O   0  0  0  0  0  1  0  0  0  0  0  0
  183.5720  179.1390  144.0530 C   0  0  0  0  0  0  0  0  0  0  0  0
  1  6  1  0  0  0  0
  2  7  2  0  0  0  0
  3 23  1  0  0  0  0
  3  7  1  0  0  0  0
  4  2  1  0  0  0  0
  5  8  1  0  0  0  0
  6  4  1  0  0  0  0
  7 13  1  0  0  0  0
  8  6  2  0  0  0  0
  8 11  1  0  0  0  0
  9  1  2  0  0  0  0
 10  9  1  0  0  0  0
 10  5  2  0  0  0  0
 11  3  2  0  0  0  0
 12 19  1  0  0  0  0
 13 12  3  0  0  0  0
 15 18  2  0  0  0  0
 15 21  1  0  0  0  0
 16 18  1  0  0  0  0
 17 14  1  0  0  0  0
 18 22  1  0  0  0  0
 19 20  2  0  0  0  0
 19 16  1  0  0  0  0
 20 15  1  0  0  0  0
 21 17  2  0  0  0  0
 22 14  2  0  0  0  0
 24 23  1  0  0  0  0
 25 28  1  1  0  0  0
 26 25  1  0  0  0  0
 27 24  1  6  0  0  0
 27 26  1  0  0  0  0
 27 25  1  0  0  0  0
 28 29  1  0  0  0  0
 29 32  1  0  0  0  0
 30 32  2  0  0  0  0
 32 31  1  0  0  0  0
M  END
>  <MODEL>
1

>  <REMARK>
 VINA RESULT:      -8.7      0.000      0.000
  Name = 
  8 active torsions:
  status: ('A' for Active; 'I' for Inactive)
    1  A    between atoms: C_7  and  C_19
    2  A    between atoms: C_7  and  C_23
    3  A    between atoms: C_8  and  C_21
    4  A    between atoms: C_9  and  N_17
    5  A    between atoms: C_13  and  C_18
    6  A    between atoms: N_17  and  C_27
    7  A    between atoms: C_23  and  C_30
    8  A    between atoms: C_27  and  C_29
                            x       y       z     vdW  Elec       q    Type
                         _______ _______ _______ _____ _____    ______ ____

>  <TORSDO>
F 8

$$$$
=
 OpenBabel10232408183D

 32 36  0  0  1  0  0  0  0  0999 V2000
  188.7820  175.5000  134.9230 N   0  0  0  0  0  0  0  0  0  0  0  0
  189.4530  177.4150  137.7570 C   0  0  0  0  0  3  0  0  0  0  0  0
  187.0600  177.8120  138.3330 C   0  0  0  0  0  0  0  0  0  0  0  0
  189.2030  177.4960  136.2910 C   0  0  0  0  0  2  0  0  0  0  0  0
  186.1940  175.2350  135.8350 C   0  0  0  0  0  3  0  0  0  0  0  0
  188.3200  176.3750  135.8570 C   0  0  0  0  0  0  0  0  0  0  0  0
  188.4930  177.5630  138.6730 C   0  0  0  0  0  0  0  0  0  0  0  0
  187.0060  176.2480  136.3500 C   0  0  0  0  0  0  0  0  0  0  0  0
  188.0060  174.4970  134.4350 C   0  0  0  0  0  3  0  0  0  0  0  0
  186.6920  174.3490  134.8800 C   0  0  0  0  0  3  0  0  0  0  0  0
  186.4210  177.1700  137.3440 C   0  0  0  0  0  3  0  0  0  0  0  0
  189.2030  177.3480  141.2110 C   0  0  0  0  0  0  0  0  0  0  0  0
  188.8760  177.4590  140.0550 C   0  0  0  0  0  0  0  0  0  0  0  0
  190.9330  176.7970  147.0860 C   0  0  0  0  0  3  0  0  0  0  0  0
  189.3920  177.2200  144.8020 C   0  0  0  0  0  0  0  0  0  0  0  0
  191.1560  176.7730  143.0820 S   0  0  0  0  0  0  0  0  0  0  0  0
  189.5750  177.1530  147.2010 C   0  0  0  0  0  3  0  0  0  0  0  0
  190.7300  176.8680  144.7010 C   0  0  0  0  0  0  0  0  0  0  0  0
  189.5930  177.1900  142.5810 C   0  0  0  0  0  0  0  0  0  0  0  0
  188.7510  177.4040  143.6210 N   0  0  0  0  0  0  0  0  0  0  0  0
  188.7930  177.3700  146.0530 C   0  0  0  0  0  3  0  0  0  0  0  0
  191.5260  176.6500  145.8210 C   0  0  0  0  0  3  0  0  0  0  0  0
  186.2580  178.6590  139.1650 N   0  0  0  0  0  2  0  0  0  0  0  0
  184.9700  178.2600  139.7100 C   0  0  0  0  0  2  0  0  0  0  0  0
  185.4030  178.5140  142.0770 C   0  0  2  0  0  3  0  0  0  0  0  0
  185.9000  179.7270  141.4140 N   0  0  0  0  0  2  0  0  0  0  0  0
  184.6680  179.0740  140.9510 C   0  0  1  0  0  3  0  0  0  0  0  0
  184.7200  178.8990  143.3750 C   0  0  0  0  0  2  0  0  0  0  0  0
  185.4600  178.3030  144.5620 C   0  0  0  0  0  2  0  0  0  0  0  0
  185.7650  179.2670  146.7220 O   0  0  0  0  0  1  0  0  0  0  0  0
  183.5880  179.0040  146.0540 O   0  0  0  0  0  0  0  0  0  0  0  0
  184.9540  178.8750  145.8420 C   0  0  0  0  0  0  0  0  0  0  0  0
  1  6  1  0  0  0  0
  2  7  2  0  0  0  0
  3  7  1  0  0  0  0
  3 23  1  0  0  0  0
  4  2  1  0  0  0  0
  5  8  1  0  0  0  0
  6  4  1  0  0  0  0
  6  8  2  0  0  0  0
  7 13  1  0  0  0  0
  8 11  1  0  0  0  0
  9 10  1  0  0  0  0
  9  1  2  0  0  0  0
 10  5  2  0  0  0  0
 11  3  2  0  0  0  0
 12 19  1  0  0  0  0
 13 12  3  0  0  0  0
 14 17  1  0  0  0  0
 15 21  1  0  0  0  0
 16 18  1  0  0  0  0
 18 15  2  0  0  0  0
 18 22  1  0  0  0  0
 19 16  1  0  0  0  0
 19 20  2  0  0  0  0
 20 15  1  0  0  0  0
 21 17  2  0  0  0  0
 22 14  2  0  0  0  0
 23 24  1  0  0  0  0
 25 28  1  1  0  0  0
 26 25  1  0  0  0  0
 27 24  1  6  0  0  0
 27 26  1  0  0  0  0
 27 25  1  0  0  0  0
 28 29  1  0  0  0  0
 29 32  1  0  0  0  0
 32 31  2  0  0  0  0
 32 30  1  0  0  0  0
M  END
>  <MODEL>
2

>  <REMARK>
 VINA RESULT:      -8.6      1.710      2.296
  Name = 
  8 active torsions:
  status: ('A' for Active; 'I' for Inactive)
    1  A    between atoms: C_7  and  C_19
    2  A    between atoms: C_7  and  C_23
    3  A    between atoms: C_8  and  C_21
    4  A    between atoms: C_9  and  N_17
    5  A    between atoms: C_13  and  C_18
    6  A    between atoms: N_17  and  C_27
    7  A    between atoms: C_23  and  C_30
    8  A    between atoms: C_27  and  C_29
                            x       y       z     vdW  Elec       q    Type
                         _______ _______ _______ _____ _____    ______ ____

>  <TORSDO>
F 8

$$$$
=
 OpenBabel10232408183D

 32 36  0  0  1  0  0  0  0  0999 V2000
  180.2860  179.7920  139.5270 N   0  0  0  0  0  0  0  0  0  0  0  0
  182.7410  177.8660  141.0810 C   0  0  0  0  0  3  0  0  0  0  0  0
  184.6380  178.8190  139.7730 C   0  0  0  0  0  0  0  0  0  0  0  0
  181.8080  177.9040  139.9210 C   0  0  0  0  0  2  0  0  0  0  0  0
  182.3010  181.4150  138.5750 C   0  0  0  0  0  3  0  0  0  0  0  0
  181.5610  179.3160  139.5060 C   0  0  0  0  0  0  0  0  0  0  0  0
  184.0110  178.2700  141.0130 C   0  0  0  0  0  0  0  0  0  0  0  0
  182.6080  180.1340  139.0400 C   0  0  0  0  0  0  0  0  0  0  0  0
  179.9820  181.0460  139.1000 C   0  0  0  0  0  3  0  0  0  0  0  0
  180.9860  181.8800  138.6100 C   0  0  0  0  0  3  0  0  0  0  0  0
  184.0130  179.6850  138.9610 C   0  0  0  0  0  3  0  0  0  0  0  0
  185.4590  178.1250  143.2210 C   0  0  0  0  0  0  0  0  0  0  0  0
  184.7990  178.1780  142.2130 C   0  0  0  0  0  0  0  0  0  0  0  0
  188.7640  177.8560  148.3990 C   0  0  0  0  0  3  0  0  0  0  0  0
  187.9850  177.6220  145.7330 C   0  0  0  0  0  0  0  0  0  0  0  0
  185.7090  178.6460  145.9250 S   0  0  0  0  0  0  0  0  0  0  0  0
  189.6330  177.2770  147.4540 C   0  0  0  0  0  3  0  0  0  0  0  0
  187.1390  178.1910  146.6730 C   0  0  0  0  0  0  0  0  0  0  0  0
  186.2460  178.0890  144.4190 C   0  0  0  0  0  0  0  0  0  0  0  0
  187.4920  177.5600  144.4710 N   0  0  0  0  0  0  0  0  0  0  0  0
  189.2450  177.1550  146.1080 C   0  0  0  0  0  3  0  0  0  0  0  0
  187.4980  178.3220  148.0110 C   0  0  0  0  0  3  0  0  0  0  0  0
  186.0120  178.5460  139.4780 N   0  0  0  0  0  2  0  0  0  0  0  0
  186.5090  178.2910  138.1350 C   0  0  0  0  0  2  0  0  0  0  0  0
  188.5260  178.0220  136.8260 C   0  0  2  0  0  3  0  0  0  0  0  0
  188.7160  179.2050  137.6770 N   0  0  0  0  0  2  0  0  0  0  0  0
  187.9990  178.0270  138.1840 C   0  0  1  0  0  3  0  0  0  0  0  0
  189.8150  177.2260  136.7810 C   0  0  0  0  0  2  0  0  0  0  0  0
  189.5180  175.7410  136.6520 C   0  0  0  0  0  2  0  0  0  0  0  0
  190.6270  173.7520  137.3600 O   0  0  0  0  0  0  0  0  0  0  0  0
  190.8150  175.5460  138.7740 O   0  0  0  0  0  1  0  0  0  0  0  0
  190.3400  174.9520  137.6130 C   0  0  0  0  0  0  0  0  0  0  0  0
  3  7  1  0  0  0  0
  4  2  1  0  0  0  0
  5 10  2  0  0  0  0
  5  8  1  0  0  0  0
  6  1  1  0  0  0  0
  6  4  1  0  0  0  0
  7  2  2  0  0  0  0
  7 13  1  0  0  0  0
  8  6  2  0  0  0  0
  9  1  2  0  0  0  0
 10  9  1  0  0  0  0
 11  8  1  0  0  0  0
 11  3  2  0  0  0  0
 12 19  1  0  0  0  0
 13 12  3  0  0  0  0
 15 21  2  0  0  0  0
 15 18  1  0  0  0  0
 16 18  1  0  0  0  0
 17 14  2  0  0  0  0
 18 22  2  0  0  0  0
 19 20  2  0  0  0  0
 19 16  1  0  0  0  0
 20 15  1  0  0  0  0
 21 17  1  0  0  0  0
 22 14  1  0  0  0  0
 23  3  1  0  0  0  0
 24 23  1  0  0  0  0
 25 28  1  1  0  0  0
 25 26  1  0  0  0  0
 25 27  1  0  0  0  0
 26 27  1  0  0  0  0
 27 24  1  6  0  0  0
 29 28  1  0  0  0  0
 29 32  1  0  0  0  0
 30 32  2  0  0  0  0
 32 31  1  0  0  0  0
M  END
>  <MODEL>
3

>  <REMARK>
 VINA RESULT:      -8.1      3.662      7.099
  Name = 
  8 active torsions:
  status: ('A' for Active; 'I' for Inactive)
    1  A    between atoms: C_7  and  C_19
    2  A    between atoms: C_7  and  C_23
    3  A    between atoms: C_8  and  C_21
    4  A    between atoms: C_9  and  N_17
    5  A    between atoms: C_13  and  C_18
    6  A    between atoms: N_17  and  C_27
    7  A    between atoms: C_23  and  C_30
    8  A    between atoms: C_27  and  C_29
                            x       y       z     vdW  Elec       q    Type
                         _______ _______ _______ _____ _____    ______ ____

>  <TORSDO>
F 8

$$$$
=
 OpenBabel10232408183D

 32 36  0  0  1  0  0  0  0  0999 V2000
  180.2040  180.1580  139.4690 N   0  0  0  0  0  0  0  0  0  0  0  0
  182.5390  178.1300  141.0770 C   0  0  0  0  0  3  0  0  0  0  0  0
  184.4810  178.8960  139.7120 C   0  0  0  0  0  0  0  0  0  0  0  0
  181.5970  178.1860  139.9240 C   0  0  0  0  0  2  0  0  0  0  0  0
  182.3130  181.5970  138.4310 C   0  0  0  0  0  3  0  0  0  0  0  0
  181.4420  179.5930  139.4550 C   0  0  0  0  0  0  0  0  0  0  0  0
  183.8330  178.4420  140.9800 C   0  0  0  0  0  0  0  0  0  0  0  0
  182.5380  180.3180  138.9460 C   0  0  0  0  0  0  0  0  0  0  0  0
  179.9820  181.4110  138.9930 C   0  0  0  0  0  3  0  0  0  0  0  0
  181.0350  182.1540  138.4600 C   0  0  0  0  0  3  0  0  0  0  0  0
  183.9070  179.7700  138.8720 C   0  0  0  0  0  3  0  0  0  0  0  0
  185.3140  178.2550  143.1630 C   0  0  0  0  0  0  0  0  0  0  0  0
  184.6280  178.3440  142.1750 C   0  0  0  0  0  0  0  0  0  0  0  0
  188.8300  177.6330  148.1680 C   0  0  0  0  0  3  0  0  0  0  0  0
  187.9650  177.6510  145.5190 C   0  0  0  0  0  0  0  0  0  0  0  0
  185.6340  178.4790  145.9000 S   0  0  0  0  0  0  0  0  0  0  0  0
  189.6990  177.2310  147.1350 C   0  0  0  0  0  3  0  0  0  0  0  0
  187.1200  178.0460  146.5450 C   0  0  0  0  0  0  0  0  0  0  0  0
  186.1470  178.1380  144.3230 C   0  0  0  0  0  0  0  0  0  0  0  0
  187.4280  177.6980  144.2740 N   0  0  0  0  0  0  0  0  0  0  0  0
  189.2680  177.2360  145.7970 C   0  0  0  0  0  3  0  0  0  0  0  0
  187.5210  178.0480  147.8770 C   0  0  0  0  0  3  0  0  0  0  0  0
  185.8300  178.5170  139.4160 N   0  0  0  0  0  2  0  0  0  0  0  0
  186.2510  177.9980  138.1240 C   0  0  0  0  0  2  0  0  0  0  0  0
  188.3490  176.8180  137.8710 C   0  0  2  0  0  3  0  0  0  0  0  0
  188.1630  177.6360  136.6650 N   0  0  0  0  0  2  0  0  0  0  0  0
  187.7520  178.1420  137.9810 C   0  0  1  0  0  3  0  0  0  0  0  0
  189.8030  176.8760  138.2960 C   0  0  0  0  0  2  0  0  0  0  0  0
  189.9660  177.7780  139.5080 C   0  0  0  0  0  2  0  0  0  0  0  0
  190.4030  176.1020  141.1480 O   0  0  0  0  0  1  0  0  0  0  0  0
  192.0850  177.6240  140.8170 O   0  0  0  0  0  0  0  0  0  0  0  0
  190.8190  177.1240  140.5420 C   0  0  0  0  0  0  0  0  0  0  0  0
  3  7  1  0  0  0  0
  4  2  1  0  0  0  0
  5 10  2  0  0  0  0
  5  8  1  0  0  0  0
  6  1  1  0  0  0  0
  6  4  1  0  0  0  0
  7  2  2  0  0  0  0
  7 13  1  0  0  0  0
  8  6  2  0  0  0  0
  9  1  2  0  0  0  0
 10  9  1  0  0  0  0
 11  8  1  0  0  0  0
 11  3  2  0  0  0  0
 12 19  1  0  0  0  0
 13 12  3  0  0  0  0
 15 21  2  0  0  0  0
 15 18  1  0  0  0  0
 16 18  1  0  0  0  0
 17 14  2  0  0  0  0
 18 22  2  0  0  0  0
 19 16  1  0  0  0  0
 20 19  2  0  0  0  0
 20 15  1  0  0  0  0
 21 17  1  0  0  0  0
 22 14  1  0  0  0  0
 23  3  1  0  0  0  0
 24 23  1  0  0  0  0
 25 27  1  0  0  0  0
 25 28  1  1  0  0  0
 26 25  1  0  0  0  0
 26 27  1  0  0  0  0
 27 24  1  6  0  0  0
 28 29  1  0  0  0  0
 29 32  1  0  0  0  0
 32 31  2  0  0  0  0
 32 30  1  0  0  0  0
M  END
>  <MODEL>
4

>  <REMARK>
 VINA RESULT:      -8.1      3.407      6.850
  Name = 
  8 active torsions:
  status: ('A' for Active; 'I' for Inactive)
    1  A    between atoms: C_7  and  C_19
    2  A    between atoms: C_7  and  C_23
    3  A    between atoms: C_8  and  C_21
    4  A    between atoms: C_9  and  N_17
    5  A    between atoms: C_13  and  C_18
    6  A    between atoms: N_17  and  C_27
    7  A    between atoms: C_23  and  C_30
    8  A    between atoms: C_27  and  C_29
                            x       y       z     vdW  Elec       q    Type
                         _______ _______ _______ _____ _____    ______ ____

>  <TORSDO>
F 8

$$$$
=
 OpenBabel10232408183D

 32 36  0  0  1  0  0  0  0  0999 V2000
  189.3180  174.9160  135.0630 N   0  0  0  0  0  0  0  0  0  0  0  0
  189.6940  177.0740  137.7740 C   0  0  0  0  0  3  0  0  0  0  0  0
  187.2540  177.4930  138.0700 C   0  0  0  0  0  0  0  0  0  0  0  0
  189.5940  177.0270  136.2890 C   0  0  0  0  0  2  0  0  0  0  0  0
  186.6520  174.7020  135.7290 C   0  0  0  0  0  3  0  0  0  0  0  0
  188.7620  175.8640  135.8670 C   0  0  0  0  0  0  0  0  0  0  0  0
  188.6470  177.2900  138.5720 C   0  0  0  0  0  0  0  0  0  0  0  0
  187.4060  175.7640  136.2340 C   0  0  0  0  0  0  0  0  0  0  0  0
  188.5980  173.8670  134.5880 C   0  0  0  0  0  3  0  0  0  0  0  0
  187.2470  173.7430  134.9090 C   0  0  0  0  0  3  0  0  0  0  0  0
  186.7210  176.7610  137.0810 C   0  0  0  0  0  3  0  0  0  0  0  0
  189.0860  177.3000  141.1800 C   0  0  0  0  0  0  0  0  0  0  0  0
  188.8880  177.3080  139.9900 C   0  0  0  0  0  0  0  0  0  0  0  0
  190.0050  177.0260  147.2540 C   0  0  0  0  0  3  0  0  0  0  0  0
  190.4420  177.0160  144.5010 C   0  0  0  0  0  0  0  0  0  0  0  0
  188.0940  177.4630  143.7550 S   0  0  0  0  0  0  0  0  0  0  0  0
  191.2970  176.8010  146.7400 C   0  0  0  0  0  3  0  0  0  0  0  0
  189.1740  177.2360  145.0180 C   0  0  0  0  0  0  0  0  0  0  0  0
  189.3110  177.2660  142.5950 C   0  0  0  0  0  0  0  0  0  0  0  0
  190.5250  177.0290  143.1470 N   0  0  0  0  0  0  0  0  0  0  0  0
  191.5230  176.7930  145.3530 C   0  0  0  0  0  3  0  0  0  0  0  0
  188.9230  177.2470  146.3860 C   0  0  0  0  0  3  0  0  0  0  0  0
  186.3710  178.3980  138.7410 N   0  0  0  0  0  2  0  0  0  0  0  0
  184.9500  178.4970  138.4480 C   0  0  0  0  0  2  0  0  0  0  0  0
  184.9100  178.7540  140.8540 C   0  0  2  0  0  3  0  0  0  0  0  0
  183.8030  179.5560  140.3140 N   0  0  0  0  0  2  0  0  0  0  0  0
  184.1510  178.2610  139.7120 C   0  0  1  0  0  3  0  0  0  0  0  0
  184.4490  178.0520  142.1160 C   0  0  0  0  0  2  0  0  0  0  0  0
  184.8420  178.8560  143.3450 C   0  0  0  0  0  2  0  0  0  0  0  0
  182.5100  179.1780  143.7270 O   0  0  0  0  0  0  0  0  0  0  0  0
  183.8260  179.1590  145.6030 O   0  0  0  0  0  1  0  0  0  0  0  0
  183.6610  179.0830  144.2270 C   0  0  0  0  0  0  0  0  0  0  0  0
  1  6  1  0  0  0  0
  2  7  2  0  0  0  0
  3  7  1  0  0  0  0
  3 23  1  0  0  0  0
  4  2  1  0  0  0  0
  5  8  1  0  0  0  0
  6  8  2  0  0  0  0
  6  4  1  0  0  0  0
  7 13  1  0  0  0  0
  8 11  1  0  0  0  0
  9 10  1  0  0  0  0
  9  1  2  0  0  0  0
 10  5  2  0  0  0  0
 11  3  2  0  0  0  0
 12 19  1  0  0  0  0
 13 12  3  0  0  0  0
 15 18  2  0  0  0  0
 15 21  1  0  0  0  0
 16 18  1  0  0  0  0
 17 14  1  0  0  0  0
 18 22  1  0  0  0  0
 19 20  2  0  0  0  0
 19 16  1  0  0  0  0
 20 15  1  0  0  0  0
 21 17  2  0  0  0  0
 22 14  2  0  0  0  0
 24 23  1  0  0  0  0
 25 28  1  1  0  0  0
 26 25  1  0  0  0  0
 27 24  1  6  0  0  0
 27 26  1  0  0  0  0
 27 25  1  0  0  0  0
 28 29  1  0  0  0  0
 29 32  1  0  0  0  0
 30 32  2  0  0  0  0
 32 31  1  0  0  0  0
M  END
>  <MODEL>
5

>  <REMARK>
 VINA RESULT:      -7.8      1.540      2.103
  Name = 
  8 active torsions:
  status: ('A' for Active; 'I' for Inactive)
    1  A    between atoms: C_7  and  C_19
    2  A    between atoms: C_7  and  C_23
    3  A    between atoms: C_8  and  C_21
    4  A    between atoms: C_9  and  N_17
    5  A    between atoms: C_13  and  C_18
    6  A    between atoms: N_17  and  C_27
    7  A    between atoms: C_23  and  C_30
    8  A    between atoms: C_27  and  C_29
                            x       y       z     vdW  Elec       q    Type
                         _______ _______ _______ _____ _____    ______ ____

>  <TORSDO>
F 8

$$$$
=
 OpenBabel10232408183D

 32 36  0  0  1  0  0  0  0  0999 V2000
  193.6880  174.9270  137.6120 N   0  0  0  0  0  0  0  0  0  0  0  0
  192.3960  177.1840  139.9330 C   0  0  0  0  0  3  0  0  0  0  0  0
  190.0650  177.1060  139.0520 C   0  0  0  0  0  0  0  0  0  0  0  0
  193.0040  177.0810  138.5780 C   0  0  0  0  0  2  0  0  0  0  0  0
  191.0960  174.1930  137.0300 C   0  0  0  0  0  3  0  0  0  0  0  0
  192.6720  175.7620  137.9650 C   0  0  0  0  0  0  0  0  0  0  0  0
  191.0790  177.2020  140.1450 C   0  0  0  0  0  0  0  0  0  0  0  0
  191.3390  175.3980  137.6930 C   0  0  0  0  0  0  0  0  0  0  0  0
  193.4580  173.7420  136.9900 C   0  0  0  0  0  3  0  0  0  0  0  0
  192.1540  173.3540  136.6820 C   0  0  0  0  0  3  0  0  0  0  0  0
  190.1830  176.2560  138.0200 C   0  0  0  0  0  3  0  0  0  0  0  0
  190.2370  177.3740  142.6460 C   0  0  0  0  0  0  0  0  0  0  0  0
  190.6290  177.3060  141.5080 C   0  0  0  0  0  0  0  0  0  0  0  0
  188.1980  177.7820  148.4330 C   0  0  0  0  0  3  0  0  0  0  0  0
  188.2860  177.7400  145.6470 C   0  0  0  0  0  0  0  0  0  0  0  0
  190.7260  177.2540  145.3640 S   0  0  0  0  0  0  0  0  0  0  0  0
  187.0280  178.0090  147.6820 C   0  0  0  0  0  3  0  0  0  0  0  0
  189.4300  177.5170  146.3970 C   0  0  0  0  0  0  0  0  0  0  0  0
  189.7500  177.4390  143.9930 C   0  0  0  0  0  0  0  0  0  0  0  0
  188.4580  177.7000  144.3020 N   0  0  0  0  0  0  0  0  0  0  0  0
  187.0660  177.9910  146.2760 C   0  0  0  0  0  3  0  0  0  0  0  0
  189.4200  177.5320  147.7880 C   0  0  0  0  0  3  0  0  0  0  0  0
  188.8330  177.8300  139.1440 N   0  0  0  0  0  2  0  0  0  0  0  0
  188.4120  178.5470  140.3380 C   0  0  0  0  0  2  0  0  0  0  0  0
  186.3490  179.1220  141.4630 C   0  0  2  0  0  3  0  0  0  0  0  0
  186.0060  178.7900  140.0740 N   0  0  0  0  0  2  0  0  0  0  0  0
  187.0550  178.0440  140.7830 C   0  0  1  0  0  3  0  0  0  0  0  0
  185.2990  178.5400  142.3890 C   0  0  0  0  0  2  0  0  0  0  0  0
  185.0620  179.4650  143.5720 C   0  0  0  0  0  2  0  0  0  0  0  0
  182.7820  178.7660  143.5980 O   0  0  0  0  0  0  0  0  0  0  0  0
  183.7190  179.1610  145.6520 O   0  0  0  0  0  1  0  0  0  0  0  0
  183.7890  179.1210  144.2660 C   0  0  0  0  0  0  0  0  0  0  0  0
  1  6  1  0  0  0  0
  2  7  2  0  0  0  0
  3 23  1  0  0  0  0
  3  7  1  0  0  0  0
  4  2  1  0  0  0  0
  5  8  1  0  0  0  0
  6  4  1  0  0  0  0
  7 13  1  0  0  0  0
  8  6  2  0  0  0  0
  8 11  1  0  0  0  0
  9  1  2  0  0  0  0
 10  9  1  0  0  0  0
 10  5  2  0  0  0  0
 11  3  2  0  0  0  0
 12 19  1  0  0  0  0
 13 12  3  0  0  0  0
 15 21  2  0  0  0  0
 15 18  1  0  0  0  0
 16 18  1  0  0  0  0
 17 14  2  0  0  0  0
 18 22  2  0  0  0  0
 19 20  2  0  0  0  0
 19 16  1  0  0  0  0
 20 15  1  0  0  0  0
 21 17  1  0  0  0  0
 22 14  1  0  0  0  0
 23 24  1  0  0  0  0
 25 28  1  1  0  0  0
 26 27  1  0  0  0  0
 26 25  1  0  0  0  0
 27 24  1  6  0  0  0
 27 25  1  0  0  0  0
 28 29  1  0  0  0  0
 29 32  1  0  0  0  0
 30 32  2  0  0  0  0
 32 31  1  0  0  0  0
M  END
>  <MODEL>
6

>  <REMARK>
 VINA RESULT:      -7.8      1.301      1.581
  Name = 
  8 active torsions:
  status: ('A' for Active; 'I' for Inactive)
    1  A    between atoms: C_7  and  C_19
    2  A    between atoms: C_7  and  C_23
    3  A    between atoms: C_8  and  C_21
    4  A    between atoms: C_9  and  N_17
    5  A    between atoms: C_13  and  C_18
    6  A    between atoms: N_17  and  C_27
    7  A    between atoms: C_23  and  C_30
    8  A    between atoms: C_27  and  C_29
                            x       y       z     vdW  Elec       q    Type
                         _______ _______ _______ _____ _____    ______ ____

>  <TORSDO>
F 8

$$$$
=
 OpenBabel10232408183D

 32 36  0  0  1  0  0  0  0  0999 V2000
  184.1500  178.7800  146.0990 N   0  0  0  0  0  0  0  0  0  0  0  0
  182.9010  178.7880  142.8450 C   0  0  0  0  0  3  0  0  0  0  0  0
  185.1360  178.8860  141.7450 C   0  0  0  0  0  0  0  0  0  0  0  0
  183.3180  179.6740  143.9670 C   0  0  0  0  0  2  0  0  0  0  0  0
  186.6180  178.1480  145.0460 C   0  0  0  0  0  3  0  0  0  0  0  0
  184.3800  179.0110  144.7770 C   0  0  0  0  0  0  0  0  0  0  0  0
  183.7130  178.4400  141.8450 C   0  0  0  0  0  0  0  0  0  0  0  0
  185.6280  178.6780  144.2140 C   0  0  0  0  0  0  0  0  0  0  0  0
  185.0990  178.2410  146.9090 C   0  0  0  0  0  3  0  0  0  0  0  0
  186.3550  177.9190  146.3960 C   0  0  0  0  0  3  0  0  0  0  0  0
  185.9670  178.9190  142.7980 C   0  0  0  0  0  3  0  0  0  0  0  0
  182.7480  176.8390  139.9750 C   0  0  0  0  0  0  0  0  0  0  0  0
  183.1770  177.5770  140.8270 C   0  0  0  0  0  0  0  0  0  0  0  0
  180.6690  173.1310  135.5320 C   0  0  0  0  0  3  0  0  0  0  0  0
  182.3420  174.3840  137.3760 C   0  0  0  0  0  0  0  0  0  0  0  0
  180.6610  175.9240  138.4100 S   0  0  0  0  0  0  0  0  0  0  0  0
  182.0300  172.7770  135.6120 C   0  0  0  0  0  3  0  0  0  0  0  0
  181.0010  174.7240  137.2890 C   0  0  0  0  0  0  0  0  0  0  0  0
  182.2620  175.9510  138.9600 C   0  0  0  0  0  0  0  0  0  0  0  0
  183.0540  175.0670  138.3070 N   0  0  0  0  0  0  0  0  0  0  0  0
  182.8790  173.4060  136.5380 C   0  0  0  0  0  3  0  0  0  0  0  0
  180.1400  174.1180  136.3790 C   0  0  0  0  0  3  0  0  0  0  0  0
  185.7170  179.1600  140.4650 N   0  0  0  0  0  2  0  0  0  0  0  0
  186.6140  178.2440  139.7780 C   0  0  0  0  0  2  0  0  0  0  0  0
  188.8840  177.4110  139.7140 C   0  0  2  0  0  3  0  0  0  0  0  0
  188.8990  178.7570  139.1230 N   0  0  0  0  0  2  0  0  0  0  0  0
  188.0300  178.4530  140.2690 C   0  0  1  0  0  3  0  0  0  0  0  0
  190.1100  177.2360  140.5880 C   0  0  0  0  0  2  0  0  0  0  0  0
  189.7550  177.4540  142.0500 C   0  0  0  0  0  2  0  0  0  0  0  0
  190.4940  175.3840  142.9750 O   0  0  0  0  0  0  0  0  0  0  0  0
  188.2460  175.7970  143.1470 O   0  0  0  0  0  1  0  0  0  0  0  0
  189.5250  176.1520  142.7390 C   0  0  0  0  0  0  0  0  0  0  0  0
  1  9  1  0  0  0  0
  2  4  1  0  0  0  0
  3  7  1  0  0  0  0
  3 11  2  0  0  0  0
  4  6  1  0  0  0  0
  5 10  1  0  0  0  0
  6  1  2  0  0  0  0
  7  2  2  0  0  0  0
  8  6  1  0  0  0  0
  8  5  2  0  0  0  0
 10  9  2  0  0  0  0
 11  8  1  0  0  0  0
 12 13  3  0  0  0  0
 13  7  1  0  0  0  0
 14 17  2  0  0  0  0
 14 22  1  0  0  0  0
 15 20  1  0  0  0  0
 16 19  1  0  0  0  0
 17 21  1  0  0  0  0
 18 15  1  0  0  0  0
 18 16  1  0  0  0  0
 19 12  1  0  0  0  0
 20 19  2  0  0  0  0
 21 15  2  0  0  0  0
 22 18  2  0  0  0  0
 23  3  1  0  0  0  0
 24 23  1  0  0  0  0
 25 27  1  0  0  0  0
 25 28  1  1  0  0  0
 26 25  1  0  0  0  0
 26 27  1  0  0  0  0
 27 24  1  6  0  0  0
 28 29  1  0  0  0  0
 29 32  1  0  0  0  0
 32 30  2  0  0  0  0
 32 31  1  0  0  0  0
M  END
>  <MODEL>
7

>  <REMARK>
 VINA RESULT:      -7.7      4.333      9.269
  Name = 
  8 active torsions:
  status: ('A' for Active; 'I' for Inactive)
    1  A    between atoms: C_7  and  C_19
    2  A    between atoms: C_7  and  C_23
    3  A    between atoms: C_8  and  C_21
    4  A    between atoms: C_9  and  N_17
    5  A    between atoms: C_13  and  C_18
    6  A    between atoms: N_17  and  C_27
    7  A    between atoms: C_23  and  C_30
    8  A    between atoms: C_27  and  C_29
                            x       y       z     vdW  Elec       q    Type
                         _______ _______ _______ _____ _____    ______ ____

>  <TORSDO>
F 8

$$$$
=
 OpenBabel10232408183D

 32 36  0  0  1  0  0  0  0  0999 V2000
  194.6870  174.9610  137.7260 N   0  0  0  0  0  0  0  0  0  0  0  0
  192.5230  177.1200  139.4010 C   0  0  0  0  0  3  0  0  0  0  0  0
  190.5000  176.4690  138.0960 C   0  0  0  0  0  0  0  0  0  0  0  0
  193.4250  177.0100  138.2210 C   0  0  0  0  0  2  0  0  0  0  0  0
  192.4680  173.6470  136.7550 C   0  0  0  0  0  3  0  0  0  0  0  0
  193.4840  175.5970  137.7490 C   0  0  0  0  0  0  0  0  0  0  0  0
  191.2100  176.8840  139.3430 C   0  0  0  0  0  0  0  0  0  0  0  0
  192.3330  174.9370  137.2740 C   0  0  0  0  0  0  0  0  0  0  0  0
  194.8220  173.6970  137.2460 C   0  0  0  0  0  3  0  0  0  0  0  0
  193.7120  173.0170  136.7460 C   0  0  0  0  0  3  0  0  0  0  0  0
  190.9970  175.5630  137.2410 C   0  0  0  0  0  3  0  0  0  0  0  0
  189.8350  177.1720  141.5830 C   0  0  0  0  0  0  0  0  0  0  0  0
  190.4590  177.0280  140.5620 C   0  0  0  0  0  0  0  0  0  0  0  0
  186.6520  177.8800  146.7960 C   0  0  0  0  0  3  0  0  0  0  0  0
  188.7430  177.4750  144.9980 C   0  0  0  0  0  0  0  0  0  0  0  0
  187.4390  177.6680  142.8700 S   0  0  0  0  0  0  0  0  0  0  0  0
  187.9590  177.6540  147.2670 C   0  0  0  0  0  3  0  0  0  0  0  0
  187.4510  177.6990  144.5470 C   0  0  0  0  0  0  0  0  0  0  0  0
  189.1030  177.3670  142.8010 C   0  0  0  0  0  0  0  0  0  0  0  0
  189.6710  177.2870  144.0280 N   0  0  0  0  0  0  0  0  0  0  0  0
  189.0180  177.4480  146.3650 C   0  0  0  0  0  3  0  0  0  0  0  0
  186.3860  177.9040  145.4180 C   0  0  0  0  0  3  0  0  0  0  0  0
  189.1670  176.9250  137.8400 N   0  0  0  0  0  2  0  0  0  0  0  0
  188.3670  176.4720  136.7130 C   0  0  0  0  0  2  0  0  0  0  0  0
  186.4720  177.5190  137.7940 C   0  0  2  0  0  3  0  0  0  0  0  0
  187.3670  178.5960  137.3500 N   0  0  0  0  0  2  0  0  0  0  0  0
  187.1800  177.3930  136.5270 C   0  0  1  0  0  3  0  0  0  0  0  0
  185.0340  177.9260  137.5380 C   0  0  0  0  0  2  0  0  0  0  0  0
  184.2850  178.0800  138.8520 C   0  0  0  0  0  2  0  0  0  0  0  0
  184.1350  180.4610  138.8480 O   0  0  0  0  0  0  0  0  0  0  0  0
  185.1700  179.5380  140.6730 O   0  0  0  0  0  1  0  0  0  0  0  0
  184.5310  179.4260  139.4460 C   0  0  0  0  0  0  0  0  0  0  0  0
  1  6  1  0  0  0  0
  3  7  1  0  0  0  0
  4  2  1  0  0  0  0
  5  8  1  0  0  0  0
  6  4  1  0  0  0  0
  7  2  2  0  0  0  0
  7 13  1  0  0  0  0
  8  6  2  0  0  0  0
  9  1  2  0  0  0  0
 10  5  2  0  0  0  0
 10  9  1  0  0  0  0
 11  8  1  0  0  0  0
 11  3  2  0  0  0  0
 12 19  1  0  0  0  0
 13 12  3  0  0  0  0
 14 17  1  0  0  0  0
 15 21  1  0  0  0  0
 16 18  1  0  0  0  0
 18 15  2  0  0  0  0
 18 22  1  0  0  0  0
 19 16  1  0  0  0  0
 19 20  2  0  0  0  0
 20 15  1  0  0  0  0
 21 17  2  0  0  0  0
 22 14  2  0  0  0  0
 23  3  1  0  0  0  0
 24 23  1  0  0  0  0
 25 28  1  6  0  0  0
 26 25  1  0  0  0  0
 27 24  1  1  0  0  0
 27 26  1  0  0  0  0
 27 25  1  0  0  0  0
 28 29  1  0  0  0  0
 29 32  1  0  0  0  0
 30 32  2  0  0  0  0
 32 31  1  0  0  0  0
M  END
>  <MODEL>
8

>  <REMARK>
 VINA RESULT:      -7.6      2.214      3.286
  Name = 
  8 active torsions:
  status: ('A' for Active; 'I' for Inactive)
    1  A    between atoms: C_7  and  C_19
    2  A    between atoms: C_7  and  C_23
    3  A    between atoms: C_8  and  C_21
    4  A    between atoms: C_9  and  N_17
    5  A    between atoms: C_13  and  C_18
    6  A    between atoms: N_17  and  C_27
    7  A    between atoms: C_23  and  C_30
    8  A    between atoms: C_27  and  C_29
                            x       y       z     vdW  Elec       q    Type
                         _______ _______ _______ _____ _____    ______ ____

>  <TORSDO>
F 8

$$$$
=
 OpenBabel10232408183D

 32 36  0  0  1  0  0  0  0  0999 V2000
  193.0150  174.6810  137.7310 N   0  0  0  0  0  0  0  0  0  0  0  0
  191.5030  177.0050  139.8440 C   0  0  0  0  0  3  0  0  0  0  0  0
  189.7850  177.7310  138.1890 C   0  0  0  0  0  0  0  0  0  0  0  0
  192.5590  176.8430  138.8060 C   0  0  0  0  0  2  0  0  0  0  0  0
  190.7820  174.8390  136.1210 C   0  0  0  0  0  3  0  0  0  0  0  0
  192.1850  175.7530  137.8590 C   0  0  0  0  0  0  0  0  0  0  0  0
  190.2620  177.4100  139.5680 C   0  0  0  0  0  0  0  0  0  0  0  0
  191.0290  175.8450  137.0590 C   0  0  0  0  0  0  0  0  0  0  0  0
  192.7680  173.6860  136.8390 C   0  0  0  0  0  3  0  0  0  0  0  0
  191.6470  173.7500  136.0120 C   0  0  0  0  0  3  0  0  0  0  0  0
  190.0920  176.9840  137.1180 C   0  0  0  0  0  3  0  0  0  0  0  0
  188.5660  177.6380  141.5840 C   0  0  0  0  0  0  0  0  0  0  0  0
  189.3430  177.5230  140.6700 C   0  0  0  0  0  0  0  0  0  0  0  0
  184.6370  178.4560  146.2430 C   0  0  0  0  0  3  0  0  0  0  0  0
  185.7230  178.3260  143.6790 C   0  0  0  0  0  0  0  0  0  0  0  0
  188.0180  177.5350  144.2920 S   0  0  0  0  0  0  0  0  0  0  0  0
  183.8570  178.8050  145.1230 C   0  0  0  0  0  3  0  0  0  0  0  0
  186.4800  177.9850  144.7890 C   0  0  0  0  0  0  0  0  0  0  0  0
  187.6370  177.8010  142.6640 C   0  0  0  0  0  0  0  0  0  0  0  0
  186.3630  178.2280  142.4880 N   0  0  0  0  0  0  0  0  0  0  0  0
  184.4000  178.7430  143.8280 C   0  0  0  0  0  3  0  0  0  0  0  0
  185.9680  178.0390  146.0820 C   0  0  0  0  0  3  0  0  0  0  0  0
  188.8420  178.7880  137.9800 N   0  0  0  0  0  2  0  0  0  0  0  0
  187.6660  178.6580  137.1350 C   0  0  0  0  0  2  0  0  0  0  0  0
  185.4780  177.6390  136.9680 C   0  0  2  0  0  3  0  0  0  0  0  0
  186.4690  176.5750  136.7570 N   0  0  0  0  0  2  0  0  0  0  0  0
  186.7160  177.6430  137.7350 C   0  0  1  0  0  3  0  0  0  0  0  0
  184.3470  177.1060  137.8250 C   0  0  0  0  0  2  0  0  0  0  0  0
  184.1890  177.9510  139.0800 C   0  0  0  0  0  2  0  0  0  0  0  0
  183.8630  180.3060  139.2620 O   0  0  0  0  0  1  0  0  0  0  0  0
  182.3560  179.1990  137.9360 O   0  0  0  0  0  0  0  0  0  0  0  0
  183.4600  179.2160  138.7770 C   0  0  0  0  0  0  0  0  0  0  0  0
  1  6  1  0  0  0  0
  3  7  1  0  0  0  0
  4  2  1  0  0  0  0
  5  8  1  0  0  0  0
  6  4  1  0  0  0  0
  7  2  2  0  0  0  0
  7 13  1  0  0  0  0
  8 11  1  0  0  0  0
  8  6  2  0  0  0  0
  9  1  2  0  0  0  0
 10  5  2  0  0  0  0
 10  9  1  0  0  0  0
 11  3  2  0  0  0  0
 12 19  1  0  0  0  0
 13 12  3  0  0  0  0
 15 21  2  0  0  0  0
 15 18  1  0  0  0  0
 16 18  1  0  0  0  0
 17 14  2  0  0  0  0
 18 22  2  0  0  0  0
 19 16  1  0  0  0  0
 20 19  2  0  0  0  0
 20 15  1  0  0  0  0
 21 17  1  0  0  0  0
 22 14  1  0  0  0  0
 23  3  1  0  0  0  0
 24 23  1  0  0  0  0
 25 27  1  0  0  0  0
 25 28  1  1  0  0  0
 26 25  1  0  0  0  0
 26 27  1  0  0  0  0
 27 24  1  6  0  0  0
 28 29  1  0  0  0  0
 31 32  2  0  0  0  0
 32 29  1  0  0  0  0
 32 30  1  0  0  0  0
M  END
>  <MODEL>
9

>  <REMARK>
 VINA RESULT:      -7.6      2.406      3.295
  Name = 
  8 active torsions:
  status: ('A' for Active; 'I' for Inactive)
    1  A    between atoms: C_7  and  C_19
    2  A    between atoms: C_7  and  C_23
    3  A    between atoms: C_8  and  C_21
    4  A    between atoms: C_9  and  N_17
    5  A    between atoms: C_13  and  C_18
    6  A    between atoms: N_17  and  C_27
    7  A    between atoms: C_23  and  C_30
    8  A    between atoms: C_27  and  C_29
                            x       y       z     vdW  Elec       q    Type
                         _______ _______ _______ _____ _____    ______ ____

>  <TORSDO>
F 8

$$$$
