=
 OpenBabel10232409563D

 34 37  0  0  1  0  0  0  0  0999 V2000
  188.3310  177.8670  143.5980 C   0  0  1  0  0  3  0  0  0  0  0  0
  186.1510  178.4050  139.2180 C   0  0  0  0  0  1  0  0  0  0  0  0
  188.8990  178.0170  138.1710 C   0  0  2  0  0  3  0  0  0  0  0  0
  191.1300  176.7870  138.5410 C   0  0  0  0  0  0  0  0  0  0  0  0
  189.2020  176.6160  141.7960 C   0  0  1  0  0  3  0  0  0  0  0  0
  189.8590  177.7500  143.6760 C   0  0  2  0  0  0  0  0  0  0  0  0
  187.2270  177.9160  140.1410 C   0  0  0  0  0  0  0  0  0  0  0  0
  189.0550  179.4610  138.1050 N   0  0  0  0  0  1  0  0  0  0  0  0
  186.9940  177.8030  141.4610 C   0  0  0  0  0  0  0  0  0  0  0  0
  192.4600  176.3370  138.0430 C   0  0  0  0  0  1  0  0  0  0  0  0
  190.3300  177.3450  136.3790 O   0  0  0  0  0  0  0  0  0  0  0  0
  190.8360  176.6410  139.8300 C   0  0  0  0  0  3  0  0  0  0  0  0
  188.5770  177.6030  139.5940 C   0  0  0  0  0  0  0  0  0  0  0  0
  190.4450  179.1190  143.3600 C   0  0  0  0  0  1  0  0  0  0  0  0
  188.0390  177.3110  142.3100 N   0  0  0  0  0  0  0  0  0  0  0  0
  189.5230  177.0330  140.3820 C   0  0  0  0  0  0  0  0  0  0  0  0
  187.5680  177.0800  144.6610 C   0  0  0  0  0  1  0  0  0  0  0  0
  190.1340  177.3600  137.6240 C   0  0  0  0  0  0  0  0  0  0  0  0
  190.2920  176.8540  142.6640 O   0  0  0  0  0  0  0  0  0  0  0  0
  189.8060  177.8180  146.2120 C   0  0  0  0  0  3  0  0  0  0  0  0
  190.3700  177.3080  145.0330 C   0  0  0  0  0  0  0  0  0  0  0  0
  190.3200  177.4240  147.4470 C   0  0  0  0  0  0  0  0  0  0  0  0
  191.4270  176.4500  145.1160 N   0  0  0  0  0  0  0  0  0  0  0  0
  191.9420  176.0550  146.3120 C   0  0  0  0  0  3  0  0  0  0  0  0
  191.3940  176.5360  147.5030 C   0  0  0  0  0  3  0  0  0  0  0  0
  189.6210  178.0470  148.9260 Cl  0  0  0  0  0  0  0  0  0  0  0  0
  185.6730  178.1770  142.0590 C   0  0  0  0  0  2  0  0  0  0  0  0
  185.6540  179.6600  142.3810 C   0  0  0  0  0  2  0  0  0  0  0  0
  184.6780  179.9400  143.5120 C   0  0  0  0  0  2  0  0  0  0  0  0
  185.1660  179.4140  144.7420 O   0  0  0  0  0  0  0  0  0  0  0  0
  183.0750  178.8630  145.4980 O   0  0  0  0  0  0  0  0  0  0  0  0
  184.3150  178.9000  145.7200 C   0  0  0  0  0  0  0  0  0  0  0  0
  186.1240  178.8020  147.3880 C   0  0  0  0  0  1  0  0  0  0  0  0
  184.8320  178.4320  146.9320 O   0  0  0  0  0  0  0  0  0  0  0  0
  1  6  1  0  0  0  0
  1 17  1  1  0  0  0
  2  7  1  0  0  0  0
  3  8  1  1  0  0  0
  3 13  1  0  0  0  0
  4 12  2  0  0  0  0
  5 16  1  6  0  0  0
  5 15  1  0  0  0  0
  5 19  1  0  0  0  0
  6 14  1  6  0  0  0
  6 21  1  0  0  0  0
  7  9  2  0  0  0  0
  9 27  1  0  0  0  0
  9 15  1  0  0  0  0
 10  4  1  0  0  0  0
 11 18  2  0  0  0  0
 12 16  1  0  0  0  0
 13  7  1  0  0  0  0
 13 16  2  0  0  0  0
 15  1  1  0  0  0  0
 18  3  1  0  0  0  0
 18  4  1  0  0  0  0
 19  6  1  0  0  0  0
 20 22  1  0  0  0  0
 21 23  1  0  0  0  0
 21 20  2  0  0  0  0
 22 25  2  0  0  0  0
 22 26  1  0  0  0  0
 23 24  2  0  0  0  0
 24 25  1  0  0  0  0
 27 28  1  0  0  0  0
 28 29  1  0  0  0  0
 29 30  1  0  0  0  0
 30 32  1  0  0  0  0
 31 32  2  0  0  0  0
 32 34  1  0  0  0  0
 34 33  1  0  0  0  0
M  END
>  <MODEL>
1

>  <REMARK>
 VINA RESULT:      -7.8      0.000      0.000
  Name = 
  7 active torsions:
  status: ('A' for Active; 'I' for Inactive)
    1  A    between atoms: O_1  and  C_18
    2  A    between atoms: O_1  and  C_29
    3  A    between atoms: C_2  and  C_15
    4  A    between atoms: C_2  and  C_33
    5  A    between atoms: C_9  and  C_13
    6  A    between atoms: C_18  and  O_30
    7  A    between atoms: C_29  and  C_33
                            x       y       z     vdW  Elec       q    Type
                         _______ _______ _______ _____ _____    ______ ____

>  <TORSDO>
F 7

$$$$
=
 OpenBabel10232409563D

 34 37  0  0  1  0  0  0  0  0999 V2000
  188.2620  178.2380  143.4450 C   0  0  1  0  0  3  0  0  0  0  0  0
  186.1550  178.8830  139.0450 C   0  0  0  0  0  1  0  0  0  0  0  0
  188.8130  178.0590  138.0170 C   0  0  2  0  0  3  0  0  0  0  0  0
  190.8490  176.5410  138.4440 C   0  0  0  0  0  0  0  0  0  0  0  0
  188.9350  176.7950  141.7020 C   0  0  1  0  0  3  0  0  0  0  0  0
  189.7590  177.9070  143.5290 C   0  0  2  0  0  0  0  0  0  0  0  0
  187.1560  178.2870  139.9890 C   0  0  0  0  0  0  0  0  0  0  0  0
  189.1730  179.4620  137.8860 N   0  0  0  0  0  1  0  0  0  0  0  0
  186.9170  178.2680  141.3130 C   0  0  0  0  0  0  0  0  0  0  0  0
  192.0980  175.8840  137.9680 C   0  0  0  0  0  1  0  0  0  0  0  0
  190.1230  177.1100  136.2590 O   0  0  0  0  0  0  0  0  0  0  0  0
  190.5440  176.4970  139.7390 C   0  0  0  0  0  3  0  0  0  0  0  0
  188.4440  177.7610  139.4580 C   0  0  0  0  0  0  0  0  0  0  0  0
  190.5320  179.1630  143.1510 C   0  0  0  0  0  1  0  0  0  0  0  0
  187.8860  177.6720  142.1840 N   0  0  0  0  0  0  0  0  0  0  0  0
  189.3040  177.0970  140.2720 C   0  0  0  0  0  0  0  0  0  0  0  0
  187.4020  177.6160  144.5430 C   0  0  0  0  0  1  0  0  0  0  0  0
  189.9380  177.2090  137.5020 C   0  0  0  0  0  0  0  0  0  0  0  0
  190.0530  176.9140  142.5600 O   0  0  0  0  0  0  0  0  0  0  0  0
  189.5290  177.8830  146.0560 C   0  0  0  0  0  3  0  0  0  0  0  0
  190.2100  177.4590  144.9050 C   0  0  0  0  0  0  0  0  0  0  0  0
  189.9880  177.4870  147.3120 C   0  0  0  0  0  0  0  0  0  0  0  0
  191.3230  176.6820  145.0370 N   0  0  0  0  0  0  0  0  0  0  0  0
  191.7850  176.2870  146.2540 C   0  0  0  0  0  3  0  0  0  0  0  0
  191.1220  176.6820  147.4170 C   0  0  0  0  0  3  0  0  0  0  0  0
  189.1430  178.0020  148.7560 Cl  0  0  0  0  0  0  0  0  0  0  0  0
  185.6660  178.8540  141.8930 C   0  0  0  0  0  2  0  0  0  0  0  0
  184.6270  177.7640  142.0810 C   0  0  0  0  0  2  0  0  0  0  0  0
  183.2970  178.1990  141.4860 C   0  0  0  0  0  2  0  0  0  0  0  0
  182.7080  179.2320  142.2690 O   0  0  0  0  0  0  0  0  0  0  0  0
  181.4710  178.4800  144.0450 O   0  0  0  0  0  0  0  0  0  0  0  0
  182.4940  179.0940  143.6410 C   0  0  0  0  0  0  0  0  0  0  0  0
  184.0440  178.8330  145.5370 C   0  0  0  0  0  1  0  0  0  0  0  0
  183.4040  179.6340  144.5550 O   0  0  0  0  0  0  0  0  0  0  0  0
  1  6  1  0  0  0  0
  1 17  1  1  0  0  0
  2  7  1  0  0  0  0
  3  8  1  1  0  0  0
  3 13  1  0  0  0  0
  4 12  2  0  0  0  0
  5 16  1  6  0  0  0
  5 15  1  0  0  0  0
  5 19  1  0  0  0  0
  6 14  1  6  0  0  0
  6 21  1  0  0  0  0
  7  9  2  0  0  0  0
  9 27  1  0  0  0  0
  9 15  1  0  0  0  0
 10  4  1  0  0  0  0
 11 18  2  0  0  0  0
 12 16  1  0  0  0  0
 13  7  1  0  0  0  0
 13 16  2  0  0  0  0
 15  1  1  0  0  0  0
 18  3  1  0  0  0  0
 18  4  1  0  0  0  0
 19  6  1  0  0  0  0
 20 22  1  0  0  0  0
 21 23  1  0  0  0  0
 21 20  2  0  0  0  0
 22 25  2  0  0  0  0
 22 26  1  0  0  0  0
 23 24  2  0  0  0  0
 24 25  1  0  0  0  0
 27 28  1  0  0  0  0
 29 28  1  0  0  0  0
 29 30  1  0  0  0  0
 30 32  1  0  0  0  0
 32 31  2  0  0  0  0
 32 34  1  0  0  0  0
 34 33  1  0  0  0  0
M  END
>  <MODEL>
2

>  <REMARK>
 VINA RESULT:      -7.7      0.999      1.321
  Name = 
  7 active torsions:
  status: ('A' for Active; 'I' for Inactive)
    1  A    between atoms: O_1  and  C_18
    2  A    between atoms: O_1  and  C_29
    3  A    between atoms: C_2  and  C_15
    4  A    between atoms: C_2  and  C_33
    5  A    between atoms: C_9  and  C_13
    6  A    between atoms: C_18  and  O_30
    7  A    between atoms: C_29  and  C_33
                            x       y       z     vdW  Elec       q    Type
                         _______ _______ _______ _____ _____    ______ ____

>  <TORSDO>
F 7

$$$$
=
 OpenBabel10232409563D

 34 37  0  0  1  0  0  0  0  0999 V2000
  188.4900  177.6050  142.5090 C   0  0  1  0  0  3  0  0  0  0  0  0
  185.7040  178.6490  138.5890 C   0  0  0  0  0  1  0  0  0  0  0  0
  183.4640  178.3420  140.5090 C   0  0  2  0  0  3  0  0  0  0  0  0
  182.7300  178.7050  142.9500 C   0  0  0  0  0  0  0  0  0  0  0  0
  186.5140  178.8410  142.8850 C   0  0  1  0  0  3  0  0  0  0  0  0
  187.8200  177.2150  143.8340 C   0  0  2  0  0  0  0  0  0  0  0  0
  185.9990  178.5830  140.0570 C   0  0  0  0  0  0  0  0  0  0  0  0
  183.3050  176.9650  140.0700 N   0  0  0  0  0  1  0  0  0  0  0  0
  187.2690  178.5050  140.4950 C   0  0  0  0  0  0  0  0  0  0  0  0
  181.6590  178.7970  143.9810 C   0  0  0  0  0  1  0  0  0  0  0  0
  181.2160  178.8610  141.1300 O   0  0  0  0  0  0  0  0  0  0  0  0
  184.0030  178.6820  143.3360 C   0  0  0  0  0  3  0  0  0  0  0  0
  184.8720  178.5510  141.0320 C   0  0  0  0  0  0  0  0  0  0  0  0
  187.2350  175.8200  143.6630 C   0  0  0  0  0  1  0  0  0  0  0  0
  187.5150  178.4640  141.9060 N   0  0  0  0  0  0  0  0  0  0  0  0
  185.1150  178.6270  142.3650 C   0  0  0  0  0  0  0  0  0  0  0  0
  189.8030  178.3710  142.6520 C   0  0  0  0  0  1  0  0  0  0  0  0
  182.4000  178.6670  141.5170 C   0  0  0  0  0  0  0  0  0  0  0  0
  186.7420  178.1050  144.0710 O   0  0  0  0  0  0  0  0  0  0  0  0
  188.3560  177.6700  146.2720 C   0  0  0  0  0  3  0  0  0  0  0  0
  188.7680  177.1980  145.0170 C   0  0  0  0  0  0  0  0  0  0  0  0
  189.2600  177.6790  147.3340 C   0  0  0  0  0  0  0  0  0  0  0  0
  190.0540  176.7740  144.8520 N   0  0  0  0  0  0  0  0  0  0  0  0
  190.9490  176.7750  145.8770 C   0  0  0  0  0  3  0  0  0  0  0  0
  190.5660  177.2280  147.1410 C   0  0  0  0  0  3  0  0  0  0  0  0
  188.7580  178.2590  148.9070 Cl  0  0  0  0  0  0  0  0  0  0  0  0
  188.4250  178.4600  139.5440 C   0  0  0  0  0  2  0  0  0  0  0  0
  188.7910  177.0180  139.2450 C   0  0  0  0  0  2  0  0  0  0  0  0
  189.1310  176.8570  137.7730 C   0  0  0  0  0  2  0  0  0  0  0  0
  190.5320  176.9940  137.5610 O   0  0  0  0  0  0  0  0  0  0  0  0
  191.3240  174.9440  138.2090 O   0  0  0  0  0  0  0  0  0  0  0  0
  191.4660  176.1970  138.2230 C   0  0  0  0  0  0  0  0  0  0  0  0
  192.4090  177.3150  140.2030 C   0  0  0  0  0  1  0  0  0  0  0  0
  192.5430  176.7800  138.8960 O   0  0  0  0  0  0  0  0  0  0  0  0
  1 17  1  1  0  0  0
  1  6  1  0  0  0  0
  2  7  1  0  0  0  0
  3  8  1  1  0  0  0
  3 13  1  0  0  0  0
  3 18  1  0  0  0  0
  4 12  2  0  0  0  0
  4 10  1  0  0  0  0
  5 16  1  6  0  0  0
  5 19  1  0  0  0  0
  6 14  1  6  0  0  0
  6 19  1  0  0  0  0
  6 21  1  0  0  0  0
  7  9  2  0  0  0  0
  7 13  1  0  0  0  0
  9 15  1  0  0  0  0
 11 18  2  0  0  0  0
 13 16  2  0  0  0  0
 15  1  1  0  0  0  0
 15  5  1  0  0  0  0
 16 12  1  0  0  0  0
 18  4  1  0  0  0  0
 20 22  1  0  0  0  0
 21 20  2  0  0  0  0
 22 26  1  0  0  0  0
 23 21  1  0  0  0  0
 23 24  2  0  0  0  0
 24 25  1  0  0  0  0
 25 22  2  0  0  0  0
 27  9  1  0  0  0  0
 28 27  1  0  0  0  0
 29 28  1  0  0  0  0
 30 29  1  0  0  0  0
 30 32  1  0  0  0  0
 31 32  2  0  0  0  0
 32 34  1  0  0  0  0
 34 33  1  0  0  0  0
M  END
>  <MODEL>
3

>  <REMARK>
 VINA RESULT:      -7.5      2.052      6.337
  Name = 
  7 active torsions:
  status: ('A' for Active; 'I' for Inactive)
    1  A    between atoms: O_1  and  C_18
    2  A    between atoms: O_1  and  C_29
    3  A    between atoms: C_2  and  C_15
    4  A    between atoms: C_2  and  C_33
    5  A    between atoms: C_9  and  C_13
    6  A    between atoms: C_18  and  O_30
    7  A    between atoms: C_29  and  C_33
                            x       y       z     vdW  Elec       q    Type
                         _______ _______ _______ _____ _____    ______ ____

>  <TORSDO>
F 7

$$$$
=
 OpenBabel10232409563D

 34 37  0  0  1  0  0  0  0  0999 V2000
  187.8680  177.9140  143.1540 C   0  0  1  0  0  3  0  0  0  0  0  0
  185.5610  178.6100  138.8630 C   0  0  0  0  0  1  0  0  0  0  0  0
  183.1100  178.2920  140.5040 C   0  0  2  0  0  3  0  0  0  0  0  0
  182.0560  178.7450  142.8090 C   0  0  0  0  0  0  0  0  0  0  0  0
  185.8080  179.0680  143.2080 C   0  0  1  0  0  3  0  0  0  0  0  0
  187.0520  177.5610  144.4050 C   0  0  2  0  0  0  0  0  0  0  0  0
  185.6690  178.6350  140.3570 C   0  0  0  0  0  0  0  0  0  0  0  0
  183.0690  176.8880  140.1290 N   0  0  0  0  0  1  0  0  0  0  0  0
  186.8750  178.6440  140.9550 C   0  0  0  0  0  0  0  0  0  0  0  0
  180.8600  178.8370  143.6910 C   0  0  0  0  0  1  0  0  0  0  0  0
  180.7810  178.7290  140.8080 O   0  0  0  0  0  0  0  0  0  0  0  0
  183.2700  178.8070  143.3510 C   0  0  0  0  0  3  0  0  0  0  0  0
  184.4300  178.5980  141.1840 C   0  0  0  0  0  0  0  0  0  0  0  0
  186.5550  176.1310  144.2440 C   0  0  0  0  0  1  0  0  0  0  0  0
  186.9410  178.6910  142.3850 N   0  0  0  0  0  0  0  0  0  0  0  0
  184.4980  178.7570  142.5310 C   0  0  0  0  0  0  0  0  0  0  0  0
  189.1180  178.7520  143.4140 C   0  0  0  0  0  1  0  0  0  0  0  0
  181.9140  178.6150  141.3500 C   0  0  0  0  0  0  0  0  0  0  0  0
  185.9150  178.4070  144.4540 O   0  0  0  0  0  0  0  0  0  0  0  0
  189.1200  177.0850  145.7980 C   0  0  0  0  0  3  0  0  0  0  0  0
  187.8420  177.6540  145.6960 C   0  0  0  0  0  0  0  0  0  0  0  0
  189.8090  177.1520  147.0090 C   0  0  0  0  0  0  0  0  0  0  0  0
  187.2860  178.2460  146.7920 N   0  0  0  0  0  0  0  0  0  0  0  0
  187.9430  178.3210  147.9810 C   0  0  0  0  0  3  0  0  0  0  0  0
  189.2220  177.7740  148.1100 C   0  0  0  0  0  3  0  0  0  0  0  0
  191.4070  176.4520  147.1470 Cl  0  0  0  0  0  0  0  0  0  0  0  0
  188.1440  178.6080  140.1590 C   0  0  0  0  0  2  0  0  0  0  0  0
  188.4480  177.1820  139.7390 C   0  0  0  0  0  2  0  0  0  0  0  0
  189.9490  176.9800  139.6160 C   0  0  0  0  0  2  0  0  0  0  0  0
  190.5120  176.6040  140.8680 O   0  0  0  0  0  0  0  0  0  0  0  0
  192.5170  177.6590  140.5300 O   0  0  0  0  0  0  0  0  0  0  0  0
  191.6970  177.1630  141.3480 C   0  0  0  0  0  0  0  0  0  0  0  0
  191.6610  176.0620  143.5500 C   0  0  0  0  0  1  0  0  0  0  0  0
  191.9710  177.1690  142.7190 O   0  0  0  0  0  0  0  0  0  0  0  0
  1 17  1  1  0  0  0
  1  6  1  0  0  0  0
  2  7  1  0  0  0  0
  3  8  1  1  0  0  0
  3 13  1  0  0  0  0
  3 18  1  0  0  0  0
  4 12  2  0  0  0  0
  4 10  1  0  0  0  0
  5 16  1  6  0  0  0
  5 19  1  0  0  0  0
  6 14  1  6  0  0  0
  6 19  1  0  0  0  0
  6 21  1  0  0  0  0
  7  9  2  0  0  0  0
  7 13  1  0  0  0  0
  9 15  1  0  0  0  0
 11 18  2  0  0  0  0
 13 16  2  0  0  0  0
 15  1  1  0  0  0  0
 15  5  1  0  0  0  0
 16 12  1  0  0  0  0
 18  4  1  0  0  0  0
 20 22  1  0  0  0  0
 21 20  2  0  0  0  0
 21 23  1  0  0  0  0
 22 26  1  0  0  0  0
 22 25  2  0  0  0  0
 23 24  2  0  0  0  0
 24 25  1  0  0  0  0
 27  9  1  0  0  0  0
 28 27  1  0  0  0  0
 29 28  1  0  0  0  0
 29 30  1  0  0  0  0
 30 32  1  0  0  0  0
 31 32  2  0  0  0  0
 32 34  1  0  0  0  0
 34 33  1  0  0  0  0
M  END
>  <MODEL>
4

>  <REMARK>
 VINA RESULT:      -7.3      2.379      6.181
  Name = 
  7 active torsions:
  status: ('A' for Active; 'I' for Inactive)
    1  A    between atoms: O_1  and  C_18
    2  A    between atoms: O_1  and  C_29
    3  A    between atoms: C_2  and  C_15
    4  A    between atoms: C_2  and  C_33
    5  A    between atoms: C_9  and  C_13
    6  A    between atoms: C_18  and  O_30
    7  A    between atoms: C_29  and  C_33
                            x       y       z     vdW  Elec       q    Type
                         _______ _______ _______ _____ _____    ______ ____

>  <TORSDO>
F 7

$$$$
=
 OpenBabel10232409563D

 34 37  0  0  1  0  0  0  0  0999 V2000
  189.7550  177.2870  143.3530 C   0  0  1  0  0  3  0  0  0  0  0  0
  186.4640  177.6470  146.9940 C   0  0  0  0  0  1  0  0  0  0  0  0
  184.7000  178.6990  144.8530 C   0  0  2  0  0  3  0  0  0  0  0  0
  184.0910  178.5140  142.3580 C   0  0  0  0  0  0  0  0  0  0  0  0
  187.4910  176.9060  142.8050 C   0  0  1  0  0  3  0  0  0  0  0  0
  189.4100  177.8320  141.9610 C   0  0  2  0  0  0  0  0  0  0  0  0
  186.8840  177.5090  145.5620 C   0  0  0  0  0  0  0  0  0  0  0  0
  185.0640  180.0500  145.2470 N   0  0  0  0  0  1  0  0  0  0  0  0
  188.1120  177.0560  145.2510 C   0  0  0  0  0  0  0  0  0  0  0  0
  183.1620  178.7910  141.2270 C   0  0  0  0  0  1  0  0  0  0  0  0
  182.4920  179.0700  144.0190 O   0  0  0  0  0  0  0  0  0  0  0  0
  185.2960  178.0130  142.1010 C   0  0  0  0  0  3  0  0  0  0  0  0
  185.9490  177.9240  144.4780 C   0  0  0  0  0  0  0  0  0  0  0  0
  189.4140  179.3520  142.0450 C   0  0  0  0  0  1  0  0  0  0  0  0
  188.4720  176.9150  143.8710 N   0  0  0  0  0  0  0  0  0  0  0  0
  186.2530  177.6820  143.1780 C   0  0  0  0  0  0  0  0  0  0  0  0
  190.6640  176.0590  143.3570 C   0  0  0  0  0  1  0  0  0  0  0  0
  183.6840  178.7610  143.7500 C   0  0  0  0  0  0  0  0  0  0  0  0
  188.0910  177.4240  141.6340 O   0  0  0  0  0  0  0  0  0  0  0  0
  189.9490  176.6440  139.7840 C   0  0  0  0  0  3  0  0  0  0  0  0
  190.3830  177.4070  140.8790 C   0  0  0  0  0  0  0  0  0  0  0  0
  190.8730  176.2340  138.8220 C   0  0  0  0  0  0  0  0  0  0  0  0
  191.7060  177.7180  140.9930 N   0  0  0  0  0  0  0  0  0  0  0  0
  192.6210  177.3270  140.0650 C   0  0  0  0  0  3  0  0  0  0  0  0
  192.2180  176.5770  138.9580 C   0  0  0  0  0  3  0  0  0  0  0  0
  190.3440  175.2870  137.4480 Cl  0  0  0  0  0  0  0  0  0  0  0  0
  189.1070  176.6970  146.3130 C   0  0  0  0  0  2  0  0  0  0  0  0
  189.5990  177.9560  147.0040 C   0  0  0  0  0  2  0  0  0  0  0  0
  190.5680  177.5970  148.1190 C   0  0  0  0  0  2  0  0  0  0  0  0
  191.8480  177.2680  147.5880 O   0  0  0  0  0  0  0  0  0  0  0  0
  192.3080  175.1560  146.8290 O   0  0  0  0  0  0  0  0  0  0  0  0
  192.4180  176.0060  147.7540 C   0  0  0  0  0  0  0  0  0  0  0  0
  193.6450  176.6900  149.7760 C   0  0  0  0  0  1  0  0  0  0  0  0
  193.1010  175.6880  148.9320 O   0  0  0  0  0  0  0  0  0  0  0  0
  1 17  1  6  0  0  0
  1 15  1  0  0  0  0
  3  8  1  6  0  0  0
  4 18  1  0  0  0  0
  5 19  1  6  0  0  0
  5 16  1  0  0  0  0
  5 15  1  0  0  0  0
  6 14  1  1  0  0  0
  6  1  1  0  0  0  0
  7  2  1  0  0  0  0
  9  7  2  0  0  0  0
  9 27  1  0  0  0  0
 10  4  1  0  0  0  0
 12  4  2  0  0  0  0
 12 16  1  0  0  0  0
 13  3  1  0  0  0  0
 13  7  1  0  0  0  0
 15  9  1  0  0  0  0
 16 13  2  0  0  0  0
 18 11  2  0  0  0  0
 18  3  1  0  0  0  0
 19  6  1  0  0  0  0
 20 21  1  0  0  0  0
 21 23  2  0  0  0  0
 21  6  1  0  0  0  0
 22 25  1  0  0  0  0
 22 20  2  0  0  0  0
 24 23  1  0  0  0  0
 25 24  2  0  0  0  0
 26 22  1  0  0  0  0
 27 28  1  0  0  0  0
 28 29  1  0  0  0  0
 30 32  1  0  0  0  0
 30 29  1  0  0  0  0
 31 32  2  0  0  0  0
 32 34  1  0  0  0  0
 34 33  1  0  0  0  0
M  END
>  <MODEL>
5

>  <REMARK>
 VINA RESULT:      -7.1      3.191      6.982
  Name = 
  7 active torsions:
  status: ('A' for Active; 'I' for Inactive)
    1  A    between atoms: O_1  and  C_18
    2  A    between atoms: O_1  and  C_29
    3  A    between atoms: C_2  and  C_15
    4  A    between atoms: C_2  and  C_33
    5  A    between atoms: C_9  and  C_13
    6  A    between atoms: C_18  and  O_30
    7  A    between atoms: C_29  and  C_33
                            x       y       z     vdW  Elec       q    Type
                         _______ _______ _______ _____ _____    ______ ____

>  <TORSDO>
F 7

$$$$
=
 OpenBabel10232409563D

 34 37  0  0  1  0  0  0  0  0999 V2000
  190.5730  177.0750  142.2800 C   0  0  1  0  0  3  0  0  0  0  0  0
  189.5680  177.9050  137.5340 C   0  0  0  0  0  1  0  0  0  0  0  0
  186.7620  178.0300  138.4890 C   0  0  2  0  0  3  0  0  0  0  0  0
  185.2410  178.7410  140.4410 C   0  0  0  0  0  0  0  0  0  0  0  0
  188.7720  178.5220  141.7930 C   0  0  1  0  0  3  0  0  0  0  0  0
  189.4210  176.9040  143.2800 C   0  0  2  0  0  0  0  0  0  0  0  0
  189.2960  177.9830  139.0060 C   0  0  0  0  0  0  0  0  0  0  0  0
  186.5990  176.6320  138.1260 N   0  0  0  0  0  1  0  0  0  0  0  0
  190.2970  177.8410  139.8940 C   0  0  0  0  0  0  0  0  0  0  0  0
  183.8890  179.0500  140.9840 C   0  0  0  0  0  1  0  0  0  0  0  0
  184.5290  178.8210  138.1800 O   0  0  0  0  0  0  0  0  0  0  0  0
  186.2710  178.6470  141.2780 C   0  0  0  0  0  3  0  0  0  0  0  0
  187.8970  178.1690  139.4850 C   0  0  0  0  0  0  0  0  0  0  0  0
  188.7660  175.5580  143.0060 C   0  0  0  0  0  1  0  0  0  0  0  0
  190.0040  177.9440  141.2930 N   0  0  0  0  0  0  0  0  0  0  0  0
  187.6440  178.3780  140.8020 C   0  0  0  0  0  0  0  0  0  0  0  0
  191.8300  177.7290  142.8480 C   0  0  0  0  0  1  0  0  0  0  0  0
  185.4550  178.5660  138.9960 C   0  0  0  0  0  0  0  0  0  0  0  0
  188.4550  177.9120  143.0280 O   0  0  0  0  0  0  0  0  0  0  0  0
  189.0510  177.5270  145.7130 C   0  0  0  0  0  3  0  0  0  0  0  0
  189.8620  176.9390  144.7310 C   0  0  0  0  0  0  0  0  0  0  0  0
  189.4970  177.5790  147.0330 C   0  0  0  0  0  0  0  0  0  0  0  0
  191.0840  176.4460  145.0820 N   0  0  0  0  0  0  0  0  0  0  0  0
  191.5360  176.4890  146.3650 C   0  0  0  0  0  3  0  0  0  0  0  0
  190.7460  177.0570  147.3670 C   0  0  0  0  0  3  0  0  0  0  0  0
  188.4920  178.3040  148.2690 Cl  0  0  0  0  0  0  0  0  0  0  0  0
  191.7040  177.5810  139.4530 C   0  0  0  0  0  2  0  0  0  0  0  0
  191.8020  176.2000  138.8300 C   0  0  0  0  0  2  0  0  0  0  0  0
  192.9120  176.1690  137.7920 C   0  0  0  0  0  2  0  0  0  0  0  0
  194.1290  175.7090  138.3690 O   0  0  0  0  0  0  0  0  0  0  0  0
  195.3490  174.7240  136.6980 O   0  0  0  0  0  0  0  0  0  0  0  0
  194.8370  174.6260  137.8460 C   0  0  0  0  0  0  0  0  0  0  0  0
  195.6100  172.2980  138.0520 C   0  0  0  0  0  1  0  0  0  0  0  0
  194.9740  173.4480  138.5860 O   0  0  0  0  0  0  0  0  0  0  0  0
  1 17  1  1  0  0  0
  1  6  1  0  0  0  0
  2  7  1  0  0  0  0
  3  8  1  1  0  0  0
  3 18  1  0  0  0  0
  3 13  1  0  0  0  0
  4 10  1  0  0  0  0
  4 12  2  0  0  0  0
  5 16  1  6  0  0  0
  5 19  1  0  0  0  0
  6 14  1  6  0  0  0
  6 21  1  0  0  0  0
  7 13  1  0  0  0  0
  7  9  2  0  0  0  0
  9 15  1  0  0  0  0
 11 18  2  0  0  0  0
 13 16  2  0  0  0  0
 15  5  1  0  0  0  0
 15  1  1  0  0  0  0
 16 12  1  0  0  0  0
 18  4  1  0  0  0  0
 19  6  1  0  0  0  0
 20 22  1  0  0  0  0
 21 23  1  0  0  0  0
 21 20  2  0  0  0  0
 22 25  2  0  0  0  0
 22 26  1  0  0  0  0
 23 24  2  0  0  0  0
 24 25  1  0  0  0  0
 27  9  1  0  0  0  0
 28 27  1  0  0  0  0
 29 30  1  0  0  0  0
 29 28  1  0  0  0  0
 31 32  2  0  0  0  0
 32 30  1  0  0  0  0
 32 34  1  0  0  0  0
 33 34  1  0  0  0  0
M  END
>  <MODEL>
6

>  <REMARK>
 VINA RESULT:      -7.1      2.598      6.762
  Name = 
  7 active torsions:
  status: ('A' for Active; 'I' for Inactive)
    1  A    between atoms: O_1  and  C_18
    2  A    between atoms: O_1  and  C_29
    3  A    between atoms: C_2  and  C_15
    4  A    between atoms: C_2  and  C_33
    5  A    between atoms: C_9  and  C_13
    6  A    between atoms: C_18  and  O_30
    7  A    between atoms: C_29  and  C_33
                            x       y       z     vdW  Elec       q    Type
                         _______ _______ _______ _____ _____    ______ ____

>  <TORSDO>
F 7

$$$$
=
 OpenBabel10232409563D

 34 37  0  0  1  0  0  0  0  0999 V2000
  188.6620  177.5450  142.3130 C   0  0  1  0  0  3  0  0  0  0  0  0
  185.7490  178.6120  138.4920 C   0  0  0  0  0  1  0  0  0  0  0  0
  183.5760  178.3370  140.4930 C   0  0  2  0  0  3  0  0  0  0  0  0
  182.9340  178.7150  142.9570 C   0  0  0  0  0  0  0  0  0  0  0  0
  186.7150  178.8060  142.7560 C   0  0  1  0  0  3  0  0  0  0  0  0
  188.0350  177.1670  143.6620 C   0  0  2  0  0  0  0  0  0  0  0  0
  186.0960  178.5450  139.9490 C   0  0  0  0  0  0  0  0  0  0  0  0
  183.3860  176.9600  140.0640 N   0  0  0  0  0  1  0  0  0  0  0  0
  187.3790  178.4540  140.3410 C   0  0  0  0  0  0  0  0  0  0  0  0
  181.9020  178.8230  144.0260 C   0  0  0  0  0  1  0  0  0  0  0  0
  181.3580  178.8840  141.1930 O   0  0  0  0  0  0  0  0  0  0  0  0
  184.2200  178.6780  143.2970 C   0  0  0  0  0  3  0  0  0  0  0  0
  185.0050  178.5300  140.9630 C   0  0  0  0  0  0  0  0  0  0  0  0
  187.4290  175.7780  143.5170 C   0  0  0  0  0  1  0  0  0  0  0  0
  187.6760  178.4140  141.7430 N   0  0  0  0  0  0  0  0  0  0  0  0
  185.2960  178.6070  142.2870 C   0  0  0  0  0  0  0  0  0  0  0  0
  189.9880  178.2960  142.4060 C   0  0  0  0  0  1  0  0  0  0  0  0
  182.5530  178.6760  141.5370 C   0  0  0  0  0  0  0  0  0  0  0  0
  186.9770  178.0710  143.9350 O   0  0  0  0  0  0  0  0  0  0  0  0
  188.6700  177.6380  146.0730 C   0  0  0  0  0  3  0  0  0  0  0  0
  189.0250  177.1420  144.8100 C   0  0  0  0  0  0  0  0  0  0  0  0
  189.6120  177.6380  147.1020 C   0  0  0  0  0  0  0  0  0  0  0  0
  190.2940  176.6860  144.6050 N   0  0  0  0  0  0  0  0  0  0  0  0
  191.2260  176.6790  145.5960 C   0  0  0  0  0  3  0  0  0  0  0  0
  190.8990  177.1560  146.8670 C   0  0  0  0  0  3  0  0  0  0  0  0
  189.1800  178.2480  148.6850 Cl  0  0  0  0  0  0  0  0  0  0  0  0
  188.5000  178.3930  139.3490 C   0  0  0  0  0  2  0  0  0  0  0  0
  188.6720  176.9690  138.8540 C   0  0  0  0  0  2  0  0  0  0  0  0
  189.0780  176.9680  137.3890 C   0  0  0  0  0  2  0  0  0  0  0  0
  187.9640  176.6620  136.5570 O   0  0  0  0  0  0  0  0  0  0  0  0
  187.9650  174.5100  135.7680 O   0  0  0  0  0  0  0  0  0  0  0  0
  187.4140  175.3810  136.4940 C   0  0  0  0  0  0  0  0  0  0  0  0
  184.9650  175.3960  136.7570 C   0  0  0  0  0  1  0  0  0  0  0  0
  186.2640  175.0690  137.2260 O   0  0  0  0  0  0  0  0  0  0  0  0
  1 17  1  1  0  0  0
  1  6  1  0  0  0  0
  2  7  1  0  0  0  0
  3  8  1  1  0  0  0
  3 13  1  0  0  0  0
  3 18  1  0  0  0  0
  4 12  2  0  0  0  0
  4 10  1  0  0  0  0
  5 16  1  6  0  0  0
  5 19  1  0  0  0  0
  6 14  1  6  0  0  0
  6 19  1  0  0  0  0
  6 21  1  0  0  0  0
  7  9  2  0  0  0  0
  7 13  1  0  0  0  0
  9 15  1  0  0  0  0
 11 18  2  0  0  0  0
 13 16  2  0  0  0  0
 15  1  1  0  0  0  0
 15  5  1  0  0  0  0
 16 12  1  0  0  0  0
 18  4  1  0  0  0  0
 20 22  1  0  0  0  0
 21 20  2  0  0  0  0
 22 26  1  0  0  0  0
 23 21  1  0  0  0  0
 23 24  2  0  0  0  0
 24 25  1  0  0  0  0
 25 22  2  0  0  0  0
 27  9  1  0  0  0  0
 28 27  1  0  0  0  0
 29 28  1  0  0  0  0
 30 29  1  0  0  0  0
 31 32  2  0  0  0  0
 32 30  1  0  0  0  0
 32 34  1  0  0  0  0
 33 34  1  0  0  0  0
M  END
>  <MODEL>
7

>  <REMARK>
 VINA RESULT:      -7.0      2.317      6.298
  Name = 
  7 active torsions:
  status: ('A' for Active; 'I' for Inactive)
    1  A    between atoms: O_1  and  C_18
    2  A    between atoms: O_1  and  C_29
    3  A    between atoms: C_2  and  C_15
    4  A    between atoms: C_2  and  C_33
    5  A    between atoms: C_9  and  C_13
    6  A    between atoms: C_18  and  O_30
    7  A    between atoms: C_29  and  C_33
                            x       y       z     vdW  Elec       q    Type
                         _______ _______ _______ _____ _____    ______ ____

>  <TORSDO>
F 7

$$$$
=
 OpenBabel10232409563D

 34 37  0  0  1  0  0  0  0  0999 V2000
  188.3080  177.7220  142.8740 C   0  0  1  0  0  3  0  0  0  0  0  0
  185.8620  178.5220  138.6790 C   0  0  0  0  0  1  0  0  0  0  0  0
  183.4680  178.2970  140.4160 C   0  0  2  0  0  3  0  0  0  0  0  0
  182.5250  178.7840  142.7610 C   0  0  0  0  0  0  0  0  0  0  0  0
  186.3000  178.9560  143.0120 C   0  0  1  0  0  3  0  0  0  0  0  0
  187.5290  177.3970  144.1560 C   0  0  2  0  0  0  0  0  0  0  0  0
  186.0310  178.5380  140.1680 C   0  0  0  0  0  0  0  0  0  0  0  0
  183.3550  176.8970  140.0410 N   0  0  0  0  0  1  0  0  0  0  0  0
  187.2580  178.4980  140.7170 C   0  0  0  0  0  0  0  0  0  0  0  0
  181.3690  178.9210  143.6900 C   0  0  0  0  0  1  0  0  0  0  0  0
  181.1720  178.8250  140.8130 O   0  0  0  0  0  0  0  0  0  0  0  0
  183.7600  178.7950  143.2550 C   0  0  0  0  0  3  0  0  0  0  0  0
  184.8250  178.5480  141.0440 C   0  0  0  0  0  0  0  0  0  0  0  0
  186.9690  175.9890  144.0130 C   0  0  0  0  0  1  0  0  0  0  0  0
  187.3830  178.5370  142.1440 N   0  0  0  0  0  0  0  0  0  0  0  0
  184.9520  178.6990  142.3870 C   0  0  0  0  0  0  0  0  0  0  0  0
  189.5990  178.5080  143.0860 C   0  0  0  0  0  1  0  0  0  0  0  0
  182.3190  178.6640  141.3100 C   0  0  0  0  0  0  0  0  0  0  0  0
  186.4290  178.2880  144.2510 O   0  0  0  0  0  0  0  0  0  0  0  0
  189.6470  176.8700  145.4520 C   0  0  0  0  0  3  0  0  0  0  0  0
  188.3720  177.4540  145.4150 C   0  0  0  0  0  0  0  0  0  0  0  0
  190.3860  176.9050  146.6340 C   0  0  0  0  0  0  0  0  0  0  0  0
  187.8680  178.0290  146.5450 N   0  0  0  0  0  0  0  0  0  0  0  0
  188.5750  178.0710  147.7080 C   0  0  0  0  0  3  0  0  0  0  0  0
  189.8520  177.5090  147.7710 C   0  0  0  0  0  3  0  0  0  0  0  0
  191.9810  176.1860  146.6910 Cl  0  0  0  0  0  0  0  0  0  0  0  0
  188.4920  178.4140  139.8720 C   0  0  0  0  0  2  0  0  0  0  0  0
  188.9690  176.9750  139.7980 C   0  0  0  0  0  2  0  0  0  0  0  0
  189.1880  176.5680  138.3500 C   0  0  0  0  0  2  0  0  0  0  0  0
  190.0050  175.4050  138.2710 O   0  0  0  0  0  0  0  0  0  0  0  0
  191.8880  176.5900  137.7220 O   0  0  0  0  0  0  0  0  0  0  0  0
  191.3490  175.4640  137.8980 C   0  0  0  0  0  0  0  0  0  0  0  0
  192.1970  173.6590  136.4550 C   0  0  0  0  0  1  0  0  0  0  0  0
  192.0850  174.2900  137.7210 O   0  0  0  0  0  0  0  0  0  0  0  0
  1 17  1  1  0  0  0
  1  6  1  0  0  0  0
  2  7  1  0  0  0  0
  3  8  1  1  0  0  0
  3 13  1  0  0  0  0
  3 18  1  0  0  0  0
  4 12  2  0  0  0  0
  4 10  1  0  0  0  0
  5 16  1  6  0  0  0
  5 19  1  0  0  0  0
  6 14  1  6  0  0  0
  6 19  1  0  0  0  0
  6 21  1  0  0  0  0
  7  9  2  0  0  0  0
  7 13  1  0  0  0  0
  9 15  1  0  0  0  0
 11 18  2  0  0  0  0
 13 16  2  0  0  0  0
 15  1  1  0  0  0  0
 15  5  1  0  0  0  0
 16 12  1  0  0  0  0
 18  4  1  0  0  0  0
 20 22  1  0  0  0  0
 21 20  2  0  0  0  0
 21 23  1  0  0  0  0
 22 26  1  0  0  0  0
 22 25  2  0  0  0  0
 23 24  2  0  0  0  0
 24 25  1  0  0  0  0
 27  9  1  0  0  0  0
 28 27  1  0  0  0  0
 29 28  1  0  0  0  0
 30 29  1  0  0  0  0
 31 32  2  0  0  0  0
 32 30  1  0  0  0  0
 33 34  1  0  0  0  0
 34 32  1  0  0  0  0
M  END
>  <MODEL>
8

>  <REMARK>
 VINA RESULT:      -7.0      2.352      6.740
  Name = 
  7 active torsions:
  status: ('A' for Active; 'I' for Inactive)
    1  A    between atoms: O_1  and  C_18
    2  A    between atoms: O_1  and  C_29
    3  A    between atoms: C_2  and  C_15
    4  A    between atoms: C_2  and  C_33
    5  A    between atoms: C_9  and  C_13
    6  A    between atoms: C_18  and  O_30
    7  A    between atoms: C_29  and  C_33
                            x       y       z     vdW  Elec       q    Type
                         _______ _______ _______ _____ _____    ______ ____

>  <TORSDO>
F 7

$$$$
=
 OpenBabel10232409563D

 34 37  0  0  1  0  0  0  0  0999 V2000
  185.7650  178.7670  141.6040 C   0  0  1  0  0  3  0  0  0  0  0  0
  190.6180  178.0930  141.1440 C   0  0  0  0  0  1  0  0  0  0  0  0
  190.5520  177.9800  144.1080 C   0  0  2  0  0  3  0  0  0  0  0  0
  189.1690  177.2350  146.1480 C   0  0  0  0  0  0  0  0  0  0  0  0
  186.8160  177.3610  143.1830 C   0  0  1  0  0  3  0  0  0  0  0  0
  185.1500  178.9240  143.0010 C   0  0  2  0  0  0  0  0  0  0  0  0
  189.2990  177.9750  141.8450 C   0  0  0  0  0  0  0  0  0  0  0  0
  190.9010  179.3910  144.1470 N   0  0  0  0  0  1  0  0  0  0  0  0
  188.1480  178.0760  141.1560 C   0  0  0  0  0  0  0  0  0  0  0  0
  189.0670  176.9290  147.6020 C   0  0  0  0  0  1  0  0  0  0  0  0
  191.5410  177.2320  146.1490 O   0  0  0  0  0  0  0  0  0  0  0  0
  188.0600  177.2880  145.4150 C   0  0  0  0  0  3  0  0  0  0  0  0
  189.2660  177.7950  143.3240 C   0  0  0  0  0  0  0  0  0  0  0  0
  185.5630  180.2870  143.5380 C   0  0  0  0  0  1  0  0  0  0  0  0
  186.9050  177.9360  141.8550 N   0  0  0  0  0  0  0  0  0  0  0  0
  188.0930  177.5510  143.9620 C   0  0  0  0  0  0  0  0  0  0  0  0
  184.8680  178.0770  140.5780 C   0  0  0  0  0  1  0  0  0  0  0  0
  190.4770  177.4490  145.5100 C   0  0  0  0  0  0  0  0  0  0  0  0
  185.7130  177.9390  143.8530 O   0  0  0  0  0  0  0  0  0  0  0  0
  182.9070  178.8320  141.8180 C   0  0  0  0  0  3  0  0  0  0  0  0
  183.6360  178.8390  143.0160 C   0  0  0  0  0  0  0  0  0  0  0  0
  181.5130  178.7920  141.8610 C   0  0  0  0  0  0  0  0  0  0  0  0
  182.9670  178.8280  144.2050 N   0  0  0  0  0  0  0  0  0  0  0  0
  181.6080  178.7890  144.2660 C   0  0  0  0  0  3  0  0  0  0  0  0
  180.8550  178.7680  143.0900 C   0  0  0  0  0  3  0  0  0  0  0  0
  180.5910  178.7750  140.3730 Cl  0  0  0  0  0  0  0  0  0  0  0  0
  188.1380  178.3290  139.6790 C   0  0  0  0  0  2  0  0  0  0  0  0
  188.2340  177.0120  138.9310 C   0  0  0  0  0  2  0  0  0  0  0  0
  188.8050  177.2400  137.5400 C   0  0  0  0  0  2  0  0  0  0  0  0
  189.5720  176.1170  137.1190 O   0  0  0  0  0  0  0  0  0  0  0  0
  191.0240  174.6380  138.0950 O   0  0  0  0  0  0  0  0  0  0  0  0
  190.8100  175.8100  137.6820 C   0  0  0  0  0  0  0  0  0  0  0  0
  193.0410  176.5370  138.4290 C   0  0  0  0  0  1  0  0  0  0  0  0
  191.8010  176.7900  137.7890 O   0  0  0  0  0  0  0  0  0  0  0  0
  1 17  1  6  0  0  0
  1 15  1  0  0  0  0
  1  6  1  0  0  0  0
  2  7  1  0  0  0  0
  3  8  1  1  0  0  0
  3 18  1  0  0  0  0
  4 10  1  0  0  0  0
  5 19  1  1  0  0  0
  5 16  1  0  0  0  0
  6 21  1  0  0  0  0
  6 14  1  1  0  0  0
  6 19  1  0  0  0  0
  7 13  1  0  0  0  0
  9  7  2  0  0  0  0
  9 15  1  0  0  0  0
 12  4  2  0  0  0  0
 13 16  2  0  0  0  0
 13  3  1  0  0  0  0
 15  5  1  0  0  0  0
 16 12  1  0  0  0  0
 18  4  1  0  0  0  0
 18 11  2  0  0  0  0
 20 22  2  0  0  0  0
 20 21  1  0  0  0  0
 21 23  2  0  0  0  0
 22 25  1  0  0  0  0
 23 24  1  0  0  0  0
 25 24  2  0  0  0  0
 26 22  1  0  0  0  0
 27  9  1  0  0  0  0
 28 27  1  0  0  0  0
 29 28  1  0  0  0  0
 30 29  1  0  0  0  0
 30 32  1  0  0  0  0
 32 34  1  0  0  0  0
 32 31  2  0  0  0  0
 34 33  1  0  0  0  0
M  END
>  <MODEL>
9

>  <REMARK>
 VINA RESULT:      -6.9      3.008      7.758
  Name = 
  7 active torsions:
  status: ('A' for Active; 'I' for Inactive)
    1  A    between atoms: O_1  and  C_18
    2  A    between atoms: O_1  and  C_29
    3  A    between atoms: C_2  and  C_15
    4  A    between atoms: C_2  and  C_33
    5  A    between atoms: C_9  and  C_13
    6  A    between atoms: C_18  and  O_30
    7  A    between atoms: C_29  and  C_33
                            x       y       z     vdW  Elec       q    Type
                         _______ _______ _______ _____ _____    ______ ____

>  <TORSDO>
F 7

$$$$
