=
 OpenBabel10232411253D

 36 42  0  0  1  0  0  0  0  0999 V2000
  192.0510  177.2640  139.1020 C   0  0  0  0  0  3  0  0  0  0  0  0
  191.9360  176.9950  140.4630 C   0  0  0  0  0  3  0  0  0  0  0  0
  189.5120  177.0280  140.2870 C   0  0  0  0  0  0  0  0  0  0  0  0
  189.6350  177.2560  138.8910 C   0  0  0  0  0  0  0  0  0  0  0  0
  190.9060  177.3890  138.3210 C   0  0  0  0  0  3  0  0  0  0  0  0
  190.6810  176.8660  141.0710 C   0  0  0  0  0  0  0  0  0  0  0  0
  185.4060  175.8070  137.0040 C   0  0  2  0  0  3  0  0  0  0  0  0
  184.5530  176.6630  137.5690 C   0  0  0  0  0  3  0  0  0  0  0  0
  187.8700  176.0590  137.5020 C   0  0  1  0  0  3  0  0  0  0  0  0
  186.6580  176.5450  136.7150 C   0  0  1  0  0  0  0  0  0  0  0  0
  185.2420  177.9510  137.7830 C   0  0  0  0  0  3  0  0  0  0  0  0
  187.8980  176.0640  135.9830 C   0  0  0  0  0  2  0  0  0  0  0  0
  186.4490  177.9000  137.2280 C   0  0  1  0  0  3  0  0  0  0  0  0
  188.4890  177.2800  138.0290 N   0  0  0  0  0  0  0  0  0  0  0  0
  187.6420  178.4570  137.8890 C   0  0  0  0  0  2  0  0  0  0  0  0
  183.8950  172.9630  135.0850 C   0  0  0  0  0  2  0  0  0  0  0  0
  184.1410  172.2880  137.2200 C   0  0  0  0  0  2  0  0  0  0  0  0
  185.0780  174.4600  136.6180 N   0  0  0  0  0  0  0  0  0  0  0  0
  184.8750  174.1300  135.2040 C   0  0  0  0  0  2  0  0  0  0  0  0
  185.1580  173.3680  137.5860 C   0  0  0  0  0  2  0  0  0  0  0  0
  184.3280  171.8900  135.8840 O   0  0  0  0  0  0  0  0  0  0  0  0
  190.9880  178.1530  144.8650 C   0  0  2  0  0  3  0  0  0  0  0  0
  190.3530  175.4430  142.9650 O   0  0  0  0  0  0  0  0  0  0  0  0
  191.2390  179.0370  143.8380 C   0  0  0  0  0  2  0  0  0  0  0  0
  190.6310  176.5920  142.5300 C   0  0  0  0  0  0  0  0  0  0  0  0
  190.8900  177.6330  143.4700 N   0  0  0  0  0  0  0  0  0  0  0  0
  189.7040  178.3540  145.3670 O   0  0  0  0  0  0  0  0  0  0  0  0
  189.6660  177.6170  146.5510 C   0  0  0  0  0  2  0  0  0  0  0  0
  188.2870  178.0840  148.5160 C   0  0  0  0  0  2  0  0  0  0  0  0
  188.1830  176.7210  148.1830 O   0  0  0  0  0  0  0  0  0  0  0  0
  188.2590  177.6300  147.1120 C   0  0  2  0  0  3  0  0  0  0  0  0
  188.2570  176.9720  140.9140 O   0  0  0  0  0  0  0  0  0  0  0  0
  187.7850  177.9610  141.8230 C   0  0  1  0  0  3  0  0  0  0  0  0
  186.6500  178.7320  141.1740 C   0  0  0  0  0  1  0  0  0  0  0  0
  187.2980  177.2960  143.1010 C   0  0  0  0  0  2  0  0  0  0  0  0
  186.0840  178.0250  143.6470 C   0  0  0  0  0  1  0  0  0  0  0  0
  1  2  1  0  0  0  0
  2  6  2  0  0  0  0
  3 32  1  0  0  0  0
  3  6  1  0  0  0  0
  4  3  2  0  0  0  0
  5  4  1  0  0  0  0
  5  1  2  0  0  0  0
  6 25  1  0  0  0  0
  7 18  1  6  0  0  0
  7  8  1  0  0  0  0
  8 11  2  0  0  0  0
  9 12  1  6  0  0  0
  9 14  1  0  0  0  0
 10 12  1  6  0  0  0
 10  7  1  0  0  0  0
 10 13  1  0  0  0  0
 10  9  1  0  0  0  0
 13 11  1  1  0  0  0
 13 15  1  0  0  0  0
 14  4  1  0  0  0  0
 15 14  1  0  0  0  0
 16 19  1  0  0  0  0
 16 21  1  0  0  0  0
 17 20  1  0  0  0  0
 18 20  1  0  0  0  0
 19 18  1  0  0  0  0
 21 17  1  0  0  0  0
 22 27  1  6  0  0  0
 24 22  1  0  0  0  0
 25 23  2  0  0  0  0
 25 26  1  0  0  0  0
 26 24  1  0  0  0  0
 26 22  1  0  0  0  0
 27 28  1  0  0  0  0
 30 29  1  0  0  0  0
 31 28  1  1  0  0  0
 31 30  1  0  0  0  0
 31 29  1  0  0  0  0
 32 33  1  0  0  0  0
 33 34  1  6  0  0  0
 33 35  1  0  0  0  0
 35 36  1  0  0  0  0
M  END
>  <MODEL>
1

>  <REMARK>
 VINA RESULT:      -6.9      0.000      0.000
  Name = 
  9 active torsions:
  status: ('A' for Active; 'I' for Inactive)
    1  A    between atoms: C_1  and  O_17
    2  A    between atoms: C_1  and  C_19
    3  A    between atoms: C_3  and  O_22
    4  A    between atoms: C_5  and  N_29
    5  A    between atoms: C_14  and  O_17
    6  A    between atoms: C_16  and  N_34
    7  A    between atoms: C_21  and  C_25
    8  A    between atoms: O_22  and  C_25
    9  A    between atoms: C_23  and  C_33
                            x       y       z     vdW  Elec       q    Type
                         _______ _______ _______ _____ _____    ______ ____

>  <TORSDO>
F 9

$$$$
=
 OpenBabel10232411253D

 36 42  0  0  1  0  0  0  0  0999 V2000
  191.8480  177.2630  141.9250 C   0  0  0  0  0  3  0  0  0  0  0  0
  190.9450  177.0700  142.9670 C   0  0  0  0  0  3  0  0  0  0  0  0
  189.0810  177.2890  141.4210 C   0  0  0  0  0  0  0  0  0  0  0  0
  190.0070  177.4380  140.3550 C   0  0  0  0  0  0  0  0  0  0  0  0
  191.3800  177.4410  140.6270 C   0  0  0  0  0  3  0  0  0  0  0  0
  189.5630  177.0720  142.7360 C   0  0  0  0  0  0  0  0  0  0  0  0
  187.2750  176.5130  136.4530 C   0  0  2  0  0  3  0  0  0  0  0  0
  186.5400  177.6230  136.3720 C   0  0  0  0  0  3  0  0  0  0  0  0
  189.0230  176.3590  138.2720 C   0  0  1  0  0  3  0  0  0  0  0  0
  188.6320  176.9030  136.9020 C   0  0  1  0  0  0  0  0  0  0  0  0
  187.3380  178.7600  136.8720 C   0  0  0  0  0  3  0  0  0  0  0  0
  189.8700  176.0390  137.0520 C   0  0  0  0  0  2  0  0  0  0  0  0
  188.5780  178.3510  137.1230 C   0  0  1  0  0  3  0  0  0  0  0  0
  189.5760  177.5120  138.9900 N   0  0  0  0  0  0  0  0  0  0  0  0
  189.3210  178.7800  138.3190 C   0  0  0  0  0  2  0  0  0  0  0  0
  186.1400  172.9450  136.6340 C   0  0  0  0  0  2  0  0  0  0  0  0
  187.2490  173.2080  134.6920 C   0  0  0  0  0  2  0  0  0  0  0  0
  186.8390  175.2100  136.0260 N   0  0  0  0  0  0  0  0  0  0  0  0
  185.9060  174.4400  136.8530 C   0  0  0  0  0  2  0  0  0  0  0  0
  187.1350  174.7320  134.6770 C   0  0  0  0  0  2  0  0  0  0  0  0
  186.0910  172.6480  135.2600 O   0  0  0  0  0  0  0  0  0  0  0  0
  188.9280  177.1070  146.7040 C   0  0  2  0  0  3  0  0  0  0  0  0
  187.4500  176.5460  143.7270 O   0  0  0  0  0  0  0  0  0  0  0  0
  190.1920  177.3810  146.2270 C   0  0  0  0  0  2  0  0  0  0  0  0
  188.6550  176.8730  143.8950 C   0  0  0  0  0  0  0  0  0  0  0  0
  189.1330  177.0590  145.2260 N   0  0  0  0  0  0  0  0  0  0  0  0
  188.2740  178.2920  147.0340 O   0  0  0  0  0  0  0  0  0  0  0  0
  187.0230  177.8890  147.5010 C   0  0  0  0  0  2  0  0  0  0  0  0
  184.8730  178.3460  146.4270 C   0  0  0  0  0  2  0  0  0  0  0  0
  185.8870  179.0740  145.7770 O   0  0  0  0  0  0  0  0  0  0  0  0
  185.9930  178.9520  147.1740 C   0  0  2  0  0  3  0  0  0  0  0  0
  187.6960  177.3640  141.2060 O   0  0  0  0  0  0  0  0  0  0  0  0
  186.9940  178.5870  141.0110 C   0  0  1  0  0  3  0  0  0  0  0  0
  185.9980  178.4140  139.8790 C   0  0  0  0  0  1  0  0  0  0  0  0
  186.2660  178.9720  142.2900 C   0  0  0  0  0  2  0  0  0  0  0  0
  184.8640  178.3900  142.2960 C   0  0  0  0  0  1  0  0  0  0  0  0
  1  2  1  0  0  0  0
  3  6  1  0  0  0  0
  4  5  1  0  0  0  0
  4  3  2  0  0  0  0
  5  1  2  0  0  0  0
  6  2  2  0  0  0  0
  6 25  1  0  0  0  0
  7 18  1  6  0  0  0
  7 10  1  0  0  0  0
  8  7  1  0  0  0  0
  8 11  2  0  0  0  0
  9 12  1  6  0  0  0
  9 14  1  0  0  0  0
 10 12  1  6  0  0  0
 10 13  1  0  0  0  0
 10  9  1  0  0  0  0
 13 11  1  1  0  0  0
 13 15  1  0  0  0  0
 14  4  1  0  0  0  0
 15 14  1  0  0  0  0
 16 19  1  0  0  0  0
 17 21  1  0  0  0  0
 18 19  1  0  0  0  0
 20 17  1  0  0  0  0
 20 18  1  0  0  0  0
 21 16  1  0  0  0  0
 22 27  1  6  0  0  0
 23 25  2  0  0  0  0
 24 22  1  0  0  0  0
 25 26  1  0  0  0  0
 26 24  1  0  0  0  0
 26 22  1  0  0  0  0
 27 28  1  0  0  0  0
 29 31  1  0  0  0  0
 30 29  1  0  0  0  0
 30 31  1  0  0  0  0
 31 28  1  6  0  0  0
 32  3  1  0  0  0  0
 33 34  1  6  0  0  0
 33 32  1  0  0  0  0
 33 35  1  0  0  0  0
 35 36  1  0  0  0  0
M  END
>  <MODEL>
2

>  <REMARK>
 VINA RESULT:      -6.6      1.748      2.486
  Name = 
  9 active torsions:
  status: ('A' for Active; 'I' for Inactive)
    1  A    between atoms: C_1  and  O_17
    2  A    between atoms: C_1  and  C_19
    3  A    between atoms: C_3  and  O_22
    4  A    between atoms: C_5  and  N_29
    5  A    between atoms: C_14  and  O_17
    6  A    between atoms: C_16  and  N_34
    7  A    between atoms: C_21  and  C_25
    8  A    between atoms: O_22  and  C_25
    9  A    between atoms: C_23  and  C_33
                            x       y       z     vdW  Elec       q    Type
                         _______ _______ _______ _____ _____    ______ ____

>  <TORSDO>
F 9

$$$$
=
 OpenBabel10232411253D

 36 42  0  0  1  0  0  0  0  0999 V2000
  188.5280  178.8470  138.5750 C   0  0  0  0  0  3  0  0  0  0  0  0
  189.7500  178.1960  138.4290 C   0  0  0  0  0  3  0  0  0  0  0  0
  189.5470  177.2680  140.6670 C   0  0  0  0  0  0  0  0  0  0  0  0
  188.2800  177.8950  140.7930 C   0  0  0  0  0  0  0  0  0  0  0  0
  187.7970  178.6920  139.7490 C   0  0  0  0  0  3  0  0  0  0  0  0
  190.2720  177.3980  139.4560 C   0  0  0  0  0  0  0  0  0  0  0  0
  186.7170  178.3340  145.3650 C   0  0  2  0  0  3  0  0  0  0  0  0
  185.6860  179.1670  145.2170 C   0  0  0  0  0  3  0  0  0  0  0  0
  187.9730  177.5950  143.3000 C   0  0  1  0  0  3  0  0  0  0  0  0
  186.7430  177.4360  144.1870 C   0  0  1  0  0  0  0  0  0  0  0  0
  185.0700  178.9330  143.8960 C   0  0  0  0  0  3  0  0  0  0  0  0
  187.6450  176.2460  143.9180 C   0  0  0  0  0  2  0  0  0  0  0  0
  185.6480  177.8820  143.3220 C   0  0  1  0  0  3  0  0  0  0  0  0
  187.4420  177.6750  141.9350 N   0  0  0  0  0  0  0  0  0  0  0  0
  185.9980  177.8590  141.8920 C   0  0  0  0  0  2  0  0  0  0  0  0
  189.5670  177.3940  147.6110 C   0  0  0  0  0  2  0  0  0  0  0  0
  187.7460  177.6740  148.9050 C   0  0  0  0  0  2  0  0  0  0  0  0
  187.5390  178.2520  146.5430 N   0  0  0  0  0  0  0  0  0  0  0  0
  188.9960  178.1580  146.4160 C   0  0  0  0  0  2  0  0  0  0  0  0
  186.9660  178.4810  147.8680 C   0  0  0  0  0  2  0  0  0  0  0  0
  189.1160  177.9720  148.8110 O   0  0  0  0  0  0  0  0  0  0  0  0
  192.4930  174.5580  137.6830 C   0  0  2  0  0  3  0  0  0  0  0  0
  192.6280  177.1760  139.8010 O   0  0  0  0  0  0  0  0  0  0  0  0
  191.1330  174.5800  137.4580 C   0  0  0  0  0  2  0  0  0  0  0  0
  191.5870  176.7430  139.2390 C   0  0  0  0  0  0  0  0  0  0  0  0
  191.6970  175.6110  138.3790 N   0  0  0  0  0  0  0  0  0  0  0  0
  193.1650  175.1340  136.6070 O   0  0  0  0  0  0  0  0  0  0  0  0
  194.5180  174.9320  136.8840 C   0  0  0  0  0  2  0  0  0  0  0  0
  195.9690  173.9960  138.6160 C   0  0  0  0  0  2  0  0  0  0  0  0
  195.7560  173.0340  137.6110 O   0  0  0  0  0  0  0  0  0  0  0  0
  194.6640  173.8570  137.9420 C   0  0  2  0  0  3  0  0  0  0  0  0
  190.1080  176.5280  141.7210 O   0  0  0  0  0  0  0  0  0  0  0  0
  191.2930  176.9140  142.4110 C   0  0  1  0  0  3  0  0  0  0  0  0
  191.0810  178.2790  143.0380 C   0  0  0  0  0  1  0  0  0  0  0  0
  191.6160  175.8910  143.4890 C   0  0  0  0  0  2  0  0  0  0  0  0
  191.6670  176.5580  144.8520 C   0  0  0  0  0  1  0  0  0  0  0  0
  1  5  1  0  0  0  0
  2  1  2  0  0  0  0
  2  6  1  0  0  0  0
  3  4  1  0  0  0  0
  3 32  1  0  0  0  0
  4 14  1  0  0  0  0
  5  4  2  0  0  0  0
  6  3  2  0  0  0  0
  7  8  1  1  0  0  0
  7 18  1  0  0  0  0
  9 12  1  6  0  0  0
  9 10  1  0  0  0  0
 10 12  1  1  0  0  0
 10  7  1  0  0  0  0
 11  8  2  0  0  0  0
 13 15  1  6  0  0  0
 13 11  1  0  0  0  0
 13 10  1  0  0  0  0
 14  9  1  0  0  0  0
 15 14  1  0  0  0  0
 16 21  1  0  0  0  0
 18 20  1  0  0  0  0
 19 18  1  0  0  0  0
 19 16  1  0  0  0  0
 20 17  1  0  0  0  0
 21 17  1  0  0  0  0
 22 27  1  6  0  0  0
 22 26  1  0  0  0  0
 24 22  1  0  0  0  0
 24 26  1  0  0  0  0
 25  6  1  0  0  0  0
 25 23  2  0  0  0  0
 26 25  1  0  0  0  0
 27 28  1  0  0  0  0
 30 31  1  0  0  0  0
 30 29  1  0  0  0  0
 31 28  1  6  0  0  0
 31 29  1  0  0  0  0
 32 33  1  0  0  0  0
 33 34  1  1  0  0  0
 33 35  1  0  0  0  0
 35 36  1  0  0  0  0
M  END
>  <MODEL>
3

>  <REMARK>
 VINA RESULT:      -6.3      3.699      8.318
  Name = 
  9 active torsions:
  status: ('A' for Active; 'I' for Inactive)
    1  A    between atoms: C_1  and  O_17
    2  A    between atoms: C_1  and  C_19
    3  A    between atoms: C_3  and  O_22
    4  A    between atoms: C_5  and  N_29
    5  A    between atoms: C_14  and  O_17
    6  A    between atoms: C_16  and  N_34
    7  A    between atoms: C_21  and  C_25
    8  A    between atoms: O_22  and  C_25
    9  A    between atoms: C_23  and  C_33
                            x       y       z     vdW  Elec       q    Type
                         _______ _______ _______ _____ _____    ______ ____

>  <TORSDO>
F 9

$$$$
=
 OpenBabel10232411253D

 36 42  0  0  1  0  0  0  0  0999 V2000
  192.4500  177.0810  140.0830 C   0  0  0  0  0  3  0  0  0  0  0  0
  191.4720  177.5390  140.9610 C   0  0  0  0  0  3  0  0  0  0  0  0
  189.7400  177.0300  139.3320 C   0  0  0  0  0  0  0  0  0  0  0  0
  190.7370  176.5190  138.4590 C   0  0  0  0  0  0  0  0  0  0  0  0
  192.0820  176.5700  138.8420 C   0  0  0  0  0  3  0  0  0  0  0  0
  190.1160  177.5150  140.6090 C   0  0  0  0  0  0  0  0  0  0  0  0
  187.9790  174.1860  135.2200 C   0  0  2  0  0  3  0  0  0  0  0  0
  187.6440  175.1760  134.3910 C   0  0  0  0  0  3  0  0  0  0  0  0
  189.5250  174.7050  137.1500 C   0  0  1  0  0  3  0  0  0  0  0  0
  189.3750  174.4210  135.6600 C   0  0  1  0  0  0  0  0  0  0  0  0
  188.7480  176.1540  134.3460 C   0  0  0  0  0  3  0  0  0  0  0  0
  190.2630  173.5380  136.5170 C   0  0  0  0  0  2  0  0  0  0  0  0
  189.7820  175.6820  135.0370 C   0  0  1  0  0  3  0  0  0  0  0  0
  190.3960  175.8830  137.2200 N   0  0  0  0  0  0  0  0  0  0  0  0
  190.5850  176.5340  135.9310 C   0  0  0  0  0  2  0  0  0  0  0  0
  186.1700  170.9480  134.6820 C   0  0  0  0  0  2  0  0  0  0  0  0
  185.0170  172.1230  136.2190 C   0  0  0  0  0  2  0  0  0  0  0  0
  187.1620  173.0340  135.4910 N   0  0  0  0  0  0  0  0  0  0  0  0
  187.4590  171.7530  134.8430 C   0  0  0  0  0  2  0  0  0  0  0  0
  186.1740  173.0580  136.5680 C   0  0  0  0  0  2  0  0  0  0  0  0
  185.5130  170.8420  135.9210 O   0  0  0  0  0  0  0  0  0  0  0  0
  188.0440  177.0760  144.0240 C   0  0  2  0  0  3  0  0  0  0  0  0
  188.5820  179.1580  141.4290 O   0  0  0  0  0  0  0  0  0  0  0  0
  188.8720  176.0550  143.6090 C   0  0  0  0  0  2  0  0  0  0  0  0
  189.1260  178.0320  141.5890 C   0  0  0  0  0  0  0  0  0  0  0  0
  188.7770  177.2630  142.7380 N   0  0  0  0  0  0  0  0  0  0  0  0
  188.6700  177.8250  145.0180 O   0  0  0  0  0  0  0  0  0  0  0  0
  187.8450  177.6920  146.1350 C   0  0  0  0  0  2  0  0  0  0  0  0
  187.9600  177.5940  148.5760 C   0  0  0  0  0  2  0  0  0  0  0  0
  189.0130  178.3890  148.0880 O   0  0  0  0  0  0  0  0  0  0  0  0
  188.6720  177.2560  147.3280 C   0  0  2  0  0  3  0  0  0  0  0  0
  188.3880  177.0770  138.9550 O   0  0  0  0  0  0  0  0  0  0  0  0
  187.8070  178.1610  138.2390 C   0  0  1  0  0  3  0  0  0  0  0  0
  188.9000  179.1350  137.8380 C   0  0  0  0  0  1  0  0  0  0  0  0
  187.0960  177.6380  137.0000 C   0  0  0  0  0  2  0  0  0  0  0  0
  185.8590  176.8520  137.3930 C   0  0  0  0  0  1  0  0  0  0  0  0
  1  2  1  0  0  0  0
  3  6  1  0  0  0  0
  4  5  1  0  0  0  0
  4  3  2  0  0  0  0
  5  1  2  0  0  0  0
  6  2  2  0  0  0  0
  6 25  1  0  0  0  0
  7  8  1  6  0  0  0
  7 18  1  0  0  0  0
  7 10  1  0  0  0  0
  9 12  1  1  0  0  0
  9 14  1  0  0  0  0
 10 12  1  6  0  0  0
 10  9  1  0  0  0  0
 11  8  2  0  0  0  0
 13 11  1  1  0  0  0
 13 10  1  0  0  0  0
 13 15  1  0  0  0  0
 14  4  1  0  0  0  0
 15 14  1  0  0  0  0
 16 19  1  0  0  0  0
 16 21  1  0  0  0  0
 17 20  1  0  0  0  0
 18 20  1  0  0  0  0
 19 18  1  0  0  0  0
 21 17  1  0  0  0  0
 22 27  1  1  0  0  0
 23 25  2  0  0  0  0
 24 22  1  0  0  0  0
 25 26  1  0  0  0  0
 26 24  1  0  0  0  0
 26 22  1  0  0  0  0
 27 28  1  0  0  0  0
 30 29  1  0  0  0  0
 31 28  1  6  0  0  0
 31 30  1  0  0  0  0
 31 29  1  0  0  0  0
 32  3  1  0  0  0  0
 33 34  1  6  0  0  0
 33 32  1  0  0  0  0
 35 36  1  0  0  0  0
 35 33  1  0  0  0  0
M  END
>  <MODEL>
4

>  <REMARK>
 VINA RESULT:      -6.2      1.843      3.135
  Name = 
  9 active torsions:
  status: ('A' for Active; 'I' for Inactive)
    1  A    between atoms: C_1  and  O_17
    2  A    between atoms: C_1  and  C_19
    3  A    between atoms: C_3  and  O_22
    4  A    between atoms: C_5  and  N_29
    5  A    between atoms: C_14  and  O_17
    6  A    between atoms: C_16  and  N_34
    7  A    between atoms: C_21  and  C_25
    8  A    between atoms: O_22  and  C_25
    9  A    between atoms: C_23  and  C_33
                            x       y       z     vdW  Elec       q    Type
                         _______ _______ _______ _____ _____    ______ ____

>  <TORSDO>
F 9

$$$$
=
 OpenBabel10232411253D

 36 42  0  0  1  0  0  0  0  0999 V2000
  188.4810  177.3250  138.3270 C   0  0  0  0  0  3  0  0  0  0  0  0
  187.1860  177.8250  138.4360 C   0  0  0  0  0  3  0  0  0  0  0  0
  187.5050  178.1920  140.8180 C   0  0  0  0  0  0  0  0  0  0  0  0
  188.8400  177.7260  140.6930 C   0  0  0  0  0  0  0  0  0  0  0  0
  189.3030  177.2820  139.4490 C   0  0  0  0  0  3  0  0  0  0  0  0
  186.6830  178.2690  139.6660 C   0  0  0  0  0  0  0  0  0  0  0  0
  190.4870  176.9670  145.1930 C   0  0  2  0  0  3  0  0  0  0  0  0
  191.3160  175.9390  145.0050 C   0  0  0  0  0  3  0  0  0  0  0  0
  189.3180  177.9520  143.1810 C   0  0  1  0  0  3  0  0  0  0  0  0
  190.5930  177.8530  144.0100 C   0  0  1  0  0  0  0  0  0  0  0  0
  191.9050  176.0430  143.6550 C   0  0  0  0  0  3  0  0  0  0  0  0
  189.9440  179.2040  143.7720 C   0  0  0  0  0  2  0  0  0  0  0  0
  191.5310  177.1920  143.1000 C   0  0  1  0  0  3  0  0  0  0  0  0
  189.7570  177.7670  141.7940 N   0  0  0  0  0  0  0  0  0  0  0  0
  191.1280  177.2880  141.6870 C   0  0  0  0  0  2  0  0  0  0  0  0
  187.7140  178.0430  147.4740 C   0  0  0  0  0  2  0  0  0  0  0  0
  189.6500  178.2880  148.5960 C   0  0  0  0  0  2  0  0  0  0  0  0
  189.7550  177.2160  146.4060 N   0  0  0  0  0  0  0  0  0  0  0  0
  188.2940  177.1010  146.4190 C   0  0  0  0  0  2  0  0  0  0  0  0
  190.4550  177.3660  147.6810 C   0  0  0  0  0  2  0  0  0  0  0  0
  188.3330  177.8120  148.7150 O   0  0  0  0  0  0  0  0  0  0  0  0
  182.7600  177.7360  138.9770 C   0  0  2  0  0  3  0  0  0  0  0  0
  185.0280  179.9140  140.1900 O   0  0  0  0  0  0  0  0  0  0  0  0
  183.6450  176.7480  138.6000 C   0  0  0  0  0  2  0  0  0  0  0  0
  185.2880  178.7770  139.7130 C   0  0  0  0  0  0  0  0  0  0  0  0
  184.2120  177.9800  139.2240 N   0  0  0  0  0  0  0  0  0  0  0  0
  182.1450  177.3930  140.1790 O   0  0  0  0  0  0  0  0  0  0  0  0
  180.9060  178.0340  140.1390 C   0  0  0  0  0  2  0  0  0  0  0  0
  180.1890  179.7140  141.7650 C   0  0  0  0  0  2  0  0  0  0  0  0
  181.3460  179.0670  142.2370 O   0  0  0  0  0  0  0  0  0  0  0  0
  180.4110  178.2710  141.5510 C   0  0  2  0  0  3  0  0  0  0  0  0
  186.9720  178.5680  142.0620 O   0  0  0  0  0  0  0  0  0  0  0  0
  185.9000  177.8820  142.7000 C   0  0  1  0  0  3  0  0  0  0  0  0
  186.4680  176.9060  143.7140 C   0  0  0  0  0  1  0  0  0  0  0  0
  184.9890  178.8820  143.3940 C   0  0  0  0  0  2  0  0  0  0  0  0
  185.2340  178.8690  144.8920 C   0  0  0  0  0  1  0  0  0  0  0  0
  1  2  2  0  0  0  0
  1  5  1  0  0  0  0
  2  6  1  0  0  0  0
  3 32  1  0  0  0  0
  4  3  1  0  0  0  0
  4 14  1  0  0  0  0
  5  4  2  0  0  0  0
  6 25  1  0  0  0  0
  6  3  2  0  0  0  0
  7  8  1  1  0  0  0
  7 18  1  0  0  0  0
  9 12  1  6  0  0  0
  9 10  1  0  0  0  0
 10 12  1  1  0  0  0
 10  7  1  0  0  0  0
 11  8  2  0  0  0  0
 13 15  1  6  0  0  0
 13 11  1  0  0  0  0
 13 10  1  0  0  0  0
 14  9  1  0  0  0  0
 15 14  1  0  0  0  0
 16 21  1  0  0  0  0
 17 21  1  0  0  0  0
 18 19  1  0  0  0  0
 18 20  1  0  0  0  0
 19 16  1  0  0  0  0
 20 17  1  0  0  0  0
 22 26  1  0  0  0  0
 22 27  1  1  0  0  0
 24 22  1  0  0  0  0
 24 26  1  0  0  0  0
 25 23  2  0  0  0  0
 26 25  1  0  0  0  0
 28 27  1  0  0  0  0
 29 30  1  0  0  0  0
 31 28  1  6  0  0  0
 31 29  1  0  0  0  0
 31 30  1  0  0  0  0
 32 33  1  0  0  0  0
 33 35  1  0  0  0  0
 33 34  1  1  0  0  0
 35 36  1  0  0  0  0
M  END
>  <MODEL>
5

>  <REMARK>
 VINA RESULT:      -6.1      2.899      8.407
  Name = 
  9 active torsions:
  status: ('A' for Active; 'I' for Inactive)
    1  A    between atoms: C_1  and  O_17
    2  A    between atoms: C_1  and  C_19
    3  A    between atoms: C_3  and  O_22
    4  A    between atoms: C_5  and  N_29
    5  A    between atoms: C_14  and  O_17
    6  A    between atoms: C_16  and  N_34
    7  A    between atoms: C_21  and  C_25
    8  A    between atoms: O_22  and  C_25
    9  A    between atoms: C_23  and  C_33
                            x       y       z     vdW  Elec       q    Type
                         _______ _______ _______ _____ _____    ______ ____

>  <TORSDO>
F 9

$$$$
=
 OpenBabel10232411253D

 36 42  0  0  1  0  0  0  0  0999 V2000
  191.4410  174.7830  137.2690 C   0  0  0  0  0  3  0  0  0  0  0  0
  190.3060  174.8360  136.4650 C   0  0  0  0  0  3  0  0  0  0  0  0
  189.1830  176.2350  138.1050 C   0  0  0  0  0  0  0  0  0  0  0  0
  190.3600  176.2180  138.8990 C   0  0  0  0  0  0  0  0  0  0  0  0
  191.4680  175.4750  138.4760 C   0  0  0  0  0  3  0  0  0  0  0  0
  189.1730  175.5600  136.8590 C   0  0  0  0  0  0  0  0  0  0  0  0
  189.7850  177.3930  143.5720 C   0  0  2  0  0  3  0  0  0  0  0  0
  190.9920  177.1150  144.0680 C   0  0  0  0  0  3  0  0  0  0  0  0
  189.4030  177.0800  141.0930 C   0  0  1  0  0  3  0  0  0  0  0  0
  189.9750  177.9460  142.2100 C   0  0  1  0  0  0  0  0  0  0  0  0
  192.0050  177.3590  143.0220 C   0  0  0  0  0  3  0  0  0  0  0  0
  188.9370  178.5160  141.2610 C   0  0  0  0  0  2  0  0  0  0  0  0
  191.4180  177.9020  141.9600 C   0  0  1  0  0  3  0  0  0  0  0  0
  190.4730  177.0040  140.0930 N   0  0  0  0  0  0  0  0  0  0  0  0
  191.7520  177.4980  140.5840 C   0  0  0  0  0  2  0  0  0  0  0  0
  186.1370  177.6700  144.3850 C   0  0  0  0  0  2  0  0  0  0  0  0
  187.2800  177.8750  146.3140 C   0  0  0  0  0  2  0  0  0  0  0  0
  188.5550  177.3030  144.3130 N   0  0  0  0  0  0  0  0  0  0  0  0
  187.2950  177.0360  143.6140 C   0  0  0  0  0  2  0  0  0  0  0  0
  188.5680  177.2550  145.7740 C   0  0  0  0  0  2  0  0  0  0  0  0
  186.1670  177.2490  145.7270 O   0  0  0  0  0  0  0  0  0  0  0  0
  185.4230  174.3730  136.0390 C   0  0  2  0  0  3  0  0  0  0  0  0
  187.9920  176.2270  134.8900 O   0  0  0  0  0  0  0  0  0  0  0  0
  186.0390  173.9010  137.1780 C   0  0  0  0  0  2  0  0  0  0  0  0
  187.9910  175.5620  135.9600 C   0  0  0  0  0  0  0  0  0  0  0  0
  186.8250  174.8140  136.2980 N   0  0  0  0  0  0  0  0  0  0  0  0
  184.5520  175.4120  136.3630 O   0  0  0  0  0  0  0  0  0  0  0  0
  183.4620  174.7860  136.9680 C   0  0  0  0  0  2  0  0  0  0  0  0
  182.6550  175.7260  139.0770 C   0  0  0  0  0  2  0  0  0  0  0  0
  181.5730  175.1820  138.3610 O   0  0  0  0  0  0  0  0  0  0  0  0
  182.5690  175.8300  137.6080 C   0  0  2  0  0  3  0  0  0  0  0  0
  188.0200  176.8970  138.5310 O   0  0  0  0  0  0  0  0  0  0  0  0
  187.6980  178.2360  138.1670 C   0  0  1  0  0  3  0  0  0  0  0  0
  188.8040  178.7930  137.2910 C   0  0  0  0  0  1  0  0  0  0  0  0
  186.3760  178.2610  137.4150 C   0  0  0  0  0  2  0  0  0  0  0  0
  185.2170  178.3840  138.3870 C   0  0  0  0  0  1  0  0  0  0  0  0
  1  5  1  0  0  0  0
  2  6  1  0  0  0  0
  2  1  2  0  0  0  0
  3 32  1  0  0  0  0
  3  4  1  0  0  0  0
  4 14  1  0  0  0  0
  5  4  2  0  0  0  0
  6  3  2  0  0  0  0
  7  8  1  1  0  0  0
  7 18  1  0  0  0  0
  9 12  1  6  0  0  0
  9 10  1  0  0  0  0
 10 12  1  6  0  0  0
 10  7  1  0  0  0  0
 11  8  2  0  0  0  0
 13 15  1  6  0  0  0
 13 10  1  0  0  0  0
 13 11  1  0  0  0  0
 14 15  1  0  0  0  0
 14  9  1  0  0  0  0
 16 21  1  0  0  0  0
 18 20  1  0  0  0  0
 19 18  1  0  0  0  0
 19 16  1  0  0  0  0
 20 17  1  0  0  0  0
 21 17  1  0  0  0  0
 22 26  1  0  0  0  0
 22 27  1  1  0  0  0
 22 24  1  0  0  0  0
 23 25  2  0  0  0  0
 25 26  1  0  0  0  0
 25  6  1  0  0  0  0
 26 24  1  0  0  0  0
 27 28  1  0  0  0  0
 30 29  1  0  0  0  0
 31 28  1  6  0  0  0
 31 30  1  0  0  0  0
 31 29  1  0  0  0  0
 33 34  1  6  0  0  0
 33 32  1  0  0  0  0
 35 33  1  0  0  0  0
 35 36  1  0  0  0  0
M  END
>  <MODEL>
6

>  <REMARK>
 VINA RESULT:      -5.8      2.176      7.920
  Name = 
  9 active torsions:
  status: ('A' for Active; 'I' for Inactive)
    1  A    between atoms: C_1  and  O_17
    2  A    between atoms: C_1  and  C_19
    3  A    between atoms: C_3  and  O_22
    4  A    between atoms: C_5  and  N_29
    5  A    between atoms: C_14  and  O_17
    6  A    between atoms: C_16  and  N_34
    7  A    between atoms: C_21  and  C_25
    8  A    between atoms: O_22  and  C_25
    9  A    between atoms: C_23  and  C_33
                            x       y       z     vdW  Elec       q    Type
                         _______ _______ _______ _____ _____    ______ ____

>  <TORSDO>
F 9

$$$$
=
 OpenBabel10232411253D

 36 42  0  0  1  0  0  0  0  0999 V2000
  189.6330  178.4400  139.2140 C   0  0  0  0  0  3  0  0  0  0  0  0
  188.8580  178.6020  140.3600 C   0  0  0  0  0  3  0  0  0  0  0  0
  186.8690  177.9260  139.1370 C   0  0  0  0  0  0  0  0  0  0  0  0
  187.6710  177.7160  137.9840 C   0  0  0  0  0  0  0  0  0  0  0  0
  189.0410  177.9950  138.0360 C   0  0  0  0  0  3  0  0  0  0  0  0
  187.4810  178.3440  140.3450 C   0  0  0  0  0  0  0  0  0  0  0  0
  184.7310  175.0260  135.2170 C   0  0  2  0  0  3  0  0  0  0  0  0
  183.8950  175.9490  134.7380 C   0  0  0  0  0  3  0  0  0  0  0  0
  186.6250  175.7780  136.7110 C   0  0  1  0  0  3  0  0  0  0  0  0
  186.0790  175.6360  135.2940 C   0  0  1  0  0  0  0  0  0  0  0  0
  184.6250  177.2240  134.5950 C   0  0  0  0  0  3  0  0  0  0  0  0
  187.3970  174.9850  135.6700 C   0  0  0  0  0  2  0  0  0  0  0  0
  185.9130  177.0260  134.8610 C   0  0  1  0  0  3  0  0  0  0  0  0
  187.1270  177.1540  136.7830 N   0  0  0  0  0  0  0  0  0  0  0  0
  186.7080  177.9760  135.6560 C   0  0  0  0  0  2  0  0  0  0  0  0
  183.5610  171.9530  137.0160 C   0  0  0  0  0  2  0  0  0  0  0  0
  185.0350  171.3000  135.4450 C   0  0  0  0  0  2  0  0  0  0  0  0
  184.3800  173.6510  135.4560 N   0  0  0  0  0  0  0  0  0  0  0  0
  183.2970  173.3210  136.3870 C   0  0  0  0  0  2  0  0  0  0  0  0
  184.9360  172.5850  134.6240 C   0  0  0  0  0  2  0  0  0  0  0  0
  183.7840  170.9970  136.0100 O   0  0  0  0  0  0  0  0  0  0  0  0
  186.7680  177.3980  144.1840 C   0  0  2  0  0  3  0  0  0  0  0  0
  185.8130  179.4300  141.6710 O   0  0  0  0  0  0  0  0  0  0  0  0
  187.7210  176.6860  143.4860 C   0  0  0  0  0  2  0  0  0  0  0  0
  186.7130  178.5510  141.5990 C   0  0  0  0  0  0  0  0  0  0  0  0
  186.9870  177.7600  142.7530 N   0  0  0  0  0  0  0  0  0  0  0  0
  187.3820  178.3520  144.9930 O   0  0  0  0  0  0  0  0  0  0  0  0
  188.1380  177.6120  145.9030 C   0  0  0  0  0  2  0  0  0  0  0  0
  188.9790  178.0360  148.1600 C   0  0  0  0  0  2  0  0  0  0  0  0
  188.0760  176.9570  148.1900 O   0  0  0  0  0  0  0  0  0  0  0  0
  187.7680  178.0150  147.3160 C   0  0  2  0  0  3  0  0  0  0  0  0
  185.4770  177.7400  139.1070 O   0  0  0  0  0  0  0  0  0  0  0  0
  184.5970  178.5090  138.2930 C   0  0  1  0  0  3  0  0  0  0  0  0
  183.4060  177.6530  137.9030 C   0  0  0  0  0  1  0  0  0  0  0  0
  184.1270  179.7350  139.0590 C   0  0  0  0  0  2  0  0  0  0  0  0
  182.6380  179.9470  138.8560 C   0  0  0  0  0  1  0  0  0  0  0  0
  1  2  1  0  0  0  0
  3  6  1  0  0  0  0
  4  5  1  0  0  0  0
  4  3  2  0  0  0  0
  5  1  2  0  0  0  0
  6  2  2  0  0  0  0
  6 25  1  0  0  0  0
  7  8  1  6  0  0  0
  7 10  1  0  0  0  0
  7 18  1  0  0  0  0
  9 12  1  6  0  0  0
  9 14  1  0  0  0  0
 10 12  1  6  0  0  0
 10  9  1  0  0  0  0
 11  8  2  0  0  0  0
 13 11  1  1  0  0  0
 13 10  1  0  0  0  0
 13 15  1  0  0  0  0
 14  4  1  0  0  0  0
 15 14  1  0  0  0  0
 17 21  1  0  0  0  0
 18 19  1  0  0  0  0
 19 16  1  0  0  0  0
 20 17  1  0  0  0  0
 20 18  1  0  0  0  0
 21 16  1  0  0  0  0
 22 27  1  1  0  0  0
 24 22  1  0  0  0  0
 25 23  2  0  0  0  0
 25 26  1  0  0  0  0
 26 24  1  0  0  0  0
 26 22  1  0  0  0  0
 27 28  1  0  0  0  0
 29 30  1  0  0  0  0
 31 28  1  6  0  0  0
 31 29  1  0  0  0  0
 31 30  1  0  0  0  0
 32  3  1  0  0  0  0
 33 34  1  1  0  0  0
 33 35  1  0  0  0  0
 33 32  1  0  0  0  0
 36 35  1  0  0  0  0
M  END
>  <MODEL>
7

>  <REMARK>
 VINA RESULT:      -5.8      2.069      3.219
  Name = 
  9 active torsions:
  status: ('A' for Active; 'I' for Inactive)
    1  A    between atoms: C_1  and  O_17
    2  A    between atoms: C_1  and  C_19
    3  A    between atoms: C_3  and  O_22
    4  A    between atoms: C_5  and  N_29
    5  A    between atoms: C_14  and  O_17
    6  A    between atoms: C_16  and  N_34
    7  A    between atoms: C_21  and  C_25
    8  A    between atoms: O_22  and  C_25
    9  A    between atoms: C_23  and  C_33
                            x       y       z     vdW  Elec       q    Type
                         _______ _______ _______ _____ _____    ______ ____

>  <TORSDO>
F 9

$$$$
=
 OpenBabel10232411253D

 36 42  0  0  1  0  0  0  0  0999 V2000
  182.5310  178.8480  143.6550 C   0  0  0  0  0  3  0  0  0  0  0  0
  183.8920  178.6670  143.4220 C   0  0  0  0  0  3  0  0  0  0  0  0
  183.5280  178.8540  141.0260 C   0  0  0  0  0  0  0  0  0  0  0  0
  182.1490  179.0860  141.2720 C   0  0  0  0  0  0  0  0  0  0  0  0
  181.6680  179.0610  142.5850 C   0  0  0  0  0  3  0  0  0  0  0  0
  184.4100  178.6740  142.1210 C   0  0  0  0  0  0  0  0  0  0  0  0
  180.6640  181.0130  137.0740 C   0  0  2  0  0  3  0  0  0  0  0  0
  180.6280  179.9390  136.2840 C   0  0  0  0  0  3  0  0  0  0  0  0
  181.2960  180.7010  139.5000 C   0  0  1  0  0  3  0  0  0  0  0  0
  180.2210  180.5940  138.4240 C   0  0  1  0  0  0  0  0  0  0  0  0
  180.2800  178.7590  137.0990 C   0  0  0  0  0  3  0  0  0  0  0  0
  179.9820  181.4480  139.6550 C   0  0  0  0  0  2  0  0  0  0  0  0
  179.9820  179.1510  138.3350 C   0  0  1  0  0  3  0  0  0  0  0  0
  181.2420  179.4200  140.2120 N   0  0  0  0  0  0  0  0  0  0  0  0
  180.4410  178.4160  139.5260 C   0  0  0  0  0  2  0  0  0  0  0  0
  181.3050  184.7050  137.1870 C   0  0  0  0  0  2  0  0  0  0  0  0
  180.3170  184.2470  135.2150 C   0  0  0  0  0  2  0  0  0  0  0  0
  180.9390  182.3520  136.6230 N   0  0  0  0  0  0  0  0  0  0  0  0
  181.7270  183.2610  137.4590 C   0  0  0  0  0  2  0  0  0  0  0  0
  180.6340  182.7520  135.2500 C   0  0  0  0  0  2  0  0  0  0  0  0
  181.3670  184.9710  135.8070 O   0  0  0  0  0  0  0  0  0  0  0  0
  187.9650  177.5280  143.6020 C   0  0  2  0  0  3  0  0  0  0  0  0
  186.4280  178.6900  140.8370 O   0  0  0  0  0  0  0  0  0  0  0  0
  186.8630  177.5280  144.4320 C   0  0  0  0  0  2  0  0  0  0  0  0
  185.8690  178.4620  141.9430 C   0  0  0  0  0  0  0  0  0  0  0  0
  186.6660  177.9850  143.0250 N   0  0  0  0  0  0  0  0  0  0  0  0
  188.2300  176.2340  143.1580 O   0  0  0  0  0  0  0  0  0  0  0  0
  189.5890  176.0440  143.4110 C   0  0  0  0  0  2  0  0  0  0  0  0
  191.7770  177.0500  142.9830 C   0  0  0  0  0  2  0  0  0  0  0  0
  191.2590  177.5490  144.1930 O   0  0  0  0  0  0  0  0  0  0  0  0
  190.3380  177.3360  143.1510 C   0  0  2  0  0  3  0  0  0  0  0  0
  184.0400  178.7870  139.7200 O   0  0  0  0  0  0  0  0  0  0  0  0
  184.3490  177.5660  139.0570 C   0  0  1  0  0  3  0  0  0  0  0  0
  183.1030  176.7000  139.0020 C   0  0  0  0  0  1  0  0  0  0  0  0
  184.8430  177.8550  137.6480 C   0  0  0  0  0  2  0  0  0  0  0  0
  186.3580  177.9450  137.6280 C   0  0  0  0  0  1  0  0  0  0  0  0
  2  1  1  0  0  0  0
  3  4  2  0  0  0  0
  3  6  1  0  0  0  0
  4  5  1  0  0  0  0
  5  1  2  0  0  0  0
  6  2  2  0  0  0  0
  7  8  1  6  0  0  0
  7 10  1  0  0  0  0
  8 11  2  0  0  0  0
  9 12  1  1  0  0  0
  9 14  1  0  0  0  0
 10  9  1  0  0  0  0
 10 12  1  1  0  0  0
 13 11  1  6  0  0  0
 13 10  1  0  0  0  0
 13 15  1  0  0  0  0
 14  4  1  0  0  0  0
 15 14  1  0  0  0  0
 16 19  1  0  0  0  0
 17 20  1  0  0  0  0
 17 21  1  0  0  0  0
 18  7  1  0  0  0  0
 18 19  1  0  0  0  0
 20 18  1  0  0  0  0
 21 16  1  0  0  0  0
 22 27  1  6  0  0  0
 22 24  1  0  0  0  0
 23 25  2  0  0  0  0
 25  6  1  0  0  0  0
 25 26  1  0  0  0  0
 26 22  1  0  0  0  0
 26 24  1  0  0  0  0
 27 28  1  0  0  0  0
 29 31  1  0  0  0  0
 29 30  1  0  0  0  0
 31 28  1  1  0  0  0
 31 30  1  0  0  0  0
 32  3  1  0  0  0  0
 33 34  1  6  0  0  0
 33 32  1  0  0  0  0
 35 33  1  0  0  0  0
 36 35  1  0  0  0  0
M  END
>  <MODEL>
8

>  <REMARK>
 VINA RESULT:      -5.7      4.931      7.608
  Name = 
  9 active torsions:
  status: ('A' for Active; 'I' for Inactive)
    1  A    between atoms: C_1  and  O_17
    2  A    between atoms: C_1  and  C_19
    3  A    between atoms: C_3  and  O_22
    4  A    between atoms: C_5  and  N_29
    5  A    between atoms: C_14  and  O_17
    6  A    between atoms: C_16  and  N_34
    7  A    between atoms: C_21  and  C_25
    8  A    between atoms: O_22  and  C_25
    9  A    between atoms: C_23  and  C_33
                            x       y       z     vdW  Elec       q    Type
                         _______ _______ _______ _____ _____    ______ ____

>  <TORSDO>
F 9

$$$$
=
 OpenBabel10232411253D

 36 42  0  0  1  0  0  0  0  0999 V2000
  191.9700  177.4020  141.2770 C   0  0  0  0  0  3  0  0  0  0  0  0
  190.7600  177.7820  141.8510 C   0  0  0  0  0  3  0  0  0  0  0  0
  189.5850  177.2110  139.8010 C   0  0  0  0  0  0  0  0  0  0  0  0
  190.8150  176.7800  139.2370 C   0  0  0  0  0  0  0  0  0  0  0  0
  191.9940  176.9000  139.9800 C   0  0  0  0  0  3  0  0  0  0  0  0
  189.5590  177.6870  141.1350 C   0  0  0  0  0  0  0  0  0  0  0  0
  189.1700  174.5940  135.2300 C   0  0  2  0  0  3  0  0  0  0  0  0
  189.1970  175.5950  134.3490 C   0  0  0  0  0  3  0  0  0  0  0  0
  190.0030  175.0330  137.5750 C   0  0  1  0  0  3  0  0  0  0  0  0
  190.3470  174.7440  136.1180 C   0  0  1  0  0  0  0  0  0  0  0  0
  190.3120  176.5000  134.6900 C   0  0  0  0  0  3  0  0  0  0  0  0
  190.8360  173.8150  137.2140 C   0  0  0  0  0  2  0  0  0  0  0  0
  191.0200  175.9700  135.6840 C   0  0  1  0  0  3  0  0  0  0  0  0
  190.8730  176.1540  137.9490 N   0  0  0  0  0  0  0  0  0  0  0  0
  191.5260  176.7780  136.8060 C   0  0  0  0  0  2  0  0  0  0  0  0
  186.1560  172.5110  136.0210 C   0  0  0  0  0  2  0  0  0  0  0  0
  187.8190  171.1070  135.4420 C   0  0  0  0  0  2  0  0  0  0  0  0
  188.2370  173.4990  135.1950 N   0  0  0  0  0  0  0  0  0  0  0  0
  186.8070  173.7470  135.4000 C   0  0  0  0  0  2  0  0  0  0  0  0
  188.6590  172.1750  134.7430 C   0  0  0  0  0  2  0  0  0  0  0  0
  186.4520  171.3730  135.2490 O   0  0  0  0  0  0  0  0  0  0  0  0
  186.9070  177.3260  144.1320 C   0  0  2  0  0  3  0  0  0  0  0  0
  187.6210  179.0730  141.3400 O   0  0  0  0  0  0  0  0  0  0  0  0
  187.9720  176.4510  144.0720 C   0  0  0  0  0  2  0  0  0  0  0  0
  188.3060  178.1220  141.8030 C   0  0  0  0  0  0  0  0  0  0  0  0
  187.8570  177.4730  142.9900 N   0  0  0  0  0  0  0  0  0  0  0  0
  187.1620  178.3260  145.0680 O   0  0  0  0  0  0  0  0  0  0  0  0
  185.9010  178.7450  145.4920 C   0  0  0  0  0  2  0  0  0  0  0  0
  184.0780  179.8110  144.2580 C   0  0  0  0  0  2  0  0  0  0  0  0
  183.6030  178.6400  144.8790 O   0  0  0  0  0  0  0  0  0  0  0  0
  184.9080  178.5950  144.3560 C   0  0  2  0  0  3  0  0  0  0  0  0
  188.3910  177.1870  139.0620 O   0  0  0  0  0  0  0  0  0  0  0  0
  187.8440  178.3300  138.4110 C   0  0  1  0  0  3  0  0  0  0  0  0
  188.7610  178.7410  137.2750 C   0  0  0  0  0  1  0  0  0  0  0  0
  186.4610  178.0020  137.8710 C   0  0  0  0  0  2  0  0  0  0  0  0
  186.5700  177.3160  136.5210 C   0  0  0  0  0  1  0  0  0  0  0  0
  1  2  1  0  0  0  0
  3  6  1  0  0  0  0
  4  3  2  0  0  0  0
  4  5  1  0  0  0  0
  5  1  2  0  0  0  0
  6 25  1  0  0  0  0
  6  2  2  0  0  0  0
  7  8  1  6  0  0  0
  7 10  1  0  0  0  0
  8 11  2  0  0  0  0
  9 12  1  1  0  0  0
  9 14  1  0  0  0  0
 10 12  1  6  0  0  0
 10  9  1  0  0  0  0
 13 11  1  1  0  0  0
 13 10  1  0  0  0  0
 13 15  1  0  0  0  0
 14  4  1  0  0  0  0
 15 14  1  0  0  0  0
 18  7  1  0  0  0  0
 18 19  1  0  0  0  0
 19 16  1  0  0  0  0
 20 18  1  0  0  0  0
 20 17  1  0  0  0  0
 21 17  1  0  0  0  0
 21 16  1  0  0  0  0
 22 27  1  1  0  0  0
 23 25  2  0  0  0  0
 24 22  1  0  0  0  0
 25 26  1  0  0  0  0
 26 24  1  0  0  0  0
 26 22  1  0  0  0  0
 27 28  1  0  0  0  0
 29 31  1  0  0  0  0
 29 30  1  0  0  0  0
 31 30  1  0  0  0  0
 31 28  1  1  0  0  0
 32  3  1  0  0  0  0
 33 34  1  6  0  0  0
 33 32  1  0  0  0  0
 35 33  1  0  0  0  0
 36 35  1  0  0  0  0
M  END
>  <MODEL>
9

>  <REMARK>
 VINA RESULT:      -5.7      2.409      3.992
  Name = 
  9 active torsions:
  status: ('A' for Active; 'I' for Inactive)
    1  A    between atoms: C_1  and  O_17
    2  A    between atoms: C_1  and  C_19
    3  A    between atoms: C_3  and  O_22
    4  A    between atoms: C_5  and  N_29
    5  A    between atoms: C_14  and  O_17
    6  A    between atoms: C_16  and  N_34
    7  A    between atoms: C_21  and  C_25
    8  A    between atoms: O_22  and  C_25
    9  A    between atoms: C_23  and  C_33
                            x       y       z     vdW  Elec       q    Type
                         _______ _______ _______ _____ _____    ______ ____

>  <TORSDO>
F 9

$$$$
