=
 OpenBabel10232410323D

 38 41  0  0  1  0  0  0  0  0999 V2000
  186.0260  178.2570  145.3620 C   0  0  0  0  0  0  0  0  0  0  0  0
  187.0080  177.5740  145.9660 C   0  0  0  0  0  3  0  0  0  0  0  0
  182.1110  178.7350  142.0720 C   0  0  0  0  0  3  0  0  0  0  0  0
  187.0810  177.7140  143.1180 C   0  0  0  0  0  0  0  0  0  0  0  0
  184.4900  178.3570  141.8670 C   0  0  0  0  0  3  0  0  0  0  0  0
  182.2640  178.9290  143.4470 C   0  0  0  0  0  3  0  0  0  0  0  0
  186.0490  178.5420  143.8650 C   0  0  1  0  0  3  0  0  0  0  0  0
  184.8620  178.7110  146.1360 C   0  0  0  0  0  0  0  0  0  0  0  0
  183.5250  178.8280  144.0400 C   0  0  0  0  0  0  0  0  0  0  0  0
  183.6460  179.0110  145.4530 N   0  0  0  0  0  2  0  0  0  0  0  0
  184.6580  178.5250  143.2500 C   0  0  0  0  0  0  0  0  0  0  0  0
  188.1940  177.0620  145.2070 C   0  0  0  0  0  2  0  0  0  0  0  0
  183.2220  178.4400  141.2790 C   0  0  0  0  0  0  0  0  0  0  0  0
  187.4220  178.0560  141.9200 N   0  0  0  0  0  0  0  0  0  0  0  0
  184.9130  178.8040  147.3930 O   0  0  0  0  0  0  0  0  0  0  0  0
  187.7570  176.5730  143.8330 C   0  0  0  0  0  2  0  0  0  0  0  0
  188.4030  177.3450  141.1350 C   0  0  0  0  0  2  0  0  0  0  0  0
  189.7150  178.1120  141.1270 C   0  0  0  0  0  2  0  0  0  0  0  0
  190.8830  177.1550  141.2940 C   0  0  0  0  0  2  0  0  0  0  0  0
  190.8320  178.3090  143.2530 O   0  0  0  0  0  1  0  0  0  0  0  0
  191.5680  177.4040  142.5610 N   0  0  0  0  0  0  0  0  0  0  0  0
  191.5780  176.4300  144.8650 C   0  0  0  0  0  1  0  0  0  0  0  0
  191.6430  176.1760  143.3610 C   0  0  1  0  0  3  0  0  0  0  0  0
  190.6380  175.2850  142.9800 O   0  0  0  0  0  1  0  0  0  0  0  0
  183.0450  178.2570  139.8040 C   0  0  1  0  0  3  0  0  0  0  0  0
  185.0110  177.8980  138.2670 N   0  0  0  0  0  2  0  0  0  0  0  0
  184.4940  180.0220  139.0880 O   0  0  0  0  0  0  0  0  0  0  0  0
  184.2220  178.7910  139.0510 C   0  0  0  0  0  0  0  0  0  0  0  0
  186.1580  178.3570  137.4980 C   0  0  0  0  0  2  0  0  0  0  0  0
  187.3840  177.5380  137.8540 C   0  0  2  0  0  3  0  0  0  0  0  0
  188.6430  178.2630  137.4610 C   0  0  0  0  0  3  0  0  0  0  0  0
  189.8080  176.1410  137.8170 C   0  0  0  0  0  2  0  0  0  0  0  0
  189.8000  177.5960  137.4460 C   0  0  0  0  0  3  0  0  0  0  0  0
  187.3100  176.1640  137.1710 C   0  0  0  0  0  2  0  0  0  0  0  0
  188.6560  175.4100  137.1170 C   0  0  0  0  0  2  0  0  0  0  0  0
  182.8350  176.9070  139.4920 O   0  0  0  0  0  0  0  0  0  0  0  0
  180.9620  175.8570  139.6170 C   0  0  0  0  0  1  0  0  0  0  0  0
  181.6410  176.8690  138.9350 O   0  0  0  0  0  0  0  0  0  0  0  0
  1  2  2  0  0  0  0
  1  8  1  0  0  0  0
  3  6  1  0  0  0  0
  4 16  1  0  0  0  0
  5 11  2  0  0  0  0
  6  9  2  0  0  0  0
  7  4  1  6  0  0  0
  7  1  1  0  0  0  0
  8 15  2  0  0  0  0
  9 10  1  0  0  0  0
 10  8  1  0  0  0  0
 11  7  1  0  0  0  0
 11  9  1  0  0  0  0
 12  2  1  0  0  0  0
 13  5  1  0  0  0  0
 13  3  2  0  0  0  0
 14  4  2  0  0  0  0
 16 12  1  0  0  0  0
 17 14  1  0  0  0  0
 18 17  1  0  0  0  0
 18 19  1  0  0  0  0
 19 21  1  0  0  0  0
 21 20  1  0  0  0  0
 21 23  1  0  0  0  0
 23 22  1  1  0  0  0
 24 23  1  0  0  0  0
 25 28  1  6  0  0  0
 25 13  1  0  0  0  0
 26 28  1  0  0  0  0
 28 27  2  0  0  0  0
 29 26  1  0  0  0  0
 30 29  1  6  0  0  0
 31 30  1  0  0  0  0
 33 31  2  0  0  0  0
 33 32  1  0  0  0  0
 34 30  1  0  0  0  0
 35 34  1  0  0  0  0
 35 32  1  0  0  0  0
 36 25  1  0  0  0  0
 38 36  1  0  0  0  0
 38 37  1  0  0  0  0
M  END
>  <MODEL>
1

>  <REMARK>
 VINA RESULT:      -9.1      0.000      0.000
  Name = 
  11 active torsions:
  status: ('A' for Active; 'I' for Inactive)
    1  A    between atoms: C_1  and  C_38
    2  A    between atoms: C_5  and  C_16
    3  A    between atoms: C_5  and  N_33
    4  A    between atoms: C_8  and  C_16
    5  A    between atoms: C_8  and  N_31
    6  A    between atoms: N_12  and  C_38
    7  A    between atoms: C_20  and  C_32
    8  A    between atoms: C_22  and  N_33
    9  A    between atoms: O_25  and  O_28
   10  A    between atoms: O_25  and  C_32
   11  A    between atoms: C_30  and  C_32
                            x       y       z     vdW  Elec       q    Type
                         _______ _______ _______ _____ _____    ______ ____

>  <TORSDO>
F 11

$$$$
=
 OpenBabel10232410323D

 38 41  0  0  1  0  0  0  0  0999 V2000
  189.8360  177.1020  146.7820 C   0  0  0  0  0  0  0  0  0  0  0  0
  189.5390  177.4550  148.0410 C   0  0  0  0  0  3  0  0  0  0  0  0
  190.3720  178.0210  141.7580 C   0  0  0  0  0  3  0  0  0  0  0  0
  187.5090  177.8250  146.0710 C   0  0  0  0  0  0  0  0  0  0  0  0
  188.5130  177.9500  143.3020 C   0  0  0  0  0  3  0  0  0  0  0  0
  191.2210  177.5530  142.7630 C   0  0  0  0  0  3  0  0  0  0  0  0
  188.7840  177.0970  145.6800 C   0  0  1  0  0  3  0  0  0  0  0  0
  191.2190  176.7560  146.4230 C   0  0  0  0  0  0  0  0  0  0  0  0
  190.7250  177.2910  144.0430 C   0  0  0  0  0  0  0  0  0  0  0  0
  191.6240  176.8340  145.0570 N   0  0  0  0  0  2  0  0  0  0  0  0
  189.3560  177.5020  144.3310 C   0  0  0  0  0  0  0  0  0  0  0  0
  188.1510  177.8500  148.4410 C   0  0  0  0  0  2  0  0  0  0  0  0
  189.0170  178.2290  142.0260 C   0  0  0  0  0  0  0  0  0  0  0  0
  186.4380  177.6460  145.3730 N   0  0  0  0  0  0  0  0  0  0  0  0
  192.0570  176.4270  147.3060 O   0  0  0  0  0  0  0  0  0  0  0  0
  187.5020  178.6590  147.3260 C   0  0  0  0  0  2  0  0  0  0  0  0
  185.1750  178.2790  145.6720 C   0  0  0  0  0  2  0  0  0  0  0  0
  184.5420  178.8030  144.3930 C   0  0  0  0  0  2  0  0  0  0  0  0
  183.0310  178.8640  144.5430 C   0  0  0  0  0  2  0  0  0  0  0  0
  182.7500  178.4660  142.3210 O   0  0  0  0  0  1  0  0  0  0  0  0
  182.4170  179.3390  143.3040 N   0  0  0  0  0  0  0  0  0  0  0  0
  180.2410  179.4230  142.0730 C   0  0  0  0  0  1  0  0  0  0  0  0
  180.9540  179.3520  143.4220 C   0  0  1  0  0  3  0  0  0  0  0  0
  180.5140  178.2380  144.1390 O   0  0  0  0  0  1  0  0  0  0  0  0
  188.1150  178.7100  140.9310 C   0  0  1  0  0  3  0  0  0  0  0  0
  188.6030  176.9190  139.2250 N   0  0  0  0  0  2  0  0  0  0  0  0
  189.0590  179.1650  138.7800 O   0  0  0  0  0  0  0  0  0  0  0  0
  188.6310  178.2980  139.5890 C   0  0  0  0  0  0  0  0  0  0  0  0
  189.0730  176.4560  137.9290 C   0  0  0  0  0  2  0  0  0  0  0  0
  190.3790  175.7000  138.0900 C   0  0  2  0  0  3  0  0  0  0  0  0
  191.5550  176.6210  137.9080 C   0  0  0  0  0  3  0  0  0  0  0  0
  192.9290  174.6040  137.7460 C   0  0  0  0  0  2  0  0  0  0  0  0
  192.7730  176.0970  137.7460 C   0  0  0  0  0  3  0  0  0  0  0  0
  190.4350  174.5380  137.0860 C   0  0  0  0  0  2  0  0  0  0  0  0
  191.8500  173.9580  136.8690 C   0  0  0  0  0  2  0  0  0  0  0  0
  186.8090  178.2390  141.1210 O   0  0  0  0  0  0  0  0  0  0  0  0
  185.1130  178.8580  139.9520 C   0  0  0  0  0  1  0  0  0  0  0  0
  186.0360  179.2850  140.9090 O   0  0  0  0  0  0  0  0  0  0  0  0
  1  2  2  0  0  0  0
  2 12  1  0  0  0  0
  3 13  2  0  0  0  0
  3  6  1  0  0  0  0
  4 16  1  0  0  0  0
  5 11  2  0  0  0  0
  6  9  2  0  0  0  0
  7 11  1  6  0  0  0
  7  4  1  0  0  0  0
  7  1  1  0  0  0  0
  8  1  1  0  0  0  0
  8 15  2  0  0  0  0
  9 11  1  0  0  0  0
  9 10  1  0  0  0  0
 10  8  1  0  0  0  0
 13  5  1  0  0  0  0
 14 17  1  0  0  0  0
 14  4  2  0  0  0  0
 16 12  1  0  0  0  0
 18 19  1  0  0  0  0
 18 17  1  0  0  0  0
 20 21  1  0  0  0  0
 21 23  1  0  0  0  0
 21 19  1  0  0  0  0
 23 22  1  6  0  0  0
 23 24  1  0  0  0  0
 25 28  1  6  0  0  0
 25 36  1  0  0  0  0
 25 13  1  0  0  0  0
 26 28  1  0  0  0  0
 27 28  2  0  0  0  0
 29 26  1  0  0  0  0
 30 29  1  6  0  0  0
 31 30  1  0  0  0  0
 33 32  1  0  0  0  0
 33 31  2  0  0  0  0
 34 30  1  0  0  0  0
 35 34  1  0  0  0  0
 35 32  1  0  0  0  0
 37 38  1  0  0  0  0
 38 36  1  0  0  0  0
M  END
>  <MODEL>
2

>  <REMARK>
 VINA RESULT:      -8.7      2.450      6.215
  Name = 
  11 active torsions:
  status: ('A' for Active; 'I' for Inactive)
    1  A    between atoms: C_1  and  C_38
    2  A    between atoms: C_5  and  C_16
    3  A    between atoms: C_5  and  N_33
    4  A    between atoms: C_8  and  C_16
    5  A    between atoms: C_8  and  N_31
    6  A    between atoms: N_12  and  C_38
    7  A    between atoms: C_20  and  C_32
    8  A    between atoms: C_22  and  N_33
    9  A    between atoms: O_25  and  O_28
   10  A    between atoms: O_25  and  C_32
   11  A    between atoms: C_30  and  C_32
                            x       y       z     vdW  Elec       q    Type
                         _______ _______ _______ _____ _____    ______ ____

>  <TORSDO>
F 11

$$$$
=
 OpenBabel10232410323D

 38 41  0  0  1  0  0  0  0  0999 V2000
  186.1720  178.2350  145.3070 C   0  0  0  0  0  0  0  0  0  0  0  0
  187.1910  177.5500  145.8450 C   0  0  0  0  0  3  0  0  0  0  0  0
  182.0950  178.7420  142.2260 C   0  0  0  0  0  3  0  0  0  0  0  0
  187.1230  177.7650  143.0010 C   0  0  0  0  0  0  0  0  0  0  0  0
  184.4650  178.4040  141.8950 C   0  0  0  0  0  3  0  0  0  0  0  0
  182.3120  178.9030  143.5960 C   0  0  0  0  0  3  0  0  0  0  0  0
  186.1180  178.5590  143.8190 C   0  0  1  0  0  3  0  0  0  0  0  0
  185.0420  178.6520  146.1490 C   0  0  0  0  0  0  0  0  0  0  0  0
  183.6020  178.8050  144.1240 C   0  0  0  0  0  0  0  0  0  0  0  0
  183.7890  178.9520  145.5340 N   0  0  0  0  0  2  0  0  0  0  0  0
  184.6990  178.5380  143.2730 C   0  0  0  0  0  0  0  0  0  0  0  0
  188.3450  177.0760  145.0150 C   0  0  0  0  0  2  0  0  0  0  0  0
  183.1690  178.4840  141.3720 C   0  0  0  0  0  0  0  0  0  0  0  0
  187.4000  178.1440  141.7980 N   0  0  0  0  0  0  0  0  0  0  0  0
  185.1530  178.7130  147.4040 O   0  0  0  0  0  0  0  0  0  0  0  0
  187.8470  176.6160  143.6520 C   0  0  0  0  0  2  0  0  0  0  0  0
  188.3510  177.4670  140.9470 C   0  0  0  0  0  2  0  0  0  0  0  0
  188.6260  178.3050  139.7090 C   0  0  0  0  0  2  0  0  0  0  0  0
  189.9390  177.8830  139.0720 C   0  0  0  0  0  2  0  0  0  0  0  0
  191.0960  175.9260  139.1460 O   0  0  0  0  0  1  0  0  0  0  0  0
  190.6390  176.9310  139.9340 N   0  0  0  0  0  0  0  0  0  0  0  0
  191.8810  177.2870  142.0750 C   0  0  0  0  0  1  0  0  0  0  0  0
  191.7960  177.5650  140.5760 C   0  0  1  0  0  3  0  0  0  0  0  0
  192.9780  177.1720  139.9470 O   0  0  0  0  0  1  0  0  0  0  0  0
  182.9230  178.3370  139.9020 C   0  0  1  0  0  3  0  0  0  0  0  0
  184.8360  177.9040  138.3190 N   0  0  0  0  0  2  0  0  0  0  0  0
  184.3960  180.0520  139.1190 O   0  0  0  0  0  0  0  0  0  0  0  0
  184.0920  178.8280  139.1090 C   0  0  0  0  0  0  0  0  0  0  0  0
  185.9730  178.3210  137.5130 C   0  0  0  0  0  2  0  0  0  0  0  0
  186.3940  177.1960  136.5860 C   0  0  2  0  0  3  0  0  0  0  0  0
  187.0640  176.0920  137.3590 C   0  0  0  0  0  3  0  0  0  0  0  0
  187.8100  175.2240  135.1970 C   0  0  0  0  0  2  0  0  0  0  0  0
  187.7380  175.1490  136.6940 C   0  0  0  0  0  3  0  0  0  0  0  0
  187.3260  177.7410  135.4940 C   0  0  0  0  0  2  0  0  0  0  0  0
  188.1360  176.6550  134.7520 C   0  0  0  0  0  2  0  0  0  0  0  0
  182.6350  177.0050  139.5770 O   0  0  0  0  0  0  0  0  0  0  0  0
  180.6690  176.1450  139.7290 C   0  0  0  0  0  1  0  0  0  0  0  0
  181.4510  177.0430  139.0000 O   0  0  0  0  0  0  0  0  0  0  0  0
  1  2  2  0  0  0  0
  1  8  1  0  0  0  0
  3  6  1  0  0  0  0
  4 16  1  0  0  0  0
  5 11  2  0  0  0  0
  6  9  2  0  0  0  0
  7  4  1  6  0  0  0
  7  1  1  0  0  0  0
  8 15  2  0  0  0  0
  9 10  1  0  0  0  0
 10  8  1  0  0  0  0
 11  7  1  0  0  0  0
 11  9  1  0  0  0  0
 12  2  1  0  0  0  0
 13  5  1  0  0  0  0
 13  3  2  0  0  0  0
 14  4  2  0  0  0  0
 16 12  1  0  0  0  0
 17 14  1  0  0  0  0
 18 17  1  0  0  0  0
 19 18  1  0  0  0  0
 19 21  1  0  0  0  0
 20 21  1  0  0  0  0
 21 23  1  0  0  0  0
 23 22  1  1  0  0  0
 24 23  1  0  0  0  0
 25 28  1  6  0  0  0
 25 13  1  0  0  0  0
 26 28  1  0  0  0  0
 28 27  2  0  0  0  0
 29 26  1  0  0  0  0
 30 31  1  0  0  0  0
 30 29  1  1  0  0  0
 32 33  1  0  0  0  0
 33 31  2  0  0  0  0
 34 30  1  0  0  0  0
 35 32  1  0  0  0  0
 35 34  1  0  0  0  0
 36 25  1  0  0  0  0
 38 36  1  0  0  0  0
 38 37  1  0  0  0  0
M  END
>  <MODEL>
3

>  <REMARK>
 VINA RESULT:      -8.6      1.375      1.798
  Name = 
  11 active torsions:
  status: ('A' for Active; 'I' for Inactive)
    1  A    between atoms: C_1  and  C_38
    2  A    between atoms: C_5  and  C_16
    3  A    between atoms: C_5  and  N_33
    4  A    between atoms: C_8  and  C_16
    5  A    between atoms: C_8  and  N_31
    6  A    between atoms: N_12  and  C_38
    7  A    between atoms: C_20  and  C_32
    8  A    between atoms: C_22  and  N_33
    9  A    between atoms: O_25  and  O_28
   10  A    between atoms: O_25  and  C_32
   11  A    between atoms: C_30  and  C_32
                            x       y       z     vdW  Elec       q    Type
                         _______ _______ _______ _____ _____    ______ ____

>  <TORSDO>
F 11

$$$$
=
 OpenBabel10232410323D

 38 41  0  0  1  0  0  0  0  0999 V2000
  186.0810  178.2540  145.1550 C   0  0  0  0  0  0  0  0  0  0  0  0
  187.0710  177.5760  145.7520 C   0  0  0  0  0  3  0  0  0  0  0  0
  182.1930  178.7390  141.8350 C   0  0  0  0  0  3  0  0  0  0  0  0
  187.1720  177.7960  142.9090 C   0  0  0  0  0  0  0  0  0  0  0  0
  184.5810  178.4180  141.6470 C   0  0  0  0  0  3  0  0  0  0  0  0
  182.3260  178.8990  143.2170 C   0  0  0  0  0  3  0  0  0  0  0  0
  186.1140  178.5810  143.6670 C   0  0  1  0  0  3  0  0  0  0  0  0
  184.8990  178.6620  145.9290 C   0  0  0  0  0  0  0  0  0  0  0  0
  183.5820  178.8080  143.8210 C   0  0  0  0  0  0  0  0  0  0  0  0
  183.6840  178.9540  145.2400 N   0  0  0  0  0  2  0  0  0  0  0  0
  184.7310  178.5510  143.0360 C   0  0  0  0  0  0  0  0  0  0  0  0
  188.2760  177.1110  144.9920 C   0  0  0  0  0  2  0  0  0  0  0  0
  183.3180  178.4900  141.0470 C   0  0  0  0  0  0  0  0  0  0  0  0
  187.5180  178.1780  141.7260 N   0  0  0  0  0  0  0  0  0  0  0  0
  184.9340  178.7210  147.1870 O   0  0  0  0  0  0  0  0  0  0  0  0
  187.8640  176.6500  143.6010 C   0  0  0  0  0  2  0  0  0  0  0  0
  188.5230  177.5100  140.9330 C   0  0  0  0  0  2  0  0  0  0  0  0
  188.7350  178.2590  139.6270 C   0  0  0  0  0  2  0  0  0  0  0  0
  187.5370  178.0680  138.7120 C   0  0  0  0  0  2  0  0  0  0  0  0
  188.8540  179.5460  137.5930 O   0  0  0  0  0  1  0  0  0  0  0  0
  187.7340  178.7930  137.4580 N   0  0  0  0  0  0  0  0  0  0  0  0
  186.9740  178.0670  135.1890 C   0  0  0  0  0  1  0  0  0  0  0  0
  187.9480  177.8590  136.3470 C   0  0  1  0  0  3  0  0  0  0  0  0
  189.2630  177.9410  135.8880 O   0  0  0  0  0  1  0  0  0  0  0  0
  183.1620  178.3440  139.5650 C   0  0  1  0  0  3  0  0  0  0  0  0
  183.3100  176.4320  137.9290 N   0  0  0  0  0  2  0  0  0  0  0  0
  182.2640  176.1690  140.0000 O   0  0  0  0  0  0  0  0  0  0  0  0
  182.8690  176.9260  139.1920 C   0  0  0  0  0  0  0  0  0  0  0  0
  183.0720  175.0580  137.5140 C   0  0  0  0  0  2  0  0  0  0  0  0
  184.3510  174.2510  137.6300 C   0  0  2  0  0  3  0  0  0  0  0  0
  185.5240  175.0300  137.0990 C   0  0  0  0  0  3  0  0  0  0  0  0
  186.7650  172.9220  137.1430 C   0  0  0  0  0  2  0  0  0  0  0  0
  186.6770  174.3950  136.8690 C   0  0  0  0  0  3  0  0  0  0  0  0
  184.1970  172.9180  136.8810 C   0  0  0  0  0  2  0  0  0  0  0  0
  185.5320  172.2040  136.5790 C   0  0  0  0  0  2  0  0  0  0  0  0
  182.1570  179.1950  139.0850 O   0  0  0  0  0  0  0  0  0  0  0  0
  181.7520  181.2140  138.4640 C   0  0  0  0  0  1  0  0  0  0  0  0
  182.7740  180.3240  138.8020 O   0  0  0  0  0  0  0  0  0  0  0  0
  1  2  2  0  0  0  0
  1  8  1  0  0  0  0
  3  6  1  0  0  0  0
  4 16  1  0  0  0  0
  5 11  2  0  0  0  0
  6  9  2  0  0  0  0
  7  4  1  6  0  0  0
  7  1  1  0  0  0  0
  8 15  2  0  0  0  0
  9 10  1  0  0  0  0
 10  8  1  0  0  0  0
 11  7  1  0  0  0  0
 11  9  1  0  0  0  0
 12  2  1  0  0  0  0
 13  5  1  0  0  0  0
 13  3  2  0  0  0  0
 14  4  2  0  0  0  0
 16 12  1  0  0  0  0
 17 14  1  0  0  0  0
 18 17  1  0  0  0  0
 19 18  1  0  0  0  0
 21 20  1  0  0  0  0
 21 19  1  0  0  0  0
 23 22  1  6  0  0  0
 23 21  1  0  0  0  0
 24 23  1  0  0  0  0
 25 36  1  1  0  0  0
 25 13  1  0  0  0  0
 26 28  1  0  0  0  0
 28 25  1  0  0  0  0
 28 27  2  0  0  0  0
 29 26  1  0  0  0  0
 30 29  1  6  0  0  0
 31 30  1  0  0  0  0
 33 31  2  0  0  0  0
 33 32  1  0  0  0  0
 34 30  1  0  0  0  0
 35 34  1  0  0  0  0
 35 32  1  0  0  0  0
 37 38  1  0  0  0  0
 38 36  1  0  0  0  0
M  END
>  <MODEL>
4

>  <REMARK>
 VINA RESULT:      -8.4      2.236      3.867
  Name = 
  11 active torsions:
  status: ('A' for Active; 'I' for Inactive)
    1  A    between atoms: C_1  and  C_38
    2  A    between atoms: C_5  and  C_16
    3  A    between atoms: C_5  and  N_33
    4  A    between atoms: C_8  and  C_16
    5  A    between atoms: C_8  and  N_31
    6  A    between atoms: N_12  and  C_38
    7  A    between atoms: C_20  and  C_32
    8  A    between atoms: C_22  and  N_33
    9  A    between atoms: O_25  and  O_28
   10  A    between atoms: O_25  and  C_32
   11  A    between atoms: C_30  and  C_32
                            x       y       z     vdW  Elec       q    Type
                         _______ _______ _______ _____ _____    ______ ____

>  <TORSDO>
F 11

$$$$
=
 OpenBabel10232410323D

 38 41  0  0  1  0  0  0  0  0999 V2000
  186.0480  178.2770  145.1310 C   0  0  0  0  0  0  0  0  0  0  0  0
  187.0420  177.6090  145.7330 C   0  0  0  0  0  3  0  0  0  0  0  0
  182.1810  178.7250  141.7810 C   0  0  0  0  0  3  0  0  0  0  0  0
  187.1630  177.8400  142.8920 C   0  0  0  0  0  0  0  0  0  0  0  0
  184.5750  178.4340  141.6120 C   0  0  0  0  0  3  0  0  0  0  0  0
  182.3020  178.8810  143.1640 C   0  0  0  0  0  3  0  0  0  0  0  0
  186.0900  178.6090  143.6450 C   0  0  1  0  0  3  0  0  0  0  0  0
  184.8550  178.6670  145.8960 C   0  0  0  0  0  0  0  0  0  0  0  0
  183.5540  178.8040  143.7780 C   0  0  0  0  0  0  0  0  0  0  0  0
  183.6420  178.9460  145.1980 N   0  0  0  0  0  2  0  0  0  0  0  0
  184.7120  178.5640  143.0020 C   0  0  0  0  0  0  0  0  0  0  0  0
  188.2590  177.1610  144.9820 C   0  0  0  0  0  2  0  0  0  0  0  0
  183.3160  178.4920  141.0020 C   0  0  0  0  0  0  0  0  0  0  0  0
  187.5140  178.2310  141.7130 N   0  0  0  0  0  0  0  0  0  0  0  0
  184.8800  178.7220  147.1550 O   0  0  0  0  0  0  0  0  0  0  0  0
  187.8640  176.7010  143.5860 C   0  0  0  0  0  2  0  0  0  0  0  0
  188.5340  177.5780  140.9260 C   0  0  0  0  0  2  0  0  0  0  0  0
  188.7580  178.3430  139.6320 C   0  0  0  0  0  2  0  0  0  0  0  0
  189.3620  177.4280  138.5800 C   0  0  0  0  0  2  0  0  0  0  0  0
  190.2980  175.3570  138.4690 O   0  0  0  0  0  1  0  0  0  0  0  0
  190.3100  176.5010  139.1970 N   0  0  0  0  0  0  0  0  0  0  0  0
  192.2450  177.3420  140.5420 C   0  0  0  0  0  1  0  0  0  0  0  0
  191.6720  177.0490  139.1570 C   0  0  1  0  0  3  0  0  0  0  0  0
  192.5210  176.1910  138.4580 O   0  0  0  0  0  1  0  0  0  0  0  0
  183.1740  178.3490  139.5180 C   0  0  1  0  0  3  0  0  0  0  0  0
  183.3090  176.4820  137.8290 N   0  0  0  0  0  2  0  0  0  0  0  0
  182.4510  176.1130  139.9690 O   0  0  0  0  0  0  0  0  0  0  0  0
  182.9410  176.9230  139.1340 C   0  0  0  0  0  0  0  0  0  0  0  0
  183.1240  175.1050  137.4010 C   0  0  0  0  0  2  0  0  0  0  0  0
  184.4430  174.5280  136.9210 C   0  0  2  0  0  3  0  0  0  0  0  0
  184.8140  173.3080  137.7200 C   0  0  0  0  0  3  0  0  0  0  0  0
  187.0440  173.5150  136.7350 C   0  0  0  0  0  2  0  0  0  0  0  0
  186.0560  172.8240  137.6290 C   0  0  0  0  0  3  0  0  0  0  0  0
  185.5430  175.5960  137.0120 C   0  0  0  0  0  2  0  0  0  0  0  0
  186.9790  175.0320  136.9470 C   0  0  0  0  0  2  0  0  0  0  0  0
  182.1380  179.1610  139.0370 O   0  0  0  0  0  0  0  0  0  0  0  0
  181.6400  181.1770  138.4750 C   0  0  0  0  0  1  0  0  0  0  0  0
  182.6990  180.3320  138.8140 O   0  0  0  0  0  0  0  0  0  0  0  0
  1  2  2  0  0  0  0
  1  8  1  0  0  0  0
  3  6  1  0  0  0  0
  4 16  1  0  0  0  0
  5 11  2  0  0  0  0
  6  9  2  0  0  0  0
  7  4  1  6  0  0  0
  7  1  1  0  0  0  0
  8 15  2  0  0  0  0
  9 10  1  0  0  0  0
 10  8  1  0  0  0  0
 11  7  1  0  0  0  0
 11  9  1  0  0  0  0
 12  2  1  0  0  0  0
 13  5  1  0  0  0  0
 13  3  2  0  0  0  0
 14  4  2  0  0  0  0
 16 12  1  0  0  0  0
 17 14  1  0  0  0  0
 18 17  1  0  0  0  0
 19 21  1  0  0  0  0
 19 18  1  0  0  0  0
 20 21  1  0  0  0  0
 23 21  1  0  0  0  0
 23 22  1  1  0  0  0
 24 23  1  0  0  0  0
 25 36  1  1  0  0  0
 25 13  1  0  0  0  0
 26 28  1  0  0  0  0
 28 25  1  0  0  0  0
 28 27  2  0  0  0  0
 29 26  1  0  0  0  0
 30 34  1  0  0  0  0
 30 29  1  1  0  0  0
 30 31  1  0  0  0  0
 32 35  1  0  0  0  0
 32 33  1  0  0  0  0
 33 31  2  0  0  0  0
 35 34  1  0  0  0  0
 37 38  1  0  0  0  0
 38 36  1  0  0  0  0
M  END
>  <MODEL>
5

>  <REMARK>
 VINA RESULT:      -8.1      2.066      2.988
  Name = 
  11 active torsions:
  status: ('A' for Active; 'I' for Inactive)
    1  A    between atoms: C_1  and  C_38
    2  A    between atoms: C_5  and  C_16
    3  A    between atoms: C_5  and  N_33
    4  A    between atoms: C_8  and  C_16
    5  A    between atoms: C_8  and  N_31
    6  A    between atoms: N_12  and  C_38
    7  A    between atoms: C_20  and  C_32
    8  A    between atoms: C_22  and  N_33
    9  A    between atoms: O_25  and  O_28
   10  A    between atoms: O_25  and  C_32
   11  A    between atoms: C_30  and  C_32
                            x       y       z     vdW  Elec       q    Type
                         _______ _______ _______ _____ _____    ______ ____

>  <TORSDO>
F 11

$$$$
=
 OpenBabel10232410323D

 38 41  0  0  1  0  0  0  0  0999 V2000
  187.0290  177.9190  146.7810 C   0  0  0  0  0  0  0  0  0  0  0  0
  185.9840  178.6290  147.2300 C   0  0  0  0  0  3  0  0  0  0  0  0
  191.0930  177.1500  143.7380 C   0  0  0  0  0  3  0  0  0  0  0  0
  186.0330  178.0000  144.4480 C   0  0  0  0  0  0  0  0  0  0  0  0
  188.7060  177.3280  143.4020 C   0  0  0  0  0  3  0  0  0  0  0  0
  190.8980  177.1840  145.1200 C   0  0  0  0  0  3  0  0  0  0  0  0
  187.0830  177.3830  145.3570 C   0  0  1  0  0  3  0  0  0  0  0  0
  188.1870  177.6840  147.6560 C   0  0  0  0  0  0  0  0  0  0  0  0
  189.6110  177.3000  145.6500 C   0  0  0  0  0  0  0  0  0  0  0  0
  189.4450  177.3540  147.0700 N   0  0  0  0  0  2  0  0  0  0  0  0
  188.4930  177.3880  144.7880 C   0  0  0  0  0  0  0  0  0  0  0  0
  184.8000  178.9230  146.3600 C   0  0  0  0  0  2  0  0  0  0  0  0
  189.9990  177.2310  142.8740 C   0  0  0  0  0  0  0  0  0  0  0  0
  185.7610  177.4360  143.3190 N   0  0  0  0  0  0  0  0  0  0  0  0
  188.0910  177.8040  148.9070 O   0  0  0  0  0  0  0  0  0  0  0  0
  185.2610  179.1980  144.9350 C   0  0  0  0  0  2  0  0  0  0  0  0
  184.7710  177.9350  142.3940 C   0  0  0  0  0  2  0  0  0  0  0  0
  185.3870  178.9970  141.4980 C   0  0  0  0  0  2  0  0  0  0  0  0
  184.9370  178.7950  140.0610 C   0  0  0  0  0  2  0  0  0  0  0  0
  184.4730  180.6610  138.8450 O   0  0  0  0  0  1  0  0  0  0  0  0
  183.9120  179.7770  139.7070 N   0  0  0  0  0  0  0  0  0  0  0  0
  182.9230  177.6100  138.9440 C   0  0  0  0  0  1  0  0  0  0  0  0
  182.7870  179.1290  139.0230 C   0  0  1  0  0  3  0  0  0  0  0  0
  181.5820  179.4720  139.6380 O   0  0  0  0  0  1  0  0  0  0  0  0
  190.2230  177.1710  141.3940 C   0  0  1  0  0  3  0  0  0  0  0  0
  188.6590  177.3770  139.4280 N   0  0  0  0  0  2  0  0  0  0  0  0
  188.6650  178.9690  141.1360 O   0  0  0  0  0  0  0  0  0  0  0  0
  189.1490  177.9070  140.6580 C   0  0  0  0  0  0  0  0  0  0  0  0
  187.6040  178.0360  138.6730 C   0  0  0  0  0  2  0  0  0  0  0  0
  187.4480  177.3760  137.3160 C   0  0  2  0  0  3  0  0  0  0  0  0
  186.0450  177.5490  136.7970 C   0  0  0  0  0  3  0  0  0  0  0  0
  186.5990  175.8400  135.1370 C   0  0  0  0  0  2  0  0  0  0  0  0
  185.6420  176.8160  135.7550 C   0  0  0  0  0  3  0  0  0  0  0  0
  187.8130  175.8870  137.4140 C   0  0  0  0  0  2  0  0  0  0  0  0
  187.3120  175.0320  136.2300 C   0  0  0  0  0  2  0  0  0  0  0  0
  191.4840  177.6800  141.0610 O   0  0  0  0  0  0  0  0  0  0  0  0
  193.1840  177.2750  139.8060 C   0  0  0  0  0  1  0  0  0  0  0  0
  191.8060  177.0820  139.9330 O   0  0  0  0  0  0  0  0  0  0  0  0
  1  2  2  0  0  0  0
  1  8  1  0  0  0  0
  3  6  1  0  0  0  0
  4 16  1  0  0  0  0
  5 11  2  0  0  0  0
  6  9  2  0  0  0  0
  7  4  1  6  0  0  0
  7  1  1  0  0  0  0
  8 15  2  0  0  0  0
  9 10  1  0  0  0  0
 10  8  1  0  0  0  0
 11  7  1  0  0  0  0
 11  9  1  0  0  0  0
 12  2  1  0  0  0  0
 13  5  1  0  0  0  0
 13  3  2  0  0  0  0
 14  4  2  0  0  0  0
 16 12  1  0  0  0  0
 17 14  1  0  0  0  0
 18 17  1  0  0  0  0
 19 18  1  0  0  0  0
 20 21  1  0  0  0  0
 21 19  1  0  0  0  0
 23 22  1  1  0  0  0
 23 24  1  0  0  0  0
 23 21  1  0  0  0  0
 25 28  1  6  0  0  0
 25 13  1  0  0  0  0
 26 28  1  0  0  0  0
 28 27  2  0  0  0  0
 29 26  1  0  0  0  0
 30 34  1  0  0  0  0
 30 29  1  1  0  0  0
 31 30  1  0  0  0  0
 32 33  1  0  0  0  0
 32 35  1  0  0  0  0
 33 31  2  0  0  0  0
 35 34  1  0  0  0  0
 36 25  1  0  0  0  0
 37 38  1  0  0  0  0
 38 36  1  0  0  0  0
M  END
>  <MODEL>
6

>  <REMARK>
 VINA RESULT:      -8.0      1.980      6.203
  Name = 
  11 active torsions:
  status: ('A' for Active; 'I' for Inactive)
    1  A    between atoms: C_1  and  C_38
    2  A    between atoms: C_5  and  C_16
    3  A    between atoms: C_5  and  N_33
    4  A    between atoms: C_8  and  C_16
    5  A    between atoms: C_8  and  N_31
    6  A    between atoms: N_12  and  C_38
    7  A    between atoms: C_20  and  C_32
    8  A    between atoms: C_22  and  N_33
    9  A    between atoms: O_25  and  O_28
   10  A    between atoms: O_25  and  C_32
   11  A    between atoms: C_30  and  C_32
                            x       y       z     vdW  Elec       q    Type
                         _______ _______ _______ _____ _____    ______ ____

>  <TORSDO>
F 11

$$$$
=
 OpenBabel10232410323D

 38 41  0  0  1  0  0  0  0  0999 V2000
  191.0760  176.6200  145.7820 C   0  0  0  0  0  0  0  0  0  0  0  0
  191.9200  175.7300  145.2410 C   0  0  0  0  0  3  0  0  0  0  0  0
  186.4020  178.4090  146.9340 C   0  0  0  0  0  3  0  0  0  0  0  0
  189.9870  176.9120  143.5080 C   0  0  0  0  0  0  0  0  0  0  0  0
  187.6510  178.0570  144.8950 C   0  0  0  0  0  3  0  0  0  0  0  0
  187.5340  178.0750  147.6820 C   0  0  0  0  0  3  0  0  0  0  0  0
  190.1160  177.4380  144.9280 C   0  0  1  0  0  3  0  0  0  0  0  0
  191.0260  176.7920  147.2410 C   0  0  0  0  0  0  0  0  0  0  0  0
  188.7240  177.7210  147.0420 C   0  0  0  0  0  0  0  0  0  0  0  0
  189.8600  177.3620  147.8340 N   0  0  0  0  0  2  0  0  0  0  0  0
  188.7910  177.6940  145.6290 C   0  0  0  0  0  0  0  0  0  0  0  0
  191.9780  175.4980  143.7620 C   0  0  0  0  0  2  0  0  0  0  0  0
  186.4540  178.3930  145.5390 C   0  0  0  0  0  0  0  0  0  0  0  0
  189.4590  177.6630  142.6000 N   0  0  0  0  0  0  0  0  0  0  0  0
  191.9780  176.4110  147.9740 O   0  0  0  0  0  0  0  0  0  0  0  0
  190.5760  175.5670  143.1730 C   0  0  0  0  0  2  0  0  0  0  0  0
  189.3070  177.2620  141.2210 C   0  0  0  0  0  2  0  0  0  0  0  0
  188.7850  178.4270  140.3970 C   0  0  0  0  0  2  0  0  0  0  0  0
  189.0900  178.2070  138.9250 C   0  0  0  0  0  2  0  0  0  0  0  0
  188.1880  179.3800  137.1970 O   0  0  0  0  0  1  0  0  0  0  0  0
  187.8910  178.4310  138.1180 N   0  0  0  0  0  0  0  0  0  0  0  0
  186.6880  177.4750  136.1450 C   0  0  0  0  0  1  0  0  0  0  0  0
  187.5120  177.2070  137.4020 C   0  0  1  0  0  3  0  0  0  0  0  0
  188.6470  176.4600  137.0810 O   0  0  0  0  0  1  0  0  0  0  0  0
  185.2390  178.7750  144.7520 C   0  0  1  0  0  3  0  0  0  0  0  0
  185.1220  179.4130  142.3160 N   0  0  0  0  0  2  0  0  0  0  0  0
  185.8110  177.2810  142.9730 O   0  0  0  0  0  0  0  0  0  0  0  0
  185.4020  178.4270  143.3070 C   0  0  0  0  0  0  0  0  0  0  0  0
  185.2780  179.1420  140.8950 C   0  0  0  0  0  2  0  0  0  0  0  0
  183.9250  179.1760  140.2090 C   0  0  2  0  0  3  0  0  0  0  0  0
  182.9130  178.3780  140.9840 C   0  0  0  0  0  3  0  0  0  0  0  0
  181.4880  178.5230  139.0010 C   0  0  0  0  0  2  0  0  0  0  0  0
  181.7480  178.0680  140.4070 C   0  0  0  0  0  3  0  0  0  0  0  0
  184.0560  178.6450  138.7730 C   0  0  0  0  0  2  0  0  0  0  0  0
  182.7140  178.2490  138.1200 C   0  0  0  0  0  2  0  0  0  0  0  0
  184.0940  178.1640  145.2780 O   0  0  0  0  0  0  0  0  0  0  0  0
  182.4450  179.2430  144.4150 C   0  0  0  0  0  1  0  0  0  0  0  0
  183.2680  179.1560  145.5400 O   0  0  0  0  0  0  0  0  0  0  0  0
  1  8  1  0  0  0  0
  2  1  2  0  0  0  0
  3  6  1  0  0  0  0
  5 13  1  0  0  0  0
  5 11  2  0  0  0  0
  7  4  1  6  0  0  0
  7 11  1  0  0  0  0
  7  1  1  0  0  0  0
  8 10  1  0  0  0  0
  8 15  2  0  0  0  0
  9  6  2  0  0  0  0
  9 10  1  0  0  0  0
 11  9  1  0  0  0  0
 12  2  1  0  0  0  0
 13  3  2  0  0  0  0
 14  4  2  0  0  0  0
 16  4  1  0  0  0  0
 16 12  1  0  0  0  0
 17 14  1  0  0  0  0
 18 17  1  0  0  0  0
 19 18  1  0  0  0  0
 20 21  1  0  0  0  0
 21 19  1  0  0  0  0
 23 22  1  6  0  0  0
 23 21  1  0  0  0  0
 24 23  1  0  0  0  0
 25 28  1  6  0  0  0
 25 36  1  0  0  0  0
 25 13  1  0  0  0  0
 26 28  1  0  0  0  0
 27 28  2  0  0  0  0
 29 26  1  0  0  0  0
 30 29  1  1  0  0  0
 30 31  1  0  0  0  0
 32 33  1  0  0  0  0
 33 31  2  0  0  0  0
 34 30  1  0  0  0  0
 35 34  1  0  0  0  0
 35 32  1  0  0  0  0
 36 38  1  0  0  0  0
 37 38  1  0  0  0  0
M  END
>  <MODEL>
7

>  <REMARK>
 VINA RESULT:      -8.0      2.378      5.749
  Name = 
  11 active torsions:
  status: ('A' for Active; 'I' for Inactive)
    1  A    between atoms: C_1  and  C_38
    2  A    between atoms: C_5  and  C_16
    3  A    between atoms: C_5  and  N_33
    4  A    between atoms: C_8  and  C_16
    5  A    between atoms: C_8  and  N_31
    6  A    between atoms: N_12  and  C_38
    7  A    between atoms: C_20  and  C_32
    8  A    between atoms: C_22  and  N_33
    9  A    between atoms: O_25  and  O_28
   10  A    between atoms: O_25  and  C_32
   11  A    between atoms: C_30  and  C_32
                            x       y       z     vdW  Elec       q    Type
                         _______ _______ _______ _____ _____    ______ ____

>  <TORSDO>
F 11

$$$$
=
 OpenBabel10232410323D

 38 41  0  0  1  0  0  0  0  0999 V2000
  189.8930  177.0560  145.5400 C   0  0  0  0  0  0  0  0  0  0  0  0
  190.8120  176.1610  145.1520 C   0  0  0  0  0  3  0  0  0  0  0  0
  185.0830  178.7880  146.0240 C   0  0  0  0  0  3  0  0  0  0  0  0
  189.0860  177.2130  143.1390 C   0  0  0  0  0  0  0  0  0  0  0  0
  186.5790  178.3670  144.1720 C   0  0  0  0  0  3  0  0  0  0  0  0
  186.1210  178.5170  146.9200 C   0  0  0  0  0  3  0  0  0  0  0  0
  189.0310  177.8090  144.5350 C   0  0  1  0  0  3  0  0  0  0  0  0
  189.6620  177.2970  146.9720 C   0  0  0  0  0  0  0  0  0  0  0  0
  187.3870  178.1610  146.4480 C   0  0  0  0  0  0  0  0  0  0  0  0
  188.4220  177.8680  147.3890 N   0  0  0  0  0  2  0  0  0  0  0  0
  187.6260  178.0680  145.0570 C   0  0  0  0  0  0  0  0  0  0  0  0
  191.0550  175.8590  143.7040 C   0  0  0  0  0  2  0  0  0  0  0  0
  185.3060  178.7060  144.6490 C   0  0  0  0  0  0  0  0  0  0  0  0
  188.6600  177.9060  142.1360 N   0  0  0  0  0  0  0  0  0  0  0  0
  190.5240  176.9740  147.8330 O   0  0  0  0  0  0  0  0  0  0  0  0
  189.7340  175.8670  142.9460 C   0  0  0  0  0  2  0  0  0  0  0  0
  188.6850  177.4350  140.7720 C   0  0  0  0  0  2  0  0  0  0  0  0
  188.3030  178.5630  139.8270 C   0  0  0  0  0  2  0  0  0  0  0  0
  187.5800  178.0080  138.6120 C   0  0  0  0  0  2  0  0  0  0  0  0
  188.9670  179.5700  137.7110 O   0  0  0  0  0  1  0  0  0  0  0  0
  187.8710  178.8210  137.4320 N   0  0  0  0  0  0  0  0  0  0  0  0
  189.5500  177.2880  136.3880 C   0  0  0  0  0  1  0  0  0  0  0  0
  188.1870  177.9690  136.2790 C   0  0  1  0  0  3  0  0  0  0  0  0
  187.1870  177.0140  136.0920 O   0  0  0  0  0  1  0  0  0  0  0  0
  184.1900  179.0220  143.7010 C   0  0  1  0  0  3  0  0  0  0  0  0
  183.9120  178.0240  141.4030 N   0  0  0  0  0  2  0  0  0  0  0  0
  185.6220  179.5460  141.8580 O   0  0  0  0  0  0  0  0  0  0  0  0
  184.6350  178.8850  142.2800 C   0  0  0  0  0  0  0  0  0  0  0  0
  184.2840  177.8600  140.0060 C   0  0  0  0  0  2  0  0  0  0  0  0
  183.1830  178.3950  139.1090 C   0  0  2  0  0  3  0  0  0  0  0  0
  183.2790  179.8920  138.9830 C   0  0  0  0  0  3  0  0  0  0  0  0
  181.0310  179.8120  138.0200 C   0  0  0  0  0  2  0  0  0  0  0  0
  182.2510  180.5680  138.4600 C   0  0  0  0  0  3  0  0  0  0  0  0
  181.8110  177.9810  139.6620 C   0  0  0  0  0  2  0  0  0  0  0  0
  180.6270  178.7890  139.0890 C   0  0  0  0  0  2  0  0  0  0  0  0
  183.0810  178.2020  143.9490 O   0  0  0  0  0  0  0  0  0  0  0  0
  181.0840  178.8210  143.4430 C   0  0  0  0  0  1  0  0  0  0  0  0
  182.1310  179.0240  144.3450 O   0  0  0  0  0  0  0  0  0  0  0  0
  1  8  1  0  0  0  0
  2  1  2  0  0  0  0
  3  6  1  0  0  0  0
  5 13  1  0  0  0  0
  5 11  2  0  0  0  0
  7  4  1  6  0  0  0
  7 11  1  0  0  0  0
  7  1  1  0  0  0  0
  8 10  1  0  0  0  0
  8 15  2  0  0  0  0
  9  6  2  0  0  0  0
  9 10  1  0  0  0  0
 11  9  1  0  0  0  0
 12  2  1  0  0  0  0
 13  3  2  0  0  0  0
 14  4  2  0  0  0  0
 16  4  1  0  0  0  0
 16 12  1  0  0  0  0
 17 14  1  0  0  0  0
 18 17  1  0  0  0  0
 19 18  1  0  0  0  0
 21 20  1  0  0  0  0
 21 19  1  0  0  0  0
 23 22  1  1  0  0  0
 23 21  1  0  0  0  0
 24 23  1  0  0  0  0
 25 28  1  6  0  0  0
 25 36  1  0  0  0  0
 25 13  1  0  0  0  0
 26 28  1  0  0  0  0
 27 28  2  0  0  0  0
 29 26  1  0  0  0  0
 30 34  1  0  0  0  0
 30 29  1  1  0  0  0
 31 30  1  0  0  0  0
 32 33  1  0  0  0  0
 32 35  1  0  0  0  0
 33 31  2  0  0  0  0
 35 34  1  0  0  0  0
 36 38  1  0  0  0  0
 37 38  1  0  0  0  0
M  END
>  <MODEL>
8

>  <REMARK>
 VINA RESULT:      -7.9      2.436      5.227
  Name = 
  11 active torsions:
  status: ('A' for Active; 'I' for Inactive)
    1  A    between atoms: C_1  and  C_38
    2  A    between atoms: C_5  and  C_16
    3  A    between atoms: C_5  and  N_33
    4  A    between atoms: C_8  and  C_16
    5  A    between atoms: C_8  and  N_31
    6  A    between atoms: N_12  and  C_38
    7  A    between atoms: C_20  and  C_32
    8  A    between atoms: C_22  and  N_33
    9  A    between atoms: O_25  and  O_28
   10  A    between atoms: O_25  and  C_32
   11  A    between atoms: C_30  and  C_32
                            x       y       z     vdW  Elec       q    Type
                         _______ _______ _______ _____ _____    ______ ____

>  <TORSDO>
F 11

$$$$
=
 OpenBabel10232410323D

 38 41  0  0  1  0  0  0  0  0999 V2000
  186.0980  178.2790  145.2860 C   0  0  0  0  0  0  0  0  0  0  0  0
  187.1730  177.6150  145.7320 C   0  0  0  0  0  3  0  0  0  0  0  0
  181.8810  178.7860  142.3980 C   0  0  0  0  0  3  0  0  0  0  0  0
  186.9820  178.0430  142.9180 C   0  0  0  0  0  0  0  0  0  0  0  0
  184.2520  178.6110  141.9600 C   0  0  0  0  0  3  0  0  0  0  0  0
  182.1430  178.8530  143.7690 C   0  0  0  0  0  3  0  0  0  0  0  0
  185.9680  178.7130  143.8310 C   0  0  1  0  0  3  0  0  0  0  0  0
  184.9800  178.5640  146.1980 C   0  0  0  0  0  0  0  0  0  0  0  0
  183.4560  178.7890  144.2420 C   0  0  0  0  0  0  0  0  0  0  0  0
  183.6900  178.8380  145.6520 N   0  0  0  0  0  2  0  0  0  0  0  0
  184.5320  178.6520  143.3350 C   0  0  0  0  0  0  0  0  0  0  0  0
  188.3180  177.2730  144.8280 C   0  0  0  0  0  2  0  0  0  0  0  0
  182.9340  178.6560  141.4900 C   0  0  0  0  0  0  0  0  0  0  0  0
  187.1910  178.5280  141.7400 N   0  0  0  0  0  0  0  0  0  0  0  0
  185.1370  178.5350  147.4480 O   0  0  0  0  0  0  0  0  0  0  0  0
  187.7930  176.8910  143.4510 C   0  0  0  0  0  2  0  0  0  0  0  0
  188.1430  177.9750  140.8060 C   0  0  0  0  0  2  0  0  0  0  0  0
  187.7220  178.3020  139.3820 C   0  0  0  0  0  2  0  0  0  0  0  0
  188.2310  177.2360  138.4270 C   0  0  0  0  0  2  0  0  0  0  0  0
  189.0280  179.1770  137.5480 O   0  0  0  0  0  1  0  0  0  0  0  0
  188.8840  177.8560  137.2750 N   0  0  0  0  0  0  0  0  0  0  0  0
  190.7150  176.4610  138.2540 C   0  0  0  0  0  1  0  0  0  0  0  0
  190.2210  177.2880  137.0680 C   0  0  1  0  0  3  0  0  0  0  0  0
  190.2490  176.5200  135.9030 O   0  0  0  0  0  1  0  0  0  0  0  0
  182.6390  178.6080  140.0230 C   0  0  1  0  0  3  0  0  0  0  0  0
  183.7340  177.0180  138.4020 N   0  0  0  0  0  2  0  0  0  0  0  0
  182.2070  176.2550  139.9950 O   0  0  0  0  0  0  0  0  0  0  0  0
  182.8250  177.2270  139.4810 C   0  0  0  0  0  0  0  0  0  0  0  0
  183.9730  175.6970  137.8410 C   0  0  0  0  0  2  0  0  0  0  0  0
  184.7490  175.8160  136.5440 C   0  0  2  0  0  3  0  0  0  0  0  0
  185.9960  174.9740  136.5890 C   0  0  0  0  0  3  0  0  0  0  0  0
  186.7240  176.1950  134.5980 C   0  0  0  0  0  2  0  0  0  0  0  0
  186.9370  175.1540  135.6590 C   0  0  0  0  0  3  0  0  0  0  0  0
  185.0950  177.2880  136.2750 C   0  0  0  0  0  2  0  0  0  0  0  0
  186.2110  177.4960  135.2290 C   0  0  0  0  0  2  0  0  0  0  0  0
  181.3410  179.0660  139.7620 O   0  0  0  0  0  0  0  0  0  0  0  0
  181.5720  180.3210  138.0300 C   0  0  0  0  0  1  0  0  0  0  0  0
  181.4870  180.3310  139.4240 O   0  0  0  0  0  0  0  0  0  0  0  0
  1  2  2  0  0  0  0
  1  8  1  0  0  0  0
  3  6  1  0  0  0  0
  4 16  1  0  0  0  0
  5 11  2  0  0  0  0
  6  9  2  0  0  0  0
  7  4  1  6  0  0  0
  7  1  1  0  0  0  0
  8 15  2  0  0  0  0
  9 10  1  0  0  0  0
 10  8  1  0  0  0  0
 11  7  1  0  0  0  0
 11  9  1  0  0  0  0
 12  2  1  0  0  0  0
 13  5  1  0  0  0  0
 13  3  2  0  0  0  0
 14  4  2  0  0  0  0
 16 12  1  0  0  0  0
 17 14  1  0  0  0  0
 18 17  1  0  0  0  0
 19 18  1  0  0  0  0
 21 20  1  0  0  0  0
 21 19  1  0  0  0  0
 23 21  1  0  0  0  0
 23 22  1  1  0  0  0
 24 23  1  0  0  0  0
 25 28  1  1  0  0  0
 25 13  1  0  0  0  0
 26 28  1  0  0  0  0
 28 27  2  0  0  0  0
 29 26  1  0  0  0  0
 30 31  1  0  0  0  0
 30 29  1  1  0  0  0
 32 35  1  0  0  0  0
 32 33  1  0  0  0  0
 33 31  2  0  0  0  0
 34 30  1  0  0  0  0
 35 34  1  0  0  0  0
 36 25  1  0  0  0  0
 37 38  1  0  0  0  0
 38 36  1  0  0  0  0
M  END
>  <MODEL>
9

>  <REMARK>
 VINA RESULT:      -7.8      2.207      3.268
  Name = 
  11 active torsions:
  status: ('A' for Active; 'I' for Inactive)
    1  A    between atoms: C_1  and  C_38
    2  A    between atoms: C_5  and  C_16
    3  A    between atoms: C_5  and  N_33
    4  A    between atoms: C_8  and  C_16
    5  A    between atoms: C_8  and  N_31
    6  A    between atoms: N_12  and  C_38
    7  A    between atoms: C_20  and  C_32
    8  A    between atoms: C_22  and  N_33
    9  A    between atoms: O_25  and  O_28
   10  A    between atoms: O_25  and  C_32
   11  A    between atoms: C_30  and  C_32
                            x       y       z     vdW  Elec       q    Type
                         _______ _______ _______ _____ _____    ______ ____

>  <TORSDO>
F 11

$$$$
