=
 OpenBabel10232410243D

 42 47  0  0  1  0  0  0  0  0999 V2000
  183.5680  178.6730  141.8450 C   0  0  2  0  0  3  0  0  0  0  0  0
  184.7090  179.7020  143.7460 N   0  0  0  0  0  2  0  0  0  0  0  0
  182.5340  178.6030  144.0350 N   0  0  0  0  0  2  0  0  0  0  0  0
  183.9610  178.5960  144.3380 C   0  0  2  0  0  0  0  0  0  0  0  0
  183.4020  179.4010  143.1920 C   0  0  1  0  0  0  0  0  0  0  0  0
  183.9440  178.9940  145.8010 C   0  0  0  0  0  2  0  0  0  0  0  0
  184.7730  178.0170  146.6140 C   0  0  0  0  0  2  0  0  0  0  0  0
  186.0290  178.7080  147.1050 C   0  0  0  0  0  2  0  0  0  0  0  0
  187.1900  178.1330  146.4430 N   0  0  0  0  0  2  0  0  0  0  0  0
  188.1700  177.8300  147.4740 C   0  0  0  0  0  2  0  0  0  0  0  0
  192.4530  175.7100  147.7720 O   0  0  0  0  0  0  0  0  0  0  0  0
  191.6150  176.3450  147.0820 C   0  0  0  0  0  0  0  0  0  0  0  0
  189.7450  177.7950  145.6430 N   0  0  0  0  0  0  0  0  0  0  0  0
  189.4520  177.3930  146.8460 C   0  0  0  0  0  0  0  0  0  0  0  0
  190.9280  177.3370  144.9050 C   0  0  0  0  0  2  0  0  0  0  0  0
  190.3280  176.5730  147.5640 O   0  0  0  0  0  0  0  0  0  0  0  0
  191.9750  176.8680  145.8060 N   0  0  0  0  0  2  0  0  0  0  0  0
  184.7900  179.1610  141.0760 C   0  0  0  0  0  2  0  0  0  0  0  0
  185.7780  178.0990  141.0000 N   0  0  0  0  0  2  0  0  0  0  0  0
  189.0680  177.4330  141.3280 N   0  0  0  0  0  2  0  0  0  0  0  0
  187.0020  178.6060  141.5940 C   0  0  0  0  0  3  0  0  0  0  0  0
  188.3540  176.8250  142.3760 N   0  0  0  0  0  2  0  0  0  0  0  0
  188.1510  178.3470  140.6560 C   0  0  0  0  0  2  0  0  0  0  0  0
  187.3500  177.7840  142.8010 C   0  0  0  0  0  2  0  0  0  0  0  0
  182.3440  178.8920  140.9550 C   0  0  0  0  0  2  0  0  0  0  0  0
  182.7700  176.2730  137.4810 C   0  0  1  0  0  3  0  0  0  0  0  0
  182.7820  175.7580  138.8940 C   0  0  0  0  0  3  0  0  0  0  0  0
  182.6250  176.5800  139.9350 C   0  0  0  0  0  3  0  0  0  0  0  0
  181.6000  177.9950  136.0840 C   0  0  0  0  0  1  0  0  0  0  0  0
  182.0790  178.4830  138.5070 C   0  0  0  0  0  0  0  0  0  0  0  0
  182.1050  177.5780  137.3830 N   0  0  0  0  0  0  0  0  0  0  0  0
  182.3610  178.0150  139.7400 C   0  0  0  0  0  0  0  0  0  0  0  0
  181.7050  179.9210  138.3000 C   0  0  0  0  0  1  0  0  0  0  0  0
  186.2870  177.6350  136.9320 C   0  0  0  0  0  0  0  0  0  0  0  0
  185.8040  175.9240  135.2370 C   0  0  0  0  0  2  0  0  0  0  0  0
  186.5430  177.1430  135.7130 C   0  0  0  0  0  3  0  0  0  0  0  0
  185.2420  176.9870  137.7980 C   0  0  0  0  0  2  0  0  0  0  0  0
  184.4530  175.8960  135.7690 N   0  0  0  0  0  0  0  0  0  0  0  0
  184.1700  176.3530  136.9470 C   0  0  0  0  0  0  0  0  0  0  0  0
  186.9790  178.7430  137.4230 O   0  0  0  0  0  0  0  0  0  0  0  0
  187.8350  179.4310  136.6520 O   0  0  0  0  0  0  0  0  0  0  0  0
  189.0640  179.3150  137.3050 C   0  0  0  0  0  1  0  0  0  0  0  0
  1 25  1  6  0  0  0
  2  4  1  0  0  0  0
  3  4  1  0  0  0  0
  4  6  1  1  0  0  0
  5  1  1  6  0  0  0
  5  2  1  0  0  0  0
  5  3  1  0  0  0  0
  5  4  1  0  0  0  0
  6  7  1  0  0  0  0
  7  8  1  0  0  0  0
  9  8  1  0  0  0  0
  9 10  1  0  0  0  0
 12 16  1  0  0  0  0
 12 11  2  0  0  0  0
 13 14  2  0  0  0  0
 14 10  1  0  0  0  0
 14 16  1  0  0  0  0
 15 13  1  0  0  0  0
 15 17  1  0  0  0  0
 17 12  1  0  0  0  0
 18  1  1  0  0  0  0
 19 18  1  0  0  0  0
 19 21  1  0  0  0  0
 20 22  1  0  0  0  0
 21 24  1  0  0  0  0
 22 24  1  0  0  0  0
 23 20  1  0  0  0  0
 23 21  1  0  0  0  0
 26 39  1  1  0  0  0
 26 27  1  0  0  0  0
 27 28  2  0  0  0  0
 29 31  1  0  0  0  0
 30 32  2  0  0  0  0
 31 26  1  0  0  0  0
 31 30  1  0  0  0  0
 32 28  1  0  0  0  0
 32 25  1  0  0  0  0
 33 30  1  0  0  0  0
 34 40  1  0  0  0  0
 34 37  1  0  0  0  0
 35 36  1  0  0  0  0
 35 38  1  0  0  0  0
 36 34  2  0  0  0  0
 38 39  2  0  0  0  0
 39 37  1  0  0  0  0
 41 42  1  0  0  0  0
 41 40  1  0  0  0  0
M  END
>  <MODEL>
1

>  <REMARK>
 VINA RESULT:      -7.1      0.000      0.000
  Name = 
  15 active torsions:
  status: ('A' for Active; 'I' for Inactive)
    1  A    between atoms: C_2  and  C_39
    2  A    between atoms: N_3  and  C_8
    3  A    between atoms: N_3  and  C_16
    4  A    between atoms: C_5  and  O_32
    5  A    between atoms: N_6  and  C_15
    6  A    between atoms: N_6  and  C_17
    7  A    between atoms: C_8  and  C_21
    8  A    between atoms: C_10  and  C_13
    9  A    between atoms: C_10  and  C_34
   10  A    between atoms: C_13  and  C_16
   11  A    between atoms: C_17  and  C_26
   12  A    between atoms: C_26  and  C_30
   13  A    between atoms: C_26  and  C_37
   14  A    between atoms: C_27  and  C_30
   15  A    between atoms: O_31  and  O_32
                            x       y       z     vdW  Elec       q    Type
                         _______ _______ _______ _____ _____    ______ ____

>  <TORSDO>
F 15

$$$$
=
 OpenBabel10232410243D

 42 47  0  0  1  0  0  0  0  0999 V2000
  183.7870  178.6480  141.9430 C   0  0  2  0  0  3  0  0  0  0  0  0
  184.9840  179.6570  143.8200 N   0  0  0  0  0  2  0  0  0  0  0  0
  182.8500  178.4980  144.1720 N   0  0  0  0  0  2  0  0  0  0  0  0
  184.2890  178.5180  144.4140 C   0  0  2  0  0  0  0  0  0  0  0  0
  183.6620  179.3380  143.3140 C   0  0  1  0  0  0  0  0  0  0  0  0
  184.3250  178.8800  145.8860 C   0  0  0  0  0  2  0  0  0  0  0  0
  185.4740  178.1600  146.5690 C   0  0  0  0  0  2  0  0  0  0  0  0
  186.3150  179.1620  147.3320 C   0  0  0  0  0  2  0  0  0  0  0  0
  187.4200  178.4750  147.9810 N   0  0  0  0  0  2  0  0  0  0  0  0
  187.7160  177.2890  147.1920 C   0  0  0  0  0  2  0  0  0  0  0  0
  190.8700  178.7350  143.8910 O   0  0  0  0  0  0  0  0  0  0  0  0
  190.6390  178.0890  144.9460 C   0  0  0  0  0  0  0  0  0  0  0  0
  190.0430  176.6390  147.2280 N   0  0  0  0  0  0  0  0  0  0  0  0
  189.1130  177.3600  146.6700 C   0  0  0  0  0  0  0  0  0  0  0  0
  191.4590  176.7190  146.8540 C   0  0  0  0  0  2  0  0  0  0  0  0
  189.4010  178.1850  145.5780 O   0  0  0  0  0  0  0  0  0  0  0  0
  191.6290  177.2240  145.4960 N   0  0  0  0  0  2  0  0  0  0  0  0
  184.9320  179.2210  141.1150 C   0  0  0  0  0  2  0  0  0  0  0  0
  185.9160  178.1850  140.8560 N   0  0  0  0  0  2  0  0  0  0  0  0
  189.2120  177.4690  140.8740 N   0  0  0  0  0  2  0  0  0  0  0  0
  187.2020  178.6920  141.2980 C   0  0  0  0  0  3  0  0  0  0  0  0
  188.6000  176.9190  142.0150 N   0  0  0  0  0  2  0  0  0  0  0  0
  188.2450  178.3720  140.2600 C   0  0  0  0  0  2  0  0  0  0  0  0
  187.6600  177.9150  142.4990 C   0  0  0  0  0  2  0  0  0  0  0  0
  182.5010  178.8140  141.1320 C   0  0  0  0  0  2  0  0  0  0  0  0
  182.8880  176.3110  137.5690 C   0  0  1  0  0  3  0  0  0  0  0  0
  182.7890  175.7400  138.9570 C   0  0  0  0  0  3  0  0  0  0  0  0
  182.6470  176.5290  140.0240 C   0  0  0  0  0  3  0  0  0  0  0  0
  181.9300  178.1790  136.1970 C   0  0  0  0  0  1  0  0  0  0  0  0
  182.3260  178.5270  138.6590 C   0  0  0  0  0  0  0  0  0  0  0  0
  182.3360  177.6690  137.4980 N   0  0  0  0  0  0  0  0  0  0  0  0
  182.5090  177.9880  139.8820 C   0  0  0  0  0  0  0  0  0  0  0  0
  182.0800  179.9980  138.4990 C   0  0  0  0  0  1  0  0  0  0  0  0
  186.2450  174.8920  136.4540 C   0  0  0  0  0  0  0  0  0  0  0  0
  186.5080  177.2740  136.9970 C   0  0  0  0  0  2  0  0  0  0  0  0
  187.0600  175.8850  136.8370 C   0  0  0  0  0  3  0  0  0  0  0  0
  184.7860  175.1680  136.2220 C   0  0  0  0  0  2  0  0  0  0  0  0
  185.1330  177.2360  137.4610 N   0  0  0  0  0  0  0  0  0  0  0  0
  184.3150  176.2980  137.1040 C   0  0  0  0  0  0  0  0  0  0  0  0
  186.7280  173.5980  136.2590 O   0  0  0  0  0  0  0  0  0  0  0  0
  186.3350  172.8540  135.2130 O   0  0  0  0  0  0  0  0  0  0  0  0
  186.6910  171.5500  135.5590 C   0  0  0  0  0  1  0  0  0  0  0  0
  1 18  1  6  0  0  0
  2  4  1  0  0  0  0
  3  4  1  0  0  0  0
  4  6  1  1  0  0  0
  5  1  1  6  0  0  0
  5  2  1  0  0  0  0
  5  3  1  0  0  0  0
  5  4  1  0  0  0  0
  6  7  1  0  0  0  0
  7  8  1  0  0  0  0
  8  9  1  0  0  0  0
 10  9  1  0  0  0  0
 11 12  2  0  0  0  0
 12 17  1  0  0  0  0
 12 16  1  0  0  0  0
 14 10  1  0  0  0  0
 14 13  2  0  0  0  0
 15 13  1  0  0  0  0
 16 14  1  0  0  0  0
 17 15  1  0  0  0  0
 19 18  1  0  0  0  0
 19 21  1  0  0  0  0
 20 22  1  0  0  0  0
 21 24  1  0  0  0  0
 22 24  1  0  0  0  0
 23 20  1  0  0  0  0
 23 21  1  0  0  0  0
 25  1  1  0  0  0  0
 26 39  1  1  0  0  0
 26 27  1  0  0  0  0
 27 28  2  0  0  0  0
 29 31  1  0  0  0  0
 30 32  2  0  0  0  0
 31 26  1  0  0  0  0
 31 30  1  0  0  0  0
 32 28  1  0  0  0  0
 32 25  1  0  0  0  0
 33 30  1  0  0  0  0
 34 36  2  0  0  0  0
 35 38  1  0  0  0  0
 36 35  1  0  0  0  0
 37 34  1  0  0  0  0
 37 39  1  0  0  0  0
 39 38  2  0  0  0  0
 40 34  1  0  0  0  0
 41 42  1  0  0  0  0
 41 40  1  0  0  0  0
M  END
>  <MODEL>
2

>  <REMARK>
 VINA RESULT:      -6.8      1.818      2.339
  Name = 
  15 active torsions:
  status: ('A' for Active; 'I' for Inactive)
    1  A    between atoms: C_2  and  C_39
    2  A    between atoms: N_3  and  C_8
    3  A    between atoms: N_3  and  C_16
    4  A    between atoms: C_5  and  O_32
    5  A    between atoms: N_6  and  C_15
    6  A    between atoms: N_6  and  C_17
    7  A    between atoms: C_8  and  C_21
    8  A    between atoms: C_10  and  C_13
    9  A    between atoms: C_10  and  C_34
   10  A    between atoms: C_13  and  C_16
   11  A    between atoms: C_17  and  C_26
   12  A    between atoms: C_26  and  C_30
   13  A    between atoms: C_26  and  C_37
   14  A    between atoms: C_27  and  C_30
   15  A    between atoms: O_31  and  O_32
                            x       y       z     vdW  Elec       q    Type
                         _______ _______ _______ _____ _____    ______ ____

>  <TORSDO>
F 15

$$$$
=
 OpenBabel10232410243D

 42 47  0  0  1  0  0  0  0  0999 V2000
  184.2940  178.6490  141.2510 C   0  0  2  0  0  3  0  0  0  0  0  0
  185.2450  179.5030  143.3340 N   0  0  0  0  0  2  0  0  0  0  0  0
  182.9060  178.7700  143.2330 N   0  0  0  0  0  2  0  0  0  0  0  0
  184.2410  178.5380  143.7730 C   0  0  2  0  0  0  0  0  0  0  0  0
  184.0200  179.4090  142.5620 C   0  0  1  0  0  0  0  0  0  0  0  0
  184.0400  178.9500  145.2180 C   0  0  0  0  0  2  0  0  0  0  0  0
  184.8220  178.0260  146.1340 C   0  0  0  0  0  2  0  0  0  0  0  0
  185.8380  178.8330  146.9150 C   0  0  0  0  0  2  0  0  0  0  0  0
  187.0290  178.0270  147.1400 N   0  0  0  0  0  2  0  0  0  0  0  0
  187.5790  177.6940  145.8360 C   0  0  0  0  0  2  0  0  0  0  0  0
  191.9510  177.9870  143.9050 O   0  0  0  0  0  0  0  0  0  0  0  0
  191.2280  177.6610  144.8820 C   0  0  0  0  0  0  0  0  0  0  0  0
  189.5660  176.9150  146.9670 N   0  0  0  0  0  0  0  0  0  0  0  0
  189.0590  177.5260  145.9340 C   0  0  0  0  0  0  0  0  0  0  0  0
  191.0090  176.7940  147.2040 C   0  0  0  0  0  2  0  0  0  0  0  0
  189.8780  178.0080  144.9100 O   0  0  0  0  0  0  0  0  0  0  0  0
  191.7690  176.9070  145.9630 N   0  0  0  0  0  2  0  0  0  0  0  0
  185.7480  178.7730  140.8080 C   0  0  0  0  0  2  0  0  0  0  0  0
  185.8160  178.8220  139.3590 N   0  0  0  0  0  2  0  0  0  0  0  0
  189.1190  178.9010  138.6790 N   0  0  0  0  0  2  0  0  0  0  0  0
  186.9280  177.9830  138.9510 C   0  0  0  0  0  3  0  0  0  0  0  0
  188.3860  179.1680  137.5090 N   0  0  0  0  0  2  0  0  0  0  0  0
  188.1710  178.4210  139.6790 C   0  0  0  0  0  2  0  0  0  0  0  0
  187.2580  178.2550  137.5110 C   0  0  0  0  0  2  0  0  0  0  0  0
  183.4180  179.1860  140.1180 C   0  0  0  0  0  2  0  0  0  0  0  0
  181.6010  175.8720  137.9220 C   0  0  1  0  0  3  0  0  0  0  0  0
  182.3680  175.6770  139.2010 C   0  0  0  0  0  3  0  0  0  0  0  0
  182.8910  176.7120  139.8620 C   0  0  0  0  0  3  0  0  0  0  0  0
  179.9860  177.4900  136.8890 C   0  0  0  0  0  1  0  0  0  0  0  0
  181.7860  178.3470  138.4260 C   0  0  0  0  0  0  0  0  0  0  0  0
  181.1020  177.2470  137.7910 N   0  0  0  0  0  0  0  0  0  0  0  0
  182.6780  178.0950  139.4070 C   0  0  0  0  0  0  0  0  0  0  0  0
  181.4760  179.7570  138.0160 C   0  0  0  0  0  1  0  0  0  0  0  0
  183.3140  173.6700  135.3260 C   0  0  0  0  0  0  0  0  0  0  0  0
  184.3270  175.9080  135.2900 C   0  0  0  0  0  2  0  0  0  0  0  0
  184.3840  174.4270  135.0440 C   0  0  0  0  0  3  0  0  0  0  0  0
  182.0850  174.3020  135.9170 C   0  0  0  0  0  2  0  0  0  0  0  0
  183.5010  176.2110  136.4460 N   0  0  0  0  0  0  0  0  0  0  0  0
  182.4550  175.5080  136.7430 C   0  0  0  0  0  0  0  0  0  0  0  0
  183.3160  172.2980  135.0760 O   0  0  0  0  0  0  0  0  0  0  0  0
  184.0920  171.4590  135.7790 O   0  0  0  0  0  0  0  0  0  0  0  0
  183.2520  170.9560  136.7740 C   0  0  0  0  0  1  0  0  0  0  0  0
  1 25  1  6  0  0  0
  2  4  1  0  0  0  0
  3  4  1  0  0  0  0
  4  6  1  1  0  0  0
  5  1  1  6  0  0  0
  5  3  1  0  0  0  0
  5  2  1  0  0  0  0
  5  4  1  0  0  0  0
  6  7  1  0  0  0  0
  7  8  1  0  0  0  0
  8  9  1  0  0  0  0
 10 14  1  0  0  0  0
 10  9  1  0  0  0  0
 11 12  2  0  0  0  0
 12 16  1  0  0  0  0
 12 17  1  0  0  0  0
 13 15  1  0  0  0  0
 14 13  2  0  0  0  0
 16 14  1  0  0  0  0
 17 15  1  0  0  0  0
 18  1  1  0  0  0  0
 19 18  1  0  0  0  0
 20 23  1  0  0  0  0
 21 19  1  0  0  0  0
 21 23  1  0  0  0  0
 22 24  1  0  0  0  0
 22 20  1  0  0  0  0
 24 21  1  0  0  0  0
 26 39  1  6  0  0  0
 26 27  1  0  0  0  0
 27 28  2  0  0  0  0
 29 31  1  0  0  0  0
 30 32  2  0  0  0  0
 31 26  1  0  0  0  0
 31 30  1  0  0  0  0
 32 28  1  0  0  0  0
 32 25  1  0  0  0  0
 33 30  1  0  0  0  0
 34 37  1  0  0  0  0
 35 38  1  0  0  0  0
 36 35  1  0  0  0  0
 36 34  2  0  0  0  0
 37 39  1  0  0  0  0
 38 39  2  0  0  0  0
 40 34  1  0  0  0  0
 40 41  1  0  0  0  0
 41 42  1  0  0  0  0
M  END
>  <MODEL>
3

>  <REMARK>
 VINA RESULT:      -6.7      2.516      3.281
  Name = 
  15 active torsions:
  status: ('A' for Active; 'I' for Inactive)
    1  A    between atoms: C_2  and  C_39
    2  A    between atoms: N_3  and  C_8
    3  A    between atoms: N_3  and  C_16
    4  A    between atoms: C_5  and  O_32
    5  A    between atoms: N_6  and  C_15
    6  A    between atoms: N_6  and  C_17
    7  A    between atoms: C_8  and  C_21
    8  A    between atoms: C_10  and  C_13
    9  A    between atoms: C_10  and  C_34
   10  A    between atoms: C_13  and  C_16
   11  A    between atoms: C_17  and  C_26
   12  A    between atoms: C_26  and  C_30
   13  A    between atoms: C_26  and  C_37
   14  A    between atoms: C_27  and  C_30
   15  A    between atoms: O_31  and  O_32
                            x       y       z     vdW  Elec       q    Type
                         _______ _______ _______ _____ _____    ______ ____

>  <TORSDO>
F 15

$$$$
=
 OpenBabel10232410243D

 42 47  0  0  1  0  0  0  0  0999 V2000
  184.4010  178.2070  139.5830 C   0  0  2  0  0  3  0  0  0  0  0  0
  185.4830  179.4490  141.3870 N   0  0  0  0  0  2  0  0  0  0  0  0
  183.4700  178.1140  141.8170 N   0  0  0  0  0  2  0  0  0  0  0  0
  184.8980  178.2900  142.0560 C   0  0  2  0  0  0  0  0  0  0  0  0
  184.2010  178.9710  140.9050 C   0  0  1  0  0  0  0  0  0  0  0  0
  184.8910  178.7500  143.5010 C   0  0  0  0  0  2  0  0  0  0  0  0
  185.8800  177.9320  144.3110 C   0  0  0  0  0  2  0  0  0  0  0  0
  185.7500  178.2910  145.7760 C   0  0  0  0  0  2  0  0  0  0  0  0
  187.0670  178.5810  146.3240 N   0  0  0  0  0  2  0  0  0  0  0  0
  187.6030  177.3330  146.8450 C   0  0  0  0  0  2  0  0  0  0  0  0
  192.1790  176.4050  147.9090 O   0  0  0  0  0  0  0  0  0  0  0  0
  191.3220  176.7410  147.0500 C   0  0  0  0  0  0  0  0  0  0  0  0
  189.3900  177.5320  145.2320 N   0  0  0  0  0  0  0  0  0  0  0  0
  189.0290  177.1800  146.4330 C   0  0  0  0  0  0  0  0  0  0  0  0
  190.7420  177.3230  144.7010 C   0  0  0  0  0  2  0  0  0  0  0  0
  189.9620  176.6780  147.3460 O   0  0  0  0  0  0  0  0  0  0  0  0
  191.7290  177.2200  145.7710 N   0  0  0  0  0  2  0  0  0  0  0  0
  185.7090  178.5810  138.8950 C   0  0  0  0  0  2  0  0  0  0  0  0
  185.9480  177.6880  137.7760 N   0  0  0  0  0  2  0  0  0  0  0  0
  188.9540  179.0320  138.5090 N   0  0  0  0  0  2  0  0  0  0  0  0
  187.3730  177.4110  137.7420 C   0  0  0  0  0  3  0  0  0  0  0  0
  188.5930  179.3650  137.1910 N   0  0  0  0  0  2  0  0  0  0  0  0
  188.0230  178.0060  138.9630 C   0  0  0  0  0  2  0  0  0  0  0  0
  188.0030  178.1720  136.6110 C   0  0  0  0  0  2  0  0  0  0  0  0
  183.2630  178.5060  138.6050 C   0  0  0  0  0  2  0  0  0  0  0  0
  181.3820  174.6920  137.5930 C   0  0  1  0  0  3  0  0  0  0  0  0
  181.4520  175.2160  139.0010 C   0  0  0  0  0  3  0  0  0  0  0  0
  182.0110  176.3960  139.2760 C   0  0  0  0  0  3  0  0  0  0  0  0
  181.0220  175.5310  135.2560 C   0  0  0  0  0  1  0  0  0  0  0  0
  182.2480  176.9740  136.9160 C   0  0  0  0  0  0  0  0  0  0  0  0
  181.5180  175.7690  136.6040 N   0  0  0  0  0  0  0  0  0  0  0  0
  182.5190  177.2680  138.2040 C   0  0  0  0  0  0  0  0  0  0  0  0
  182.6650  177.9020  135.8140 C   0  0  0  0  0  1  0  0  0  0  0  0
  184.7040  173.1650  136.5200 C   0  0  0  0  0  0  0  0  0  0  0  0
  183.0890  171.3680  136.9650 C   0  0  0  0  0  2  0  0  0  0  0  0
  184.3200  171.9030  136.2880 C   0  0  0  0  0  3  0  0  0  0  0  0
  183.8860  174.0430  137.4250 C   0  0  0  0  0  2  0  0  0  0  0  0
  182.0980  172.4150  137.1400 N   0  0  0  0  0  0  0  0  0  0  0  0
  182.4320  173.6430  137.3760 C   0  0  0  0  0  0  0  0  0  0  0  0
  185.8610  173.6850  135.9390 O   0  0  0  0  0  0  0  0  0  0  0  0
  185.8720  174.1230  134.6700 O   0  0  0  0  0  0  0  0  0  0  0  0
  186.1170  175.4930  134.7760 C   0  0  0  0  0  1  0  0  0  0  0  0
  1 25  1  6  0  0  0
  2  4  1  0  0  0  0
  3  4  1  0  0  0  0
  4  6  1  1  0  0  0
  5  1  1  6  0  0  0
  5  2  1  0  0  0  0
  5  3  1  0  0  0  0
  5  4  1  0  0  0  0
  6  7  1  0  0  0  0
  7  8  1  0  0  0  0
  8  9  1  0  0  0  0
  9 10  1  0  0  0  0
 12 16  1  0  0  0  0
 12 11  2  0  0  0  0
 13 14  2  0  0  0  0
 14 10  1  0  0  0  0
 14 16  1  0  0  0  0
 15 13  1  0  0  0  0
 15 17  1  0  0  0  0
 17 12  1  0  0  0  0
 18  1  1  0  0  0  0
 19 18  1  0  0  0  0
 20 23  1  0  0  0  0
 21 19  1  0  0  0  0
 21 23  1  0  0  0  0
 22 20  1  0  0  0  0
 24 22  1  0  0  0  0
 24 21  1  0  0  0  0
 26 39  1  6  0  0  0
 26 27  1  0  0  0  0
 27 28  2  0  0  0  0
 29 31  1  0  0  0  0
 30 32  2  0  0  0  0
 31 30  1  0  0  0  0
 31 26  1  0  0  0  0
 32 25  1  0  0  0  0
 32 28  1  0  0  0  0
 33 30  1  0  0  0  0
 34 37  1  0  0  0  0
 35 38  1  0  0  0  0
 36 34  2  0  0  0  0
 36 35  1  0  0  0  0
 38 39  2  0  0  0  0
 39 37  1  0  0  0  0
 40 34  1  0  0  0  0
 41 42  1  0  0  0  0
 41 40  1  0  0  0  0
M  END
>  <MODEL>
4

>  <REMARK>
 VINA RESULT:      -6.5      2.419      3.212
  Name = 
  15 active torsions:
  status: ('A' for Active; 'I' for Inactive)
    1  A    between atoms: C_2  and  C_39
    2  A    between atoms: N_3  and  C_8
    3  A    between atoms: N_3  and  C_16
    4  A    between atoms: C_5  and  O_32
    5  A    between atoms: N_6  and  C_15
    6  A    between atoms: N_6  and  C_17
    7  A    between atoms: C_8  and  C_21
    8  A    between atoms: C_10  and  C_13
    9  A    between atoms: C_10  and  C_34
   10  A    between atoms: C_13  and  C_16
   11  A    between atoms: C_17  and  C_26
   12  A    between atoms: C_26  and  C_30
   13  A    between atoms: C_26  and  C_37
   14  A    between atoms: C_27  and  C_30
   15  A    between atoms: O_31  and  O_32
                            x       y       z     vdW  Elec       q    Type
                         _______ _______ _______ _____ _____    ______ ____

>  <TORSDO>
F 15

$$$$
=
 OpenBabel10232410243D

 42 47  0  0  1  0  0  0  0  0999 V2000
  190.8250  176.2260  138.4130 C   0  0  2  0  0  3  0  0  0  0  0  0
  192.0050  177.3690  140.2220 N   0  0  0  0  0  2  0  0  0  0  0  0
  189.5530  177.2760  140.1860 N   0  0  0  0  0  2  0  0  0  0  0  0
  190.7860  176.8710  140.8530 C   0  0  2  0  0  0  0  0  0  0  0  0
  190.7870  177.3790  139.4330 C   0  0  1  0  0  0  0  0  0  0  0  0
  190.7260  177.7230  142.1060 C   0  0  0  0  0  2  0  0  0  0  0  0
  190.9290  176.8550  143.3340 C   0  0  0  0  0  2  0  0  0  0  0  0
  189.5850  176.3700  143.8360 C   0  0  0  0  0  2  0  0  0  0  0  0
  188.6510  177.4840  143.8790 N   0  0  0  0  0  2  0  0  0  0  0  0
  188.3980  177.7840  145.2800 C   0  0  0  0  0  2  0  0  0  0  0  0
  183.9860  178.4700  143.5490 O   0  0  0  0  0  0  0  0  0  0  0  0
  184.7530  178.4190  144.5450 C   0  0  0  0  0  0  0  0  0  0  0  0
  186.5130  178.3470  146.6810 N   0  0  0  0  0  0  0  0  0  0  0  0
  186.9430  178.0400  145.4910 C   0  0  0  0  0  0  0  0  0  0  0  0
  185.0920  178.5140  147.0080 C   0  0  0  0  0  2  0  0  0  0  0  0
  186.0640  177.9650  144.4060 O   0  0  0  0  0  0  0  0  0  0  0  0
  184.3050  178.8510  145.8270 N   0  0  0  0  0  2  0  0  0  0  0  0
  192.1840  175.5340  138.3800 C   0  0  0  0  0  2  0  0  0  0  0  0
  192.0730  174.2710  137.6720 N   0  0  0  0  0  2  0  0  0  0  0  0
  194.9820  175.6620  136.6820 N   0  0  0  0  0  2  0  0  0  0  0  0
  193.3940  173.9420  137.1670 C   0  0  0  0  0  3  0  0  0  0  0  0
  194.1100  175.5520  135.5840 N   0  0  0  0  0  2  0  0  0  0  0  0
  194.4030  174.8830  137.7700 C   0  0  0  0  0  2  0  0  0  0  0  0
  193.4620  174.2580  135.7010 C   0  0  0  0  0  2  0  0  0  0  0  0
  190.5340  176.7390  137.0020 C   0  0  0  0  0  2  0  0  0  0  0  0
  186.3310  177.9170  136.7590 C   0  0  1  0  0  3  0  0  0  0  0  0
  187.4600  178.8720  136.4860 C   0  0  0  0  0  3  0  0  0  0  0  0
  188.7340  178.4760  136.5450 C   0  0  0  0  0  3  0  0  0  0  0  0
  185.7190  175.5170  136.3620 C   0  0  0  0  0  1  0  0  0  0  0  0
  188.1230  176.1270  136.7970 C   0  0  0  0  0  0  0  0  0  0  0  0
  186.7490  176.5180  136.5940 N   0  0  0  0  0  0  0  0  0  0  0  0
  189.0860  177.0720  136.8070 C   0  0  0  0  0  0  0  0  0  0  0  0
  188.4700  174.6770  136.9580 C   0  0  0  0  0  1  0  0  0  0  0  0
  183.8470  178.9250  139.4670 C   0  0  0  0  0  0  0  0  0  0  0  0
  186.0730  178.6440  140.4690 C   0  0  0  0  0  2  0  0  0  0  0  0
  184.6920  179.2390  140.4580 C   0  0  0  0  0  3  0  0  0  0  0  0
  184.2960  178.0100  138.3610 C   0  0  0  0  0  2  0  0  0  0  0  0
  186.5670  178.4570  139.1160 N   0  0  0  0  0  0  0  0  0  0  0  0
  185.7810  178.1430  138.1370 C   0  0  0  0  0  0  0  0  0  0  0  0
  182.5460  179.4270  139.4430 O   0  0  0  0  0  0  0  0  0  0  0  0
  181.6740  179.1600  140.4280 O   0  0  0  0  0  0  0  0  0  0  0  0
  181.3260  177.8230  140.2330 C   0  0  0  0  0  1  0  0  0  0  0  0
  1 25  1  6  0  0  0
  2  4  1  0  0  0  0
  3  4  1  0  0  0  0
  4  6  1  1  0  0  0
  5  1  1  6  0  0  0
  5  3  1  0  0  0  0
  5  2  1  0  0  0  0
  5  4  1  0  0  0  0
  6  7  1  0  0  0  0
  7  8  1  0  0  0  0
  8  9  1  0  0  0  0
  9 10  1  0  0  0  0
 10 14  1  0  0  0  0
 11 12  2  0  0  0  0
 12 17  1  0  0  0  0
 13 15  1  0  0  0  0
 14 13  2  0  0  0  0
 16 12  1  0  0  0  0
 16 14  1  0  0  0  0
 17 15  1  0  0  0  0
 18  1  1  0  0  0  0
 19 18  1  0  0  0  0
 20 23  1  0  0  0  0
 21 19  1  0  0  0  0
 21 23  1  0  0  0  0
 22 24  1  0  0  0  0
 22 20  1  0  0  0  0
 24 21  1  0  0  0  0
 26 39  1  1  0  0  0
 27 28  2  0  0  0  0
 27 26  1  0  0  0  0
 28 32  1  0  0  0  0
 29 31  1  0  0  0  0
 30 32  2  0  0  0  0
 30 33  1  0  0  0  0
 31 26  1  0  0  0  0
 31 30  1  0  0  0  0
 32 25  1  0  0  0  0
 34 36  2  0  0  0  0
 36 35  1  0  0  0  0
 37 34  1  0  0  0  0
 38 35  1  0  0  0  0
 39 37  1  0  0  0  0
 39 38  2  0  0  0  0
 40 34  1  0  0  0  0
 40 41  1  0  0  0  0
 42 41  1  0  0  0  0
M  END
>  <MODEL>
5

>  <REMARK>
 VINA RESULT:      -6.5      3.763      6.899
  Name = 
  15 active torsions:
  status: ('A' for Active; 'I' for Inactive)
    1  A    between atoms: C_2  and  C_39
    2  A    between atoms: N_3  and  C_8
    3  A    between atoms: N_3  and  C_16
    4  A    between atoms: C_5  and  O_32
    5  A    between atoms: N_6  and  C_15
    6  A    between atoms: N_6  and  C_17
    7  A    between atoms: C_8  and  C_21
    8  A    between atoms: C_10  and  C_13
    9  A    between atoms: C_10  and  C_34
   10  A    between atoms: C_13  and  C_16
   11  A    between atoms: C_17  and  C_26
   12  A    between atoms: C_26  and  C_30
   13  A    between atoms: C_26  and  C_37
   14  A    between atoms: C_27  and  C_30
   15  A    between atoms: O_31  and  O_32
                            x       y       z     vdW  Elec       q    Type
                         _______ _______ _______ _____ _____    ______ ____

>  <TORSDO>
F 15

$$$$
=
 OpenBabel10232410243D

 42 47  0  0  1  0  0  0  0  0999 V2000
  188.9750  177.6930  139.7420 C   0  0  2  0  0  3  0  0  0  0  0  0
  187.9670  178.9170  141.6010 N   0  0  0  0  0  2  0  0  0  0  0  0
  186.7000  178.5020  139.5410 N   0  0  0  0  0  2  0  0  0  0  0  0
  186.8380  178.2400  140.9700 C   0  0  2  0  0  0  0  0  0  0  0  0
  187.9800  178.7940  140.1560 C   0  0  1  0  0  0  0  0  0  0  0  0
  185.6680  179.0320  141.5190 C   0  0  0  0  0  2  0  0  0  0  0  0
  184.5810  178.0870  141.9990 C   0  0  0  0  0  2  0  0  0  0  0  0
  183.9570  178.6380  143.2640 C   0  0  0  0  0  2  0  0  0  0  0  0
  184.9480  179.4070  144.0010 N   0  0  0  0  0  2  0  0  0  0  0  0
  184.8110  179.0580  145.4060 C   0  0  0  0  0  2  0  0  0  0  0  0
  187.8590  178.1060  148.9740 O   0  0  0  0  0  0  0  0  0  0  0  0
  187.5890  178.0430  147.7470 C   0  0  0  0  0  0  0  0  0  0  0  0
  186.9500  177.9930  145.0530 N   0  0  0  0  0  0  0  0  0  0  0  0
  186.0790  178.4500  145.9060 C   0  0  0  0  0  0  0  0  0  0  0  0
  188.1750  177.2880  145.4490 C   0  0  0  0  0  2  0  0  0  0  0  0
  186.3230  178.3970  147.2820 O   0  0  0  0  0  0  0  0  0  0  0  0
  188.5790  177.6360  146.8070 N   0  0  0  0  0  2  0  0  0  0  0  0
  190.1040  177.5300  140.7530 C   0  0  0  0  0  2  0  0  0  0  0  0
  190.1270  176.1650  141.2460 N   0  0  0  0  0  2  0  0  0  0  0  0
  191.6120  177.0230  144.1510 N   0  0  0  0  0  2  0  0  0  0  0  0
  189.9070  176.2210  142.6800 C   0  0  0  0  0  3  0  0  0  0  0  0
  191.8900  175.6770  143.8550 N   0  0  0  0  0  2  0  0  0  0  0  0
  190.5640  177.4570  143.2350 C   0  0  0  0  0  2  0  0  0  0  0  0
  190.6570  175.1040  143.3460 C   0  0  0  0  0  2  0  0  0  0  0  0
  189.6090  178.0150  138.3880 C   0  0  0  0  0  2  0  0  0  0  0  0
  187.7100  175.4730  135.3810 C   0  0  1  0  0  3  0  0  0  0  0  0
  187.3420  176.9180  135.5740 C   0  0  0  0  0  3  0  0  0  0  0  0
  187.9570  177.6760  136.4850 C   0  0  0  0  0  3  0  0  0  0  0  0
  189.7390  173.9990  135.3980 C   0  0  0  0  0  1  0  0  0  0  0  0
  189.6160  175.9560  136.9780 C   0  0  0  0  0  0  0  0  0  0  0  0
  189.0520  175.1800  135.9000 N   0  0  0  0  0  0  0  0  0  0  0  0
  189.0720  177.1500  137.2890 C   0  0  0  0  0  0  0  0  0  0  0  0
  190.8180  175.4460  137.7160 C   0  0  0  0  0  1  0  0  0  0  0  0
  184.3590  174.3970  136.8420 C   0  0  0  0  0  0  0  0  0  0  0  0
  186.0910  172.7860  137.5060 C   0  0  0  0  0  2  0  0  0  0  0  0
  184.7710  173.4710  137.7190 C   0  0  0  0  0  3  0  0  0  0  0  0
  185.2340  174.7660  135.6760 C   0  0  0  0  0  2  0  0  0  0  0  0
  187.0490  173.6860  136.8890 N   0  0  0  0  0  0  0  0  0  0  0  0
  186.6890  174.5860  136.0300 C   0  0  0  0  0  0  0  0  0  0  0  0
  183.1230  175.0270  136.9860 O   0  0  0  0  0  0  0  0  0  0  0  0
  182.4840  175.0540  138.1660 O   0  0  0  0  0  0  0  0  0  0  0  0
  182.3860  176.4110  138.4790 C   0  0  0  0  0  1  0  0  0  0  0  0
  1 25  1  6  0  0  0
  1 18  1  0  0  0  0
  3  5  1  0  0  0  0
  3  4  1  0  0  0  0
  4  6  1  6  0  0  0
  4  2  1  0  0  0  0
  5  1  1  6  0  0  0
  5  4  1  0  0  0  0
  5  2  1  0  0  0  0
  6  7  1  0  0  0  0
  7  8  1  0  0  0  0
  8  9  1  0  0  0  0
  9 10  1  0  0  0  0
 10 14  1  0  0  0  0
 12 11  2  0  0  0  0
 13 15  1  0  0  0  0
 13 14  2  0  0  0  0
 14 16  1  0  0  0  0
 15 17  1  0  0  0  0
 16 12  1  0  0  0  0
 17 12  1  0  0  0  0
 18 19  1  0  0  0  0
 19 21  1  0  0  0  0
 21 23  1  0  0  0  0
 21 24  1  0  0  0  0
 22 20  1  0  0  0  0
 23 20  1  0  0  0  0
 24 22  1  0  0  0  0
 26 27  1  0  0  0  0
 26 31  1  0  0  0  0
 26 39  1  1  0  0  0
 27 28  2  0  0  0  0
 28 32  1  0  0  0  0
 29 31  1  0  0  0  0
 30 32  2  0  0  0  0
 30 33  1  0  0  0  0
 31 30  1  0  0  0  0
 32 25  1  0  0  0  0
 34 40  1  0  0  0  0
 34 36  2  0  0  0  0
 35 36  1  0  0  0  0
 37 39  1  0  0  0  0
 37 34  1  0  0  0  0
 38 35  1  0  0  0  0
 39 38  2  0  0  0  0
 40 41  1  0  0  0  0
 41 42  1  0  0  0  0
M  END
>  <MODEL>
6

>  <REMARK>
 VINA RESULT:      -6.3      2.596      5.369
  Name = 
  15 active torsions:
  status: ('A' for Active; 'I' for Inactive)
    1  A    between atoms: C_2  and  C_39
    2  A    between atoms: N_3  and  C_8
    3  A    between atoms: N_3  and  C_16
    4  A    between atoms: C_5  and  O_32
    5  A    between atoms: N_6  and  C_15
    6  A    between atoms: N_6  and  C_17
    7  A    between atoms: C_8  and  C_21
    8  A    between atoms: C_10  and  C_13
    9  A    between atoms: C_10  and  C_34
   10  A    between atoms: C_13  and  C_16
   11  A    between atoms: C_17  and  C_26
   12  A    between atoms: C_26  and  C_30
   13  A    between atoms: C_26  and  C_37
   14  A    between atoms: C_27  and  C_30
   15  A    between atoms: O_31  and  O_32
                            x       y       z     vdW  Elec       q    Type
                         _______ _______ _______ _____ _____    ______ ____

>  <TORSDO>
F 15

$$$$
=
 OpenBabel10232410243D

 42 47  0  0  1  0  0  0  0  0999 V2000
  184.9280  178.7780  141.5400 C   0  0  2  0  0  3  0  0  0  0  0  0
  185.3010  179.8300  143.7140 N   0  0  0  0  0  2  0  0  0  0  0  0
  183.3490  178.3920  143.3370 N   0  0  0  0  0  2  0  0  0  0  0  0
  184.6150  178.5830  144.0370 C   0  0  2  0  0  0  0  0  0  0  0  0
  184.2710  179.3730  142.8000 C   0  0  1  0  0  0  0  0  0  0  0  0
  184.1220  178.8670  145.4430 C   0  0  0  0  0  2  0  0  0  0  0  0
  184.9130  178.0470  146.4460 C   0  0  0  0  0  2  0  0  0  0  0  0
  185.8930  178.9460  147.1700 C   0  0  0  0  0  2  0  0  0  0  0  0
  187.1360  178.2250  147.3990 N   0  0  0  0  0  2  0  0  0  0  0  0
  187.5350  177.6360  146.1310 C   0  0  0  0  0  2  0  0  0  0  0  0
  191.6440  176.9040  143.7840 O   0  0  0  0  0  0  0  0  0  0  0  0
  191.0310  176.9700  144.8800 C   0  0  0  0  0  0  0  0  0  0  0  0
  189.6010  177.0750  147.2490 N   0  0  0  0  0  0  0  0  0  0  0  0
  189.0040  177.3730  146.1310 C   0  0  0  0  0  0  0  0  0  0  0  0
  191.0540  176.9020  147.3680 C   0  0  0  0  0  2  0  0  0  0  0  0
  189.7160  177.4310  144.9290 O   0  0  0  0  0  0  0  0  0  0  0  0
  191.6590  176.5490  146.0880 N   0  0  0  0  0  2  0  0  0  0  0  0
  186.4190  179.0860  141.4700 C   0  0  0  0  0  2  0  0  0  0  0  0
  187.0800  178.1170  140.6150 N   0  0  0  0  0  2  0  0  0  0  0  0
  189.9910  177.3860  139.0740 N   0  0  0  0  0  2  0  0  0  0  0  0
  188.4970  178.4350  140.6180 C   0  0  0  0  0  3  0  0  0  0  0  0
  189.7890  176.5050  140.1510 N   0  0  0  0  0  2  0  0  0  0  0  0
  189.0040  178.4530  139.2010 C   0  0  0  0  0  2  0  0  0  0  0  0
  189.2620  177.3030  141.2430 C   0  0  0  0  0  2  0  0  0  0  0  0
  184.2800  179.3390  140.2730 C   0  0  0  0  0  2  0  0  0  0  0  0
  181.6310  176.4190  138.3850 C   0  0  1  0  0  3  0  0  0  0  0  0
  182.5620  176.0630  139.5110 C   0  0  0  0  0  3  0  0  0  0  0  0
  183.3420  176.9830  140.0840 C   0  0  0  0  0  3  0  0  0  0  0  0
  180.1350  178.2970  137.6620 C   0  0  0  0  0  1  0  0  0  0  0  0
  182.2780  178.8180  138.8770 C   0  0  0  0  0  0  0  0  0  0  0  0
  181.3350  177.8570  138.3560 N   0  0  0  0  0  0  0  0  0  0  0  0
  183.2710  178.3980  139.6870 C   0  0  0  0  0  0  0  0  0  0  0  0
  182.1240  180.2720  138.5420 C   0  0  0  0  0  1  0  0  0  0  0  0
  184.0690  176.2340  135.4610 C   0  0  0  0  0  0  0  0  0  0  0  0
  181.9630  175.1340  134.8350 C   0  0  0  0  0  2  0  0  0  0  0  0
  183.2360  175.8520  134.4830 C   0  0  0  0  0  3  0  0  0  0  0  0
  183.7070  175.9750  136.8970 C   0  0  0  0  0  2  0  0  0  0  0  0
  181.4350  175.6060  136.1030 N   0  0  0  0  0  0  0  0  0  0  0  0
  182.2090  175.9740  137.0730 C   0  0  0  0  0  0  0  0  0  0  0  0
  185.2770  176.8690  135.1710 O   0  0  0  0  0  0  0  0  0  0  0  0
  186.3630  176.1720  134.8040 O   0  0  0  0  0  0  0  0  0  0  0  0
  187.3370  176.5230  135.7410 C   0  0  0  0  0  1  0  0  0  0  0  0
  1 25  1  6  0  0  0
  2  4  1  0  0  0  0
  3  4  1  0  0  0  0
  4  6  1  1  0  0  0
  5  1  1  6  0  0  0
  5  3  1  0  0  0  0
  5  2  1  0  0  0  0
  5  4  1  0  0  0  0
  6  7  1  0  0  0  0
  7  8  1  0  0  0  0
  8  9  1  0  0  0  0
 10  9  1  0  0  0  0
 11 12  2  0  0  0  0
 12 16  1  0  0  0  0
 12 17  1  0  0  0  0
 13 15  1  0  0  0  0
 14 10  1  0  0  0  0
 14 13  2  0  0  0  0
 16 14  1  0  0  0  0
 17 15  1  0  0  0  0
 18  1  1  0  0  0  0
 19 21  1  0  0  0  0
 19 18  1  0  0  0  0
 20 23  1  0  0  0  0
 20 22  1  0  0  0  0
 21 24  1  0  0  0  0
 22 24  1  0  0  0  0
 23 21  1  0  0  0  0
 26 39  1  6  0  0  0
 26 27  1  0  0  0  0
 27 28  2  0  0  0  0
 29 31  1  0  0  0  0
 30 32  2  0  0  0  0
 31 26  1  0  0  0  0
 31 30  1  0  0  0  0
 32 28  1  0  0  0  0
 32 25  1  0  0  0  0
 33 30  1  0  0  0  0
 34 37  1  0  0  0  0
 35 38  1  0  0  0  0
 36 35  1  0  0  0  0
 36 34  2  0  0  0  0
 37 39  1  0  0  0  0
 38 39  2  0  0  0  0
 40 34  1  0  0  0  0
 41 40  1  0  0  0  0
 41 42  1  0  0  0  0
M  END
>  <MODEL>
7

>  <REMARK>
 VINA RESULT:      -6.2      1.696      2.146
  Name = 
  15 active torsions:
  status: ('A' for Active; 'I' for Inactive)
    1  A    between atoms: C_2  and  C_39
    2  A    between atoms: N_3  and  C_8
    3  A    between atoms: N_3  and  C_16
    4  A    between atoms: C_5  and  O_32
    5  A    between atoms: N_6  and  C_15
    6  A    between atoms: N_6  and  C_17
    7  A    between atoms: C_8  and  C_21
    8  A    between atoms: C_10  and  C_13
    9  A    between atoms: C_10  and  C_34
   10  A    between atoms: C_13  and  C_16
   11  A    between atoms: C_17  and  C_26
   12  A    between atoms: C_26  and  C_30
   13  A    between atoms: C_26  and  C_37
   14  A    between atoms: C_27  and  C_30
   15  A    between atoms: O_31  and  O_32
                            x       y       z     vdW  Elec       q    Type
                         _______ _______ _______ _____ _____    ______ ____

>  <TORSDO>
F 15

$$$$
=
 OpenBabel10232410243D

 42 47  0  0  1  0  0  0  0  0999 V2000
  190.6300  176.2690  138.2980 C   0  0  2  0  0  3  0  0  0  0  0  0
  191.6520  176.9750  140.4030 N   0  0  0  0  0  2  0  0  0  0  0  0
  189.2650  177.3540  139.9790 N   0  0  0  0  0  2  0  0  0  0  0  0
  190.2740  176.6560  140.7670 C   0  0  2  0  0  0  0  0  0  0  0  0
  190.6110  177.2970  139.4450 C   0  0  1  0  0  0  0  0  0  0  0  0
  190.1420  177.3710  142.0980 C   0  0  0  0  0  2  0  0  0  0  0  0
  189.6950  176.3940  143.1700 C   0  0  0  0  0  2  0  0  0  0  0  0
  188.1830  176.4050  143.2620 C   0  0  0  0  0  2  0  0  0  0  0  0
  187.7350  177.7010  143.7500 N   0  0  0  0  0  2  0  0  0  0  0  0
  186.8850  177.4580  144.9050 C   0  0  0  0  0  2  0  0  0  0  0  0
  190.9270  176.9620  147.4230 O   0  0  0  0  0  0  0  0  0  0  0  0
  189.7240  177.3290  147.3840 C   0  0  0  0  0  0  0  0  0  0  0  0
  187.0570  178.0570  147.2390 N   0  0  0  0  0  0  0  0  0  0  0  0
  187.6660  177.6490  146.1620 C   0  0  0  0  0  0  0  0  0  0  0  0
  187.7550  178.3730  148.4900 C   0  0  0  0  0  2  0  0  0  0  0  0
  189.0360  177.3710  146.1730 O   0  0  0  0  0  0  0  0  0  0  0  0
  189.0350  177.6790  148.5810 N   0  0  0  0  0  2  0  0  0  0  0  0
  191.9920  175.5990  138.1520 C   0  0  0  0  0  2  0  0  0  0  0  0
  192.8500  176.4120  137.3080 N   0  0  0  0  0  2  0  0  0  0  0  0
  196.0010  175.4610  136.5710 N   0  0  0  0  0  2  0  0  0  0  0  0
  193.6130  175.5060  136.4690 C   0  0  0  0  0  3  0  0  0  0  0  0
  195.6210  176.5300  135.7400 N   0  0  0  0  0  2  0  0  0  0  0  0
  194.7960  174.9900  137.2450 C   0  0  0  0  0  2  0  0  0  0  0  0
  194.2460  176.2770  135.3470 C   0  0  0  0  0  2  0  0  0  0  0  0
  190.2980  176.9370  136.9630 C   0  0  0  0  0  2  0  0  0  0  0  0
  186.0660  178.0300  136.9090 C   0  0  1  0  0  3  0  0  0  0  0  0
  187.1650  179.0200  136.6370 C   0  0  0  0  0  3  0  0  0  0  0  0
  188.4480  178.6510  136.6370 C   0  0  0  0  0  3  0  0  0  0  0  0
  185.4910  175.6340  136.4380 C   0  0  0  0  0  1  0  0  0  0  0  0
  187.8950  176.2800  136.8150 C   0  0  0  0  0  0  0  0  0  0  0  0
  186.5070  176.6490  136.6750 N   0  0  0  0  0  0  0  0  0  0  0  0
  188.8370  177.2450  136.8310 C   0  0  0  0  0  0  0  0  0  0  0  0
  188.2770  174.8330  136.9070 C   0  0  0  0  0  1  0  0  0  0  0  0
  183.6020  178.7010  139.7380 C   0  0  0  0  0  0  0  0  0  0  0  0
  185.8930  178.7510  140.6250 C   0  0  0  0  0  2  0  0  0  0  0  0
  184.4430  179.1440  140.6830 C   0  0  0  0  0  3  0  0  0  0  0  0
  184.1210  177.8490  138.6140 C   0  0  0  0  0  2  0  0  0  0  0  0
  186.3400  178.6230  139.2500 N   0  0  0  0  0  0  0  0  0  0  0  0
  185.5590  178.1890  138.3130 C   0  0  0  0  0  0  0  0  0  0  0  0
  182.2430  179.0130  139.7800 O   0  0  0  0  0  0  0  0  0  0  0  0
  181.7350  180.0270  139.0630 O   0  0  0  0  0  0  0  0  0  0  0  0
  180.7070  179.4470  138.3170 C   0  0  0  0  0  1  0  0  0  0  0  0
  1 25  1  6  0  0  0
  2  4  1  0  0  0  0
  3  4  1  0  0  0  0
  4  6  1  1  0  0  0
  5  1  1  6  0  0  0
  5  3  1  0  0  0  0
  5  2  1  0  0  0  0
  5  4  1  0  0  0  0
  6  7  1  0  0  0  0
  7  8  1  0  0  0  0
  8  9  1  0  0  0  0
  9 10  1  0  0  0  0
 10 14  1  0  0  0  0
 12 11  2  0  0  0  0
 12 17  1  0  0  0  0
 13 15  1  0  0  0  0
 14 16  1  0  0  0  0
 14 13  2  0  0  0  0
 15 17  1  0  0  0  0
 16 12  1  0  0  0  0
 18  1  1  0  0  0  0
 19 18  1  0  0  0  0
 20 23  1  0  0  0  0
 21 23  1  0  0  0  0
 21 19  1  0  0  0  0
 22 20  1  0  0  0  0
 24 22  1  0  0  0  0
 24 21  1  0  0  0  0
 26 39  1  1  0  0  0
 27 26  1  0  0  0  0
 28 27  2  0  0  0  0
 28 32  1  0  0  0  0
 29 31  1  0  0  0  0
 30 32  2  0  0  0  0
 30 33  1  0  0  0  0
 31 30  1  0  0  0  0
 31 26  1  0  0  0  0
 32 25  1  0  0  0  0
 34 40  1  0  0  0  0
 34 36  2  0  0  0  0
 35 36  1  0  0  0  0
 37 34  1  0  0  0  0
 38 35  1  0  0  0  0
 39 37  1  0  0  0  0
 39 38  2  0  0  0  0
 41 40  1  0  0  0  0
 42 41  1  0  0  0  0
M  END
>  <MODEL>
8

>  <REMARK>
 VINA RESULT:      -6.2      3.520      6.433
  Name = 
  15 active torsions:
  status: ('A' for Active; 'I' for Inactive)
    1  A    between atoms: C_2  and  C_39
    2  A    between atoms: N_3  and  C_8
    3  A    between atoms: N_3  and  C_16
    4  A    between atoms: C_5  and  O_32
    5  A    between atoms: N_6  and  C_15
    6  A    between atoms: N_6  and  C_17
    7  A    between atoms: C_8  and  C_21
    8  A    between atoms: C_10  and  C_13
    9  A    between atoms: C_10  and  C_34
   10  A    between atoms: C_13  and  C_16
   11  A    between atoms: C_17  and  C_26
   12  A    between atoms: C_26  and  C_30
   13  A    between atoms: C_26  and  C_37
   14  A    between atoms: C_27  and  C_30
   15  A    between atoms: O_31  and  O_32
                            x       y       z     vdW  Elec       q    Type
                         _______ _______ _______ _____ _____    ______ ____

>  <TORSDO>
F 15

$$$$
=
 OpenBabel10232410243D

 42 47  0  0  1  0  0  0  0  0999 V2000
  188.5170  178.4060  139.6040 C   0  0  2  0  0  3  0  0  0  0  0  0
  188.5530  177.1910  141.7240 N   0  0  0  0  0  2  0  0  0  0  0  0
  190.6170  177.5400  140.4430 N   0  0  0  0  0  2  0  0  0  0  0  0
  189.8650  177.8310  141.6590 C   0  0  2  0  0  0  0  0  0  0  0  0
  189.1900  177.2900  140.4240 C   0  0  1  0  0  0  0  0  0  0  0  0
  190.6440  177.0210  142.6770 C   0  0  0  0  0  2  0  0  0  0  0  0
  191.3210  177.9480  143.6700 C   0  0  0  0  0  2  0  0  0  0  0  0
  190.3760  178.2320  144.8190 C   0  0  0  0  0  2  0  0  0  0  0  0
  189.5980  177.0390  145.1140 N   0  0  0  0  0  2  0  0  0  0  0  0
  188.8490  177.3010  146.3340 C   0  0  0  0  0  2  0  0  0  0  0  0
  185.3970  178.0950  143.1110 O   0  0  0  0  0  0  0  0  0  0  0  0
  185.7640  178.0960  144.3150 C   0  0  0  0  0  0  0  0  0  0  0  0
  186.6610  178.1280  146.9340 N   0  0  0  0  0  0  0  0  0  0  0  0
  187.4430  177.6730  145.9980 C   0  0  0  0  0  0  0  0  0  0  0  0
  185.2380  178.4210  146.7250 C   0  0  0  0  0  2  0  0  0  0  0  0
  186.9900  177.5450  144.6810 O   0  0  0  0  0  0  0  0  0  0  0  0
  184.9450  178.6860  145.3210 N   0  0  0  0  0  2  0  0  0  0  0  0
  187.1140  178.0180  139.1490 C   0  0  0  0  0  2  0  0  0  0  0  0
  186.1290  178.7770  139.8960 N   0  0  0  0  0  2  0  0  0  0  0  0
  182.8580  178.0160  139.5780 N   0  0  0  0  0  2  0  0  0  0  0  0
  184.9810  178.9670  139.0280 C   0  0  0  0  0  3  0  0  0  0  0  0
  183.6400  177.0150  138.9730 N   0  0  0  0  0  2  0  0  0  0  0  0
  183.7440  179.1360  139.8700 C   0  0  0  0  0  2  0  0  0  0  0  0
  184.7120  177.6990  138.2710 C   0  0  0  0  0  2  0  0  0  0  0  0
  189.3350  178.7310  138.3530 C   0  0  0  0  0  2  0  0  0  0  0  0
  187.5230  176.5760  135.0100 C   0  0  1  0  0  3  0  0  0  0  0  0
  187.0810  177.9520  135.4260 C   0  0  0  0  0  3  0  0  0  0  0  0
  187.6710  178.5950  136.4360 C   0  0  0  0  0  3  0  0  0  0  0  0
  189.6280  175.2310  134.7830 C   0  0  0  0  0  1  0  0  0  0  0  0
  189.4280  176.9150  136.6450 C   0  0  0  0  0  0  0  0  0  0  0  0
  188.8880  176.2820  135.4660 N   0  0  0  0  0  0  0  0  0  0  0  0
  188.8260  178.0150  137.1400 C   0  0  0  0  0  0  0  0  0  0  0  0
  190.6680  176.3650  137.2850 C   0  0  0  0  0  1  0  0  0  0  0  0
  184.2070  174.7870  135.5830 C   0  0  0  0  0  0  0  0  0  0  0  0
  185.8750  173.9390  137.1760 C   0  0  0  0  0  2  0  0  0  0  0  0
  184.4530  174.2060  136.7650 C   0  0  0  0  0  3  0  0  0  0  0  0
  185.3500  175.1970  134.6970 C   0  0  0  0  0  2  0  0  0  0  0  0
  186.7630  174.9690  136.6670 N   0  0  0  0  0  0  0  0  0  0  0  0
  186.5620  175.5450  135.5250 C   0  0  0  0  0  0  0  0  0  0  0  0
  182.9000  175.0170  135.1510 O   0  0  0  0  0  0  0  0  0  0  0  0
  182.0280  175.7130  135.8970 O   0  0  0  0  0  0  0  0  0  0  0  0
  182.1510  177.0270  135.4420 C   0  0  0  0  0  1  0  0  0  0  0  0
  1 25  1  6  0  0  0
  3  4  1  0  0  0  0
  4  2  1  0  0  0  0
  4  6  1  6  0  0  0
  5  1  1  6  0  0  0
  5  3  1  0  0  0  0
  5  4  1  0  0  0  0
  5  2  1  0  0  0  0
  6  7  1  0  0  0  0
  7  8  1  0  0  0  0
  8  9  1  0  0  0  0
  9 10  1  0  0  0  0
 11 12  2  0  0  0  0
 12 16  1  0  0  0  0
 12 17  1  0  0  0  0
 14 10  1  0  0  0  0
 14 13  2  0  0  0  0
 15 13  1  0  0  0  0
 16 14  1  0  0  0  0
 17 15  1  0  0  0  0
 18  1  1  0  0  0  0
 18 19  1  0  0  0  0
 20 23  1  0  0  0  0
 21 23  1  0  0  0  0
 21 19  1  0  0  0  0
 22 20  1  0  0  0  0
 24 22  1  0  0  0  0
 24 21  1  0  0  0  0
 26 27  1  0  0  0  0
 26 31  1  0  0  0  0
 26 39  1  1  0  0  0
 27 28  2  0  0  0  0
 28 32  1  0  0  0  0
 29 31  1  0  0  0  0
 30 32  2  0  0  0  0
 30 33  1  0  0  0  0
 31 30  1  0  0  0  0
 32 25  1  0  0  0  0
 34 36  2  0  0  0  0
 36 35  1  0  0  0  0
 37 39  1  0  0  0  0
 37 34  1  0  0  0  0
 38 35  1  0  0  0  0
 39 38  2  0  0  0  0
 40 34  1  0  0  0  0
 40 41  1  0  0  0  0
 42 41  1  0  0  0  0
M  END
>  <MODEL>
9

>  <REMARK>
 VINA RESULT:      -6.2      2.576      5.890
  Name = 
  15 active torsions:
  status: ('A' for Active; 'I' for Inactive)
    1  A    between atoms: C_2  and  C_39
    2  A    between atoms: N_3  and  C_8
    3  A    between atoms: N_3  and  C_16
    4  A    between atoms: C_5  and  O_32
    5  A    between atoms: N_6  and  C_15
    6  A    between atoms: N_6  and  C_17
    7  A    between atoms: C_8  and  C_21
    8  A    between atoms: C_10  and  C_13
    9  A    between atoms: C_10  and  C_34
   10  A    between atoms: C_13  and  C_16
   11  A    between atoms: C_17  and  C_26
   12  A    between atoms: C_26  and  C_30
   13  A    between atoms: C_26  and  C_37
   14  A    between atoms: C_27  and  C_30
   15  A    between atoms: O_31  and  O_32
                            x       y       z     vdW  Elec       q    Type
                         _______ _______ _______ _____ _____    ______ ____

>  <TORSDO>
F 15

$$$$
