=
 OpenBabel10232410213D

 29 31  0  0  1  0  0  0  0  0999 V2000
  189.1570  177.0020  144.3330 C   0  0  1  0  0  3  0  0  0  0  0  0
  187.9300  177.8330  144.7650 C   0  0  1  0  0  3  0  0  0  0  0  0
  184.4800  178.5890  143.6620 C   0  0  0  0  0  1  0  0  0  0  0  0
  185.4990  178.1230  144.5850 N   0  0  0  0  0  0  0  0  0  0  0  0
  186.6400  177.3660  144.0770 C   0  0  0  0  0  2  0  0  0  0  0  0
  187.7530  177.8160  146.2670 C   0  0  0  0  0  3  0  0  0  0  0  0
  184.3570  178.8490  146.5020 O   0  0  0  0  0  0  0  0  0  0  0  0
  185.4150  178.3920  145.9910 C   0  0  0  0  0  0  0  0  0  0  0  0
  186.5850  178.1190  146.8370 C   0  0  0  0  0  3  0  0  0  0  0  0
  189.1500  176.5650  142.8610 C   0  0  2  0  0  3  0  0  0  0  0  0
  189.8630  175.3760  142.6790 O   0  0  0  0  0  1  0  0  0  0  0  0
  189.7000  177.6640  141.9620 C   0  0  0  0  0  2  0  0  0  0  0  0
  188.8030  177.8980  140.7900 C   0  0  0  0  0  0  0  0  0  0  0  0
  187.6950  178.3870  140.9510 O   0  0  0  0  0  0  0  0  0  0  0  0
  189.2860  177.5660  139.4180 C   0  0  0  0  0  2  0  0  0  0  0  0
  189.1690  178.7810  138.5140 C   0  0  0  0  0  2  0  0  0  0  0  0
  187.3730  175.9760  136.1560 O   0  0  0  0  0  0  0  0  0  0  0  0
  189.4040  177.1380  136.6480 C   0  0  0  0  0  2  0  0  0  0  0  0
  187.1540  178.1310  137.1800 C   0  0  0  0  0  0  0  0  0  0  0  0
  188.5950  176.3860  135.5930 C   0  0  0  0  0  2  0  0  0  0  0  0
  186.4180  178.8250  137.8660 O   0  0  0  0  0  0  0  0  0  0  0  0
  186.5590  177.1210  136.2370 C   0  0  0  0  0  2  0  0  0  0  0  0
  188.6440  178.3780  137.1440 C   0  0  1  0  0  3  0  0  0  0  0  0
  190.4840  177.6880  144.6720 C   0  0  0  0  0  2  0  0  0  0  0  0
  191.5380  176.7020  145.1550 C   0  0  0  0  0  2  0  0  0  0  0  0
  192.8870  175.8400  148.5470 C   0  0  0  0  0  1  0  0  0  0  0  0
  192.2040  175.5790  147.2210 C   0  0  2  0  0  3  0  0  0  0  0  0
  191.7260  176.8540  146.6490 C   0  0  2  0  0  3  0  0  0  0  0  0
  190.8570  175.9710  147.3130 O   0  0  0  0  0  0  0  0  0  0  0  0
  1 24  1  6  0  0  0
  2  1  1  1  0  0  0
  2  6  1  0  0  0  0
  3  4  1  0  0  0  0
  4  8  1  0  0  0  0
  5  4  1  0  0  0  0
  5  2  1  0  0  0  0
  6  9  2  0  0  0  0
  8  7  2  0  0  0  0
  8  9  1  0  0  0  0
 10 11  1  1  0  0  0
 10  1  1  0  0  0  0
 12 10  1  0  0  0  0
 13 14  2  0  0  0  0
 13 12  1  0  0  0  0
 15 13  1  0  0  0  0
 16 15  1  0  0  0  0
 17 22  1  0  0  0  0
 18 23  1  0  0  0  0
 19 21  2  0  0  0  0
 20 17  1  0  0  0  0
 20 18  1  0  0  0  0
 22 19  1  0  0  0  0
 23 19  1  0  0  0  0
 23 16  1  1  0  0  0
 24 25  1  0  0  0  0
 27 29  1  0  0  0  0
 27 26  1  1  0  0  0
 28 25  1  6  0  0  0
 28 27  1  0  0  0  0
 28 29  1  0  0  0  0
M  END
>  <MODEL>
1

>  <REMARK>
 VINA RESULT:      -8.0      0.000      0.000
  Name = 
  10 active torsions:
  status: ('A' for Active; 'I' for Inactive)
    1  A    between atoms: C_2  and  C_9
    2  A    between atoms: C_8  and  C_14
    3  A    between atoms: C_8  and  C_16
    4  A    between atoms: C_9  and  C_11
    5  A    between atoms: C_9  and  C_28
    6  A    between atoms: C_11  and  C_25
    7  A    between atoms: C_14  and  C_29
    8  A    between atoms: C_16  and  C_25
    9  A    between atoms: C_20  and  C_27
   10  A    between atoms: C_27  and  C_28
                            x       y       z     vdW  Elec       q    Type
                         _______ _______ _______ _____ _____    ______ ____

>  <TORSDO>
F 10

$$$$
=
 OpenBabel10232410213D

 29 31  0  0  1  0  0  0  0  0999 V2000
  189.2330  176.9400  144.1300 C   0  0  1  0  0  3  0  0  0  0  0  0
  188.0730  177.7670  144.7240 C   0  0  1  0  0  3  0  0  0  0  0  0
  184.5300  178.5880  144.0420 C   0  0  0  0  0  1  0  0  0  0  0  0
  185.6410  178.0830  144.8290 N   0  0  0  0  0  0  0  0  0  0  0  0
  186.7080  177.3330  144.1710 C   0  0  0  0  0  2  0  0  0  0  0  0
  188.0660  177.7010  146.2350 C   0  0  0  0  0  3  0  0  0  0  0  0
  184.7310  178.7540  146.8840 O   0  0  0  0  0  0  0  0  0  0  0  0
  185.7180  178.3050  146.2440 C   0  0  0  0  0  0  0  0  0  0  0  0
  186.9730  177.9950  146.9430 C   0  0  0  0  0  3  0  0  0  0  0  0
  189.1460  176.7100  142.6140 C   0  0  2  0  0  3  0  0  0  0  0  0
  190.1030  175.7840  142.1840 O   0  0  0  0  0  1  0  0  0  0  0  0
  189.2880  178.0220  141.8530 C   0  0  0  0  0  2  0  0  0  0  0  0
  188.2160  178.1620  140.8220 C   0  0  0  0  0  0  0  0  0  0  0  0
  187.1960  178.7860  141.0760 O   0  0  0  0  0  0  0  0  0  0  0  0
  188.4160  177.5690  139.4680 C   0  0  0  0  0  2  0  0  0  0  0  0
  189.7610  177.9940  138.9050 C   0  0  0  0  0  2  0  0  0  0  0  0
  192.9520  176.4360  136.8940 O   0  0  0  0  0  0  0  0  0  0  0  0
  190.5700  176.6030  136.9950 C   0  0  0  0  0  2  0  0  0  0  0  0
  191.9990  176.8820  139.0470 C   0  0  0  0  0  0  0  0  0  0  0  0
  191.7660  175.7790  136.5230 C   0  0  0  0  0  2  0  0  0  0  0  0
  192.2260  177.3760  140.1410 O   0  0  0  0  0  0  0  0  0  0  0  0
  193.1150  176.2310  138.2760 C   0  0  0  0  0  2  0  0  0  0  0  0
  190.5870  176.7740  138.5210 C   0  0  1  0  0  3  0  0  0  0  0  0
  190.6090  177.5040  144.4990 C   0  0  0  0  0  2  0  0  0  0  0  0
  191.5250  176.4470  145.1010 C   0  0  0  0  0  2  0  0  0  0  0  0
  192.9100  175.8950  148.5430 C   0  0  0  0  0  1  0  0  0  0  0  0
  192.1850  175.5250  147.2660 C   0  0  2  0  0  3  0  0  0  0  0  0
  191.7540  176.7520  146.5650 C   0  0  2  0  0  3  0  0  0  0  0  0
  190.8600  175.9890  147.3380 O   0  0  0  0  0  0  0  0  0  0  0  0
  1 24  1  6  0  0  0
  2  1  1  6  0  0  0
  2  6  1  0  0  0  0
  3  4  1  0  0  0  0
  4  8  1  0  0  0  0
  5  2  1  0  0  0  0
  5  4  1  0  0  0  0
  6  9  2  0  0  0  0
  8  7  2  0  0  0  0
  8  9  1  0  0  0  0
 10 11  1  6  0  0  0
 10  1  1  0  0  0  0
 12 10  1  0  0  0  0
 13 14  2  0  0  0  0
 13 12  1  0  0  0  0
 15 13  1  0  0  0  0
 16 15  1  0  0  0  0
 17 22  1  0  0  0  0
 18 23  1  0  0  0  0
 19 21  2  0  0  0  0
 20 17  1  0  0  0  0
 20 18  1  0  0  0  0
 22 19  1  0  0  0  0
 23 16  1  6  0  0  0
 23 19  1  0  0  0  0
 24 25  1  0  0  0  0
 27 29  1  0  0  0  0
 27 26  1  1  0  0  0
 28 25  1  6  0  0  0
 28 27  1  0  0  0  0
 28 29  1  0  0  0  0
M  END
>  <MODEL>
2

>  <REMARK>
 VINA RESULT:      -7.9      1.760      2.460
  Name = 
  10 active torsions:
  status: ('A' for Active; 'I' for Inactive)
    1  A    between atoms: C_2  and  C_9
    2  A    between atoms: C_8  and  C_14
    3  A    between atoms: C_8  and  C_16
    4  A    between atoms: C_9  and  C_11
    5  A    between atoms: C_9  and  C_28
    6  A    between atoms: C_11  and  C_25
    7  A    between atoms: C_14  and  C_29
    8  A    between atoms: C_16  and  C_25
    9  A    between atoms: C_20  and  C_27
   10  A    between atoms: C_27  and  C_28
                            x       y       z     vdW  Elec       q    Type
                         _______ _______ _______ _____ _____    ______ ____

>  <TORSDO>
F 10

$$$$
=
 OpenBabel10232410213D

 29 31  0  0  1  0  0  0  0  0999 V2000
  189.2570  176.9530  144.0720 C   0  0  1  0  0  3  0  0  0  0  0  0
  188.0750  177.7760  144.6270 C   0  0  1  0  0  3  0  0  0  0  0  0
  184.5520  178.5790  143.8300 C   0  0  0  0  0  1  0  0  0  0  0  0
  185.6400  178.0810  144.6540 N   0  0  0  0  0  0  0  0  0  0  0  0
  186.7310  177.3350  144.0320 C   0  0  0  0  0  2  0  0  0  0  0  0
  188.0210  177.7140  146.1370 C   0  0  0  0  0  3  0  0  0  0  0  0
  184.6620  178.7530  146.6770 O   0  0  0  0  0  0  0  0  0  0  0  0
  185.6710  178.3070  146.0690 C   0  0  0  0  0  0  0  0  0  0  0  0
  186.9040  178.0040  146.8090 C   0  0  0  0  0  3  0  0  0  0  0  0
  189.2090  176.7010  142.5580 C   0  0  2  0  0  3  0  0  0  0  0  0
  190.1550  175.7470  142.1700 O   0  0  0  0  0  1  0  0  0  0  0  0
  189.4020  177.9960  141.7820 C   0  0  0  0  0  2  0  0  0  0  0  0
  188.3540  178.1520  140.7280 C   0  0  0  0  0  0  0  0  0  0  0  0
  187.4250  178.9280  140.8950 O   0  0  0  0  0  0  0  0  0  0  0  0
  188.4720  177.3830  139.4550 C   0  0  0  0  0  2  0  0  0  0  0  0
  189.2690  178.1780  138.4360 C   0  0  0  0  0  2  0  0  0  0  0  0
  190.5750  174.3940  137.6390 O   0  0  0  0  0  0  0  0  0  0  0  0
  191.1090  176.5010  138.6340 C   0  0  0  0  0  2  0  0  0  0  0  0
  189.4230  176.3100  136.7770 C   0  0  0  0  0  0  0  0  0  0  0  0
  191.6520  175.2230  137.9970 C   0  0  0  0  0  2  0  0  0  0  0  0
  188.4070  176.6730  136.2050 O   0  0  0  0  0  0  0  0  0  0  0  0
  190.0000  174.9520  136.4820 C   0  0  0  0  0  2  0  0  0  0  0  0
  190.2010  177.2610  137.6560 C   0  0  1  0  0  3  0  0  0  0  0  0
  190.6180  177.5350  144.4650 C   0  0  0  0  0  2  0  0  0  0  0  0
  191.5430  176.4890  145.0710 C   0  0  0  0  0  2  0  0  0  0  0  0
  192.8680  175.9160  148.5330 C   0  0  0  0  0  1  0  0  0  0  0  0
  192.1960  175.5440  147.2290 C   0  0  2  0  0  3  0  0  0  0  0  0
  191.7200  176.7650  146.5490 C   0  0  2  0  0  3  0  0  0  0  0  0
  190.8470  175.9390  147.2780 O   0  0  0  0  0  0  0  0  0  0  0  0
  1 24  1  6  0  0  0
  2  1  1  6  0  0  0
  2  6  1  0  0  0  0
  3  4  1  0  0  0  0
  4  8  1  0  0  0  0
  5  2  1  0  0  0  0
  5  4  1  0  0  0  0
  6  9  2  0  0  0  0
  8  7  2  0  0  0  0
  8  9  1  0  0  0  0
 10 11  1  6  0  0  0
 10  1  1  0  0  0  0
 12 10  1  0  0  0  0
 13 14  2  0  0  0  0
 13 12  1  0  0  0  0
 15 13  1  0  0  0  0
 16 15  1  0  0  0  0
 17 20  1  0  0  0  0
 19 23  1  0  0  0  0
 20 18  1  0  0  0  0
 21 19  2  0  0  0  0
 22 19  1  0  0  0  0
 22 17  1  0  0  0  0
 23 16  1  1  0  0  0
 23 18  1  0  0  0  0
 24 25  1  0  0  0  0
 27 29  1  0  0  0  0
 27 26  1  1  0  0  0
 28 25  1  6  0  0  0
 28 27  1  0  0  0  0
 28 29  1  0  0  0  0
M  END
>  <MODEL>
3

>  <REMARK>
 VINA RESULT:      -7.8      1.213      1.687
  Name = 
  10 active torsions:
  status: ('A' for Active; 'I' for Inactive)
    1  A    between atoms: C_2  and  C_9
    2  A    between atoms: C_8  and  C_14
    3  A    between atoms: C_8  and  C_16
    4  A    between atoms: C_9  and  C_11
    5  A    between atoms: C_9  and  C_28
    6  A    between atoms: C_11  and  C_25
    7  A    between atoms: C_14  and  C_29
    8  A    between atoms: C_16  and  C_25
    9  A    between atoms: C_20  and  C_27
   10  A    between atoms: C_27  and  C_28
                            x       y       z     vdW  Elec       q    Type
                         _______ _______ _______ _____ _____    ______ ____

>  <TORSDO>
F 10

$$$$
=
 OpenBabel10232410213D

 29 31  0  0  1  0  0  0  0  0999 V2000
  187.8240  177.8450  143.2900 C   0  0  1  0  0  3  0  0  0  0  0  0
  187.8800  177.4460  144.7790 C   0  0  1  0  0  3  0  0  0  0  0  0
  190.3380  177.0150  147.5130 C   0  0  0  0  0  1  0  0  0  0  0  0
  189.1550  177.5650  146.8740 N   0  0  0  0  0  0  0  0  0  0  0  0
  189.1900  177.8870  145.4500 C   0  0  0  0  0  2  0  0  0  0  0  0
  186.6950  177.9930  145.5430 C   0  0  0  0  0  3  0  0  0  0  0  0
  187.9330  177.7410  148.8690 O   0  0  0  0  0  0  0  0  0  0  0  0
  187.9470  177.7990  147.6100 C   0  0  0  0  0  0  0  0  0  0  0  0
  186.7170  178.1170  146.8720 C   0  0  0  0  0  3  0  0  0  0  0  0
  188.6000  176.9150  142.3460 C   0  0  2  0  0  3  0  0  0  0  0  0
  188.6670  175.6140  142.8550 O   0  0  0  0  0  1  0  0  0  0  0  0
  189.9960  177.4570  142.0700 C   0  0  0  0  0  2  0  0  0  0  0  0
  190.3420  177.3370  140.6220 C   0  0  0  0  0  0  0  0  0  0  0  0
  191.5100  177.2510  140.2740 O   0  0  0  0  0  0  0  0  0  0  0  0
  189.2500  177.2810  139.6070 C   0  0  0  0  0  2  0  0  0  0  0  0
  189.1490  178.6070  138.8750 C   0  0  0  0  0  2  0  0  0  0  0  0
  188.2470  176.3420  135.6020 O   0  0  0  0  0  0  0  0  0  0  0  0
  189.9720  177.0670  137.0890 C   0  0  0  0  0  2  0  0  0  0  0  0
  187.8920  178.4320  136.7180 C   0  0  0  0  0  0  0  0  0  0  0  0
  189.6350  176.5470  135.6940 C   0  0  0  0  0  2  0  0  0  0  0  0
  187.0310  179.2090  137.1030 O   0  0  0  0  0  0  0  0  0  0  0  0
  187.6550  177.6120  135.4790 C   0  0  0  0  0  2  0  0  0  0  0  0
  189.2530  178.3950  137.3710 C   0  0  1  0  0  3  0  0  0  0  0  0
  186.3910  178.0330  142.7830 C   0  0  0  0  0  2  0  0  0  0  0  0
  186.3390  178.7650  141.4500 C   0  0  0  0  0  2  0  0  0  0  0  0
  183.3040  178.1180  139.3430 C   0  0  0  0  0  1  0  0  0  0  0  0
  184.7510  178.4700  139.6160 C   0  0  2  0  0  3  0  0  0  0  0  0
  184.8980  178.9210  141.0140 C   0  0  2  0  0  3  0  0  0  0  0  0
  184.8380  179.8340  139.9460 O   0  0  0  0  0  0  0  0  0  0  0  0
  1 24  1  6  0  0  0
  2  1  1  6  0  0  0
  2  5  1  0  0  0  0
  2  6  1  0  0  0  0
  4  3  1  0  0  0  0
  4  8  1  0  0  0  0
  5  4  1  0  0  0  0
  6  9  2  0  0  0  0
  8  7  2  0  0  0  0
  9  8  1  0  0  0  0
 10 11  1  1  0  0  0
 10  1  1  0  0  0  0
 12 10  1  0  0  0  0
 13 12  1  0  0  0  0
 14 13  2  0  0  0  0
 15 13  1  0  0  0  0
 16 15  1  0  0  0  0
 17 20  1  0  0  0  0
 18 23  1  0  0  0  0
 19 21  2  0  0  0  0
 19 23  1  0  0  0  0
 20 18  1  0  0  0  0
 22 17  1  0  0  0  0
 22 19  1  0  0  0  0
 23 16  1  1  0  0  0
 25 24  1  0  0  0  0
 27 26  1  1  0  0  0
 27 29  1  0  0  0  0
 27 28  1  0  0  0  0
 28 25  1  6  0  0  0
 29 28  1  0  0  0  0
M  END
>  <MODEL>
4

>  <REMARK>
 VINA RESULT:      -7.8      2.065      4.911
  Name = 
  10 active torsions:
  status: ('A' for Active; 'I' for Inactive)
    1  A    between atoms: C_2  and  C_9
    2  A    between atoms: C_8  and  C_14
    3  A    between atoms: C_8  and  C_16
    4  A    between atoms: C_9  and  C_11
    5  A    between atoms: C_9  and  C_28
    6  A    between atoms: C_11  and  C_25
    7  A    between atoms: C_14  and  C_29
    8  A    between atoms: C_16  and  C_25
    9  A    between atoms: C_20  and  C_27
   10  A    between atoms: C_27  and  C_28
                            x       y       z     vdW  Elec       q    Type
                         _______ _______ _______ _____ _____    ______ ____

>  <TORSDO>
F 10

$$$$
=
 OpenBabel10232410213D

 29 31  0  0  1  0  0  0  0  0999 V2000
  188.4550  176.9010  144.2630 C   0  0  1  0  0  3  0  0  0  0  0  0
  186.9550  177.2140  144.0780 C   0  0  1  0  0  3  0  0  0  0  0  0
  184.1200  178.7200  145.9190 C   0  0  0  0  0  1  0  0  0  0  0  0
  185.0530  178.5790  144.8140 N   0  0  0  0  0  0  0  0  0  0  0  0
  186.4500  178.2540  145.0880 C   0  0  0  0  0  2  0  0  0  0  0  0
  186.6560  177.6720  142.6680 C   0  0  0  0  0  3  0  0  0  0  0  0
  183.5020  179.2360  143.1800 O   0  0  0  0  0  0  0  0  0  0  0  0
  184.6330  178.7500  143.4540 C   0  0  0  0  0  0  0  0  0  0  0  0
  185.5470  178.3540  142.3740 C   0  0  0  0  0  3  0  0  0  0  0  0
  189.2080  176.5730  142.9660 C   0  0  2  0  0  3  0  0  0  0  0  0
  189.9830  175.4180  143.1060 O   0  0  0  0  0  1  0  0  0  0  0  0
  190.0680  177.7480  142.5220 C   0  0  0  0  0  2  0  0  0  0  0  0
  190.8000  177.4300  141.2590 C   0  0  0  0  0  0  0  0  0  0  0  0
  192.0210  177.3600  141.2570 O   0  0  0  0  0  0  0  0  0  0  0  0
  190.0300  177.1590  140.0100 C   0  0  0  0  0  2  0  0  0  0  0  0
  189.0020  178.2540  139.7820 C   0  0  0  0  0  2  0  0  0  0  0  0
  188.0080  176.7090  136.1380 O   0  0  0  0  0  0  0  0  0  0  0  0
  189.7620  177.6040  137.4940 C   0  0  0  0  0  2  0  0  0  0  0  0
  187.3490  178.1890  137.9040 C   0  0  0  0  0  0  0  0  0  0  0  0
  189.2500  177.3640  136.0750 C   0  0  0  0  0  2  0  0  0  0  0  0
  186.4260  178.4870  138.6460 O   0  0  0  0  0  0  0  0  0  0  0  0
  187.0580  177.6750  136.5210 C   0  0  0  0  0  2  0  0  0  0  0  0
  188.7810  178.4750  138.2930 C   0  0  1  0  0  3  0  0  0  0  0  0
  189.1940  177.9960  145.0390 C   0  0  0  0  0  2  0  0  0  0  0  0
  189.5390  177.5680  146.4580 C   0  0  0  0  0  2  0  0  0  0  0  0
  192.4070  175.5570  147.8010 C   0  0  0  0  0  1  0  0  0  0  0  0
  191.6310  176.8150  147.4750 C   0  0  2  0  0  3  0  0  0  0  0  0
  190.6380  176.5280  146.4200 C   0  0  2  0  0  3  0  0  0  0  0  0
  191.8600  177.1610  146.1310 O   0  0  0  0  0  0  0  0  0  0  0  0
  1 24  1  6  0  0  0
  2  1  1  6  0  0  0
  2  5  1  0  0  0  0
  4  5  1  0  0  0  0
  4  3  1  0  0  0  0
  6  2  1  0  0  0  0
  7  8  2  0  0  0  0
  8  4  1  0  0  0  0
  9  6  2  0  0  0  0
  9  8  1  0  0  0  0
 10 11  1  1  0  0  0
 10  1  1  0  0  0  0
 12 10  1  0  0  0  0
 13 12  1  0  0  0  0
 14 13  2  0  0  0  0
 15 13  1  0  0  0  0
 16 15  1  0  0  0  0
 17 22  1  0  0  0  0
 18 23  1  0  0  0  0
 19 23  1  0  0  0  0
 19 21  2  0  0  0  0
 20 17  1  0  0  0  0
 20 18  1  0  0  0  0
 22 19  1  0  0  0  0
 23 16  1  1  0  0  0
 24 25  1  0  0  0  0
 27 26  1  6  0  0  0
 28 25  1  1  0  0  0
 28 27  1  0  0  0  0
 29 28  1  0  0  0  0
 29 27  1  0  0  0  0
M  END
>  <MODEL>
5

>  <REMARK>
 VINA RESULT:      -7.7      1.340      1.994
  Name = 
  10 active torsions:
  status: ('A' for Active; 'I' for Inactive)
    1  A    between atoms: C_2  and  C_9
    2  A    between atoms: C_8  and  C_14
    3  A    between atoms: C_8  and  C_16
    4  A    between atoms: C_9  and  C_11
    5  A    between atoms: C_9  and  C_28
    6  A    between atoms: C_11  and  C_25
    7  A    between atoms: C_14  and  C_29
    8  A    between atoms: C_16  and  C_25
    9  A    between atoms: C_20  and  C_27
   10  A    between atoms: C_27  and  C_28
                            x       y       z     vdW  Elec       q    Type
                         _______ _______ _______ _____ _____    ______ ____

>  <TORSDO>
F 10

$$$$
=
 OpenBabel10232410213D

 29 31  0  0  1  0  0  0  0  0999 V2000
  188.7360  176.9640  143.9180 C   0  0  1  0  0  3  0  0  0  0  0  0
  187.2170  177.2360  143.9260 C   0  0  1  0  0  3  0  0  0  0  0  0
  184.5550  178.4110  146.2120 C   0  0  0  0  0  1  0  0  0  0  0  0
  185.3680  178.4320  145.0090 N   0  0  0  0  0  0  0  0  0  0  0  0
  186.7950  178.1340  145.0970 C   0  0  0  0  0  2  0  0  0  0  0  0
  186.7560  177.8360  142.6170 C   0  0  0  0  0  3  0  0  0  0  0  0
  183.6330  179.2060  143.6300 O   0  0  0  0  0  0  0  0  0  0  0  0
  184.7990  178.7380  143.7280 C   0  0  0  0  0  0  0  0  0  0  0  0
  185.6030  178.5030  142.5210 C   0  0  0  0  0  3  0  0  0  0  0  0
  189.2970  176.4870  142.5700 C   0  0  2  0  0  3  0  0  0  0  0  0
  190.0790  175.3380  142.7220 O   0  0  0  0  0  1  0  0  0  0  0  0
  190.0910  177.5920  141.8870 C   0  0  0  0  0  2  0  0  0  0  0  0
  190.2100  177.3380  140.4200 C   0  0  0  0  0  0  0  0  0  0  0  0
  191.2870  177.0250  139.9350 O   0  0  0  0  0  0  0  0  0  0  0  0
  188.9970  177.4310  139.5570 C   0  0  0  0  0  2  0  0  0  0  0  0
  188.9680  178.7680  138.8370 C   0  0  0  0  0  2  0  0  0  0  0  0
  187.5350  176.3220  135.9010 O   0  0  0  0  0  0  0  0  0  0  0  0
  189.4440  177.4860  136.7470 C   0  0  0  0  0  2  0  0  0  0  0  0
  187.1010  178.2530  137.2510 C   0  0  0  0  0  0  0  0  0  0  0  0
  188.7640  176.8860  135.5180 C   0  0  0  0  0  2  0  0  0  0  0  0
  186.2750  178.7790  137.9810 O   0  0  0  0  0  0  0  0  0  0  0  0
  186.6430  177.3910  136.1070 C   0  0  0  0  0  2  0  0  0  0  0  0
  188.5710  178.5800  137.3800 C   0  0  1  0  0  3  0  0  0  0  0  0
  189.5510  178.1540  144.4360 C   0  0  0  0  0  2  0  0  0  0  0  0
  190.4660  177.7710  145.5900 C   0  0  0  0  0  2  0  0  0  0  0  0
  188.2210  177.5300  148.5850 C   0  0  0  0  0  1  0  0  0  0  0  0
  189.4200  177.9980  147.7870 C   0  0  2  0  0  3  0  0  0  0  0  0
  189.6610  177.0710  146.6630 C   0  0  2  0  0  3  0  0  0  0  0  0
  190.4220  177.0130  147.8440 O   0  0  0  0  0  0  0  0  0  0  0  0
  1 24  1  6  0  0  0
  2  1  1  6  0  0  0
  2  5  1  0  0  0  0
  4  5  1  0  0  0  0
  4  3  1  0  0  0  0
  6  2  1  0  0  0  0
  7  8  2  0  0  0  0
  8  4  1  0  0  0  0
  9  6  2  0  0  0  0
  9  8  1  0  0  0  0
 10 11  1  1  0  0  0
 10  1  1  0  0  0  0
 12 10  1  0  0  0  0
 13 12  1  0  0  0  0
 14 13  2  0  0  0  0
 15 13  1  0  0  0  0
 16 15  1  0  0  0  0
 17 22  1  0  0  0  0
 18 23  1  0  0  0  0
 19 23  1  0  0  0  0
 19 21  2  0  0  0  0
 20 17  1  0  0  0  0
 20 18  1  0  0  0  0
 22 19  1  0  0  0  0
 23 16  1  1  0  0  0
 24 25  1  0  0  0  0
 27 29  1  0  0  0  0
 27 26  1  1  0  0  0
 28 25  1  6  0  0  0
 28 27  1  0  0  0  0
 28 29  1  0  0  0  0
M  END
>  <MODEL>
6

>  <REMARK>
 VINA RESULT:      -7.4      1.496      2.090
  Name = 
  10 active torsions:
  status: ('A' for Active; 'I' for Inactive)
    1  A    between atoms: C_2  and  C_9
    2  A    between atoms: C_8  and  C_14
    3  A    between atoms: C_8  and  C_16
    4  A    between atoms: C_9  and  C_11
    5  A    between atoms: C_9  and  C_28
    6  A    between atoms: C_11  and  C_25
    7  A    between atoms: C_14  and  C_29
    8  A    between atoms: C_16  and  C_25
    9  A    between atoms: C_20  and  C_27
   10  A    between atoms: C_27  and  C_28
                            x       y       z     vdW  Elec       q    Type
                         _______ _______ _______ _____ _____    ______ ____

>  <TORSDO>
F 10

$$$$
=
 OpenBabel10232410213D

 29 31  0  0  1  0  0  0  0  0999 V2000
  184.5390  178.8400  142.1520 C   0  0  1  0  0  3  0  0  0  0  0  0
  183.3980  178.6430  141.1320 C   0  0  1  0  0  3  0  0  0  0  0  0
  181.8950  180.3170  138.1940 C   0  0  0  0  0  1  0  0  0  0  0  0
  182.5270  179.2240  138.9120 N   0  0  0  0  0  0  0  0  0  0  0  0
  183.5810  179.5120  139.8800 C   0  0  0  0  0  2  0  0  0  0  0  0
  183.2530  177.1890  140.7390 C   0  0  0  0  0  3  0  0  0  0  0  0
  181.3920  177.5460  137.7280 O   0  0  0  0  0  0  0  0  0  0  0  0
  182.1370  177.8610  138.6940 C   0  0  0  0  0  0  0  0  0  0  0  0
  182.6250  176.8280  139.6180 C   0  0  0  0  0  3  0  0  0  0  0  0
  184.1310  178.6390  143.6190 C   0  0  2  0  0  3  0  0  0  0  0  0
  182.7750  178.9190  143.8130 O   0  0  0  0  0  1  0  0  0  0  0  0
  184.9930  179.4860  144.5460 C   0  0  0  0  0  2  0  0  0  0  0  0
  185.2910  178.7580  145.8160 C   0  0  0  0  0  0  0  0  0  0  0  0
  184.3910  178.4960  146.6000 O   0  0  0  0  0  0  0  0  0  0  0  0
  186.6870  178.3160  146.1010 C   0  0  0  0  0  2  0  0  0  0  0  0
  187.1060  177.2380  145.1180 C   0  0  0  0  0  2  0  0  0  0  0  0
  191.0900  176.4580  144.7070 O   0  0  0  0  0  0  0  0  0  0  0  0
  189.4510  177.9690  145.5700 C   0  0  0  0  0  2  0  0  0  0  0  0
  188.9540  176.4540  143.6230 C   0  0  0  0  0  0  0  0  0  0  0  0
  190.8850  177.8000  145.0720 C   0  0  0  0  0  2  0  0  0  0  0  0
  188.1890  175.7730  142.9570 O   0  0  0  0  0  0  0  0  0  0  0  0
  190.4390  176.2670  143.4740 C   0  0  0  0  0  2  0  0  0  0  0  0
  188.4400  177.5900  144.4760 C   0  0  1  0  0  3  0  0  0  0  0  0
  185.7730  177.9920  141.8280 C   0  0  0  0  0  2  0  0  0  0  0  0
  186.9250  178.8290  141.2890 C   0  0  0  0  0  2  0  0  0  0  0  0
  189.7780  177.0090  139.6710 C   0  0  0  0  0  1  0  0  0  0  0  0
  189.0960  178.1520  140.3920 C   0  0  2  0  0  3  0  0  0  0  0  0
  187.6350  178.0640  140.1920 C   0  0  2  0  0  3  0  0  0  0  0  0
  188.4290  178.9570  139.4510 O   0  0  0  0  0  0  0  0  0  0  0  0
  1 24  1  6  0  0  0
  1 10  1  0  0  0  0
  2  1  1  1  0  0  0
  3  4  1  0  0  0  0
  4  5  1  0  0  0  0
  5  2  1  0  0  0  0
  6  2  1  0  0  0  0
  7  8  2  0  0  0  0
  8  4  1  0  0  0  0
  8  9  1  0  0  0  0
  9  6  2  0  0  0  0
 10 11  1  6  0  0  0
 10 12  1  0  0  0  0
 12 13  1  0  0  0  0
 13 15  1  0  0  0  0
 13 14  2  0  0  0  0
 16 15  1  0  0  0  0
 17 20  1  0  0  0  0
 19 23  1  0  0  0  0
 20 18  1  0  0  0  0
 21 19  2  0  0  0  0
 22 19  1  0  0  0  0
 22 17  1  0  0  0  0
 23 16  1  1  0  0  0
 23 18  1  0  0  0  0
 25 24  1  0  0  0  0
 27 26  1  6  0  0  0
 28 27  1  0  0  0  0
 28 25  1  1  0  0  0
 29 28  1  0  0  0  0
 29 27  1  0  0  0  0
M  END
>  <MODEL>
7

>  <REMARK>
 VINA RESULT:      -7.3      2.843      7.411
  Name = 
  10 active torsions:
  status: ('A' for Active; 'I' for Inactive)
    1  A    between atoms: C_2  and  C_9
    2  A    between atoms: C_8  and  C_14
    3  A    between atoms: C_8  and  C_16
    4  A    between atoms: C_9  and  C_11
    5  A    between atoms: C_9  and  C_28
    6  A    between atoms: C_11  and  C_25
    7  A    between atoms: C_14  and  C_29
    8  A    between atoms: C_16  and  C_25
    9  A    between atoms: C_20  and  C_27
   10  A    between atoms: C_27  and  C_28
                            x       y       z     vdW  Elec       q    Type
                         _______ _______ _______ _____ _____    ______ ____

>  <TORSDO>
F 10

$$$$
=
 OpenBabel10232410213D

 29 31  0  0  1  0  0  0  0  0999 V2000
  187.8520  177.7200  144.8790 C   0  0  1  0  0  3  0  0  0  0  0  0
  188.9550  176.9430  145.6290 C   0  0  1  0  0  3  0  0  0  0  0  0
  192.2680  175.4130  145.0160 C   0  0  0  0  0  1  0  0  0  0  0  0
  191.3230  176.2990  145.6720 N   0  0  0  0  0  0  0  0  0  0  0  0
  190.2950  176.9700  144.8810 C   0  0  0  0  0  2  0  0  0  0  0  0
  189.1360  177.4620  147.0380 C   0  0  0  0  0  3  0  0  0  0  0  0
  192.3600  176.1500  147.7720 O   0  0  0  0  0  0  0  0  0  0  0  0
  191.3740  176.5310  147.0870 C   0  0  0  0  0  0  0  0  0  0  0  0
  190.2530  177.2300  147.7310 C   0  0  0  0  0  3  0  0  0  0  0  0
  187.5320  177.1860  143.4760 C   0  0  2  0  0  3  0  0  0  0  0  0
  187.9060  175.8450  143.3430 O   0  0  0  0  0  1  0  0  0  0  0  0
  188.1960  178.0390  142.4030 C   0  0  0  0  0  2  0  0  0  0  0  0
  187.2260  178.3940  141.3240 C   0  0  0  0  0  0  0  0  0  0  0  0
  187.6290  178.7880  140.2390 O   0  0  0  0  0  0  0  0  0  0  0  0
  185.7630  178.2280  141.5650 C   0  0  0  0  0  2  0  0  0  0  0  0
  184.9810  179.2510  140.7620 C   0  0  0  0  0  2  0  0  0  0  0  0
  181.2420  178.1330  139.5670 O   0  0  0  0  0  0  0  0  0  0  0  0
  183.3560  177.3890  140.4000 C   0  0  0  0  0  2  0  0  0  0  0  0
  183.1310  179.5320  139.0990 C   0  0  0  0  0  0  0  0  0  0  0  0
  182.0990  177.0190  139.6150 C   0  0  0  0  0  2  0  0  0  0  0  0
  183.4680  180.6780  138.8480 O   0  0  0  0  0  0  0  0  0  0  0  0
  181.7920  179.0290  138.6320 C   0  0  0  0  0  2  0  0  0  0  0  0
  184.0970  178.5590  139.7340 C   0  0  1  0  0  3  0  0  0  0  0  0
  186.5650  177.8550  145.6980 C   0  0  0  0  0  2  0  0  0  0  0  0
  185.6830  178.9940  145.2070 C   0  0  0  0  0  2  0  0  0  0  0  0
  182.3390  178.9350  143.5090 C   0  0  0  0  0  1  0  0  0  0  0  0
  183.4790  179.5390  144.3010 C   0  0  2  0  0  3  0  0  0  0  0  0
  184.3020  178.4620  144.8870 C   0  0  2  0  0  3  0  0  0  0  0  0
  183.3520  179.1640  145.6500 O   0  0  0  0  0  0  0  0  0  0  0  0
  1 24  1  1  0  0  0
  2  1  1  6  0  0  0
  2  6  1  0  0  0  0
  3  4  1  0  0  0  0
  4  8  1  0  0  0  0
  5  2  1  0  0  0  0
  5  4  1  0  0  0  0
  6  9  2  0  0  0  0
  8  9  1  0  0  0  0
  8  7  2  0  0  0  0
 10 11  1  1  0  0  0
 10  1  1  0  0  0  0
 12 10  1  0  0  0  0
 13 15  1  0  0  0  0
 13 12  1  0  0  0  0
 14 13  2  0  0  0  0
 16 15  1  0  0  0  0
 17 20  1  0  0  0  0
 19 23  1  0  0  0  0
 20 18  1  0  0  0  0
 21 19  2  0  0  0  0
 22 19  1  0  0  0  0
 22 17  1  0  0  0  0
 23 18  1  0  0  0  0
 23 16  1  1  0  0  0
 25 24  1  0  0  0  0
 27 26  1  6  0  0  0
 27 28  1  0  0  0  0
 27 29  1  0  0  0  0
 28 25  1  1  0  0  0
 28 29  1  0  0  0  0
M  END
>  <MODEL>
8

>  <REMARK>
 VINA RESULT:      -7.2      2.933      5.890
  Name = 
  10 active torsions:
  status: ('A' for Active; 'I' for Inactive)
    1  A    between atoms: C_2  and  C_9
    2  A    between atoms: C_8  and  C_14
    3  A    between atoms: C_8  and  C_16
    4  A    between atoms: C_9  and  C_11
    5  A    between atoms: C_9  and  C_28
    6  A    between atoms: C_11  and  C_25
    7  A    between atoms: C_14  and  C_29
    8  A    between atoms: C_16  and  C_25
    9  A    between atoms: C_20  and  C_27
   10  A    between atoms: C_27  and  C_28
                            x       y       z     vdW  Elec       q    Type
                         _______ _______ _______ _____ _____    ______ ____

>  <TORSDO>
F 10

$$$$
=
 OpenBabel10232410213D

 29 31  0  0  1  0  0  0  0  0999 V2000
  188.9790  177.3270  140.4310 C   0  0  1  0  0  3  0  0  0  0  0  0
  189.3560  177.3750  138.9350 C   0  0  1  0  0  3  0  0  0  0  0  0
  189.3770  175.2010  135.9410 C   0  0  0  0  0  1  0  0  0  0  0  0
  189.0240  176.3770  136.7180 N   0  0  0  0  0  0  0  0  0  0  0  0
  188.7100  176.2350  138.1360 C   0  0  0  0  0  2  0  0  0  0  0  0
  188.9980  178.7090  138.3180 C   0  0  0  0  0  3  0  0  0  0  0  0
  189.0330  177.8260  134.8720 O   0  0  0  0  0  0  0  0  0  0  0  0
  188.9800  177.6810  136.1230 C   0  0  0  0  0  0  0  0  0  0  0  0
  188.8650  178.8560  136.9980 C   0  0  0  0  0  3  0  0  0  0  0  0
  190.1730  177.3700  141.3960 C   0  0  2  0  0  3  0  0  0  0  0  0
  191.3650  177.6510  140.7190 O   0  0  0  0  0  1  0  0  0  0  0  0
  190.2910  176.0680  142.1760 C   0  0  0  0  0  2  0  0  0  0  0  0
  190.9960  176.2830  143.4760 C   0  0  0  0  0  0  0  0  0  0  0  0
  191.9810  175.6180  143.7590 O   0  0  0  0  0  0  0  0  0  0  0  0
  190.5130  177.3440  144.4070 C   0  0  0  0  0  2  0  0  0  0  0  0
  189.1940  176.9290  145.0330 C   0  0  0  0  0  2  0  0  0  0  0  0
  187.2090  177.7430  148.5050 O   0  0  0  0  0  0  0  0  0  0  0  0
  187.2150  177.9900  146.1270 C   0  0  0  0  0  2  0  0  0  0  0  0
  189.3450  177.6550  147.4230 C   0  0  0  0  0  0  0  0  0  0  0  0
  186.7320  178.5550  147.4610 C   0  0  0  0  0  2  0  0  0  0  0  0
  190.4850  177.2290  147.5280 O   0  0  0  0  0  0  0  0  0  0  0  0
  188.5760  178.0390  148.6580 C   0  0  0  0  0  2  0  0  0  0  0  0
  188.7490  177.9530  146.0670 C   0  0  1  0  0  3  0  0  0  0  0  0
  187.9520  178.3970  140.8150 C   0  0  0  0  0  2  0  0  0  0  0  0
  187.1930  178.0400  142.0850 C   0  0  0  0  0  2  0  0  0  0  0  0
  184.1530  179.4930  143.7350 C   0  0  0  0  0  1  0  0  0  0  0  0
  185.0900  178.3940  143.2800 C   0  0  2  0  0  3  0  0  0  0  0  0
  185.9450  178.8920  142.1840 C   0  0  2  0  0  3  0  0  0  0  0  0
  184.8190  178.0860  141.9350 O   0  0  0  0  0  0  0  0  0  0  0  0
  1 24  1  1  0  0  0
  1 10  1  0  0  0  0
  2  1  1  1  0  0  0
  3  4  1  0  0  0  0
  4  5  1  0  0  0  0
  5  2  1  0  0  0  0
  6  2  1  0  0  0  0
  7  8  2  0  0  0  0
  8  4  1  0  0  0  0
  8  9  1  0  0  0  0
  9  6  2  0  0  0  0
 10 11  1  6  0  0  0
 10 12  1  0  0  0  0
 12 13  1  0  0  0  0
 13 14  2  0  0  0  0
 13 15  1  0  0  0  0
 15 16  1  0  0  0  0
 17 22  1  0  0  0  0
 18 20  1  0  0  0  0
 19 21  2  0  0  0  0
 19 22  1  0  0  0  0
 20 17  1  0  0  0  0
 23 16  1  6  0  0  0
 23 18  1  0  0  0  0
 23 19  1  0  0  0  0
 24 25  1  0  0  0  0
 27 26  1  6  0  0  0
 28 25  1  1  0  0  0
 28 27  1  0  0  0  0
 29 28  1  0  0  0  0
 29 27  1  0  0  0  0
M  END
>  <MODEL>
9

>  <REMARK>
 VINA RESULT:      -7.2      2.619      8.445
  Name = 
  10 active torsions:
  status: ('A' for Active; 'I' for Inactive)
    1  A    between atoms: C_2  and  C_9
    2  A    between atoms: C_8  and  C_14
    3  A    between atoms: C_8  and  C_16
    4  A    between atoms: C_9  and  C_11
    5  A    between atoms: C_9  and  C_28
    6  A    between atoms: C_11  and  C_25
    7  A    between atoms: C_14  and  C_29
    8  A    between atoms: C_16  and  C_25
    9  A    between atoms: C_20  and  C_27
   10  A    between atoms: C_27  and  C_28
                            x       y       z     vdW  Elec       q    Type
                         _______ _______ _______ _____ _____    ______ ____

>  <TORSDO>
F 10

$$$$
