=
 OpenBabel10222422053D

 44 48  0  0  1  0  0  0  0  0999 V2000
  191.0370  177.3620  142.7690 C   0  0  0  0  0  3  0  0  0  0  0  0
  189.3780  177.2880  138.8650 C   0  0  0  0  0  2  0  0  0  0  0  0
  184.4870  179.1020  140.6400 O   0  0  0  0  0  0  0  0  0  0  0  0
  188.6960  177.4000  143.6980 C   0  0  0  0  0  0  0  0  0  0  0  0
  184.5270  178.4620  142.9120 C   0  0  0  0  0  3  0  0  0  0  0  0
  189.1530  175.8490  138.4320 C   0  0  0  0  0  2  0  0  0  0  0  0
  186.7410  177.5380  145.7650 C   0  0  0  0  0  3  0  0  0  0  0  0
  191.8710  177.3450  141.7000 N   0  0  0  0  0  0  0  0  0  0  0  0
  189.6540  177.3570  142.5710 C   0  0  0  0  0  0  0  0  0  0  0  0
  189.1820  177.3430  141.2970 N   0  0  0  0  0  0  0  0  0  0  0  0
  190.0050  177.3220  140.2170 C   0  0  0  0  0  0  0  0  0  0  0  0
  185.3430  178.8110  141.7040 C   0  0  2  0  0  3  0  0  0  0  0  0
  190.0340  176.9410  147.0180 C   0  0  0  0  0  3  0  0  0  0  0  0
  186.1900  180.0400  141.9830 C   0  0  0  0  0  1  0  0  0  0  0  0
  185.0020  177.9980  144.0760 C   0  0  0  0  0  3  0  0  0  0  0  0
  186.6620  176.4720  135.6900 C   0  0  0  0  0  3  0  0  0  0  0  0
  189.0660  177.2390  145.0400 C   0  0  0  0  0  0  0  0  0  0  0  0
  184.8350  176.2820  137.3480 N   0  0  0  0  0  2  0  0  0  0  0  0
  187.3730  177.6250  143.4360 N   0  0  0  0  0  0  0  0  0  0  0  0
  184.5320  177.7130  137.2990 C   0  0  0  0  0  2  0  0  0  0  0  0
  184.5660  178.0040  139.7770 C   0  0  0  0  0  2  0  0  0  0  0  0
  191.4060  177.3200  140.4230 C   0  0  0  0  0  0  0  0  0  0  0  0
  188.0710  177.3010  146.0650 C   0  0  0  0  0  0  0  0  0  0  0  0
  185.1930  178.4350  138.4630 C   0  0  0  0  0  2  0  0  0  0  0  0
  187.8020  175.6970  137.7570 C   0  0  0  0  0  2  0  0  0  0  0  0
  185.3630  175.8070  136.0640 C   0  0  1  0  0  3  0  0  0  0  0  0
  187.7620  176.4170  136.4460 C   0  0  0  0  0  3  0  0  0  0  0  0
  188.6760  177.1180  147.2860 C   0  0  0  0  0  2  0  0  0  0  0  0
  190.2830  177.0120  145.6460 C   0  0  0  0  0  3  0  0  0  0  0  0
  186.4080  177.7110  144.4100 C   0  0  0  0  0  0  0  0  0  0  0  0
  193.6810  177.2980  139.5520 N   0  0  0  0  0  2  0  0  0  0  0  0
  192.4070  177.3020  139.3380 C   0  0  0  0  0  3  0  0  0  0  0  0
  184.3430  175.9540  134.9440 C   0  0  0  0  0  2  0  0  0  0  0  0
  182.0060  176.0550  135.3930 O   0  0  0  0  0  0  0  0  0  0  0  0
  183.0460  175.3450  135.3400 C   0  0  0  0  0  0  0  0  0  0  0  0
  183.0010  173.9590  135.6760 N   0  0  0  0  0  2  0  0  0  0  0  0
  180.5300  173.2300  135.1340 O   0  0  0  0  0  0  0  0  0  0  0  0
  181.5610  173.1730  136.2270 S   0  0  0  0  0  0  0  0  0  0  0  0
  181.0310  173.8820  137.4430 O   0  0  0  0  0  0  0  0  0  0  0  0
  181.5100  170.5780  135.4720 C   0  0  0  0  0  2  0  0  0  0  0  0
  183.5780  170.1060  136.1120 C   0  0  0  0  0  2  0  0  0  0  0  0
  182.6410  169.8550  135.1000 O   0  0  0  0  0  0  0  0  0  0  0  0
  181.9170  171.4670  136.6120 C   0  0  1  0  0  3  0  0  0  0  0  0
  183.2890  171.3040  136.7760 O   0  0  0  0  0  0  0  0  0  0  0  0
  2 11  1  0  0  0  0
  3 12  1  0  0  0  0
  4 17  1  0  0  0  0
  5 15  2  0  0  0  0
  6  2  1  0  0  0  0
  7 23  1  0  0  0  0
  8  1  2  0  0  0  0
  9  1  1  0  0  0  0
  9  4  1  0  0  0  0
 10  9  2  0  0  0  0
 11 22  2  0  0  0  0
 11 10  1  0  0  0  0
 12 14  1  1  0  0  0
 12  5  1  0  0  0  0
 13 28  1  0  0  0  0
 15 30  1  0  0  0  0
 16 26  1  0  0  0  0
 16 27  2  0  0  0  0
 17 29  1  0  0  0  0
 17 23  2  0  0  0  0
 19  4  2  0  0  0  0
 19 30  1  0  0  0  0
 20 18  1  0  0  0  0
 20 24  1  0  0  0  0
 21  3  1  0  0  0  0
 22  8  1  0  0  0  0
 23 28  1  0  0  0  0
 24 21  1  0  0  0  0
 25  6  1  0  0  0  0
 26 33  1  6  0  0  0
 26 18  1  0  0  0  0
 27 25  1  0  0  0  0
 29 13  2  0  0  0  0
 30  7  2  0  0  0  0
 32 31  2  0  0  0  0
 32 22  1  0  0  0  0
 33 35  1  0  0  0  0
 35 34  2  0  0  0  0
 35 36  1  0  0  0  0
 36 38  1  0  0  0  0
 37 38  2  0  0  0  0
 38 39  2  0  0  0  0
 40 43  1  0  0  0  0
 41 44  1  0  0  0  0
 42 40  1  0  0  0  0
 42 41  1  0  0  0  0
 43 38  1  6  0  0  0
 43 44  1  0  0  0  0
M  END
>  <MODEL>
1

>  <REMARK>
 VINA RESULT:      -8.8      0.000      0.000
  Name = 
  5 active torsions:
  status: ('A' for Active; 'I' for Inactive)
    1  A    between atoms: S_11  and  N_26
    2  A    between atoms: S_11  and  C_38
    3  A    between atoms: C_25  and  C_40
    4  A    between atoms: C_32  and  C_41
    5  A    between atoms: C_36  and  C_40
                            x       y       z     vdW  Elec       q    Type
                         _______ _______ _______ _____ _____    ______ ____

>  <TORSDO>
F 5

$$$$
=
 OpenBabel10222422053D

 44 48  0  0  1  0  0  0  0  0999 V2000
  191.0800  177.3430  142.8420 C   0  0  0  0  0  3  0  0  0  0  0  0
  189.4900  177.2940  138.9080 C   0  0  0  0  0  2  0  0  0  0  0  0
  184.5800  179.1350  140.6020 O   0  0  0  0  0  0  0  0  0  0  0  0
  188.7230  177.3940  143.7290 C   0  0  0  0  0  0  0  0  0  0  0  0
  184.5750  178.4870  142.8720 C   0  0  0  0  0  3  0  0  0  0  0  0
  189.2630  175.8580  138.4660 C   0  0  0  0  0  2  0  0  0  0  0  0
  186.7330  177.5390  145.7610 C   0  0  0  0  0  3  0  0  0  0  0  0
  191.9330  177.3250  141.7870 N   0  0  0  0  0  0  0  0  0  0  0  0
  189.7010  177.3490  142.6190 C   0  0  0  0  0  0  0  0  0  0  0  0
  189.2510  177.3420  141.3370 N   0  0  0  0  0  0  0  0  0  0  0  0
  190.0930  177.3190  140.2710 C   0  0  0  0  0  0  0  0  0  0  0  0
  185.4160  178.8350  141.6810 C   0  0  2  0  0  3  0  0  0  0  0  0
  189.9990  176.9150  147.0700 C   0  0  0  0  0  3  0  0  0  0  0  0
  186.2650  180.0570  141.9790 C   0  0  0  0  0  1  0  0  0  0  0  0
  185.0260  178.0150  144.0420 C   0  0  0  0  0  3  0  0  0  0  0  0
  186.8260  176.5070  135.6830 C   0  0  0  0  0  3  0  0  0  0  0  0
  189.0680  177.2270  145.0770 C   0  0  0  0  0  0  0  0  0  0  0  0
  184.9690  176.3240  137.3070 N   0  0  0  0  0  2  0  0  0  0  0  0
  187.4060  177.6290  143.4440 N   0  0  0  0  0  0  0  0  0  0  0  0
  184.6750  177.7570  137.2570 C   0  0  0  0  0  2  0  0  0  0  0  0
  184.6670  178.0390  139.7370 C   0  0  0  0  0  2  0  0  0  0  0  0
  191.4900  177.3070  140.5020 C   0  0  0  0  0  0  0  0  0  0  0  0
  188.0550  177.2910  146.0840 C   0  0  0  0  0  0  0  0  0  0  0  0
  185.3210  178.4710  138.4350 C   0  0  0  0  0  2  0  0  0  0  0  0
  187.9230  175.7170  137.7670 C   0  0  0  0  0  2  0  0  0  0  0  0
  185.5160  175.8490  136.0310 C   0  0  1  0  0  3  0  0  0  0  0  0
  187.9120  176.4420  136.4570 C   0  0  0  0  0  3  0  0  0  0  0  0
  188.6360  177.1010  147.3150 C   0  0  0  0  0  2  0  0  0  0  0  0
  190.2720  176.9890  145.7030 C   0  0  0  0  0  3  0  0  0  0  0  0
  186.4240  177.7190  144.4000 C   0  0  0  0  0  0  0  0  0  0  0  0
  193.7800  177.2700  139.6720 N   0  0  0  0  0  2  0  0  0  0  0  0
  192.5100  177.2860  139.4360 C   0  0  0  0  0  3  0  0  0  0  0  0
  184.5170  176.0080  134.8940 C   0  0  0  0  0  2  0  0  0  0  0  0
  182.1500  175.7530  134.8360 O   0  0  0  0  0  0  0  0  0  0  0  0
  183.2580  175.2800  135.2030 C   0  0  0  0  0  0  0  0  0  0  0  0
  183.3230  174.0560  135.9340 N   0  0  0  0  0  2  0  0  0  0  0  0
  182.3420  171.8440  136.9710 O   0  0  0  0  0  0  0  0  0  0  0  0
  181.9130  173.1740  136.4160 S   0  0  0  0  0  0  0  0  0  0  0  0
  181.0260  172.9480  135.2220 O   0  0  0  0  0  0  0  0  0  0  0  0
  181.9600  175.0430  138.3670 C   0  0  0  0  0  2  0  0  0  0  0  0
  180.1040  176.0810  137.7440 C   0  0  0  0  0  2  0  0  0  0  0  0
  181.3940  176.3100  138.2430 O   0  0  0  0  0  0  0  0  0  0  0  0
  181.0360  174.0830  137.6750 C   0  0  1  0  0  3  0  0  0  0  0  0
  180.0340  174.8470  137.0850 O   0  0  0  0  0  0  0  0  0  0  0  0
  2 11  1  0  0  0  0
  3 12  1  0  0  0  0
  4 17  1  0  0  0  0
  5 15  2  0  0  0  0
  6  2  1  0  0  0  0
  7 23  1  0  0  0  0
  8  1  2  0  0  0  0
  9  1  1  0  0  0  0
  9  4  1  0  0  0  0
 10  9  2  0  0  0  0
 11 22  2  0  0  0  0
 11 10  1  0  0  0  0
 12 14  1  1  0  0  0
 12  5  1  0  0  0  0
 13 28  1  0  0  0  0
 15 30  1  0  0  0  0
 16 26  1  0  0  0  0
 16 27  2  0  0  0  0
 17 29  1  0  0  0  0
 17 23  2  0  0  0  0
 19  4  2  0  0  0  0
 19 30  1  0  0  0  0
 20 18  1  0  0  0  0
 20 24  1  0  0  0  0
 21  3  1  0  0  0  0
 22  8  1  0  0  0  0
 23 28  1  0  0  0  0
 24 21  1  0  0  0  0
 25  6  1  0  0  0  0
 26 33  1  6  0  0  0
 26 18  1  0  0  0  0
 27 25  1  0  0  0  0
 29 13  2  0  0  0  0
 30  7  2  0  0  0  0
 32 31  2  0  0  0  0
 32 22  1  0  0  0  0
 33 35  1  0  0  0  0
 34 35  2  0  0  0  0
 35 36  1  0  0  0  0
 36 38  1  0  0  0  0
 38 37  2  0  0  0  0
 39 38  2  0  0  0  0
 41 42  1  0  0  0  0
 42 40  1  0  0  0  0
 43 38  1  6  0  0  0
 43 40  1  0  0  0  0
 44 43  1  0  0  0  0
 44 41  1  0  0  0  0
M  END
>  <MODEL>
2

>  <REMARK>
 VINA RESULT:      -8.7      1.198      2.021
  Name = 
  5 active torsions:
  status: ('A' for Active; 'I' for Inactive)
    1  A    between atoms: S_11  and  N_26
    2  A    between atoms: S_11  and  C_38
    3  A    between atoms: C_25  and  C_40
    4  A    between atoms: C_32  and  C_41
    5  A    between atoms: C_36  and  C_40
                            x       y       z     vdW  Elec       q    Type
                         _______ _______ _______ _____ _____    ______ ____

>  <TORSDO>
F 5

$$$$
=
 OpenBabel10222422053D

 44 48  0  0  1  0  0  0  0  0999 V2000
  185.9010  173.3050  134.6200 C   0  0  0  0  0  3  0  0  0  0  0  0
  183.5300  175.9140  136.9810 C   0  0  0  0  0  2  0  0  0  0  0  0
  187.9360  178.6830  138.7910 O   0  0  0  0  0  0  0  0  0  0  0  0
  187.9020  173.9780  135.9940 C   0  0  0  0  0  0  0  0  0  0  0  0
  189.6580  177.0930  138.5130 C   0  0  0  0  0  3  0  0  0  0  0  0
  182.9900  175.1630  138.1870 C   0  0  0  0  0  2  0  0  0  0  0  0
  190.6610  173.9950  136.6990 C   0  0  0  0  0  3  0  0  0  0  0  0
  184.5770  173.4200  134.3460 N   0  0  0  0  0  0  0  0  0  0  0  0
  186.4610  174.0440  135.6650 C   0  0  0  0  0  0  0  0  0  0  0  0
  185.6530  174.8700  136.3800 N   0  0  0  0  0  0  0  0  0  0  0  0
  184.3250  174.9920  136.1200 C   0  0  0  0  0  0  0  0  0  0  0  0
  188.3060  177.5530  138.0580 C   0  0  2  0  0  3  0  0  0  0  0  0
  189.8470  171.4070  134.3720 C   0  0  0  0  0  3  0  0  0  0  0  0
  188.3500  177.9330  136.5880 C   0  0  0  0  0  1  0  0  0  0  0  0
  190.2730  175.9640  138.1340 C   0  0  0  0  0  3  0  0  0  0  0  0
  182.1590  178.1140  140.3570 C   0  0  0  0  0  3  0  0  0  0  0  0
  188.7830  173.0370  135.4440 C   0  0  0  0  0  0  0  0  0  0  0  0
  184.4450  178.0260  141.2990 N   0  0  0  0  0  2  0  0  0  0  0  0
  188.4260  174.8900  136.8680 N   0  0  0  0  0  2  0  0  0  0  0  0
  184.8630  179.2500  140.6150 C   0  0  0  0  0  2  0  0  0  0  0  0
  186.9530  178.2510  139.6860 C   0  0  0  0  0  2  0  0  0  0  0  0
  183.7620  174.2360  135.0640 C   0  0  0  0  0  0  0  0  0  0  0  0
  190.1630  173.0530  135.8160 C   0  0  0  0  0  0  0  0  0  0  0  0
  185.6290  178.9130  139.3450 C   0  0  0  0  0  2  0  0  0  0  0  0
  183.1070  176.0080  139.4420 C   0  0  0  0  0  2  0  0  0  0  0  0
  183.0090  178.0480  141.5990 C   0  0  1  0  0  3  0  0  0  0  0  0
  182.1960  177.1940  139.3900 C   0  0  0  0  0  3  0  0  0  0  0  0
  190.8170  172.0440  135.1480 C   0  0  0  0  0  3  0  0  0  0  0  0
  188.5990  172.0080  134.5470 C   0  0  0  0  0  3  0  0  0  0  0  0
  189.7530  174.9340  137.2190 C   0  0  0  0  0  0  0  0  0  0  0  0
  181.5720  173.2390  134.6800 N   0  0  0  0  0  2  0  0  0  0  0  0
  182.3380  174.2790  134.6770 C   0  0  0  0  0  3  0  0  0  0  0  0
  182.6490  179.1750  142.5560 C   0  0  0  0  0  2  0  0  0  0  0  0
  182.3260  178.5380  144.8280 O   0  0  0  0  0  0  0  0  0  0  0  0
  183.1400  178.8710  143.9260 C   0  0  0  0  0  0  0  0  0  0  0  0
  184.5350  178.9810  144.2070 N   0  0  0  0  0  2  0  0  0  0  0  0
  184.1060  178.2390  146.6960 O   0  0  0  0  0  0  0  0  0  0  0  0
  185.1980  178.7280  145.7860 S   0  0  0  0  0  0  0  0  0  0  0  0
  185.7410  180.0260  146.3190 O   0  0  0  0  0  0  0  0  0  0  0  0
  187.0430  177.4140  144.3120 C   0  0  0  0  0  2  0  0  0  0  0  0
  188.6940  177.6020  145.7780 C   0  0  0  0  0  2  0  0  0  0  0  0
  188.4150  177.6390  144.4050 O   0  0  0  0  0  0  0  0  0  0  0  0
  186.4910  177.5020  145.7060 C   0  0  1  0  0  3  0  0  0  0  0  0
  187.5460  177.8840  146.5300 O   0  0  0  0  0  0  0  0  0  0  0  0
  1  9  1  0  0  0  0
  2  6  1  0  0  0  0
  3 21  1  0  0  0  0
  4 19  1  0  0  0  0
  6 25  1  0  0  0  0
  7 30  2  0  0  0  0
  8  1  2  0  0  0  0
  8 22  1  0  0  0  0
  9  4  1  0  0  0  0
  9 10  2  0  0  0  0
 11 10  1  0  0  0  0
 11  2  1  0  0  0  0
 12 14  1  6  0  0  0
 12  5  1  0  0  0  0
 12  3  1  0  0  0  0
 13 29  2  0  0  0  0
 13 28  1  0  0  0  0
 15  5  2  0  0  0  0
 16 26  1  0  0  0  0
 17 23  1  0  0  0  0
 17  4  2  0  0  0  0
 18 26  1  0  0  0  0
 19 30  1  0  0  0  0
 20 18  1  0  0  0  0
 22 11  2  0  0  0  0
 23  7  1  0  0  0  0
 24 21  1  0  0  0  0
 24 20  1  0  0  0  0
 26 33  1  1  0  0  0
 27 25  1  0  0  0  0
 27 16  2  0  0  0  0
 28 23  2  0  0  0  0
 29 17  1  0  0  0  0
 30 15  1  0  0  0  0
 32 31  2  0  0  0  0
 32 22  1  0  0  0  0
 33 35  1  0  0  0  0
 35 36  1  0  0  0  0
 35 34  2  0  0  0  0
 36 38  1  0  0  0  0
 38 39  2  0  0  0  0
 38 37  2  0  0  0  0
 40 42  1  0  0  0  0
 40 43  1  0  0  0  0
 41 44  1  0  0  0  0
 42 41  1  0  0  0  0
 43 38  1  6  0  0  0
 43 44  1  0  0  0  0
M  END
>  <MODEL>
3

>  <REMARK>
 VINA RESULT:      -7.1      4.366      9.466
  Name = 
  5 active torsions:
  status: ('A' for Active; 'I' for Inactive)
    1  A    between atoms: S_11  and  N_26
    2  A    between atoms: S_11  and  C_38
    3  A    between atoms: C_25  and  C_40
    4  A    between atoms: C_32  and  C_41
    5  A    between atoms: C_36  and  C_40
                            x       y       z     vdW  Elec       q    Type
                         _______ _______ _______ _____ _____    ______ ____

>  <TORSDO>
F 5

$$$$
=
 OpenBabel10222422053D

 44 48  0  0  1  0  0  0  0  0999 V2000
  181.7390  177.1500  136.9450 C   0  0  0  0  0  3  0  0  0  0  0  0
  184.7000  178.8810  139.4430 C   0  0  0  0  0  2  0  0  0  0  0  0
  188.7650  176.1010  136.9720 O   0  0  0  0  0  0  0  0  0  0  0  0
  183.3800  175.3290  136.3640 C   0  0  0  0  0  0  0  0  0  0  0  0
  187.6090  174.2540  136.0640 C   0  0  0  0  0  3  0  0  0  0  0  0
  184.5930  178.2990  140.8430 C   0  0  0  0  0  2  0  0  0  0  0  0
  184.2670  172.9950  134.9950 C   0  0  0  0  0  3  0  0  0  0  0  0
  181.4500  178.2950  137.6130 N   0  0  0  0  0  0  0  0  0  0  0  0
  182.9990  176.5630  137.0860 C   0  0  0  0  0  0  0  0  0  0  0  0
  183.9100  177.1690  137.8930 N   0  0  0  0  0  0  0  0  0  0  0  0
  183.6320  178.3130  138.5710 C   0  0  0  0  0  0  0  0  0  0  0  0
  187.5100  175.6750  136.5300 C   0  0  2  0  0  3  0  0  0  0  0  0
  180.7520  173.5450  134.6500 C   0  0  0  0  0  3  0  0  0  0  0  0
  187.0790  176.5730  135.3840 C   0  0  0  0  0  1  0  0  0  0  0  0
  186.5830  173.4720  135.7010 C   0  0  0  0  0  3  0  0  0  0  0  0
  188.0270  179.1810  142.0820 C   0  0  0  0  0  3  0  0  0  0  0  0
  182.4720  174.5320  135.6530 C   0  0  0  0  0  0  0  0  0  0  0  0
  188.8600  177.0170  141.2220 N   0  0  0  0  0  2  0  0  0  0  0  0
  184.6900  174.9370  136.3640 N   0  0  0  0  0  2  0  0  0  0  0  0
  189.6110  177.6450  140.1330 C   0  0  0  0  0  2  0  0  0  0  0  0
  188.6820  176.1450  138.3670 C   0  0  0  0  0  2  0  0  0  0  0  0
  182.3520  178.9000  138.4300 C   0  0  0  0  0  0  0  0  0  0  0  0
  182.9320  173.3580  134.9800 C   0  0  0  0  0  0  0  0  0  0  0  0
  188.8160  177.5830  138.8380 C   0  0  0  0  0  2  0  0  0  0  0  0
  185.9680  177.9730  141.3950 C   0  0  0  0  0  2  0  0  0  0  0  0
  188.7680  177.9060  142.3860 C   0  0  1  0  0  3  0  0  0  0  0  0
  186.7650  179.2140  141.6440 C   0  0  0  0  0  3  0  0  0  0  0  0
  181.8650  172.7530  134.3590 C   0  0  0  0  0  3  0  0  0  0  0  0
  181.1140  174.6360  135.4430 C   0  0  0  0  0  3  0  0  0  0  0  0
  185.1530  173.8260  135.7030 C   0  0  0  0  0  0  0  0  0  0  0  0
  181.6950  181.2460  138.4770 N   0  0  0  0  0  2  0  0  0  0  0  0
  181.9250  180.1410  139.1060 C   0  0  0  0  0  3  0  0  0  0  0  0
  190.1380  178.2080  142.9750 C   0  0  0  0  0  2  0  0  0  0  0  0
  191.2030  177.9650  145.0920 O   0  0  0  0  0  0  0  0  0  0  0  0
  190.1200  178.0300  144.4510 C   0  0  0  0  0  0  0  0  0  0  0  0
  188.8660  177.9120  145.1230 N   0  0  0  0  0  2  0  0  0  0  0  0
  189.5010  178.6870  147.5570 O   0  0  0  0  0  0  0  0  0  0  0  0
  188.7360  177.6200  146.8240 S   0  0  0  0  0  0  0  0  0  0  0  0
  189.3260  176.2760  147.1530 O   0  0  0  0  0  0  0  0  0  0  0  0
  186.6800  179.0420  147.8510 C   0  0  0  0  0  2  0  0  0  0  0  0
  185.1820  178.4120  146.3430 C   0  0  0  0  0  2  0  0  0  0  0  0
  185.6100  179.5160  147.0950 O   0  0  0  0  0  0  0  0  0  0  0  0
  187.0230  177.6810  147.3160 C   0  0  1  0  0  3  0  0  0  0  0  0
  186.2120  177.4730  146.2030 O   0  0  0  0  0  0  0  0  0  0  0  0
  1  9  2  0  0  0  0
  1  8  1  0  0  0  0
  2  6  1  0  0  0  0
  3 21  1  0  0  0  0
  4 19  1  0  0  0  0
  4  9  1  0  0  0  0
  5 12  1  0  0  0  0
  6 25  1  0  0  0  0
  7 30  2  0  0  0  0
  8 22  2  0  0  0  0
  9 10  1  0  0  0  0
 10 11  2  0  0  0  0
 11  2  1  0  0  0  0
 12 14  1  6  0  0  0
 12  3  1  0  0  0  0
 13 29  2  0  0  0  0
 15 30  1  0  0  0  0
 15  5  2  0  0  0  0
 16 26  1  0  0  0  0
 17  4  2  0  0  0  0
 18 26  1  0  0  0  0
 20 18  1  0  0  0  0
 21 24  1  0  0  0  0
 22 11  1  0  0  0  0
 22 32  1  0  0  0  0
 23  7  1  0  0  0  0
 23 17  1  0  0  0  0
 24 20  1  0  0  0  0
 25 27  1  0  0  0  0
 26 33  1  6  0  0  0
 27 16  2  0  0  0  0
 28 13  1  0  0  0  0
 28 23  2  0  0  0  0
 29 17  1  0  0  0  0
 30 19  1  0  0  0  0
 31 32  2  0  0  0  0
 33 35  1  0  0  0  0
 35 34  2  0  0  0  0
 35 36  1  0  0  0  0
 36 38  1  0  0  0  0
 38 39  2  0  0  0  0
 38 37  2  0  0  0  0
 41 42  1  0  0  0  0
 42 40  1  0  0  0  0
 43 38  1  6  0  0  0
 43 40  1  0  0  0  0
 44 41  1  0  0  0  0
 44 43  1  0  0  0  0
M  END
>  <MODEL>
4

>  <REMARK>
 VINA RESULT:      -6.6      3.954     10.594
  Name = 
  5 active torsions:
  status: ('A' for Active; 'I' for Inactive)
    1  A    between atoms: S_11  and  N_26
    2  A    between atoms: S_11  and  C_38
    3  A    between atoms: C_25  and  C_40
    4  A    between atoms: C_32  and  C_41
    5  A    between atoms: C_36  and  C_40
                            x       y       z     vdW  Elec       q    Type
                         _______ _______ _______ _____ _____    ______ ____

>  <TORSDO>
F 5

$$$$
=
 OpenBabel10222422053D

 44 48  0  0  1  0  0  0  0  0999 V2000
  186.4180  178.7300  141.2360 C   0  0  0  0  0  3  0  0  0  0  0  0
  190.0690  177.6300  139.3740 C   0  0  0  0  0  2  0  0  0  0  0  0
  187.8160  177.7030  134.3460 O   0  0  0  0  0  0  0  0  0  0  0  0
  185.2060  178.0070  139.1490 C   0  0  0  0  0  0  0  0  0  0  0  0
  185.5300  177.3730  134.8330 C   0  0  0  0  0  3  0  0  0  0  0  0
  190.3740  176.1710  139.6690 C   0  0  0  0  0  2  0  0  0  0  0  0
  182.9240  177.6410  137.4860 C   0  0  0  0  0  3  0  0  0  0  0  0
  187.5810  178.9050  141.9120 N   0  0  0  0  0  0  0  0  0  0  0  0
  186.4400  178.1970  139.9440 C   0  0  0  0  0  0  0  0  0  0  0  0
  187.6410  177.8730  139.3960 N   0  0  0  0  0  0  0  0  0  0  0  0
  188.8120  178.0380  140.0640 C   0  0  0  0  0  0  0  0  0  0  0  0
  186.8510  177.8640  135.3430 C   0  0  2  0  0  3  0  0  0  0  0  0
  182.0590  178.4330  140.8620 C   0  0  0  0  0  3  0  0  0  0  0  0
  186.7630  179.3410  135.6860 C   0  0  0  0  0  1  0  0  0  0  0  0
  184.4070  177.2440  135.5530 C   0  0  0  0  0  3  0  0  0  0  0  0
  192.8150  175.5360  136.8860 C   0  0  0  0  0  3  0  0  0  0  0  0
  183.9140  178.1400  139.6740 C   0  0  0  0  0  0  0  0  0  0  0  0
  190.9320  174.8700  135.4260 N   0  0  0  0  0  2  0  0  0  0  0  0
  185.3140  177.7010  137.8200 N   0  0  0  0  0  0  0  0  0  0  0  0
  191.0370  176.0750  134.6030 C   0  0  0  0  0  2  0  0  0  0  0  0
  188.6070  176.6250  134.7530 C   0  0  0  0  0  2  0  0  0  0  0  0
  188.7850  178.5730  141.3740 C   0  0  0  0  0  0  0  0  0  0  0  0
  182.7790  177.9420  138.8280 C   0  0  0  0  0  0  0  0  0  0  0  0
  190.0160  177.1110  135.0470 C   0  0  0  0  0  2  0  0  0  0  0  0
  190.8620  175.4620  138.4190 C   0  0  0  0  0  2  0  0  0  0  0  0
  192.2380  174.4850  135.9730 C   0  0  1  0  0  3  0  0  0  0  0  0
  192.2030  175.9710  137.9900 C   0  0  0  0  0  3  0  0  0  0  0  0
  181.6340  178.1280  139.5670 C   0  0  0  0  0  3  0  0  0  0  0  0
  183.4530  178.4420  140.9370 C   0  0  0  0  0  2  0  0  0  0  0  0
  184.2350  177.5320  136.9880 C   0  0  0  0  0  0  0  0  0  0  0  0
  190.4900  177.9100  142.9840 N   0  0  0  0  0  2  0  0  0  0  0  0
  189.9830  178.8060  142.2040 C   0  0  0  0  0  3  0  0  0  0  0  0
  193.2280  174.1260  134.8740 C   0  0  0  0  0  2  0  0  0  0  0  0
  194.9230  172.7310  135.7960 O   0  0  0  0  0  0  0  0  0  0  0  0
  194.5790  173.8920  135.4480 C   0  0  0  0  0  0  0  0  0  0  0  0
  195.4650  174.9970  135.6170 N   0  0  0  0  0  2  0  0  0  0  0  0
  197.6760  176.2010  136.3870 O   0  0  0  0  0  0  0  0  0  0  0  0
  197.0270  174.8460  136.3490 S   0  0  0  0  0  0  0  0  0  0  0  0
  197.8790  173.9130  135.5330 O   0  0  0  0  0  0  0  0  0  0  0  0
  198.0100  174.6760  138.8610 C   0  0  0  0  0  2  0  0  0  0  0  0
  196.0960  175.1020  139.8930 C   0  0  0  0  0  2  0  0  0  0  0  0
  197.4740  175.3550  139.9530 O   0  0  0  0  0  0  0  0  0  0  0  0
  196.8530  174.2290  138.0140 C   0  0  1  0  0  3  0  0  0  0  0  0
  195.7050  174.7640  138.5910 O   0  0  0  0  0  0  0  0  0  0  0  0
  1  8  1  0  0  0  0
  2  6  1  0  0  0  0
  2 11  1  0  0  0  0
  3 21  1  0  0  0  0
  3 12  1  0  0  0  0
  4 17  1  0  0  0  0
  4  9  1  0  0  0  0
  5 12  1  0  0  0  0
  5 15  2  0  0  0  0
  7 23  1  0  0  0  0
  9  1  2  0  0  0  0
 10  9  1  0  0  0  0
 10 11  2  0  0  0  0
 11 22  1  0  0  0  0
 12 14  1  6  0  0  0
 13 29  1  0  0  0  0
 15 30  1  0  0  0  0
 16 27  2  0  0  0  0
 17 29  1  0  0  0  0
 18 26  1  0  0  0  0
 19  4  2  0  0  0  0
 20 24  1  0  0  0  0
 20 18  1  0  0  0  0
 21 24  1  0  0  0  0
 22  8  2  0  0  0  0
 22 32  1  0  0  0  0
 23 28  1  0  0  0  0
 23 17  2  0  0  0  0
 25  6  1  0  0  0  0
 26 33  1  6  0  0  0
 26 16  1  0  0  0  0
 27 25  1  0  0  0  0
 28 13  2  0  0  0  0
 30  7  2  0  0  0  0
 30 19  1  0  0  0  0
 32 31  2  0  0  0  0
 33 35  1  0  0  0  0
 35 36  1  0  0  0  0
 35 34  2  0  0  0  0
 36 38  1  0  0  0  0
 38 37  2  0  0  0  0
 39 38  2  0  0  0  0
 40 42  1  0  0  0  0
 41 42  1  0  0  0  0
 43 38  1  6  0  0  0
 43 44  1  0  0  0  0
 43 40  1  0  0  0  0
 44 41  1  0  0  0  0
M  END
>  <MODEL>
5

>  <REMARK>
 VINA RESULT:      -5.9      5.858      9.404
  Name = 
  5 active torsions:
  status: ('A' for Active; 'I' for Inactive)
    1  A    between atoms: S_11  and  N_26
    2  A    between atoms: S_11  and  C_38
    3  A    between atoms: C_25  and  C_40
    4  A    between atoms: C_32  and  C_41
    5  A    between atoms: C_36  and  C_40
                            x       y       z     vdW  Elec       q    Type
                         _______ _______ _______ _____ _____    ______ ____

>  <TORSDO>
F 5

$$$$
=
 OpenBabel10222422053D

 44 48  0  0  1  0  0  0  0  0999 V2000
  180.5140  175.4420  137.4310 C   0  0  0  0  0  3  0  0  0  0  0  0
  183.1880  178.0850  139.4000 C   0  0  0  0  0  2  0  0  0  0  0  0
  187.4740  176.3990  136.3760 O   0  0  0  0  0  0  0  0  0  0  0  0
  182.5040  174.1190  136.6350 C   0  0  0  0  0  0  0  0  0  0  0  0
  186.7740  174.2500  135.6960 C   0  0  0  0  0  3  0  0  0  0  0  0
  183.4550  177.5850  140.8100 C   0  0  0  0  0  2  0  0  0  0  0  0
  183.8120  172.0440  135.1890 C   0  0  0  0  0  3  0  0  0  0  0  0
  180.0100  176.5010  138.1140 N   0  0  0  0  0  0  0  0  0  0  0  0
  181.8960  175.2410  137.3840 C   0  0  0  0  0  0  0  0  0  0  0  0
  182.7030  176.1260  138.0260 N   0  0  0  0  0  0  0  0  0  0  0  0
  182.2110  177.1880  138.7170 C   0  0  0  0  0  0  0  0  0  0  0  0
  186.3430  175.6130  136.1450 C   0  0  2  0  0  3  0  0  0  0  0  0
  180.2760  171.5680  135.3900 C   0  0  0  0  0  3  0  0  0  0  0  0
  185.5120  176.2810  135.0630 C   0  0  0  0  0  1  0  0  0  0  0  0
  185.9730  173.1910  135.5140 C   0  0  0  0  0  3  0  0  0  0  0  0
  186.6360  179.4680  141.4770 C   0  0  0  0  0  3  0  0  0  0  0  0
  181.7690  173.0570  136.0910 C   0  0  0  0  0  0  0  0  0  0  0  0
  187.9190  177.5720  140.5390 N   0  0  0  0  0  2  0  0  0  0  0  0
  183.8570  174.1090  136.4370 N   0  0  0  0  0  2  0  0  0  0  0  0
  188.2930  178.3140  139.3350 C   0  0  0  0  0  2  0  0  0  0  0  0
  187.5850  176.5070  137.7660 C   0  0  0  0  0  2  0  0  0  0  0  0
  180.8110  177.3840  138.7670 C   0  0  0  0  0  0  0  0  0  0  0  0
  182.4420  172.0180  135.3770 C   0  0  0  0  0  0  0  0  0  0  0  0
  187.3690  177.9520  138.1810 C   0  0  0  0  0  2  0  0  0  0  0  0
  184.9310  177.6920  141.1460 C   0  0  0  0  0  2  0  0  0  0  0  0
  187.7460  178.4720  141.6860 C   0  0  1  0  0  3  0  0  0  0  0  0
  185.3670  179.1200  141.2430 C   0  0  0  0  0  3  0  0  0  0  0  0
  181.5140  171.1010  134.9430 C   0  0  0  0  0  3  0  0  0  0  0  0
  180.4230  172.7640  136.0950 C   0  0  0  0  0  3  0  0  0  0  0  0
  184.5170  173.1320  135.7330 C   0  0  0  0  0  0  0  0  0  0  0  0
  180.0520  178.5560  140.7640 N   0  0  0  0  0  2  0  0  0  0  0  0
  180.1500  178.4970  139.4780 C   0  0  0  0  0  3  0  0  0  0  0  0
  189.0430  179.1810  142.0470 C   0  0  0  0  0  2  0  0  0  0  0  0
  190.8700  177.6650  142.2380 O   0  0  0  0  0  0  0  0  0  0  0  0
  189.9330  178.2750  142.8200 C   0  0  0  0  0  0  0  0  0  0  0  0
  189.6980  178.0910  144.2150 N   0  0  0  0  0  2  0  0  0  0  0  0
  191.9240  177.6590  145.5540 O   0  0  0  0  0  0  0  0  0  0  0  0
  190.6240  176.9980  145.1870 S   0  0  0  0  0  0  0  0  0  0  0  0
  190.9100  175.7450  144.4060 O   0  0  0  0  0  0  0  0  0  0  0  0
  190.3430  177.2920  147.8590 C   0  0  0  0  0  2  0  0  0  0  0  0
  188.1550  177.6470  147.8280 C   0  0  0  0  0  2  0  0  0  0  0  0
  189.3410  178.0560  148.4560 O   0  0  0  0  0  0  0  0  0  0  0  0
  189.7220  176.6060  146.6760 C   0  0  1  0  0  3  0  0  0  0  0  0
  188.4200  177.0880  146.5720 O   0  0  0  0  0  0  0  0  0  0  0  0
  1  8  1  0  0  0  0
  2  6  1  0  0  0  0
  3 21  1  0  0  0  0
  4  9  1  0  0  0  0
  5 12  1  0  0  0  0
  6 25  1  0  0  0  0
  7 23  1  0  0  0  0
  7 30  2  0  0  0  0
  8 22  2  0  0  0  0
  9  1  2  0  0  0  0
  9 10  1  0  0  0  0
 10 11  2  0  0  0  0
 11 22  1  0  0  0  0
 11  2  1  0  0  0  0
 12 14  1  6  0  0  0
 12  3  1  0  0  0  0
 13 29  2  0  0  0  0
 15  5  2  0  0  0  0
 15 30  1  0  0  0  0
 16 26  1  0  0  0  0
 17 29  1  0  0  0  0
 17  4  2  0  0  0  0
 18 26  1  0  0  0  0
 19  4  1  0  0  0  0
 20 18  1  0  0  0  0
 21 24  1  0  0  0  0
 22 32  1  0  0  0  0
 23 17  1  0  0  0  0
 24 20  1  0  0  0  0
 25 27  1  0  0  0  0
 26 33  1  6  0  0  0
 27 16  2  0  0  0  0
 28 23  2  0  0  0  0
 28 13  1  0  0  0  0
 30 19  1  0  0  0  0
 32 31  2  0  0  0  0
 33 35  1  0  0  0  0
 34 35  2  0  0  0  0
 35 36  1  0  0  0  0
 36 38  1  0  0  0  0
 38 37  2  0  0  0  0
 39 38  2  0  0  0  0
 40 42  1  0  0  0  0
 41 42  1  0  0  0  0
 43 38  1  6  0  0  0
 43 40  1  0  0  0  0
 44 43  1  0  0  0  0
 44 41  1  0  0  0  0
M  END
>  <MODEL>
6

>  <REMARK>
 VINA RESULT:      -5.9      4.118     10.853
  Name = 
  5 active torsions:
  status: ('A' for Active; 'I' for Inactive)
    1  A    between atoms: S_11  and  N_26
    2  A    between atoms: S_11  and  C_38
    3  A    between atoms: C_25  and  C_40
    4  A    between atoms: C_32  and  C_41
    5  A    between atoms: C_36  and  C_40
                            x       y       z     vdW  Elec       q    Type
                         _______ _______ _______ _____ _____    ______ ____

>  <TORSDO>
F 5

$$$$
