=
 OpenBabel10232408503D

 25 28  0  0  1  0  0  0  0  0999 V2000
  190.1170  176.6650  142.7670 C   0  0  0  0  0  2  0  0  0  0  0  0
  188.5950  177.4350  141.2080 C   0  0  0  0  0  2  0  0  0  0  0  0
  188.8650  177.3910  142.6380 N   0  0  0  0  0  0  0  0  0  0  0  0
  189.9270  177.4030  140.4750 C   0  0  1  0  0  3  0  0  0  0  0  0
  190.9180  176.8960  141.5060 C   0  0  1  0  0  3  0  0  0  0  0  0
  191.8790  177.8790  141.7420 O   0  0  0  0  0  1  0  0  0  0  0  0
  189.7220  177.3110  138.1080 C   0  0  2  0  0  3  0  0  0  0  0  0
  190.6800  176.8450  137.1310 N   0  0  0  0  0  2  0  0  0  0  0  0
  191.6820  176.1820  137.9320 C   0  0  0  0  0  2  0  0  0  0  0  0
  191.0900  175.8280  139.2130 N   0  0  0  0  0  2  0  0  0  0  0  0
  189.8570  176.5020  139.3180 N   0  0  1  0  0  0  0  0  0  0  0  0
  186.3650  176.4060  136.9610 N   0  0  0  0  0  0  0  0  0  0  0  0
  187.8750  179.5870  136.9580 N   0  0  0  0  0  1  0  0  0  0  0  0
  186.3410  177.7070  136.7070 N   0  0  0  0  0  0  0  0  0  0  0  0
  188.3360  177.2080  137.5530 C   0  0  0  0  0  0  0  0  0  0  0  0
  187.5310  178.2090  137.0650 C   0  0  0  0  0  0  0  0  0  0  0  0
  187.5660  176.0660  137.4830 C   0  0  0  0  0  2  0  0  0  0  0  0
  187.8360  176.5660  143.2550 C   0  0  0  0  0  2  0  0  0  0  0  0
  185.9370  178.7170  146.4550 C   0  0  0  0  0  3  0  0  0  0  0  0
  187.7290  177.3120  145.6370 C   0  0  0  0  0  3  0  0  0  0  0  0
  185.3610  178.7240  145.1830 C   0  0  0  0  0  3  0  0  0  0  0  0
  187.1570  177.3150  144.3590 C   0  0  0  0  0  0  0  0  0  0  0  0
  185.1970  178.0550  142.5510 Cl  0  0  0  0  0  0  0  0  0  0  0  0
  187.1210  178.0100  146.6830 C   0  0  0  0  0  3  0  0  0  0  0  0
  185.9650  178.0260  144.1320 C   0  0  0  0  0  0  0  0  0  0  0  0
  2  3  1  0  0  0  0
  3  1  1  0  0  0  0
  3 18  1  0  0  0  0
  4  2  1  1  0  0  0
  4  5  1  0  0  0  0
  5  6  1  1  0  0  0
  5  1  1  0  0  0  0
  7 15  1  6  0  0  0
  7 11  1  0  0  0  0
  8  9  1  0  0  0  0
  8  7  1  0  0  0  0
  9 10  1  0  0  0  0
 11 10  1  6  0  0  0
 11  4  1  0  0  0  0
 12 17  1  0  0  0  0
 13 16  1  0  0  0  0
 14 12  2  0  0  0  0
 14 16  1  0  0  0  0
 16 15  2  0  0  0  0
 17 15  1  0  0  0  0
 18 22  1  0  0  0  0
 19 24  1  0  0  0  0
 20 24  2  0  0  0  0
 21 19  2  0  0  0  0
 22 20  1  0  0  0  0
 23 25  1  0  0  0  0
 25 22  2  0  0  0  0
 25 21  1  0  0  0  0
M  END
>  <MODEL>
1

>  <REMARK>
 VINA RESULT:      -8.0      0.000      0.000
  Name = 
  4 active torsions:
  status: ('A' for Active; 'I' for Inactive)
    1  A    between atoms: C_2  and  C_18
    2  A    between atoms: N_6  and  C_11
    3  A    between atoms: C_11  and  C_19
    4  A    between atoms: C_12  and  N_15
                            x       y       z     vdW  Elec       q    Type
                         _______ _______ _______ _____ _____    ______ ____

>  <TORSDO>
F 4

$$$$
=
 OpenBabel10232408503D

 25 28  0  0  1  0  0  0  0  0999 V2000
  190.1370  176.7020  142.7520 C   0  0  0  0  0  2  0  0  0  0  0  0
  188.5900  177.4350  141.2000 C   0  0  0  0  0  2  0  0  0  0  0  0
  188.8730  177.4070  142.6290 N   0  0  0  0  0  0  0  0  0  0  0  0
  189.9160  177.4170  140.4560 C   0  0  1  0  0  3  0  0  0  0  0  0
  190.9240  176.9350  141.4820 C   0  0  1  0  0  3  0  0  0  0  0  0
  191.8710  177.9360  141.7020 O   0  0  0  0  0  1  0  0  0  0  0  0
  189.6960  177.3030  138.0910 C   0  0  2  0  0  3  0  0  0  0  0  0
  190.6540  176.8420  137.1110 N   0  0  0  0  0  2  0  0  0  0  0  0
  191.6700  176.1990  137.9110 C   0  0  0  0  0  2  0  0  0  0  0  0
  191.0910  175.8480  139.1990 N   0  0  0  0  0  2  0  0  0  0  0  0
  189.8500  176.5060  139.3070 N   0  0  1  0  0  0  0  0  0  0  0  0
  186.3450  176.3430  136.9730 N   0  0  0  0  0  0  0  0  0  0  0  0
  187.8080  179.5450  136.9420 N   0  0  0  0  0  1  0  0  0  0  0  0
  186.3000  177.6420  136.7120 N   0  0  0  0  0  0  0  0  0  0  0  0
  188.3070  177.1770  137.5470 C   0  0  0  0  0  0  0  0  0  0  0  0
  187.4850  178.1630  137.0590 C   0  0  0  0  0  0  0  0  0  0  0  0
  187.5540  176.0230  137.4880 C   0  0  0  0  0  2  0  0  0  0  0  0
  187.8630  176.5710  143.2610 C   0  0  0  0  0  2  0  0  0  0  0  0
  185.3720  178.9030  145.8740 C   0  0  0  0  0  3  0  0  0  0  0  0
  185.8080  177.9190  143.7070 C   0  0  0  0  0  3  0  0  0  0  0  0
  186.5720  178.3740  146.3560 C   0  0  0  0  0  3  0  0  0  0  0  0
  187.0110  177.3870  144.1830 C   0  0  0  0  0  0  0  0  0  0  0  0
  188.9000  176.9820  146.1650 Cl  0  0  0  0  0  0  0  0  0  0  0  0
  184.9900  178.6760  144.5490 C   0  0  0  0  0  3  0  0  0  0  0  0
  187.3950  177.6160  145.5170 C   0  0  0  0  0  0  0  0  0  0  0  0
  2  3  1  0  0  0  0
  3  1  1  0  0  0  0
  3 18  1  0  0  0  0
  4  2  1  1  0  0  0
  4  5  1  0  0  0  0
  5  6  1  1  0  0  0
  5  1  1  0  0  0  0
  7 15  1  6  0  0  0
  7 11  1  0  0  0  0
  8  9  1  0  0  0  0
  8  7  1  0  0  0  0
  9 10  1  0  0  0  0
 11 10  1  6  0  0  0
 11  4  1  0  0  0  0
 12 17  1  0  0  0  0
 13 16  1  0  0  0  0
 14 12  2  0  0  0  0
 14 16  1  0  0  0  0
 16 15  2  0  0  0  0
 17 15  1  0  0  0  0
 18 22  1  0  0  0  0
 19 21  1  0  0  0  0
 20 22  2  0  0  0  0
 20 24  1  0  0  0  0
 22 25  1  0  0  0  0
 24 19  2  0  0  0  0
 25 23  1  0  0  0  0
 25 21  2  0  0  0  0
M  END
>  <MODEL>
2

>  <REMARK>
 VINA RESULT:      -7.9      1.096      1.458
  Name = 
  4 active torsions:
  status: ('A' for Active; 'I' for Inactive)
    1  A    between atoms: C_2  and  C_18
    2  A    between atoms: N_6  and  C_11
    3  A    between atoms: C_11  and  C_19
    4  A    between atoms: C_12  and  N_15
                            x       y       z     vdW  Elec       q    Type
                         _______ _______ _______ _____ _____    ______ ____

>  <TORSDO>
F 4

$$$$
=
 OpenBabel10232408503D

 25 28  0  0  1  0  0  0  0  0999 V2000
  190.0410  176.6070  142.8790 C   0  0  0  0  0  2  0  0  0  0  0  0
  188.4910  177.5030  141.4160 C   0  0  0  0  0  2  0  0  0  0  0  0
  188.8150  177.3880  142.8320 N   0  0  0  0  0  0  0  0  0  0  0  0
  189.7910  177.4490  140.6290 C   0  0  1  0  0  3  0  0  0  0  0  0
  190.8010  176.8600  141.5970 C   0  0  1  0  0  3  0  0  0  0  0  0
  191.8090  177.7940  141.8330 O   0  0  0  0  0  1  0  0  0  0  0  0
  189.3030  177.4550  138.3010 C   0  0  2  0  0  3  0  0  0  0  0  0
  190.1630  177.1070  137.1920 N   0  0  0  0  0  2  0  0  0  0  0  0
  191.2970  176.4800  137.8300 C   0  0  0  0  0  2  0  0  0  0  0  0
  190.8910  176.0240  139.1510 N   0  0  0  0  0  2  0  0  0  0  0  0
  189.6390  176.6020  139.4390 N   0  0  1  0  0  0  0  0  0  0  0  0
  185.7390  177.6950  137.5010 N   0  0  0  0  0  0  0  0  0  0  0  0
  187.8880  174.9450  137.0320 N   0  0  0  0  0  1  0  0  0  0  0  0
  185.9700  176.4510  137.1050 N   0  0  0  0  0  0  0  0  0  0  0  0
  187.8690  177.2800  137.9110 C   0  0  0  0  0  0  0  0  0  0  0  0
  187.2620  176.1850  137.3450 C   0  0  0  0  0  0  0  0  0  0  0  0
  186.8770  178.2350  137.9940 C   0  0  0  0  0  2  0  0  0  0  0  0
  187.7790  176.5790  143.4560 C   0  0  0  0  0  2  0  0  0  0  0  0
  185.3710  178.9590  146.1030 C   0  0  0  0  0  3  0  0  0  0  0  0
  185.7510  177.9570  143.9330 C   0  0  0  0  0  3  0  0  0  0  0  0
  186.5730  178.4180  146.5640 C   0  0  0  0  0  3  0  0  0  0  0  0
  186.9560  177.4110  144.3890 C   0  0  0  0  0  0  0  0  0  0  0  0
  188.8790  176.9940  146.3360 Cl  0  0  0  0  0  0  0  0  0  0  0  0
  184.9600  178.7300  144.7870 C   0  0  0  0  0  3  0  0  0  0  0  0
  187.3690  177.6440  145.7140 C   0  0  0  0  0  0  0  0  0  0  0  0
  2  3  1  0  0  0  0
  3  1  1  0  0  0  0
  3 18  1  0  0  0  0
  4  2  1  1  0  0  0
  4  5  1  0  0  0  0
  5  6  1  1  0  0  0
  5  1  1  0  0  0  0
  7 15  1  6  0  0  0
  7 11  1  0  0  0  0
  8  9  1  0  0  0  0
  8  7  1  0  0  0  0
  9 10  1  0  0  0  0
 11 10  1  6  0  0  0
 11  4  1  0  0  0  0
 12 17  1  0  0  0  0
 13 16  1  0  0  0  0
 14 16  1  0  0  0  0
 14 12  2  0  0  0  0
 15 17  1  0  0  0  0
 16 15  2  0  0  0  0
 18 22  1  0  0  0  0
 19 21  1  0  0  0  0
 20 22  2  0  0  0  0
 20 24  1  0  0  0  0
 22 25  1  0  0  0  0
 24 19  2  0  0  0  0
 25 23  1  0  0  0  0
 25 21  2  0  0  0  0
M  END
>  <MODEL>
3

>  <REMARK>
 VINA RESULT:      -7.9      1.316      1.905
  Name = 
  4 active torsions:
  status: ('A' for Active; 'I' for Inactive)
    1  A    between atoms: C_2  and  C_18
    2  A    between atoms: N_6  and  C_11
    3  A    between atoms: C_11  and  C_19
    4  A    between atoms: C_12  and  N_15
                            x       y       z     vdW  Elec       q    Type
                         _______ _______ _______ _____ _____    ______ ____

>  <TORSDO>
F 4

$$$$
=
 OpenBabel10232408503D

 25 28  0  0  1  0  0  0  0  0999 V2000
  189.0310  176.1030  142.8100 C   0  0  0  0  0  2  0  0  0  0  0  0
  188.9390  178.3190  142.1620 C   0  0  0  0  0  2  0  0  0  0  0  0
  188.5410  177.4070  143.2250 N   0  0  0  0  0  0  0  0  0  0  0  0
  190.2060  177.7740  141.5220 C   0  0  1  0  0  3  0  0  0  0  0  0
  190.2570  176.3200  141.9530 C   0  0  1  0  0  3  0  0  0  0  0  0
  191.4020  176.1080  142.7200 O   0  0  0  0  0  1  0  0  0  0  0  0
  190.1550  176.5510  139.4830 C   0  0  2  0  0  3  0  0  0  0  0  0
  189.0910  176.4520  138.5100 N   0  0  0  0  0  2  0  0  0  0  0  0
  188.1710  177.4900  138.9110 C   0  0  0  0  0  2  0  0  0  0  0  0
  188.8910  178.4580  139.7250 N   0  0  0  0  0  2  0  0  0  0  0  0
  190.1380  177.8930  140.0600 N   0  0  1  0  0  0  0  0  0  0  0  0
  193.6050  176.3870  138.2710 N   0  0  0  0  0  0  0  0  0  0  0  0
  190.9480  174.1880  137.5600 N   0  0  0  0  0  1  0  0  0  0  0  0
  193.1100  175.3140  137.6690 N   0  0  0  0  0  0  0  0  0  0  0  0
  191.4720  176.2700  138.8310 C   0  0  0  0  0  0  0  0  0  0  0  0
  191.8140  175.2290  138.0020 C   0  0  0  0  0  0  0  0  0  0  0  0
  192.6360  176.9930  138.9930 C   0  0  0  0  0  2  0  0  0  0  0  0
  187.0870  177.3310  143.2180 C   0  0  0  0  0  2  0  0  0  0  0  0
  185.5490  178.6450  147.0090 C   0  0  0  0  0  3  0  0  0  0  0  0
  187.3250  177.6780  145.6800 C   0  0  0  0  0  3  0  0  0  0  0  0
  184.7530  178.7550  145.8670 C   0  0  0  0  0  3  0  0  0  0  0  0
  186.5330  177.7870  144.5310 C   0  0  0  0  0  0  0  0  0  0  0  0
  184.1960  178.4780  143.2190 Cl  0  0  0  0  0  0  0  0  0  0  0  0
  186.8350  178.1050  146.9160 C   0  0  0  0  0  3  0  0  0  0  0  0
  185.2380  178.3290  144.6260 C   0  0  0  0  0  0  0  0  0  0  0  0
  1  3  1  0  0  0  0
  2  3  1  0  0  0  0
  4  5  1  0  0  0  0
  4  2  1  1  0  0  0
  5  6  1  1  0  0  0
  5  1  1  0  0  0  0
  7 15  1  6  0  0  0
  7 11  1  0  0  0  0
  8  9  1  0  0  0  0
  8  7  1  0  0  0  0
  9 10  1  0  0  0  0
 11 10  1  1  0  0  0
 11  4  1  0  0  0  0
 12 17  1  0  0  0  0
 13 16  1  0  0  0  0
 14 16  1  0  0  0  0
 14 12  2  0  0  0  0
 15 17  1  0  0  0  0
 16 15  2  0  0  0  0
 18  3  1  0  0  0  0
 18 22  1  0  0  0  0
 20 24  2  0  0  0  0
 21 19  2  0  0  0  0
 22 25  2  0  0  0  0
 22 20  1  0  0  0  0
 23 25  1  0  0  0  0
 24 19  1  0  0  0  0
 25 21  1  0  0  0  0
M  END
>  <MODEL>
4

>  <REMARK>
 VINA RESULT:      -7.7      1.699      3.274
  Name = 
  4 active torsions:
  status: ('A' for Active; 'I' for Inactive)
    1  A    between atoms: C_2  and  C_18
    2  A    between atoms: N_6  and  C_11
    3  A    between atoms: C_11  and  C_19
    4  A    between atoms: C_12  and  N_15
                            x       y       z     vdW  Elec       q    Type
                         _______ _______ _______ _____ _____    ______ ____

>  <TORSDO>
F 4

$$$$
=
 OpenBabel10232408503D

 25 28  0  0  1  0  0  0  0  0999 V2000
  187.9710  178.8030  141.8990 C   0  0  0  0  0  2  0  0  0  0  0  0
  189.2580  177.0170  141.1960 C   0  0  0  0  0  2  0  0  0  0  0  0
  188.5620  177.5570  142.3560 N   0  0  0  0  0  0  0  0  0  0  0  0
  188.5370  177.4990  139.9470 C   0  0  1  0  0  3  0  0  0  0  0  0
  187.6950  178.6700  140.4190 C   0  0  1  0  0  3  0  0  0  0  0  0
  186.3460  178.3740  140.2240 O   0  0  0  0  0  1  0  0  0  0  0  0
  189.4680  176.9470  137.8300 C   0  0  2  0  0  3  0  0  0  0  0  0
  189.3660  177.6640  136.5780 N   0  0  0  0  0  2  0  0  0  0  0  0
  188.8110  178.9390  136.9660 C   0  0  0  0  0  2  0  0  0  0  0  0
  189.0650  179.1430  138.3840 N   0  0  0  0  0  2  0  0  0  0  0  0
  189.5020  177.9160  138.9230 N   0  0  1  0  0  0  0  0  0  0  0  0
  192.7980  175.4440  138.0510 N   0  0  0  0  0  0  0  0  0  0  0  0
  189.7400  173.8480  137.3470 N   0  0  0  0  0  1  0  0  0  0  0  0
  192.0880  174.3620  137.7660 N   0  0  0  0  0  0  0  0  0  0  0  0
  190.7000  176.0980  137.8340 C   0  0  0  0  0  0  0  0  0  0  0  0
  190.8090  174.7430  137.6350 C   0  0  0  0  0  0  0  0  0  0  0  0
  191.9840  176.5230  138.1050 C   0  0  0  0  0  2  0  0  0  0  0  0
  189.5670  177.9080  143.3480 C   0  0  0  0  0  2  0  0  0  0  0  0
  188.0080  177.2270  147.2950 C   0  0  0  0  0  3  0  0  0  0  0  0
  187.6730  177.8280  144.9750 C   0  0  0  0  0  3  0  0  0  0  0  0
  189.3760  177.0730  147.0580 C   0  0  0  0  0  3  0  0  0  0  0  0
  189.0430  177.6740  144.7300 C   0  0  0  0  0  0  0  0  0  0  0  0
  191.6280  177.0980  145.5340 Cl  0  0  0  0  0  0  0  0  0  0  0  0
  187.1560  177.6060  146.2540 C   0  0  0  0  0  3  0  0  0  0  0  0
  189.8990  177.2940  145.7800 C   0  0  0  0  0  0  0  0  0  0  0  0
  1  3  1  0  0  0  0
  2  3  1  0  0  0  0
  3 18  1  0  0  0  0
  4  5  1  0  0  0  0
  4  2  1  1  0  0  0
  5  6  1  1  0  0  0
  5  1  1  0  0  0  0
  7 15  1  6  0  0  0
  7 11  1  0  0  0  0
  8  9  1  0  0  0  0
  8  7  1  0  0  0  0
  9 10  1  0  0  0  0
 11 10  1  6  0  0  0
 11  4  1  0  0  0  0
 12 17  1  0  0  0  0
 13 16  1  0  0  0  0
 14 12  2  0  0  0  0
 15 17  1  0  0  0  0
 16 14  1  0  0  0  0
 16 15  2  0  0  0  0
 18 22  1  0  0  0  0
 20 24  1  0  0  0  0
 21 19  1  0  0  0  0
 22 20  2  0  0  0  0
 22 25  1  0  0  0  0
 23 25  1  0  0  0  0
 24 19  2  0  0  0  0
 25 21  2  0  0  0  0
M  END
>  <MODEL>
5

>  <REMARK>
 VINA RESULT:      -7.6      2.462      3.916
  Name = 
  4 active torsions:
  status: ('A' for Active; 'I' for Inactive)
    1  A    between atoms: C_2  and  C_18
    2  A    between atoms: N_6  and  C_11
    3  A    between atoms: C_11  and  C_19
    4  A    between atoms: C_12  and  N_15
                            x       y       z     vdW  Elec       q    Type
                         _______ _______ _______ _____ _____    ______ ____

>  <TORSDO>
F 4

$$$$
=
 OpenBabel10232408503D

 25 28  0  0  1  0  0  0  0  0999 V2000
  190.1730  177.2340  141.2940 C   0  0  0  0  0  2  0  0  0  0  0  0
  187.9210  177.5700  141.6910 C   0  0  0  0  0  2  0  0  0  0  0  0
  188.8810  177.2940  140.6310 N   0  0  0  0  0  0  0  0  0  0  0  0
  188.4670  176.9860  142.9850 C   0  0  1  0  0  3  0  0  0  0  0  0
  189.9440  176.7690  142.7140 C   0  0  1  0  0  3  0  0  0  0  0  0
  190.2330  175.4080  142.8080 O   0  0  0  0  0  1  0  0  0  0  0  0
  187.2520  177.3590  144.9950 C   0  0  2  0  0  3  0  0  0  0  0  0
  187.7440  177.4360  146.3530 N   0  0  0  0  0  2  0  0  0  0  0  0
  189.1760  177.5190  146.1870 C   0  0  0  0  0  2  0  0  0  0  0  0
  189.4600  177.9870  144.8390 N   0  0  0  0  0  2  0  0  0  0  0  0
  188.2620  177.9190  144.1000 N   0  0  1  0  0  0  0  0  0  0  0  0
  184.0570  178.8960  144.0840 N   0  0  0  0  0  0  0  0  0  0  0  0
  185.7490  179.0730  147.1670 N   0  0  0  0  0  1  0  0  0  0  0  0
  184.1540  179.3180  145.3370 N   0  0  0  0  0  2  0  0  0  0  0  0
  185.9620  178.1090  144.8760 C   0  0  0  0  0  0  0  0  0  0  0  0
  185.3060  178.8440  145.8330 C   0  0  0  0  0  0  0  0  0  0  0  0
  185.1410  178.1510  143.7690 C   0  0  0  0  0  3  0  0  0  0  0  0
  188.9130  178.4560  139.7540 C   0  0  0  0  0  2  0  0  0  0  0  0
  188.1500  177.2730  135.6940 C   0  0  0  0  0  3  0  0  0  0  0  0
  189.6980  177.7290  137.4970 C   0  0  0  0  0  3  0  0  0  0  0  0
  187.0790  177.5950  136.5310 C   0  0  0  0  0  3  0  0  0  0  0  0
  188.6290  178.0530  138.3410 C   0  0  0  0  0  0  0  0  0  0  0  0
  185.9320  178.3900  138.8650 Cl  0  0  0  0  0  0  0  0  0  0  0  0
  189.4600  177.3410  136.1760 C   0  0  0  0  0  3  0  0  0  0  0  0
  187.3110  177.9840  137.8540 C   0  0  0  0  0  0  0  0  0  0  0  0
  1  5  1  0  0  0  0
  3  1  1  0  0  0  0
  3  2  1  0  0  0  0
  4  2  1  6  0  0  0
  4 11  1  0  0  0  0
  5  6  1  6  0  0  0
  5  4  1  0  0  0  0
  7 15  1  1  0  0  0
  7  8  1  0  0  0  0
  9  8  1  0  0  0  0
 10  9  1  0  0  0  0
 11 10  1  1  0  0  0
 11  7  1  0  0  0  0
 12 14  1  0  0  0  0
 14 16  1  0  0  0  0
 15 16  2  0  0  0  0
 16 13  1  0  0  0  0
 17 12  2  0  0  0  0
 17 15  1  0  0  0  0
 18  3  1  0  0  0  0
 19 24  2  0  0  0  0
 19 21  1  0  0  0  0
 20 22  2  0  0  0  0
 21 25  2  0  0  0  0
 22 18  1  0  0  0  0
 24 20  1  0  0  0  0
 25 22  1  0  0  0  0
 25 23  1  0  0  0  0
M  END
>  <MODEL>
6

>  <REMARK>
 VINA RESULT:      -7.3      2.560      7.109
  Name = 
  4 active torsions:
  status: ('A' for Active; 'I' for Inactive)
    1  A    between atoms: C_2  and  C_18
    2  A    between atoms: N_6  and  C_11
    3  A    between atoms: C_11  and  C_19
    4  A    between atoms: C_12  and  N_15
                            x       y       z     vdW  Elec       q    Type
                         _______ _______ _______ _____ _____    ______ ____

>  <TORSDO>
F 4

$$$$
=
 OpenBabel10232408503D

 25 28  0  0  1  0  0  0  0  0999 V2000
  190.2870  176.9470  141.3560 C   0  0  0  0  0  2  0  0  0  0  0  0
  188.2260  177.5860  142.1820 C   0  0  0  0  0  2  0  0  0  0  0  0
  188.9210  177.2330  140.9520 N   0  0  0  0  0  0  0  0  0  0  0  0
  188.9020  176.8560  143.3320 C   0  0  1  0  0  3  0  0  0  0  0  0
  190.2530  176.4410  142.7800 C   0  0  1  0  0  3  0  0  0  0  0  0
  190.3410  175.0490  142.7790 O   0  0  0  0  0  1  0  0  0  0  0  0
  188.3790  177.1340  145.6350 C   0  0  2  0  0  3  0  0  0  0  0  0
  189.2730  177.1710  146.7710 N   0  0  0  0  0  2  0  0  0  0  0  0
  190.5790  177.2880  146.1670 C   0  0  0  0  0  2  0  0  0  0  0  0
  190.4210  177.8090  144.8190 N   0  0  0  0  0  2  0  0  0  0  0  0
  189.0520  177.7450  144.4910 N   0  0  1  0  0  0  0  0  0  0  0  0
  185.0850  178.7220  145.7930 N   0  0  0  0  0  0  0  0  0  0  0  0
  187.4810  178.4380  148.3570 N   0  0  0  0  0  1  0  0  0  0  0  0
  185.4920  178.9380  147.0360 N   0  0  0  0  0  2  0  0  0  0  0  0
  187.1120  177.8620  145.9580 C   0  0  0  0  0  0  0  0  0  0  0  0
  186.7220  178.4170  147.1520 C   0  0  0  0  0  0  0  0  0  0  0  0
  186.0460  178.0630  145.1060 C   0  0  0  0  0  3  0  0  0  0  0  0
  188.9710  178.4250  140.1180 C   0  0  0  0  0  2  0  0  0  0  0  0
  188.0330  177.4300  136.0440 C   0  0  0  0  0  3  0  0  0  0  0  0
  189.6570  177.7980  137.8000 C   0  0  0  0  0  3  0  0  0  0  0  0
  186.9990  177.7180  136.9380 C   0  0  0  0  0  3  0  0  0  0  0  0
  188.6260  178.0870  138.7010 C   0  0  0  0  0  0  0  0  0  0  0  0
  185.9560  178.4130  139.3520 Cl  0  0  0  0  0  0  0  0  0  0  0  0
  189.3620  177.4710  136.4740 C   0  0  0  0  0  3  0  0  0  0  0  0
  187.2890  178.0470  138.2670 C   0  0  0  0  0  0  0  0  0  0  0  0
  1  5  1  0  0  0  0
  3  1  1  0  0  0  0
  3  2  1  0  0  0  0
  4  2  1  6  0  0  0
  4 11  1  0  0  0  0
  5  6  1  6  0  0  0
  5  4  1  0  0  0  0
  7 15  1  1  0  0  0
  7  8  1  0  0  0  0
  9  8  1  0  0  0  0
 10  9  1  0  0  0  0
 11 10  1  1  0  0  0
 11  7  1  0  0  0  0
 12 14  1  0  0  0  0
 14 16  1  0  0  0  0
 15 16  2  0  0  0  0
 16 13  1  0  0  0  0
 17 12  2  0  0  0  0
 17 15  1  0  0  0  0
 18  3  1  0  0  0  0
 19 24  2  0  0  0  0
 19 21  1  0  0  0  0
 20 22  2  0  0  0  0
 21 25  2  0  0  0  0
 22 18  1  0  0  0  0
 24 20  1  0  0  0  0
 25 22  1  0  0  0  0
 25 23  1  0  0  0  0
M  END
>  <MODEL>
7

>  <REMARK>
 VINA RESULT:      -7.2      2.629      7.321
  Name = 
  4 active torsions:
  status: ('A' for Active; 'I' for Inactive)
    1  A    between atoms: C_2  and  C_18
    2  A    between atoms: N_6  and  C_11
    3  A    between atoms: C_11  and  C_19
    4  A    between atoms: C_12  and  N_15
                            x       y       z     vdW  Elec       q    Type
                         _______ _______ _______ _____ _____    ______ ____

>  <TORSDO>
F 4

$$$$
=
 OpenBabel10232408503D

 25 28  0  0  1  0  0  0  0  0999 V2000
  190.4590  176.9730  141.4540 C   0  0  0  0  0  2  0  0  0  0  0  0
  188.2250  177.5510  141.5820 C   0  0  0  0  0  2  0  0  0  0  0  0
  189.2670  177.1590  140.6430 N   0  0  0  0  0  0  0  0  0  0  0  0
  188.5490  176.9330  142.9330 C   0  0  1  0  0  3  0  0  0  0  0  0
  190.0160  176.5580  142.8390 C   0  0  1  0  0  3  0  0  0  0  0  0
  190.1460  175.1750  142.9710 O   0  0  0  0  0  1  0  0  0  0  0  0
  187.3290  177.3410  144.9330 C   0  0  2  0  0  3  0  0  0  0  0  0
  187.8230  177.4850  146.2840 N   0  0  0  0  0  2  0  0  0  0  0  0
  189.2510  177.6120  146.1080 C   0  0  0  0  0  2  0  0  0  0  0  0
  189.5130  178.0380  144.7430 N   0  0  0  0  0  2  0  0  0  0  0  0
  188.3160  177.9010  144.0120 N   0  0  1  0  0  0  0  0  0  0  0  0
  184.1010  178.7670  143.9610 N   0  0  0  0  0  0  0  0  0  0  0  0
  185.6950  178.9410  147.0960 N   0  0  0  0  0  1  0  0  0  0  0  0
  184.1450  179.1640  145.2250 N   0  0  0  0  0  2  0  0  0  0  0  0
  186.0140  178.0400  144.7920 C   0  0  0  0  0  0  0  0  0  0  0  0
  185.3000  178.7260  145.7450 C   0  0  0  0  0  0  0  0  0  0  0  0
  185.2230  178.0740  143.6620 C   0  0  0  0  0  3  0  0  0  0  0  0
  189.5260  178.2970  139.7730 C   0  0  0  0  0  2  0  0  0  0  0  0
  188.3860  177.4140  135.7240 C   0  0  0  0  0  3  0  0  0  0  0  0
  187.9060  178.4130  137.8750 C   0  0  0  0  0  3  0  0  0  0  0  0
  189.6210  176.9720  136.2040 C   0  0  0  0  0  3  0  0  0  0  0  0
  189.1420  177.9740  138.3630 C   0  0  0  0  0  0  0  0  0  0  0  0
  191.5640  176.6630  138.0830 Cl  0  0  0  0  0  0  0  0  0  0  0  0
  187.5270  178.1330  136.5600 C   0  0  0  0  0  3  0  0  0  0  0  0
  190.0050  177.2490  137.5200 C   0  0  0  0  0  0  0  0  0  0  0  0
  1  5  1  0  0  0  0
  3  1  1  0  0  0  0
  3  2  1  0  0  0  0
  4  2  1  6  0  0  0
  4 11  1  0  0  0  0
  5  4  1  0  0  0  0
  5  6  1  6  0  0  0
  7 15  1  1  0  0  0
  7  8  1  0  0  0  0
  9  8  1  0  0  0  0
 10  9  1  0  0  0  0
 11 10  1  1  0  0  0
 11  7  1  0  0  0  0
 12 14  1  0  0  0  0
 14 16  1  0  0  0  0
 15 16  2  0  0  0  0
 16 13  1  0  0  0  0
 17 12  2  0  0  0  0
 17 15  1  0  0  0  0
 18  3  1  0  0  0  0
 19 21  2  0  0  0  0
 19 24  1  0  0  0  0
 20 22  1  0  0  0  0
 21 25  1  0  0  0  0
 22 18  1  0  0  0  0
 24 20  2  0  0  0  0
 25 23  1  0  0  0  0
 25 22  2  0  0  0  0
M  END
>  <MODEL>
8

>  <REMARK>
 VINA RESULT:      -7.2      2.870      7.258
  Name = 
  4 active torsions:
  status: ('A' for Active; 'I' for Inactive)
    1  A    between atoms: C_2  and  C_18
    2  A    between atoms: N_6  and  C_11
    3  A    between atoms: C_11  and  C_19
    4  A    between atoms: C_12  and  N_15
                            x       y       z     vdW  Elec       q    Type
                         _______ _______ _______ _____ _____    ______ ____

>  <TORSDO>
F 4

$$$$
=
 OpenBabel10232408503D

 25 28  0  0  1  0  0  0  0  0999 V2000
  190.8790  176.8100  144.5000 C   0  0  0  0  0  2  0  0  0  0  0  0
  189.0490  177.9730  143.7000 C   0  0  0  0  0  2  0  0  0  0  0  0
  189.8090  177.7030  144.9120 N   0  0  0  0  0  0  0  0  0  0  0  0
  189.9970  177.8660  142.5150 C   0  0  1  0  0  3  0  0  0  0  0  0
  191.1940  177.1020  143.0510 C   0  0  1  0  0  3  0  0  0  0  0  0
  192.3260  177.9120  142.9770 O   0  0  0  0  0  1  0  0  0  0  0  0
  189.1070  178.0910  140.3220 C   0  0  2  0  0  3  0  0  0  0  0  0
  189.5830  177.5140  139.0850 N   0  0  0  0  0  2  0  0  0  0  0  0
  190.5540  176.5380  139.5210 C   0  0  0  0  0  2  0  0  0  0  0  0
  190.2800  176.2030  140.9100 N   0  0  0  0  0  2  0  0  0  0  0  0
  189.3590  177.1450  141.4070 N   0  0  1  0  0  0  0  0  0  0  0  0
  185.5860  179.0120  140.7220 N   0  0  0  0  0  0  0  0  0  0  0  0
  187.2720  178.1120  137.7640 N   0  0  0  0  0  1  0  0  0  0  0  0
  185.6080  178.7880  139.4150 N   0  0  0  0  0  0  0  0  0  0  0  0
  187.6460  178.3980  140.2130 C   0  0  0  0  0  0  0  0  0  0  0  0
  186.8550  178.4180  139.0910 C   0  0  0  0  0  0  0  0  0  0  0  0
  186.8140  178.7880  141.2420 C   0  0  0  0  0  2  0  0  0  0  0  0
  188.9510  176.9440  145.8090 C   0  0  0  0  0  2  0  0  0  0  0  0
  185.0420  178.7200  146.0130 C   0  0  0  0  0  3  0  0  0  0  0  0
  186.7420  177.5080  144.7890 C   0  0  0  0  0  3  0  0  0  0  0  0
  185.8900  178.7890  147.1210 C   0  0  0  0  0  3  0  0  0  0  0  0
  187.5960  177.5740  145.8960 C   0  0  0  0  0  0  0  0  0  0  0  0
  188.2000  178.3410  148.4860 Cl  0  0  0  0  0  0  0  0  0  0  0  0
  185.4690  178.0800  144.8460 C   0  0  0  0  0  3  0  0  0  0  0  0
  187.1660  178.2190  147.0700 C   0  0  0  0  0  0  0  0  0  0  0  0
  1  3  1  0  0  0  0
  2  3  1  0  0  0  0
  3 18  1  0  0  0  0
  4  5  1  0  0  0  0
  4  2  1  1  0  0  0
  5  6  1  1  0  0  0
  5  1  1  0  0  0  0
  7 15  1  6  0  0  0
  7 11  1  0  0  0  0
  8  9  1  0  0  0  0
  8  7  1  0  0  0  0
  9 10  1  0  0  0  0
 11 10  1  6  0  0  0
 11  4  1  0  0  0  0
 12 17  1  0  0  0  0
 13 16  1  0  0  0  0
 14 12  2  0  0  0  0
 15 17  1  0  0  0  0
 16 14  1  0  0  0  0
 16 15  2  0  0  0  0
 18 22  1  0  0  0  0
 19 21  1  0  0  0  0
 20 24  1  0  0  0  0
 20 22  2  0  0  0  0
 22 25  1  0  0  0  0
 24 19  2  0  0  0  0
 25 21  2  0  0  0  0
 25 23  1  0  0  0  0
M  END
>  <MODEL>
9

>  <REMARK>
 VINA RESULT:      -7.1      2.156      2.803
  Name = 
  4 active torsions:
  status: ('A' for Active; 'I' for Inactive)
    1  A    between atoms: C_2  and  C_18
    2  A    between atoms: N_6  and  C_11
    3  A    between atoms: C_11  and  C_19
    4  A    between atoms: C_12  and  N_15
                            x       y       z     vdW  Elec       q    Type
                         _______ _______ _______ _____ _____    ______ ____

>  <TORSDO>
F 4

$$$$
