=
 OpenBabel10232411373D

 27 31  0  0  1  0  0  0  0  0999 V2000
  186.2840  177.5990  144.7870 C   0  0  0  0  0  3  0  0  0  0  0  0
  187.6200  177.2180  144.8980 C   0  0  0  0  0  0  0  0  0  0  0  0
  187.8980  177.5910  142.5170 C   0  0  0  0  0  0  0  0  0  0  0  0
  188.4310  177.2150  143.7570 C   0  0  0  0  0  3  0  0  0  0  0  0
  185.7690  177.9740  143.5400 C   0  0  0  0  0  0  0  0  0  0  0  0
  186.5870  177.9610  142.4500 N   0  0  0  0  0  0  0  0  0  0  0  0
  189.8450  176.7900  141.1780 C   0  0  0  0  0  0  0  0  0  0  0  0
  190.6720  176.8100  139.9610 C   0  0  0  0  0  3  0  0  0  0  0  0
  190.2200  175.9160  142.1920 O   0  0  0  0  0  1  0  0  0  0  0  0
  189.0450  179.2070  137.9900 O   0  0  0  0  0  0  0  0  0  0  0  0
  190.4000  177.5890  138.9630 N   0  0  0  0  0  0  0  0  0  0  0  0
  188.7640  177.5970  141.3020 C   0  0  0  0  0  0  0  0  0  0  0  0
  188.3980  178.5650  140.1930 C   0  0  0  0  0  2  0  0  0  0  0  0
  189.2830  178.4790  138.9870 C   0  0  0  0  0  0  0  0  0  0  0  0
  182.2530  179.1240  144.3710 C   0  0  0  0  0  3  0  0  0  0  0  0
  184.3550  178.3840  143.3960 C   0  0  0  0  0  0  0  0  0  0  0  0
  180.2510  179.5700  142.9450 C   0  0  0  0  0  1  0  0  0  0  0  0
  183.5880  178.7380  144.5180 C   0  0  0  0  0  3  0  0  0  0  0  0
  183.7600  178.4230  142.1250 C   0  0  0  0  0  3  0  0  0  0  0  0
  182.4250  178.8090  141.9780 C   0  0  0  0  0  3  0  0  0  0  0  0
  181.6720  179.1590  143.1020 C   0  0  0  0  0  0  0  0  0  0  0  0
  189.1920  178.9450  148.2070 C   0  0  0  0  0  2  0  0  0  0  0  0
  189.5950  177.2630  146.4170 C   0  0  0  0  0  2  0  0  0  0  0  0
  188.1580  176.8200  146.2370 C   0  0  1  0  0  3  0  0  0  0  0  0
  188.3720  177.7020  148.4910 C   0  0  2  0  0  3  0  0  0  0  0  0
  189.7660  177.5770  147.8930 C   0  0  2  0  0  3  0  0  0  0  0  0
  187.3810  177.4600  147.3650 C   0  0  0  0  0  2  0  0  0  0  0  0
  1  2  1  0  0  0  0
  3  4  1  0  0  0  0
  4  2  2  0  0  0  0
  5  1  2  0  0  0  0
  6  3  2  0  0  0  0
  6  5  1  0  0  0  0
  7 12  2  0  0  0  0
  7  9  1  0  0  0  0
  8  7  1  0  0  0  0
 10 14  2  0  0  0  0
 11 14  1  0  0  0  0
 11  8  2  0  0  0  0
 12  3  1  0  0  0  0
 13 12  1  0  0  0  0
 14 13  1  0  0  0  0
 15 18  1  0  0  0  0
 16  5  1  0  0  0  0
 16 18  2  0  0  0  0
 17 21  1  0  0  0  0
 19 16  1  0  0  0  0
 20 19  2  0  0  0  0
 20 21  1  0  0  0  0
 21 15  2  0  0  0  0
 22 25  1  0  0  0  0
 24  2  1  6  0  0  0
 24 23  1  0  0  0  0
 24 27  1  0  0  0  0
 25 27  1  6  0  0  0
 26 23  1  6  0  0  0
 26 22  1  0  0  0  0
 26 25  1  0  0  0  0
M  END
>  <MODEL>
1

>  <REMARK>
 VINA RESULT:     -10.3      0.000      0.000
  Name = 
  3 active torsions:
  status: ('A' for Active; 'I' for Inactive)
    1  A    between atoms: C_5  and  C_11
    2  A    between atoms: C_6  and  C_17
    3  A    between atoms: C_7  and  C_18
                            x       y       z     vdW  Elec       q    Type
                         _______ _______ _______ _____ _____    ______ ____

>  <TORSDO>
F 3

$$$$
=
 OpenBabel10232411373D

 27 31  0  0  1  0  0  0  0  0999 V2000
  189.1200  177.8900  142.1620 C   0  0  0  0  0  3  0  0  0  0  0  0
  188.2570  178.2870  141.1410 C   0  0  0  0  0  0  0  0  0  0  0  0
  186.4200  178.2770  142.7260 C   0  0  0  0  0  0  0  0  0  0  0  0
  186.9000  178.4820  141.4250 C   0  0  0  0  0  3  0  0  0  0  0  0
  188.6220  177.6920  143.4550 C   0  0  0  0  0  0  0  0  0  0  0  0
  187.2960  177.8930  143.6970 N   0  0  0  0  0  0  0  0  0  0  0  0
  184.5310  178.7650  144.2810 C   0  0  0  0  0  0  0  0  0  0  0  0
  183.1010  178.9880  144.5470 C   0  0  0  0  0  3  0  0  0  0  0  0
  185.4030  178.8400  145.3620 O   0  0  0  0  0  1  0  0  0  0  0  0
  181.6840  178.6420  141.3610 O   0  0  0  0  0  0  0  0  0  0  0  0
  182.2150  178.9400  143.6040 N   0  0  0  0  0  0  0  0  0  0  0  0
  184.9760  178.4940  143.0310 C   0  0  0  0  0  0  0  0  0  0  0  0
  183.9990  178.3850  141.8760 C   0  0  0  0  0  2  0  0  0  0  0  0
  182.5740  178.6630  142.2490 C   0  0  0  0  0  0  0  0  0  0  0  0
  189.9310  176.8870  146.9220 C   0  0  0  0  0  3  0  0  0  0  0  0
  189.5170  177.2730  144.5560 C   0  0  0  0  0  0  0  0  0  0  0  0
  192.1420  176.0490  147.7280 C   0  0  0  0  0  1  0  0  0  0  0  0
  189.0770  177.2850  145.8890 C   0  0  0  0  0  3  0  0  0  0  0  0
  190.8280  176.8550  144.2750 C   0  0  0  0  0  3  0  0  0  0  0  0
  191.6820  176.4570  145.3070 C   0  0  0  0  0  3  0  0  0  0  0  0
  191.2330  176.4730  146.6300 C   0  0  0  0  0  0  0  0  0  0  0  0
  189.1020  176.1320  137.8180 C   0  0  0  0  0  2  0  0  0  0  0  0
  190.0510  177.6750  139.5230 C   0  0  0  0  0  2  0  0  0  0  0  0
  188.8020  178.4960  139.7630 C   0  0  1  0  0  3  0  0  0  0  0  0
  188.6340  177.5450  137.5330 C   0  0  2  0  0  3  0  0  0  0  0  0
  190.0430  177.2980  138.0520 C   0  0  2  0  0  3  0  0  0  0  0  0
  187.8140  178.0700  138.6990 C   0  0  0  0  0  2  0  0  0  0  0  0
  1  5  1  0  0  0  0
  2  4  1  0  0  0  0
  2  1  2  0  0  0  0
  3 12  1  0  0  0  0
  3  6  1  0  0  0  0
  4  3  2  0  0  0  0
  5  6  2  0  0  0  0
  5 16  1  0  0  0  0
  7  8  1  0  0  0  0
  7  9  1  0  0  0  0
 10 14  2  0  0  0  0
 11  8  2  0  0  0  0
 12  7  2  0  0  0  0
 13 14  1  0  0  0  0
 13 12  1  0  0  0  0
 14 11  1  0  0  0  0
 16 18  1  0  0  0  0
 18 15  2  0  0  0  0
 19 16  2  0  0  0  0
 19 20  1  0  0  0  0
 20 21  2  0  0  0  0
 21 15  1  0  0  0  0
 21 17  1  0  0  0  0
 23 24  1  0  0  0  0
 24  2  1  1  0  0  0
 25 22  1  1  0  0  0
 25 26  1  0  0  0  0
 25 27  1  0  0  0  0
 26 22  1  1  0  0  0
 26 23  1  0  0  0  0
 27 24  1  0  0  0  0
M  END
>  <MODEL>
2

>  <REMARK>
 VINA RESULT:     -10.2      2.647      7.588
  Name = 
  3 active torsions:
  status: ('A' for Active; 'I' for Inactive)
    1  A    between atoms: C_5  and  C_11
    2  A    between atoms: C_6  and  C_17
    3  A    between atoms: C_7  and  C_18
                            x       y       z     vdW  Elec       q    Type
                         _______ _______ _______ _____ _____    ______ ____

>  <TORSDO>
F 3

$$$$
=
 OpenBabel10232411373D

 27 31  0  0  1  0  0  0  0  0999 V2000
  188.0870  178.1070  144.3150 C   0  0  0  0  0  3  0  0  0  0  0  0
  189.4490  177.9130  144.0870 C   0  0  0  0  0  0  0  0  0  0  0  0
  188.9960  177.7030  141.7130 C   0  0  0  0  0  0  0  0  0  0  0  0
  189.9050  177.7110  142.7790 C   0  0  0  0  0  3  0  0  0  0  0  0
  187.1940  178.0980  143.2370 C   0  0  0  0  0  0  0  0  0  0  0  0
  187.6720  177.8990  141.9760 N   0  0  0  0  0  0  0  0  0  0  0  0
  188.7870  177.9220  139.2360 C   0  0  0  0  0  0  0  0  0  0  0  0
  189.3000  177.7150  137.8730 C   0  0  0  0  0  3  0  0  0  0  0  0
  187.5600  178.5640  139.3670 O   0  0  0  0  0  1  0  0  0  0  0  0
  192.3510  176.0940  138.4610 O   0  0  0  0  0  0  0  0  0  0  0  0
  190.4340  177.1280  137.6510 N   0  0  0  0  0  0  0  0  0  0  0  0
  189.4820  177.4970  140.3170 C   0  0  0  0  0  0  0  0  0  0  0  0
  190.8020  176.7690  140.1440 C   0  0  0  0  0  2  0  0  0  0  0  0
  191.2490  176.6430  138.7190 C   0  0  0  0  0  0  0  0  0  0  0  0
  183.8610  178.7280  144.9310 C   0  0  0  0  0  3  0  0  0  0  0  0
  185.7450  178.3020  143.4520 C   0  0  0  0  0  0  0  0  0  0  0  0
  181.5310  178.8910  144.0450 C   0  0  0  0  0  1  0  0  0  0  0  0
  185.2320  178.5360  144.7380 C   0  0  0  0  0  3  0  0  0  0  0  0
  184.8600  178.2630  142.3630 C   0  0  0  0  0  3  0  0  0  0  0  0
  183.4890  178.4540  142.5560 C   0  0  0  0  0  3  0  0  0  0  0  0
  182.9900  178.6870  143.8400 C   0  0  0  0  0  0  0  0  0  0  0  0
  190.7670  175.4230  146.9960 C   0  0  0  0  0  2  0  0  0  0  0  0
  189.6860  177.6200  146.5500 C   0  0  0  0  0  2  0  0  0  0  0  0
  190.3940  177.9260  145.2470 C   0  0  1  0  0  3  0  0  0  0  0  0
  191.8110  176.4080  146.5090 C   0  0  2  0  0  3  0  0  0  0  0  0
  190.6860  176.8770  147.4190 C   0  0  2  0  0  3  0  0  0  0  0  0
  191.4730  176.8760  145.1040 C   0  0  0  0  0  2  0  0  0  0  0  0
  2  1  1  0  0  0  0
  3  6  2  0  0  0  0
  3  4  1  0  0  0  0
  4  2  2  0  0  0  0
  5 16  1  0  0  0  0
  5  1  2  0  0  0  0
  6  5  1  0  0  0  0
  7  9  1  0  0  0  0
  7 12  2  0  0  0  0
  8  7  1  0  0  0  0
 10 14  2  0  0  0  0
 11  8  2  0  0  0  0
 11 14  1  0  0  0  0
 12  3  1  0  0  0  0
 13 12  1  0  0  0  0
 14 13  1  0  0  0  0
 16 18  2  0  0  0  0
 18 15  1  0  0  0  0
 19 20  2  0  0  0  0
 19 16  1  0  0  0  0
 20 21  1  0  0  0  0
 21 17  1  0  0  0  0
 21 15  2  0  0  0  0
 22 26  1  0  0  0  0
 24  2  1  6  0  0  0
 24 23  1  0  0  0  0
 25 27  1  6  0  0  0
 25 22  1  0  0  0  0
 25 26  1  0  0  0  0
 26 23  1  6  0  0  0
 27 24  1  0  0  0  0
M  END
>  <MODEL>
3

>  <REMARK>
 VINA RESULT:      -9.9      1.558      2.541
  Name = 
  3 active torsions:
  status: ('A' for Active; 'I' for Inactive)
    1  A    between atoms: C_5  and  C_11
    2  A    between atoms: C_6  and  C_17
    3  A    between atoms: C_7  and  C_18
                            x       y       z     vdW  Elec       q    Type
                         _______ _______ _______ _____ _____    ______ ____

>  <TORSDO>
F 3

$$$$
=
 OpenBabel10232411373D

 27 31  0  0  1  0  0  0  0  0999 V2000
  186.9560  178.4640  141.2360 C   0  0  0  0  0  3  0  0  0  0  0  0
  188.3190  178.2890  141.0040 C   0  0  0  0  0  0  0  0  0  0  0  0
  188.6260  177.7640  143.3520 C   0  0  0  0  0  0  0  0  0  0  0  0
  189.1580  177.9350  142.0670 C   0  0  0  0  0  3  0  0  0  0  0  0
  186.4420  178.2860  142.5260 C   0  0  0  0  0  0  0  0  0  0  0  0
  187.2870  177.9410  143.5380 N   0  0  0  0  0  0  0  0  0  0  0  0
  190.7050  176.7550  144.2930 C   0  0  0  0  0  0  0  0  0  0  0  0
  191.5690  176.4000  145.4300 C   0  0  0  0  0  3  0  0  0  0  0  0
  191.1540  176.4220  143.0200 O   0  0  0  0  0  1  0  0  0  0  0  0
  189.7280  177.5880  148.1660 O   0  0  0  0  0  0  0  0  0  0  0  0
  191.2350  176.6720  146.6520 N   0  0  0  0  0  0  0  0  0  0  0  0
  189.5180  177.3780  144.4840 C   0  0  0  0  0  0  0  0  0  0  0  0
  189.0370  177.7000  145.8860 C   0  0  0  0  0  2  0  0  0  0  0  0
  190.0060  177.3280  146.9670 C   0  0  0  0  0  0  0  0  0  0  0  0
  182.6980  178.6130  142.0220 C   0  0  0  0  0  3  0  0  0  0  0  0
  184.9990  178.4660  142.7980 C   0  0  0  0  0  0  0  0  0  0  0  0
  180.8160  178.9910  143.6200 C   0  0  0  0  0  1  0  0  0  0  0  0
  184.0590  178.4420  141.7540 C   0  0  0  0  0  3  0  0  0  0  0  0
  184.5510  178.6640  144.1130 C   0  0  0  0  0  3  0  0  0  0  0  0
  183.1900  178.8360  144.3810 C   0  0  0  0  0  3  0  0  0  0  0  0
  182.2640  178.8100  143.3350 C   0  0  0  0  0  0  0  0  0  0  0  0
  189.1070  176.0990  137.6890 C   0  0  0  0  0  2  0  0  0  0  0  0
  190.0920  177.6410  139.3760 C   0  0  0  0  0  2  0  0  0  0  0  0
  188.8560  178.4810  139.6190 C   0  0  1  0  0  3  0  0  0  0  0  0
  188.6570  177.5170  137.3970 C   0  0  2  0  0  3  0  0  0  0  0  0
  190.0670  177.2530  137.9080 C   0  0  2  0  0  3  0  0  0  0  0  0
  187.8540  178.0620  138.5670 C   0  0  0  0  0  2  0  0  0  0  0  0
  1  5  1  0  0  0  0
  2  1  2  0  0  0  0
  2  4  1  0  0  0  0
  3  6  1  0  0  0  0
  3 12  1  0  0  0  0
  4  3  2  0  0  0  0
  5 16  1  0  0  0  0
  5  6  2  0  0  0  0
  7 12  2  0  0  0  0
  7  8  1  0  0  0  0
  8 11  2  0  0  0  0
  9  7  1  0  0  0  0
 11 14  1  0  0  0  0
 12 13  1  0  0  0  0
 13 14  1  0  0  0  0
 14 10  2  0  0  0  0
 15 21  1  0  0  0  0
 16 19  2  0  0  0  0
 18 15  2  0  0  0  0
 18 16  1  0  0  0  0
 19 20  1  0  0  0  0
 21 17  1  0  0  0  0
 21 20  2  0  0  0  0
 23 24  1  0  0  0  0
 24  2  1  1  0  0  0
 25 22  1  1  0  0  0
 25 26  1  0  0  0  0
 25 27  1  0  0  0  0
 26 22  1  1  0  0  0
 26 23  1  0  0  0  0
 27 24  1  0  0  0  0
M  END
>  <MODEL>
4

>  <REMARK>
 VINA RESULT:      -9.8      2.165      5.785
  Name = 
  3 active torsions:
  status: ('A' for Active; 'I' for Inactive)
    1  A    between atoms: C_5  and  C_11
    2  A    between atoms: C_6  and  C_17
    3  A    between atoms: C_7  and  C_18
                            x       y       z     vdW  Elec       q    Type
                         _______ _______ _______ _____ _____    ______ ____

>  <TORSDO>
F 3

$$$$
=
 OpenBabel10232411373D

 27 31  0  0  1  0  0  0  0  0999 V2000
  186.6220  178.4470  141.3770 C   0  0  0  0  0  3  0  0  0  0  0  0
  188.0070  178.2890  141.3720 C   0  0  0  0  0  0  0  0  0  0  0  0
  187.9430  177.8730  143.7610 C   0  0  0  0  0  0  0  0  0  0  0  0
  188.6710  177.9990  142.5700 C   0  0  0  0  0  3  0  0  0  0  0  0
  185.9110  178.3140  142.5770 C   0  0  0  0  0  0  0  0  0  0  0  0
  186.5890  178.0310  143.7240 N   0  0  0  0  0  0  0  0  0  0  0  0
  188.0120  177.5280  146.2310 C   0  0  0  0  0  0  0  0  0  0  0  0
  188.7330  177.1970  147.4700 C   0  0  0  0  0  3  0  0  0  0  0  0
  186.6550  177.8140  146.3380 O   0  0  0  0  0  1  0  0  0  0  0  0
  191.9880  176.6160  146.3070 O   0  0  0  0  0  0  0  0  0  0  0  0
  189.9980  176.9150  147.4700 N   0  0  0  0  0  0  0  0  0  0  0  0
  188.6490  177.5550  145.0360 C   0  0  0  0  0  0  0  0  0  0  0  0
  190.1370  177.2710  144.9530 C   0  0  0  0  0  2  0  0  0  0  0  0
  190.7660  176.9120  146.2660 C   0  0  0  0  0  0  0  0  0  0  0  0
  182.2830  178.4690  141.4860 C   0  0  0  0  0  3  0  0  0  0  0  0
  184.4420  178.4760  142.6090 C   0  0  0  0  0  0  0  0  0  0  0  0
  180.1750  178.9530  142.7340 C   0  0  0  0  0  1  0  0  0  0  0  0
  183.6720  178.3140  141.4450 C   0  0  0  0  0  3  0  0  0  0  0  0
  183.7960  178.7970  143.8130 C   0  0  0  0  0  3  0  0  0  0  0  0
  182.4070  178.9530  143.8540 C   0  0  0  0  0  3  0  0  0  0  0  0
  181.6520  178.7890  142.6900 C   0  0  0  0  0  0  0  0  0  0  0  0
  189.1120  176.0250  138.2010 C   0  0  0  0  0  2  0  0  0  0  0  0
  189.9470  177.5020  140.0200 C   0  0  0  0  0  2  0  0  0  0  0  0
  188.7540  178.4320  140.0830 C   0  0  1  0  0  3  0  0  0  0  0  0
  188.8140  177.4700  137.8520 C   0  0  2  0  0  3  0  0  0  0  0  0
  190.1100  177.1070  138.5630 C   0  0  2  0  0  3  0  0  0  0  0  0
  187.8900  178.0790  138.8920 C   0  0  0  0  0  2  0  0  0  0  0  0
  1  5  1  0  0  0  0
  2  1  2  0  0  0  0
  2  4  1  0  0  0  0
  3 12  1  0  0  0  0
  4  3  2  0  0  0  0
  5 16  1  0  0  0  0
  5  6  2  0  0  0  0
  6  3  1  0  0  0  0
  7  9  1  0  0  0  0
  7  8  1  0  0  0  0
  8 11  2  0  0  0  0
 12  7  2  0  0  0  0
 13 12  1  0  0  0  0
 13 14  1  0  0  0  0
 14 10  2  0  0  0  0
 14 11  1  0  0  0  0
 15 21  1  0  0  0  0
 16 19  2  0  0  0  0
 18 15  2  0  0  0  0
 18 16  1  0  0  0  0
 19 20  1  0  0  0  0
 21 17  1  0  0  0  0
 21 20  2  0  0  0  0
 23 24  1  0  0  0  0
 24  2  1  1  0  0  0
 25 22  1  1  0  0  0
 25 26  1  0  0  0  0
 25 27  1  0  0  0  0
 26 22  1  1  0  0  0
 26 23  1  0  0  0  0
 27 24  1  0  0  0  0
M  END
>  <MODEL>
5

>  <REMARK>
 VINA RESULT:      -9.7      2.461      5.781
  Name = 
  3 active torsions:
  status: ('A' for Active; 'I' for Inactive)
    1  A    between atoms: C_5  and  C_11
    2  A    between atoms: C_6  and  C_17
    3  A    between atoms: C_7  and  C_18
                            x       y       z     vdW  Elec       q    Type
                         _______ _______ _______ _____ _____    ______ ____

>  <TORSDO>
F 3

$$$$
=
 OpenBabel10232411373D

 27 31  0  0  1  0  0  0  0  0999 V2000
  187.4500  178.1890  144.6140 C   0  0  0  0  0  3  0  0  0  0  0  0
  188.8270  177.9980  144.5130 C   0  0  0  0  0  0  0  0  0  0  0  0
  188.6000  177.8300  142.1030 C   0  0  0  0  0  0  0  0  0  0  0  0
  189.4050  177.8190  143.2510 C   0  0  0  0  0  3  0  0  0  0  0  0
  186.6620  178.2000  143.4570 C   0  0  0  0  0  0  0  0  0  0  0  0
  187.2570  178.0230  142.2440 N   0  0  0  0  0  0  0  0  0  0  0  0
  190.1690  176.7160  140.5150 C   0  0  0  0  0  0  0  0  0  0  0  0
  190.7480  176.5520  139.1720 C   0  0  0  0  0  3  0  0  0  0  0  0
  190.6410  175.8810  141.5220 O   0  0  0  0  0  1  0  0  0  0  0  0
  189.0210  178.9690  137.3130 O   0  0  0  0  0  0  0  0  0  0  0  0
  190.3700  177.2820  138.1720 N   0  0  0  0  0  0  0  0  0  0  0  0
  189.2170  177.6480  140.7570 C   0  0  0  0  0  0  0  0  0  0  0  0
  188.7440  178.5680  139.6480 C   0  0  0  0  0  2  0  0  0  0  0  0
  189.3710  178.2930  138.3150 C   0  0  0  0  0  0  0  0  0  0  0  0
  183.1830  178.8010  144.8400 C   0  0  0  0  0  3  0  0  0  0  0  0
  185.1990  178.4020  143.5380 C   0  0  0  0  0  0  0  0  0  0  0  0
  180.9480  178.9860  143.7400 C   0  0  0  0  0  1  0  0  0  0  0  0
  184.5660  178.6110  144.7740 C   0  0  0  0  0  3  0  0  0  0  0  0
  184.4210  178.3860  142.3690 C   0  0  0  0  0  3  0  0  0  0  0  0
  183.0380  178.5760  142.4350 C   0  0  0  0  0  3  0  0  0  0  0  0
  182.4200  178.7830  143.6710 C   0  0  0  0  0  0  0  0  0  0  0  0
  191.1990  175.4640  146.5990 C   0  0  0  0  0  2  0  0  0  0  0  0
  189.1940  176.9300  146.7350 C   0  0  0  0  0  2  0  0  0  0  0  0
  189.6580  177.9900  145.7580 C   0  0  1  0  0  3  0  0  0  0  0  0
  191.6390  176.9130  146.6640 C   0  0  2  0  0  3  0  0  0  0  0  0
  190.4330  176.4450  147.4650 C   0  0  2  0  0  3  0  0  0  0  0  0
  191.1070  177.6750  145.4620 C   0  0  0  0  0  2  0  0  0  0  0  0
  2  1  1  0  0  0  0
  3  6  2  0  0  0  0
  3  4  1  0  0  0  0
  4  2  2  0  0  0  0
  5 16  1  0  0  0  0
  5  1  2  0  0  0  0
  6  5  1  0  0  0  0
  7 12  2  0  0  0  0
  7  9  1  0  0  0  0
  8  7  1  0  0  0  0
 10 14  2  0  0  0  0
 11 14  1  0  0  0  0
 11  8  2  0  0  0  0
 12  3  1  0  0  0  0
 13 12  1  0  0  0  0
 14 13  1  0  0  0  0
 16 18  2  0  0  0  0
 18 15  1  0  0  0  0
 19 20  2  0  0  0  0
 19 16  1  0  0  0  0
 20 21  1  0  0  0  0
 21 17  1  0  0  0  0
 21 15  2  0  0  0  0
 22 25  1  0  0  0  0
 23 26  1  0  0  0  0
 24  2  1  6  0  0  0
 24 23  1  0  0  0  0
 25 27  1  6  0  0  0
 25 26  1  0  0  0  0
 26 22  1  6  0  0  0
 27 24  1  0  0  0  0
M  END
>  <MODEL>
6

>  <REMARK>
 VINA RESULT:      -9.7      1.116      1.675
  Name = 
  3 active torsions:
  status: ('A' for Active; 'I' for Inactive)
    1  A    between atoms: C_5  and  C_11
    2  A    between atoms: C_6  and  C_17
    3  A    between atoms: C_7  and  C_18
                            x       y       z     vdW  Elec       q    Type
                         _______ _______ _______ _____ _____    ______ ____

>  <TORSDO>
F 3

$$$$
=
 OpenBabel10232411373D

 27 31  0  0  1  0  0  0  0  0999 V2000
  189.3930  177.7650  141.8870 C   0  0  0  0  0  3  0  0  0  0  0  0
  188.5580  178.1680  140.8460 C   0  0  0  0  0  0  0  0  0  0  0  0
  186.6970  178.2390  142.4000 C   0  0  0  0  0  0  0  0  0  0  0  0
  187.2030  178.4080  141.1040 C   0  0  0  0  0  3  0  0  0  0  0  0
  188.8700  177.6040  143.1750 C   0  0  0  0  0  0  0  0  0  0  0  0
  187.5460  177.8460  143.3920 N   0  0  0  0  0  0  0  0  0  0  0  0
  184.3180  178.5140  141.7010 C   0  0  0  0  0  0  0  0  0  0  0  0
  182.9010  178.7640  142.0090 C   0  0  0  0  0  3  0  0  0  0  0  0
  184.6540  178.2960  140.3690 O   0  0  0  0  0  1  0  0  0  0  0  0
  182.9550  179.1770  145.4890 O   0  0  0  0  0  0  0  0  0  0  0  0
  182.4920  178.9760  143.2200 N   0  0  0  0  0  0  0  0  0  0  0  0
  185.2550  178.5030  142.6780 C   0  0  0  0  0  0  0  0  0  0  0  0
  184.8650  178.7770  144.1180 C   0  0  0  0  0  2  0  0  0  0  0  0
  183.3960  178.9840  144.3270 C   0  0  0  0  0  0  0  0  0  0  0  0
  191.8100  176.2160  145.1260 C   0  0  0  0  0  3  0  0  0  0  0  0
  189.7350  177.1780  144.2970 C   0  0  0  0  0  0  0  0  0  0  0  0
  192.2230  175.9490  147.5750 C   0  0  0  0  0  1  0  0  0  0  0  0
  191.0000  176.6160  144.0590 C   0  0  0  0  0  3  0  0  0  0  0  0
  189.2950  177.3310  145.6210 C   0  0  0  0  0  3  0  0  0  0  0  0
  190.1050  176.9310  146.6880 C   0  0  0  0  0  3  0  0  0  0  0  0
  191.3620  176.3740  146.4400 C   0  0  0  0  0  0  0  0  0  0  0  0
  189.2560  175.9640  137.5200 C   0  0  0  0  0  2  0  0  0  0  0  0
  190.3120  177.4200  139.2410 C   0  0  0  0  0  2  0  0  0  0  0  0
  189.1300  178.3380  139.4730 C   0  0  1  0  0  3  0  0  0  0  0  0
  188.9060  177.4120  137.2380 C   0  0  2  0  0  3  0  0  0  0  0  0
  190.2860  177.0490  137.7680 C   0  0  2  0  0  3  0  0  0  0  0  0
  188.1210  177.9970  138.3990 C   0  0  0  0  0  2  0  0  0  0  0  0
  1  5  1  0  0  0  0
  2  4  1  0  0  0  0
  2  1  2  0  0  0  0
  3 12  1  0  0  0  0
  3  6  1  0  0  0  0
  4  3  2  0  0  0  0
  5  6  2  0  0  0  0
  5 16  1  0  0  0  0
  7  8  1  0  0  0  0
  7 12  2  0  0  0  0
  8 11  2  0  0  0  0
  9  7  1  0  0  0  0
 11 14  1  0  0  0  0
 12 13  1  0  0  0  0
 13 14  1  0  0  0  0
 14 10  2  0  0  0  0
 15 21  1  0  0  0  0
 16 19  2  0  0  0  0
 18 16  1  0  0  0  0
 18 15  2  0  0  0  0
 19 20  1  0  0  0  0
 21 20  2  0  0  0  0
 21 17  1  0  0  0  0
 23 24  1  0  0  0  0
 24  2  1  1  0  0  0
 25 22  1  1  0  0  0
 25 26  1  0  0  0  0
 25 27  1  0  0  0  0
 26 22  1  1  0  0  0
 26 23  1  0  0  0  0
 27 24  1  0  0  0  0
M  END
>  <MODEL>
7

>  <REMARK>
 VINA RESULT:      -9.6      2.587      7.771
  Name = 
  3 active torsions:
  status: ('A' for Active; 'I' for Inactive)
    1  A    between atoms: C_5  and  C_11
    2  A    between atoms: C_6  and  C_17
    3  A    between atoms: C_7  and  C_18
                            x       y       z     vdW  Elec       q    Type
                         _______ _______ _______ _____ _____    ______ ____

>  <TORSDO>
F 3

$$$$
=
 OpenBabel10232411373D

 27 31  0  0  1  0  0  0  0  0999 V2000
  188.1940  177.4810  144.1100 C   0  0  0  0  0  3  0  0  0  0  0  0
  186.9800  177.5900  144.7870 C   0  0  0  0  0  0  0  0  0  0  0  0
  185.8960  178.1700  142.6960 C   0  0  0  0  0  0  0  0  0  0  0  0
  185.8250  177.9350  144.0760 C   0  0  0  0  0  3  0  0  0  0  0  0
  188.2450  177.7170  142.7310 C   0  0  0  0  0  0  0  0  0  0  0  0
  187.1010  178.0500  142.0690 N   0  0  0  0  0  0  0  0  0  0  0  0
  184.6890  178.8480  140.6200 C   0  0  0  0  0  0  0  0  0  0  0  0
  183.4540  179.1840  139.8940 C   0  0  0  0  0  3  0  0  0  0  0  0
  185.8800  178.8760  139.9020 O   0  0  0  0  0  1  0  0  0  0  0  0
  181.0110  178.8550  142.3860 O   0  0  0  0  0  0  0  0  0  0  0  0
  182.2980  179.1830  140.4780 N   0  0  0  0  0  0  0  0  0  0  0  0
  184.6630  178.5290  141.9350 C   0  0  0  0  0  0  0  0  0  0  0  0
  183.3540  178.5380  142.7010 C   0  0  0  0  0  2  0  0  0  0  0  0
  182.1550  178.8600  141.8620 C   0  0  0  0  0  0  0  0  0  0  0  0
  190.7450  177.3800  139.9000 C   0  0  0  0  0  3  0  0  0  0  0  0
  189.5200  177.6060  141.9900 C   0  0  0  0  0  0  0  0  0  0  0  0
  193.2400  177.2870  139.8660 C   0  0  0  0  0  1  0  0  0  0  0  0
  189.5340  177.4850  140.5910 C   0  0  0  0  0  3  0  0  0  0  0  0
  190.7400  177.6220  142.6840 C   0  0  0  0  0  3  0  0  0  0  0  0
  191.9510  177.5170  141.9930 C   0  0  0  0  0  3  0  0  0  0  0  0
  191.9520  177.3970  140.6010 C   0  0  0  0  0  0  0  0  0  0  0  0
  188.9930  178.6470  148.1390 C   0  0  0  0  0  2  0  0  0  0  0  0
  188.2310  176.7210  146.7600 C   0  0  0  0  0  2  0  0  0  0  0  0
  186.9390  177.3350  146.2610 C   0  0  1  0  0  3  0  0  0  0  0  0
  187.5080  178.4300  148.3550 C   0  0  2  0  0  3  0  0  0  0  0  0
  188.4350  177.2370  148.1730 C   0  0  2  0  0  3  0  0  0  0  0  0
  186.7570  178.6140  147.0470 C   0  0  0  0  0  2  0  0  0  0  0  0
  1  2  1  0  0  0  0
  3  4  1  0  0  0  0
  4  2  2  0  0  0  0
  5  1  2  0  0  0  0
  6  3  2  0  0  0  0
  6  5  1  0  0  0  0
  7 12  2  0  0  0  0
  8 11  2  0  0  0  0
  8  7  1  0  0  0  0
  9  7  1  0  0  0  0
 11 14  1  0  0  0  0
 12  3  1  0  0  0  0
 12 13  1  0  0  0  0
 14 10  2  0  0  0  0
 14 13  1  0  0  0  0
 15 18  2  0  0  0  0
 15 21  1  0  0  0  0
 16 19  2  0  0  0  0
 16  5  1  0  0  0  0
 17 21  1  0  0  0  0
 18 16  1  0  0  0  0
 20 19  1  0  0  0  0
 21 20  2  0  0  0  0
 22 26  1  0  0  0  0
 22 25  1  0  0  0  0
 24  2  1  6  0  0  0
 24 23  1  0  0  0  0
 24 27  1  0  0  0  0
 25 27  1  6  0  0  0
 26 23  1  6  0  0  0
 26 25  1  0  0  0  0
M  END
>  <MODEL>
8

>  <REMARK>
 VINA RESULT:      -9.5      2.438      6.193
  Name = 
  3 active torsions:
  status: ('A' for Active; 'I' for Inactive)
    1  A    between atoms: C_5  and  C_11
    2  A    between atoms: C_6  and  C_17
    3  A    between atoms: C_7  and  C_18
                            x       y       z     vdW  Elec       q    Type
                         _______ _______ _______ _____ _____    ______ ____

>  <TORSDO>
F 3

$$$$
=
 OpenBabel10232411373D

 27 31  0  0  1  0  0  0  0  0999 V2000
  187.7030  177.2330  144.5140 C   0  0  0  0  0  3  0  0  0  0  0  0
  186.8080  177.5070  143.4810 C   0  0  0  0  0  0  0  0  0  0  0  0
  188.6560  177.4860  141.9090 C   0  0  0  0  0  0  0  0  0  0  0  0
  187.2870  177.6320  142.1710 C   0  0  0  0  0  3  0  0  0  0  0  0
  189.0670  177.0880  144.2330 C   0  0  0  0  0  0  0  0  0  0  0  0
  189.4990  177.2150  142.9470 N   0  0  0  0  0  0  0  0  0  0  0  0
  190.2040  176.8740  140.0510 C   0  0  0  0  0  0  0  0  0  0  0  0
  190.6760  177.0100  138.6640 C   0  0  0  0  0  3  0  0  0  0  0  0
  190.8700  175.9650  140.8660 O   0  0  0  0  0  1  0  0  0  0  0  0
  188.4900  179.4230  137.3660 O   0  0  0  0  0  0  0  0  0  0  0  0
  190.1180  177.8300  137.8300 N   0  0  0  0  0  0  0  0  0  0  0  0
  189.1660  177.6100  140.5130 C   0  0  0  0  0  0  0  0  0  0  0  0
  188.4800  178.6190  139.6110 C   0  0  0  0  0  2  0  0  0  0  0  0
  189.0140  178.6530  138.2110 C   0  0  0  0  0  0  0  0  0  0  0  0
  190.6800  176.8610  147.6560 C   0  0  0  0  0  3  0  0  0  0  0  0
  190.0360  176.7960  145.3110 C   0  0  0  0  0  0  0  0  0  0  0  0
  192.8720  175.9380  148.4210 C   0  0  0  0  0  1  0  0  0  0  0  0
  189.7570  177.1400  146.6440 C   0  0  0  0  0  3  0  0  0  0  0  0
  191.2550  176.1690  145.0100 C   0  0  0  0  0  3  0  0  0  0  0  0
  192.1780  175.8900  146.0220 C   0  0  0  0  0  3  0  0  0  0  0  0
  191.8900  176.2360  147.3450 C   0  0  0  0  0  0  0  0  0  0  0  0
  184.1230  180.4460  144.2270 C   0  0  0  0  0  2  0  0  0  0  0  0
  185.1350  178.3560  145.1210 C   0  0  0  0  0  2  0  0  0  0  0  0
  185.3520  177.6590  143.7950 C   0  0  1  0  0  3  0  0  0  0  0  0
  183.5420  179.2520  143.4940 C   0  0  2  0  0  3  0  0  0  0  0  0
  183.8530  179.1590  144.9820 C   0  0  2  0  0  3  0  0  0  0  0  0
  184.6410  178.5030  142.7610 C   0  0  0  0  0  2  0  0  0  0  0  0
  2  1  2  0  0  0  0
  3  4  2  0  0  0  0
  3  6  1  0  0  0  0
  4  2  1  0  0  0  0
  5  1  1  0  0  0  0
  5 16  1  0  0  0  0
  6  5  2  0  0  0  0
  7 12  2  0  0  0  0
  7  9  1  0  0  0  0
  8  7  1  0  0  0  0
 10 14  2  0  0  0  0
 11 14  1  0  0  0  0
 11  8  2  0  0  0  0
 12  3  1  0  0  0  0
 13 12  1  0  0  0  0
 14 13  1  0  0  0  0
 16 18  1  0  0  0  0
 18 15  2  0  0  0  0
 19 16  2  0  0  0  0
 19 20  1  0  0  0  0
 20 21  2  0  0  0  0
 21 15  1  0  0  0  0
 21 17  1  0  0  0  0
 24  2  1  6  0  0  0
 24 23  1  0  0  0  0
 25 27  1  6  0  0  0
 25 22  1  0  0  0  0
 25 26  1  0  0  0  0
 26 22  1  6  0  0  0
 26 23  1  0  0  0  0
 27 24  1  0  0  0  0
M  END
>  <MODEL>
9

>  <REMARK>
 VINA RESULT:      -9.4      1.560      5.906
  Name = 
  3 active torsions:
  status: ('A' for Active; 'I' for Inactive)
    1  A    between atoms: C_5  and  C_11
    2  A    between atoms: C_6  and  C_17
    3  A    between atoms: C_7  and  C_18
                            x       y       z     vdW  Elec       q    Type
                         _______ _______ _______ _____ _____    ______ ____

>  <TORSDO>
F 3

$$$$
