=
 OpenBabel10232410523D

 49 54  0  0  1  0  0  0  0  0999 V2000
  191.5050  176.6800  139.1470 C   0  0  0  0  0  2  0  0  0  0  0  0
  187.7170  174.1430  136.4430 C   0  0  0  0  0  0  0  0  0  0  0  0
  190.0260  175.0300  137.7420 C   0  0  0  0  0  0  0  0  0  0  0  0
  188.8020  173.2940  136.6530 C   0  0  0  0  0  3  0  0  0  0  0  0
  191.3860  175.4170  138.2970 C   0  0  1  0  0  3  0  0  0  0  0  0
  189.5360  177.7090  140.2200 C   0  0  1  0  0  3  0  0  0  0  0  0
  188.8790  177.2950  138.1250 C   0  0  0  0  0  2  0  0  0  0  0  0
  190.6200  176.6420  140.3800 C   0  0  0  0  0  2  0  0  0  0  0  0
  188.9340  175.9170  137.5570 C   0  0  0  0  0  0  0  0  0  0  0  0
  188.4700  177.2150  139.4610 O   0  0  0  0  0  0  0  0  0  0  0  0
  187.7850  175.4500  136.9160 C   0  0  0  0  0  3  0  0  0  0  0  0
  189.9120  173.7530  137.2820 N   0  0  0  0  0  0  0  0  0  0  0  0
  192.4450  176.3510  136.2080 C   0  0  0  0  0  3  0  0  0  0  0  0
  192.3970  175.4470  137.1960 C   0  0  0  0  0  0  0  0  0  0  0  0
  194.2710  175.1910  135.9530 C   0  0  0  0  0  0  0  0  0  0  0  0
  197.0260  175.4950  135.2240 Cl  0  0  0  0  0  0  0  0  0  0  0  0
  195.7530  174.4970  137.4590 C   0  0  0  0  0  3  0  0  0  0  0  0
  194.4370  174.3470  138.0260 N   0  0  0  0  0  0  0  0  0  0  0  0
  193.6710  176.2280  135.4650 N   0  0  0  0  0  0  0  0  0  0  0  0
  193.6160  174.6700  137.0850 C   0  0  0  0  0  0  0  0  0  0  0  0
  195.6790  175.0330  136.2390 C   0  0  0  0  0  0  0  0  0  0  0  0
  189.0240  178.1450  141.5830 C   0  0  0  0  0  2  0  0  0  0  0  0
  188.3650  176.9690  142.2920 C   0  0  0  0  0  2  0  0  0  0  0  0
  188.9850  176.7490  143.6640 C   0  0  0  0  0  2  0  0  0  0  0  0
  187.7640  177.8720  147.0760 C   0  0  0  0  0  0  0  0  0  0  0  0
  186.7590  177.5790  144.4780 C   0  0  0  0  0  3  0  0  0  0  0  0
  186.4320  178.2030  146.7990 C   0  0  0  0  0  3  0  0  0  0  0  0
  188.3010  178.0320  148.4550 C   0  0  0  0  0  1  0  0  0  0  0  0
  188.0910  177.2450  144.7540 C   0  0  0  0  0  0  0  0  0  0  0  0
  188.5920  177.3960  146.0540 C   0  0  0  0  0  3  0  0  0  0  0  0
  185.9290  178.0560  145.5020 C   0  0  0  0  0  3  0  0  0  0  0  0
  186.5320  173.6920  135.7750 N   0  0  0  0  0  2  0  0  0  0  0  0
  186.0660  172.3140  135.8280 C   0  0  0  0  0  2  0  0  0  0  0  0
  184.8610  172.2120  136.6980 C   0  0  0  0  0  0  0  0  0  0  0  0
  184.8560  172.7860  137.8210 O   0  0  0  0  0  0  0  0  0  0  0  0
  183.7150  171.4740  136.2510 N   0  0  0  0  0  2  0  0  0  0  0  0
  182.4990  171.3520  137.0390 C   0  0  0  0  0  2  0  0  0  0  0  0
  181.4250  172.2740  136.4830 C   0  0  0  0  0  2  0  0  0  0  0  0
  181.2070  173.3880  137.3910 N   0  0  0  0  0  2  0  0  0  0  0  0
  181.8380  174.5630  136.8030 C   0  0  0  0  0  2  0  0  0  0  0  0
  182.2480  175.4820  137.8500 N   0  0  0  0  0  2  0  0  0  0  0  0
  181.2770  176.2230  138.5940 C   0  0  0  0  0  3  0  0  0  0  0  0
  181.4650  177.5050  138.9110 C   0  0  0  0  0  3  0  0  0  0  0  0
  182.6860  178.2650  138.5000 C   0  0  0  0  0  2  0  0  0  0  0  0
  184.2400  180.2920  139.1360 O   0  0  0  0  0  1  0  0  0  0  0  0
  184.7310  179.0550  139.5660 C   0  0  2  0  0  0  0  0  0  0  0  0
  185.4850  178.9870  140.8770 C   0  0  0  0  0  1  0  0  0  0  0  0
  185.0200  178.0680  138.5420 C   0  0  0  0  0  2  0  0  0  0  0  0
  183.8040  177.9170  139.3720 N   0  0  0  0  0  0  0  0  0  0  0  0
  1  8  1  0  0  0  0
  2  4  2  0  0  0  0
  2 11  1  0  0  0  0
  3  5  1  0  0  0  0
  4 12  1  0  0  0  0
  5 14  1  6  0  0  0
  5  1  1  0  0  0  0
  6  8  1  0  0  0  0
  6 22  1  1  0  0  0
  7 10  1  0  0  0  0
  9  3  1  0  0  0  0
  9  7  1  0  0  0  0
 10  6  1  0  0  0  0
 11  9  2  0  0  0  0
 12  3  2  0  0  0  0
 13 14  1  0  0  0  0
 15 21  2  0  0  0  0
 15 20  1  0  0  0  0
 16 21  1  0  0  0  0
 17 18  2  0  0  0  0
 19 15  1  0  0  0  0
 19 13  2  0  0  0  0
 20 14  2  0  0  0  0
 20 18  1  0  0  0  0
 21 17  1  0  0  0  0
 22 23  1  0  0  0  0
 23 24  1  0  0  0  0
 24 29  1  0  0  0  0
 25 28  1  0  0  0  0
 26 29  2  0  0  0  0
 26 31  1  0  0  0  0
 27 25  1  0  0  0  0
 29 30  1  0  0  0  0
 30 25  2  0  0  0  0
 31 27  2  0  0  0  0
 32 33  1  0  0  0  0
 32  2  1  0  0  0  0
 33 34  1  0  0  0  0
 34 35  2  0  0  0  0
 36 34  1  0  0  0  0
 36 37  1  0  0  0  0
 38 37  1  0  0  0  0
 38 39  1  0  0  0  0
 40 39  1  0  0  0  0
 40 41  1  0  0  0  0
 41 42  1  0  0  0  0
 42 43  2  0  0  0  0
 44 43  1  0  0  0  0
 44 49  1  0  0  0  0
 45 46  1  0  0  0  0
 46 47  1  1  0  0  0
 48 49  1  0  0  0  0
 48 46  1  0  0  0  0
 49 46  1  0  0  0  0
M  END
>  <MODEL>
1

>  <REMARK>
 VINA RESULT:      -7.9      0.000      0.000
  Name = 
  16 active torsions:
  status: ('A' for Active; 'I' for Inactive)
    1  A    between atoms: C_1  and  C_26
    2  A    between atoms: C_1  and  C_41
    3  A    between atoms: C_3  and  N_49
    4  A    between atoms: N_4  and  C_32
    5  A    between atoms: N_4  and  C_47
    6  A    between atoms: C_9  and  C_14
    7  A    between atoms: N_17  and  C_27
    8  A    between atoms: N_17  and  C_47
    9  A    between atoms: C_19  and  C_38
   10  A    between atoms: N_21  and  C_28
   11  A    between atoms: C_22  and  C_42
   12  A    between atoms: C_28  and  C_32
   13  A    between atoms: C_29  and  C_34
   14  A    between atoms: C_29  and  N_45
   15  A    between atoms: C_38  and  N_49
   16  A    between atoms: C_41  and  C_42
                            x       y       z     vdW  Elec       q    Type
                         _______ _______ _______ _____ _____    ______ ____

>  <TORSDO>
F 16

$$$$
=
 OpenBabel10232410523D

 49 54  0  0  1  0  0  0  0  0999 V2000
  191.3760  176.6490  138.8130 C   0  0  0  0  0  2  0  0  0  0  0  0
  187.5400  173.9250  136.3720 C   0  0  0  0  0  0  0  0  0  0  0  0
  189.8730  174.9040  137.5580 C   0  0  0  0  0  0  0  0  0  0  0  0
  188.6300  173.0940  136.6190 C   0  0  0  0  0  3  0  0  0  0  0  0
  191.2420  175.3300  138.0570 C   0  0  1  0  0  3  0  0  0  0  0  0
  189.4270  177.7510  139.8500 C   0  0  1  0  0  3  0  0  0  0  0  0
  188.7290  177.1900  137.8030 C   0  0  0  0  0  2  0  0  0  0  0  0
  190.5150  176.6990  140.0630 C   0  0  0  0  0  2  0  0  0  0  0  0
  188.7750  175.7750  137.3330 C   0  0  0  0  0  0  0  0  0  0  0  0
  188.3470  177.2040  139.1490 O   0  0  0  0  0  0  0  0  0  0  0  0
  187.6150  175.2630  136.7500 C   0  0  0  0  0  3  0  0  0  0  0  0
  189.7520  173.5970  137.1920 N   0  0  0  0  0  0  0  0  0  0  0  0
  192.1800  176.0240  135.8220 C   0  0  0  0  0  3  0  0  0  0  0  0
  192.2310  175.2820  136.9360 C   0  0  0  0  0  0  0  0  0  0  0  0
  194.1040  175.0110  135.6950 C   0  0  0  0  0  0  0  0  0  0  0  0
  196.8080  175.4500  134.8520 Cl  0  0  0  0  0  0  0  0  0  0  0  0
  195.6650  174.6970  137.2470 C   0  0  0  0  0  3  0  0  0  0  0  0
  194.3780  174.5150  137.8670 N   0  0  0  0  0  0  0  0  0  0  0  0
  193.4020  175.9010  135.0720 N   0  0  0  0  0  0  0  0  0  0  0  0
  193.5160  174.6130  136.9100 C   0  0  0  0  0  0  0  0  0  0  0  0
  195.5240  175.0280  135.9630 C   0  0  0  0  0  0  0  0  0  0  0  0
  188.9410  178.2820  141.1890 C   0  0  0  0  0  2  0  0  0  0  0  0
  189.6170  177.5250  142.3250 C   0  0  0  0  0  2  0  0  0  0  0  0
  190.1760  178.4900  143.3590 C   0  0  0  0  0  2  0  0  0  0  0  0
  189.2470  177.3100  146.8440 C   0  0  0  0  0  0  0  0  0  0  0  0
  191.4320  177.1800  145.0960 C   0  0  0  0  0  3  0  0  0  0  0  0
  190.4130  176.6390  147.2300 C   0  0  0  0  0  3  0  0  0  0  0  0
  188.0830  177.3770  147.7700 C   0  0  0  0  0  1  0  0  0  0  0  0
  190.2660  177.8540  144.7090 C   0  0  0  0  0  0  0  0  0  0  0  0
  189.1730  177.9150  145.5850 C   0  0  0  0  0  3  0  0  0  0  0  0
  191.5050  176.5740  146.3580 C   0  0  0  0  0  3  0  0  0  0  0  0
  186.3430  173.4270  135.7610 N   0  0  0  0  0  2  0  0  0  0  0  0
  185.0570  173.3980  136.4420 C   0  0  0  0  0  2  0  0  0  0  0  0
  184.2030  174.5270  135.9790 C   0  0  0  0  0  0  0  0  0  0  0  0
  184.0600  174.7310  134.7430 O   0  0  0  0  0  0  0  0  0  0  0  0
  183.5420  175.3650  136.9380 N   0  0  0  0  0  2  0  0  0  0  0  0
  182.6770  176.4700  136.5560 C   0  0  0  0  0  2  0  0  0  0  0  0
  182.3070  177.2890  137.7830 C   0  0  0  0  0  2  0  0  0  0  0  0
  183.5080  177.8140  138.4100 N   0  0  0  0  0  2  0  0  0  0  0  0
  183.2340  179.1930  138.7960 C   0  0  0  0  0  2  0  0  0  0  0  0
  183.8730  179.4890  140.0660 N   0  0  0  0  0  2  0  0  0  0  0  0
  185.1790  178.9860  140.3610 C   0  0  0  0  0  3  0  0  0  0  0  0
  185.4740  178.4570  141.5500 C   0  0  0  0  0  3  0  0  0  0  0  0
  184.4660  178.3310  142.6480 C   0  0  0  0  0  2  0  0  0  0  0  0
  182.8300  178.7910  144.6580 O   0  0  0  0  0  1  0  0  0  0  0  0
  184.1820  178.8740  145.0070 C   0  0  2  0  0  0  0  0  0  0  0  0
  184.6070  178.4170  146.3860 C   0  0  0  0  0  1  0  0  0  0  0  0
  184.9780  179.8800  144.3280 C   0  0  0  0  0  2  0  0  0  0  0  0
  185.1250  178.4590  143.9440 N   0  0  0  0  0  0  0  0  0  0  0  0
  1  8  1  0  0  0  0
  2  4  2  0  0  0  0
  2 11  1  0  0  0  0
  3  5  1  0  0  0  0
  4 12  1  0  0  0  0
  5 14  1  6  0  0  0
  5  1  1  0  0  0  0
  6  8  1  0  0  0  0
  6 22  1  1  0  0  0
  7 10  1  0  0  0  0
  9  3  1  0  0  0  0
  9  7  1  0  0  0  0
 10  6  1  0  0  0  0
 11  9  2  0  0  0  0
 12  3  2  0  0  0  0
 13 14  1  0  0  0  0
 15 21  2  0  0  0  0
 15 20  1  0  0  0  0
 16 21  1  0  0  0  0
 17 18  2  0  0  0  0
 19 15  1  0  0  0  0
 19 13  2  0  0  0  0
 20 14  2  0  0  0  0
 20 18  1  0  0  0  0
 21 17  1  0  0  0  0
 22 23  1  0  0  0  0
 23 24  1  0  0  0  0
 24 29  1  0  0  0  0
 25 27  1  0  0  0  0
 25 28  1  0  0  0  0
 26 31  1  0  0  0  0
 29 26  2  0  0  0  0
 29 30  1  0  0  0  0
 30 25  2  0  0  0  0
 31 27  2  0  0  0  0
 32  2  1  0  0  0  0
 32 33  1  0  0  0  0
 34 33  1  0  0  0  0
 34 36  1  0  0  0  0
 35 34  2  0  0  0  0
 37 36  1  0  0  0  0
 37 38  1  0  0  0  0
 38 39  1  0  0  0  0
 39 40  1  0  0  0  0
 40 41  1  0  0  0  0
 41 42  1  0  0  0  0
 42 43  2  0  0  0  0
 43 44  1  0  0  0  0
 44 49  1  0  0  0  0
 45 46  1  0  0  0  0
 46 47  1  1  0  0  0
 48 46  1  0  0  0  0
 49 48  1  0  0  0  0
 49 46  1  0  0  0  0
M  END
>  <MODEL>
2

>  <REMARK>
 VINA RESULT:      -7.8      1.745      3.159
  Name = 
  16 active torsions:
  status: ('A' for Active; 'I' for Inactive)
    1  A    between atoms: C_1  and  C_26
    2  A    between atoms: C_1  and  C_41
    3  A    between atoms: C_3  and  N_49
    4  A    between atoms: N_4  and  C_32
    5  A    between atoms: N_4  and  C_47
    6  A    between atoms: C_9  and  C_14
    7  A    between atoms: N_17  and  C_27
    8  A    between atoms: N_17  and  C_47
    9  A    between atoms: C_19  and  C_38
   10  A    between atoms: N_21  and  C_28
   11  A    between atoms: C_22  and  C_42
   12  A    between atoms: C_28  and  C_32
   13  A    between atoms: C_29  and  C_34
   14  A    between atoms: C_29  and  N_45
   15  A    between atoms: C_38  and  N_49
   16  A    between atoms: C_41  and  C_42
                            x       y       z     vdW  Elec       q    Type
                         _______ _______ _______ _____ _____    ______ ____

>  <TORSDO>
F 16

$$$$
=
 OpenBabel10232410523D

 49 54  0  0  1  0  0  0  0  0999 V2000
  188.2120  178.1780  142.1940 C   0  0  0  0  0  2  0  0  0  0  0  0
  189.7470  177.5550  137.1590 C   0  0  0  0  0  0  0  0  0  0  0  0
  188.6730  178.3380  139.6170 C   0  0  0  0  0  0  0  0  0  0  0  0
  189.1450  178.8010  137.3230 C   0  0  0  0  0  3  0  0  0  0  0  0
  187.9260  178.8300  140.8440 C   0  0  1  0  0  3  0  0  0  0  0  0
  190.2770  176.8880  142.5970 C   0  0  1  0  0  3  0  0  0  0  0  0
  189.5230  176.1380  140.6320 C   0  0  0  0  0  2  0  0  0  0  0  0
  189.6710  178.2920  142.6020 C   0  0  0  0  0  2  0  0  0  0  0  0
  189.2920  177.0680  139.4890 C   0  0  0  0  0  0  0  0  0  0  0  0
  190.6840  176.5350  141.3060 O   0  0  0  0  0  0  0  0  0  0  0  0
  189.8330  176.7010  138.2550 C   0  0  0  0  0  3  0  0  0  0  0  0
  188.6270  179.1530  138.5250 N   0  0  0  0  0  0  0  0  0  0  0  0
  185.8470  178.1970  139.5650 C   0  0  0  0  0  3  0  0  0  0  0  0
  186.4540  178.8270  140.5800 C   0  0  0  0  0  0  0  0  0  0  0  0
  184.2030  178.9260  140.7940 C   0  0  0  0  0  0  0  0  0  0  0  0
  181.5950  178.1720  141.7130 Cl  0  0  0  0  0  0  0  0  0  0  0  0
  183.9300  178.8800  143.0010 C   0  0  0  0  0  3  0  0  0  0  0  0
  185.3090  179.1940  142.7290 N   0  0  0  0  0  0  0  0  0  0  0  0
  184.4180  178.2030  139.7440 N   0  0  0  0  0  0  0  0  0  0  0  0
  185.3930  179.3020  141.4450 C   0  0  0  0  0  0  0  0  0  0  0  0
  183.2620  178.6810  141.8630 C   0  0  0  0  0  0  0  0  0  0  0  0
  191.4720  176.8300  143.5350 C   0  0  0  0  0  2  0  0  0  0  0  0
  191.2470  177.7560  144.7230 C   0  0  0  0  0  2  0  0  0  0  0  0
  190.9930  176.9550  145.9910 C   0  0  0  0  0  2  0  0  0  0  0  0
  187.3310  177.7660  146.5690 C   0  0  0  0  0  0  0  0  0  0  0  0
  189.7330  177.7570  148.0110 C   0  0  0  0  0  3  0  0  0  0  0  0
  187.3400  178.1440  147.9160 C   0  0  0  0  0  3  0  0  0  0  0  0
  186.0560  177.7650  145.8020 C   0  0  0  0  0  1  0  0  0  0  0  0
  189.7260  177.3790  146.6610 C   0  0  0  0  0  0  0  0  0  0  0  0
  188.5220  177.3810  145.9430 C   0  0  0  0  0  3  0  0  0  0  0  0
  188.5400  178.1410  148.6370 C   0  0  0  0  0  3  0  0  0  0  0  0
  190.2970  177.1490  135.9000 N   0  0  0  0  0  2  0  0  0  0  0  0
  189.5180  177.0990  134.6720 C   0  0  0  0  0  2  0  0  0  0  0  0
  188.3720  176.1600  134.8270 C   0  0  0  0  0  0  0  0  0  0  0  0
  187.1940  176.5930  134.7020 O   0  0  0  0  0  0  0  0  0  0  0  0
  188.6140  174.7740  135.1050 N   0  0  0  0  0  2  0  0  0  0  0  0
  187.5440  173.7990  135.2460 C   0  0  0  0  0  2  0  0  0  0  0  0
  187.3020  173.5010  136.7170 C   0  0  0  0  0  2  0  0  0  0  0  0
  186.2570  174.3680  137.2350 N   0  0  0  0  0  2  0  0  0  0  0  0
  185.1280  173.5230  137.6050 C   0  0  0  0  0  2  0  0  0  0  0  0
  183.8880  174.1200  137.1420 N   0  0  0  0  0  2  0  0  0  0  0  0
  183.8220  174.7730  135.8710 C   0  0  0  0  0  3  0  0  0  0  0  0
  183.0450  175.8380  135.6690 C   0  0  0  0  0  3  0  0  0  0  0  0
  182.2060  176.4380  136.7520 C   0  0  0  0  0  2  0  0  0  0  0  0
  180.3520  177.7980  138.0330 O   0  0  0  0  0  1  0  0  0  0  0  0
  181.3220  178.6060  137.4300 C   0  0  2  0  0  0  0  0  0  0  0  0
  181.7330  179.8890  138.1210 C   0  0  0  0  0  1  0  0  0  0  0  0
  181.4480  178.5180  135.9880 C   0  0  0  0  0  2  0  0  0  0  0  0
  182.4660  177.8720  136.8450 N   0  0  0  0  0  0  0  0  0  0  0  0
  1  8  1  0  0  0  0
  2  4  2  0  0  0  0
  2 11  1  0  0  0  0
  3  5  1  0  0  0  0
  4 12  1  0  0  0  0
  5 14  1  6  0  0  0
  5  1  1  0  0  0  0
  6  8  1  0  0  0  0
  6 22  1  1  0  0  0
  7 10  1  0  0  0  0
  9  3  1  0  0  0  0
  9  7  1  0  0  0  0
 10  6  1  0  0  0  0
 11  9  2  0  0  0  0
 12  3  2  0  0  0  0
 13 19  2  0  0  0  0
 13 14  1  0  0  0  0
 14 20  2  0  0  0  0
 15 20  1  0  0  0  0
 15 21  2  0  0  0  0
 16 21  1  0  0  0  0
 18 17  2  0  0  0  0
 19 15  1  0  0  0  0
 20 18  1  0  0  0  0
 21 17  1  0  0  0  0
 22 23  1  0  0  0  0
 23 24  1  0  0  0  0
 24 29  1  0  0  0  0
 25 27  1  0  0  0  0
 26 31  1  0  0  0  0
 27 31  2  0  0  0  0
 28 25  1  0  0  0  0
 29 26  2  0  0  0  0
 30 25  2  0  0  0  0
 30 29  1  0  0  0  0
 32  2  1  0  0  0  0
 33 34  1  0  0  0  0
 33 32  1  0  0  0  0
 34 36  1  0  0  0  0
 35 34  2  0  0  0  0
 36 37  1  0  0  0  0
 37 38  1  0  0  0  0
 38 39  1  0  0  0  0
 39 40  1  0  0  0  0
 41 40  1  0  0  0  0
 42 41  1  0  0  0  0
 43 42  2  0  0  0  0
 43 44  1  0  0  0  0
 44 49  1  0  0  0  0
 46 45  1  0  0  0  0
 46 47  1  1  0  0  0
 48 49  1  0  0  0  0
 48 46  1  0  0  0  0
 49 46  1  0  0  0  0
M  END
>  <MODEL>
3

>  <REMARK>
 VINA RESULT:      -7.5      3.650      6.335
  Name = 
  16 active torsions:
  status: ('A' for Active; 'I' for Inactive)
    1  A    between atoms: C_1  and  C_26
    2  A    between atoms: C_1  and  C_41
    3  A    between atoms: C_3  and  N_49
    4  A    between atoms: N_4  and  C_32
    5  A    between atoms: N_4  and  C_47
    6  A    between atoms: C_9  and  C_14
    7  A    between atoms: N_17  and  C_27
    8  A    between atoms: N_17  and  C_47
    9  A    between atoms: C_19  and  C_38
   10  A    between atoms: N_21  and  C_28
   11  A    between atoms: C_22  and  C_42
   12  A    between atoms: C_28  and  C_32
   13  A    between atoms: C_29  and  C_34
   14  A    between atoms: C_29  and  N_45
   15  A    between atoms: C_38  and  N_49
   16  A    between atoms: C_41  and  C_42
                            x       y       z     vdW  Elec       q    Type
                         _______ _______ _______ _____ _____    ______ ____

>  <TORSDO>
F 16

$$$$
=
 OpenBabel10232410523D

 49 54  0  0  1  0  0  0  0  0999 V2000
  188.1150  178.2850  142.4660 C   0  0  0  0  0  2  0  0  0  0  0  0
  189.0590  177.3760  137.3300 C   0  0  0  0  0  0  0  0  0  0  0  0
  188.1830  178.2230  139.8450 C   0  0  0  0  0  0  0  0  0  0  0  0
  188.2360  178.4910  137.4730 C   0  0  0  0  0  3  0  0  0  0  0  0
  187.5200  178.7020  141.1240 C   0  0  1  0  0  3  0  0  0  0  0  0
  190.4400  177.4790  142.6570 C   0  0  1  0  0  3  0  0  0  0  0  0
  189.6040  176.3680  140.9080 C   0  0  0  0  0  2  0  0  0  0  0  0
  189.5580  178.7280  142.6300 C   0  0  0  0  0  2  0  0  0  0  0  0
  189.0320  177.0910  139.7360 C   0  0  0  0  0  0  0  0  0  0  0  0
  190.7350  177.0600  141.3560 O   0  0  0  0  0  0  0  0  0  0  0  0
  189.4680  176.6920  138.4720 C   0  0  0  0  0  3  0  0  0  0  0  0
  187.8210  178.8770  138.7050 N   0  0  0  0  0  0  0  0  0  0  0  0
  185.3200  178.0200  142.1500 C   0  0  0  0  0  3  0  0  0  0  0  0
  186.0590  178.3810  141.0930 C   0  0  0  0  0  0  0  0  0  0  0  0
  183.8650  178.2710  140.5480 C   0  0  0  0  0  0  0  0  0  0  0  0
  181.2030  179.2220  140.0760 Cl  0  0  0  0  0  0  0  0  0  0  0  0
  183.6690  179.8820  139.0280 C   0  0  0  0  0  3  0  0  0  0  0  0
  185.0700  179.5920  139.1910 N   0  0  0  0  0  0  0  0  0  0  0  0
  183.9200  178.0190  141.8150 N   0  0  0  0  0  0  0  0  0  0  0  0
  185.1240  178.5930  140.0060 C   0  0  0  0  0  0  0  0  0  0  0  0
  182.9360  179.1320  139.8530 C   0  0  0  0  0  0  0  0  0  0  0  0
  191.7350  177.7670  143.3990 C   0  0  0  0  0  2  0  0  0  0  0  0
  191.4410  178.0640  144.8640 C   0  0  0  0  0  2  0  0  0  0  0  0
  190.7470  176.8830  145.5260 C   0  0  0  0  0  2  0  0  0  0  0  0
  187.2300  177.8880  146.5380 C   0  0  0  0  0  0  0  0  0  0  0  0
  189.7460  177.5640  147.7270 C   0  0  0  0  0  3  0  0  0  0  0  0
  187.3940  178.1270  147.9070 C   0  0  0  0  0  3  0  0  0  0  0  0
  185.8940  178.0550  145.9050 C   0  0  0  0  0  1  0  0  0  0  0  0
  189.5850  177.3260  146.3550 C   0  0  0  0  0  0  0  0  0  0  0  0
  188.3240  177.4860  145.7640 C   0  0  0  0  0  3  0  0  0  0  0  0
  188.6500  177.9670  148.5020 C   0  0  0  0  0  3  0  0  0  0  0  0
  189.5080  176.9380  136.0420 N   0  0  0  0  0  2  0  0  0  0  0  0
  188.6870  177.0220  134.8430 C   0  0  0  0  0  2  0  0  0  0  0  0
  187.3830  176.3370  135.0630 C   0  0  0  0  0  0  0  0  0  0  0  0
  187.3610  175.0920  135.2610 O   0  0  0  0  0  0  0  0  0  0  0  0
  186.1660  177.0970  135.0620 N   0  0  0  0  0  2  0  0  0  0  0  0
  184.8620  176.4970  135.2930 C   0  0  0  0  0  2  0  0  0  0  0  0
  184.4420  176.7060  136.7390 C   0  0  0  0  0  2  0  0  0  0  0  0
  182.9990  176.8560  136.8210 N   0  0  0  0  0  2  0  0  0  0  0  0
  182.5300  176.0040  137.9080 C   0  0  0  0  0  2  0  0  0  0  0  0
  182.9140  174.6260  137.6600 N   0  0  0  0  0  2  0  0  0  0  0  0
  182.0940  173.7730  136.8560 C   0  0  0  0  0  3  0  0  0  0  0  0
  182.4430  172.5130  136.5900 C   0  0  0  0  0  3  0  0  0  0  0  0
  183.6980  171.8960  137.1220 C   0  0  0  0  0  2  0  0  0  0  0  0
  186.2150  172.6560  137.2340 O   0  0  0  0  0  1  0  0  0  0  0  0
  185.8810  172.0020  136.0430 C   0  0  2  0  0  0  0  0  0  0  0  0
  186.9190  171.1200  135.3820 C   0  0  0  0  0  1  0  0  0  0  0  0
  184.8580  172.6160  135.2190 C   0  0  0  0  0  2  0  0  0  0  0  0
  184.5220  171.4160  136.0160 N   0  0  0  0  0  0  0  0  0  0  0  0
  1  8  1  0  0  0  0
  2  4  2  0  0  0  0
  2 11  1  0  0  0  0
  3  5  1  0  0  0  0
  4 12  1  0  0  0  0
  5 14  1  1  0  0  0
  5  1  1  0  0  0  0
  6 22  1  6  0  0  0
  7 10  1  0  0  0  0
  8  6  1  0  0  0  0
  9  3  1  0  0  0  0
  9  7  1  0  0  0  0
 10  6  1  0  0  0  0
 11  9  2  0  0  0  0
 12  3  2  0  0  0  0
 14 13  2  0  0  0  0
 15 19  2  0  0  0  0
 17 18  1  0  0  0  0
 17 21  2  0  0  0  0
 18 20  2  0  0  0  0
 19 13  1  0  0  0  0
 20 15  1  0  0  0  0
 20 14  1  0  0  0  0
 21 16  1  0  0  0  0
 21 15  1  0  0  0  0
 22 23  1  0  0  0  0
 23 24  1  0  0  0  0
 24 29  1  0  0  0  0
 25 27  1  0  0  0  0
 26 31  1  0  0  0  0
 27 31  2  0  0  0  0
 28 25  1  0  0  0  0
 29 26  2  0  0  0  0
 30 29  1  0  0  0  0
 30 25  2  0  0  0  0
 32  2  1  0  0  0  0
 33 34  1  0  0  0  0
 33 32  1  0  0  0  0
 34 35  2  0  0  0  0
 36 34  1  0  0  0  0
 36 37  1  0  0  0  0
 37 38  1  0  0  0  0
 38 39  1  0  0  0  0
 39 40  1  0  0  0  0
 41 40  1  0  0  0  0
 42 41  1  0  0  0  0
 43 42  2  0  0  0  0
 43 44  1  0  0  0  0
 46 47  1  6  0  0  0
 46 45  1  0  0  0  0
 48 49  1  0  0  0  0
 48 46  1  0  0  0  0
 49 46  1  0  0  0  0
 49 44  1  0  0  0  0
M  END
>  <MODEL>
4

>  <REMARK>
 VINA RESULT:      -7.4      3.720      6.715
  Name = 
  16 active torsions:
  status: ('A' for Active; 'I' for Inactive)
    1  A    between atoms: C_1  and  C_26
    2  A    between atoms: C_1  and  C_41
    3  A    between atoms: C_3  and  N_49
    4  A    between atoms: N_4  and  C_32
    5  A    between atoms: N_4  and  C_47
    6  A    between atoms: C_9  and  C_14
    7  A    between atoms: N_17  and  C_27
    8  A    between atoms: N_17  and  C_47
    9  A    between atoms: C_19  and  C_38
   10  A    between atoms: N_21  and  C_28
   11  A    between atoms: C_22  and  C_42
   12  A    between atoms: C_28  and  C_32
   13  A    between atoms: C_29  and  C_34
   14  A    between atoms: C_29  and  N_45
   15  A    between atoms: C_38  and  N_49
   16  A    between atoms: C_41  and  C_42
                            x       y       z     vdW  Elec       q    Type
                         _______ _______ _______ _____ _____    ______ ____

>  <TORSDO>
F 16

$$$$
=
 OpenBabel10232410523D

 49 54  0  0  1  0  0  0  0  0999 V2000
  181.2330  176.5160  137.7550 C   0  0  0  0  0  2  0  0  0  0  0  0
  185.9190  177.4380  135.4560 C   0  0  0  0  0  0  0  0  0  0  0  0
  183.3190  176.7100  136.1780 C   0  0  0  0  0  0  0  0  0  0  0  0
  185.0080  176.9730  134.5100 C   0  0  0  0  0  3  0  0  0  0  0  0
  181.9360  176.1470  136.4520 C   0  0  1  0  0  3  0  0  0  0  0  0
  181.9090  178.4870  139.0780 C   0  0  1  0  0  3  0  0  0  0  0  0
  183.8310  177.4610  138.5790 C   0  0  0  0  0  2  0  0  0  0  0  0
  181.0400  178.0150  137.9120 C   0  0  0  0  0  2  0  0  0  0  0  0
  184.2180  177.1940  137.1640 C   0  0  0  0  0  0  0  0  0  0  0  0
  183.2200  178.7180  138.6490 O   0  0  0  0  0  0  0  0  0  0  0  0
  185.5080  177.5630  136.7800 C   0  0  0  0  0  3  0  0  0  0  0  0
  183.7540  176.6210  134.8890 N   0  0  0  0  0  0  0  0  0  0  0  0
  181.4280  173.9910  135.2460 C   0  0  0  0  0  3  0  0  0  0  0  0
  181.9480  174.6610  136.2840 C   0  0  0  0  0  0  0  0  0  0  0  0
  182.4680  172.4610  136.3950 C   0  0  0  0  0  0  0  0  0  0  0  0
  184.0430  170.0910  136.0470 Cl  0  0  0  0  0  0  0  0  0  0  0  0
  184.4840  172.4930  137.3330 C   0  0  0  0  0  3  0  0  0  0  0  0
  183.8770  173.7830  137.5370 N   0  0  0  0  0  0  0  0  0  0  0  0
  181.8200  172.6070  135.2860 N   0  0  0  0  0  0  0  0  0  0  0  0
  182.6820  173.6820  137.0610 C   0  0  0  0  0  0  0  0  0  0  0  0
  183.6760  171.7020  136.6240 C   0  0  0  0  0  0  0  0  0  0  0  0
  181.3410  179.7660  139.6710 C   0  0  0  0  0  2  0  0  0  0  0  0
  181.2170  179.6280  141.1830 C   0  0  0  0  0  2  0  0  0  0  0  0
  181.7770  178.2940  141.6520 C   0  0  0  0  0  2  0  0  0  0  0  0
  185.2320  178.3670  143.2190 C   0  0  0  0  0  0  0  0  0  0  0  0
  182.5910  178.9750  143.9280 C   0  0  0  0  0  3  0  0  0  0  0  0
  184.9470  178.8570  144.4980 C   0  0  0  0  0  3  0  0  0  0  0  0
  186.6350  178.0480  142.8370 C   0  0  0  0  0  1  0  0  0  0  0  0
  182.8760  178.4820  142.6480 C   0  0  0  0  0  0  0  0  0  0  0  0
  184.1980  178.1810  142.2940 C   0  0  0  0  0  3  0  0  0  0  0  0
  183.6270  179.1600  144.8540 C   0  0  0  0  0  3  0  0  0  0  0  0
  187.2530  177.8100  135.0890 N   0  0  0  0  0  2  0  0  0  0  0  0
  188.3950  176.9200  135.2360 C   0  0  0  0  0  2  0  0  0  0  0  0
  189.2650  177.3770  136.3550 C   0  0  0  0  0  0  0  0  0  0  0  0
  189.0490  178.4990  136.8900 O   0  0  0  0  0  0  0  0  0  0  0  0
  190.3280  176.5370  136.8250 N   0  0  0  0  0  2  0  0  0  0  0  0
  191.2000  176.9110  137.9280 C   0  0  0  0  0  2  0  0  0  0  0  0
  190.6970  176.2900  139.2220 C   0  0  0  0  0  2  0  0  0  0  0  0
  190.3480  177.3340  140.1700 N   0  0  0  0  0  2  0  0  0  0  0  0
  190.4070  176.7530  141.5050 C   0  0  0  0  0  2  0  0  0  0  0  0
  190.5240  177.8040  142.5000 N   0  0  0  0  0  2  0  0  0  0  0  0
  191.5290  177.7390  143.5160 C   0  0  0  0  0  3  0  0  0  0  0  0
  191.2360  177.3900  144.7700 C   0  0  0  0  0  3  0  0  0  0  0  0
  189.8510  177.0250  145.2020 C   0  0  0  0  0  2  0  0  0  0  0  0
  189.3390  176.1190  147.6190 O   0  0  0  0  0  1  0  0  0  0  0  0
  188.9170  177.4370  147.4150 C   0  0  2  0  0  0  0  0  0  0  0  0
  188.9950  178.4140  148.5690 C   0  0  0  0  0  1  0  0  0  0  0  0
  187.9280  177.6590  146.3780 C   0  0  0  0  0  2  0  0  0  0  0  0
  189.3370  178.0310  146.1260 N   0  0  0  0  0  0  0  0  0  0  0  0
  1  8  1  0  0  0  0
  2 11  1  0  0  0  0
  3  5  1  0  0  0  0
  3  9  1  0  0  0  0
  4 12  1  0  0  0  0
  4  2  2  0  0  0  0
  5 14  1  1  0  0  0
  5  1  1  0  0  0  0
  6 22  1  6  0  0  0
  7 10  1  0  0  0  0
  8  6  1  0  0  0  0
  9  7  1  0  0  0  0
 10  6  1  0  0  0  0
 11  9  2  0  0  0  0
 12  3  2  0  0  0  0
 13 19  2  0  0  0  0
 13 14  1  0  0  0  0
 14 20  2  0  0  0  0
 15 21  2  0  0  0  0
 15 20  1  0  0  0  0
 16 21  1  0  0  0  0
 17 18  2  0  0  0  0
 19 15  1  0  0  0  0
 20 18  1  0  0  0  0
 21 17  1  0  0  0  0
 22 23  1  0  0  0  0
 23 24  1  0  0  0  0
 24 29  1  0  0  0  0
 25 27  1  0  0  0  0
 26 31  1  0  0  0  0
 27 31  2  0  0  0  0
 28 25  1  0  0  0  0
 29 26  2  0  0  0  0
 30 29  1  0  0  0  0
 30 25  2  0  0  0  0
 32 33  1  0  0  0  0
 32  2  1  0  0  0  0
 33 34  1  0  0  0  0
 34 36  1  0  0  0  0
 34 35  2  0  0  0  0
 36 37  1  0  0  0  0
 37 38  1  0  0  0  0
 38 39  1  0  0  0  0
 39 40  1  0  0  0  0
 40 41  1  0  0  0  0
 41 42  1  0  0  0  0
 42 43  2  0  0  0  0
 43 44  1  0  0  0  0
 44 49  1  0  0  0  0
 46 45  1  0  0  0  0
 46 47  1  1  0  0  0
 48 46  1  0  0  0  0
 49 48  1  0  0  0  0
 49 46  1  0  0  0  0
M  END
>  <MODEL>
5

>  <REMARK>
 VINA RESULT:      -7.2      3.577      8.694
  Name = 
  16 active torsions:
  status: ('A' for Active; 'I' for Inactive)
    1  A    between atoms: C_1  and  C_26
    2  A    between atoms: C_1  and  C_41
    3  A    between atoms: C_3  and  N_49
    4  A    between atoms: N_4  and  C_32
    5  A    between atoms: N_4  and  C_47
    6  A    between atoms: C_9  and  C_14
    7  A    between atoms: N_17  and  C_27
    8  A    between atoms: N_17  and  C_47
    9  A    between atoms: C_19  and  C_38
   10  A    between atoms: N_21  and  C_28
   11  A    between atoms: C_22  and  C_42
   12  A    between atoms: C_28  and  C_32
   13  A    between atoms: C_29  and  C_34
   14  A    between atoms: C_29  and  N_45
   15  A    between atoms: C_38  and  N_49
   16  A    between atoms: C_41  and  C_42
                            x       y       z     vdW  Elec       q    Type
                         _______ _______ _______ _____ _____    ______ ____

>  <TORSDO>
F 16

$$$$
=
 OpenBabel10232410523D

 49 54  0  0  1  0  0  0  0  0999 V2000
  188.0260  178.3690  142.2880 C   0  0  0  0  0  2  0  0  0  0  0  0
  188.7320  177.2390  137.1580 C   0  0  0  0  0  0  0  0  0  0  0  0
  187.9720  178.1940  139.6720 C   0  0  0  0  0  0  0  0  0  0  0  0
  187.9150  178.3590  137.2900 C   0  0  0  0  0  3  0  0  0  0  0  0
  187.3690  178.7280  140.9580 C   0  0  1  0  0  3  0  0  0  0  0  0
  190.3580  177.5700  142.4060 C   0  0  1  0  0  3  0  0  0  0  0  0
  189.4440  176.3850  140.7470 C   0  0  0  0  0  2  0  0  0  0  0  0
  189.4740  178.8180  142.3660 C   0  0  0  0  0  2  0  0  0  0  0  0
  188.8170  177.0580  139.5730 C   0  0  0  0  0  0  0  0  0  0  0  0
  190.5930  177.0950  141.1120 O   0  0  0  0  0  0  0  0  0  0  0  0
  189.1940  176.6040  138.3080 C   0  0  0  0  0  3  0  0  0  0  0  0
  187.5570  178.7980  138.5220 N   0  0  0  0  0  0  0  0  0  0  0  0
  185.2320  178.0310  142.1020 C   0  0  0  0  0  3  0  0  0  0  0  0
  185.9080  178.4080  141.0080 C   0  0  0  0  0  0  0  0  0  0  0  0
  183.6860  178.3050  140.5920 C   0  0  0  0  0  0  0  0  0  0  0  0
  181.0020  179.2630  140.2930 Cl  0  0  0  0  0  0  0  0  0  0  0  0
  183.4010  179.9390  139.1100 C   0  0  0  0  0  3  0  0  0  0  0  0
  184.8090  179.6470  139.1860 N   0  0  0  0  0  0  0  0  0  0  0  0
  183.8150  178.0340  141.8500 N   0  0  0  0  0  0  0  0  0  0  0  0
  184.9110  178.6360  139.9820 C   0  0  0  0  0  0  0  0  0  0  0  0
  182.7180  179.1760  139.9660 C   0  0  0  0  0  0  0  0  0  0  0  0
  191.6850  177.8890  143.0740 C   0  0  0  0  0  2  0  0  0  0  0  0
  191.4700  178.1600  144.5580 C   0  0  0  0  0  2  0  0  0  0  0  0
  190.8840  176.9390  145.2500 C   0  0  0  0  0  2  0  0  0  0  0  0
  187.3570  177.6820  146.4380 C   0  0  0  0  0  0  0  0  0  0  0  0
  189.9530  177.6010  147.4870 C   0  0  0  0  0  3  0  0  0  0  0  0
  187.5750  177.9740  147.7890 C   0  0  0  0  0  3  0  0  0  0  0  0
  185.9780  177.7200  145.8790 C   0  0  0  0  0  1  0  0  0  0  0  0
  189.7370  177.3100  146.1340 C   0  0  0  0  0  0  0  0  0  0  0  0
  188.4360  177.3480  145.6120 C   0  0  0  0  0  3  0  0  0  0  0  0
  188.8720  177.9350  148.3140 C   0  0  0  0  0  3  0  0  0  0  0  0
  189.1220  176.7440  135.8710 N   0  0  0  0  0  2  0  0  0  0  0  0
  188.3270  175.7910  135.1110 C   0  0  0  0  0  2  0  0  0  0  0  0
  188.7820  174.4010  135.3930 C   0  0  0  0  0  0  0  0  0  0  0  0
  187.9440  173.5370  135.7670 O   0  0  0  0  0  0  0  0  0  0  0  0
  190.1640  174.0530  135.2260 N   0  0  0  0  0  2  0  0  0  0  0  0
  190.6730  172.7100  135.4610 C   0  0  0  0  0  2  0  0  0  0  0  0
  191.7670  172.3860  134.4570 C   0  0  0  0  0  2  0  0  0  0  0  0
  192.8940  171.7650  135.1340 N   0  0  0  0  0  2  0  0  0  0  0  0
  194.0880  172.0460  134.3460 C   0  0  0  0  0  2  0  0  0  0  0  0
  194.7750  173.2080  134.8820 N   0  0  0  0  0  2  0  0  0  0  0  0
  195.7500  173.0660  135.9180 C   0  0  0  0  0  3  0  0  0  0  0  0
  195.4940  173.4290  137.1760 C   0  0  0  0  0  3  0  0  0  0  0  0
  194.1730  173.9890  137.6000 C   0  0  0  0  0  2  0  0  0  0  0  0
  191.9350  175.1720  138.3190 O   0  0  0  0  0  1  0  0  0  0  0  0
  193.0250  176.0440  138.2330 C   0  0  2  0  0  0  0  0  0  0  0  0
  193.1140  177.1970  139.2100 C   0  0  0  0  0  1  0  0  0  0  0  0
  193.6620  176.1760  136.9360 C   0  0  0  0  0  2  0  0  0  0  0  0
  194.3300  175.3860  137.9940 N   0  0  0  0  0  0  0  0  0  0  0  0
  1  8  1  0  0  0  0
  2  4  2  0  0  0  0
  2 11  1  0  0  0  0
  3  5  1  0  0  0  0
  4 12  1  0  0  0  0
  5 14  1  1  0  0  0
  5  1  1  0  0  0  0
  6 22  1  6  0  0  0
  7 10  1  0  0  0  0
  8  6  1  0  0  0  0
  9  3  1  0  0  0  0
  9  7  1  0  0  0  0
 10  6  1  0  0  0  0
 11  9  2  0  0  0  0
 12  3  2  0  0  0  0
 14 13  2  0  0  0  0
 15 19  2  0  0  0  0
 17 18  1  0  0  0  0
 17 21  2  0  0  0  0
 18 20  2  0  0  0  0
 19 13  1  0  0  0  0
 20 15  1  0  0  0  0
 20 14  1  0  0  0  0
 21 16  1  0  0  0  0
 21 15  1  0  0  0  0
 22 23  1  0  0  0  0
 23 24  1  0  0  0  0
 24 29  1  0  0  0  0
 25 27  1  0  0  0  0
 26 31  1  0  0  0  0
 27 31  2  0  0  0  0
 28 25  1  0  0  0  0
 29 26  2  0  0  0  0
 30 29  1  0  0  0  0
 30 25  2  0  0  0  0
 32  2  1  0  0  0  0
 33 34  1  0  0  0  0
 33 32  1  0  0  0  0
 34 35  2  0  0  0  0
 36 34  1  0  0  0  0
 36 37  1  0  0  0  0
 38 39  1  0  0  0  0
 38 37  1  0  0  0  0
 40 41  1  0  0  0  0
 40 39  1  0  0  0  0
 41 42  1  0  0  0  0
 42 43  2  0  0  0  0
 43 44  1  0  0  0  0
 44 49  1  0  0  0  0
 46 45  1  0  0  0  0
 46 47  1  1  0  0  0
 48 49  1  0  0  0  0
 48 46  1  0  0  0  0
 49 46  1  0  0  0  0
M  END
>  <MODEL>
6

>  <REMARK>
 VINA RESULT:      -7.2      3.975      8.356
  Name = 
  16 active torsions:
  status: ('A' for Active; 'I' for Inactive)
    1  A    between atoms: C_1  and  C_26
    2  A    between atoms: C_1  and  C_41
    3  A    between atoms: C_3  and  N_49
    4  A    between atoms: N_4  and  C_32
    5  A    between atoms: N_4  and  C_47
    6  A    between atoms: C_9  and  C_14
    7  A    between atoms: N_17  and  C_27
    8  A    between atoms: N_17  and  C_47
    9  A    between atoms: C_19  and  C_38
   10  A    between atoms: N_21  and  C_28
   11  A    between atoms: C_22  and  C_42
   12  A    between atoms: C_28  and  C_32
   13  A    between atoms: C_29  and  C_34
   14  A    between atoms: C_29  and  N_45
   15  A    between atoms: C_38  and  N_49
   16  A    between atoms: C_41  and  C_42
                            x       y       z     vdW  Elec       q    Type
                         _______ _______ _______ _____ _____    ______ ____

>  <TORSDO>
F 16

$$$$
=
 OpenBabel10232410523D

 49 54  0  0  1  0  0  0  0  0999 V2000
  190.5900  175.9840  136.1290 C   0  0  0  0  0  2  0  0  0  0  0  0
  191.7160  177.3500  141.1260 C   0  0  0  0  0  0  0  0  0  0  0  0
  191.6800  176.6300  138.4260 C   0  0  0  0  0  0  0  0  0  0  0  0
  192.8670  177.4150  140.3440 C   0  0  0  0  0  3  0  0  0  0  0  0
  191.8360  176.1360  136.9990 C   0  0  1  0  0  3  0  0  0  0  0  0
  188.4790  177.1380  136.6790 C   0  0  1  0  0  3  0  0  0  0  0  0
  189.1490  176.2450  138.6140 C   0  0  0  0  0  2  0  0  0  0  0  0
  189.8260  177.2860  135.9690 C   0  0  0  0  0  2  0  0  0  0  0  0
  190.4870  176.5660  139.1900 C   0  0  0  0  0  0  0  0  0  0  0  0
  188.6140  177.4050  138.0450 O   0  0  0  0  0  0  0  0  0  0  0  0
  190.5240  176.9410  140.5350 C   0  0  0  0  0  3  0  0  0  0  0  0
  192.8220  177.0550  139.0370 N   0  0  0  0  0  0  0  0  0  0  0  0
  192.1840  173.6800  136.5430 C   0  0  0  0  0  3  0  0  0  0  0  0
  192.6260  174.8660  136.9820 C   0  0  0  0  0  0  0  0  0  0  0  0
  194.3010  173.3440  136.9310 C   0  0  0  0  0  0  0  0  0  0  0  0
  196.5680  171.9360  135.8870 Cl  0  0  0  0  0  0  0  0  0  0  0  0
  196.0690  174.5950  136.4260 C   0  0  0  0  0  3  0  0  0  0  0  0
  195.0090  175.4730  136.8520 N   0  0  0  0  0  0  0  0  0  0  0  0
  193.2670  172.7370  136.4480 N   0  0  0  0  0  0  0  0  0  0  0  0
  194.0460  174.6980  137.2220 C   0  0  0  0  0  0  0  0  0  0  0  0
  195.6560  173.3270  136.4310 C   0  0  0  0  0  0  0  0  0  0  0  0
  187.4610  178.0920  136.0770 C   0  0  0  0  0  2  0  0  0  0  0  0
  186.3060  177.3070  135.4700 C   0  0  0  0  0  2  0  0  0  0  0  0
  186.7300  175.8820  135.1510 C   0  0  0  0  0  2  0  0  0  0  0  0
  183.9730  174.0410  136.9970 C   0  0  0  0  0  0  0  0  0  0  0  0
  186.7490  173.8750  136.6610 C   0  0  0  0  0  3  0  0  0  0  0  0
  184.6960  173.0260  137.6350 C   0  0  0  0  0  3  0  0  0  0  0  0
  182.4970  174.1280  137.1700 C   0  0  0  0  0  1  0  0  0  0  0  0
  186.0270  174.8930  136.0240 C   0  0  0  0  0  0  0  0  0  0  0  0
  184.6380  174.9710  136.1910 C   0  0  0  0  0  3  0  0  0  0  0  0
  186.0830  172.9430  137.4690 C   0  0  0  0  0  3  0  0  0  0  0  0
  191.7310  177.7150  142.5110 N   0  0  0  0  0  2  0  0  0  0  0  0
  190.8120  178.6860  143.0870 C   0  0  0  0  0  2  0  0  0  0  0  0
  189.9060  178.0200  144.0650 C   0  0  0  0  0  0  0  0  0  0  0  0
  190.1730  178.0770  145.2960 O   0  0  0  0  0  0  0  0  0  0  0  0
  188.7350  177.3330  143.6030 N   0  0  0  0  0  2  0  0  0  0  0  0
  187.7970  176.6810  144.5030 C   0  0  0  0  0  2  0  0  0  0  0  0
  186.5490  177.5360  144.6610 C   0  0  0  0  0  2  0  0  0  0  0  0
  186.6320  178.3140  145.8860 N   0  0  0  0  0  2  0  0  0  0  0  0
  185.3140  178.8860  146.1340 C   0  0  0  0  0  2  0  0  0  0  0  0
  184.7800  179.4510  144.9080 N   0  0  0  0  0  2  0  0  0  0  0  0
  183.4480  179.1490  144.4840 C   0  0  0  0  0  3  0  0  0  0  0  0
  183.1670  178.8480  143.2150 C   0  0  0  0  0  3  0  0  0  0  0  0
  184.2170  178.7830  142.1520 C   0  0  0  0  0  2  0  0  0  0  0  0
  184.6530  179.8230  139.7730 O   0  0  0  0  0  1  0  0  0  0  0  0
  183.8730  178.6620  139.7420 C   0  0  2  0  0  0  0  0  0  0  0  0
  184.0240  177.7140  138.5710 C   0  0  0  0  0  1  0  0  0  0  0  0
  182.6080  178.6980  140.4520 C   0  0  0  0  0  2  0  0  0  0  0  0
  183.7490  177.9610  141.0400 N   0  0  0  0  0  0  0  0  0  0  0  0
  1  5  1  0  0  0  0
  2 32  1  0  0  0  0
  3 12  2  0  0  0  0
  3  9  1  0  0  0  0
  4  2  2  0  0  0  0
  5 14  1  1  0  0  0
  5  3  1  0  0  0  0
  6 22  1  6  0  0  0
  6 10  1  0  0  0  0
  7  9  1  0  0  0  0
  8  1  1  0  0  0  0
  8  6  1  0  0  0  0
  9 11  2  0  0  0  0
 10  7  1  0  0  0  0
 11  2  1  0  0  0  0
 12  4  1  0  0  0  0
 13 14  1  0  0  0  0
 14 20  2  0  0  0  0
 15 20  1  0  0  0  0
 16 21  1  0  0  0  0
 17 21  1  0  0  0  0
 17 18  2  0  0  0  0
 18 20  1  0  0  0  0
 19 13  2  0  0  0  0
 19 15  1  0  0  0  0
 21 15  2  0  0  0  0
 23 22  1  0  0  0  0
 24 23  1  0  0  0  0
 24 29  1  0  0  0  0
 25 28  1  0  0  0  0
 25 27  1  0  0  0  0
 26 31  1  0  0  0  0
 29 30  1  0  0  0  0
 29 26  2  0  0  0  0
 30 25  2  0  0  0  0
 31 27  2  0  0  0  0
 32 33  1  0  0  0  0
 33 34  1  0  0  0  0
 34 35  2  0  0  0  0
 36 34  1  0  0  0  0
 36 37  1  0  0  0  0
 37 38  1  0  0  0  0
 38 39  1  0  0  0  0
 39 40  1  0  0  0  0
 41 40  1  0  0  0  0
 42 41  1  0  0  0  0
 43 42  2  0  0  0  0
 44 43  1  0  0  0  0
 46 47  1  6  0  0  0
 46 45  1  0  0  0  0
 46 48  1  0  0  0  0
 46 49  1  0  0  0  0
 48 49  1  0  0  0  0
 49 44  1  0  0  0  0
M  END
>  <MODEL>
7

>  <REMARK>
 VINA RESULT:      -7.1      2.683      7.005
  Name = 
  16 active torsions:
  status: ('A' for Active; 'I' for Inactive)
    1  A    between atoms: C_1  and  C_26
    2  A    between atoms: C_1  and  C_41
    3  A    between atoms: C_3  and  N_49
    4  A    between atoms: N_4  and  C_32
    5  A    between atoms: N_4  and  C_47
    6  A    between atoms: C_9  and  C_14
    7  A    between atoms: N_17  and  C_27
    8  A    between atoms: N_17  and  C_47
    9  A    between atoms: C_19  and  C_38
   10  A    between atoms: N_21  and  C_28
   11  A    between atoms: C_22  and  C_42
   12  A    between atoms: C_28  and  C_32
   13  A    between atoms: C_29  and  C_34
   14  A    between atoms: C_29  and  N_45
   15  A    between atoms: C_38  and  N_49
   16  A    between atoms: C_41  and  C_42
                            x       y       z     vdW  Elec       q    Type
                         _______ _______ _______ _____ _____    ______ ____

>  <TORSDO>
F 16

$$$$
=
 OpenBabel10232410523D

 49 54  0  0  1  0  0  0  0  0999 V2000
  191.1760  175.5880  135.4740 C   0  0  0  0  0  2  0  0  0  0  0  0
  191.8590  177.2620  140.4570 C   0  0  0  0  0  0  0  0  0  0  0  0
  192.0610  176.3860  137.8110 C   0  0  0  0  0  0  0  0  0  0  0  0
  193.0710  177.3000  139.7720 C   0  0  0  0  0  3  0  0  0  0  0  0
  192.3420  175.8110  136.4340 C   0  0  1  0  0  3  0  0  0  0  0  0
  189.0130  176.7380  135.7750 C   0  0  1  0  0  3  0  0  0  0  0  0
  189.5270  175.9700  137.8090 C   0  0  0  0  0  2  0  0  0  0  0  0
  190.4130  176.8660  135.1730 C   0  0  0  0  0  2  0  0  0  0  0  0
  190.8070  176.3470  138.4750 C   0  0  0  0  0  0  0  0  0  0  0  0
  189.0290  177.0870  137.1290 O   0  0  0  0  0  0  0  0  0  0  0  0
  190.7260  176.8000  139.7930 C   0  0  0  0  0  3  0  0  0  0  0  0
  193.1420  176.8630  138.4900 N   0  0  0  0  0  0  0  0  0  0  0  0
  192.7530  173.3380  136.1620 C   0  0  0  0  0  3  0  0  0  0  0  0
  193.1450  174.5560  136.5600 C   0  0  0  0  0  0  0  0  0  0  0  0
  194.8350  173.0600  136.7380 C   0  0  0  0  0  0  0  0  0  0  0  0
  197.1940  171.6270  135.9660 Cl  0  0  0  0  0  0  0  0  0  0  0  0
  196.6240  174.3060  136.2970 C   0  0  0  0  0  3  0  0  0  0  0  0
  195.5240  175.1910  136.5820 N   0  0  0  0  0  0  0  0  0  0  0  0
  193.8500  172.4080  136.2120 N   0  0  0  0  0  0  0  0  0  0  0  0
  194.5420  174.4250  136.9220 C   0  0  0  0  0  0  0  0  0  0  0  0
  196.2270  173.0340  136.3490 C   0  0  0  0  0  0  0  0  0  0  0  0
  188.0390  177.6390  135.0340 C   0  0  0  0  0  2  0  0  0  0  0  0
  186.7630  176.8730  134.7110 C   0  0  0  0  0  2  0  0  0  0  0  0
  185.7400  177.0330  135.8250 C   0  0  0  0  0  2  0  0  0  0  0  0
  186.0830  173.4620  137.0640 C   0  0  0  0  0  0  0  0  0  0  0  0
  184.1940  175.5300  137.1130 C   0  0  0  0  0  3  0  0  0  0  0  0
  184.8530  173.2710  137.7030 C   0  0  0  0  0  3  0  0  0  0  0  0
  187.0910  172.3670  137.0410 C   0  0  0  0  0  1  0  0  0  0  0  0
  185.4240  175.7220  136.4710 C   0  0  0  0  0  0  0  0  0  0  0  0
  186.3690  174.6870  136.4510 C   0  0  0  0  0  3  0  0  0  0  0  0
  183.9080  174.3030  137.7270 C   0  0  0  0  0  3  0  0  0  0  0  0
  191.7530  177.7090  141.8140 N   0  0  0  0  0  2  0  0  0  0  0  0
  190.8140  177.1360  142.7680 C   0  0  0  0  0  2  0  0  0  0  0  0
  191.2330  177.4590  144.1600 C   0  0  0  0  0  0  0  0  0  0  0  0
  191.8020  178.5590  144.3970 O   0  0  0  0  0  0  0  0  0  0  0  0
  190.9750  176.5270  145.2200 N   0  0  0  0  0  2  0  0  0  0  0  0
  191.3360  176.7890  146.6050 C   0  0  0  0  0  2  0  0  0  0  0  0
  190.0810  176.9360  147.4510 C   0  0  0  0  0  2  0  0  0  0  0  0
  188.9980  177.4710  146.6440 N   0  0  0  0  0  2  0  0  0  0  0  0
  187.8950  177.7870  147.5430 C   0  0  0  0  0  2  0  0  0  0  0  0
  186.6280  177.6030  146.8590 N   0  0  0  0  0  2  0  0  0  0  0  0
  185.6790  178.6700  146.7790 C   0  0  0  0  0  3  0  0  0  0  0  0
  185.2340  179.1260  145.6070 C   0  0  0  0  0  3  0  0  0  0  0  0
  185.6750  178.5490  144.2990 C   0  0  0  0  0  2  0  0  0  0  0  0
  185.6180  179.5070  141.8480 O   0  0  0  0  0  1  0  0  0  0  0  0
  184.4470  178.8330  142.2120 C   0  0  2  0  0  0  0  0  0  0  0  0
  183.7070  178.0390  141.1570 C   0  0  0  0  0  1  0  0  0  0  0  0
  183.7020  179.3660  143.3370 C   0  0  0  0  0  2  0  0  0  0  0  0
  184.5100  178.1400  143.5190 N   0  0  0  0  0  0  0  0  0  0  0  0
  1  5  1  0  0  0  0
  2 32  1  0  0  0  0
  3  9  1  0  0  0  0
  3 12  2  0  0  0  0
  4  2  2  0  0  0  0
  5 14  1  1  0  0  0
  5  3  1  0  0  0  0
  6 22  1  6  0  0  0
  6 10  1  0  0  0  0
  7  9  1  0  0  0  0
  8  1  1  0  0  0  0
  8  6  1  0  0  0  0
  9 11  2  0  0  0  0
 10  7  1  0  0  0  0
 11  2  1  0  0  0  0
 12  4  1  0  0  0  0
 13 19  2  0  0  0  0
 13 14  1  0  0  0  0
 14 20  2  0  0  0  0
 15 20  1  0  0  0  0
 16 21  1  0  0  0  0
 17 21  1  0  0  0  0
 17 18  2  0  0  0  0
 18 20  1  0  0  0  0
 19 15  1  0  0  0  0
 21 15  2  0  0  0  0
 23 22  1  0  0  0  0
 23 24  1  0  0  0  0
 24 29  1  0  0  0  0
 25 27  1  0  0  0  0
 26 31  1  0  0  0  0
 27 31  2  0  0  0  0
 28 25  1  0  0  0  0
 29 26  2  0  0  0  0
 30 29  1  0  0  0  0
 30 25  2  0  0  0  0
 32 33  1  0  0  0  0
 33 34  1  0  0  0  0
 34 35  2  0  0  0  0
 34 36  1  0  0  0  0
 36 37  1  0  0  0  0
 37 38  1  0  0  0  0
 39 38  1  0  0  0  0
 39 40  1  0  0  0  0
 41 40  1  0  0  0  0
 42 41  1  0  0  0  0
 43 42  2  0  0  0  0
 44 43  1  0  0  0  0
 45 46  1  0  0  0  0
 46 47  1  6  0  0  0
 46 48  1  0  0  0  0
 46 49  1  0  0  0  0
 48 49  1  0  0  0  0
 49 44  1  0  0  0  0
M  END
>  <MODEL>
8

>  <REMARK>
 VINA RESULT:      -7.0      3.245      7.639
  Name = 
  16 active torsions:
  status: ('A' for Active; 'I' for Inactive)
    1  A    between atoms: C_1  and  C_26
    2  A    between atoms: C_1  and  C_41
    3  A    between atoms: C_3  and  N_49
    4  A    between atoms: N_4  and  C_32
    5  A    between atoms: N_4  and  C_47
    6  A    between atoms: C_9  and  C_14
    7  A    between atoms: N_17  and  C_27
    8  A    between atoms: N_17  and  C_47
    9  A    between atoms: C_19  and  C_38
   10  A    between atoms: N_21  and  C_28
   11  A    between atoms: C_22  and  C_42
   12  A    between atoms: C_28  and  C_32
   13  A    between atoms: C_29  and  C_34
   14  A    between atoms: C_29  and  N_45
   15  A    between atoms: C_38  and  N_49
   16  A    between atoms: C_41  and  C_42
                            x       y       z     vdW  Elec       q    Type
                         _______ _______ _______ _____ _____    ______ ____

>  <TORSDO>
F 16

$$$$
=
 OpenBabel10232410523D

 49 54  0  0  1  0  0  0  0  0999 V2000
  191.1500  176.8520  139.8740 C   0  0  0  0  0  2  0  0  0  0  0  0
  187.4720  176.2680  136.1020 C   0  0  0  0  0  0  0  0  0  0  0  0
  189.6290  176.1070  137.8720 C   0  0  0  0  0  0  0  0  0  0  0  0
  188.2700  175.1280  136.1700 C   0  0  0  0  0  3  0  0  0  0  0  0
  190.9080  175.9420  138.6740 C   0  0  1  0  0  3  0  0  0  0  0  0
  189.3030  178.0680  140.9710 C   0  0  1  0  0  3  0  0  0  0  0  0
  188.9850  178.4180  138.7870 C   0  0  0  0  0  2  0  0  0  0  0  0
  190.0590  176.7390  140.9250 C   0  0  0  0  0  2  0  0  0  0  0  0
  188.8280  177.2780  137.8380 C   0  0  0  0  0  0  0  0  0  0  0  0
  188.3190  178.1060  139.9780 O   0  0  0  0  0  0  0  0  0  0  0  0
  187.7480  177.3330  136.9550 C   0  0  0  0  0  3  0  0  0  0  0  0
  189.3140  175.0790  137.0340 N   0  0  0  0  0  0  0  0  0  0  0  0
  193.0910  176.8680  137.8170 C   0  0  0  0  0  3  0  0  0  0  0  0
  192.0910  175.9780  137.7600 C   0  0  0  0  0  0  0  0  0  0  0  0
  193.7520  175.4270  136.3250 C   0  0  0  0  0  0  0  0  0  0  0  0
  196.1150  174.0980  135.3950 Cl  0  0  0  0  0  0  0  0  0  0  0  0
  193.6850  173.2040  136.3480 C   0  0  0  0  0  3  0  0  0  0  0  0
  192.4580  173.6930  136.9210 N   0  0  0  0  0  0  0  0  0  0  0  0
  194.1730  176.4740  136.9540 N   0  0  0  0  0  0  0  0  0  0  0  0
  192.5050  174.9760  136.7980 C   0  0  0  0  0  0  0  0  0  0  0  0
  194.4850  174.2190  136.0190 C   0  0  0  0  0  0  0  0  0  0  0  0
  188.6530  178.2540  142.3320 C   0  0  0  0  0  2  0  0  0  0  0  0
  188.3730  176.8980  142.9660 C   0  0  0  0  0  2  0  0  0  0  0  0
  188.1560  177.0360  144.4650 C   0  0  0  0  0  2  0  0  0  0  0  0
  184.6790  178.4900  144.0180 C   0  0  0  0  0  0  0  0  0  0  0  0
  186.4970  177.9920  146.0910 C   0  0  0  0  0  3  0  0  0  0  0  0
  184.3440  178.8170  145.3370 C   0  0  0  0  0  3  0  0  0  0  0  0
  183.7130  178.7480  142.9160 C   0  0  0  0  0  1  0  0  0  0  0  0
  186.8350  177.6650  144.7700 C   0  0  0  0  0  0  0  0  0  0  0  0
  185.9220  177.9120  143.7360 C   0  0  0  0  0  3  0  0  0  0  0  0
  185.2520  178.5700  146.3730 C   0  0  0  0  0  3  0  0  0  0  0  0
  186.3670  176.3550  135.1940 N   0  0  0  0  0  2  0  0  0  0  0  0
  184.9790  176.2380  135.6180 C   0  0  0  0  0  2  0  0  0  0  0  0
  184.4720  174.8650  135.3460 C   0  0  0  0  0  0  0  0  0  0  0  0
  185.1490  174.0850  134.6220 O   0  0  0  0  0  0  0  0  0  0  0  0
  183.2270  174.4360  135.9160 N   0  0  0  0  0  2  0  0  0  0  0  0
  182.6840  173.1020  135.7110 C   0  0  0  0  0  2  0  0  0  0  0  0
  182.0920  172.5750  137.0080 C   0  0  0  0  0  2  0  0  0  0  0  0
  180.6640  172.3570  136.8500 N   0  0  0  0  0  2  0  0  0  0  0  0
  180.0060  172.8700  138.0450 C   0  0  0  0  0  2  0  0  0  0  0  0
  180.2310  174.3000  138.1610 N   0  0  0  0  0  2  0  0  0  0  0  0
  180.0150  174.9750  139.4030 C   0  0  0  0  0  3  0  0  0  0  0  0
  180.8720  175.8880  139.8630 C   0  0  0  0  0  3  0  0  0  0  0  0
  182.1030  176.2860  139.1130 C   0  0  0  0  0  2  0  0  0  0  0  0
  182.3830  178.1020  137.2280 O   0  0  0  0  0  1  0  0  0  0  0  0
  182.8690  178.5100  138.4750 C   0  0  2  0  0  0  0  0  0  0  0  0
  182.7350  179.9660  138.8670 C   0  0  0  0  0  1  0  0  0  0  0  0
  183.9480  177.7280  139.0500 C   0  0  0  0  0  2  0  0  0  0  0  0
  182.5780  177.5820  139.5900 N   0  0  0  0  0  0  0  0  0  0  0  0
  1  8  1  0  0  0  0
  2  4  2  0  0  0  0
  2 11  1  0  0  0  0
  3  5  1  0  0  0  0
  4 12  1  0  0  0  0
  5 14  1  6  0  0  0
  5  1  1  0  0  0  0
  6 22  1  1  0  0  0
  7 10  1  0  0  0  0
  8  6  1  0  0  0  0
  9  3  1  0  0  0  0
  9  7  1  0  0  0  0
 10  6  1  0  0  0  0
 11  9  2  0  0  0  0
 12  3  2  0  0  0  0
 14 13  1  0  0  0  0
 15 20  1  0  0  0  0
 15 19  1  0  0  0  0
 16 21  1  0  0  0  0
 17 18  2  0  0  0  0
 19 13  2  0  0  0  0
 20 18  1  0  0  0  0
 20 14  2  0  0  0  0
 21 15  2  0  0  0  0
 21 17  1  0  0  0  0
 22 23  1  0  0  0  0
 23 24  1  0  0  0  0
 24 29  1  0  0  0  0
 25 27  1  0  0  0  0
 26 31  1  0  0  0  0
 27 31  2  0  0  0  0
 28 25  1  0  0  0  0
 29 26  2  0  0  0  0
 30 25  2  0  0  0  0
 30 29  1  0  0  0  0
 32 33  1  0  0  0  0
 32  2  1  0  0  0  0
 34 33  1  0  0  0  0
 34 36  1  0  0  0  0
 35 34  2  0  0  0  0
 37 36  1  0  0  0  0
 37 38  1  0  0  0  0
 39 38  1  0  0  0  0
 39 40  1  0  0  0  0
 40 41  1  0  0  0  0
 41 42  1  0  0  0  0
 42 43  2  0  0  0  0
 44 49  1  0  0  0  0
 44 43  1  0  0  0  0
 45 46  1  0  0  0  0
 46 47  1  1  0  0  0
 46 48  1  0  0  0  0
 46 49  1  0  0  0  0
 48 49  1  0  0  0  0
M  END
>  <MODEL>
9

>  <REMARK>
 VINA RESULT:      -7.0      1.683      2.342
  Name = 
  16 active torsions:
  status: ('A' for Active; 'I' for Inactive)
    1  A    between atoms: C_1  and  C_26
    2  A    between atoms: C_1  and  C_41
    3  A    between atoms: C_3  and  N_49
    4  A    between atoms: N_4  and  C_32
    5  A    between atoms: N_4  and  C_47
    6  A    between atoms: C_9  and  C_14
    7  A    between atoms: N_17  and  C_27
    8  A    between atoms: N_17  and  C_47
    9  A    between atoms: C_19  and  C_38
   10  A    between atoms: N_21  and  C_28
   11  A    between atoms: C_22  and  C_42
   12  A    between atoms: C_28  and  C_32
   13  A    between atoms: C_29  and  C_34
   14  A    between atoms: C_29  and  N_45
   15  A    between atoms: C_38  and  N_49
   16  A    between atoms: C_41  and  C_42
                            x       y       z     vdW  Elec       q    Type
                         _______ _______ _______ _____ _____    ______ ____

>  <TORSDO>
F 16

$$$$
