=
 OpenBabel10222421443D

 31 35  0  0  1  0  0  0  0  0999 V2000
  188.2720  177.9600  146.6300 C   0  0  2  0  0  3  0  0  0  0  0  0
  191.6540  176.7420  145.5730 C   0  0  0  0  0  1  0  0  0  0  0  0
  187.4170  177.9270  142.6440 C   0  0  0  0  0  0  0  0  0  0  0  0
  186.5510  178.2460  144.9490 C   0  0  0  0  0  0  0  0  0  0  0  0
  190.3270  177.0620  146.1650 C   0  0  0  0  0  0  0  0  0  0  0  0
  184.9600  178.4700  143.0740 C   0  0  0  0  0  0  0  0  0  0  0  0
  189.4000  178.1070  145.6380 C   0  0  1  0  0  3  0  0  0  0  0  0
  188.6420  177.0930  147.5620 C   0  0  2  0  0  3  0  0  0  0  0  0
  186.0710  178.2070  142.0990 C   0  0  0  0  0  0  0  0  0  0  0  0
  189.5950  177.7400  143.1730 N   0  0  0  0  0  0  0  0  0  0  0  0
  185.8570  178.2460  140.8600 O   0  0  0  0  0  0  0  0  0  0  0  0
  188.7140  177.7730  142.1330 C   0  0  0  0  0  0  0  0  0  0  0  0
  186.8560  178.2310  146.2550 C   0  0  0  0  0  3  0  0  0  0  0  0
  189.9190  176.5370  147.2740 N   0  0  0  0  0  0  0  0  0  0  0  0
  187.6030  177.9520  143.9830 C   0  0  0  0  0  0  0  0  0  0  0  0
  185.1970  178.4890  144.4110 C   0  0  0  0  0  3  0  0  0  0  0  0
  187.7340  176.5140  148.5930 C   0  0  0  0  0  1  0  0  0  0  0  0
  188.8930  177.8180  144.2940 N   0  0  0  0  0  0  0  0  0  0  0  0
  189.9610  177.4830  138.0790 N   0  0  0  0  0  0  0  0  0  0  0  0
  188.6090  178.5370  139.7410 C   0  0  0  0  0  3  0  0  0  0  0  0
  189.0300  178.4160  138.4160 C   0  0  0  0  0  3  0  0  0  0  0  0
  190.1000  176.7420  140.3440 C   0  0  0  0  0  3  0  0  0  0  0  0
  190.4980  176.6490  139.0100 C   0  0  0  0  0  3  0  0  0  0  0  0
  189.1510  177.7010  140.7230 C   0  0  0  0  0  0  0  0  0  0  0  0
  183.6040  178.7190  142.5500 C   0  0  0  0  0  3  0  0  0  0  0  0
  182.5350  178.8480  143.3300 C   0  0  0  0  0  3  0  0  0  0  0  0
  180.9290  179.1470  142.6090 P   0  0  1  0  0  0  0  0  0  0  0  0
  179.9820  178.0430  143.0280 O   0  0  0  0  0  0  0  0  0  0  0  0
  180.3420  180.6360  143.1600 O   0  0  0  0  0  1  0  0  0  0  0  0
  180.2060  180.1630  140.4800 C   0  0  0  0  0  1  0  0  0  0  0  0
  181.0830  179.1690  140.9210 O   0  0  0  0  0  0  0  0  0  0  0  0
  1 13  1  6  0  0  0
  1  8  1  0  0  0  0
  2  5  1  0  0  0  0
  3 15  2  0  0  0  0
  4 13  2  0  0  0  0
  5 14  2  0  0  0  0
  6 16  2  0  0  0  0
  7  5  1  1  0  0  0
  7  1  1  0  0  0  0
  8 17  1  6  0  0  0
  9  3  1  0  0  0  0
  9  6  1  0  0  0  0
 10 18  1  0  0  0  0
 11  9  2  0  0  0  0
 12  3  1  0  0  0  0
 12 10  2  0  0  0  0
 14  8  1  0  0  0  0
 15 18  1  0  0  0  0
 15  4  1  0  0  0  0
 16  4  1  0  0  0  0
 18  7  1  0  0  0  0
 19 21  2  0  0  0  0
 19 23  1  0  0  0  0
 20 24  2  0  0  0  0
 21 20  1  0  0  0  0
 22 24  1  0  0  0  0
 23 22  2  0  0  0  0
 24 12  1  0  0  0  0
 25  6  1  0  0  0  0
 25 26  2  0  0  0  0
 27 28  2  1  0  0  0
 27 29  1  0  0  0  0
 27 26  1  0  0  0  0
 30 31  1  0  0  0  0
 31 27  1  0  0  0  0
M  END
>  <MODEL>
1

>  <REMARK>
 VINA RESULT:      -9.4      0.000      0.000
  Name = 
  4 active torsions:
  status: ('A' for Active; 'I' for Inactive)
    1  A    between atoms: P_3  and  C_17
    2  A    between atoms: P_3  and  O_31
    3  A    between atoms: C_8  and  C_14
    4  A    between atoms: C_20  and  C_29
                            x       y       z     vdW  Elec       q    Type
                         _______ _______ _______ _____ _____    ______ ____

>  <TORSDO>
F 4

$$$$
=
 OpenBabel10222421443D

 31 35  0  0  1  0  0  0  0  0999 V2000
  185.1440  178.9800  141.4370 C   0  0  2  0  0  3  0  0  0  0  0  0
  184.0570  178.5550  144.9990 C   0  0  0  0  0  1  0  0  0  0  0  0
  188.7350  177.5630  142.7480 C   0  0  0  0  0  0  0  0  0  0  0  0
  187.3660  178.2580  140.7970 C   0  0  0  0  0  0  0  0  0  0  0  0
  184.2780  178.6280  143.5290 C   0  0  0  0  0  0  0  0  0  0  0  0
  189.6650  177.4630  140.3720 C   0  0  0  0  0  0  0  0  0  0  0  0
  185.5170  179.1610  142.8890 C   0  0  1  0  0  3  0  0  0  0  0  0
  183.8880  178.5620  141.3760 C   0  0  2  0  0  3  0  0  0  0  0  0
  189.8710  177.2700  141.8470 C   0  0  0  0  0  0  0  0  0  0  0  0
  187.2890  178.1800  144.3560 N   0  0  0  0  0  0  0  0  0  0  0  0
  190.9840  176.8900  142.2930 O   0  0  0  0  0  0  0  0  0  0  0  0
  188.5270  177.6560  144.1320 C   0  0  0  0  0  0  0  0  0  0  0  0
  186.1680  178.7070  140.3920 C   0  0  0  0  0  3  0  0  0  0  0  0
  183.3490  178.3460  142.6750 N   0  0  0  0  0  0  0  0  0  0  0  0
  187.5780  178.0230  142.2200 C   0  0  0  0  0  0  0  0  0  0  0  0
  188.4850  177.9310  139.8900 C   0  0  0  0  0  3  0  0  0  0  0  0
  183.2170  178.0620  140.1420 C   0  0  0  0  0  1  0  0  0  0  0  0
  186.7140  178.3660  143.1760 N   0  0  0  0  0  0  0  0  0  0  0  0
  191.1350  176.6270  147.3280 N   0  0  0  0  0  0  0  0  0  0  0  0
  190.7860  176.9670  144.9900 C   0  0  0  0  0  3  0  0  0  0  0  0
  191.6200  176.6260  146.0570 C   0  0  0  0  0  3  0  0  0  0  0  0
  188.9800  177.2970  146.5510 C   0  0  0  0  0  3  0  0  0  0  0  0
  189.8410  176.9520  147.5930 C   0  0  0  0  0  3  0  0  0  0  0  0
  189.4540  177.3160  145.2320 C   0  0  0  0  0  0  0  0  0  0  0  0
  190.7760  177.1440  139.4560 C   0  0  0  0  0  3  0  0  0  0  0  0
  190.7410  176.1320  138.5950 C   0  0  0  0  0  3  0  0  0  0  0  0
  192.1340  175.8180  137.5220 P   0  0  1  0  0  0  0  0  0  0  0  0
  191.7430  176.1320  136.0940 O   0  0  0  0  0  0  0  0  0  0  0  0
  193.4260  176.8080  137.9870 O   0  0  0  0  0  1  0  0  0  0  0  0
  193.9680  174.1720  137.6530 C   0  0  0  0  0  1  0  0  0  0  0  0
  192.5710  174.1860  137.6570 O   0  0  0  0  0  0  0  0  0  0  0  0
  1 13  1  1  0  0  0
  1  7  1  0  0  0  0
  3 12  1  0  0  0  0
  4 15  1  0  0  0  0
  5  2  1  0  0  0  0
  6  9  1  0  0  0  0
  7 18  1  0  0  0  0
  7  5  1  1  0  0  0
  8 17  1  6  0  0  0
  8  1  1  0  0  0  0
  8 14  1  0  0  0  0
  9 11  2  0  0  0  0
  9  3  1  0  0  0  0
 12 10  2  0  0  0  0
 12 24  1  0  0  0  0
 13  4  2  0  0  0  0
 14  5  2  0  0  0  0
 15  3  2  0  0  0  0
 15 18  1  0  0  0  0
 16  6  2  0  0  0  0
 16  4  1  0  0  0  0
 18 10  1  0  0  0  0
 19 23  1  0  0  0  0
 20 24  2  0  0  0  0
 20 21  1  0  0  0  0
 21 19  2  0  0  0  0
 22 23  2  0  0  0  0
 24 22  1  0  0  0  0
 25  6  1  0  0  0  0
 26 25  2  0  0  0  0
 27 28  2  6  0  0  0
 27 31  1  0  0  0  0
 27 29  1  0  0  0  0
 27 26  1  0  0  0  0
 30 31  1  0  0  0  0
M  END
>  <MODEL>
2

>  <REMARK>
 VINA RESULT:      -9.0      4.567      8.089
  Name = 
  4 active torsions:
  status: ('A' for Active; 'I' for Inactive)
    1  A    between atoms: P_3  and  C_17
    2  A    between atoms: P_3  and  O_31
    3  A    between atoms: C_8  and  C_14
    4  A    between atoms: C_20  and  C_29
                            x       y       z     vdW  Elec       q    Type
                         _______ _______ _______ _____ _____    ______ ____

>  <TORSDO>
F 4

$$$$
=
 OpenBabel10222421443D

 31 35  0  0  1  0  0  0  0  0999 V2000
  188.2040  177.1510  146.0040 C   0  0  2  0  0  3  0  0  0  0  0  0
  184.8090  178.4770  146.8770 C   0  0  0  0  0  1  0  0  0  0  0  0
  187.1620  178.0420  142.1640 C   0  0  0  0  0  0  0  0  0  0  0  0
  188.9510  177.2690  143.7030 C   0  0  0  0  0  0  0  0  0  0  0  0
  186.2330  178.0740  146.7180 C   0  0  0  0  0  0  0  0  0  0  0  0
  189.5010  177.4840  141.3040 C   0  0  0  0  0  0  0  0  0  0  0  0
  186.7420  177.1860  145.6310 C   0  0  1  0  0  3  0  0  0  0  0  0
  188.3600  177.7940  147.1520 C   0  0  2  0  0  3  0  0  0  0  0  0
  188.0920  177.9170  141.0200 C   0  0  0  0  0  0  0  0  0  0  0  0
  185.4790  178.0570  143.6560 N   0  0  0  0  0  0  0  0  0  0  0  0
  187.7180  178.1450  139.8410 O   0  0  0  0  0  0  0  0  0  0  0  0
  185.7900  178.2660  142.3450 C   0  0  0  0  0  0  0  0  0  0  0  0
  189.2720  177.0010  144.9770 C   0  0  0  0  0  3  0  0  0  0  0  0
  187.1350  178.3650  147.5970 N   0  0  0  0  0  0  0  0  0  0  0  0
  187.6010  177.7310  143.4050 C   0  0  0  0  0  0  0  0  0  0  0  0
  189.8930  177.1790  142.5680 C   0  0  0  0  0  3  0  0  0  0  0  0
  189.6760  178.1670  147.7460 C   0  0  0  0  0  1  0  0  0  0  0  0
  186.6050  177.7640  144.2910 N   0  0  0  0  0  0  0  0  0  0  0  0
  182.8110  179.3250  139.5030 N   0  0  0  0  0  0  0  0  0  0  0  0
  185.1170  179.1960  140.1090 C   0  0  0  0  0  3  0  0  0  0  0  0
  184.1180  179.5410  139.1960 C   0  0  0  0  0  3  0  0  0  0  0  0
  183.4140  178.4210  141.6280 C   0  0  0  0  0  3  0  0  0  0  0  0
  182.4420  178.7780  140.6920 C   0  0  0  0  0  3  0  0  0  0  0  0
  184.7690  178.6220  141.3360 C   0  0  0  0  0  0  0  0  0  0  0  0
  190.4510  177.3860  140.1810 C   0  0  0  0  0  3  0  0  0  0  0  0
  190.6700  176.2590  139.5100 C   0  0  0  0  0  3  0  0  0  0  0  0
  191.8410  176.2310  138.1620 P   0  0  1  0  0  0  0  0  0  0  0  0
  191.2360  176.9270  136.9620 O   0  0  0  0  0  0  0  0  0  0  0  0
  193.2510  177.0390  138.6350 O   0  0  0  0  0  1  0  0  0  0  0  0
  191.0780  174.1470  137.0830 C   0  0  0  0  0  1  0  0  0  0  0  0
  192.1940  174.6170  137.7780 O   0  0  0  0  0  0  0  0  0  0  0  0
  1 13  1  6  0  0  0
  1  8  1  0  0  0  0
  3 12  1  0  0  0  0
  3 15  2  0  0  0  0
  4 13  2  0  0  0  0
  5  2  1  0  0  0  0
  5 14  2  0  0  0  0
  6 16  2  0  0  0  0
  7  1  1  0  0  0  0
  7  5  1  1  0  0  0
  8 14  1  0  0  0  0
  8 17  1  6  0  0  0
  9  6  1  0  0  0  0
  9  3  1  0  0  0  0
 10 18  1  0  0  0  0
 11  9  2  0  0  0  0
 12 10  2  0  0  0  0
 15  4  1  0  0  0  0
 15 18  1  0  0  0  0
 16  4  1  0  0  0  0
 18  7  1  0  0  0  0
 19 23  1  0  0  0  0
 20 24  2  0  0  0  0
 21 19  2  0  0  0  0
 21 20  1  0  0  0  0
 23 22  2  0  0  0  0
 24 22  1  0  0  0  0
 24 12  1  0  0  0  0
 25  6  1  0  0  0  0
 26 25  2  0  0  0  0
 27 28  2  6  0  0  0
 27 29  1  0  0  0  0
 27 26  1  0  0  0  0
 30 31  1  0  0  0  0
 31 27  1  0  0  0  0
M  END
>  <MODEL>
3

>  <REMARK>
 VINA RESULT:      -9.0      3.869      6.768
  Name = 
  4 active torsions:
  status: ('A' for Active; 'I' for Inactive)
    1  A    between atoms: P_3  and  C_17
    2  A    between atoms: P_3  and  O_31
    3  A    between atoms: C_8  and  C_14
    4  A    between atoms: C_20  and  C_29
                            x       y       z     vdW  Elec       q    Type
                         _______ _______ _______ _____ _____    ______ ____

>  <TORSDO>
F 4

$$$$
=
 OpenBabel10222421443D

 31 35  0  0  1  0  0  0  0  0999 V2000
  184.8400  179.0720  141.5020 C   0  0  2  0  0  3  0  0  0  0  0  0
  183.7050  178.7740  145.0610 C   0  0  0  0  0  1  0  0  0  0  0  0
  188.3690  177.5690  142.8840 C   0  0  0  0  0  0  0  0  0  0  0  0
  187.0420  178.2600  140.9030 C   0  0  0  0  0  0  0  0  0  0  0  0
  183.9430  178.8020  143.5930 C   0  0  0  0  0  0  0  0  0  0  0  0
  189.3170  177.3780  140.5210 C   0  0  0  0  0  0  0  0  0  0  0  0
  185.2050  179.2770  142.9520 C   0  0  1  0  0  3  0  0  0  0  0  0
  183.5710  178.6940  141.4380 C   0  0  2  0  0  3  0  0  0  0  0  0
  189.5020  177.2160  142.0020 C   0  0  0  0  0  0  0  0  0  0  0  0
  186.9290  178.2750  144.4610 N   0  0  0  0  0  0  0  0  0  0  0  0
  190.5980  176.8110  142.4690 O   0  0  0  0  0  0  0  0  0  0  0  0
  188.1510  177.7050  144.2630 C   0  0  0  0  0  0  0  0  0  0  0  0
  185.8640  178.7380  140.4740 C   0  0  0  0  0  3  0  0  0  0  0  0
  183.0130  178.5290  142.7360 N   0  0  0  0  0  0  0  0  0  0  0  0
  187.2330  178.0540  142.3330 C   0  0  0  0  0  0  0  0  0  0  0  0
  188.1580  177.8730  140.0150 C   0  0  0  0  0  3  0  0  0  0  0  0
  182.8960  178.1860  140.2100 C   0  0  0  0  0  1  0  0  0  0  0  0
  186.3720  178.4500  143.2710 N   0  0  0  0  0  0  0  0  0  0  0  0
  190.8040  176.7760  147.4530 N   0  0  0  0  0  0  0  0  0  0  0  0
  188.5830  177.2070  146.6880 C   0  0  0  0  0  3  0  0  0  0  0  0
  189.4770  176.9090  147.7190 C   0  0  0  0  0  3  0  0  0  0  0  0
  190.4290  177.2290  145.1390 C   0  0  0  0  0  3  0  0  0  0  0  0
  191.2940  176.9300  146.1930 C   0  0  0  0  0  3  0  0  0  0  0  0
  189.0550  177.3610  145.3810 C   0  0  0  0  0  0  0  0  0  0  0  0
  190.4250  177.0000  139.6240 C   0  0  0  0  0  3  0  0  0  0  0  0
  190.2580  176.2560  138.5360 C   0  0  0  0  0  3  0  0  0  0  0  0
  191.6580  175.8440  137.5070 P   0  0  1  0  0  0  0  0  0  0  0  0
  192.8400  176.6990  137.9090 O   0  0  0  0  0  1  0  0  0  0  0  0
  192.0420  174.2090  137.7200 O   0  0  0  0  0  0  0  0  0  0  0  0
  189.8770  175.9130  135.8000 C   0  0  0  0  0  1  0  0  0  0  0  0
  191.2520  176.1420  135.8870 O   0  0  0  0  0  0  0  0  0  0  0  0
  1 13  1  1  0  0  0
  1  7  1  0  0  0  0
  3 12  1  0  0  0  0
  4 15  1  0  0  0  0
  5  2  1  0  0  0  0
  6  9  1  0  0  0  0
  7 18  1  0  0  0  0
  7  5  1  1  0  0  0
  8 17  1  1  0  0  0
  8  1  1  0  0  0  0
  8 14  1  0  0  0  0
  9 11  2  0  0  0  0
  9  3  1  0  0  0  0
 12 10  2  0  0  0  0
 12 24  1  0  0  0  0
 13  4  2  0  0  0  0
 14  5  2  0  0  0  0
 15  3  2  0  0  0  0
 15 18  1  0  0  0  0
 16  6  2  0  0  0  0
 16  4  1  0  0  0  0
 18 10  1  0  0  0  0
 19 21  1  0  0  0  0
 20 21  2  0  0  0  0
 22 24  2  0  0  0  0
 22 23  1  0  0  0  0
 23 19  2  0  0  0  0
 24 20  1  0  0  0  0
 25  6  1  0  0  0  0
 26 25  2  0  0  0  0
 27 29  2  1  0  0  0
 27 28  1  0  0  0  0
 27 26  1  0  0  0  0
 30 31  1  0  0  0  0
 31 27  1  0  0  0  0
M  END
>  <MODEL>
4

>  <REMARK>
 VINA RESULT:      -8.8      4.430      7.803
  Name = 
  4 active torsions:
  status: ('A' for Active; 'I' for Inactive)
    1  A    between atoms: P_3  and  C_17
    2  A    between atoms: P_3  and  O_31
    3  A    between atoms: C_8  and  C_14
    4  A    between atoms: C_20  and  C_29
                            x       y       z     vdW  Elec       q    Type
                         _______ _______ _______ _____ _____    ______ ____

>  <TORSDO>
F 4

$$$$
=
 OpenBabel10222421443D

 31 35  0  0  1  0  0  0  0  0999 V2000
  188.3900  177.9640  146.5950 C   0  0  2  0  0  3  0  0  0  0  0  0
  191.6600  176.5070  145.4880 C   0  0  0  0  0  1  0  0  0  0  0  0
  187.4770  177.9970  142.6210 C   0  0  0  0  0  0  0  0  0  0  0  0
  186.6700  178.3740  144.9390 C   0  0  0  0  0  0  0  0  0  0  0  0
  190.3680  176.9210  146.0990 C   0  0  0  0  0  0  0  0  0  0  0  0
  185.0710  178.7140  143.0870 C   0  0  0  0  0  0  0  0  0  0  0  0
  189.5110  178.0310  145.5860 C   0  0  1  0  0  3  0  0  0  0  0  0
  188.7100  177.0710  147.5200 C   0  0  2  0  0  3  0  0  0  0  0  0
  186.1460  178.3730  142.0960 C   0  0  0  0  0  0  0  0  0  0  0  0
  189.6430  177.6540  143.1180 N   0  0  0  0  0  0  0  0  0  0  0  0
  185.9180  178.4290  140.8610 O   0  0  0  0  0  0  0  0  0  0  0  0
  188.7520  177.7510  142.0910 C   0  0  0  0  0  0  0  0  0  0  0  0
  186.9920  178.3360  146.2400 C   0  0  0  0  0  3  0  0  0  0  0  0
  189.9400  176.4250  147.2140 N   0  0  0  0  0  0  0  0  0  0  0  0
  187.6840  178.0070  143.9570 C   0  0  0  0  0  0  0  0  0  0  0  0
  185.3290  178.7150  144.4210 C   0  0  0  0  0  3  0  0  0  0  0  0
  187.7790  176.5570  148.5650 C   0  0  0  0  0  1  0  0  0  0  0  0
  188.9650  177.7800  144.2490 N   0  0  0  0  0  0  0  0  0  0  0  0
  189.9440  177.5390  138.0160 N   0  0  0  0  0  0  0  0  0  0  0  0
  190.0430  176.6570  140.2330 C   0  0  0  0  0  3  0  0  0  0  0  0
  190.4240  176.6140  138.8900 C   0  0  0  0  0  3  0  0  0  0  0  0
  188.6920  178.5950  139.7530 C   0  0  0  0  0  3  0  0  0  0  0  0
  189.0940  178.5210  138.4180 C   0  0  0  0  0  3  0  0  0  0  0  0
  189.1610  177.6490  140.6740 C   0  0  0  0  0  0  0  0  0  0  0  0
  183.7290  179.0610  142.5840 C   0  0  0  0  0  3  0  0  0  0  0  0
  182.9940  178.2360  141.8450 C   0  0  0  0  0  3  0  0  0  0  0  0
  181.3780  178.7390  141.2760 P   0  0  1  0  0  0  0  0  0  0  0  0
  180.4660  177.5320  141.2350 O   0  0  0  0  0  0  0  0  0  0  0  0
  180.7480  179.8900  142.3450 O   0  0  0  0  0  1  0  0  0  0  0  0
  181.9970  178.3660  138.9170 C   0  0  0  0  0  1  0  0  0  0  0  0
  181.5270  179.4050  139.7240 O   0  0  0  0  0  0  0  0  0  0  0  0
  1 13  1  6  0  0  0
  1  8  1  0  0  0  0
  2  5  1  0  0  0  0
  3 15  2  0  0  0  0
  4 13  2  0  0  0  0
  5 14  2  0  0  0  0
  6 16  2  0  0  0  0
  7  5  1  1  0  0  0
  7  1  1  0  0  0  0
  8 17  1  6  0  0  0
  9  3  1  0  0  0  0
  9  6  1  0  0  0  0
 10 18  1  0  0  0  0
 11  9  2  0  0  0  0
 12  3  1  0  0  0  0
 12 10  2  0  0  0  0
 14  8  1  0  0  0  0
 15 18  1  0  0  0  0
 15  4  1  0  0  0  0
 16  4  1  0  0  0  0
 18  7  1  0  0  0  0
 19 23  2  0  0  0  0
 19 21  1  0  0  0  0
 20 24  1  0  0  0  0
 21 20  2  0  0  0  0
 22 24  2  0  0  0  0
 23 22  1  0  0  0  0
 24 12  1  0  0  0  0
 25  6  1  0  0  0  0
 26 25  2  0  0  0  0
 27 28  2  6  0  0  0
 27 26  1  0  0  0  0
 27 29  1  0  0  0  0
 30 31  1  0  0  0  0
 31 27  1  0  0  0  0
M  END
>  <MODEL>
5

>  <REMARK>
 VINA RESULT:      -8.5      0.813      1.192
  Name = 
  4 active torsions:
  status: ('A' for Active; 'I' for Inactive)
    1  A    between atoms: P_3  and  C_17
    2  A    between atoms: P_3  and  O_31
    3  A    between atoms: C_8  and  C_14
    4  A    between atoms: C_20  and  C_29
                            x       y       z     vdW  Elec       q    Type
                         _______ _______ _______ _____ _____    ______ ____

>  <TORSDO>
F 4

$$$$
=
 OpenBabel10222421443D

 31 35  0  0  1  0  0  0  0  0999 V2000
  189.8480  178.0380  138.9490 C   0  0  2  0  0  3  0  0  0  0  0  0
  186.9010  178.6300  136.7120 C   0  0  0  0  0  1  0  0  0  0  0  0
  187.0910  177.9640  141.9520 C   0  0  0  0  0  0  0  0  0  0  0  0
  189.4670  177.6390  141.3080 C   0  0  0  0  0  0  0  0  0  0  0  0
  188.1430  178.2430  137.4330 C   0  0  0  0  0  0  0  0  0  0  0  0
  188.8460  177.2630  143.6690 C   0  0  0  0  0  0  0  0  0  0  0  0
  188.5460  178.7800  138.7670 C   0  0  1  0  0  3  0  0  0  0  0  0
  190.1070  177.3640  137.8380 C   0  0  2  0  0  3  0  0  0  0  0  0
  187.4260  177.6330  143.3540 C   0  0  0  0  0  0  0  0  0  0  0  0
  186.3610  178.7650  139.9810 N   0  0  0  0  0  0  0  0  0  0  0  0
  186.5600  177.6780  144.2650 O   0  0  0  0  0  0  0  0  0  0  0  0
  185.9840  178.4770  141.2590 C   0  0  0  0  0  0  0  0  0  0  0  0
  190.3490  177.6530  140.2970 C   0  0  0  0  0  3  0  0  0  0  0  0
  189.0500  177.4930  136.8950 N   0  0  0  0  0  0  0  0  0  0  0  0
  188.0720  177.9550  141.0220 C   0  0  0  0  0  0  0  0  0  0  0  0
  189.7980  177.2720  142.7000 C   0  0  0  0  0  3  0  0  0  0  0  0
  191.1820  176.3410  137.6950 C   0  0  0  0  0  1  0  0  0  0  0  0
  187.6300  178.4080  139.8480 N   0  0  0  0  0  0  0  0  0  0  0  0
  182.0340  179.1630  142.6720 N   0  0  0  0  0  0  0  0  0  0  0  0
  184.3880  179.1640  143.0740 C   0  0  0  0  0  3  0  0  0  0  0  0
  183.0800  179.3750  143.5150 C   0  0  0  0  0  3  0  0  0  0  0  0
  183.5210  178.5200  140.9190 C   0  0  0  0  0  3  0  0  0  0  0  0
  182.2270  178.7420  141.3940 C   0  0  0  0  0  3  0  0  0  0  0  0
  184.6190  178.7400  141.7620 C   0  0  0  0  0  0  0  0  0  0  0  0
  189.1910  176.8980  145.0550 C   0  0  0  0  0  3  0  0  0  0  0  0
  189.9320  177.6680  145.8470 C   0  0  0  0  0  3  0  0  0  0  0  0
  190.3030  177.1460  147.5140 P   0  0  1  0  0  0  0  0  0  0  0  0
  189.6820  175.7870  147.7600 O   0  0  0  0  0  1  0  0  0  0  0  0
  191.9820  177.0450  147.7020 O   0  0  0  0  0  0  0  0  0  0  0  0
  188.2820  178.0590  148.5960 C   0  0  0  0  0  1  0  0  0  0  0  0
  189.6610  178.2810  148.5980 O   0  0  0  0  0  0  0  0  0  0  0  0
  1 13  1  1  0  0  0
  2  5  1  0  0  0  0
  3  9  1  0  0  0  0
  4 16  1  0  0  0  0
  6 25  1  0  0  0  0
  7  5  1  6  0  0  0
  7  1  1  0  0  0  0
  7 18  1  0  0  0  0
  8 17  1  1  0  0  0
  8  1  1  0  0  0  0
  9  6  1  0  0  0  0
  9 11  2  0  0  0  0
 10 12  2  0  0  0  0
 12 24  1  0  0  0  0
 12  3  1  0  0  0  0
 13  4  2  0  0  0  0
 14  5  2  0  0  0  0
 14  8  1  0  0  0  0
 15  4  1  0  0  0  0
 15  3  2  0  0  0  0
 16  6  2  0  0  0  0
 18 10  1  0  0  0  0
 18 15  1  0  0  0  0
 19 21  1  0  0  0  0
 20 21  2  0  0  0  0
 22 23  1  0  0  0  0
 22 24  2  0  0  0  0
 23 19  2  0  0  0  0
 24 20  1  0  0  0  0
 25 26  2  0  0  0  0
 26 27  1  0  0  0  0
 27 29  2  1  0  0  0
 27 28  1  0  0  0  0
 27 31  1  0  0  0  0
 30 31  1  0  0  0  0
M  END
>  <MODEL>
6

>  <REMARK>
 VINA RESULT:      -8.4      3.915      7.889
  Name = 
  4 active torsions:
  status: ('A' for Active; 'I' for Inactive)
    1  A    between atoms: P_3  and  C_17
    2  A    between atoms: P_3  and  O_31
    3  A    between atoms: C_8  and  C_14
    4  A    between atoms: C_20  and  C_29
                            x       y       z     vdW  Elec       q    Type
                         _______ _______ _______ _____ _____    ______ ____

>  <TORSDO>
F 4

$$$$
=
 OpenBabel10222421443D

 31 35  0  0  1  0  0  0  0  0999 V2000
  189.4290  177.0590  144.2640 C   0  0  2  0  0  3  0  0  0  0  0  0
  187.1270  177.8830  147.1040 C   0  0  0  0  0  1  0  0  0  0  0  0
  186.3360  178.2530  141.8910 C   0  0  0  0  0  0  0  0  0  0  0  0
  188.7060  177.5190  141.9980 C   0  0  0  0  0  0  0  0  0  0  0  0
  188.2080  177.6650  146.1050 C   0  0  0  0  0  0  0  0  0  0  0  0
  187.7630  178.0650  139.7820 C   0  0  0  0  0  0  0  0  0  0  0  0
  188.0200  176.9690  144.7970 C   0  0  1  0  0  3  0  0  0  0  0  0
  190.2020  177.5810  145.2050 C   0  0  2  0  0  3  0  0  0  0  0  0
  186.4370  178.3640  140.4190 C   0  0  0  0  0  0  0  0  0  0  0  0
  185.8250  177.9080  144.0540 N   0  0  0  0  0  0  0  0  0  0  0  0
  185.4450  178.6790  139.7130 O   0  0  0  0  0  0  0  0  0  0  0  0
  185.3150  178.2970  142.8510 C   0  0  0  0  0  0  0  0  0  0  0  0
  189.7110  177.1480  142.8050 C   0  0  0  0  0  3  0  0  0  0  0  0
  189.4440  177.9560  146.3490 N   0  0  0  0  0  0  0  0  0  0  0  0
  187.4190  177.8560  142.5960 C   0  0  0  0  0  0  0  0  0  0  0  0
  188.8220  177.6650  140.5330 C   0  0  0  0  0  3  0  0  0  0  0  0
  191.6070  178.0330  144.9970 C   0  0  0  0  0  1  0  0  0  0  0  0
  187.1180  177.6750  143.8820 N   0  0  0  0  0  0  0  0  0  0  0  0
  181.2040  179.2270  142.2940 N   0  0  0  0  0  0  0  0  0  0  0  0
  183.1200  179.1630  143.7170 C   0  0  0  0  0  3  0  0  0  0  0  0
  181.7700  179.4530  143.5100 C   0  0  0  0  0  3  0  0  0  0  0  0
  183.2760  178.4130  141.4320 C   0  0  0  0  0  3  0  0  0  0  0  0
  181.9240  178.7150  141.2600 C   0  0  0  0  0  3  0  0  0  0  0  0
  183.8900  178.6460  142.6700 C   0  0  0  0  0  0  0  0  0  0  0  0
  187.8920  178.2020  138.3190 C   0  0  0  0  0  3  0  0  0  0  0  0
  187.7370  177.1860  137.4760 C   0  0  0  0  0  3  0  0  0  0  0  0
  187.9120  177.4430  135.7180 P   0  0  1  0  0  0  0  0  0  0  0  0
  186.8940  178.4650  135.2600 O   0  0  0  0  0  0  0  0  0  0  0  0
  189.4720  178.0130  135.3940 O   0  0  0  0  0  1  0  0  0  0  0  0
  187.3570  175.0480  135.9280 C   0  0  0  0  0  1  0  0  0  0  0  0
  187.6520  175.9700  134.9210 O   0  0  0  0  0  0  0  0  0  0  0  0
  1 13  1  6  0  0  0
  1  7  1  0  0  0  0
  1  8  1  0  0  0  0
  3 15  2  0  0  0  0
  3 12  1  0  0  0  0
  4 15  1  0  0  0  0
  4 13  2  0  0  0  0
  5 14  2  0  0  0  0
  5  2  1  0  0  0  0
  6  9  1  0  0  0  0
  6 16  2  0  0  0  0
  7  5  1  1  0  0  0
  8 17  1  6  0  0  0
  8 14  1  0  0  0  0
  9  3  1  0  0  0  0
 11  9  2  0  0  0  0
 12 10  2  0  0  0  0
 15 18  1  0  0  0  0
 16  4  1  0  0  0  0
 18 10  1  0  0  0  0
 18  7  1  0  0  0  0
 19 21  1  0  0  0  0
 21 20  2  0  0  0  0
 22 24  2  0  0  0  0
 23 22  1  0  0  0  0
 23 19  2  0  0  0  0
 24 12  1  0  0  0  0
 24 20  1  0  0  0  0
 25  6  1  0  0  0  0
 26 25  2  0  0  0  0
 27 28  2  6  0  0  0
 27 26  1  0  0  0  0
 29 27  1  0  0  0  0
 31 27  1  0  0  0  0
 31 30  1  0  0  0  0
M  END
>  <MODEL>
7

>  <REMARK>
 VINA RESULT:      -8.2      3.360      6.323
  Name = 
  4 active torsions:
  status: ('A' for Active; 'I' for Inactive)
    1  A    between atoms: P_3  and  C_17
    2  A    between atoms: P_3  and  O_31
    3  A    between atoms: C_8  and  C_14
    4  A    between atoms: C_20  and  C_29
                            x       y       z     vdW  Elec       q    Type
                         _______ _______ _______ _____ _____    ______ ____

>  <TORSDO>
F 4

$$$$
=
 OpenBabel10222421443D

 31 35  0  0  1  0  0  0  0  0999 V2000
  185.2930  178.6480  139.2670 C   0  0  2  0  0  3  0  0  0  0  0  0
  184.1600  178.6610  142.8390 C   0  0  0  0  0  1  0  0  0  0  0  0
  188.9420  177.6840  140.8100 C   0  0  0  0  0  0  0  0  0  0  0  0
  187.5710  177.9980  138.7630 C   0  0  0  0  0  0  0  0  0  0  0  0
  184.4080  178.5390  141.3770 C   0  0  0  0  0  0  0  0  0  0  0  0
  189.9280  177.3110  138.4840 C   0  0  0  0  0  0  0  0  0  0  0  0
  185.6220  179.0600  140.6810 C   0  0  1  0  0  3  0  0  0  0  0  0
  184.0690  178.1400  139.2510 C   0  0  2  0  0  3  0  0  0  0  0  0
  190.1140  177.3450  139.9730 C   0  0  0  0  0  0  0  0  0  0  0  0
  187.4230  178.4230  142.2950 N   0  0  0  0  0  0  0  0  0  0  0  0
  191.2400  177.1110  140.4830 O   0  0  0  0  0  0  0  0  0  0  0  0
  188.6980  177.9600  142.1630 C   0  0  0  0  0  0  0  0  0  0  0  0
  186.3560  178.3000  138.2840 C   0  0  0  0  0  3  0  0  0  0  0  0
  183.5180  178.0740  140.5610 N   0  0  0  0  0  0  0  0  0  0  0  0
  187.7680  177.9830  140.2080 C   0  0  0  0  0  0  0  0  0  0  0  0
  188.7290  177.6230  137.9260 C   0  0  0  0  0  3  0  0  0  0  0  0
  183.4600  177.4240  138.0940 C   0  0  0  0  0  1  0  0  0  0  0  0
  186.8630  178.3980  141.0940 N   0  0  0  0  0  0  0  0  0  0  0  0
  191.3560  177.7100  145.4720 N   0  0  0  0  0  0  0  0  0  0  0  0
  189.3670  176.9720  144.3760 C   0  0  0  0  0  3  0  0  0  0  0  0
  190.2530  176.9150  145.4540 C   0  0  0  0  0  3  0  0  0  0  0  0
  190.7600  178.6590  143.3640 C   0  0  0  0  0  3  0  0  0  0  0  0
  191.6240  178.5750  144.4570 C   0  0  0  0  0  3  0  0  0  0  0  0
  189.6210  177.8440  143.3120 C   0  0  0  0  0  0  0  0  0  0  0  0
  191.0760  176.9430  137.6360 C   0  0  0  0  0  3  0  0  0  0  0  0
  191.5850  175.7160  137.5920 C   0  0  0  0  0  3  0  0  0  0  0  0
  192.9800  175.3590  136.5360 P   0  0  1  0  0  0  0  0  0  0  0  0
  192.5580  175.5030  135.0890 O   0  0  0  0  0  0  0  0  0  0  0  0
  194.2250  176.4540  136.8740 O   0  0  0  0  0  1  0  0  0  0  0  0
  194.4320  173.8740  137.8680 C   0  0  0  0  0  1  0  0  0  0  0  0
  193.4990  173.7730  136.8330 O   0  0  0  0  0  0  0  0  0  0  0  0
  1 13  1  1  0  0  0
  1  7  1  0  0  0  0
  3 12  1  0  0  0  0
  4 15  1  0  0  0  0
  5  2  1  0  0  0  0
  6  9  1  0  0  0  0
  7 18  1  0  0  0  0
  7  5  1  1  0  0  0
  8 17  1  1  0  0  0
  8  1  1  0  0  0  0
  8 14  1  0  0  0  0
  9 11  2  0  0  0  0
  9  3  1  0  0  0  0
 12 10  2  0  0  0  0
 12 24  1  0  0  0  0
 13  4  2  0  0  0  0
 14  5  2  0  0  0  0
 15  3  2  0  0  0  0
 15 18  1  0  0  0  0
 16  6  2  0  0  0  0
 16  4  1  0  0  0  0
 18 10  1  0  0  0  0
 20 21  2  0  0  0  0
 21 19  1  0  0  0  0
 22 23  1  0  0  0  0
 23 19  2  0  0  0  0
 24 22  2  0  0  0  0
 24 20  1  0  0  0  0
 25  6  1  0  0  0  0
 26 25  2  0  0  0  0
 27 28  2  6  0  0  0
 27 31  1  0  0  0  0
 27 29  1  0  0  0  0
 27 26  1  0  0  0  0
 31 30  1  0  0  0  0
M  END
>  <MODEL>
8

>  <REMARK>
 VINA RESULT:      -8.0      4.894      8.720
  Name = 
  4 active torsions:
  status: ('A' for Active; 'I' for Inactive)
    1  A    between atoms: P_3  and  C_17
    2  A    between atoms: P_3  and  O_31
    3  A    between atoms: C_8  and  C_14
    4  A    between atoms: C_20  and  C_29
                            x       y       z     vdW  Elec       q    Type
                         _______ _______ _______ _____ _____    ______ ____

>  <TORSDO>
F 4

$$$$
=
 OpenBabel10222421443D

 31 35  0  0  1  0  0  0  0  0999 V2000
  189.3760  176.9390  143.9050 C   0  0  2  0  0  3  0  0  0  0  0  0
  186.5370  178.2590  145.9640 C   0  0  0  0  0  1  0  0  0  0  0  0
  187.1030  178.0640  140.7130 C   0  0  0  0  0  0  0  0  0  0  0  0
  189.2860  177.1790  141.4960 C   0  0  0  0  0  0  0  0  0  0  0  0
  187.8050  177.8470  145.3030 C   0  0  0  0  0  0  0  0  0  0  0  0
  188.9810  177.5240  139.0690 C   0  0  0  0  0  0  0  0  0  0  0  0
  187.8770  177.0160  144.0640 C   0  0  1  0  0  3  0  0  0  0  0  0
  189.9410  177.5120  144.9580 C   0  0  2  0  0  3  0  0  0  0  0  0
  187.5760  177.9920  139.3130 C   0  0  0  0  0  0  0  0  0  0  0  0
  186.0400  178.0160  142.6940 N   0  0  0  0  0  0  0  0  0  0  0  0
  186.8250  178.2920  138.3490 O   0  0  0  0  0  0  0  0  0  0  0  0
  185.8850  178.2960  141.3690 C   0  0  0  0  0  0  0  0  0  0  0  0
  190.0190  176.8340  142.5660 C   0  0  0  0  0  3  0  0  0  0  0  0
  188.9650  178.0740  145.8270 N   0  0  0  0  0  0  0  0  0  0  0  0
  187.9320  177.6760  141.7080 C   0  0  0  0  0  0  0  0  0  0  0  0
  189.7750  177.1410  140.1020 C   0  0  0  0  0  3  0  0  0  0  0  0
  191.3920  177.8330  145.0760 C   0  0  0  0  0  1  0  0  0  0  0  0
  187.3060  177.6720  142.8850 N   0  0  0  0  0  0  0  0  0  0  0  0
  182.1400  179.5470  139.7940 N   0  0  0  0  0  0  0  0  0  0  0  0
  184.5220  179.5080  139.6400 C   0  0  0  0  0  3  0  0  0  0  0  0
  183.2800  179.9120  139.1480 C   0  0  0  0  0  3  0  0  0  0  0  0
  183.4010  178.3720  141.4460 C   0  0  0  0  0  3  0  0  0  0  0  0
  182.1760  178.7930  140.9250 C   0  0  0  0  0  3  0  0  0  0  0  0
  184.5920  178.7230  140.7960 C   0  0  0  0  0  0  0  0  0  0  0  0
  189.4810  177.4770  137.6830 C   0  0  0  0  0  3  0  0  0  0  0  0
  189.4420  176.3800  136.9320 C   0  0  0  0  0  3  0  0  0  0  0  0
  190.0720  176.4140  135.2620 P   0  0  1  0  0  0  0  0  0  0  0  0
  189.8030  177.7740  134.6550 O   0  0  0  0  0  0  0  0  0  0  0  0
  191.7400  176.1270  135.2920 O   0  0  0  0  0  1  0  0  0  0  0  0
  188.5410  174.4780  135.2820 C   0  0  0  0  0  1  0  0  0  0  0  0
  189.2890  175.2120  134.3580 O   0  0  0  0  0  0  0  0  0  0  0  0
  1 13  1  6  0  0  0
  1  7  1  0  0  0  0
  1  8  1  0  0  0  0
  3 12  1  0  0  0  0
  3 15  2  0  0  0  0
  4 15  1  0  0  0  0
  4 13  2  0  0  0  0
  5 14  2  0  0  0  0
  5  2  1  0  0  0  0
  6  9  1  0  0  0  0
  6 16  2  0  0  0  0
  7  5  1  1  0  0  0
  8 17  1  6  0  0  0
  8 14  1  0  0  0  0
  9  3  1  0  0  0  0
 10 18  1  0  0  0  0
 11  9  2  0  0  0  0
 12 10  2  0  0  0  0
 15 18  1  0  0  0  0
 16  4  1  0  0  0  0
 18  7  1  0  0  0  0
 19 23  1  0  0  0  0
 20 24  2  0  0  0  0
 21 20  1  0  0  0  0
 21 19  2  0  0  0  0
 23 22  2  0  0  0  0
 24 12  1  0  0  0  0
 24 22  1  0  0  0  0
 25  6  1  0  0  0  0
 26 25  2  0  0  0  0
 27 28  2  6  0  0  0
 27 29  1  0  0  0  0
 27 26  1  0  0  0  0
 31 27  1  0  0  0  0
 31 30  1  0  0  0  0
M  END
>  <MODEL>
9

>  <REMARK>
 VINA RESULT:      -7.6      4.047      6.886
  Name = 
  4 active torsions:
  status: ('A' for Active; 'I' for Inactive)
    1  A    between atoms: P_3  and  C_17
    2  A    between atoms: P_3  and  O_31
    3  A    between atoms: C_8  and  C_14
    4  A    between atoms: C_20  and  C_29
                            x       y       z     vdW  Elec       q    Type
                         _______ _______ _______ _____ _____    ______ ____

>  <TORSDO>
F 4

$$$$
