=
 OpenBabel10232407473D

 55 62  0  0  1  0  0  0  0  0999 V2000
  183.4180  178.5420  141.3690 C   0  0  0  0  0  3  0  0  0  0  0  0
  188.1930  177.6880  145.5020 C   0  0  0  0  0  2  0  0  0  0  0  0
  188.9200  178.1060  148.0570 C   0  0  1  0  0  3  0  0  0  0  0  0
  182.9800  178.7640  143.7640 C   0  0  0  0  0  3  0  0  0  0  0  0
  184.6180  178.5450  145.4500 O   0  0  0  0  0  0  0  0  0  0  0  0
  184.8960  178.3810  141.6000 C   0  0  0  0  0  2  0  0  0  0  0  0
  185.9370  178.2630  145.8100 C   0  0  0  0  0  0  0  0  0  0  0  0
  184.2480  178.5370  144.1020 C   0  0  0  0  0  0  0  0  0  0  0  0
  186.4280  178.2190  147.2100 C   0  0  0  0  0  2  0  0  0  0  0  0
  186.8670  177.9960  144.8970 C   0  0  0  0  0  0  0  0  0  0  0  0
  187.8790  177.8540  146.9800 C   0  0  1  0  0  0  0  0  0  0  0  0
  185.2730  178.2580  143.0590 C   0  0  0  0  0  0  0  0  0  0  0  0
  186.5470  177.9940  143.4450 C   0  0  0  0  0  0  0  0  0  0  0  0
  182.5380  178.7380  142.3550 C   0  0  0  0  0  0  0  0  0  0  0  0
  188.3560  176.7060  147.8380 C   0  0  0  0  0  2  0  0  0  0  0  0
  189.7470  176.5250  141.7610 C   0  0  0  0  0  3  0  0  0  0  0  0
  187.6830  178.4480  141.3340 C   0  0  0  0  0  3  0  0  0  0  0  0
  188.7330  178.2120  140.3380 C   0  0  0  0  0  0  0  0  0  0  0  0
  187.6250  177.7310  142.4630 C   0  0  0  0  0  0  0  0  0  0  0  0
  188.7020  178.8420  139.2490 O   0  0  0  0  0  0  0  0  0  0  0  0
  189.8200  177.2540  140.6450 C   0  0  0  0  0  0  0  0  0  0  0  0
  188.5670  176.5700  142.6970 C   0  0  0  0  0  2  0  0  0  0  0  0
  190.9850  176.3950  138.7080 N   0  0  0  0  0  0  0  0  0  0  0  0
  191.0100  177.0930  139.7970 C   0  0  0  0  0  3  0  0  0  0  0  0
  193.1770  176.9110  138.0810 O   0  0  0  0  0  0  0  0  0  0  0  0
  192.1360  176.2270  137.8740 C   0  0  0  0  0  0  0  0  0  0  0  0
  193.4430  172.4640  134.7540 C   0  0  0  0  0  3  0  0  0  0  0  0
  192.4680  172.2910  135.7860 N   0  0  0  0  0  2  0  0  0  0  0  0
  192.1020  175.2430  136.7750 C   0  0  0  0  0  0  0  0  0  0  0  0
  194.2270  174.6680  135.6450 C   0  0  1  0  0  3  0  0  0  0  0  0
  192.9380  175.4810  135.5540 C   0  0  0  0  0  2  0  0  0  0  0  0
  191.2540  173.0920  135.8300 C   0  0  0  0  0  2  0  0  0  0  0  0
  194.2250  173.5400  134.6610 C   0  0  0  0  0  3  0  0  0  0  0  0
  191.3490  174.1440  136.8890 C   0  0  0  0  0  3  0  0  0  0  0  0
  196.2130  175.6470  136.6080 O   0  0  0  0  0  1  0  0  0  0  0  0
  195.4640  175.5390  135.4350 C   0  0  1  0  0  3  0  0  0  0  0  0
  196.2910  174.9940  134.3720 N   0  0  0  0  0  1  0  0  0  0  0  0
  190.3270  178.1840  147.4820 C   0  0  0  0  0  2  0  0  0  0  0  0
  192.0440  177.4860  149.1780 C   0  0  0  0  0  1  0  0  0  0  0  0
  191.1820  177.0360  148.0080 C   0  0  2  0  0  3  0  0  0  0  0  0
  191.9830  176.4050  146.9530 N   0  0  0  0  0  2  0  0  0  0  0  0
  191.5890  176.8960  145.6360 C   0  0  0  0  0  2  0  0  0  0  0  0
  191.6270  175.7580  144.6410 C   0  0  0  0  0  1  0  0  0  0  0  0
  181.1900  178.9080  142.0290 O   0  0  0  0  0  0  0  0  0  0  0  0
  180.5480  178.0780  141.1330 N   0  0  0  0  0  2  0  0  0  0  0  0
  180.6230  178.7130  139.8230 C   0  0  0  0  0  2  0  0  0  0  0  0
  180.9810  177.1470  136.5310 O   0  0  0  0  0  0  0  0  0  0  0  0
  181.0710  177.7060  138.7490 C   0  0  2  0  0  0  0  0  0  0  0  0
  181.2540  179.3690  136.4400 O   0  0  0  0  0  0  0  0  0  0  0  0
  181.1770  176.3180  139.3630 C   0  0  0  0  0  1  0  0  0  0  0  0
  182.4050  178.0510  138.0790 C   0  0  1  0  0  3  0  0  0  0  0  0
  180.1510  177.6660  137.5140 C   0  0  1  0  0  3  0  0  0  0  0  0
  179.9940  179.0810  136.9930 C   0  0  0  0  0  2  0  0  0  0  0  0
  181.9490  178.1480  136.6180 C   0  0  1  0  0  3  0  0  0  0  0  0
  182.9460  179.2680  138.5170 O   0  0  0  0  0  1  0  0  0  0  0  0
  1  6  1  0  0  0  0
  1 14  2  0  0  0  0
  3 38  1  6  0  0  0
  4  8  2  0  0  0  0
  5  7  1  0  0  0  0
  6 12  1  0  0  0  0
  7  9  1  0  0  0  0
  8  5  1  0  0  0  0
 10  2  1  0  0  0  0
 10  7  2  0  0  0  0
 11  2  1  6  0  0  0
 11  9  1  0  0  0  0
 11 15  1  0  0  0  0
 11  3  1  0  0  0  0
 12 13  2  0  0  0  0
 12  8  1  0  0  0  0
 13 10  1  0  0  0  0
 14  4  1  0  0  0  0
 15  3  1  0  0  0  0
 16 22  1  0  0  0  0
 17 19  2  0  0  0  0
 18 21  1  0  0  0  0
 18 17  1  0  0  0  0
 19 22  1  0  0  0  0
 19 13  1  0  0  0  0
 20 18  2  0  0  0  0
 21 16  2  0  0  0  0
 23 24  2  0  0  0  0
 24 21  1  0  0  0  0
 26 25  2  0  0  0  0
 26 23  1  0  0  0  0
 27 28  1  0  0  0  0
 28 32  1  0  0  0  0
 29 34  2  0  0  0  0
 29 26  1  0  0  0  0
 30 36  1  6  0  0  0
 31 30  1  0  0  0  0
 31 29  1  0  0  0  0
 32 34  1  0  0  0  0
 33 27  2  0  0  0  0
 33 30  1  0  0  0  0
 36 37  1  6  0  0  0
 36 35  1  0  0  0  0
 38 40  1  0  0  0  0
 40 39  1  1  0  0  0
 41 40  1  0  0  0  0
 42 41  1  0  0  0  0
 43 42  1  0  0  0  0
 44 14  1  0  0  0  0
 45 44  1  0  0  0  0
 46 45  1  0  0  0  0
 47 54  1  0  0  0  0
 47 52  1  0  0  0  0
 48 50  1  1  0  0  0
 48 46  1  0  0  0  0
 49 53  1  0  0  0  0
 51 55  1  1  0  0  0
 51 48  1  0  0  0  0
 52 53  1  6  0  0  0
 52 48  1  0  0  0  0
 54 49  1  1  0  0  0
 54 51  1  0  0  0  0
M  END
>  <MODEL>
1

>  <REMARK>
 VINA RESULT:      -9.4      0.000      0.000
  Name = 
  13 active torsions:
  status: ('A' for Active; 'I' for Inactive)
    1  A    between atoms: C_1  and  C_5
    2  A    between atoms: C_1  and  C_48
    3  A    between atoms: C_11  and  C_38
    4  A    between atoms: O_14  and  N_23
    5  A    between atoms: O_14  and  C_46
    6  A    between atoms: C_18  and  C_44
    7  A    between atoms: C_20  and  C_24
    8  A    between atoms: C_22  and  C_37
    9  A    between atoms: N_23  and  C_37
   10  A    between atoms: N_28  and  C_35
   11  A    between atoms: N_28  and  C_48
   12  A    between atoms: C_32  and  C_39
   13  A    between atoms: N_36  and  C_38
                            x       y       z     vdW  Elec       q    Type
                         _______ _______ _______ _____ _____    ______ ____

>  <TORSDO>
F 13

$$$$
=
 OpenBabel10232407473D

 55 62  0  0  1  0  0  0  0  0999 V2000
  194.0880  176.6380  136.9070 C   0  0  0  0  0  3  0  0  0  0  0  0
  188.3510  173.8650  136.7830 C   0  0  0  0  0  2  0  0  0  0  0  0
  186.8170  172.1710  135.3660 C   0  0  1  0  0  3  0  0  0  0  0  0
  193.7220  174.7130  135.4450 C   0  0  0  0  0  3  0  0  0  0  0  0
  191.6620  173.5830  135.2100 O   0  0  0  0  0  0  0  0  0  0  0  0
  192.6340  176.6880  137.2940 C   0  0  0  0  0  3  0  0  0  0  0  0
  190.3290  173.4280  135.5960 C   0  0  0  0  0  0  0  0  0  0  0  0
  192.4390  174.5940  135.7830 C   0  0  1  0  0  3  0  0  0  0  0  0
  189.4260  172.3740  135.0700 C   0  0  0  0  0  2  0  0  0  0  0  0
  189.7650  174.2310  136.4940 C   0  0  0  0  0  0  0  0  0  0  0  0
  188.1640  172.6830  135.8460 C   0  0  1  0  0  0  0  0  0  0  0  0
  191.8280  175.5180  136.7780 C   0  0  0  0  0  0  0  0  0  0  0  0
  190.5280  175.3410  137.1250 C   0  0  0  0  0  0  0  0  0  0  0  0
  194.5880  175.7490  136.0460 C   0  0  0  0  0  0  0  0  0  0  0  0
  187.5490  171.4710  136.5060 C   0  0  0  0  0  2  0  0  0  0  0  0
  189.4780  177.0900  140.4540 C   0  0  0  0  0  3  0  0  0  0  0  0
  188.8530  177.0290  137.6700 C   0  0  0  0  0  3  0  0  0  0  0  0
  188.1580  177.9290  138.5950 C   0  0  0  0  0  0  0  0  0  0  0  0
  189.8450  176.2350  138.0910 C   0  0  0  0  0  0  0  0  0  0  0  0
  187.2930  178.7260  138.1470 O   0  0  0  0  0  0  0  0  0  0  0  0
  188.4730  177.8650  140.0410 C   0  0  0  0  0  0  0  0  0  0  0  0
  190.3680  176.3250  139.5070 C   0  0  0  0  0  2  0  0  0  0  0  0
  186.7340  178.0260  141.7150 N   0  0  0  0  0  0  0  0  0  0  0  0
  187.7010  178.5880  141.0630 C   0  0  0  0  0  3  0  0  0  0  0  0
  185.2900  179.7330  142.3960 O   0  0  0  0  0  0  0  0  0  0  0  0
  185.9720  178.7170  142.7090 C   0  0  0  0  0  0  0  0  0  0  0  0
  187.3550  177.9320  147.5120 C   0  0  0  0  0  3  0  0  0  0  0  0
  186.2960  178.8260  147.1640 N   0  0  0  0  0  2  0  0  0  0  0  0
  185.9810  178.2310  144.1020 C   0  0  0  0  0  0  0  0  0  0  0  0
  188.1620  177.7150  145.1520 C   0  0  1  0  0  3  0  0  0  0  0  0
  186.9210  177.1280  144.4860 C   0  0  0  0  0  2  0  0  0  0  0  0
  185.1180  178.3690  146.4420 C   0  0  0  0  0  2  0  0  0  0  0  0
  188.1890  177.4020  146.6150 C   0  0  0  0  0  3  0  0  0  0  0  0
  185.1750  178.7920  145.0090 C   0  0  0  0  0  3  0  0  0  0  0  0
  189.1940  176.1740  143.6060 O   0  0  0  0  0  1  0  0  0  0  0  0
  189.4480  177.2230  144.4920 C   0  0  1  0  0  3  0  0  0  0  0  0
  190.1050  178.3120  143.7900 N   0  0  0  0  0  1  0  0  0  0  0  0
  185.6630  172.9900  135.9280 C   0  0  0  0  0  2  0  0  0  0  0  0
  185.4630  175.3650  135.1370 C   0  0  0  0  0  1  0  0  0  0  0  0
  185.0960  173.9160  134.8570 C   0  0  2  0  0  3  0  0  0  0  0  0
  183.6500  173.7450  134.6780 N   0  0  0  0  0  2  0  0  0  0  0  0
  183.3250  172.3580  134.3610 C   0  0  0  0  0  2  0  0  0  0  0  0
  181.8850  172.0800  134.7320 C   0  0  0  0  0  1  0  0  0  0  0  0
  195.9470  175.8090  135.7300 O   0  0  0  0  0  0  0  0  0  0  0  0
  196.9190  175.4030  136.6200 N   0  0  0  0  0  2  0  0  0  0  0  0
  197.4160  174.1110  136.1620 C   0  0  0  0  0  2  0  0  0  0  0  0
  195.9420  170.9340  137.2340 O   0  0  0  0  0  0  0  0  0  0  0  0
  196.9580  172.9810  137.1000 C   0  0  2  0  0  0  0  0  0  0  0  0
  197.2450  170.6910  135.4270 O   0  0  0  0  0  0  0  0  0  0  0  0
  196.5360  173.5680  138.4380 C   0  0  0  0  0  1  0  0  0  0  0  0
  198.0150  171.9000  137.3480 C   0  0  1  0  0  3  0  0  0  0  0  0
  195.8200  172.1180  136.5220 C   0  0  1  0  0  3  0  0  0  0  0  0
  196.2410  171.6350  135.1490 C   0  0  0  0  0  2  0  0  0  0  0  0
  197.2550  170.6680  136.8420 C   0  0  1  0  0  3  0  0  0  0  0  0
  199.1920  172.0990  136.6140 O   0  0  0  0  0  1  0  0  0  0  0  0
  1  6  2  0  0  0  0
  3 11  1  0  0  0  0
  3 38  1  1  0  0  0
  3 15  1  0  0  0  0
  4 14  2  0  0  0  0
  5  7  1  0  0  0  0
  5  8  1  0  0  0  0
  7 10  2  0  0  0  0
  8  4  1  1  0  0  0
  8 12  1  0  0  0  0
  9  7  1  0  0  0  0
 10  2  1  0  0  0  0
 10 13  1  0  0  0  0
 11  9  1  6  0  0  0
 11 15  1  0  0  0  0
 11  2  1  0  0  0  0
 12 13  2  0  0  0  0
 12  6  1  0  0  0  0
 13 19  1  0  0  0  0
 14  1  1  0  0  0  0
 17 19  2  0  0  0  0
 17 18  1  0  0  0  0
 18 21  1  0  0  0  0
 19 22  1  0  0  0  0
 20 18  2  0  0  0  0
 21 16  2  0  0  0  0
 21 24  1  0  0  0  0
 22 16  1  0  0  0  0
 23 26  1  0  0  0  0
 24 23  2  0  0  0  0
 25 26  2  0  0  0  0
 26 29  1  0  0  0  0
 28 27  1  0  0  0  0
 29 31  1  0  0  0  0
 29 34  2  0  0  0  0
 30 36  1  6  0  0  0
 30 33  1  0  0  0  0
 31 30  1  0  0  0  0
 32 28  1  0  0  0  0
 33 27  2  0  0  0  0
 34 32  1  0  0  0  0
 36 35  1  6  0  0  0
 37 36  1  0  0  0  0
 40 39  1  1  0  0  0
 40 38  1  0  0  0  0
 41 40  1  0  0  0  0
 42 41  1  0  0  0  0
 42 43  1  0  0  0  0
 44 14  1  0  0  0  0
 44 45  1  0  0  0  0
 46 45  1  0  0  0  0
 46 48  1  0  0  0  0
 48 51  1  0  0  0  0
 48 50  1  1  0  0  0
 51 55  1  6  0  0  0
 52 53  1  6  0  0  0
 52 48  1  0  0  0  0
 52 47  1  0  0  0  0
 53 49  1  0  0  0  0
 54 49  1  6  0  0  0
 54 47  1  0  0  0  0
 54 51  1  0  0  0  0
M  END
>  <MODEL>
2

>  <REMARK>
 VINA RESULT:      -9.3      3.454     12.671
  Name = 
  13 active torsions:
  status: ('A' for Active; 'I' for Inactive)
    1  A    between atoms: C_1  and  C_5
    2  A    between atoms: C_1  and  C_48
    3  A    between atoms: C_11  and  C_38
    4  A    between atoms: O_14  and  N_23
    5  A    between atoms: O_14  and  C_46
    6  A    between atoms: C_18  and  C_44
    7  A    between atoms: C_20  and  C_24
    8  A    between atoms: C_22  and  C_37
    9  A    between atoms: N_23  and  C_37
   10  A    between atoms: N_28  and  C_35
   11  A    between atoms: N_28  and  C_48
   12  A    between atoms: C_32  and  C_39
   13  A    between atoms: N_36  and  C_38
                            x       y       z     vdW  Elec       q    Type
                         _______ _______ _______ _____ _____    ______ ____

>  <TORSDO>
F 13

$$$$
=
 OpenBabel10232407473D

 55 62  0  0  1  0  0  0  0  0999 V2000
  183.2300  178.6440  141.3960 C   0  0  0  0  0  3  0  0  0  0  0  0
  187.8620  177.7390  145.6800 C   0  0  0  0  0  2  0  0  0  0  0  0
  188.5390  178.2090  148.2400 C   0  0  1  0  0  3  0  0  0  0  0  0
  182.7400  178.9570  143.7710 C   0  0  0  0  0  3  0  0  0  0  0  0
  184.3260  178.7290  145.5060 O   0  0  0  0  0  0  0  0  0  0  0  0
  184.6950  178.4340  141.6720 C   0  0  0  0  0  2  0  0  0  0  0  0
  185.6230  178.4090  145.9100 C   0  0  0  0  0  0  0  0  0  0  0  0
  183.9900  178.6930  144.1490 C   0  0  0  0  0  0  0  0  0  0  0  0
  186.0760  178.3910  147.3230 C   0  0  0  0  0  2  0  0  0  0  0  0
  186.5650  178.0780  145.0310 C   0  0  0  0  0  0  0  0  0  0  0  0
  187.5170  177.9630  147.1430 C   0  0  1  0  0  0  0  0  0  0  0  0
  185.0300  178.3430  143.1430 C   0  0  0  0  0  0  0  0  0  0  0  0
  186.2820  178.0420  143.5710 C   0  0  0  0  0  0  0  0  0  0  0  0
  182.3340  178.9040  142.3520 C   0  0  0  0  0  0  0  0  0  0  0  0
  187.9270  176.8260  148.0490 C   0  0  0  0  0  2  0  0  0  0  0  0
  189.4410  176.3700  142.0010 C   0  0  0  0  0  3  0  0  0  0  0  0
  187.5130  178.4130  141.4970 C   0  0  0  0  0  3  0  0  0  0  0  0
  188.5780  178.1060  140.5380 C   0  0  0  0  0  0  0  0  0  0  0  0
  187.3740  177.7070  142.6270 C   0  0  0  0  0  0  0  0  0  0  0  0
  188.6220  178.7300  139.4450 O   0  0  0  0  0  0  0  0  0  0  0  0
  189.5940  177.0860  140.8850 C   0  0  0  0  0  0  0  0  0  0  0  0
  188.2350  176.4930  142.8970 C   0  0  0  0  0  2  0  0  0  0  0  0
  190.7630  176.1670  138.9780 N   0  0  0  0  0  0  0  0  0  0  0  0
  190.8000  176.8470  140.0780 C   0  0  0  0  0  3  0  0  0  0  0  0
  192.8410  176.7940  138.1080 O   0  0  0  0  0  0  0  0  0  0  0  0
  191.9290  175.9230  138.1840 C   0  0  0  0  0  0  0  0  0  0  0  0
  191.9430  172.4900  134.4670 C   0  0  0  0  0  3  0  0  0  0  0  0
  193.1510  173.0460  134.9930 N   0  0  0  0  0  2  0  0  0  0  0  0
  192.0620  174.6460  137.4580 C   0  0  0  0  0  0  0  0  0  0  0  0
  190.4850  174.1740  135.6110 C   0  0  1  0  0  3  0  0  0  0  0  0
  190.8250  173.8920  137.0720 C   0  0  0  0  0  2  0  0  0  0  0  0
  193.5070  172.9070  136.3970 C   0  0  0  0  0  2  0  0  0  0  0  0
  190.7320  172.9700  134.7560 C   0  0  0  0  0  3  0  0  0  0  0  0
  193.2750  174.1880  137.1330 C   0  0  0  0  0  3  0  0  0  0  0  0
  188.2060  174.0620  136.4020 O   0  0  0  0  0  1  0  0  0  0  0  0
  189.0400  174.6410  135.4430 C   0  0  1  0  0  3  0  0  0  0  0  0
  188.9640  176.0890  135.5350 N   0  0  0  0  0  1  0  0  0  0  0  0
  189.9620  178.2160  147.7000 C   0  0  0  0  0  2  0  0  0  0  0  0
  191.6280  176.3400  147.8240 C   0  0  0  0  0  1  0  0  0  0  0  0
  190.3410  176.8330  147.1790 C   0  0  2  0  0  3  0  0  0  0  0  0
  190.4130  176.7860  145.7150 N   0  0  0  0  0  2  0  0  0  0  0  0
  191.6030  177.4780  145.2300 C   0  0  0  0  0  2  0  0  0  0  0  0
  191.2020  178.4980  144.1870 C   0  0  0  0  0  1  0  0  0  0  0  0
  181.0030  179.1150  141.9850 O   0  0  0  0  0  0  0  0  0  0  0  0
  180.5570  178.8820  140.7010 N   0  0  0  0  0  2  0  0  0  0  0  0
  181.1640  177.6350  140.2490 C   0  0  0  0  0  2  0  0  0  0  0  0
  182.0620  176.7030  136.8230 O   0  0  0  0  0  0  0  0  0  0  0  0
  181.0550  177.4910  138.7220 C   0  0  2  0  0  0  0  0  0  0  0  0
  182.4320  175.0360  138.2740 O   0  0  0  0  0  0  0  0  0  0  0  0
  180.3220  178.6940  138.1470 C   0  0  0  0  0  1  0  0  0  0  0  0
  180.3450  176.2150  138.2580 C   0  0  1  0  0  3  0  0  0  0  0  0
  182.4130  177.3160  138.0160 C   0  0  1  0  0  3  0  0  0  0  0  0
  183.1510  176.1730  138.6840 C   0  0  0  0  0  2  0  0  0  0  0  0
  181.4570  175.5890  137.4090 C   0  0  1  0  0  3  0  0  0  0  0  0
  179.9840  175.3680  139.3140 O   0  0  0  0  0  1  0  0  0  0  0  0
  1  6  1  0  0  0  0
  1 14  2  0  0  0  0
  3 38  1  6  0  0  0
  4  8  2  0  0  0  0
  5  7  1  0  0  0  0
  6 12  1  0  0  0  0
  7  9  1  0  0  0  0
  8  5  1  0  0  0  0
 10  2  1  0  0  0  0
 10  7  2  0  0  0  0
 11  2  1  6  0  0  0
 11  9  1  0  0  0  0
 11 15  1  0  0  0  0
 11  3  1  0  0  0  0
 12 13  2  0  0  0  0
 12  8  1  0  0  0  0
 13 10  1  0  0  0  0
 14  4  1  0  0  0  0
 15  3  1  0  0  0  0
 16 22  1  0  0  0  0
 17 19  2  0  0  0  0
 18 21  1  0  0  0  0
 18 17  1  0  0  0  0
 19 22  1  0  0  0  0
 19 13  1  0  0  0  0
 20 18  2  0  0  0  0
 21 16  2  0  0  0  0
 23 24  2  0  0  0  0
 24 21  1  0  0  0  0
 25 26  2  0  0  0  0
 26 23  1  0  0  0  0
 27 33  2  0  0  0  0
 27 28  1  0  0  0  0
 28 32  1  0  0  0  0
 29 26  1  0  0  0  0
 30 36  1  1  0  0  0
 30 31  1  0  0  0  0
 31 29  1  0  0  0  0
 32 34  1  0  0  0  0
 33 30  1  0  0  0  0
 34 29  2  0  0  0  0
 36 37  1  1  0  0  0
 36 35  1  0  0  0  0
 40 38  1  0  0  0  0
 40 39  1  1  0  0  0
 41 40  1  0  0  0  0
 42 41  1  0  0  0  0
 43 42  1  0  0  0  0
 44 14  1  0  0  0  0
 45 44  1  0  0  0  0
 46 45  1  0  0  0  0
 47 52  1  0  0  0  0
 48 50  1  6  0  0  0
 48 46  1  0  0  0  0
 49 53  1  0  0  0  0
 51 48  1  0  0  0  0
 51 55  1  1  0  0  0
 52 53  1  1  0  0  0
 52 48  1  0  0  0  0
 54 47  1  1  0  0  0
 54 51  1  0  0  0  0
 54 49  1  0  0  0  0
M  END
>  <MODEL>
3

>  <REMARK>
 VINA RESULT:      -9.3      1.479      2.478
  Name = 
  13 active torsions:
  status: ('A' for Active; 'I' for Inactive)
    1  A    between atoms: C_1  and  C_5
    2  A    between atoms: C_1  and  C_48
    3  A    between atoms: C_11  and  C_38
    4  A    between atoms: O_14  and  N_23
    5  A    between atoms: O_14  and  C_46
    6  A    between atoms: C_18  and  C_44
    7  A    between atoms: C_20  and  C_24
    8  A    between atoms: C_22  and  C_37
    9  A    between atoms: N_23  and  C_37
   10  A    between atoms: N_28  and  C_35
   11  A    between atoms: N_28  and  C_48
   12  A    between atoms: C_32  and  C_39
   13  A    between atoms: N_36  and  C_38
                            x       y       z     vdW  Elec       q    Type
                         _______ _______ _______ _____ _____    ______ ____

>  <TORSDO>
F 13

$$$$
=
 OpenBabel10232407473D

 55 62  0  0  1  0  0  0  0  0999 V2000
  193.7000  176.7160  136.9650 C   0  0  0  0  0  3  0  0  0  0  0  0
  187.7080  174.5490  136.8830 C   0  0  0  0  0  2  0  0  0  0  0  0
  185.9000  173.2950  135.3350 C   0  0  1  0  0  3  0  0  0  0  0  0
  193.0230  175.1390  135.2240 C   0  0  0  0  0  3  0  0  0  0  0  0
  190.8430  174.2660  134.9830 O   0  0  0  0  0  0  0  0  0  0  0  0
  192.2930  176.8250  137.4870 C   0  0  0  0  0  3  0  0  0  0  0  0
  189.5330  174.1630  135.4570 C   0  0  0  0  0  0  0  0  0  0  0  0
  191.7640  175.0770  135.6530 C   0  0  1  0  0  3  0  0  0  0  0  0
  188.4870  173.3120  134.8380 C   0  0  0  0  0  2  0  0  0  0  0  0
  189.1270  174.8320  136.5320 C   0  0  0  0  0  0  0  0  0  0  0  0
  187.3260  173.5840  135.7710 C   0  0  1  0  0  0  0  0  0  0  0  0
  191.3300  175.8510  136.8490 C   0  0  0  0  0  0  0  0  0  0  0  0
  190.0490  175.7310  137.2780 C   0  0  0  0  0  0  0  0  0  0  0  0
  194.0370  175.9610  135.9160 C   0  0  0  0  0  0  0  0  0  0  0  0
  186.6370  172.3320  136.2590 C   0  0  0  0  0  2  0  0  0  0  0  0
  189.6430  177.1190  140.9040 C   0  0  0  0  0  3  0  0  0  0  0  0
  188.4320  177.2300  138.3230 C   0  0  0  0  0  3  0  0  0  0  0  0
  187.9020  177.9950  139.4550 C   0  0  0  0  0  0  0  0  0  0  0  0
  189.5390  176.4870  138.4460 C   0  0  0  0  0  0  0  0  0  0  0  0
  186.9120  178.7530  139.2780 O   0  0  0  0  0  0  0  0  0  0  0  0
  188.5270  177.8420  140.7890 C   0  0  0  0  0  0  0  0  0  0  0  0
  190.3510  176.5060  139.7220 C   0  0  0  0  0  2  0  0  0  0  0  0
  187.1600  177.7400  142.7810 N   0  0  0  0  0  0  0  0  0  0  0  0
  187.9530  178.4160  142.0150 C   0  0  0  0  0  3  0  0  0  0  0  0
  185.6480  179.1240  143.9060 O   0  0  0  0  0  0  0  0  0  0  0  0
  186.5910  178.2860  143.9760 C   0  0  0  0  0  0  0  0  0  0  0  0
  189.5090  177.8950  148.0900 C   0  0  0  0  0  3  0  0  0  0  0  0
  188.2730  178.6120  148.1010 N   0  0  0  0  0  2  0  0  0  0  0  0
  187.1080  177.8610  145.2900 C   0  0  0  0  0  0  0  0  0  0  0  0
  189.5590  177.7060  145.5940 C   0  0  1  0  0  3  0  0  0  0  0  0
  188.2740  176.9200  145.3470 C   0  0  0  0  0  2  0  0  0  0  0  0
  187.0100  177.9620  147.7840 C   0  0  0  0  0  2  0  0  0  0  0  0
  190.0890  177.4570  146.9710 C   0  0  0  0  0  3  0  0  0  0  0  0
  186.5520  178.3340  146.4090 C   0  0  0  0  0  3  0  0  0  0  0  0
  191.4070  178.5050  144.2600 O   0  0  0  0  0  1  0  0  0  0  0  0
  190.6330  177.3810  144.5570 C   0  0  1  0  0  3  0  0  0  0  0  0
  191.4870  176.3070  145.0340 N   0  0  0  0  0  1  0  0  0  0  0  0
  184.8860  174.0960  136.1390 C   0  0  0  0  0  2  0  0  0  0  0  0
  184.7670  176.6010  136.2870 C   0  0  0  0  0  1  0  0  0  0  0  0
  184.5230  175.3850  135.4070 C   0  0  2  0  0  3  0  0  0  0  0  0
  183.1560  175.3620  134.8750 N   0  0  0  0  0  2  0  0  0  0  0  0
  182.2650  176.1740  135.6980 C   0  0  0  0  0  2  0  0  0  0  0  0
  181.5560  175.2870  136.6980 C   0  0  0  0  0  1  0  0  0  0  0  0
  195.3670  175.9560  135.4910 O   0  0  0  0  0  0  0  0  0  0  0  0
  195.8790  174.9340  134.7170 N   0  0  0  0  0  2  0  0  0  0  0  0
  197.3120  174.8680  134.9790 C   0  0  0  0  0  2  0  0  0  0  0  0
  199.2880  172.6030  137.0730 O   0  0  0  0  0  0  0  0  0  0  0  0
  197.6310  173.7850  136.0240 C   0  0  2  0  0  0  0  0  0  0  0  0
  200.1500  174.6700  137.0220 O   0  0  0  0  0  0  0  0  0  0  0  0
  196.5220  172.7430  136.0330 C   0  0  0  0  0  1  0  0  0  0  0  0
  197.8170  174.3190  137.4480 C   0  0  1  0  0  3  0  0  0  0  0  0
  198.9940  173.1000  135.8110 C   0  0  1  0  0  3  0  0  0  0  0  0
  200.0560  174.1770  135.7090 C   0  0  0  0  0  2  0  0  0  0  0  0
  199.2470  173.8370  137.7240 C   0  0  1  0  0  3  0  0  0  0  0  0
  197.7340  175.7150  137.5310 O   0  0  0  0  0  1  0  0  0  0  0  0
  1  6  2  0  0  0  0
  3 11  1  0  0  0  0
  3 38  1  1  0  0  0
  3 15  1  0  0  0  0
  4 14  2  0  0  0  0
  5  7  1  0  0  0  0
  5  8  1  0  0  0  0
  7 10  2  0  0  0  0
  8  4  1  1  0  0  0
  8 12  1  0  0  0  0
  9  7  1  0  0  0  0
 10  2  1  0  0  0  0
 10 13  1  0  0  0  0
 11  9  1  6  0  0  0
 11 15  1  0  0  0  0
 11  2  1  0  0  0  0
 12 13  2  0  0  0  0
 12  6  1  0  0  0  0
 13 19  1  0  0  0  0
 14  1  1  0  0  0  0
 17 19  2  0  0  0  0
 17 18  1  0  0  0  0
 18 21  1  0  0  0  0
 19 22  1  0  0  0  0
 20 18  2  0  0  0  0
 21 16  2  0  0  0  0
 21 24  1  0  0  0  0
 22 16  1  0  0  0  0
 23 26  1  0  0  0  0
 24 23  2  0  0  0  0
 25 26  2  0  0  0  0
 26 29  1  0  0  0  0
 27 28  1  0  0  0  0
 29 31  1  0  0  0  0
 29 34  2  0  0  0  0
 30 36  1  6  0  0  0
 30 33  1  0  0  0  0
 31 30  1  0  0  0  0
 32 28  1  0  0  0  0
 33 27  2  0  0  0  0
 34 32  1  0  0  0  0
 36 35  1  1  0  0  0
 36 37  1  0  0  0  0
 40 38  1  0  0  0  0
 40 39  1  1  0  0  0
 41 40  1  0  0  0  0
 41 42  1  0  0  0  0
 42 43  1  0  0  0  0
 44 14  1  0  0  0  0
 45 46  1  0  0  0  0
 45 44  1  0  0  0  0
 46 48  1  0  0  0  0
 47 54  1  0  0  0  0
 48 50  1  6  0  0  0
 48 51  1  0  0  0  0
 51 55  1  6  0  0  0
 51 54  1  0  0  0  0
 52 53  1  1  0  0  0
 52 48  1  0  0  0  0
 52 47  1  0  0  0  0
 53 49  1  0  0  0  0
 54 49  1  6  0  0  0
M  END
>  <MODEL>
4

>  <REMARK>
 VINA RESULT:      -8.8      3.029     12.666
  Name = 
  13 active torsions:
  status: ('A' for Active; 'I' for Inactive)
    1  A    between atoms: C_1  and  C_5
    2  A    between atoms: C_1  and  C_48
    3  A    between atoms: C_11  and  C_38
    4  A    between atoms: O_14  and  N_23
    5  A    between atoms: O_14  and  C_46
    6  A    between atoms: C_18  and  C_44
    7  A    between atoms: C_20  and  C_24
    8  A    between atoms: C_22  and  C_37
    9  A    between atoms: N_23  and  C_37
   10  A    between atoms: N_28  and  C_35
   11  A    between atoms: N_28  and  C_48
   12  A    between atoms: C_32  and  C_39
   13  A    between atoms: N_36  and  C_38
                            x       y       z     vdW  Elec       q    Type
                         _______ _______ _______ _____ _____    ______ ____

>  <TORSDO>
F 13

$$$$
=
 OpenBabel10232407473D

 55 62  0  0  1  0  0  0  0  0999 V2000
  193.8680  176.3200  136.4240 C   0  0  0  0  0  3  0  0  0  0  0  0
  187.7650  174.4960  136.6260 C   0  0  0  0  0  2  0  0  0  0  0  0
  185.7850  173.4580  135.1310 C   0  0  1  0  0  3  0  0  0  0  0  0
  192.9820  174.9120  134.6330 C   0  0  0  0  0  3  0  0  0  0  0  0
  190.7410  174.1790  134.4910 O   0  0  0  0  0  0  0  0  0  0  0  0
  192.5090  176.4680  137.0530 C   0  0  0  0  0  3  0  0  0  0  0  0
  189.4640  174.1140  135.0500 C   0  0  0  0  0  0  0  0  0  0  0  0
  191.7530  174.8880  135.1470 C   0  0  1  0  0  3  0  0  0  0  0  0
  188.3290  173.3680  134.4520 C   0  0  0  0  0  2  0  0  0  0  0  0
  189.1720  174.7260  136.1950 C   0  0  0  0  0  0  0  0  0  0  0  0
  187.2530  173.6360  135.4820 C   0  0  1  0  0  0  0  0  0  0  0  0
  191.4490  175.5960  136.4210 C   0  0  0  0  0  0  0  0  0  0  0  0
  190.1940  175.5160  136.9320 C   0  0  0  0  0  0  0  0  0  0  0  0
  194.0870  175.6250  135.3050 C   0  0  0  0  0  0  0  0  0  0  0  0
  186.5240  172.3910  135.9320 C   0  0  0  0  0  2  0  0  0  0  0  0
  189.9980  176.5370  140.6940 C   0  0  0  0  0  3  0  0  0  0  0  0
  188.8510  177.1460  138.1530 C   0  0  0  0  0  3  0  0  0  0  0  0
  188.4500  177.8590  139.3690 C   0  0  0  0  0  0  0  0  0  0  0  0
  189.8110  176.2130  138.1820 C   0  0  0  0  0  0  0  0  0  0  0  0
  187.6090  178.7920  139.2880 O   0  0  0  0  0  0  0  0  0  0  0  0
  189.0250  177.4510  140.6720 C   0  0  0  0  0  0  0  0  0  0  0  0
  190.6010  175.9470  139.4450 C   0  0  0  0  0  2  0  0  0  0  0  0
  187.5730  177.4180  142.6060 N   0  0  0  0  0  0  0  0  0  0  0  0
  188.5470  177.9740  141.9600 C   0  0  0  0  0  3  0  0  0  0  0  0
  187.7960  177.7970  144.9020 O   0  0  0  0  0  0  0  0  0  0  0  0
  187.0950  177.9180  143.8590 C   0  0  0  0  0  0  0  0  0  0  0  0
  182.1660  178.8800  143.2430 C   0  0  0  0  0  3  0  0  0  0  0  0
  182.7000  178.4180  144.4850 N   0  0  0  0  0  2  0  0  0  0  0  0
  185.7790  178.5820  143.9220 C   0  0  0  0  0  0  0  0  0  0  0  0
  184.2660  178.3840  141.9740 C   0  0  1  0  0  3  0  0  0  0  0  0
  185.2550  179.2860  142.7070 C   0  0  0  0  0  2  0  0  0  0  0  0
  183.7180  179.1690  145.2050 C   0  0  0  0  0  2  0  0  0  0  0  0
  182.8660  178.8960  142.1070 C   0  0  0  0  0  3  0  0  0  0  0  0
  185.0600  178.5290  145.0480 C   0  0  0  0  0  3  0  0  0  0  0  0
  183.6970  177.4240  139.8330 O   0  0  0  0  0  1  0  0  0  0  0  0
  184.6240  178.2290  140.4970 C   0  0  1  0  0  3  0  0  0  0  0  0
  184.6950  179.5300  139.8550 N   0  0  0  0  0  1  0  0  0  0  0  0
  184.8770  174.2540  136.0580 C   0  0  0  0  0  2  0  0  0  0  0  0
  184.5570  176.5290  135.0440 C   0  0  0  0  0  1  0  0  0  0  0  0
  183.9460  175.1520  135.2510 C   0  0  2  0  0  3  0  0  0  0  0  0
  182.6020  175.2340  135.8330 N   0  0  0  0  0  2  0  0  0  0  0  0
  182.5760  176.1710  136.9530 C   0  0  0  0  0  2  0  0  0  0  0  0
  181.1420  176.5000  137.3010 C   0  0  0  0  0  1  0  0  0  0  0  0
  195.3830  175.5780  134.7860 O   0  0  0  0  0  0  0  0  0  0  0  0
  196.4560  175.1600  135.5460 N   0  0  0  0  0  2  0  0  0  0  0  0
  196.4190  173.7030  135.5860 C   0  0  0  0  0  2  0  0  0  0  0  0
  195.3170  171.8380  138.5400 O   0  0  0  0  0  0  0  0  0  0  0  0
  196.3890  173.1920  137.0360 C   0  0  2  0  0  0  0  0  0  0  0  0
  195.3470  170.5600  136.7010 O   0  0  0  0  0  0  0  0  0  0  0  0
  196.8740  174.2880  137.9730 C   0  0  0  0  0  1  0  0  0  0  0  0
  197.2260  171.9320  137.2780 C   0  0  1  0  0  3  0  0  0  0  0  0
  195.0050  172.6880  137.4890 C   0  0  1  0  0  3  0  0  0  0  0  0
  194.5160  171.6710  136.4760 C   0  0  0  0  0  2  0  0  0  0  0  0
  196.1350  170.9860  137.7960 C   0  0  1  0  0  3  0  0  0  0  0  0
  197.8150  171.4260  136.1110 O   0  0  0  0  0  1  0  0  0  0  0  0
  1  6  2  0  0  0  0
  3 11  1  0  0  0  0
  3 15  1  0  0  0  0
  3 38  1  1  0  0  0
  4 14  2  0  0  0  0
  5  7  1  0  0  0  0
  5  8  1  0  0  0  0
  7 10  2  0  0  0  0
  8  4  1  1  0  0  0
  8 12  1  0  0  0  0
  9  7  1  0  0  0  0
 10  2  1  0  0  0  0
 10 13  1  0  0  0  0
 11  9  1  6  0  0  0
 11 15  1  0  0  0  0
 11  2  1  0  0  0  0
 12 13  2  0  0  0  0
 12  6  1  0  0  0  0
 13 19  1  0  0  0  0
 14  1  1  0  0  0  0
 17 19  2  0  0  0  0
 17 18  1  0  0  0  0
 18 21  1  0  0  0  0
 19 22  1  0  0  0  0
 20 18  2  0  0  0  0
 21 16  2  0  0  0  0
 21 24  1  0  0  0  0
 22 16  1  0  0  0  0
 23 26  1  0  0  0  0
 24 23  2  0  0  0  0
 26 29  1  0  0  0  0
 26 25  2  0  0  0  0
 27 28  1  0  0  0  0
 28 32  1  0  0  0  0
 29 34  2  0  0  0  0
 30 36  1  6  0  0  0
 30 33  1  0  0  0  0
 30 31  1  0  0  0  0
 31 29  1  0  0  0  0
 33 27  2  0  0  0  0
 34 32  1  0  0  0  0
 36 35  1  6  0  0  0
 37 36  1  0  0  0  0
 40 39  1  1  0  0  0
 40 41  1  0  0  0  0
 40 38  1  0  0  0  0
 41 42  1  0  0  0  0
 42 43  1  0  0  0  0
 44 14  1  0  0  0  0
 44 45  1  0  0  0  0
 45 46  1  0  0  0  0
 46 48  1  0  0  0  0
 48 51  1  0  0  0  0
 48 52  1  0  0  0  0
 48 50  1  1  0  0  0
 51 55  1  6  0  0  0
 51 54  1  0  0  0  0
 52 53  1  6  0  0  0
 52 47  1  0  0  0  0
 53 49  1  0  0  0  0
 54 49  1  6  0  0  0
 54 47  1  0  0  0  0
M  END
>  <MODEL>
5

>  <REMARK>
 VINA RESULT:      -8.3      2.990     12.492
  Name = 
  13 active torsions:
  status: ('A' for Active; 'I' for Inactive)
    1  A    between atoms: C_1  and  C_5
    2  A    between atoms: C_1  and  C_48
    3  A    between atoms: C_11  and  C_38
    4  A    between atoms: O_14  and  N_23
    5  A    between atoms: O_14  and  C_46
    6  A    between atoms: C_18  and  C_44
    7  A    between atoms: C_20  and  C_24
    8  A    between atoms: C_22  and  C_37
    9  A    between atoms: N_23  and  C_37
   10  A    between atoms: N_28  and  C_35
   11  A    between atoms: N_28  and  C_48
   12  A    between atoms: C_32  and  C_39
   13  A    between atoms: N_36  and  C_38
                            x       y       z     vdW  Elec       q    Type
                         _______ _______ _______ _____ _____    ______ ____

>  <TORSDO>
F 13

$$$$
=
 OpenBabel10232407473D

 55 62  0  0  1  0  0  0  0  0999 V2000
  193.9720  176.6060  136.4900 C   0  0  0  0  0  3  0  0  0  0  0  0
  187.8250  174.9860  136.9520 C   0  0  0  0  0  2  0  0  0  0  0  0
  185.6840  174.2550  135.4990 C   0  0  1  0  0  3  0  0  0  0  0  0
  192.8780  175.5140  134.5960 C   0  0  0  0  0  3  0  0  0  0  0  0
  190.6010  174.8890  134.5430 O   0  0  0  0  0  0  0  0  0  0  0  0
  192.6770  176.7050  137.2490 C   0  0  0  0  0  3  0  0  0  0  0  0
  189.3710  174.7870  135.1960 C   0  0  0  0  0  0  0  0  0  0  0  0
  191.6950  175.4560  135.2050 C   0  0  1  0  0  3  0  0  0  0  0  0
  188.1570  174.1790  134.5950 C   0  0  0  0  0  2  0  0  0  0  0  0
  189.2020  175.2290  136.4390 C   0  0  0  0  0  0  0  0  0  0  0  0
  187.1820  174.3270  135.7430 C   0  0  1  0  0  0  0  0  0  0  0  0
  191.5280  175.9750  136.5910 C   0  0  0  0  0  0  0  0  0  0  0  0
  190.3170  175.8640  137.1920 C   0  0  0  0  0  0  0  0  0  0  0  0
  194.0660  176.0800  135.2660 C   0  0  0  0  0  0  0  0  0  0  0  0
  186.4340  173.0550  136.0670 C   0  0  0  0  0  2  0  0  0  0  0  0
  190.4750  176.3160  141.0660 C   0  0  0  0  0  3  0  0  0  0  0  0
  189.1540  177.3360  138.7510 C   0  0  0  0  0  3  0  0  0  0  0  0
  188.8870  177.8720  140.0890 C   0  0  0  0  0  0  0  0  0  0  0  0
  190.0700  176.3780  138.5590 C   0  0  0  0  0  0  0  0  0  0  0  0
  188.0850  178.8340  140.2190 O   0  0  0  0  0  0  0  0  0  0  0  0
  189.5470  177.2540  141.2630 C   0  0  0  0  0  0  0  0  0  0  0  0
  190.9470  175.9000  139.6950 C   0  0  0  0  0  2  0  0  0  0  0  0
  188.2040  177.0410  143.2620 N   0  0  0  0  0  0  0  0  0  0  0  0
  189.2000  177.5950  142.6500 C   0  0  0  0  0  3  0  0  0  0  0  0
  188.5320  176.9100  145.5730 O   0  0  0  0  0  0  0  0  0  0  0  0
  187.8520  177.3640  144.6110 C   0  0  0  0  0  0  0  0  0  0  0  0
  183.1210  179.1540  144.7440 C   0  0  0  0  0  3  0  0  0  0  0  0
  183.7480  178.5800  145.8930 N   0  0  0  0  0  2  0  0  0  0  0  0
  186.6920  178.2390  144.8710 C   0  0  0  0  0  0  0  0  0  0  0  0
  184.8940  178.3420  143.1740 C   0  0  1  0  0  3  0  0  0  0  0  0
  186.1200  179.0480  143.7470 C   0  0  0  0  0  2  0  0  0  0  0  0
  184.9740  179.1320  146.4490 C   0  0  0  0  0  2  0  0  0  0  0  0
  183.6370  179.0780  143.5160 C   0  0  0  0  0  3  0  0  0  0  0  0
  186.1510  178.2800  146.0930 C   0  0  0  0  0  3  0  0  0  0  0  0
  183.8210  177.6240  141.1340 O   0  0  0  0  0  1  0  0  0  0  0  0
  184.9960  178.1640  141.6610 C   0  0  1  0  0  3  0  0  0  0  0  0
  185.2830  179.4360  141.0200 N   0  0  0  0  0  1  0  0  0  0  0  0
  184.8930  174.9330  136.6080 C   0  0  0  0  0  2  0  0  0  0  0  0
  183.4350  175.4260  134.6230 C   0  0  0  0  0  1  0  0  0  0  0  0
  183.8460  175.8730  136.0180 C   0  0  2  0  0  3  0  0  0  0  0  0
  184.2760  177.2750  136.0370 N   0  0  0  0  0  2  0  0  0  0  0  0
  185.2430  177.5080  137.1060 C   0  0  0  0  0  2  0  0  0  0  0  0
  184.7610  178.6430  137.9820 C   0  0  0  0  0  1  0  0  0  0  0  0
  195.3130  176.0650  134.6350 O   0  0  0  0  0  0  0  0  0  0  0  0
  196.1410  174.9630  134.6870 N   0  0  0  0  0  2  0  0  0  0  0  0
  197.2180  175.2730  135.6190 C   0  0  0  0  0  2  0  0  0  0  0  0
  199.2230  172.6570  137.2180 O   0  0  0  0  0  0  0  0  0  0  0  0
  197.5600  174.0530  136.4920 C   0  0  2  0  0  0  0  0  0  0  0  0
  200.2190  174.6620  137.3200 O   0  0  0  0  0  0  0  0  0  0  0  0
  196.3870  173.0840  136.4950 C   0  0  0  0  0  1  0  0  0  0  0  0
  197.9190  174.3950  137.9410 C   0  0  1  0  0  3  0  0  0  0  0  0
  198.8450  173.3220  136.0600 C   0  0  1  0  0  3  0  0  0  0  0  0
  199.9650  174.3410  135.9750 C   0  0  0  0  0  2  0  0  0  0  0  0
  199.3310  173.8010  138.0100 C   0  0  1  0  0  3  0  0  0  0  0  0
  197.9420  175.7730  138.1950 O   0  0  0  0  0  1  0  0  0  0  0  0
  1  6  2  0  0  0  0
  3 11  1  0  0  0  0
  3 15  1  0  0  0  0
  3 38  1  1  0  0  0
  4 14  2  0  0  0  0
  5  7  1  0  0  0  0
  5  8  1  0  0  0  0
  7 10  2  0  0  0  0
  8  4  1  1  0  0  0
  8 12  1  0  0  0  0
  9  7  1  0  0  0  0
 10  2  1  0  0  0  0
 10 13  1  0  0  0  0
 11  9  1  6  0  0  0
 11 15  1  0  0  0  0
 11  2  1  0  0  0  0
 12 13  2  0  0  0  0
 12  6  1  0  0  0  0
 13 19  1  0  0  0  0
 14  1  1  0  0  0  0
 16 21  2  0  0  0  0
 17 18  1  0  0  0  0
 18 20  2  0  0  0  0
 18 21  1  0  0  0  0
 19 17  2  0  0  0  0
 19 22  1  0  0  0  0
 21 24  1  0  0  0  0
 22 16  1  0  0  0  0
 23 26  1  0  0  0  0
 24 23  2  0  0  0  0
 26 29  1  0  0  0  0
 26 25  2  0  0  0  0
 27 28  1  0  0  0  0
 28 32  1  0  0  0  0
 29 34  2  0  0  0  0
 30 36  1  6  0  0  0
 30 33  1  0  0  0  0
 30 31  1  0  0  0  0
 31 29  1  0  0  0  0
 33 27  2  0  0  0  0
 34 32  1  0  0  0  0
 35 36  1  0  0  0  0
 36 37  1  6  0  0  0
 40 39  1  6  0  0  0
 40 41  1  0  0  0  0
 40 38  1  0  0  0  0
 41 42  1  0  0  0  0
 42 43  1  0  0  0  0
 44 45  1  0  0  0  0
 44 14  1  0  0  0  0
 45 46  1  0  0  0  0
 46 48  1  0  0  0  0
 48 50  1  6  0  0  0
 48 51  1  0  0  0  0
 49 54  1  0  0  0  0
 51 54  1  0  0  0  0
 51 55  1  6  0  0  0
 52 53  1  1  0  0  0
 52 48  1  0  0  0  0
 52 47  1  0  0  0  0
 53 49  1  0  0  0  0
 54 47  1  6  0  0  0
M  END
>  <MODEL>
6

>  <REMARK>
 VINA RESULT:      -8.2      3.080     12.757
  Name = 
  13 active torsions:
  status: ('A' for Active; 'I' for Inactive)
    1  A    between atoms: C_1  and  C_5
    2  A    between atoms: C_1  and  C_48
    3  A    between atoms: C_11  and  C_38
    4  A    between atoms: O_14  and  N_23
    5  A    between atoms: O_14  and  C_46
    6  A    between atoms: C_18  and  C_44
    7  A    between atoms: C_20  and  C_24
    8  A    between atoms: C_22  and  C_37
    9  A    between atoms: N_23  and  C_37
   10  A    between atoms: N_28  and  C_35
   11  A    between atoms: N_28  and  C_48
   12  A    between atoms: C_32  and  C_39
   13  A    between atoms: N_36  and  C_38
                            x       y       z     vdW  Elec       q    Type
                         _______ _______ _______ _____ _____    ______ ____

>  <TORSDO>
F 13

$$$$
=
 OpenBabel10232407473D

 55 62  0  0  1  0  0  0  0  0999 V2000
  186.4640  177.3000  136.8450 C   0  0  0  0  0  3  0  0  0  0  0  0
  192.7440  176.2200  136.7630 C   0  0  0  0  0  2  0  0  0  0  0  0
  194.7070  175.0840  135.3180 C   0  0  1  0  0  3  0  0  0  0  0  0
  187.5310  176.6140  134.7560 C   0  0  0  0  0  3  0  0  0  0  0  0
  189.8270  176.1100  134.5280 O   0  0  0  0  0  0  0  0  0  0  0  0
  187.7400  177.1130  137.6210 C   0  0  0  0  0  3  0  0  0  0  0  0
  191.1000  176.0390  135.0960 C   0  0  0  0  0  0  0  0  0  0  0  0
  188.7370  176.5060  135.3100 C   0  0  1  0  0  3  0  0  0  0  0  0
  192.3260  175.6580  134.3490 C   0  0  0  0  0  2  0  0  0  0  0  0
  191.3090  176.3260  136.3770 C   0  0  0  0  0  0  0  0  0  0  0  0
  193.3620  175.7780  135.4460 C   0  0  1  0  0  0  0  0  0  0  0  0
  188.9410  176.8160  136.7520 C   0  0  0  0  0  0  0  0  0  0  0  0
  190.1910  176.7300  137.2720 C   0  0  0  0  0  0  0  0  0  0  0  0
  186.3570  177.0540  135.5370 C   0  0  0  0  0  0  0  0  0  0  0  0
  194.5780  176.5780  135.0420 C   0  0  0  0  0  2  0  0  0  0  0  0
  191.9980  176.9160  140.7270 C   0  0  0  0  0  3  0  0  0  0  0  0
  189.4980  177.5010  139.4800 C   0  0  0  0  0  3  0  0  0  0  0  0
  189.7370  177.7860  140.8980 C   0  0  0  0  0  0  0  0  0  0  0  0
  190.4670  177.0010  138.7020 C   0  0  0  0  0  0  0  0  0  0  0  0
  188.8320  178.3400  141.5760 O   0  0  0  0  0  0  0  0  0  0  0  0
  191.0280  177.3940  141.5090 C   0  0  0  0  0  0  0  0  0  0  0  0
  191.8750  176.8250  139.2270 C   0  0  0  0  0  2  0  0  0  0  0  0
  190.7430  176.6360  143.7880 N   0  0  0  0  0  0  0  0  0  0  0  0
  191.2850  177.4640  142.9550 C   0  0  0  0  0  3  0  0  0  0  0  0
  191.9810  176.1080  145.6990 O   0  0  0  0  0  0  0  0  0  0  0  0
  190.9810  176.6940  145.1980 C   0  0  0  0  0  0  0  0  0  0  0  0
  186.8020  178.1260  147.6650 C   0  0  0  0  0  3  0  0  0  0  0  0
  187.8850  177.4670  148.3250 N   0  0  0  0  0  2  0  0  0  0  0  0
  190.0550  177.4500  146.0630 C   0  0  0  0  0  0  0  0  0  0  0  0
  187.6840  177.6250  145.3760 C   0  0  1  0  0  3  0  0  0  0  0  0
  189.0300  178.3430  145.4320 C   0  0  0  0  0  2  0  0  0  0  0  0
  189.2250  178.0350  148.3450 C   0  0  0  0  0  2  0  0  0  0  0  0
  186.7090  178.2280  146.3380 C   0  0  0  0  0  3  0  0  0  0  0  0
  190.1230  177.3140  147.3910 C   0  0  0  0  0  3  0  0  0  0  0  0
  187.2660  176.3940  143.3420 O   0  0  0  0  0  1  0  0  0  0  0  0
  187.0950  177.6310  143.9670 C   0  0  1  0  0  3  0  0  0  0  0  0
  185.6830  177.9690  144.0110 N   0  0  0  0  0  1  0  0  0  0  0  0
  195.3690  174.8710  136.6710 C   0  0  0  0  0  2  0  0  0  0  0  0
  195.0040  172.5680  137.6070 C   0  0  0  0  0  1  0  0  0  0  0  0
  195.9220  173.4530  136.7770 C   0  0  2  0  0  3  0  0  0  0  0  0
  197.3020  173.4250  137.2750 N   0  0  0  0  0  2  0  0  0  0  0  0
  198.0020  174.6600  136.9360 C   0  0  0  0  0  2  0  0  0  0  0  0
  198.9320  174.4090  135.7700 C   0  0  0  0  0  1  0  0  0  0  0  0
  185.1170  177.2300  134.9190 O   0  0  0  0  0  0  0  0  0  0  0  0
  183.9370  177.1920  135.6330 N   0  0  0  0  0  2  0  0  0  0  0  0
  183.2660  175.9420  135.2970 C   0  0  0  0  0  2  0  0  0  0  0  0
  181.5940  173.5280  137.4860 O   0  0  0  0  0  0  0  0  0  0  0  0
  182.9390  175.1350  136.5650 C   0  0  2  0  0  0  0  0  0  0  0  0
  182.0240  172.6710  135.4610 O   0  0  0  0  0  0  0  0  0  0  0  0
  183.2050  175.9890  137.7960 C   0  0  0  0  0  1  0  0  0  0  0  0
  183.7230  173.8250  136.6970 C   0  0  1  0  0  3  0  0  0  0  0  0
  181.4980  174.5930  136.6020 C   0  0  1  0  0  3  0  0  0  0  0  0
  181.2440  173.8330  135.3150 C   0  0  0  0  0  2  0  0  0  0  0  0
  182.5600  172.8280  136.7620 C   0  0  1  0  0  3  0  0  0  0  0  0
  184.5490  173.5600  135.5960 O   0  0  0  0  0  1  0  0  0  0  0  0
  1  6  2  0  0  0  0
  3 11  1  0  0  0  0
  3 38  1  1  0  0  0
  4 14  2  0  0  0  0
  5  7  1  0  0  0  0
  5  8  1  0  0  0  0
  7 10  2  0  0  0  0
  8  4  1  6  0  0  0
  8 12  1  0  0  0  0
  9  7  1  0  0  0  0
 10  2  1  0  0  0  0
 10 13  1  0  0  0  0
 11  9  1  6  0  0  0
 11  2  1  0  0  0  0
 12 13  2  0  0  0  0
 12  6  1  0  0  0  0
 13 19  1  0  0  0  0
 14  1  1  0  0  0  0
 15  3  1  0  0  0  0
 15 11  1  0  0  0  0
 16 21  2  0  0  0  0
 17 18  1  0  0  0  0
 18 21  1  0  0  0  0
 18 20  2  0  0  0  0
 19 22  1  0  0  0  0
 19 17  2  0  0  0  0
 21 24  1  0  0  0  0
 22 16  1  0  0  0  0
 23 26  1  0  0  0  0
 24 23  2  0  0  0  0
 26 25  2  0  0  0  0
 26 29  1  0  0  0  0
 27 28  1  0  0  0  0
 28 32  1  0  0  0  0
 29 34  2  0  0  0  0
 30 36  1  6  0  0  0
 30 31  1  0  0  0  0
 30 33  1  0  0  0  0
 31 29  1  0  0  0  0
 33 27  2  0  0  0  0
 34 32  1  0  0  0  0
 36 35  1  1  0  0  0
 36 37  1  0  0  0  0
 38 40  1  0  0  0  0
 40 41  1  0  0  0  0
 40 39  1  1  0  0  0
 42 41  1  0  0  0  0
 43 42  1  0  0  0  0
 44 14  1  0  0  0  0
 44 45  1  0  0  0  0
 46 45  1  0  0  0  0
 46 48  1  0  0  0  0
 48 52  1  0  0  0  0
 48 51  1  0  0  0  0
 48 50  1  1  0  0  0
 51 55  1  6  0  0  0
 51 54  1  0  0  0  0
 52 53  1  6  0  0  0
 52 47  1  0  0  0  0
 53 49  1  0  0  0  0
 54 49  1  6  0  0  0
 54 47  1  0  0  0  0
M  END
>  <MODEL>
7

>  <REMARK>
 VINA RESULT:      -8.1      3.256      9.522
  Name = 
  13 active torsions:
  status: ('A' for Active; 'I' for Inactive)
    1  A    between atoms: C_1  and  C_5
    2  A    between atoms: C_1  and  C_48
    3  A    between atoms: C_11  and  C_38
    4  A    between atoms: O_14  and  N_23
    5  A    between atoms: O_14  and  C_46
    6  A    between atoms: C_18  and  C_44
    7  A    between atoms: C_20  and  C_24
    8  A    between atoms: C_22  and  C_37
    9  A    between atoms: N_23  and  C_37
   10  A    between atoms: N_28  and  C_35
   11  A    between atoms: N_28  and  C_48
   12  A    between atoms: C_32  and  C_39
   13  A    between atoms: N_36  and  C_38
                            x       y       z     vdW  Elec       q    Type
                         _______ _______ _______ _____ _____    ______ ____

>  <TORSDO>
F 13

$$$$
=
 OpenBabel10232407473D

 55 62  0  0  1  0  0  0  0  0999 V2000
  191.6020  177.1520  143.1360 C   0  0  0  0  0  3  0  0  0  0  0  0
  188.8390  177.2640  137.3940 C   0  0  0  0  0  2  0  0  0  0  0  0
  186.4600  177.5040  136.1610 C   0  0  1  0  0  3  0  0  0  0  0  0
  189.3180  177.9990  142.9240 C   0  0  0  0  0  3  0  0  0  0  0  0
  188.0980  178.0700  140.9030 O   0  0  0  0  0  0  0  0  0  0  0  0
  191.6360  176.7320  141.6910 C   0  0  0  0  0  3  0  0  0  0  0  0
  188.0530  177.8650  139.5230 C   0  0  0  0  0  0  0  0  0  0  0  0
  189.2620  177.7620  141.6150 C   0  0  1  0  0  3  0  0  0  0  0  0
  186.8790  178.1830  138.6720 C   0  0  0  0  0  2  0  0  0  0  0  0
  189.0910  177.3660  138.8580 C   0  0  0  0  0  0  0  0  0  0  0  0
  187.4120  177.7820  137.3130 C   0  0  1  0  0  0  0  0  0  0  0  0
  190.4330  177.1860  140.8970 C   0  0  0  0  0  0  0  0  0  0  0  0
  190.3500  176.9940  139.5560 C   0  0  0  0  0  0  0  0  0  0  0  0
  190.5360  177.7150  143.7110 C   0  0  0  0  0  0  0  0  0  0  0  0
  187.2030  178.8330  136.2480 C   0  0  0  0  0  2  0  0  0  0  0  0
  193.8330  176.4960  137.8660 C   0  0  0  0  0  3  0  0  0  0  0  0
  191.2740  175.2570  138.1130 C   0  0  0  0  0  3  0  0  0  0  0  0
  192.3560  174.6420  137.3380 C   0  0  0  0  0  0  0  0  0  0  0  0
  191.4650  176.4040  138.7790 C   0  0  0  0  0  0  0  0  0  0  0  0
  192.1670  173.5190  136.8010 O   0  0  0  0  0  0  0  0  0  0  0  0
  193.6390  175.3650  137.1840 C   0  0  0  0  0  0  0  0  0  0  0  0
  192.8350  177.0410  138.8550 C   0  0  0  0  0  2  0  0  0  0  0  0
  195.9550  175.1580  136.5180 N   0  0  0  0  0  0  0  0  0  0  0  0
  194.7060  174.9210  136.2750 C   0  0  0  0  0  3  0  0  0  0  0  0
  197.1290  175.2580  134.4990 O   0  0  0  0  0  0  0  0  0  0  0  0
  197.0040  174.7340  135.6410 C   0  0  0  0  0  0  0  0  0  0  0  0
  199.0650  170.2030  136.5470 C   0  0  0  0  0  3  0  0  0  0  0  0
  199.5110  171.0400  135.4780 N   0  0  0  0  0  2  0  0  0  0  0  0
  197.9440  173.6860  136.0830 C   0  0  0  0  0  0  0  0  0  0  0  0
  197.0140  171.5740  136.9760 C   0  0  1  0  0  3  0  0  0  0  0  0
  197.6450  172.9160  137.3340 C   0  0  0  0  0  2  0  0  0  0  0  0
  200.0380  172.3740  135.7220 C   0  0  0  0  0  2  0  0  0  0  0  0
  197.9560  170.4430  137.2490 C   0  0  0  0  0  3  0  0  0  0  0  0
  199.0320  173.4180  135.3560 C   0  0  0  0  0  3  0  0  0  0  0  0
  195.4250  172.4000  138.5950 O   0  0  0  0  0  1  0  0  0  0  0  0
  195.7000  171.3470  137.7200 C   0  0  1  0  0  3  0  0  0  0  0  0
  194.6050  171.1920  136.7780 N   0  0  0  0  0  1  0  0  0  0  0  0
  187.1010  176.6320  135.0910 C   0  0  0  0  0  2  0  0  0  0  0  0
  184.7710  175.6940  135.1220 C   0  0  0  0  0  1  0  0  0  0  0  0
  186.2320  175.4110  134.8080 C   0  0  2  0  0  3  0  0  0  0  0  0
  186.7140  174.2080  135.4960 N   0  0  0  0  0  2  0  0  0  0  0  0
  188.1680  174.2310  135.6260 C   0  0  0  0  0  2  0  0  0  0  0  0
  188.6040  173.1530  136.5940 C   0  0  0  0  0  1  0  0  0  0  0  0
  190.5970  178.0380  145.0680 O   0  0  0  0  0  0  0  0  0  0  0  0
  189.6880  177.5340  145.9760 N   0  0  0  0  0  2  0  0  0  0  0  0
  188.5250  178.4130  145.9600 C   0  0  0  0  0  2  0  0  0  0  0  0
  185.2050  178.0860  147.4720 O   0  0  0  0  0  0  0  0  0  0  0  0
  187.3530  177.7910  146.7390 C   0  0  2  0  0  0  0  0  0  0  0  0
  185.1050  178.9110  145.3910 O   0  0  0  0  0  0  0  0  0  0  0  0
  187.8940  176.9180  147.8610 C   0  0  0  0  0  1  0  0  0  0  0  0
  186.4000  176.9540  145.8790 C   0  0  1  0  0  3  0  0  0  0  0  0
  186.3660  178.8270  147.3070 C   0  0  1  0  0  3  0  0  0  0  0  0
  185.9290  179.7370  146.1760 C   0  0  0  0  0  2  0  0  0  0  0  0
  185.0880  177.7060  146.1340 C   0  0  1  0  0  3  0  0  0  0  0  0
  186.7280  176.9650  144.5170 O   0  0  0  0  0  1  0  0  0  0  0  0
  1 14  1  0  0  0  0
  2 10  1  0  0  0  0
  3 38  1  6  0  0  0
  3 15  1  0  0  0  0
  3 11  1  0  0  0  0
  4 14  2  0  0  0  0
  5  8  1  0  0  0  0
  6  1  2  0  0  0  0
  7  5  1  0  0  0  0
  8  4  1  6  0  0  0
  9  7  1  0  0  0  0
 10  7  2  0  0  0  0
 10 13  1  0  0  0  0
 11 15  1  6  0  0  0
 11  2  1  0  0  0  0
 11  9  1  0  0  0  0
 12  8  1  0  0  0  0
 12  6  1  0  0  0  0
 13 12  2  0  0  0  0
 14 44  1  0  0  0  0
 16 22  1  0  0  0  0
 17 19  2  0  0  0  0
 18 17  1  0  0  0  0
 19 22  1  0  0  0  0
 19 13  1  0  0  0  0
 20 18  2  0  0  0  0
 21 18  1  0  0  0  0
 21 16  2  0  0  0  0
 24 23  2  0  0  0  0
 24 21  1  0  0  0  0
 25 26  2  0  0  0  0
 26 29  1  0  0  0  0
 26 23  1  0  0  0  0
 27 33  2  0  0  0  0
 28 32  1  0  0  0  0
 28 27  1  0  0  0  0
 29 31  1  0  0  0  0
 30 33  1  0  0  0  0
 30 31  1  0  0  0  0
 30 36  1  1  0  0  0
 34 32  1  0  0  0  0
 34 29  2  0  0  0  0
 36 37  1  6  0  0  0
 36 35  1  0  0  0  0
 40 38  1  0  0  0  0
 40 39  1  1  0  0  0
 40 41  1  0  0  0  0
 41 42  1  0  0  0  0
 42 43  1  0  0  0  0
 44 45  1  0  0  0  0
 46 45  1  0  0  0  0
 46 48  1  0  0  0  0
 48 52  1  0  0  0  0
 48 50  1  1  0  0  0
 49 53  1  0  0  0  0
 51 55  1  6  0  0  0
 51 54  1  0  0  0  0
 51 48  1  0  0  0  0
 52 53  1  6  0  0  0
 52 47  1  0  0  0  0
 54 49  1  6  0  0  0
 54 47  1  0  0  0  0
M  END
>  <MODEL>
8

>  <REMARK>
 VINA RESULT:      -8.0      3.689      8.499
  Name = 
  13 active torsions:
  status: ('A' for Active; 'I' for Inactive)
    1  A    between atoms: C_1  and  C_5
    2  A    between atoms: C_1  and  C_48
    3  A    between atoms: C_11  and  C_38
    4  A    between atoms: O_14  and  N_23
    5  A    between atoms: O_14  and  C_46
    6  A    between atoms: C_18  and  C_44
    7  A    between atoms: C_20  and  C_24
    8  A    between atoms: C_22  and  C_37
    9  A    between atoms: N_23  and  C_37
   10  A    between atoms: N_28  and  C_35
   11  A    between atoms: N_28  and  C_48
   12  A    between atoms: C_32  and  C_39
   13  A    between atoms: N_36  and  C_38
                            x       y       z     vdW  Elec       q    Type
                         _______ _______ _______ _____ _____    ______ ____

>  <TORSDO>
F 13

$$$$
=
 OpenBabel10232407473D

 55 62  0  0  1  0  0  0  0  0999 V2000
  189.2870  177.5690  136.4480 C   0  0  0  0  0  3  0  0  0  0  0  0
  182.9260  177.4750  136.8390 C   0  0  0  0  0  2  0  0  0  0  0  0
  180.6830  177.6010  135.3610 C   0  0  1  0  0  3  0  0  0  0  0  0
  187.9710  177.1800  134.4250 C   0  0  0  0  0  3  0  0  0  0  0  0
  185.6110  177.1660  134.3460 O   0  0  0  0  0  0  0  0  0  0  0  0
  188.0510  177.8370  137.2650 C   0  0  0  0  0  3  0  0  0  0  0  0
  184.3880  177.2460  135.0160 C   0  0  0  0  0  0  0  0  0  0  0  0
  186.8060  177.3000  135.0600 C   0  0  1  0  0  3  0  0  0  0  0  0
  183.0660  177.0910  134.3590 C   0  0  0  0  0  2  0  0  0  0  0  0
  184.3250  177.4630  136.3270 C   0  0  0  0  0  0  0  0  0  0  0  0
  182.1490  177.2480  135.5530 C   0  0  1  0  0  0  0  0  0  0  0  0
  186.7620  177.5610  136.5250 C   0  0  0  0  0  0  0  0  0  0  0  0
  185.5560  177.6390  137.1420 C   0  0  0  0  0  0  0  0  0  0  0  0
  189.2570  177.2880  135.1430 C   0  0  0  0  0  0  0  0  0  0  0  0
  181.1010  176.1650  135.6560 C   0  0  0  0  0  2  0  0  0  0  0  0
  184.0360  178.1830  140.6960 C   0  0  0  0  0  3  0  0  0  0  0  0
  186.5180  178.2820  139.2900 C   0  0  0  0  0  3  0  0  0  0  0  0
  186.4350  178.5620  140.7270 C   0  0  0  0  0  0  0  0  0  0  0  0
  185.4340  177.9190  138.5920 C   0  0  0  0  0  0  0  0  0  0  0  0
  187.4890  178.8120  141.3680 O   0  0  0  0  0  0  0  0  0  0  0  0
  185.1100  178.5680  141.3890 C   0  0  0  0  0  0  0  0  0  0  0  0
  184.1120  177.6650  139.2820 C   0  0  0  0  0  2  0  0  0  0  0  0
  185.6290  178.5780  143.7510 N   0  0  0  0  0  0  0  0  0  0  0  0
  184.9060  179.0200  142.7730 C   0  0  0  0  0  3  0  0  0  0  0  0
  184.5870  179.8970  145.3760 O   0  0  0  0  0  0  0  0  0  0  0  0
  185.4400  179.0060  145.1040 C   0  0  0  0  0  0  0  0  0  0  0  0
  189.3860  177.5930  147.9380 C   0  0  0  0  0  3  0  0  0  0  0  0
  188.5120  178.6550  148.3280 N   0  0  0  0  0  2  0  0  0  0  0  0
  186.2440  178.3960  146.1800 C   0  0  0  0  0  0  0  0  0  0  0  0
  188.4730  177.4860  145.6090 C   0  0  1  0  0  3  0  0  0  0  0  0
  187.0140  177.1420  145.8960 C   0  0  0  0  0  2  0  0  0  0  0  0
  187.0880  178.4360  148.5300 C   0  0  0  0  0  2  0  0  0  0  0  0
  189.3640  177.0380  146.7250 C   0  0  0  0  0  3  0  0  0  0  0  0
  186.2980  178.9780  147.3820 C   0  0  0  0  0  3  0  0  0  0  0  0
  187.8730  176.5420  143.4690 O   0  0  0  0  0  1  0  0  0  0  0  0
  188.9510  176.8820  144.2890 C   0  0  1  0  0  3  0  0  0  0  0  0
  189.8230  177.8130  143.5940 N   0  0  0  0  0  1  0  0  0  0  0  0
  180.0790  178.2240  136.6110 C   0  0  0  0  0  2  0  0  0  0  0  0
  180.4750  180.2050  135.1190 C   0  0  0  0  0  1  0  0  0  0  0  0
  180.1320  179.7460  136.5280 C   0  0  2  0  0  3  0  0  0  0  0  0
  181.0350  180.3300  137.5260 N   0  0  0  0  0  2  0  0  0  0  0  0
  180.8760  181.7800  137.5850 C   0  0  0  0  0  2  0  0  0  0  0  0
  181.9930  182.3760  138.4140 C   0  0  0  0  0  1  0  0  0  0  0  0
  190.4650  177.0880  134.4710 O   0  0  0  0  0  0  0  0  0  0  0  0
  191.1690  175.9060  134.5770 N   0  0  0  0  0  2  0  0  0  0  0  0
  192.3820  176.1900  135.3340 C   0  0  0  0  0  2  0  0  0  0  0  0
  194.2780  173.5660  137.0480 O   0  0  0  0  0  0  0  0  0  0  0  0
  192.6960  175.0510  136.3200 C   0  0  2  0  0  0  0  0  0  0  0  0
  195.4820  175.4360  136.7810 O   0  0  0  0  0  0  0  0  0  0  0  0
  191.4370  174.2350  136.5720 C   0  0  0  0  0  1  0  0  0  0  0  0
  193.2560  175.5200  137.6670 C   0  0  1  0  0  3  0  0  0  0  0  0
  193.8380  174.1270  135.8580 C   0  0  1  0  0  3  0  0  0  0  0  0
  195.0390  174.9890  135.5240 C   0  0  0  0  0  2  0  0  0  0  0  0
  194.5970  174.7760  137.6670 C   0  0  1  0  0  3  0  0  0  0  0  0
  193.4520  176.9060  137.7330 O   0  0  0  0  0  1  0  0  0  0  0  0
  1  6  2  0  0  0  0
  3 11  1  0  0  0  0
  3 15  1  0  0  0  0
  3 38  1  1  0  0  0
  4 14  2  0  0  0  0
  5  7  1  0  0  0  0
  5  8  1  0  0  0  0
  7 10  2  0  0  0  0
  8  4  1  1  0  0  0
  8 12  1  0  0  0  0
  9  7  1  0  0  0  0
 10  2  1  0  0  0  0
 10 13  1  0  0  0  0
 11  9  1  6  0  0  0
 11 15  1  0  0  0  0
 11  2  1  0  0  0  0
 12 13  2  0  0  0  0
 12  6  1  0  0  0  0
 13 19  1  0  0  0  0
 14  1  1  0  0  0  0
 16 21  2  0  0  0  0
 17 18  1  0  0  0  0
 18 20  2  0  0  0  0
 18 21  1  0  0  0  0
 19 22  1  0  0  0  0
 19 17  2  0  0  0  0
 21 24  1  0  0  0  0
 22 16  1  0  0  0  0
 23 26  1  0  0  0  0
 24 23  2  0  0  0  0
 26 25  2  0  0  0  0
 26 29  1  0  0  0  0
 27 28  1  0  0  0  0
 28 32  1  0  0  0  0
 29 34  2  0  0  0  0
 30 36  1  6  0  0  0
 30 31  1  0  0  0  0
 30 33  1  0  0  0  0
 31 29  1  0  0  0  0
 33 27  2  0  0  0  0
 34 32  1  0  0  0  0
 36 35  1  6  0  0  0
 37 36  1  0  0  0  0
 40 39  1  6  0  0  0
 40 38  1  0  0  0  0
 40 41  1  0  0  0  0
 41 42  1  0  0  0  0
 42 43  1  0  0  0  0
 44 45  1  0  0  0  0
 44 14  1  0  0  0  0
 45 46  1  0  0  0  0
 46 48  1  0  0  0  0
 47 54  1  0  0  0  0
 48 50  1  1  0  0  0
 48 51  1  0  0  0  0
 51 54  1  0  0  0  0
 51 55  1  6  0  0  0
 52 53  1  1  0  0  0
 52 48  1  0  0  0  0
 52 47  1  0  0  0  0
 53 49  1  0  0  0  0
 54 49  1  6  0  0  0
M  END
>  <MODEL>
9

>  <REMARK>
 VINA RESULT:      -7.7      2.755     11.570
  Name = 
  13 active torsions:
  status: ('A' for Active; 'I' for Inactive)
    1  A    between atoms: C_1  and  C_5
    2  A    between atoms: C_1  and  C_48
    3  A    between atoms: C_11  and  C_38
    4  A    between atoms: O_14  and  N_23
    5  A    between atoms: O_14  and  C_46
    6  A    between atoms: C_18  and  C_44
    7  A    between atoms: C_20  and  C_24
    8  A    between atoms: C_22  and  C_37
    9  A    between atoms: N_23  and  C_37
   10  A    between atoms: N_28  and  C_35
   11  A    between atoms: N_28  and  C_48
   12  A    between atoms: C_32  and  C_39
   13  A    between atoms: N_36  and  C_38
                            x       y       z     vdW  Elec       q    Type
                         _______ _______ _______ _____ _____    ______ ____

>  <TORSDO>
F 13

$$$$
