=
 OpenBabel10232409183D

 30 33  0  0  1  0  0  0  0  0999 V2000
  185.5440  178.5720  147.4190 N   0  0  0  0  0  0  0  0  0  0  0  0
  190.3680  177.6140  146.7000 C   0  0  0  0  0  2  0  0  0  0  0  0
  191.5780  176.4670  144.9660 N   0  0  0  0  0  0  0  0  0  0  0  0
  186.3620  178.2350  145.2840 C   0  0  0  0  0  0  0  0  0  0  0  0
  188.7660  177.7410  144.7790 C   0  0  0  0  0  0  0  0  0  0  0  0
  184.5800  178.6810  146.5910 N   0  0  0  0  0  0  0  0  0  0  0  0
  187.3700  177.9720  144.2130 C   0  0  0  0  0  2  0  0  0  0  0  0
  189.7490  177.4930  143.8000 O   0  0  0  0  0  0  0  0  0  0  0  0
  191.0670  177.0030  143.8970 C   0  0  0  0  0  0  0  0  0  0  0  0
  186.7080  178.2900  146.6640 C   0  0  0  0  0  0  0  0  0  0  0  0
  190.8970  176.2820  146.2320 C   0  0  1  0  0  3  0  0  0  0  0  0
  185.0550  178.4790  145.2510 C   0  0  0  0  0  0  0  0  0  0  0  0
  189.0150  177.8130  146.1230 C   0  0  0  0  0  0  0  0  0  0  0  0
  187.9400  178.0990  147.1060 C   0  0  0  0  0  3  0  0  0  0  0  0
  183.8340  178.3350  141.6610 C   0  0  0  0  0  3  0  0  0  0  0  0
  184.6760  178.2650  142.7740 C   0  0  0  0  0  3  0  0  0  0  0  0
  181.9920  178.9670  143.0980 C   0  0  0  0  0  3  0  0  0  0  0  0
  182.8360  178.8970  144.2100 C   0  0  0  0  0  3  0  0  0  0  0  0
  184.1840  178.5460  144.0590 C   0  0  0  0  0  0  0  0  0  0  0  0
  182.4910  178.6860  141.8240 C   0  0  0  0  0  3  0  0  0  0  0  0
  191.8460  175.7140  147.2390 C   0  0  0  0  0  3  0  0  0  0  0  0
  192.3990  176.4320  148.0570 O   0  0  0  0  0  0  0  0  0  0  0  0
  191.9260  177.1000  142.6890 C   0  0  0  0  0  2  0  0  0  0  0  0
  191.2270  177.8380  141.6500 N   0  0  0  0  0  2  0  0  0  0  0  0
  191.6470  177.2840  140.3750 C   0  0  0  0  0  2  0  0  0  0  0  0
  190.4330  176.8250  139.5870 C   0  0  0  0  0  2  0  0  0  0  0  0
  189.1540  177.2960  140.2610 C   0  0  0  0  0  2  0  0  0  0  0  0
  188.2720  178.0620  139.2880 C   0  0  0  0  0  3  0  0  0  0  0  0
  187.1800  178.5930  139.9740 O   0  0  0  0  0  1  0  0  0  0  0  0
  188.9980  179.0980  138.7030 O   0  0  0  0  0  1  0  0  0  0  0  0
  3 11  1  0  0  0  0
  4 10  1  0  0  0  0
  5 13  2  0  0  0  0
  6  1  2  0  0  0  0
  7  5  1  0  0  0  0
  7  4  1  0  0  0  0
  8  9  1  0  0  0  0
  8  5  1  0  0  0  0
  9  3  2  0  0  0  0
 10 14  2  0  0  0  0
 10  1  1  0  0  0  0
 11  2  1  0  0  0  0
 11 21  1  1  0  0  0
 12  4  2  0  0  0  0
 12  6  1  0  0  0  0
 13  2  1  0  0  0  0
 13 14  1  0  0  0  0
 15 20  2  0  0  0  0
 15 16  1  0  0  0  0
 16 19  2  0  0  0  0
 17 18  2  0  0  0  0
 19 18  1  0  0  0  0
 19 12  1  0  0  0  0
 20 17  1  0  0  0  0
 21 22  2  0  0  0  0
 23  9  1  0  0  0  0
 24 23  1  0  0  0  0
 25 24  1  0  0  0  0
 26 27  1  0  0  0  0
 26 25  1  0  0  0  0
 28 29  1  0  0  0  0
 28 27  1  0  0  0  0
 30 28  1  0  0  0  0
M  END
>  <MODEL>
1

>  <REMARK>
 VINA RESULT:      -9.5      0.000      0.000
  Name = 
  8 active torsions:
  status: ('A' for Active; 'I' for Inactive)
    1  A    between atoms: C_6  and  N_15
    2  A    between atoms: C_6  and  C_20
    3  A    between atoms: C_10  and  CA_23
    4  A    between atoms: C_14  and  C_25
    5  A    between atoms: N_15  and  C_19
    6  A    between atoms: C_18  and  C_19
    7  A    between atoms: C_18  and  C_21
    8  A    between atoms: C_21  and  C_24
                            x       y       z     vdW  Elec       q    Type
                         _______ _______ _______ _____ _____    ______ ____

>  <TORSDO>
F 8

$$$$
=
 OpenBabel10232409183D

 30 33  0  0  1  0  0  0  0  0999 V2000
  190.4160  176.7400  144.7010 N   0  0  0  0  0  0  0  0  0  0  0  0
  191.6050  177.1720  139.8940 C   0  0  0  0  0  2  0  0  0  0  0  0
  190.3060  177.1610  137.8690 N   0  0  0  0  0  0  0  0  0  0  0  0
  188.8680  177.5360  143.1810 C   0  0  0  0  0  0  0  0  0  0  0  0
  189.3310  177.8010  140.7340 C   0  0  0  0  0  0  0  0  0  0  0  0
  189.3340  177.0040  145.3220 N   0  0  0  0  0  2  0  0  0  0  0  0
  188.3200  177.9710  141.8610 C   0  0  0  0  0  3  0  0  0  0  0  0
  188.8560  178.2040  139.4690 O   0  0  0  0  0  0  0  0  0  0  0  0
  189.3550  177.9950  138.1680 C   0  0  0  0  0  0  0  0  0  0  0  0
  190.1970  177.0530  143.3370 C   0  0  0  0  0  0  0  0  0  0  0  0
  191.0170  176.3110  138.8050 C   0  0  1  0  0  3  0  0  0  0  0  0
  188.3480  177.5040  144.4050 C   0  0  0  0  0  0  0  0  0  0  0  0
  190.5940  177.3290  140.9690 C   0  0  0  0  0  0  0  0  0  0  0  0
  191.0450  176.9380  142.3280 C   0  0  0  0  0  3  0  0  0  0  0  0
  184.6820  178.4750  144.2810 C   0  0  0  0  0  3  0  0  0  0  0  0
  185.9620  178.0920  143.8720 C   0  0  0  0  0  3  0  0  0  0  0  0
  185.4280  178.4960  146.5840 C   0  0  0  0  0  3  0  0  0  0  0  0
  186.7080  178.1140  146.1720 C   0  0  0  0  0  3  0  0  0  0  0  0
  186.9870  177.9080  144.8140 C   0  0  0  0  0  0  0  0  0  0  0  0
  184.4150  178.6760  145.6380 C   0  0  0  0  0  3  0  0  0  0  0  0
  192.0970  175.5630  138.0900 C   0  0  0  0  0  3  0  0  0  0  0  0
  193.1800  176.0820  137.8650 O   0  0  0  0  0  0  0  0  0  0  0  0
  188.7420  178.7760  137.0630 C   0  0  0  0  0  2  0  0  0  0  0  0
  187.3580  179.0780  137.3890 N   0  0  0  0  0  2  0  0  0  0  0  0
  186.5630  177.9350  136.9770 C   0  0  0  0  0  2  0  0  0  0  0  0
  185.2220  177.9550  137.6920 C   0  0  0  0  0  2  0  0  0  0  0  0
  185.4210  178.1520  139.1860 C   0  0  0  0  0  2  0  0  0  0  0  0
  184.4380  179.1710  139.7400 C   0  0  0  0  0  3  0  0  0  0  0  0
  184.8460  179.5610  141.0150 O   0  0  0  0  0  1  0  0  0  0  0  0
  184.3930  180.2890  138.9070 O   0  0  0  0  0  1  0  0  0  0  0  0
  1  6  1  0  0  0  0
  2 13  1  0  0  0  0
  3  9  2  0  0  0  0
  3 11  1  0  0  0  0
  4 10  1  0  0  0  0
  4 12  2  0  0  0  0
  5 13  1  0  0  0  0
  5  7  2  0  0  0  0
  7  4  1  0  0  0  0
  8  5  1  0  0  0  0
  9  8  1  0  0  0  0
 10  1  2  0  0  0  0
 11 21  1  6  0  0  0
 11  2  1  0  0  0  0
 12 19  1  0  0  0  0
 12  6  1  0  0  0  0
 13 14  2  0  0  0  0
 14 10  1  0  0  0  0
 15 20  1  0  0  0  0
 16 15  2  0  0  0  0
 16 19  1  0  0  0  0
 18 17  1  0  0  0  0
 19 18  2  0  0  0  0
 20 17  2  0  0  0  0
 22 21  2  0  0  0  0
 23 24  1  0  0  0  0
 23  9  1  0  0  0  0
 25 24  1  0  0  0  0
 25 26  1  0  0  0  0
 26 27  1  0  0  0  0
 27 28  1  0  0  0  0
 28 29  1  0  0  0  0
 30 28  1  0  0  0  0
M  END
>  <MODEL>
2

>  <REMARK>
 VINA RESULT:      -8.8      2.924      5.445
  Name = 
  8 active torsions:
  status: ('A' for Active; 'I' for Inactive)
    1  A    between atoms: C_6  and  N_15
    2  A    between atoms: C_6  and  C_20
    3  A    between atoms: C_10  and  CA_23
    4  A    between atoms: C_14  and  C_25
    5  A    between atoms: N_15  and  C_19
    6  A    between atoms: C_18  and  C_19
    7  A    between atoms: C_18  and  C_21
    8  A    between atoms: C_21  and  C_24
                            x       y       z     vdW  Elec       q    Type
                         _______ _______ _______ _____ _____    ______ ____

>  <TORSDO>
F 8

$$$$
=
 OpenBabel10232409183D

 30 33  0  0  1  0  0  0  0  0999 V2000
  183.3670  178.8920  145.4140 N   0  0  0  0  0  0  0  0  0  0  0  0
  183.0670  178.8410  140.4530 C   0  0  0  0  0  2  0  0  0  0  0  0
  184.6700  179.2380  138.7030 N   0  0  0  0  0  0  0  0  0  0  0  0
  185.2440  178.4690  144.1350 C   0  0  0  0  0  0  0  0  0  0  0  0
  185.2370  178.4180  141.6300 C   0  0  0  0  0  0  0  0  0  0  0  0
  184.3570  178.7010  146.1940 N   0  0  0  0  0  2  0  0  0  0  0  0
  186.0610  178.2540  142.9010 C   0  0  0  0  0  3  0  0  0  0  0  0
  185.9690  178.2190  140.4420 O   0  0  0  0  0  0  0  0  0  0  0  0
  185.6680  178.5040  139.0950 C   0  0  0  0  0  0  0  0  0  0  0  0
  183.8520  178.7610  144.0900 C   0  0  0  0  0  0  0  0  0  0  0  0
  183.6990  179.8830  139.5650 C   0  0  1  0  0  3  0  0  0  0  0  0
  185.5440  178.4330  145.4300 C   0  0  0  0  0  0  0  0  0  0  0  0
  183.8980  178.6970  141.6740 C   0  0  0  0  0  0  0  0  0  0  0  0
  183.1760  178.8760  142.9590 C   0  0  0  0  0  3  0  0  0  0  0  0
  189.1920  177.4870  145.8670 C   0  0  0  0  0  3  0  0  0  0  0  0
  187.9540  177.7360  145.2680 C   0  0  0  0  0  3  0  0  0  0  0  0
  188.2670  178.0860  148.0220 C   0  0  0  0  0  3  0  0  0  0  0  0
  187.0290  178.3340  147.4210 C   0  0  0  0  0  3  0  0  0  0  0  0
  186.8620  178.1630  146.0400 C   0  0  0  0  0  0  0  0  0  0  0  0
  189.3480  177.6620  147.2440 C   0  0  0  0  0  3  0  0  0  0  0  0
  182.6560  180.5620  138.7340 C   0  0  0  0  0  3  0  0  0  0  0  0
  181.8990  179.9180  138.0250 O   0  0  0  0  0  0  0  0  0  0  0  0
  186.5620  177.9330  138.0550 C   0  0  0  0  0  2  0  0  0  0  0  0
  187.9290  178.3630  138.2970 N   0  0  0  0  0  2  0  0  0  0  0  0
  188.6540  177.2150  138.8120 C   0  0  0  0  0  2  0  0  0  0  0  0
  189.6390  177.6630  139.8770 C   0  0  0  0  0  2  0  0  0  0  0  0
  189.2270  177.1290  141.2390 C   0  0  0  0  0  2  0  0  0  0  0  0
  190.4400  176.6870  142.0440 C   0  0  0  0  0  3  0  0  0  0  0  0
  190.9090  177.7610  142.8000 O   0  0  0  0  0  1  0  0  0  0  0  0
  190.0880  175.6410  142.8970 O   0  0  0  0  0  1  0  0  0  0  0  0
  1  6  1  0  0  0  0
  2 13  1  0  0  0  0
  3  9  2  0  0  0  0
  3 11  1  0  0  0  0
  4 12  2  0  0  0  0
  5 13  1  0  0  0  0
  5  7  2  0  0  0  0
  7  4  1  0  0  0  0
  8  5  1  0  0  0  0
  9  8  1  0  0  0  0
 10  4  1  0  0  0  0
 10  1  2  0  0  0  0
 11 21  1  6  0  0  0
 11  2  1  0  0  0  0
 12 19  1  0  0  0  0
 12  6  1  0  0  0  0
 13 14  2  0  0  0  0
 14 10  1  0  0  0  0
 15 20  1  0  0  0  0
 16 15  2  0  0  0  0
 16 19  1  0  0  0  0
 18 17  1  0  0  0  0
 19 18  2  0  0  0  0
 20 17  2  0  0  0  0
 22 21  2  0  0  0  0
 23 24  1  0  0  0  0
 23  9  1  0  0  0  0
 24 25  1  0  0  0  0
 25 26  1  0  0  0  0
 26 27  1  0  0  0  0
 27 28  1  0  0  0  0
 28 29  1  0  0  0  0
 28 30  1  0  0  0  0
M  END
>  <MODEL>
3

>  <REMARK>
 VINA RESULT:      -8.8      2.410      6.640
  Name = 
  8 active torsions:
  status: ('A' for Active; 'I' for Inactive)
    1  A    between atoms: C_6  and  N_15
    2  A    between atoms: C_6  and  C_20
    3  A    between atoms: C_10  and  CA_23
    4  A    between atoms: C_14  and  C_25
    5  A    between atoms: N_15  and  C_19
    6  A    between atoms: C_18  and  C_19
    7  A    between atoms: C_18  and  C_21
    8  A    between atoms: C_21  and  C_24
                            x       y       z     vdW  Elec       q    Type
                         _______ _______ _______ _____ _____    ______ ____

>  <TORSDO>
F 8

$$$$
=
 OpenBabel10232409183D

 30 33  0  0  1  0  0  0  0  0999 V2000
  191.8660  176.9610  142.8580 N   0  0  0  0  0  0  0  0  0  0  0  0
  189.4760  177.7760  138.5780 C   0  0  0  0  0  2  0  0  0  0  0  0
  187.1730  177.5690  137.9130 N   0  0  0  0  0  0  0  0  0  0  0  0
  189.6140  177.4790  142.8590 C   0  0  0  0  0  0  0  0  0  0  0  0
  188.2870  177.9090  140.7780 C   0  0  0  0  0  0  0  0  0  0  0  0
  191.4530  176.9820  144.0650 N   0  0  0  0  0  2  0  0  0  0  0  0
  188.2750  177.8370  142.3000 C   0  0  0  0  0  3  0  0  0  0  0  0
  187.0420  178.2490  140.2090 O   0  0  0  0  0  0  0  0  0  0  0  0
  186.5670  178.1860  138.8840 C   0  0  0  0  0  0  0  0  0  0  0  0
  190.7560  177.2670  142.0350 C   0  0  0  0  0  0  0  0  0  0  0  0
  188.4280  176.8510  138.0140 C   0  0  1  0  0  3  0  0  0  0  0  0
  190.0530  177.3040  144.1020 C   0  0  0  0  0  0  0  0  0  0  0  0
  189.4300  177.6930  140.0590 C   0  0  0  0  0  0  0  0  0  0  0  0
  190.7180  177.3570  140.7160 C   0  0  0  0  0  3  0  0  0  0  0  0
  187.1630  177.6520  146.5350 C   0  0  0  0  0  3  0  0  0  0  0  0
  187.8780  177.5510  145.3390 C   0  0  0  0  0  3  0  0  0  0  0  0
  189.2300  177.4810  147.7820 C   0  0  0  0  0  3  0  0  0  0  0  0
  189.9440  177.3800  146.5850 C   0  0  0  0  0  3  0  0  0  0  0  0
  189.2750  177.4130  145.3530 C   0  0  0  0  0  0  0  0  0  0  0  0
  187.8400  177.6170  147.7570 C   0  0  0  0  0  3  0  0  0  0  0  0
  188.8390  176.3580  136.6630 C   0  0  0  0  0  3  0  0  0  0  0  0
  189.2920  175.2330  136.5140 O   0  0  0  0  0  0  0  0  0  0  0  0
  185.2800  178.8630  138.5830 C   0  0  0  0  0  2  0  0  0  0  0  0
  184.8010  179.5520  139.7700 N   0  0  0  0  0  2  0  0  0  0  0  0
  183.5840  178.8810  140.1910 C   0  0  0  0  0  2  0  0  0  0  0  0
  183.8360  178.1180  141.4800 C   0  0  0  0  0  2  0  0  0  0  0  0
  184.4340  179.0370  142.5320 C   0  0  0  0  0  2  0  0  0  0  0  0
  184.0230  178.6080  143.9320 C   0  0  0  0  0  3  0  0  0  0  0  0
  184.7310  179.3560  144.8710 O   0  0  0  0  0  1  0  0  0  0  0  0
  182.6560  178.8170  144.1110 O   0  0  0  0  0  1  0  0  0  0  0  0
  1  6  1  0  0  0  0
  2 13  1  0  0  0  0
  3 11  1  0  0  0  0
  3  9  2  0  0  0  0
  4 12  2  0  0  0  0
  5  7  2  0  0  0  0
  6 12  1  0  0  0  0
  7  4  1  0  0  0  0
  8  5  1  0  0  0  0
  9  8  1  0  0  0  0
 10  1  2  0  0  0  0
 10  4  1  0  0  0  0
 11 21  1  6  0  0  0
 11  2  1  0  0  0  0
 12 19  1  0  0  0  0
 13 14  2  0  0  0  0
 13  5  1  0  0  0  0
 14 10  1  0  0  0  0
 15 20  1  0  0  0  0
 16 19  1  0  0  0  0
 16 15  2  0  0  0  0
 18 17  1  0  0  0  0
 19 18  2  0  0  0  0
 20 17  2  0  0  0  0
 22 21  2  0  0  0  0
 23  9  1  0  0  0  0
 23 24  1  0  0  0  0
 24 25  1  0  0  0  0
 25 26  1  0  0  0  0
 26 27  1  0  0  0  0
 27 28  1  0  0  0  0
 28 30  1  0  0  0  0
 28 29  1  0  0  0  0
M  END
>  <MODEL>
4

>  <REMARK>
 VINA RESULT:      -8.5      2.839      7.153
  Name = 
  8 active torsions:
  status: ('A' for Active; 'I' for Inactive)
    1  A    between atoms: C_6  and  N_15
    2  A    between atoms: C_6  and  C_20
    3  A    between atoms: C_10  and  CA_23
    4  A    between atoms: C_14  and  C_25
    5  A    between atoms: N_15  and  C_19
    6  A    between atoms: C_18  and  C_19
    7  A    between atoms: C_18  and  C_21
    8  A    between atoms: C_21  and  C_24
                            x       y       z     vdW  Elec       q    Type
                         _______ _______ _______ _____ _____    ______ ____

>  <TORSDO>
F 8

$$$$
=
 OpenBabel10232409183D

 30 33  0  0  1  0  0  0  0  0999 V2000
  182.4940  178.9980  144.2070 N   0  0  0  0  0  0  0  0  0  0  0  0
  186.8610  178.6250  146.5510 C   0  0  0  0  0  2  0  0  0  0  0  0
  188.8730  177.3860  146.0960 N   0  0  0  0  0  0  0  0  0  0  0  0
  184.4030  178.4280  143.0360 C   0  0  0  0  0  0  0  0  0  0  0  0
  186.6640  178.2010  144.0910 C   0  0  0  0  0  0  0  0  0  0  0  0
  182.1850  178.8300  142.9820 N   0  0  0  0  0  0  0  0  0  0  0  0
  185.8490  178.1340  142.8040 C   0  0  0  0  0  2  0  0  0  0  0  0
  188.0370  177.9330  143.9160 O   0  0  0  0  0  0  0  0  0  0  0  0
  189.0650  177.6580  144.8400 C   0  0  0  0  0  0  0  0  0  0  0  0
  183.8850  178.7610  144.3200 C   0  0  0  0  0  0  0  0  0  0  0  0
  187.5880  177.3210  146.7650 C   0  0  1  0  0  3  0  0  0  0  0  0
  183.3520  178.4750  142.2220 C   0  0  0  0  0  0  0  0  0  0  0  0
  186.0890  178.5310  145.2870 C   0  0  0  0  0  0  0  0  0  0  0  0
  184.6380  178.8230  145.4060 C   0  0  0  0  0  3  0  0  0  0  0  0
  182.8660  176.7750  138.8660 C   0  0  0  0  0  3  0  0  0  0  0  0
  182.8780  176.9960  140.2450 C   0  0  0  0  0  3  0  0  0  0  0  0
  183.7590  178.9960  138.5050 C   0  0  0  0  0  3  0  0  0  0  0  0
  183.7710  179.2150  139.8860 C   0  0  0  0  0  3  0  0  0  0  0  0
  183.3300  178.2180  140.7680 C   0  0  0  0  0  0  0  0  0  0  0  0
  183.3070  177.7760  137.9960 C   0  0  0  0  0  3  0  0  0  0  0  0
  187.7900  177.0700  148.2250 C   0  0  0  0  0  3  0  0  0  0  0  0
  188.0620  177.9830  148.9900 O   0  0  0  0  0  0  0  0  0  0  0  0
  190.4620  177.6710  144.3360 C   0  0  0  0  0  2  0  0  0  0  0  0
  190.4790  178.1210  142.9540 N   0  0  0  0  0  2  0  0  0  0  0  0
  191.0650  177.0520  142.1640 C   0  0  0  0  0  2  0  0  0  0  0  0
  190.2970  176.8910  140.8640 C   0  0  0  0  0  2  0  0  0  0  0  0
  189.0670  177.7850  140.8610 C   0  0  0  0  0  2  0  0  0  0  0  0
  188.5090  177.9430  139.4550 C   0  0  0  0  0  3  0  0  0  0  0  0
  187.2250  178.4840  139.5270 O   0  0  0  0  0  1  0  0  0  0  0  0
  189.3270  178.7930  138.7110 O   0  0  0  0  0  1  0  0  0  0  0  0
  1 10  1  0  0  0  0
  2 11  1  0  0  0  0
  3 11  1  0  0  0  0
  4 10  1  0  0  0  0
  5 13  2  0  0  0  0
  6  1  2  0  0  0  0
  7  4  1  0  0  0  0
  7  5  1  0  0  0  0
  8  5  1  0  0  0  0
  8  9  1  0  0  0  0
  9  3  2  0  0  0  0
 10 14  2  0  0  0  0
 11 21  1  1  0  0  0
 12  6  1  0  0  0  0
 12  4  2  0  0  0  0
 13 14  1  0  0  0  0
 13  2  1  0  0  0  0
 15 16  1  0  0  0  0
 16 19  2  0  0  0  0
 17 18  2  0  0  0  0
 18 19  1  0  0  0  0
 19 12  1  0  0  0  0
 20 17  1  0  0  0  0
 20 15  2  0  0  0  0
 21 22  2  0  0  0  0
 23  9  1  0  0  0  0
 24 23  1  0  0  0  0
 25 24  1  0  0  0  0
 26 25  1  0  0  0  0
 27 26  1  0  0  0  0
 28 29  1  0  0  0  0
 28 27  1  0  0  0  0
 30 28  1  0  0  0  0
M  END
>  <MODEL>
5

>  <REMARK>
 VINA RESULT:      -8.3      2.024      3.161
  Name = 
  8 active torsions:
  status: ('A' for Active; 'I' for Inactive)
    1  A    between atoms: C_6  and  N_15
    2  A    between atoms: C_6  and  C_20
    3  A    between atoms: C_10  and  CA_23
    4  A    between atoms: C_14  and  C_25
    5  A    between atoms: N_15  and  C_19
    6  A    between atoms: C_18  and  C_19
    7  A    between atoms: C_18  and  C_21
    8  A    between atoms: C_21  and  C_24
                            x       y       z     vdW  Elec       q    Type
                         _______ _______ _______ _____ _____    ______ ____

>  <TORSDO>
F 8

$$$$
=
 OpenBabel10232409183D

 30 33  0  0  1  0  0  0  0  0999 V2000
  185.3840  178.6640  147.1110 N   0  0  0  0  0  0  0  0  0  0  0  0
  190.2010  177.8140  146.2240 C   0  0  0  0  0  2  0  0  0  0  0  0
  191.3740  176.6740  144.4600 N   0  0  0  0  0  0  0  0  0  0  0  0
  186.1310  178.3190  144.9510 C   0  0  0  0  0  0  0  0  0  0  0  0
  188.5260  177.8770  144.3630 C   0  0  0  0  0  0  0  0  0  0  0  0
  184.3880  178.7380  146.3190 N   0  0  0  0  0  2  0  0  0  0  0  0
  187.1050  178.0650  143.8460 C   0  0  0  0  0  3  0  0  0  0  0  0
  189.4780  177.6390  143.3510 O   0  0  0  0  0  0  0  0  0  0  0  0
  190.8110  177.1830  143.4050 C   0  0  0  0  0  0  0  0  0  0  0  0
  186.5260  178.4000  146.3170 C   0  0  0  0  0  0  0  0  0  0  0  0
  190.7450  176.4890  145.7530 C   0  0  1  0  0  3  0  0  0  0  0  0
  184.8180  178.5300  144.9640 C   0  0  0  0  0  0  0  0  0  0  0  0
  188.8230  177.9730  145.6950 C   0  0  0  0  0  0  0  0  0  0  0  0
  187.7790  178.2450  146.7140 C   0  0  0  0  0  3  0  0  0  0  0  0
  181.6820  178.8310  142.8490 C   0  0  0  0  0  3  0  0  0  0  0  0
  182.5290  178.8070  143.9600 C   0  0  0  0  0  3  0  0  0  0  0  0
  183.5670  178.3590  141.4050 C   0  0  0  0  0  3  0  0  0  0  0  0
  184.4130  178.3350  142.5180 C   0  0  0  0  0  3  0  0  0  0  0  0
  183.9030  178.5590  143.8050 C   0  0  0  0  0  0  0  0  0  0  0  0
  182.2020  178.6070  141.5720 C   0  0  0  0  0  3  0  0  0  0  0  0
  191.7440  175.9580  146.7310 C   0  0  0  0  0  3  0  0  0  0  0  0
  192.0200  176.5750  147.7480 O   0  0  0  0  0  0  0  0  0  0  0  0
  191.6220  177.2840  142.1640 C   0  0  0  0  0  2  0  0  0  0  0  0
  190.7410  177.3420  141.0090 N   0  0  0  0  0  2  0  0  0  0  0  0
  191.5130  176.8980  139.8610 C   0  0  0  0  0  2  0  0  0  0  0  0
  190.5960  176.7120  138.6650 C   0  0  0  0  0  2  0  0  0  0  0  0
  191.4110  176.5290  137.3950 C   0  0  0  0  0  2  0  0  0  0  0  0
  191.4470  175.0680  136.9730 C   0  0  0  0  0  3  0  0  0  0  0  0
  192.7270  174.5570  137.1870 O   0  0  0  0  0  1  0  0  0  0  0  0
  190.5260  174.3350  137.7210 O   0  0  0  0  0  1  0  0  0  0  0  0
  3 11  1  0  0  0  0
  4 12  2  0  0  0  0
  4 10  1  0  0  0  0
  5 13  1  0  0  0  0
  6  1  1  0  0  0  0
  7  5  2  0  0  0  0
  7  4  1  0  0  0  0
  8  9  1  0  0  0  0
  8  5  1  0  0  0  0
  9  3  2  0  0  0  0
 10 14  1  0  0  0  0
 10  1  2  0  0  0  0
 11  2  1  0  0  0  0
 11 21  1  1  0  0  0
 12  6  1  0  0  0  0
 13  2  1  0  0  0  0
 13 14  2  0  0  0  0
 15 16  1  0  0  0  0
 17 20  1  0  0  0  0
 17 18  2  0  0  0  0
 18 19  1  0  0  0  0
 19 16  2  0  0  0  0
 19 12  1  0  0  0  0
 20 15  2  0  0  0  0
 21 22  2  0  0  0  0
 23  9  1  0  0  0  0
 24 23  1  0  0  0  0
 25 24  1  0  0  0  0
 26 25  1  0  0  0  0
 27 26  1  0  0  0  0
 28 29  1  0  0  0  0
 28 27  1  0  0  0  0
 28 30  1  0  0  0  0
M  END
>  <MODEL>
6

>  <REMARK>
 VINA RESULT:      -8.3      1.702      2.234
  Name = 
  8 active torsions:
  status: ('A' for Active; 'I' for Inactive)
    1  A    between atoms: C_6  and  N_15
    2  A    between atoms: C_6  and  C_20
    3  A    between atoms: C_10  and  CA_23
    4  A    between atoms: C_14  and  C_25
    5  A    between atoms: N_15  and  C_19
    6  A    between atoms: C_18  and  C_19
    7  A    between atoms: C_18  and  C_21
    8  A    between atoms: C_21  and  C_24
                            x       y       z     vdW  Elec       q    Type
                         _______ _______ _______ _____ _____    ______ ____

>  <TORSDO>
F 8

$$$$
=
 OpenBabel10232409183D

 30 33  0  0  1  0  0  0  0  0999 V2000
  183.3480  179.1550  145.5950 N   0  0  0  0  0  0  0  0  0  0  0  0
  181.1800  179.0080  141.1250 C   0  0  0  0  0  2  0  0  0  0  0  0
  182.0320  179.1150  138.8770 N   0  0  0  0  0  0  0  0  0  0  0  0
  184.5280  178.4230  143.7470 C   0  0  0  0  0  0  0  0  0  0  0  0
  183.5620  178.3020  141.4390 C   0  0  0  0  0  0  0  0  0  0  0  0
  184.5280  178.8410  145.9630 N   0  0  0  0  0  2  0  0  0  0  0  0
  184.7800  178.0550  142.3210 C   0  0  0  0  0  3  0  0  0  0  0  0
  183.7560  177.9640  140.0840 O   0  0  0  0  0  0  0  0  0  0  0  0
  183.0030  178.2520  138.9280 C   0  0  0  0  0  0  0  0  0  0  0  0
  183.2720  178.9160  144.2010 C   0  0  0  0  0  0  0  0  0  0  0  0
  181.5520  179.9200  139.9830 C   0  0  1  0  0  3  0  0  0  0  0  0
  185.2910  178.3800  144.8360 C   0  0  0  0  0  0  0  0  0  0  0  0
  182.3880  178.7770  141.9560 C   0  0  0  0  0  0  0  0  0  0  0  0
  182.2380  179.0980  143.3970 C   0  0  0  0  0  3  0  0  0  0  0  0
  188.7230  177.0460  143.9220 C   0  0  0  0  0  3  0  0  0  0  0  0
  187.3940  177.4610  143.8080 C   0  0  0  0  0  3  0  0  0  0  0  0
  188.6830  177.5700  146.2850 C   0  0  0  0  0  3  0  0  0  0  0  0
  187.3520  177.9840  146.1690 C   0  0  0  0  0  3  0  0  0  0  0  0
  186.6960  177.9350  144.9310 C   0  0  0  0  0  0  0  0  0  0  0  0
  189.3670  177.1010  145.1610 C   0  0  0  0  0  3  0  0  0  0  0  0
  180.3660  180.7210  139.5480 C   0  0  0  0  0  3  0  0  0  0  0  0
  180.5050  181.7630  138.9250 O   0  0  0  0  0  0  0  0  0  0  0  0
  183.3550  177.5260  137.6810 C   0  0  0  0  0  2  0  0  0  0  0  0
  184.5640  176.7480  137.8940 N   0  0  0  0  0  2  0  0  0  0  0  0
  185.4290  176.9820  136.7510 C   0  0  0  0  0  2  0  0  0  0  0  0
  186.4620  178.0410  137.0960 C   0  0  0  0  0  2  0  0  0  0  0  0
  187.6800  177.4030  137.7440 C   0  0  0  0  0  2  0  0  0  0  0  0
  188.0680  178.1340  139.0200 C   0  0  0  0  0  3  0  0  0  0  0  0
  188.9770  179.1460  138.7140 O   0  0  0  0  0  1  0  0  0  0  0  0
  186.9350  178.6950  139.6100 O   0  0  0  0  0  1  0  0  0  0  0  0
  1  6  1  0  0  0  0
  2 13  1  0  0  0  0
  3  9  2  0  0  0  0
  3 11  1  0  0  0  0
  4 10  1  0  0  0  0
  4 12  2  0  0  0  0
  5 13  1  0  0  0  0
  5  7  2  0  0  0  0
  7  4  1  0  0  0  0
  8  5  1  0  0  0  0
  9  8  1  0  0  0  0
 10  1  2  0  0  0  0
 11 21  1  6  0  0  0
 11  2  1  0  0  0  0
 12 19  1  0  0  0  0
 12  6  1  0  0  0  0
 13 14  2  0  0  0  0
 14 10  1  0  0  0  0
 15 20  1  0  0  0  0
 16 15  2  0  0  0  0
 16 19  1  0  0  0  0
 18 17  1  0  0  0  0
 19 18  2  0  0  0  0
 20 17  2  0  0  0  0
 22 21  2  0  0  0  0
 23 24  1  0  0  0  0
 23  9  1  0  0  0  0
 25 26  1  0  0  0  0
 25 24  1  0  0  0  0
 26 27  1  0  0  0  0
 27 28  1  0  0  0  0
 28 30  1  0  0  0  0
 29 28  1  0  0  0  0
M  END
>  <MODEL>
7

>  <REMARK>
 VINA RESULT:      -8.2      3.269      7.387
  Name = 
  8 active torsions:
  status: ('A' for Active; 'I' for Inactive)
    1  A    between atoms: C_6  and  N_15
    2  A    between atoms: C_6  and  C_20
    3  A    between atoms: C_10  and  CA_23
    4  A    between atoms: C_14  and  C_25
    5  A    between atoms: N_15  and  C_19
    6  A    between atoms: C_18  and  C_19
    7  A    between atoms: C_18  and  C_21
    8  A    between atoms: C_21  and  C_24
                            x       y       z     vdW  Elec       q    Type
                         _______ _______ _______ _____ _____    ______ ____

>  <TORSDO>
F 8

$$$$
=
 OpenBabel10232409183D

 30 33  0  0  1  0  0  0  0  0999 V2000
  186.3100  178.7890  139.3330 N   0  0  0  0  0  0  0  0  0  0  0  0
  190.7900  176.9230  140.4080 C   0  0  0  0  0  2  0  0  0  0  0  0
  192.1250  176.8970  142.4100 N   0  0  0  0  0  0  0  0  0  0  0  0
  186.8450  178.2150  141.5060 C   0  0  0  0  0  0  0  0  0  0  0  0
  189.0630  177.2710  142.1890 C   0  0  0  0  0  0  0  0  0  0  0  0
  185.3060  179.0360  140.0780 N   0  0  0  0  0  0  0  0  0  0  0  0
  187.6700  177.6950  142.6390 C   0  0  0  0  0  3  0  0  0  0  0  0
  189.8740  176.7690  143.2270 O   0  0  0  0  0  0  0  0  0  0  0  0
  191.2570  176.5060  143.2940 C   0  0  0  0  0  0  0  0  0  0  0  0
  187.3260  178.2650  140.1670 C   0  0  1  0  0  3  0  0  0  0  0  0
  191.8330  177.6590  141.2110 C   0  0  1  0  0  3  0  0  0  0  0  0
  185.6040  178.6890  141.4400 C   0  0  0  0  0  0  0  0  0  0  0  0
  189.4480  177.3480  140.8780 C   0  0  0  0  0  0  0  0  0  0  0  0
  188.5410  177.8680  139.8240 C   0  0  0  0  0  3  0  0  0  0  0  0
  182.3680  178.9390  143.4040 C   0  0  0  0  0  3  0  0  0  0  0  0
  183.2570  178.7840  142.3380 C   0  0  0  0  0  3  0  0  0  0  0  0
  184.2350  179.2300  144.9170 C   0  0  0  0  0  3  0  0  0  0  0  0
  185.1240  179.0760  143.8490 C   0  0  0  0  0  3  0  0  0  0  0  0
  184.6440  178.8500  142.5510 C   0  0  0  0  0  0  0  0  0  0  0  0
  182.8570  179.1620  144.6940 C   0  0  0  0  0  3  0  0  0  0  0  0
  193.0820  177.8350  140.4070 C   0  0  0  0  0  3  0  0  0  0  0  0
  193.3050  177.1370  139.4300 O   0  0  0  0  0  0  0  0  0  0  0  0
  191.7540  175.7370  144.4640 C   0  0  0  0  0  2  0  0  0  0  0  0
  191.9760  176.6390  145.5820 N   0  0  0  0  0  2  0  0  0  0  0  0
  191.2100  176.1260  146.7040 C   0  0  0  0  0  2  0  0  0  0  0  0
  190.3460  177.2300  147.2870 C   0  0  0  0  0  2  0  0  0  0  0  0
  188.9430  177.1690  146.7040 C   0  0  0  0  0  2  0  0  0  0  0  0
  187.9040  177.5860  147.7330 C   0  0  0  0  0  3  0  0  0  0  0  0
  188.5010  178.4130  148.6840 O   0  0  0  0  0  1  0  0  0  0  0  0
  186.8660  178.2760  147.1070 O   0  0  0  0  0  1  0  0  0  0  0  0
  1  6  2  0  0  0  0
  1 10  1  0  0  0  0
  2 13  1  0  0  0  0
  2 11  1  0  0  0  0
  3  9  2  0  0  0  0
  4  7  1  0  0  0  0
  5  7  2  0  0  0  0
  5  8  1  0  0  0  0
  6 12  1  0  0  0  0
  8  9  1  0  0  0  0
  9 23  1  0  0  0  0
 10 14  1  6  0  0  0
 10  4  1  0  0  0  0
 11 21  1  6  0  0  0
 11  3  1  0  0  0  0
 12  4  2  0  0  0  0
 12 19  1  0  0  0  0
 13  5  1  0  0  0  0
 14 13  2  0  0  0  0
 15 20  1  0  0  0  0
 16 19  1  0  0  0  0
 16 15  2  0  0  0  0
 18 17  1  0  0  0  0
 19 18  2  0  0  0  0
 20 17  2  0  0  0  0
 22 21  2  0  0  0  0
 23 24  1  0  0  0  0
 24 25  1  0  0  0  0
 25 26  1  0  0  0  0
 27 26  1  0  0  0  0
 27 28  1  0  0  0  0
 28 29  1  0  0  0  0
 30 28  1  0  0  0  0
M  END
>  <MODEL>
8

>  <REMARK>
 VINA RESULT:      -8.2      2.488      5.479
  Name = 
  8 active torsions:
  status: ('A' for Active; 'I' for Inactive)
    1  A    between atoms: C_6  and  N_15
    2  A    between atoms: C_6  and  C_20
    3  A    between atoms: C_10  and  CA_23
    4  A    between atoms: C_14  and  C_25
    5  A    between atoms: N_15  and  C_19
    6  A    between atoms: C_18  and  C_19
    7  A    between atoms: C_18  and  C_21
    8  A    between atoms: C_21  and  C_24
                            x       y       z     vdW  Elec       q    Type
                         _______ _______ _______ _____ _____    ______ ____

>  <TORSDO>
F 8

$$$$
=
 OpenBabel10232409183D

 30 33  0  0  1  0  0  0  0  0999 V2000
  183.3250  179.0250  145.2430 N   0  0  0  0  0  0  0  0  0  0  0  0
  182.6960  178.8910  140.3140 C   0  0  0  0  0  2  0  0  0  0  0  0
  184.2020  179.1500  138.4550 N   0  0  0  0  0  0  0  0  0  0  0  0
  185.0840  178.4580  143.8560 C   0  0  0  0  0  0  0  0  0  0  0  0
  184.9080  178.3560  141.3590 C   0  0  0  0  0  0  0  0  0  0  0  0
  184.3500  178.7880  145.9630 N   0  0  0  0  0  2  0  0  0  0  0  0
  185.8020  178.1660  142.5790 C   0  0  0  0  0  3  0  0  0  0  0  0
  185.5470  178.0860  140.1320 O   0  0  0  0  0  0  0  0  0  0  0  0
  185.1760  178.3620  138.8000 C   0  0  0  0  0  0  0  0  0  0  0  0
  183.7120  178.8360  143.8950 C   0  0  0  0  0  0  0  0  0  0  0  0
  183.3310  179.8730  139.3620 C   0  0  1  0  0  3  0  0  0  0  0  0
  185.4650  178.4300  145.1300 C   0  0  0  0  0  0  0  0  0  0  0  0
  183.5950  178.7200  141.4830 C   0  0  0  0  0  0  0  0  0  0  0  0
  182.9720  178.9710  142.8060 C   0  0  0  0  0  3  0  0  0  0  0  0
  188.3390  177.7700  147.5180 C   0  0  0  0  0  3  0  0  0  0  0  0
  187.0680  178.0970  147.0390 C   0  0  0  0  0  3  0  0  0  0  0  0
  189.1020  177.4220  145.2470 C   0  0  0  0  0  3  0  0  0  0  0  0
  187.8300  177.7490  144.7700 C   0  0  0  0  0  3  0  0  0  0  0  0
  186.8010  178.0890  145.6610 C   0  0  0  0  0  0  0  0  0  0  0  0
  189.3560  177.4330  146.6210 C   0  0  0  0  0  3  0  0  0  0  0  0
  182.2800  180.5990  138.5840 C   0  0  0  0  0  3  0  0  0  0  0  0
  181.2590  180.9960  139.1230 O   0  0  0  0  0  0  0  0  0  0  0  0
  185.9620  177.7140  137.7200 C   0  0  0  0  0  2  0  0  0  0  0  0
  187.2910  177.3890  138.2100 N   0  0  0  0  0  2  0  0  0  0  0  0
  188.2150  178.3230  137.5910 C   0  0  0  0  0  2  0  0  0  0  0  0
  189.6170  178.0960  138.1310 C   0  0  0  0  0  2  0  0  0  0  0  0
  189.5980  178.0390  139.6500 C   0  0  0  0  0  2  0  0  0  0  0  0
  190.4610  176.8990  140.1660 C   0  0  0  0  0  3  0  0  0  0  0  0
  190.4720  175.8670  139.2280 O   0  0  0  0  0  1  0  0  0  0  0  0
  191.7650  177.3470  140.3750 O   0  0  0  0  0  1  0  0  0  0  0  0
  1  6  1  0  0  0  0
  2 13  1  0  0  0  0
  3  9  2  0  0  0  0
  3 11  1  0  0  0  0
  4 10  1  0  0  0  0
  4 12  2  0  0  0  0
  5 13  1  0  0  0  0
  5  7  2  0  0  0  0
  7  4  1  0  0  0  0
  8  5  1  0  0  0  0
  9  8  1  0  0  0  0
 10  1  2  0  0  0  0
 11 21  1  6  0  0  0
 11  2  1  0  0  0  0
 12 19  1  0  0  0  0
 12  6  1  0  0  0  0
 13 14  2  0  0  0  0
 14 10  1  0  0  0  0
 16 15  1  0  0  0  0
 17 20  1  0  0  0  0
 18 17  2  0  0  0  0
 18 19  1  0  0  0  0
 19 16  2  0  0  0  0
 20 15  2  0  0  0  0
 21 22  2  0  0  0  0
 23 24  1  0  0  0  0
 23  9  1  0  0  0  0
 25 26  1  0  0  0  0
 25 24  1  0  0  0  0
 26 27  1  0  0  0  0
 27 28  1  0  0  0  0
 28 30  1  0  0  0  0
 29 28  1  0  0  0  0
M  END
>  <MODEL>
9

>  <REMARK>
 VINA RESULT:      -8.1      2.731      6.803
  Name = 
  8 active torsions:
  status: ('A' for Active; 'I' for Inactive)
    1  A    between atoms: C_6  and  N_15
    2  A    between atoms: C_6  and  C_20
    3  A    between atoms: C_10  and  CA_23
    4  A    between atoms: C_14  and  C_25
    5  A    between atoms: N_15  and  C_19
    6  A    between atoms: C_18  and  C_19
    7  A    between atoms: C_18  and  C_21
    8  A    between atoms: C_21  and  C_24
                            x       y       z     vdW  Elec       q    Type
                         _______ _______ _______ _____ _____    ______ ____

>  <TORSDO>
F 8

$$$$
