=
 OpenBabel10232411023D

 26 29  0  0  1  0  0  0  0  0999 V2000
  190.1980  176.1210  138.3750 C   0  0  0  0  0  3  0  0  0  0  0  0
  190.0410  177.2730  145.2580 C   0  0  0  0  0  0  0  0  0  0  0  0
  190.2300  176.9780  142.1080 C   0  0  2  0  0  3  0  0  0  0  0  0
  190.9760  179.6410  144.1080 O   0  0  0  0  0  1  0  0  0  0  0  0
  190.5310  176.1930  139.8110 C   0  0  0  0  0  3  0  0  0  0  0  0
  189.8080  176.9250  140.6670 C   0  0  0  0  0  0  0  0  0  0  0  0
  188.2400  178.4750  142.5290 C   0  0  1  0  0  3  0  0  0  0  0  0
  187.0790  178.4720  143.4990 C   0  0  0  0  0  2  0  0  0  0  0  0
  188.6210  177.7150  140.1820 C   0  0  0  0  0  0  0  0  0  0  0  0
  188.8230  176.9870  144.4040 C   0  0  1  0  0  3  0  0  0  0  0  0
  187.6500  177.8900  144.7950 C   0  0  2  0  0  3  0  0  0  0  0  0
  187.3550  178.2610  138.2090 O   0  0  0  0  0  0  0  0  0  0  0  0
  191.6310  178.4750  143.7050 C   0  0  2  0  0  3  0  0  0  0  0  0
  188.9550  177.2070  142.9040 C   0  0  2  0  0  3  0  0  0  0  0  0
  191.2520  178.1130  142.2690 C   0  0  0  0  0  2  0  0  0  0  0  0
  188.3190  177.6360  138.7250 C   0  0  0  0  0  0  0  0  0  0  0  0
  187.8720  178.4490  141.0510 C   0  0  0  0  0  0  0  0  0  0  0  0
  189.1660  176.7960  137.8660 C   0  0  0  0  0  3  0  0  0  0  0  0
  191.4360  177.3390  144.7060 C   0  0  0  0  0  2  0  0  0  0  0  0
  189.9010  177.3870  146.4650 O   0  0  0  0  0  0  0  0  0  0  0  0
  185.4460  178.9250  140.7590 C   0  0  0  0  0  1  0  0  0  0  0  0
  186.8170  179.2330  140.5590 O   0  0  0  0  0  0  0  0  0  0  0  0
  186.5940  177.0820  145.5320 C   0  0  0  0  0  2  0  0  0  0  0  0
  186.0500  177.8550  146.6850 C   0  0  0  0  0  0  0  0  0  0  0  0
  186.7940  178.1360  147.6610 O   0  0  0  0  0  1  0  0  0  0  0  0
  184.7340  178.2950  146.6680 O   0  0  0  0  0  0  0  0  0  0  0  0
  1  5  1  0  0  0  0
  2 20  2  0  0  0  0
  3 15  1  6  0  0  0
  3 14  1  0  0  0  0
  5  6  2  0  0  0  0
  6  3  1  0  0  0  0
  7 14  1  0  0  0  0
  7  8  1  1  0  0  0
  8 11  1  0  0  0  0
  9  6  1  0  0  0  0
  9 17  2  0  0  0  0
 10 11  1  0  0  0  0
 10  2  1  1  0  0  0
 11 23  1  6  0  0  0
 12 16  2  0  0  0  0
 13  4  1  1  0  0  0
 13 19  1  0  0  0  0
 14 10  1  0  0  0  0
 15 13  1  0  0  0  0
 16  9  1  0  0  0  0
 17  7  1  0  0  0  0
 18  1  2  0  0  0  0
 18 16  1  0  0  0  0
 19  2  1  0  0  0  0
 22 21  1  0  0  0  0
 22 17  1  0  0  0  0
 23 24  1  0  0  0  0
 24 25  1  0  0  0  0
 26 24  2  0  0  0  0
M  END
>  <MODEL>
1

>  <REMARK>
 VINA RESULT:      -8.0      0.000      0.000
  Name = 
  3 active torsions:
  status: ('A' for Active; 'I' for Inactive)
    1  A    between atoms: C_3  and  C_22
    2  A    between atoms: O_9  and  C_23
    3  A    between atoms: C_14  and  C_22
                            x       y       z     vdW  Elec       q    Type
                         _______ _______ _______ _____ _____    ______ ____

>  <TORSDO>
F 3

$$$$
=
 OpenBabel10232411023D

 26 29  0  0  1  0  0  0  0  0999 V2000
  188.9370  178.5230  148.4560 C   0  0  0  0  0  3  0  0  0  0  0  0
  191.1900  177.2610  141.9710 C   0  0  0  0  0  0  0  0  0  0  0  0
  190.1470  177.5790  144.9470 C   0  0  2  0  0  3  0  0  0  0  0  0
  190.3790  174.7910  142.9920 O   0  0  0  0  0  1  0  0  0  0  0  0
  189.7710  178.2330  147.2740 C   0  0  0  0  0  3  0  0  0  0  0  0
  189.2320  177.8950  146.0960 C   0  0  0  0  0  0  0  0  0  0  0  0
  188.0830  177.1920  143.5440 C   0  0  1  0  0  3  0  0  0  0  0  0
  187.5770  177.7010  142.2120 C   0  0  0  0  0  2  0  0  0  0  0  0
  187.7380  177.7890  145.9430 C   0  0  0  0  0  0  0  0  0  0  0  0
  190.0010  178.1330  142.3160 C   0  0  1  0  0  3  0  0  0  0  0  0
  188.8340  177.8800  141.3560 C   0  0  2  0  0  3  0  0  0  0  0  0
  185.6650  178.0050  147.1470 O   0  0  0  0  0  0  0  0  0  0  0  0
  191.2490  175.5220  143.8040 C   0  0  2  0  0  3  0  0  0  0  0  0
  189.3740  177.9480  143.6900 C   0  0  2  0  0  3  0  0  0  0  0  0
  190.5100  176.0880  145.0150 C   0  0  0  0  0  2  0  0  0  0  0  0
  186.9230  178.0710  147.1580 C   0  0  0  0  0  0  0  0  0  0  0  0
  187.1830  177.4600  144.7430 C   0  0  0  0  0  0  0  0  0  0  0  0
  187.6060  178.4460  148.4050 C   0  0  0  0  0  3  0  0  0  0  0  0
  192.0280  176.5650  143.0060 C   0  0  0  0  0  2  0  0  0  0  0  0
  191.5370  177.1710  140.8040 O   0  0  0  0  0  0  0  0  0  0  0  0
  184.9250  178.2500  144.0540 C   0  0  0  0  0  1  0  0  0  0  0  0
  185.7920  177.2960  144.6490 O   0  0  0  0  0  0  0  0  0  0  0  0
  188.6760  179.0570  140.4070 C   0  0  0  0  0  2  0  0  0  0  0  0
  188.8460  178.6190  138.9930 C   0  0  0  0  0  0  0  0  0  0  0  0
  188.9800  179.4760  138.0810 O   0  0  0  0  0  0  0  0  0  0  0  0
  188.8920  177.2670  138.6840 O   0  0  0  0  0  1  0  0  0  0  0  0
  2 19  1  0  0  0  0
  3 15  1  6  0  0  0
  3  6  1  0  0  0  0
  5  1  1  0  0  0  0
  6  5  2  0  0  0  0
  7  8  1  6  0  0  0
  7 14  1  0  0  0  0
  7 17  1  0  0  0  0
  9  6  1  0  0  0  0
  9 16  1  0  0  0  0
 10  2  1  6  0  0  0
 10 14  1  0  0  0  0
 11 23  1  6  0  0  0
 11  8  1  0  0  0  0
 11 10  1  0  0  0  0
 12 16  2  0  0  0  0
 13  4  1  6  0  0  0
 13 15  1  0  0  0  0
 14  3  1  0  0  0  0
 16 18  1  0  0  0  0
 17  9  2  0  0  0  0
 18  1  2  0  0  0  0
 19 13  1  0  0  0  0
 20  2  2  0  0  0  0
 21 22  1  0  0  0  0
 22 17  1  0  0  0  0
 24 23  1  0  0  0  0
 25 24  2  0  0  0  0
 26 24  1  0  0  0  0
M  END
>  <MODEL>
2

>  <REMARK>
 VINA RESULT:      -7.8      2.001      6.106
  Name = 
  3 active torsions:
  status: ('A' for Active; 'I' for Inactive)
    1  A    between atoms: C_3  and  C_22
    2  A    between atoms: O_9  and  C_23
    3  A    between atoms: C_14  and  C_22
                            x       y       z     vdW  Elec       q    Type
                         _______ _______ _______ _____ _____    ______ ____

>  <TORSDO>
F 3

$$$$
=
 OpenBabel10232411023D

 26 29  0  0  1  0  0  0  0  0999 V2000
  189.6970  175.8200  143.4700 C   0  0  0  0  0  3  0  0  0  0  0  0
  183.2890  178.5870  143.4660 C   0  0  0  0  0  0  0  0  0  0  0  0
  186.2840  177.5570  143.5570 C   0  0  2  0  0  3  0  0  0  0  0  0
  185.0280  180.6880  144.0690 O   0  0  0  0  0  1  0  0  0  0  0  0
  188.3460  176.2730  143.8520 C   0  0  0  0  0  3  0  0  0  0  0  0
  187.6400  177.1120  143.0840 C   0  0  0  0  0  0  0  0  0  0  0  0
  186.0940  178.8970  141.4250 C   0  0  1  0  0  3  0  0  0  0  0  0
  185.0730  179.0090  140.3130 C   0  0  0  0  0  2  0  0  0  0  0  0
  188.2150  177.6320  141.7940 C   0  0  0  0  0  0  0  0  0  0  0  0
  183.9650  177.9770  142.2560 C   0  0  1  0  0  3  0  0  0  0  0  0
  183.7190  178.8210  141.0020 C   0  0  2  0  0  3  0  0  0  0  0  0
  190.1690  177.5490  140.3920 O   0  0  0  0  0  0  0  0  0  0  0  0
  185.1880  179.5340  144.8380 C   0  0  2  0  0  3  0  0  0  0  0  0
  185.4800  177.8390  142.2980 C   0  0  2  0  0  3  0  0  0  0  0  0
  186.4670  178.7960  144.4450 C   0  0  0  0  0  2  0  0  0  0  0  0
  189.5870  177.1710  141.4430 C   0  0  0  0  0  0  0  0  0  0  0  0
  187.4950  178.4740  141.0000 C   0  0  0  0  0  0  0  0  0  0  0  0
  190.2800  176.2400  142.3460 C   0  0  0  0  0  3  0  0  0  0  0  0
  183.9350  178.6610  144.8200 C   0  0  0  0  0  2  0  0  0  0  0  0
  182.1360  178.9750  143.3640 O   0  0  0  0  0  0  0  0  0  0  0  0
  187.9120  178.4470  138.5460 C   0  0  0  0  0  1  0  0  0  0  0  0
  188.0850  179.0010  139.8420 O   0  0  0  0  0  0  0  0  0  0  0  0
  182.7410  178.1120  140.0800 C   0  0  0  0  0  2  0  0  0  0  0  0
  181.5190  178.9400  139.8710 C   0  0  0  0  0  0  0  0  0  0  0  0
  180.4460  178.6360  140.4540 O   0  0  0  0  0  1  0  0  0  0  0  0
  181.5720  180.0660  139.0620 O   0  0  0  0  0  0  0  0  0  0  0  0
  1  5  1  0  0  0  0
  2 19  1  0  0  0  0
  3 15  1  1  0  0  0
  6  3  1  0  0  0  0
  6  5  2  0  0  0  0
  7  8  1  6  0  0  0
  7 14  1  0  0  0  0
  8 11  1  0  0  0  0
  9  6  1  0  0  0  0
 10 14  1  0  0  0  0
 10  2  1  1  0  0  0
 11 23  1  6  0  0  0
 11 10  1  0  0  0  0
 12 16  2  0  0  0  0
 13  4  1  6  0  0  0
 14  3  1  0  0  0  0
 15 13  1  0  0  0  0
 16  9  1  0  0  0  0
 16 18  1  0  0  0  0
 17  7  1  0  0  0  0
 17  9  2  0  0  0  0
 18  1  2  0  0  0  0
 19 13  1  0  0  0  0
 20  2  2  0  0  0  0
 21 22  1  0  0  0  0
 22 17  1  0  0  0  0
 24 23  1  0  0  0  0
 24 25  1  0  0  0  0
 26 24  2  0  0  0  0
M  END
>  <MODEL>
3

>  <REMARK>
 VINA RESULT:      -6.6      2.735      5.534
  Name = 
  3 active torsions:
  status: ('A' for Active; 'I' for Inactive)
    1  A    between atoms: C_3  and  C_22
    2  A    between atoms: O_9  and  C_23
    3  A    between atoms: C_14  and  C_22
                            x       y       z     vdW  Elec       q    Type
                         _______ _______ _______ _____ _____    ______ ____

>  <TORSDO>
F 3

$$$$
=
 OpenBabel10232411023D

 26 29  0  0  1  0  0  0  0  0999 V2000
  190.4470  178.3920  148.3070 C   0  0  0  0  0  3  0  0  0  0  0  0
  189.2410  177.5900  141.4790 C   0  0  0  0  0  0  0  0  0  0  0  0
  189.7860  177.6970  144.5990 C   0  0  2  0  0  3  0  0  0  0  0  0
  189.0320  175.0390  142.5960 O   0  0  0  0  0  1  0  0  0  0  0  0
  190.5960  178.2000  146.8520 C   0  0  0  0  0  3  0  0  0  0  0  0
  189.5500  177.9140  146.0670 C   0  0  0  0  0  0  0  0  0  0  0  0
  187.3000  177.3250  144.3590 C   0  0  1  0  0  3  0  0  0  0  0  0
  186.2070  177.8960  143.4810 C   0  0  0  0  0  2  0  0  0  0  0  0
  188.1720  177.7680  146.6560 C   0  0  0  0  0  0  0  0  0  0  0  0
  188.3720  178.4000  142.4180 C   0  0  1  0  0  3  0  0  0  0  0  0
  186.8860  178.1660  142.1350 C   0  0  2  0  0  3  0  0  0  0  0  0
  186.9530  177.8440  148.7290 O   0  0  0  0  0  0  0  0  0  0  0  0
  190.1880  175.7480  142.9270 C   0  0  2  0  0  3  0  0  0  0  0  0
  188.4980  178.1130  143.9070 C   0  0  2  0  0  3  0  0  0  0  0  0
  190.1360  176.2180  144.3810 C   0  0  0  0  0  2  0  0  0  0  0  0
  188.0550  177.9510  148.1290 C   0  0  0  0  0  0  0  0  0  0  0  0
  187.1010  177.4930  145.8600 C   0  0  0  0  0  0  0  0  0  0  0  0
  189.2610  178.2740  148.9060 C   0  0  0  0  0  3  0  0  0  0  0  0
  190.4780  176.8620  141.9230 C   0  0  0  0  0  2  0  0  0  0  0  0
  188.9730  177.5800  140.2880 O   0  0  0  0  0  0  0  0  0  0  0  0
  184.8300  178.2830  146.5040 C   0  0  0  0  0  1  0  0  0  0  0  0
  185.8420  177.2890  146.4460 O   0  0  0  0  0  0  0  0  0  0  0  0
  186.2830  179.3910  141.4660 C   0  0  0  0  0  2  0  0  0  0  0  0
  185.2560  178.9920  140.4640 C   0  0  0  0  0  0  0  0  0  0  0  0
  185.5830  178.8170  139.2610 O   0  0  0  0  0  0  0  0  0  0  0  0
  183.9430  178.7770  140.8610 O   0  0  0  0  0  1  0  0  0  0  0  0
  1 18  2  0  0  0  0
  2 19  1  0  0  0  0
  3 15  1  1  0  0  0
  3  6  1  0  0  0  0
  5  1  1  0  0  0  0
  6  9  1  0  0  0  0
  6  5  2  0  0  0  0
  7  8  1  6  0  0  0
  7 17  1  0  0  0  0
  9 16  1  0  0  0  0
 10  2  1  6  0  0  0
 10 14  1  0  0  0  0
 11 23  1  1  0  0  0
 11 10  1  0  0  0  0
 11  8  1  0  0  0  0
 13  4  1  6  0  0  0
 13 15  1  0  0  0  0
 14  7  1  0  0  0  0
 14  3  1  0  0  0  0
 16 12  2  0  0  0  0
 16 18  1  0  0  0  0
 17 22  1  0  0  0  0
 17  9  2  0  0  0  0
 19 13  1  0  0  0  0
 20  2  2  0  0  0  0
 22 21  1  0  0  0  0
 24 26  1  0  0  0  0
 24 23  1  0  0  0  0
 25 24  2  0  0  0  0
M  END
>  <MODEL>
4

>  <REMARK>
 VINA RESULT:      -6.2      2.076      6.077
  Name = 
  3 active torsions:
  status: ('A' for Active; 'I' for Inactive)
    1  A    between atoms: C_3  and  C_22
    2  A    between atoms: O_9  and  C_23
    3  A    between atoms: C_14  and  C_22
                            x       y       z     vdW  Elec       q    Type
                         _______ _______ _______ _____ _____    ______ ____

>  <TORSDO>
F 3

$$$$
=
 OpenBabel10232411023D

 26 29  0  0  1  0  0  0  0  0999 V2000
  184.0630  177.9580  142.5510 C   0  0  0  0  0  3  0  0  0  0  0  0
  190.8480  176.8040  143.7170 C   0  0  0  0  0  0  0  0  0  0  0  0
  187.8290  177.5730  143.1360 C   0  0  2  0  0  3  0  0  0  0  0  0
  190.5910  179.5630  143.3670 O   0  0  0  0  0  1  0  0  0  0  0  0
  185.4980  177.6480  142.3980 C   0  0  0  0  0  3  0  0  0  0  0  0
  186.3780  177.8810  143.3790 C   0  0  0  0  0  0  0  0  0  0  0  0
  188.2830  178.3490  145.4960 C   0  0  1  0  0  3  0  0  0  0  0  0
  188.9870  177.7670  146.7030 C   0  0  0  0  0  2  0  0  0  0  0  0
  185.9260  178.4810  144.6840 C   0  0  0  0  0  0  0  0  0  0  0  0
  189.7430  176.5250  144.7140 C   0  0  1  0  0  3  0  0  0  0  0  0
  190.1500  176.9560  146.1250 C   0  0  2  0  0  3  0  0  0  0  0  0
  183.9880  179.3100  145.8450 O   0  0  0  0  0  0  0  0  0  0  0  0
  190.0050  178.7730  142.3760 C   0  0  2  0  0  3  0  0  0  0  0  0
  188.4130  177.2320  144.4980 C   0  0  2  0  0  3  0  0  0  0  0  0
  188.4810  178.8050  142.4920 C   0  0  0  0  0  2  0  0  0  0  0  0
  184.4750  178.7980  144.8030 C   0  0  0  0  0  0  0  0  0  0  0  0
  186.8150  178.7050  145.6920 C   0  0  0  0  0  0  0  0  0  0  0  0
  183.5840  178.4960  143.6730 C   0  0  0  0  0  3  0  0  0  0  0  0
  190.5980  177.3670  142.3470 C   0  0  0  0  0  2  0  0  0  0  0  0
  191.9930  176.4940  144.0040 O   0  0  0  0  0  0  0  0  0  0  0  0
  186.5350  178.7780  148.1650 C   0  0  0  0  0  1  0  0  0  0  0  0
  186.3780  179.3340  146.8680 O   0  0  0  0  0  0  0  0  0  0  0  0
  190.4300  175.7320  146.9830 C   0  0  0  0  0  2  0  0  0  0  0  0
  191.8630  175.6920  147.3900 C   0  0  0  0  0  0  0  0  0  0  0  0
  192.6470  174.8670  146.8520 O   0  0  0  0  0  0  0  0  0  0  0  0
  192.3430  176.5850  148.3370 O   0  0  0  0  0  1  0  0  0  0  0  0
  1 18  2  0  0  0  0
  2 20  2  0  0  0  0
  3 15  1  1  0  0  0
  3  6  1  0  0  0  0
  3 14  1  0  0  0  0
  5  1  1  0  0  0  0
  5  6  2  0  0  0  0
  6  9  1  0  0  0  0
  7 17  1  0  0  0  0
  7  8  1  1  0  0  0
  9 16  1  0  0  0  0
  9 17  2  0  0  0  0
 10  2  1  6  0  0  0
 10 11  1  0  0  0  0
 11  8  1  0  0  0  0
 11 23  1  1  0  0  0
 13 15  1  0  0  0  0
 13  4  1  1  0  0  0
 14 10  1  0  0  0  0
 14  7  1  0  0  0  0
 16 12  2  0  0  0  0
 17 22  1  0  0  0  0
 18 16  1  0  0  0  0
 19 13  1  0  0  0  0
 19  2  1  0  0  0  0
 22 21  1  0  0  0  0
 23 24  1  0  0  0  0
 24 26  1  0  0  0  0
 25 24  2  0  0  0  0
M  END
>  <MODEL>
5

>  <REMARK>
 VINA RESULT:      -6.1      2.578      5.172
  Name = 
  3 active torsions:
  status: ('A' for Active; 'I' for Inactive)
    1  A    between atoms: C_3  and  C_22
    2  A    between atoms: O_9  and  C_23
    3  A    between atoms: C_14  and  C_22
                            x       y       z     vdW  Elec       q    Type
                         _______ _______ _______ _____ _____    ______ ____

>  <TORSDO>
F 3

$$$$
=
 OpenBabel10232411023D

 26 29  0  0  1  0  0  0  0  0999 V2000
  183.1680  177.0140  136.9080 C   0  0  0  0  0  3  0  0  0  0  0  0
  190.0220  177.1620  138.2220 C   0  0  0  0  0  0  0  0  0  0  0  0
  186.9340  177.3320  137.5270 C   0  0  2  0  0  3  0  0  0  0  0  0
  189.3560  179.7290  137.3450 O   0  0  0  0  0  1  0  0  0  0  0  0
  184.6360  176.9040  136.8070 C   0  0  0  0  0  3  0  0  0  0  0  0
  185.4490  177.4540  137.7170 C   0  0  0  0  0  0  0  0  0  0  0  0
  187.2120  178.6090  139.6880 C   0  0  1  0  0  3  0  0  0  0  0  0
  187.9700  178.3860  140.9790 C   0  0  0  0  0  2  0  0  0  0  0  0
  184.8810  178.2190  138.8840 C   0  0  0  0  0  0  0  0  0  0  0  0
  188.9500  176.9150  139.2630 C   0  0  1  0  0  3  0  0  0  0  0  0
  189.2560  177.6670  140.5610 C   0  0  2  0  0  3  0  0  0  0  0  0
  182.8150  178.9490  139.8780 O   0  0  0  0  0  0  0  0  0  0  0  0
  188.9190  178.6820  136.5320 C   0  0  2  0  0  3  0  0  0  0  0  0
  187.5330  177.3540  138.9250 C   0  0  2  0  0  3  0  0  0  0  0  0
  187.4060  178.5010  136.6510 C   0  0  0  0  0  2  0  0  0  0  0  0
  183.3970  178.3260  138.9510 C   0  0  0  0  0  0  0  0  0  0  0  0
  185.7030  178.7670  139.8220 C   0  0  0  0  0  0  0  0  0  0  0  0
  182.5870  177.6790  137.9080 C   0  0  0  0  0  3  0  0  0  0  0  0
  189.7190  177.4040  136.7710 C   0  0  0  0  0  2  0  0  0  0  0  0
  191.1940  177.0930  138.5550 O   0  0  0  0  0  0  0  0  0  0  0  0
  185.1200  179.1260  142.2150 C   0  0  0  0  0  1  0  0  0  0  0  0
  185.1500  179.5370  140.8570 O   0  0  0  0  0  0  0  0  0  0  0  0
  189.6990  176.6910  141.6380 C   0  0  0  0  0  2  0  0  0  0  0  0
  190.7660  177.2920  142.4870 C   0  0  0  0  0  0  0  0  0  0  0  0
  191.9620  177.2860  142.0940 O   0  0  0  0  0  0  0  0  0  0  0  0
  190.4380  177.8910  143.6960 O   0  0  0  0  0  1  0  0  0  0  0  0
  1 18  2  0  0  0  0
  2 20  2  0  0  0  0
  3 15  1  6  0  0  0
  3  6  1  0  0  0  0
  3 14  1  0  0  0  0
  5  1  1  0  0  0  0
  5  6  2  0  0  0  0
  6  9  1  0  0  0  0
  7 17  1  0  0  0  0
  7  8  1  1  0  0  0
  9 16  1  0  0  0  0
  9 17  2  0  0  0  0
 10  2  1  6  0  0  0
 10 11  1  0  0  0  0
 11  8  1  0  0  0  0
 11 23  1  1  0  0  0
 13 15  1  0  0  0  0
 13 19  1  0  0  0  0
 13  4  1  1  0  0  0
 14 10  1  0  0  0  0
 14  7  1  0  0  0  0
 16 12  2  0  0  0  0
 17 22  1  0  0  0  0
 18 16  1  0  0  0  0
 19  2  1  0  0  0  0
 22 21  1  0  0  0  0
 23 24  1  0  0  0  0
 24 26  1  0  0  0  0
 25 24  2  0  0  0  0
M  END
>  <MODEL>
6

>  <REMARK>
 VINA RESULT:      -6.0      2.676      5.739
  Name = 
  3 active torsions:
  status: ('A' for Active; 'I' for Inactive)
    1  A    between atoms: C_3  and  C_22
    2  A    between atoms: O_9  and  C_23
    3  A    between atoms: C_14  and  C_22
                            x       y       z     vdW  Elec       q    Type
                         _______ _______ _______ _____ _____    ______ ____

>  <TORSDO>
F 3

$$$$
=
 OpenBabel10232411023D

 26 29  0  0  1  0  0  0  0  0999 V2000
  187.1300  178.6910  136.0840 C   0  0  0  0  0  3  0  0  0  0  0  0
  192.9580  176.9530  139.5110 C   0  0  0  0  0  0  0  0  0  0  0  0
  190.1790  177.6470  138.1540 C   0  0  2  0  0  3  0  0  0  0  0  0
  190.8500  175.8750  140.9930 O   0  0  0  0  0  1  0  0  0  0  0  0
  188.3090  178.6900  136.9720 C   0  0  0  0  0  3  0  0  0  0  0  0
  189.0120  177.5770  137.2100 C   0  0  0  0  0  0  0  0  0  0  0  0
  190.5540  175.1890  137.7100 C   0  0  1  0  0  3  0  0  0  0  0  0
  191.7320  174.3420  137.2780 C   0  0  0  0  0  2  0  0  0  0  0  0
  188.6100  176.2710  136.5770 C   0  0  0  0  0  0  0  0  0  0  0  0
  192.6090  176.4880  138.1130 C   0  0  1  0  0  3  0  0  0  0  0  0
  192.9520  175.0070  137.9220 C   0  0  2  0  0  3  0  0  0  0  0  0
  186.9760  175.2640  135.1250 O   0  0  0  0  0  0  0  0  0  0  0  0
  190.7240  177.2260  140.6600 C   0  0  2  0  0  3  0  0  0  0  0  0
  191.1490  176.5700  137.6930 C   0  0  2  0  0  3  0  0  0  0  0  0
  189.6590  177.4180  139.5810 C   0  0  0  0  0  2  0  0  0  0  0  0
  187.4070  176.2990  135.6990 C   0  0  0  0  0  0  0  0  0  0  0  0
  189.3310  175.1370  136.8040 C   0  0  0  0  0  0  0  0  0  0  0  0
  186.7060  177.5740  135.4900 C   0  0  0  0  0  3  0  0  0  0  0  0
  192.0730  177.8560  140.3220 C   0  0  0  0  0  2  0  0  0  0  0  0
  194.0400  176.6440  139.9820 O   0  0  0  0  0  0  0  0  0  0  0  0
  188.3730  172.8510  137.0390 C   0  0  0  0  0  1  0  0  0  0  0  0
  188.8900  173.9200  136.2600 O   0  0  0  0  0  0  0  0  0  0  0  0
  194.1740  174.8660  137.0290 C   0  0  0  0  0  2  0  0  0  0  0  0
  195.3530  174.4130  137.8190 C   0  0  0  0  0  0  0  0  0  0  0  0
  195.2270  173.4910  138.6660 O   0  0  0  0  0  1  0  0  0  0  0  0
  196.5990  174.9830  137.5980 O   0  0  0  0  0  0  0  0  0  0  0  0
  1  5  1  0  0  0  0
  2 20  2  0  0  0  0
  2 19  1  0  0  0  0
  3 15  1  1  0  0  0
  5  6  2  0  0  0  0
  6  3  1  0  0  0  0
  7  8  1  6  0  0  0
  8 11  1  0  0  0  0
  9 17  2  0  0  0  0
  9  6  1  0  0  0  0
 10  2  1  1  0  0  0
 11 23  1  6  0  0  0
 11 10  1  0  0  0  0
 12 16  2  0  0  0  0
 13  4  1  6  0  0  0
 14  7  1  0  0  0  0
 14 10  1  0  0  0  0
 14  3  1  0  0  0  0
 15 13  1  0  0  0  0
 16  9  1  0  0  0  0
 17  7  1  0  0  0  0
 18 16  1  0  0  0  0
 18  1  2  0  0  0  0
 19 13  1  0  0  0  0
 22 17  1  0  0  0  0
 22 21  1  0  0  0  0
 23 24  1  0  0  0  0
 24 25  1  0  0  0  0
 26 24  2  0  0  0  0
M  END
>  <MODEL>
7

>  <REMARK>
 VINA RESULT:      -5.7      4.492      7.448
  Name = 
  3 active torsions:
  status: ('A' for Active; 'I' for Inactive)
    1  A    between atoms: C_3  and  C_22
    2  A    between atoms: O_9  and  C_23
    3  A    between atoms: C_14  and  C_22
                            x       y       z     vdW  Elec       q    Type
                         _______ _______ _______ _____ _____    ______ ____

>  <TORSDO>
F 3

$$$$
=
 OpenBabel10232411023D

 26 29  0  0  1  0  0  0  0  0999 V2000
  181.6330  178.5330  144.1060 C   0  0  0  0  0  3  0  0  0  0  0  0
  181.7210  178.0600  137.1430 C   0  0  0  0  0  0  0  0  0  0  0  0
  181.6630  178.5310  140.2760 C   0  0  2  0  0  3  0  0  0  0  0  0
  181.8570  180.7890  137.7250 O   0  0  0  0  0  1  0  0  0  0  0  0
  181.2500  178.4270  142.6850 C   0  0  0  0  0  3  0  0  0  0  0  0
  182.1350  178.6200  141.7000 C   0  0  0  0  0  0  0  0  0  0  0  0
  184.0390  179.0040  139.5650 C   0  0  1  0  0  3  0  0  0  0  0  0
  185.0360  178.3430  138.6380 C   0  0  0  0  0  2  0  0  0  0  0  0
  183.5670  178.9640  142.0170 C   0  0  0  0  0  0  0  0  0  0  0  0
  182.7930  177.5060  138.0570 C   0  0  1  0  0  3  0  0  0  0  0  0
  184.1920  177.7730  137.4950 C   0  0  2  0  0  3  0  0  0  0  0  0
  185.0850  179.3710  143.8390 O   0  0  0  0  0  0  0  0  0  0  0  0
  180.8350  180.0860  138.3660 C   0  0  2  0  0  3  0  0  0  0  0  0
  182.8660  178.0690  139.4690 C   0  0  2  0  0  3  0  0  0  0  0  0
  181.1480  179.9140  139.8520 C   0  0  0  0  0  2  0  0  0  0  0  0
  183.9200  179.0800  143.4590 C   0  0  0  0  0  0  0  0  0  0  0  0
  184.4760  179.1460  141.0180 C   0  0  0  0  0  0  0  0  0  0  0  0
  182.8790  178.8400  144.4700 C   0  0  0  0  0  3  0  0  0  0  0  0
  180.5030  178.7820  137.6440 C   0  0  0  0  0  2  0  0  0  0  0  0
  181.8060  177.8540  135.9430 O   0  0  0  0  0  0  0  0  0  0  0  0
  186.8950  178.6550  141.3400 C   0  0  0  0  0  1  0  0  0  0  0  0
  185.7840  179.5380  141.3410 O   0  0  0  0  0  0  0  0  0  0  0  0
  184.7990  176.4810  136.9710 C   0  0  0  0  0  2  0  0  0  0  0  0
  186.2080  176.7000  136.5380 C   0  0  0  0  0  0  0  0  0  0  0  0
  186.4580  177.4790  135.5820 O   0  0  0  0  0  0  0  0  0  0  0  0
  187.2470  176.0710  137.2080 O   0  0  0  0  0  1  0  0  0  0  0  0
  1 18  2  0  0  0  0
  2 19  1  0  0  0  0
  3 15  1  6  0  0  0
  3  6  1  0  0  0  0
  5  1  1  0  0  0  0
  6  9  1  0  0  0  0
  6  5  2  0  0  0  0
  7  8  1  6  0  0  0
  7 17  1  0  0  0  0
  9 16  1  0  0  0  0
 10  2  1  6  0  0  0
 10 14  1  0  0  0  0
 11 23  1  1  0  0  0
 11 10  1  0  0  0  0
 11  8  1  0  0  0  0
 13  4  1  6  0  0  0
 13 15  1  0  0  0  0
 14  7  1  0  0  0  0
 14  3  1  0  0  0  0
 16 12  2  0  0  0  0
 16 18  1  0  0  0  0
 17 22  1  0  0  0  0
 17  9  2  0  0  0  0
 19 13  1  0  0  0  0
 20  2  2  0  0  0  0
 21 22  1  0  0  0  0
 24 23  1  0  0  0  0
 24 26  1  0  0  0  0
 25 24  2  0  0  0  0
M  END
>  <MODEL>
8

>  <REMARK>
 VINA RESULT:      -5.7      3.863      9.012
  Name = 
  3 active torsions:
  status: ('A' for Active; 'I' for Inactive)
    1  A    between atoms: C_3  and  C_22
    2  A    between atoms: O_9  and  C_23
    3  A    between atoms: C_14  and  C_22
                            x       y       z     vdW  Elec       q    Type
                         _______ _______ _______ _____ _____    ______ ____

>  <TORSDO>
F 3

$$$$
=
 OpenBabel10232411023D

 26 29  0  0  1  0  0  0  0  0999 V2000
  188.1450  176.4830  136.5090 C   0  0  0  0  0  3  0  0  0  0  0  0
  181.1850  176.9150  136.8080 C   0  0  0  0  0  0  0  0  0  0  0  0
  184.3330  176.5530  136.8700 C   0  0  2  0  0  3  0  0  0  0  0  0
  181.9530  175.4140  139.0350 O   0  0  0  0  0  1  0  0  0  0  0  0
  186.6990  176.2520  136.3280 C   0  0  0  0  0  3  0  0  0  0  0  0
  185.7860  176.8670  137.0900 C   0  0  0  0  0  0  0  0  0  0  0  0
  183.8060  178.2060  138.7050 C   0  0  1  0  0  3  0  0  0  0  0  0
  182.9010  179.4130  138.8380 C   0  0  0  0  0  2  0  0  0  0  0  0
  186.2140  177.8180  138.1750 C   0  0  0  0  0  0  0  0  0  0  0  0
  182.1270  178.0970  136.9050 C   0  0  1  0  0  3  0  0  0  0  0  0
  181.6720  179.0780  137.9890 C   0  0  2  0  0  3  0  0  0  0  0  0
  188.1510  178.7850  139.2260 O   0  0  0  0  0  0  0  0  0  0  0  0
  182.4820  174.9930  137.8130 C   0  0  2  0  0  3  0  0  0  0  0  0
  183.5750  177.8080  137.2740 C   0  0  2  0  0  3  0  0  0  0  0  0
  183.9700  175.3290  137.7230 C   0  0  0  0  0  2  0  0  0  0  0  0
  187.6800  178.0180  138.3450 C   0  0  0  0  0  0  0  0  0  0  0  0
  185.2890  178.4590  138.9430 C   0  0  0  0  0  0  0  0  0  0  0  0
  188.6060  177.3060  137.4520 C   0  0  0  0  0  3  0  0  0  0  0  0
  181.6560  175.5000  136.6320 C   0  0  0  0  0  2  0  0  0  0  0  0
  179.9820  177.1190  136.8000 O   0  0  0  0  0  0  0  0  0  0  0  0
  185.4480  179.0190  141.3640 C   0  0  0  0  0  1  0  0  0  0  0  0
  185.7180  179.2820  139.9950 O   0  0  0  0  0  0  0  0  0  0  0  0
  181.1030  180.3350  137.3490 C   0  0  0  0  0  2  0  0  0  0  0  0
  181.0460  181.4490  138.3370 C   0  0  0  0  0  0  0  0  0  0  0  0
  180.2860  181.3660  139.3360 O   0  0  0  0  0  1  0  0  0  0  0  0
  181.8580  182.5630  138.1760 O   0  0  0  0  0  0  0  0  0  0  0  0
  1 18  2  0  0  0  0
  3  6  1  0  0  0  0
  3 14  1  0  0  0  0
  3 15  1  1  0  0  0
  5  1  1  0  0  0  0
  5  6  2  0  0  0  0
  6  9  1  0  0  0  0
  7  8  1  6  0  0  0
  7 17  1  0  0  0  0
  9 16  1  0  0  0  0
  9 17  2  0  0  0  0
 10  2  1  1  0  0  0
 10 14  1  0  0  0  0
 10 11  1  0  0  0  0
 11 23  1  6  0  0  0
 11  8  1  0  0  0  0
 13  4  1  1  0  0  0
 14  7  1  0  0  0  0
 15 13  1  0  0  0  0
 16 12  2  0  0  0  0
 17 22  1  0  0  0  0
 18 16  1  0  0  0  0
 19  2  1  0  0  0  0
 19 13  1  0  0  0  0
 20  2  2  0  0  0  0
 22 21  1  0  0  0  0
 23 24  1  0  0  0  0
 24 25  1  0  0  0  0
 26 24  2  0  0  0  0
M  END
>  <MODEL>
9

>  <REMARK>
 VINA RESULT:      -5.5      4.612      8.210
  Name = 
  3 active torsions:
  status: ('A' for Active; 'I' for Inactive)
    1  A    between atoms: C_3  and  C_22
    2  A    between atoms: O_9  and  C_23
    3  A    between atoms: C_14  and  C_22
                            x       y       z     vdW  Elec       q    Type
                         _______ _______ _______ _____ _____    ______ ____

>  <TORSDO>
F 3

$$$$
