=
 OpenBabel10232410463D

 35 39  0  0  1  0  0  0  0  0999 V2000
  190.0610  176.8160  146.6360 C   0  0  0  0  0  0  0  0  0  0  0  0
  188.9090  177.2710  147.2710 C   0  0  0  0  0  3  0  0  0  0  0  0
  185.8910  177.8220  144.2440 C   0  0  1  0  0  3  0  0  0  0  0  0
  185.4940  177.9880  145.7280 C   0  0  2  0  0  3  0  0  0  0  0  0
  187.9030  177.6060  146.3580 C   0  0  0  0  0  0  0  0  0  0  0  0
  185.3940  179.1550  144.7640 C   0  0  2  0  0  3  0  0  0  0  0  0
  189.8570  176.9200  144.9640 S   0  0  0  0  0  0  0  0  0  0  0  0
  187.3920  177.9160  143.9090 C   0  0  1  0  0  3  0  0  0  0  0  0
  186.6210  178.2670  146.7350 C   0  0  0  0  0  2  0  0  0  0  0  0
  188.2600  177.4470  145.0370 C   0  0  0  0  0  0  0  0  0  0  0  0
  191.3430  176.4680  147.3210 C   0  0  0  0  0  0  0  0  0  0  0  0
  191.2580  175.1990  147.8650 F   0  0  0  0  0  0  0  0  0  0  0  0
  191.6020  177.3740  148.3340 F   0  0  0  0  0  0  0  0  0  0  0  0
  192.3770  176.5020  146.4050 F   0  0  0  0  0  0  0  0  0  0  0  0
  183.9480  179.3410  144.3510 C   0  0  0  0  0  2  0  0  0  0  0  0
  183.6320  178.4860  143.1350 C   0  0  0  0  0  2  0  0  0  0  0  0
  182.8170  179.2340  142.1880 N   0  0  0  0  0  0  0  0  0  0  0  0
  181.4460  178.7920  142.3780 C   0  0  0  0  0  1  0  0  0  0  0  0
  182.2580  179.2070  139.5850 O   0  0  0  0  0  0  0  0  0  0  0  0
  183.2960  178.7720  140.5840 S   0  0  0  0  0  0  0  0  0  0  0  0
  183.4560  177.2800  140.5150 O   0  0  0  0  0  0  0  0  0  0  0  0
  184.8060  179.5160  140.1960 N   0  0  0  0  0  1  0  0  0  0  0  0
  187.7110  177.2150  142.5820 C   0  0  0  0  0  2  0  0  0  0  0  0
  188.0240  178.6390  140.6320 O   0  0  0  0  0  0  0  0  0  0  0  0
  190.4940  176.1390  141.6220 O   0  0  0  0  0  1  0  0  0  0  0  0
  188.3110  178.0590  135.8800 O   0  0  0  0  0  0  0  0  0  0  0  0
  190.9510  175.4950  138.7680 O   0  0  0  0  0  0  0  0  0  0  0  0
  190.0800  176.3840  138.5770 C   0  0  0  0  0  0  0  0  0  0  0  0
  189.4480  177.1010  139.6850 C   0  0  0  0  0  0  0  0  0  0  0  0
  188.7050  177.9810  141.7070 C   0  0  2  0  0  3  0  0  0  0  0  0
  188.6690  177.7560  137.0470 C   0  0  0  0  0  0  0  0  0  0  0  0
  189.6090  177.0080  140.9940 C   0  0  0  0  0  0  0  0  0  0  0  0
  189.6660  176.7340  137.2490 N   0  0  0  0  0  2  0  0  0  0  0  0
  188.4640  178.1100  139.4330 C   0  0  0  0  0  0  0  0  0  0  0  0
  188.0640  178.4530  138.2080 C   0  0  0  0  0  3  0  0  0  0  0  0
  1  2  2  0  0  0  0
  1 11  1  0  0  0  0
  3  6  1  0  0  0  0
  3  4  1  0  0  0  0
  4  9  1  0  0  0  0
  5  9  1  0  0  0  0
  5  2  1  0  0  0  0
  6  4  1  0  0  0  0
  7 10  1  0  0  0  0
  7  1  1  0  0  0  0
  8  3  1  0  0  0  0
  8 10  1  0  0  0  0
 10  5  2  0  0  0  0
 11 12  1  0  0  0  0
 11 13  1  0  0  0  0
 14 11  1  0  0  0  0
 15  6  1  0  0  0  0
 16 15  1  0  0  0  0
 17 18  1  0  0  0  0
 17 16  1  0  0  0  0
 19 20  2  0  0  0  0
 20 17  1  0  0  0  0
 21 20  2  0  0  0  0
 22 20  1  0  0  0  0
 23  8  1  0  0  0  0
 24 30  1  0  0  0  0
 26 31  2  0  0  0  0
 28 27  2  0  0  0  0
 28 29  1  0  0  0  0
 29 32  2  0  0  0  0
 30 23  1  0  0  0  0
 31 33  1  0  0  0  0
 31 35  1  0  0  0  0
 32 25  1  0  0  0  0
 32 30  1  0  0  0  0
 33 28  1  0  0  0  0
 34 29  1  0  0  0  0
 34 24  1  0  0  0  0
 35 34  2  0  0  0  0
M  END
>  <MODEL>
1

>  <REMARK>
 VINA RESULT:     -10.3      0.000      0.000
  Name = 
  7 active torsions:
  status: ('A' for Active; 'I' for Inactive)
    1  A    between atoms: C_1  and  C_3
    2  A    between atoms: C_2  and  C_24
    3  A    between atoms: C_2  and  N_31
    4  A    between atoms: S_7  and  N_31
    5  A    between atoms: C_14  and  C_27
    6  A    between atoms: C_21  and  C_24
    7  A    between atoms: C_27  and  C_32
                            x       y       z     vdW  Elec       q    Type
                         _______ _______ _______ _____ _____    ______ ____

>  <TORSDO>
F 7

$$$$
=
 OpenBabel10232410463D

 35 39  0  0  1  0  0  0  0  0999 V2000
  187.9650  177.8780  147.0160 C   0  0  0  0  0  0  0  0  0  0  0  0
  186.6300  178.2770  147.0370 C   0  0  0  0  0  3  0  0  0  0  0  0
  185.1050  177.9140  143.0230 C   0  0  1  0  0  3  0  0  0  0  0  0
  184.1230  178.2710  144.1610 C   0  0  2  0  0  3  0  0  0  0  0  0
  186.0750  178.3200  145.7540 C   0  0  0  0  0  0  0  0  0  0  0  0
  184.3690  179.2380  143.0180 C   0  0  2  0  0  3  0  0  0  0  0  0
  188.4620  177.6750  145.4170 S   0  0  0  0  0  0  0  0  0  0  0  0
  186.6040  178.1480  143.2950 C   0  0  1  0  0  3  0  0  0  0  0  0
  184.7180  178.8590  145.4500 C   0  0  0  0  0  2  0  0  0  0  0  0
  186.9530  177.9920  144.7430 C   0  0  0  0  0  0  0  0  0  0  0  0
  188.8660  177.8210  148.2060 C   0  0  0  0  0  0  0  0  0  0  0  0
  188.1690  177.3500  149.3040 F   0  0  0  0  0  0  0  0  0  0  0  0
  189.3560  179.0820  148.4930 F   0  0  0  0  0  0  0  0  0  0  0  0
  189.9230  176.9720  147.9400 F   0  0  0  0  0  0  0  0  0  0  0  0
  183.2140  179.1600  142.0400 C   0  0  0  0  0  2  0  0  0  0  0  0
  183.4270  178.0170  141.0610 C   0  0  0  0  0  2  0  0  0  0  0  0
  182.4370  178.0730  139.9950 N   0  0  0  0  0  0  0  0  0  0  0  0
  182.3230  176.7270  139.4610 C   0  0  0  0  0  1  0  0  0  0  0  0
  182.1400  180.2440  138.4820 O   0  0  0  0  0  0  0  0  0  0  0  0
  183.0650  179.0840  138.7300 S   0  0  0  0  0  0  0  0  0  0  0  0
  183.2060  178.2820  137.4670 O   0  0  0  0  0  0  0  0  0  0  0  0
  184.6190  179.6840  139.1880 N   0  0  0  0  0  1  0  0  0  0  0  0
  187.4770  177.2860  142.3760 C   0  0  0  0  0  2  0  0  0  0  0  0
  187.7990  178.6460  140.3820 O   0  0  0  0  0  0  0  0  0  0  0  0
  190.3950  176.4070  141.6380 O   0  0  0  0  0  1  0  0  0  0  0  0
  188.4360  177.8900  135.6890 O   0  0  0  0  0  0  0  0  0  0  0  0
  191.0840  175.6820  138.8510 O   0  0  0  0  0  0  0  0  0  0  0  0
  190.1580  176.4860  138.5660 C   0  0  0  0  0  0  0  0  0  0  0  0
  189.4010  177.1950  139.5980 C   0  0  0  0  0  0  0  0  0  0  0  0
  188.4600  178.0940  141.5260 C   0  0  2  0  0  3  0  0  0  0  0  0
  188.7410  177.6670  136.8890 C   0  0  0  0  0  0  0  0  0  0  0  0
  189.4840  177.1710  140.9170 C   0  0  0  0  0  0  0  0  0  0  0  0
  189.8040  176.7430  137.2000 N   0  0  0  0  0  2  0  0  0  0  0  0
  188.3560  178.1050  139.2380 C   0  0  0  0  0  0  0  0  0  0  0  0
  188.0090  178.3610  137.9770 C   0  0  0  0  0  3  0  0  0  0  0  0
  1  2  2  0  0  0  0
  1 11  1  0  0  0  0
  3  8  1  0  0  0  0
  3  4  1  0  0  0  0
  4  9  1  0  0  0  0
  5  2  1  0  0  0  0
  6  3  1  0  0  0  0
  6  4  1  0  0  0  0
  7  1  1  0  0  0  0
  8 10  1  0  0  0  0
  9  5  1  0  0  0  0
 10  7  1  0  0  0  0
 10  5  2  0  0  0  0
 11 13  1  0  0  0  0
 11 12  1  0  0  0  0
 14 11  1  0  0  0  0
 15  6  1  0  0  0  0
 16 15  1  0  0  0  0
 17 16  1  0  0  0  0
 18 17  1  0  0  0  0
 19 20  2  0  0  0  0
 20 22  1  0  0  0  0
 20 17  1  0  0  0  0
 21 20  2  0  0  0  0
 23  8  1  0  0  0  0
 24 30  1  0  0  0  0
 26 31  2  0  0  0  0
 28 27  2  0  0  0  0
 28 29  1  0  0  0  0
 29 32  2  0  0  0  0
 30 23  1  0  0  0  0
 31 33  1  0  0  0  0
 31 35  1  0  0  0  0
 32 30  1  0  0  0  0
 32 25  1  0  0  0  0
 33 28  1  0  0  0  0
 34 29  1  0  0  0  0
 34 24  1  0  0  0  0
 35 34  2  0  0  0  0
M  END
>  <MODEL>
2

>  <REMARK>
 VINA RESULT:      -9.4      1.478      1.915
  Name = 
  7 active torsions:
  status: ('A' for Active; 'I' for Inactive)
    1  A    between atoms: C_1  and  C_3
    2  A    between atoms: C_2  and  C_24
    3  A    between atoms: C_2  and  N_31
    4  A    between atoms: S_7  and  N_31
    5  A    between atoms: C_14  and  C_27
    6  A    between atoms: C_21  and  C_24
    7  A    between atoms: C_27  and  C_32
                            x       y       z     vdW  Elec       q    Type
                         _______ _______ _______ _____ _____    ______ ____

>  <TORSDO>
F 7

$$$$
=
 OpenBabel10232410463D

 35 39  0  0  1  0  0  0  0  0999 V2000
  182.2280  178.9540  143.0120 C   0  0  0  0  0  0  0  0  0  0  0  0
  182.3480  178.8750  144.3970 C   0  0  0  0  0  3  0  0  0  0  0  0
  186.5530  178.7210  145.3270 C   0  0  1  0  0  3  0  0  0  0  0  0
  185.5400  178.8370  146.4880 C   0  0  2  0  0  3  0  0  0  0  0  0
  183.6750  178.6890  144.7990 C   0  0  0  0  0  0  0  0  0  0  0  0
  186.4410  177.6220  146.3640 C   0  0  2  0  0  3  0  0  0  0  0  0
  183.7390  178.7040  142.3040 S   0  0  0  0  0  0  0  0  0  0  0  0
  186.0110  178.2230  143.9740 C   0  0  1  0  0  3  0  0  0  0  0  0
  184.0900  178.4130  146.2050 C   0  0  0  0  0  2  0  0  0  0  0  0
  184.5760  178.5970  143.7610 C   0  0  0  0  0  0  0  0  0  0  0  0
  180.9390  179.0580  142.2630 C   0  0  0  0  0  0  0  0  0  0  0  0
  181.1660  178.9090  140.9080 F   0  0  0  0  0  0  0  0  0  0  0  0
  180.3560  180.2930  142.4870 F   0  0  0  0  0  0  0  0  0  0  0  0
  180.0790  178.0650  142.6930 F   0  0  0  0  0  0  0  0  0  0  0  0
  187.5880  177.7480  147.3470 C   0  0  0  0  0  2  0  0  0  0  0  0
  188.8740  178.0970  146.6160 C   0  0  0  0  0  2  0  0  0  0  0  0
  189.6150  176.8880  146.2900 N   0  0  0  0  0  0  0  0  0  0  0  0
  190.3850  176.5380  147.4710 C   0  0  0  0  0  1  0  0  0  0  0  0
  190.8010  176.1530  144.0210 O   0  0  0  0  0  0  0  0  0  0  0  0
  190.7430  177.2720  145.0260 S   0  0  0  0  0  0  0  0  0  0  0  0
  192.1090  177.4800  145.6170 O   0  0  0  0  0  0  0  0  0  0  0  0
  190.2480  178.7240  144.2330 N   0  0  0  0  0  1  0  0  0  0  0  0
  186.9170  178.6600  142.8160 C   0  0  0  0  0  2  0  0  0  0  0  0
  188.4970  176.9900  142.0130 O   0  0  0  0  0  0  0  0  0  0  0  0
  186.2640  178.7890  139.7530 O   0  0  0  0  0  1  0  0  0  0  0  0
  192.3970  176.9130  139.2230 O   0  0  0  0  0  0  0  0  0  0  0  0
  188.4460  178.9450  137.7580 O   0  0  0  0  0  0  0  0  0  0  0  0
  189.0980  178.3210  138.6360 C   0  0  0  0  0  0  0  0  0  0  0  0
  188.5060  177.9440  139.9200 C   0  0  0  0  0  0  0  0  0  0  0  0
  187.1960  177.5490  141.8020 C   0  0  2  0  0  3  0  0  0  0  0  0
  191.1990  177.2360  139.4270 C   0  0  0  0  0  0  0  0  0  0  0  0
  187.2970  178.1380  140.4180 C   0  0  0  0  0  0  0  0  0  0  0  0
  190.4660  177.9510  138.4110 N   0  0  0  0  0  2  0  0  0  0  0  0
  189.2750  177.2320  140.8960 C   0  0  0  0  0  0  0  0  0  0  0  0
  190.5470  176.8760  140.7090 C   0  0  0  0  0  3  0  0  0  0  0  0
  1  2  2  0  0  0  0
  2  5  1  0  0  0  0
  3  6  1  0  0  0  0
  3  4  1  0  0  0  0
  5  9  1  0  0  0  0
  6  4  1  0  0  0  0
  6 15  1  0  0  0  0
  7  1  1  0  0  0  0
  7 10  1  0  0  0  0
  8  3  1  0  0  0  0
  9  4  1  0  0  0  0
 10  8  1  0  0  0  0
 10  5  2  0  0  0  0
 11 13  1  0  0  0  0
 11 14  1  0  0  0  0
 11  1  1  0  0  0  0
 12 11  1  0  0  0  0
 16 15  1  0  0  0  0
 17 16  1  0  0  0  0
 17 18  1  0  0  0  0
 19 20  2  0  0  0  0
 20 21  2  0  0  0  0
 20 17  1  0  0  0  0
 22 20  1  0  0  0  0
 23  8  1  0  0  0  0
 25 32  1  0  0  0  0
 26 31  2  0  0  0  0
 27 28  2  0  0  0  0
 28 29  1  0  0  0  0
 29 32  2  0  0  0  0
 29 34  1  0  0  0  0
 30 24  1  0  0  0  0
 30 23  1  0  0  0  0
 31 35  1  0  0  0  0
 32 30  1  0  0  0  0
 33 28  1  0  0  0  0
 33 31  1  0  0  0  0
 34 24  1  0  0  0  0
 35 34  2  0  0  0  0
M  END
>  <MODEL>
3

>  <REMARK>
 VINA RESULT:      -9.0      4.413      6.727
  Name = 
  7 active torsions:
  status: ('A' for Active; 'I' for Inactive)
    1  A    between atoms: C_1  and  C_3
    2  A    between atoms: C_2  and  C_24
    3  A    between atoms: C_2  and  N_31
    4  A    between atoms: S_7  and  N_31
    5  A    between atoms: C_14  and  C_27
    6  A    between atoms: C_21  and  C_24
    7  A    between atoms: C_27  and  C_32
                            x       y       z     vdW  Elec       q    Type
                         _______ _______ _______ _____ _____    ______ ____

>  <TORSDO>
F 7

$$$$
=
 OpenBabel10232410463D

 35 39  0  0  1  0  0  0  0  0999 V2000
  188.7290  177.8540  147.0450 C   0  0  0  0  0  0  0  0  0  0  0  0
  190.0040  178.1650  146.5800 C   0  0  0  0  0  3  0  0  0  0  0  0
  189.9520  177.7590  142.2890 C   0  0  1  0  0  3  0  0  0  0  0  0
  191.2170  178.3340  142.9650 C   0  0  2  0  0  3  0  0  0  0  0  0
  190.1310  177.9390  145.2050 C   0  0  0  0  0  0  0  0  0  0  0  0
  191.2770  177.0320  142.1880 C   0  0  2  0  0  3  0  0  0  0  0  0
  187.8100  177.2200  145.7800 S   0  0  0  0  0  0  0  0  0  0  0  0
  188.9830  176.9620  143.1840 C   0  0  1  0  0  3  0  0  0  0  0  0
  191.4180  178.0330  144.4590 C   0  0  0  0  0  2  0  0  0  0  0  0
  188.9960  177.4350  144.6050 C   0  0  0  0  0  0  0  0  0  0  0  0
  188.3000  177.8970  148.4760 C   0  0  0  0  0  0  0  0  0  0  0  0
  189.3610  178.2780  149.2760 F   0  0  0  0  0  0  0  0  0  0  0  0
  187.8600  176.6480  148.8790 F   0  0  0  0  0  0  0  0  0  0  0  0
  187.2710  178.8090  148.6190 F   0  0  0  0  0  0  0  0  0  0  0  0
  191.8830  177.2920  140.8230 C   0  0  0  0  0  2  0  0  0  0  0  0
  190.8690  176.9960  139.7300 C   0  0  0  0  0  2  0  0  0  0  0  0
  191.3540  175.9290  138.8660 N   0  0  0  0  0  0  0  0  0  0  0  0
  192.5560  176.4290  138.2210 C   0  0  0  0  0  1  0  0  0  0  0  0
  190.6230  176.2780  136.3290 O   0  0  0  0  0  0  0  0  0  0  0  0
  190.1690  175.6620  137.6250 S   0  0  0  0  0  0  0  0  0  0  0  0
  188.8610  176.2770  138.0360 O   0  0  0  0  0  0  0  0  0  0  0  0
  189.9440  173.9640  137.3990 N   0  0  0  0  0  1  0  0  0  0  0  0
  187.5730  176.9260  142.5820 C   0  0  0  0  0  2  0  0  0  0  0  0
  185.6210  178.2830  143.1110 O   0  0  0  0  0  0  0  0  0  0  0  0
  187.5300  178.7510  140.0340 O   0  0  0  0  0  1  0  0  0  0  0  0
  181.2260  178.9500  141.3110 O   0  0  0  0  0  0  0  0  0  0  0  0
  185.0040  179.2200  138.5650 O   0  0  0  0  0  0  0  0  0  0  0  0
  184.4800  179.0340  139.6950 C   0  0  0  0  0  0  0  0  0  0  0  0
  185.2840  178.7410  140.8830 C   0  0  0  0  0  0  0  0  0  0  0  0
  186.9100  178.3010  142.4870 C   0  0  2  0  0  3  0  0  0  0  0  0
  182.4740  178.8880  141.1670 C   0  0  0  0  0  0  0  0  0  0  0  0
  186.5890  178.6120  141.0470 C   0  0  0  0  0  0  0  0  0  0  0  0
  183.0580  179.1020  139.8660 N   0  0  0  0  0  2  0  0  0  0  0  0
  184.6560  178.5380  142.1540 C   0  0  0  0  0  0  0  0  0  0  0  0
  183.3370  178.5970  142.3380 C   0  0  0  0  0  3  0  0  0  0  0  0
  1 11  1  0  0  0  0
  2  1  2  0  0  0  0
  3  4  1  0  0  0  0
  3  8  1  0  0  0  0
  4  9  1  0  0  0  0
  5  2  1  0  0  0  0
  6  3  1  0  0  0  0
  6  4  1  0  0  0  0
  7  1  1  0  0  0  0
  8 10  1  0  0  0  0
  9  5  1  0  0  0  0
 10  5  2  0  0  0  0
 10  7  1  0  0  0  0
 11 14  1  0  0  0  0
 11 13  1  0  0  0  0
 11 12  1  0  0  0  0
 15  6  1  0  0  0  0
 16 15  1  0  0  0  0
 17 16  1  0  0  0  0
 18 17  1  0  0  0  0
 19 20  2  0  0  0  0
 20 21  2  0  0  0  0
 20 17  1  0  0  0  0
 22 20  1  0  0  0  0
 23  8  1  0  0  0  0
 25 32  1  0  0  0  0
 27 28  2  0  0  0  0
 28 33  1  0  0  0  0
 28 29  1  0  0  0  0
 29 32  2  0  0  0  0
 29 34  1  0  0  0  0
 30 23  1  0  0  0  0
 30 24  1  0  0  0  0
 31 26  2  0  0  0  0
 31 35  1  0  0  0  0
 32 30  1  0  0  0  0
 33 31  1  0  0  0  0
 34 35  2  0  0  0  0
 34 24  1  0  0  0  0
M  END
>  <MODEL>
4

>  <REMARK>
 VINA RESULT:      -8.9      2.624      6.070
  Name = 
  7 active torsions:
  status: ('A' for Active; 'I' for Inactive)
    1  A    between atoms: C_1  and  C_3
    2  A    between atoms: C_2  and  C_24
    3  A    between atoms: C_2  and  N_31
    4  A    between atoms: S_7  and  N_31
    5  A    between atoms: C_14  and  C_27
    6  A    between atoms: C_21  and  C_24
    7  A    between atoms: C_27  and  C_32
                            x       y       z     vdW  Elec       q    Type
                         _______ _______ _______ _____ _____    ______ ____

>  <TORSDO>
F 7

$$$$
=
 OpenBabel10232410463D

 35 39  0  0  1  0  0  0  0  0999 V2000
  188.7680  177.8970  147.0820 C   0  0  0  0  0  0  0  0  0  0  0  0
  190.0300  178.1780  146.5640 C   0  0  0  0  0  3  0  0  0  0  0  0
  189.8130  177.7000  142.2870 C   0  0  1  0  0  3  0  0  0  0  0  0
  191.1120  178.2630  142.9060 C   0  0  2  0  0  3  0  0  0  0  0  0
  190.1020  177.9260  145.1900 C   0  0  0  0  0  0  0  0  0  0  0  0
  191.1210  176.9480  142.1500 C   0  0  2  0  0  3  0  0  0  0  0  0
  187.7930  177.2590  145.8620 S   0  0  0  0  0  0  0  0  0  0  0  0
  188.8640  176.9350  143.2300 C   0  0  1  0  0  3  0  0  0  0  0  0
  191.3630  177.9850  144.3960 C   0  0  0  0  0  2  0  0  0  0  0  0
  188.9380  177.4330  144.6410 C   0  0  0  0  0  0  0  0  0  0  0  0
  188.3920  177.9730  148.5260 C   0  0  0  0  0  0  0  0  0  0  0  0
  187.4390  178.9550  148.7160 F   0  0  0  0  0  0  0  0  0  0  0  0
  189.5050  178.2730  149.2920 F   0  0  0  0  0  0  0  0  0  0  0  0
  187.8780  176.7550  148.9300 F   0  0  0  0  0  0  0  0  0  0  0  0
  191.6810  177.1740  140.7590 C   0  0  0  0  0  2  0  0  0  0  0  0
  190.6910  176.7000  139.7080 C   0  0  0  0  0  2  0  0  0  0  0  0
  191.0280  177.2580  138.4070 N   0  0  0  0  0  0  0  0  0  0  0  0
  189.7750  177.4550  137.6990 C   0  0  0  0  0  1  0  0  0  0  0  0
  191.5890  176.1140  136.0680 O   0  0  0  0  0  0  0  0  0  0  0  0
  191.9390  176.0660  137.5310 S   0  0  0  0  0  0  0  0  0  0  0  0
  191.6300  174.6980  138.0700 O   0  0  0  0  0  0  0  0  0  0  0  0
  193.6280  176.3750  137.7220 N   0  0  0  0  0  1  0  0  0  0  0  0
  187.4330  176.9140  142.6810 C   0  0  0  0  0  2  0  0  0  0  0  0
  185.4960  178.2990  143.1920 O   0  0  0  0  0  0  0  0  0  0  0  0
  187.4450  178.7470  140.1380 O   0  0  0  0  0  1  0  0  0  0  0  0
  181.1310  179.0370  141.3480 O   0  0  0  0  0  0  0  0  0  0  0  0
  184.9420  179.2580  138.6430 O   0  0  0  0  0  0  0  0  0  0  0  0
  184.4030  179.0760  139.7660 C   0  0  0  0  0  0  0  0  0  0  0  0
  185.1890  178.7680  140.9620 C   0  0  0  0  0  0  0  0  0  0  0  0
  186.7920  178.3000  142.5820 C   0  0  2  0  0  3  0  0  0  0  0  0
  182.3790  178.9560  141.2170 C   0  0  0  0  0  0  0  0  0  0  0  0
  186.4900  178.6190  141.1400 C   0  0  0  0  0  0  0  0  0  0  0  0
  182.9800  179.1650  139.9230 N   0  0  0  0  0  2  0  0  0  0  0  0
  184.5450  178.5710  142.2260 C   0  0  0  0  0  0  0  0  0  0  0  0
  183.2260  178.6490  142.3960 C   0  0  0  0  0  3  0  0  0  0  0  0
  1 11  1  0  0  0  0
  2  1  2  0  0  0  0
  3  4  1  0  0  0  0
  3  8  1  0  0  0  0
  4  9  1  0  0  0  0
  5  2  1  0  0  0  0
  6  3  1  0  0  0  0
  6  4  1  0  0  0  0
  7  1  1  0  0  0  0
  8 10  1  0  0  0  0
  9  5  1  0  0  0  0
 10  5  2  0  0  0  0
 10  7  1  0  0  0  0
 11 12  1  0  0  0  0
 11 14  1  0  0  0  0
 11 13  1  0  0  0  0
 15  6  1  0  0  0  0
 16 15  1  0  0  0  0
 17 16  1  0  0  0  0
 18 17  1  0  0  0  0
 19 20  2  0  0  0  0
 20 22  1  0  0  0  0
 20 21  2  0  0  0  0
 20 17  1  0  0  0  0
 23  8  1  0  0  0  0
 25 32  1  0  0  0  0
 27 28  2  0  0  0  0
 28 33  1  0  0  0  0
 28 29  1  0  0  0  0
 29 32  2  0  0  0  0
 29 34  1  0  0  0  0
 30 23  1  0  0  0  0
 30 24  1  0  0  0  0
 31 26  2  0  0  0  0
 31 35  1  0  0  0  0
 32 30  1  0  0  0  0
 33 31  1  0  0  0  0
 34 35  2  0  0  0  0
 34 24  1  0  0  0  0
M  END
>  <MODEL>
5

>  <REMARK>
 VINA RESULT:      -8.9      2.592      6.203
  Name = 
  7 active torsions:
  status: ('A' for Active; 'I' for Inactive)
    1  A    between atoms: C_1  and  C_3
    2  A    between atoms: C_2  and  C_24
    3  A    between atoms: C_2  and  N_31
    4  A    between atoms: S_7  and  N_31
    5  A    between atoms: C_14  and  C_27
    6  A    between atoms: C_21  and  C_24
    7  A    between atoms: C_27  and  C_32
                            x       y       z     vdW  Elec       q    Type
                         _______ _______ _______ _____ _____    ______ ____

>  <TORSDO>
F 7

$$$$
=
 OpenBabel10232410463D

 35 39  0  0  1  0  0  0  0  0999 V2000
  188.3100  177.8330  146.8080 C   0  0  0  0  0  0  0  0  0  0  0  0
  189.4380  177.5510  146.0420 C   0  0  0  0  0  3  0  0  0  0  0  0
  188.3990  178.2080  141.9120 C   0  0  1  0  0  3  0  0  0  0  0  0
  189.8690  177.8910  142.2660 C   0  0  2  0  0  3  0  0  0  0  0  0
  189.1700  177.6080  144.6710 C   0  0  0  0  0  0  0  0  0  0  0  0
  189.0660  176.9540  141.3840 C   0  0  2  0  0  3  0  0  0  0  0  0
  186.9840  178.0580  145.7890 S   0  0  0  0  0  0  0  0  0  0  0  0
  187.3320  177.8340  142.9590 C   0  0  1  0  0  3  0  0  0  0  0  0
  190.1390  177.2020  143.6130 C   0  0  0  0  0  2  0  0  0  0  0  0
  187.8590  177.9000  144.3600 C   0  0  0  0  0  0  0  0  0  0  0  0
  188.2410  177.7640  148.2990 C   0  0  0  0  0  0  0  0  0  0  0  0
  187.8890  176.4870  148.6970 F   0  0  0  0  0  0  0  0  0  0  0  0
  187.2980  178.6580  148.7740 F   0  0  0  0  0  0  0  0  0  0  0  0
  189.4770  178.0810  148.8300 F   0  0  0  0  0  0  0  0  0  0  0  0
  189.4570  177.1710  139.9360 C   0  0  0  0  0  2  0  0  0  0  0  0
  188.4100  178.0140  139.2270 C   0  0  0  0  0  2  0  0  0  0  0  0
  187.7210  177.2220  138.2190 N   0  0  0  0  0  0  0  0  0  0  0  0
  188.7320  176.7730  137.2770 C   0  0  0  0  0  1  0  0  0  0  0  0
  187.4050  179.3750  136.6840 O   0  0  0  0  0  0  0  0  0  0  0  0
  186.6370  178.2710  137.3590 S   0  0  0  0  0  0  0  0  0  0  0  0
  185.6470  178.8690  138.3180 O   0  0  0  0  0  0  0  0  0  0  0  0
  185.7800  177.3620  136.1650 N   0  0  0  0  0  1  0  0  0  0  0  0
  186.0520  178.6550  142.7660 C   0  0  0  0  0  2  0  0  0  0  0  0
  184.4370  177.6220  141.2650 O   0  0  0  0  0  0  0  0  0  0  0  0
  183.4740  178.9550  144.5240 O   0  0  0  0  0  1  0  0  0  0  0  0
  180.5780  179.0090  138.7770 O   0  0  0  0  0  0  0  0  0  0  0  0
  180.9580  179.9710  143.3390 O   0  0  0  0  0  0  0  0  0  0  0  0
  181.4190  179.4630  142.2840 C   0  0  0  0  0  0  0  0  0  0  0  0
  182.7130  178.7800  142.2530 C   0  0  0  0  0  0  0  0  0  0  0  0
  184.7880  177.8020  142.6410 C   0  0  2  0  0  3  0  0  0  0  0  0
  181.2270  178.9450  139.8530 C   0  0  0  0  0  0  0  0  0  0  0  0
  183.6080  178.5560  143.1990 C   0  0  0  0  0  0  0  0  0  0  0  0
  180.6850  179.5330  141.0530 N   0  0  0  0  0  2  0  0  0  0  0  0
  183.2070  178.2090  141.0350 C   0  0  0  0  0  0  0  0  0  0  0  0
  182.5430  178.2620  139.8800 C   0  0  0  0  0  3  0  0  0  0  0  0
  1 11  1  0  0  0  0
  2  1  2  0  0  0  0
  3  4  1  0  0  0  0
  3  8  1  0  0  0  0
  4  9  1  0  0  0  0
  5  2  1  0  0  0  0
  6  3  1  0  0  0  0
  6  4  1  0  0  0  0
  7  1  1  0  0  0  0
  8 10  1  0  0  0  0
  9  5  1  0  0  0  0
 10  5  2  0  0  0  0
 10  7  1  0  0  0  0
 11 12  1  0  0  0  0
 11 13  1  0  0  0  0
 11 14  1  0  0  0  0
 15  6  1  0  0  0  0
 16 15  1  0  0  0  0
 17 16  1  0  0  0  0
 18 17  1  0  0  0  0
 19 20  2  0  0  0  0
 20 17  1  0  0  0  0
 20 21  2  0  0  0  0
 22 20  1  0  0  0  0
 23  8  1  0  0  0  0
 24 30  1  0  0  0  0
 26 31  2  0  0  0  0
 28 27  2  0  0  0  0
 29 28  1  0  0  0  0
 29 32  2  0  0  0  0
 30 23  1  0  0  0  0
 30 32  1  0  0  0  0
 31 35  1  0  0  0  0
 31 33  1  0  0  0  0
 32 25  1  0  0  0  0
 33 28  1  0  0  0  0
 34 24  1  0  0  0  0
 34 29  1  0  0  0  0
 35 34  2  0  0  0  0
M  END
>  <MODEL>
6

>  <REMARK>
 VINA RESULT:      -8.6      2.524      5.930
  Name = 
  7 active torsions:
  status: ('A' for Active; 'I' for Inactive)
    1  A    between atoms: C_1  and  C_3
    2  A    between atoms: C_2  and  C_24
    3  A    between atoms: C_2  and  N_31
    4  A    between atoms: S_7  and  N_31
    5  A    between atoms: C_14  and  C_27
    6  A    between atoms: C_21  and  C_24
    7  A    between atoms: C_27  and  C_32
                            x       y       z     vdW  Elec       q    Type
                         _______ _______ _______ _____ _____    ______ ____

>  <TORSDO>
F 7

$$$$
=
 OpenBabel10232410463D

 35 39  0  0  1  0  0  0  0  0999 V2000
  189.7940  177.1190  146.0610 C   0  0  0  0  0  0  0  0  0  0  0  0
  188.4290  177.0160  146.3150 C   0  0  0  0  0  3  0  0  0  0  0  0
  186.3520  178.1570  142.7150 C   0  0  1  0  0  3  0  0  0  0  0  0
  185.5330  177.5970  143.8990 C   0  0  2  0  0  3  0  0  0  0  0  0
  187.6590  177.4900  145.2470 C   0  0  0  0  0  0  0  0  0  0  0  0
  185.3090  179.0130  143.4040 C   0  0  2  0  0  3  0  0  0  0  0  0
  190.0310  177.8740  144.5710 S   0  0  0  0  0  0  0  0  0  0  0  0
  187.7620  178.6910  143.0330 C   0  0  1  0  0  3  0  0  0  0  0  0
  186.1780  177.6500  145.2930 C   0  0  0  0  0  2  0  0  0  0  0  0
  188.3950  177.9800  144.1900 C   0  0  0  0  0  0  0  0  0  0  0  0
  190.8790  176.7870  147.0340 C   0  0  0  0  0  0  0  0  0  0  0  0
  190.7290  175.4880  147.4820 F   0  0  0  0  0  0  0  0  0  0  0  0
  190.8250  177.6440  148.1180 F   0  0  0  0  0  0  0  0  0  0  0  0
  192.1060  176.9160  146.4130 F   0  0  0  0  0  0  0  0  0  0  0  0
  184.0570  179.0540  142.5510 C   0  0  0  0  0  2  0  0  0  0  0  0
  184.3160  178.4030  141.2020 C   0  0  0  0  0  2  0  0  0  0  0  0
  183.0670  178.2290  140.4760 N   0  0  0  0  0  0  0  0  0  0  0  0
  183.0770  176.8780  139.9430 C   0  0  0  0  0  1  0  0  0  0  0  0
  184.2950  180.1990  139.1710 O   0  0  0  0  0  0  0  0  0  0  0  0
  183.0730  179.3220  139.1260 S   0  0  0  0  0  0  0  0  0  0  0  0
  181.8420  180.1830  139.1680 O   0  0  0  0  0  0  0  0  0  0  0  0
  183.0750  178.4190  137.6530 N   0  0  0  0  0  1  0  0  0  0  0  0
  188.6490  178.6980  141.7820 C   0  0  0  0  0  2  0  0  0  0  0  0
  189.7970  176.7770  140.8200 O   0  0  0  0  0  0  0  0  0  0  0  0
  187.0420  178.4480  139.1020 O   0  0  0  0  0  1  0  0  0  0  0  0
  192.5670  175.9010  137.0040 O   0  0  0  0  0  0  0  0  0  0  0  0
  188.4600  178.0900  136.5280 O   0  0  0  0  0  0  0  0  0  0  0  0
  189.3310  177.5380  137.2500 C   0  0  0  0  0  0  0  0  0  0  0  0
  189.1710  177.4120  138.7000 C   0  0  0  0  0  0  0  0  0  0  0  0
  188.5260  177.4290  140.9350 C   0  0  2  0  0  3  0  0  0  0  0  0
  191.5170  176.3710  137.5150 C   0  0  0  0  0  0  0  0  0  0  0  0
  188.2010  177.7990  139.5100 C   0  0  0  0  0  0  0  0  0  0  0  0
  190.5300  177.0010  136.6740 N   0  0  0  0  0  2  0  0  0  0  0  0
  190.1790  176.7740  139.4910 C   0  0  0  0  0  0  0  0  0  0  0  0
  191.3010  176.2690  138.9790 C   0  0  0  0  0  3  0  0  0  0  0  0
  1  2  2  0  0  0  0
  1 11  1  0  0  0  0
  3  8  1  0  0  0  0
  3  6  1  0  0  0  0
  3  4  1  0  0  0  0
  4  9  1  0  0  0  0
  5  9  1  0  0  0  0
  5  2  1  0  0  0  0
  6  4  1  0  0  0  0
  7  1  1  0  0  0  0
  8 10  1  0  0  0  0
 10  7  1  0  0  0  0
 10  5  2  0  0  0  0
 11 12  1  0  0  0  0
 11 13  1  0  0  0  0
 14 11  1  0  0  0  0
 15  6  1  0  0  0  0
 16 15  1  0  0  0  0
 17 16  1  0  0  0  0
 18 17  1  0  0  0  0
 20 21  2  0  0  0  0
 20 19  2  0  0  0  0
 20 17  1  0  0  0  0
 22 20  1  0  0  0  0
 23  8  1  0  0  0  0
 24 30  1  0  0  0  0
 25 32  1  0  0  0  0
 26 31  2  0  0  0  0
 27 28  2  0  0  0  0
 28 29  1  0  0  0  0
 29 34  1  0  0  0  0
 29 32  2  0  0  0  0
 30 23  1  0  0  0  0
 31 35  1  0  0  0  0
 32 30  1  0  0  0  0
 33 28  1  0  0  0  0
 33 31  1  0  0  0  0
 34 24  1  0  0  0  0
 35 34  2  0  0  0  0
M  END
>  <MODEL>
7

>  <REMARK>
 VINA RESULT:      -8.6      1.462      2.347
  Name = 
  7 active torsions:
  status: ('A' for Active; 'I' for Inactive)
    1  A    between atoms: C_1  and  C_3
    2  A    between atoms: C_2  and  C_24
    3  A    between atoms: C_2  and  N_31
    4  A    between atoms: S_7  and  N_31
    5  A    between atoms: C_14  and  C_27
    6  A    between atoms: C_21  and  C_24
    7  A    between atoms: C_27  and  C_32
                            x       y       z     vdW  Elec       q    Type
                         _______ _______ _______ _____ _____    ______ ____

>  <TORSDO>
F 7

$$$$
=
 OpenBabel10232410463D

 35 39  0  0  1  0  0  0  0  0999 V2000
  189.9450  176.7240  137.9610 C   0  0  0  0  0  0  0  0  0  0  0  0
  191.1170  176.7530  138.7120 C   0  0  0  0  0  3  0  0  0  0  0  0
  190.0050  177.3570  142.8320 C   0  0  1  0  0  3  0  0  0  0  0  0
  191.4860  177.0700  142.4970 C   0  0  2  0  0  3  0  0  0  0  0  0
  190.8760  177.0750  140.0520 C   0  0  0  0  0  0  0  0  0  0  0  0
  191.0760  178.3860  143.1300 C   0  0  2  0  0  3  0  0  0  0  0  0
  188.6460  177.1820  138.9350 S   0  0  0  0  0  0  0  0  0  0  0  0
  189.1110  177.8500  141.6770 C   0  0  1  0  0  3  0  0  0  0  0  0
  191.9480  177.3330  141.0540 C   0  0  0  0  0  2  0  0  0  0  0  0
  189.5520  177.3200  140.3470 C   0  0  0  0  0  0  0  0  0  0  0  0
  189.8720  176.5040  136.4850 C   0  0  0  0  0  0  0  0  0  0  0  0
  191.0730  176.0000  136.0220 F   0  0  0  0  0  0  0  0  0  0  0  0
  189.6070  177.6980  135.8390 F   0  0  0  0  0  0  0  0  0  0  0  0
  188.8620  175.6030  136.2050 F   0  0  0  0  0  0  0  0  0  0  0  0
  191.4000  178.3510  144.6110 C   0  0  0  0  0  2  0  0  0  0  0  0
  190.6920  177.1830  145.2780 C   0  0  0  0  0  2  0  0  0  0  0  0
  190.6780  177.3580  146.7230 N   0  0  0  0  0  0  0  0  0  0  0  0
  191.2280  176.1420  147.2970 C   0  0  0  0  0  1  0  0  0  0  0  0
  188.8680  178.5690  148.2550 O   0  0  0  0  0  0  0  0  0  0  0  0
  189.0230  177.4740  147.2350 S   0  0  0  0  0  0  0  0  0  0  0  0
  188.5900  176.1680  147.8390 O   0  0  0  0  0  0  0  0  0  0  0  0
  188.0200  177.8210  145.8720 N   0  0  0  0  0  1  0  0  0  0  0  0
  187.6300  177.5760  141.9650 C   0  0  0  0  0  2  0  0  0  0  0  0
  186.0320  178.8600  143.2790 O   0  0  0  0  0  0  0  0  0  0  0  0
  185.9350  178.8020  139.6300 O   0  0  0  0  0  1  0  0  0  0  0  0
  181.3080  178.7830  144.1030 O   0  0  0  0  0  0  0  0  0  0  0  0
  182.9770  178.7460  139.7330 O   0  0  0  0  0  0  0  0  0  0  0  0
  183.1630  178.7680  140.9780 C   0  0  0  0  0  0  0  0  0  0  0  0
  184.5060  178.8000  141.5600 C   0  0  0  0  0  0  0  0  0  0  0  0
  186.7780  178.8440  142.0570 C   0  0  2  0  0  3  0  0  0  0  0  0
  182.2850  178.7870  143.3100 C   0  0  0  0  0  0  0  0  0  0  0  0
  185.7030  178.8110  141.0010 C   0  0  0  0  0  0  0  0  0  0  0  0
  182.0540  178.7610  141.8870 N   0  0  0  0  0  2  0  0  0  0  0  0
  184.6820  178.8280  142.9810 C   0  0  0  0  0  0  0  0  0  0  0  0
  183.6680  178.8230  143.8460 C   0  0  0  0  0  3  0  0  0  0  0  0
  1  2  2  0  0  0  0
  1  7  1  0  0  0  0
  2  5  1  0  0  0  0
  3  6  1  0  0  0  0
  4  3  1  0  0  0  0
  4  6  1  0  0  0  0
  5 10  2  0  0  0  0
  5  9  1  0  0  0  0
  6 15  1  0  0  0  0
  7 10  1  0  0  0  0
  8 23  1  0  0  0  0
  8  3  1  0  0  0  0
  9  4  1  0  0  0  0
 10  8  1  0  0  0  0
 11  1  1  0  0  0  0
 12 11  1  0  0  0  0
 13 11  1  0  0  0  0
 14 11  1  0  0  0  0
 15 16  1  0  0  0  0
 16 17  1  0  0  0  0
 17 20  1  0  0  0  0
 17 18  1  0  0  0  0
 20 21  2  0  0  0  0
 20 19  2  0  0  0  0
 22 20  1  0  0  0  0
 23 30  1  0  0  0  0
 25 32  1  0  0  0  0
 27 28  2  0  0  0  0
 28 29  1  0  0  0  0
 28 33  1  0  0  0  0
 29 34  1  0  0  0  0
 30 24  1  0  0  0  0
 31 35  1  0  0  0  0
 31 26  2  0  0  0  0
 32 29  2  0  0  0  0
 32 30  1  0  0  0  0
 33 31  1  0  0  0  0
 34 24  1  0  0  0  0
 34 35  2  0  0  0  0
M  END
>  <MODEL>
8

>  <REMARK>
 VINA RESULT:      -8.4      4.507      7.956
  Name = 
  7 active torsions:
  status: ('A' for Active; 'I' for Inactive)
    1  A    between atoms: C_1  and  C_3
    2  A    between atoms: C_2  and  C_24
    3  A    between atoms: C_2  and  N_31
    4  A    between atoms: S_7  and  N_31
    5  A    between atoms: C_14  and  C_27
    6  A    between atoms: C_21  and  C_24
    7  A    between atoms: C_27  and  C_32
                            x       y       z     vdW  Elec       q    Type
                         _______ _______ _______ _____ _____    ______ ____

>  <TORSDO>
F 7

$$$$
=
 OpenBabel10232410463D

 35 39  0  0  1  0  0  0  0  0999 V2000
  182.8010  178.7420  142.2620 C   0  0  0  0  0  0  0  0  0  0  0  0
  182.9210  179.2440  143.5560 C   0  0  0  0  0  3  0  0  0  0  0  0
  186.8690  178.2500  144.9710 C   0  0  1  0  0  3  0  0  0  0  0  0
  185.9750  179.1610  145.8420 C   0  0  2  0  0  3  0  0  0  0  0  0
  184.1250  178.8620  144.1580 C   0  0  0  0  0  0  0  0  0  0  0  0
  186.4300  177.8060  146.3510 C   0  0  2  0  0  3  0  0  0  0  0  0
  184.1320  177.7650  141.9160 S   0  0  0  0  0  0  0  0  0  0  0  0
  186.1630  177.4000  143.8970 C   0  0  1  0  0  3  0  0  0  0  0  0
  184.4600  179.1170  145.5880 C   0  0  0  0  0  2  0  0  0  0  0  0
  184.9220  178.0570  143.3730 C   0  0  0  0  0  0  0  0  0  0  0  0
  181.5990  178.8920  141.3880 C   0  0  0  0  0  0  0  0  0  0  0  0
  181.0690  177.6490  141.0960 F   0  0  0  0  0  0  0  0  0  0  0  0
  181.9450  179.5220  140.2060 F   0  0  0  0  0  0  0  0  0  0  0  0
  180.6460  179.6490  142.0440 F   0  0  0  0  0  0  0  0  0  0  0  0
  187.5780  177.9960  147.3220 C   0  0  0  0  0  2  0  0  0  0  0  0
  188.8080  177.2470  146.8380 C   0  0  0  0  0  2  0  0  0  0  0  0
  189.7210  177.0030  147.9450 N   0  0  0  0  0  0  0  0  0  0  0  0
  189.9070  178.2760  148.6210 C   0  0  0  0  0  1  0  0  0  0  0  0
  191.3080  175.0460  147.0840 O   0  0  0  0  0  0  0  0  0  0  0  0
  191.2580  176.5360  147.2830 S   0  0  0  0  0  0  0  0  0  0  0  0
  192.3570  176.9500  148.2210 O   0  0  0  0  0  0  0  0  0  0  0  0
  191.4930  177.3220  145.7620 N   0  0  0  0  0  1  0  0  0  0  0  0
  187.1340  176.9910  142.7830 C   0  0  0  0  0  2  0  0  0  0  0  0
  187.2370  178.3890  140.7930 O   0  0  0  0  0  0  0  0  0  0  0  0
  190.2170  177.5570  142.7300 O   0  0  0  0  0  1  0  0  0  0  0  0
  189.1560  178.1060  136.4060 O   0  0  0  0  0  0  0  0  0  0  0  0
  191.7500  177.2860  140.2120 O   0  0  0  0  0  0  0  0  0  0  0  0
  190.6490  177.5840  139.6790 C   0  0  0  0  0  0  0  0  0  0  0  0
  189.4480  177.8460  140.4730 C   0  0  0  0  0  0  0  0  0  0  0  0
  187.8070  178.1760  142.0890 C   0  0  2  0  0  3  0  0  0  0  0  0
  189.2580  178.0230  137.6570 C   0  0  0  0  0  0  0  0  0  0  0  0
  189.2430  177.8360  141.7790 C   0  0  0  0  0  0  0  0  0  0  0  0
  190.5260  177.6790  138.2530 N   0  0  0  0  0  2  0  0  0  0  0  0
  188.2130  178.1870  139.8350 C   0  0  0  0  0  0  0  0  0  0  0  0
  188.0730  178.2820  138.5120 C   0  0  0  0  0  3  0  0  0  0  0  0
  1  2  2  0  0  0  0
  2  5  1  0  0  0  0
  3  4  1  0  0  0  0
  3  6  1  0  0  0  0
  4  6  1  0  0  0  0
  5  9  1  0  0  0  0
  6 15  1  0  0  0  0
  7  1  1  0  0  0  0
  7 10  1  0  0  0  0
  8  3  1  0  0  0  0
  9  4  1  0  0  0  0
 10  8  1  0  0  0  0
 10  5  2  0  0  0  0
 11 14  1  0  0  0  0
 11  1  1  0  0  0  0
 12 11  1  0  0  0  0
 13 11  1  0  0  0  0
 16 15  1  0  0  0  0
 16 17  1  0  0  0  0
 17 18  1  0  0  0  0
 19 20  2  0  0  0  0
 20 17  1  0  0  0  0
 20 21  2  0  0  0  0
 22 20  1  0  0  0  0
 23  8  1  0  0  0  0
 24 30  1  0  0  0  0
 26 31  2  0  0  0  0
 28 27  2  0  0  0  0
 28 29  1  0  0  0  0
 29 32  2  0  0  0  0
 30 23  1  0  0  0  0
 31 33  1  0  0  0  0
 31 35  1  0  0  0  0
 32 30  1  0  0  0  0
 32 25  1  0  0  0  0
 33 28  1  0  0  0  0
 34 29  1  0  0  0  0
 34 24  1  0  0  0  0
 35 34  2  0  0  0  0
M  END
>  <MODEL>
9

>  <REMARK>
 VINA RESULT:      -8.3      4.671      6.800
  Name = 
  7 active torsions:
  status: ('A' for Active; 'I' for Inactive)
    1  A    between atoms: C_1  and  C_3
    2  A    between atoms: C_2  and  C_24
    3  A    between atoms: C_2  and  N_31
    4  A    between atoms: S_7  and  N_31
    5  A    between atoms: C_14  and  C_27
    6  A    between atoms: C_21  and  C_24
    7  A    between atoms: C_27  and  C_32
                            x       y       z     vdW  Elec       q    Type
                         _______ _______ _______ _____ _____    ______ ____

>  <TORSDO>
F 7

$$$$
