=
 OpenBabel10232409453D

 25 28  0  0  1  0  0  0  0  0999 V2000
  186.4740  178.2340  142.3350 N   0  0  0  0  0  0  0  0  0  0  0  0
  187.2860  177.8120  146.3820 C   0  0  0  0  0  3  0  0  0  0  0  0
  186.7210  178.1010  143.6630 C   0  0  0  0  0  0  0  0  0  0  0  0
  184.4160  178.6740  144.1030 C   0  0  0  0  0  0  0  0  0  0  0  0
  183.3030  178.9170  144.9590 N   0  0  0  0  0  1  0  0  0  0  0  0
  185.0010  178.7160  140.4250 C   0  0  0  0  0  1  0  0  0  0  0  0
  188.2960  177.5970  145.4410 C   0  0  0  0  0  0  0  0  0  0  0  0
  185.9930  178.1680  145.9900 C   0  0  0  0  0  0  0  0  0  0  0  0
  185.2440  178.5760  141.8840 C   0  0  0  0  0  0  0  0  0  0  0  0
  184.2330  178.7920  142.7620 N   0  0  0  0  0  0  0  0  0  0  0  0
  188.0050  177.7460  144.0820 C   0  0  0  0  0  3  0  0  0  0  0  0
  184.9950  178.3690  147.0820 C   0  0  0  0  0  1  0  0  0  0  0  0
  185.6900  178.3180  144.6100 C   0  0  0  0  0  0  0  0  0  0  0  0
  191.5340  175.3140  146.7440 N   0  0  0  0  0  2  0  0  0  0  0  0
  189.6570  177.2240  145.8760 C   0  0  0  0  0  0  0  0  0  0  0  0
  190.7700  176.8440  144.9670 C   0  0  2  0  0  3  0  0  0  0  0  0
  191.9030  176.4860  145.9320 C   0  0  1  0  0  3  0  0  0  0  0  0
  189.9760  177.1030  147.1160 N   0  0  0  0  0  0  0  0  0  0  0  0
  191.3560  176.6720  147.2860 C   0  0  1  0  0  3  0  0  0  0  0  0
  191.1790  177.9930  144.0870 C   0  0  0  0  0  0  0  0  0  0  0  0
  191.5540  179.0810  144.6010 O   0  0  0  0  0  0  0  0  0  0  0  0
  191.1330  177.8750  142.6650 N   0  0  0  0  0  2  0  0  0  0  0  0
  190.7070  176.6570  141.9950 C   0  0  0  0  0  2  0  0  0  0  0  0
  189.0580  177.2580  140.0500 N   0  0  0  0  0  0  0  0  0  0  0  0
  189.7860  176.9930  140.9090 C   0  0  0  0  0  0  0  0  0  0  0  0
  1  3  1  0  0  0  0
  3 11  2  0  0  0  0
  3 13  1  0  0  0  0
  4 13  1  0  0  0  0
  4  5  1  0  0  0  0
  6  9  1  0  0  0  0
  7 15  1  0  0  0  0
  7  2  2  0  0  0  0
  8  2  1  0  0  0  0
  8 12  1  0  0  0  0
  9  1  2  0  0  0  0
  9 10  1  0  0  0  0
 10  4  2  0  0  0  0
 11  7  1  0  0  0  0
 13  8  2  0  0  0  0
 15 18  2  0  0  0  0
 16 20  1  6  0  0  0
 16 15  1  0  0  0  0
 16 17  1  0  0  0  0
 17 14  1  1  0  0  0
 17 19  1  0  0  0  0
 18 19  1  0  0  0  0
 19 14  1  1  0  0  0
 20 21  2  0  0  0  0
 22 20  1  0  0  0  0
 23 22  1  0  0  0  0
 24 25  3  0  0  0  0
 25 23  1  0  0  0  0
M  END
>  <MODEL>
1

>  <REMARK>
 VINA RESULT:      -8.7      0.000      0.000
  Name = 
  4 active torsions:
  status: ('A' for Active; 'I' for Inactive)
    1  A    between atoms: C_4  and  C_11
    2  A    between atoms: C_5  and  C_10
    3  A    between atoms: C_12  and  C_22
    4  A    between atoms: C_12  and  N_23
                            x       y       z     vdW  Elec       q    Type
                         _______ _______ _______ _____ _____    ______ ____

>  <TORSDO>
F 4

$$$$
=
 OpenBabel10232409453D

 25 28  0  0  1  0  0  0  0  0999 V2000
  184.2980  178.5630  143.1520 N   0  0  0  0  0  0  0  0  0  0  0  0
  188.1360  177.6180  144.4100 C   0  0  0  0  0  3  0  0  0  0  0  0
  185.5480  178.2570  143.5820 C   0  0  0  0  0  0  0  0  0  0  0  0
  184.8000  178.5960  145.8540 C   0  0  0  0  0  0  0  0  0  0  0  0
  184.9860  178.6330  147.2660 N   0  0  0  0  0  1  0  0  0  0  0  0
  181.9550  179.2120  143.5300 C   0  0  0  0  0  1  0  0  0  0  0  0
  187.8270  177.6140  143.0470 C   0  0  0  0  0  0  0  0  0  0  0  0
  187.1730  177.9340  145.3720 C   0  0  0  0  0  0  0  0  0  0  0  0
  183.3150  178.8790  144.0280 C   0  0  0  0  0  0  0  0  0  0  0  0
  183.5700  178.8930  145.3600 N   0  0  0  0  0  0  0  0  0  0  0  0
  186.5290  177.9360  142.6420 C   0  0  0  0  0  3  0  0  0  0  0  0
  187.6170  177.9030  146.7970 C   0  0  0  0  0  1  0  0  0  0  0  0
  185.8520  178.2610  144.9660 C   0  0  0  0  0  0  0  0  0  0  0  0
  190.8120  178.0340  140.1640 N   0  0  0  0  0  2  0  0  0  0  0  0
  188.8600  177.2780  142.0470 C   0  0  0  0  0  0  0  0  0  0  0  0
  190.2920  177.0200  142.3510 C   0  0  2  0  0  3  0  0  0  0  0  0
  190.9090  176.8030  140.9670 C   0  0  1  0  0  3  0  0  0  0  0  0
  188.6200  177.2710  140.7830 N   0  0  0  0  0  0  0  0  0  0  0  0
  189.8100  176.9660  140.0020 C   0  0  1  0  0  3  0  0  0  0  0  0
  190.4610  175.7870  143.1950 C   0  0  0  0  0  0  0  0  0  0  0  0
  190.0470  174.6720  142.7770 O   0  0  0  0  0  0  0  0  0  0  0  0
  191.0760  175.8630  144.4820 N   0  0  0  0  0  2  0  0  0  0  0  0
  191.5740  177.1100  145.0370 C   0  0  0  0  0  2  0  0  0  0  0  0
  191.7080  176.9150  147.6470 N   0  0  0  0  0  0  0  0  0  0  0  0
  191.6490  177.0010  146.4940 C   0  0  0  0  0  0  0  0  0  0  0  0
  1  3  1  0  0  0  0
  1  9  2  0  0  0  0
  2  8  1  0  0  0  0
  3 13  1  0  0  0  0
  4  5  1  0  0  0  0
  6  9  1  0  0  0  0
  7  2  2  0  0  0  0
  8 12  1  0  0  0  0
  9 10  1  0  0  0  0
 10  4  2  0  0  0  0
 11  7  1  0  0  0  0
 11  3  2  0  0  0  0
 13  8  2  0  0  0  0
 13  4  1  0  0  0  0
 15 16  1  0  0  0  0
 15  7  1  0  0  0  0
 16 20  1  1  0  0  0
 17 14  1  6  0  0  0
 17 16  1  0  0  0  0
 18 15  2  0  0  0  0
 19 14  1  6  0  0  0
 19 18  1  0  0  0  0
 19 17  1  0  0  0  0
 20 22  1  0  0  0  0
 21 20  2  0  0  0  0
 22 23  1  0  0  0  0
 23 25  1  0  0  0  0
 25 24  3  0  0  0  0
M  END
>  <MODEL>
2

>  <REMARK>
 VINA RESULT:      -8.3      1.694      4.110
  Name = 
  4 active torsions:
  status: ('A' for Active; 'I' for Inactive)
    1  A    between atoms: C_4  and  C_11
    2  A    between atoms: C_5  and  C_10
    3  A    between atoms: C_12  and  C_22
    4  A    between atoms: C_12  and  N_23
                            x       y       z     vdW  Elec       q    Type
                         _______ _______ _______ _____ _____    ______ ____

>  <TORSDO>
F 4

$$$$
=
 OpenBabel10232409453D

 25 28  0  0  1  0  0  0  0  0999 V2000
  187.8910  177.6830  144.3600 N   0  0  0  0  0  0  0  0  0  0  0  0
  184.5890  178.7530  142.0890 C   0  0  0  0  0  3  0  0  0  0  0  0
  186.8000  178.0360  143.6330 C   0  0  0  0  0  0  0  0  0  0  0  0
  185.5890  178.3680  145.6970 C   0  0  0  0  0  0  0  0  0  0  0  0
  184.4340  178.7100  146.4570 N   0  0  0  0  0  1  0  0  0  0  0  0
  189.0620  177.2750  146.4850 C   0  0  0  0  0  1  0  0  0  0  0  0
  185.7850  178.3990  141.4580 C   0  0  0  0  0  0  0  0  0  0  0  0
  184.4760  178.7590  143.4810 C   0  0  0  0  0  0  0  0  0  0  0  0
  187.8530  177.6670  145.7140 C   0  0  0  0  0  0  0  0  0  0  0  0
  186.7140  178.0050  146.3670 N   0  0  0  0  0  0  0  0  0  0  0  0
  186.8860  178.0400  142.2400 C   0  0  0  0  0  3  0  0  0  0  0  0
  183.1520  179.1570  144.0420 C   0  0  0  0  0  1  0  0  0  0  0  0
  185.5930  178.3970  144.2810 C   0  0  0  0  0  0  0  0  0  0  0  0
  186.2540  177.0610  137.5360 N   0  0  0  0  0  2  0  0  0  0  0  0
  185.8830  178.3980  139.9850 C   0  0  0  0  0  0  0  0  0  0  0  0
  184.7320  178.2720  139.0530 C   0  0  2  0  0  3  0  0  0  0  0  0
  185.3990  178.2530  137.6750 C   0  0  1  0  0  3  0  0  0  0  0  0
  187.0120  178.4150  139.3680 N   0  0  0  0  0  0  0  0  0  0  0  0
  186.8470  178.3530  137.9240 C   0  0  1  0  0  3  0  0  0  0  0  0
  183.8020  179.4480  139.1640 C   0  0  0  0  0  0  0  0  0  0  0  0
  184.2350  180.6170  138.9760 O   0  0  0  0  0  0  0  0  0  0  0  0
  182.4260  179.2610  139.4980 N   0  0  0  0  0  2  0  0  0  0  0  0
  181.8520  177.9470  139.7350 C   0  0  0  0  0  2  0  0  0  0  0  0
  180.2980  178.0390  141.8430 N   0  0  0  0  0  0  0  0  0  0  0  0
  180.9840  177.9980  140.9110 C   0  0  0  0  0  0  0  0  0  0  0  0
  1  9  2  0  0  0  0
  2  8  1  0  0  0  0
  3 13  1  0  0  0  0
  3  1  1  0  0  0  0
  4 10  2  0  0  0  0
  4  5  1  0  0  0  0
  7  2  2  0  0  0  0
  7 11  1  0  0  0  0
  8 12  1  0  0  0  0
  8 13  2  0  0  0  0
  9 10  1  0  0  0  0
  9  6  1  0  0  0  0
 11  3  2  0  0  0  0
 13  4  1  0  0  0  0
 15  7  1  0  0  0  0
 16 20  1  6  0  0  0
 16 15  1  0  0  0  0
 17 14  1  1  0  0  0
 17 19  1  0  0  0  0
 17 16  1  0  0  0  0
 18 15  2  0  0  0  0
 19 14  1  1  0  0  0
 19 18  1  0  0  0  0
 20 22  1  0  0  0  0
 21 20  2  0  0  0  0
 22 23  1  0  0  0  0
 23 25  1  0  0  0  0
 25 24  3  0  0  0  0
M  END
>  <MODEL>
3

>  <REMARK>
 VINA RESULT:      -7.8      3.064      6.993
  Name = 
  4 active torsions:
  status: ('A' for Active; 'I' for Inactive)
    1  A    between atoms: C_4  and  C_11
    2  A    between atoms: C_5  and  C_10
    3  A    between atoms: C_12  and  C_22
    4  A    between atoms: C_12  and  N_23
                            x       y       z     vdW  Elec       q    Type
                         _______ _______ _______ _____ _____    ______ ____

>  <TORSDO>
F 4

$$$$
=
 OpenBabel10232409453D

 25 28  0  0  1  0  0  0  0  0999 V2000
  185.6890  178.2120  142.9550 N   0  0  0  0  0  0  0  0  0  0  0  0
  189.6970  177.1420  142.9520 C   0  0  0  0  0  3  0  0  0  0  0  0
  187.0000  177.8620  142.9730 C   0  0  0  0  0  0  0  0  0  0  0  0
  186.9330  177.9180  145.3880 C   0  0  0  0  0  0  0  0  0  0  0  0
  187.5110  177.7840  146.6830 N   0  0  0  0  0  1  0  0  0  0  0  0
  183.5670  178.7970  144.0550 C   0  0  0  0  0  1  0  0  0  0  0  0
  189.0160  177.3020  141.7420 C   0  0  0  0  0  0  0  0  0  0  0  0
  189.0540  177.3330  144.1780 C   0  0  0  0  0  0  0  0  0  0  0  0
  185.0020  178.4140  144.1050 C   0  0  0  0  0  0  0  0  0  0  0  0
  185.6230  178.2670  145.3010 N   0  0  0  0  0  0  0  0  0  0  0  0
  187.6660  177.6640  141.7620 C   0  0  0  0  0  3  0  0  0  0  0  0
  189.8800  177.1320  145.4040 C   0  0  0  0  0  1  0  0  0  0  0  0
  187.6810  177.6990  144.2050 C   0  0  0  0  0  0  0  0  0  0  0  0
  190.7850  175.4130  138.4710 N   0  0  0  0  0  2  0  0  0  0  0  0
  189.7140  177.0970  140.4580 C   0  0  0  0  0  0  0  0  0  0  0  0
  189.0550  177.0450  139.1260 C   0  0  2  0  0  3  0  0  0  0  0  0
  190.2140  176.7380  138.1740 C   0  0  1  0  0  3  0  0  0  0  0  0
  190.9740  176.8470  140.3890 N   0  0  0  0  0  0  0  0  0  0  0  0
  191.4150  176.6280  139.0190 C   0  0  1  0  0  3  0  0  0  0  0  0
  188.4250  178.3630  138.7720 C   0  0  0  0  0  0  0  0  0  0  0  0
  188.9820  179.4420  139.1110 O   0  0  0  0  0  0  0  0  0  0  0  0
  187.1860  178.4130  138.0630 N   0  0  0  0  0  2  0  0  0  0  0  0
  186.4790  177.2150  137.6410 C   0  0  0  0  0  2  0  0  0  0  0  0
  183.8960  177.6270  137.7850 N   0  0  0  0  0  0  0  0  0  0  0  0
  185.0370  177.4450  137.7210 C   0  0  0  0  0  0  0  0  0  0  0  0
  1  3  1  0  0  0  0
  1  9  2  0  0  0  0
  2  8  1  0  0  0  0
  3 13  1  0  0  0  0
  4  5  1  0  0  0  0
  6  9  1  0  0  0  0
  7 11  1  0  0  0  0
  7  2  2  0  0  0  0
  8 13  2  0  0  0  0
  8 12  1  0  0  0  0
  9 10  1  0  0  0  0
 10  4  2  0  0  0  0
 11  3  2  0  0  0  0
 13  4  1  0  0  0  0
 15  7  1  0  0  0  0
 16 20  1  6  0  0  0
 16 15  1  0  0  0  0
 17 14  1  1  0  0  0
 17 19  1  0  0  0  0
 17 16  1  0  0  0  0
 18 15  2  0  0  0  0
 19 14  1  1  0  0  0
 19 18  1  0  0  0  0
 20 21  2  0  0  0  0
 22 20  1  0  0  0  0
 23 25  1  0  0  0  0
 23 22  1  0  0  0  0
 25 24  3  0  0  0  0
M  END
>  <MODEL>
4

>  <REMARK>
 VINA RESULT:      -7.7      2.519      5.177
  Name = 
  4 active torsions:
  status: ('A' for Active; 'I' for Inactive)
    1  A    between atoms: C_4  and  C_11
    2  A    between atoms: C_5  and  C_10
    3  A    between atoms: C_12  and  C_22
    4  A    between atoms: C_12  and  N_23
                            x       y       z     vdW  Elec       q    Type
                         _______ _______ _______ _____ _____    ______ ____

>  <TORSDO>
F 4

$$$$
=
 OpenBabel10232409453D

 25 28  0  0  1  0  0  0  0  0999 V2000
  186.8270  177.9310  143.9270 N   0  0  0  0  0  0  0  0  0  0  0  0
  190.0960  177.3130  141.4500 C   0  0  0  0  0  3  0  0  0  0  0  0
  187.9070  177.7240  143.1320 C   0  0  0  0  0  0  0  0  0  0  0  0
  189.1990  177.1930  145.1040 C   0  0  0  0  0  0  0  0  0  0  0  0
  190.3920  176.8140  145.7830 N   0  0  0  0  0  1  0  0  0  0  0  0
  185.7090  178.0120  146.1170 C   0  0  0  0  0  1  0  0  0  0  0  0
  188.8660  177.6860  140.9020 C   0  0  0  0  0  0  0  0  0  0  0  0
  190.2550  177.1380  142.8270 C   0  0  0  0  0  0  0  0  0  0  0  0
  186.9080  177.7790  145.2710 C   0  0  0  0  0  0  0  0  0  0  0  0
  188.0810  177.4150  145.8440 N   0  0  0  0  0  0  0  0  0  0  0  0
  187.7760  177.8920  141.7520 C   0  0  0  0  0  3  0  0  0  0  0  0
  191.6130  176.7360  143.2970 C   0  0  0  0  0  1  0  0  0  0  0  0
  189.1500  177.3430  143.6960 C   0  0  0  0  0  0  0  0  0  0  0  0
  188.8650  179.4600  137.1270 N   0  0  0  0  0  2  0  0  0  0  0  0
  188.7200  177.8670  139.4450 C   0  0  0  0  0  0  0  0  0  0  0  0
  189.7750  177.5790  138.4380 C   0  0  2  0  0  3  0  0  0  0  0  0
  189.1270  178.0110  137.1200 C   0  0  1  0  0  3  0  0  0  0  0  0
  187.6700  178.3910  138.9150 N   0  0  0  0  0  0  0  0  0  0  0  0
  187.7890  178.5130  137.4700 C   0  0  1  0  0  3  0  0  0  0  0  0
  190.1120  176.1150  138.3980 C   0  0  0  0  0  0  0  0  0  0  0  0
  189.1960  175.2580  138.2720 O   0  0  0  0  0  0  0  0  0  0  0  0
  191.4650  175.6740  138.5170 N   0  0  0  0  0  2  0  0  0  0  0  0
  192.5770  176.5980  138.6700 C   0  0  0  0  0  2  0  0  0  0  0  0
  194.1120  176.4780  136.5500 N   0  0  0  0  0  0  0  0  0  0  0  0
  193.4340  176.5310  137.4860 C   0  0  0  0  0  0  0  0  0  0  0  0
  1  9  2  0  0  0  0
  2  8  1  0  0  0  0
  3 13  1  0  0  0  0
  3  1  1  0  0  0  0
  4  5  1  0  0  0  0
  4 10  2  0  0  0  0
  7  2  2  0  0  0  0
  7 11  1  0  0  0  0
  8 12  1  0  0  0  0
  8 13  2  0  0  0  0
  9 10  1  0  0  0  0
  9  6  1  0  0  0  0
 11  3  2  0  0  0  0
 13  4  1  0  0  0  0
 15  7  1  0  0  0  0
 16 20  1  6  0  0  0
 16 15  1  0  0  0  0
 17 14  1  1  0  0  0
 17 19  1  0  0  0  0
 17 16  1  0  0  0  0
 18 15  2  0  0  0  0
 19 14  1  1  0  0  0
 19 18  1  0  0  0  0
 20 22  1  0  0  0  0
 21 20  2  0  0  0  0
 22 23  1  0  0  0  0
 24 25  3  0  0  0  0
 25 23  1  0  0  0  0
M  END
>  <MODEL>
5

>  <REMARK>
 VINA RESULT:      -7.7      3.102      6.321
  Name = 
  4 active torsions:
  status: ('A' for Active; 'I' for Inactive)
    1  A    between atoms: C_4  and  C_11
    2  A    between atoms: C_5  and  C_10
    3  A    between atoms: C_12  and  C_22
    4  A    between atoms: C_12  and  N_23
                            x       y       z     vdW  Elec       q    Type
                         _______ _______ _______ _____ _____    ______ ____

>  <TORSDO>
F 4

$$$$
=
 OpenBabel10232409453D

 25 28  0  0  1  0  0  0  0  0999 V2000
  188.6110  177.4120  145.1390 N   0  0  0  0  0  0  0  0  0  0  0  0
  187.2390  178.0420  141.2750 C   0  0  0  0  0  3  0  0  0  0  0  0
  188.1450  177.6240  143.8820 C   0  0  0  0  0  0  0  0  0  0  0  0
  186.0320  178.3100  144.8310 C   0  0  0  0  0  0  0  0  0  0  0  0
  184.6870  178.7750  144.7480 N   0  0  0  0  0  1  0  0  0  0  0  0
  188.3640  177.3960  147.5870 C   0  0  0  0  0  1  0  0  0  0  0  0
  188.5440  177.5880  141.4880 C   0  0  0  0  0  0  0  0  0  0  0  0
  186.3750  178.2940  142.3430 C   0  0  0  0  0  0  0  0  0  0  0  0
  187.8290  177.6360  146.2220 C   0  0  0  0  0  0  0  0  0  0  0  0
  186.5570  178.0790  146.0620 N   0  0  0  0  0  0  0  0  0  0  0  0
  188.9880  177.3800  142.7960 C   0  0  0  0  0  3  0  0  0  0  0  0
  185.0070  178.7780  141.9960 C   0  0  0  0  0  1  0  0  0  0  0  0
  186.8220  178.0870  143.6760 C   0  0  0  0  0  0  0  0  0  0  0  0
  190.8540  175.5590  138.6690 N   0  0  0  0  0  2  0  0  0  0  0  0
  189.4410  177.3260  140.3450 C   0  0  0  0  0  0  0  0  0  0  0  0
  189.0020  177.1660  138.9340 C   0  0  2  0  0  3  0  0  0  0  0  0
  190.3040  176.8410  138.1970 C   0  0  1  0  0  3  0  0  0  0  0  0
  190.7020  177.1170  140.4900 N   0  0  0  0  0  0  0  0  0  0  0  0
  191.3580  176.8280  139.2240 C   0  0  1  0  0  3  0  0  0  0  0  0
  188.4030  178.4360  138.3960 C   0  0  0  0  0  0  0  0  0  0  0  0
  188.9820  179.5390  138.5870 O   0  0  0  0  0  0  0  0  0  0  0  0
  187.1680  178.4130  137.6790 N   0  0  0  0  0  2  0  0  0  0  0  0
  186.4360  177.1840  137.4220 C   0  0  0  0  0  2  0  0  0  0  0  0
  183.8970  177.5490  137.9580 N   0  0  0  0  0  0  0  0  0  0  0  0
  185.0180  177.3880  137.7210 C   0  0  0  0  0  0  0  0  0  0  0  0
  1  9  2  0  0  0  0
  2  7  2  0  0  0  0
  2  8  1  0  0  0  0
  3  1  1  0  0  0  0
  4 10  2  0  0  0  0
  5  4  1  0  0  0  0
  7 11  1  0  0  0  0
  8 13  2  0  0  0  0
  9  6  1  0  0  0  0
 10  9  1  0  0  0  0
 11  3  2  0  0  0  0
 12  8  1  0  0  0  0
 13  3  1  0  0  0  0
 13  4  1  0  0  0  0
 15 18  2  0  0  0  0
 15  7  1  0  0  0  0
 16 20  1  6  0  0  0
 16 15  1  0  0  0  0
 17 14  1  1  0  0  0
 17 16  1  0  0  0  0
 17 19  1  0  0  0  0
 19 14  1  1  0  0  0
 19 18  1  0  0  0  0
 20 21  2  0  0  0  0
 22 20  1  0  0  0  0
 23 22  1  0  0  0  0
 23 25  1  0  0  0  0
 25 24  3  0  0  0  0
M  END
>  <MODEL>
6

>  <REMARK>
 VINA RESULT:      -7.6      2.647      5.478
  Name = 
  4 active torsions:
  status: ('A' for Active; 'I' for Inactive)
    1  A    between atoms: C_4  and  C_11
    2  A    between atoms: C_5  and  C_10
    3  A    between atoms: C_12  and  C_22
    4  A    between atoms: C_12  and  N_23
                            x       y       z     vdW  Elec       q    Type
                         _______ _______ _______ _____ _____    ______ ____

>  <TORSDO>
F 4

$$$$
=
 OpenBabel10232409453D

 25 28  0  0  1  0  0  0  0  0999 V2000
  188.0690  177.6460  145.3750 N   0  0  0  0  0  0  0  0  0  0  0  0
  185.9060  178.7000  141.9950 C   0  0  0  0  0  3  0  0  0  0  0  0
  187.3460  177.9940  144.2810 C   0  0  0  0  0  0  0  0  0  0  0  0
  185.4500  178.4050  145.7210 C   0  0  0  0  0  0  0  0  0  0  0  0
  184.1010  178.7880  145.9760 N   0  0  0  0  0  1  0  0  0  0  0  0
  188.3330  177.2820  147.7940 C   0  0  0  0  0  1  0  0  0  0  0  0
  187.2430  178.3080  141.8760 C   0  0  0  0  0  0  0  0  0  0  0  0
  185.2730  178.7480  143.2400 C   0  0  0  0  0  0  0  0  0  0  0  0
  187.5190  177.6690  146.6130 C   0  0  0  0  0  0  0  0  0  0  0  0
  186.2260  178.0450  146.7750 N   0  0  0  0  0  0  0  0  0  0  0  0
  187.9550  177.9550  143.0250 C   0  0  0  0  0  3  0  0  0  0  0  0
  183.8450  179.1830  143.2460 C   0  0  0  0  0  1  0  0  0  0  0  0
  185.9920  178.3920  144.4120 C   0  0  0  0  0  0  0  0  0  0  0  0
  188.9820  179.5390  138.2890 N   0  0  0  0  0  2  0  0  0  0  0  0
  187.8930  178.2630  140.5510 C   0  0  0  0  0  0  0  0  0  0  0  0
  189.3600  178.1930  140.3220 C   0  0  2  0  0  3  0  0  0  0  0  0
  189.4790  178.2480  138.7970 C   0  0  1  0  0  3  0  0  0  0  0  0
  187.2320  178.3750  139.4530 N   0  0  0  0  0  0  0  0  0  0  0  0
  188.1020  178.3560  138.2870 C   0  0  1  0  0  3  0  0  0  0  0  0
  189.9380  176.9070  140.8430 C   0  0  0  0  0  0  0  0  0  0  0  0
  189.6100  175.8080  140.3210 O   0  0  0  0  0  0  0  0  0  0  0  0
  190.8510  176.9100  141.9420 N   0  0  0  0  0  2  0  0  0  0  0  0
  191.2750  178.1340  142.6020 C   0  0  0  0  0  2  0  0  0  0  0  0
  191.6080  177.6790  145.1610 N   0  0  0  0  0  0  0  0  0  0  0  0
  191.4610  177.8800  144.0310 C   0  0  0  0  0  0  0  0  0  0  0  0
  1  9  2  0  0  0  0
  2  8  1  0  0  0  0
  3 13  1  0  0  0  0
  3  1  1  0  0  0  0
  4  5  1  0  0  0  0
  4 10  2  0  0  0  0
  7  2  2  0  0  0  0
  7 11  1  0  0  0  0
  8 12  1  0  0  0  0
  8 13  2  0  0  0  0
  9 10  1  0  0  0  0
  9  6  1  0  0  0  0
 11  3  2  0  0  0  0
 13  4  1  0  0  0  0
 15  7  1  0  0  0  0
 16 15  1  0  0  0  0
 16 20  1  6  0  0  0
 17 14  1  1  0  0  0
 17 16  1  0  0  0  0
 18 15  2  0  0  0  0
 19 14  1  1  0  0  0
 19 17  1  0  0  0  0
 19 18  1  0  0  0  0
 20 22  1  0  0  0  0
 21 20  2  0  0  0  0
 22 23  1  0  0  0  0
 23 25  1  0  0  0  0
 25 24  3  0  0  0  0
M  END
>  <MODEL>
7

>  <REMARK>
 VINA RESULT:      -7.6      2.147      5.177
  Name = 
  4 active torsions:
  status: ('A' for Active; 'I' for Inactive)
    1  A    between atoms: C_4  and  C_11
    2  A    between atoms: C_5  and  C_10
    3  A    between atoms: C_12  and  C_22
    4  A    between atoms: C_12  and  N_23
                            x       y       z     vdW  Elec       q    Type
                         _______ _______ _______ _____ _____    ______ ____

>  <TORSDO>
F 4

$$$$
=
 OpenBabel10232409453D

 25 28  0  0  1  0  0  0  0  0999 V2000
  183.8740  178.5350  144.2290 N   0  0  0  0  0  0  0  0  0  0  0  0
  187.7890  178.0550  142.9450 C   0  0  0  0  0  3  0  0  0  0  0  0
  185.1490  178.3810  143.7900 C   0  0  0  0  0  0  0  0  0  0  0  0
  184.3570  178.6740  141.5260 C   0  0  0  0  0  0  0  0  0  0  0  0
  184.5320  178.7580  140.1150 N   0  0  0  0  0  1  0  0  0  0  0  0
  181.4700  178.9190  143.8680 C   0  0  0  0  0  1  0  0  0  0  0  0
  187.4890  177.9960  144.3090 C   0  0  0  0  0  0  0  0  0  0  0  0
  186.7920  178.2770  141.9910 C   0  0  0  0  0  0  0  0  0  0  0  0
  182.8570  178.7540  143.3600 C   0  0  0  0  0  0  0  0  0  0  0  0
  183.1030  178.8210  142.0290 N   0  0  0  0  0  0  0  0  0  0  0  0
  186.1640  178.1580  144.7220 C   0  0  0  0  0  3  0  0  0  0  0  0
  187.2300  178.3220  140.5650 C   0  0  0  0  0  1  0  0  0  0  0  0
  185.4440  178.4450  142.4060 C   0  0  0  0  0  0  0  0  0  0  0  0
  189.9090  176.0930  147.1230 N   0  0  0  0  0  2  0  0  0  0  0  0
  188.5570  177.7590  145.3000 C   0  0  0  0  0  0  0  0  0  0  0  0
  189.9370  177.3110  144.9790 C   0  0  2  0  0  3  0  0  0  0  0  0
  190.5840  177.1550  146.3570 C   0  0  1  0  0  3  0  0  0  0  0  0
  188.3510  177.8350  146.5680 N   0  0  0  0  0  0  0  0  0  0  0  0
  189.5420  177.5040  147.3360 C   0  0  1  0  0  3  0  0  0  0  0  0
  190.6760  178.3410  144.1700 C   0  0  0  0  0  0  0  0  0  0  0  0
  190.7590  179.5290  144.5840 O   0  0  0  0  0  0  0  0  0  0  0  0
  191.2780  177.9950  142.9220 N   0  0  0  0  0  2  0  0  0  0  0  0
  191.2230  176.6500  142.3750 C   0  0  0  0  0  2  0  0  0  0  0  0
  190.3030  176.7400  139.9230 N   0  0  0  0  0  0  0  0  0  0  0  0
  190.7090  176.7000  141.0060 C   0  0  0  0  0  0  0  0  0  0  0  0
  2  7  1  0  0  0  0
  3  1  1  0  0  0  0
  3 11  1  0  0  0  0
  4 10  2  0  0  0  0
  4 13  1  0  0  0  0
  5  4  1  0  0  0  0
  7 11  2  0  0  0  0
  7 15  1  0  0  0  0
  8 13  1  0  0  0  0
  8  2  2  0  0  0  0
  9  6  1  0  0  0  0
  9  1  2  0  0  0  0
 10  9  1  0  0  0  0
 12  8  1  0  0  0  0
 13  3  2  0  0  0  0
 14 19  1  0  0  0  0
 15 18  2  0  0  0  0
 16 20  1  6  0  0  0
 16 15  1  0  0  0  0
 16 17  1  0  0  0  0
 17 14  1  1  0  0  0
 17 19  1  0  0  0  0
 19 18  1  6  0  0  0
 20 21  2  0  0  0  0
 22 20  1  0  0  0  0
 23 22  1  0  0  0  0
 24 25  3  0  0  0  0
 25 23  1  0  0  0  0
M  END
>  <MODEL>
8

>  <REMARK>
 VINA RESULT:      -7.5      1.367      2.731
  Name = 
  4 active torsions:
  status: ('A' for Active; 'I' for Inactive)
    1  A    between atoms: C_4  and  C_11
    2  A    between atoms: C_5  and  C_10
    3  A    between atoms: C_12  and  C_22
    4  A    between atoms: C_12  and  N_23
                            x       y       z     vdW  Elec       q    Type
                         _______ _______ _______ _____ _____    ______ ____

>  <TORSDO>
F 4

$$$$
=
 OpenBabel10232409453D

 25 28  0  0  1  0  0  0  0  0999 V2000
  190.3790  177.1030  143.5260 N   0  0  0  0  0  0  0  0  0  0  0  0
  186.9560  178.1370  141.4220 C   0  0  0  0  0  3  0  0  0  0  0  0
  189.2490  177.4420  142.8550 C   0  0  0  0  0  0  0  0  0  0  0  0
  188.0590  177.4610  144.9580 C   0  0  0  0  0  0  0  0  0  0  0  0
  186.8970  177.6300  145.7640 N   0  0  0  0  0  1  0  0  0  0  0  0
  191.6220  176.5720  145.5810 C   0  0  0  0  0  1  0  0  0  0  0  0
  188.1630  177.9460  140.7430 C   0  0  0  0  0  0  0  0  0  0  0  0
  186.8730  177.9900  142.8090 C   0  0  0  0  0  0  0  0  0  0  0  0
  190.3710  176.9440  144.8710 C   0  0  0  0  0  0  0  0  0  0  0  0
  189.2230  177.1220  145.5710 N   0  0  0  0  0  0  0  0  0  0  0  0
  189.3050  177.5970  141.4680 C   0  0  0  0  0  3  0  0  0  0  0  0
  185.5340  178.2210  143.4260 C   0  0  0  0  0  1  0  0  0  0  0  0
  188.0310  177.6370  143.5520 C   0  0  0  0  0  0  0  0  0  0  0  0
  188.7670  179.6470  136.9820 N   0  0  0  0  0  2  0  0  0  0  0  0
  188.2290  178.1060  139.2770 C   0  0  0  0  0  0  0  0  0  0  0  0
  189.4000  177.7540  138.4320 C   0  0  2  0  0  3  0  0  0  0  0  0
  188.9630  178.1880  137.0300 C   0  0  1  0  0  3  0  0  0  0  0  0
  187.2880  178.6630  138.5990 N   0  0  0  0  0  0  0  0  0  0  0  0
  187.6130  178.7530  137.1840 C   0  0  1  0  0  3  0  0  0  0  0  0
  189.6740  176.2760  138.4580 C   0  0  0  0  0  0  0  0  0  0  0  0
  188.7530  175.4570  138.1930 O   0  0  0  0  0  0  0  0  0  0  0  0
  190.9700  175.7790  138.7970 N   0  0  0  0  0  2  0  0  0  0  0  0
  192.0820  176.6570  139.1200 C   0  0  0  0  0  2  0  0  0  0  0  0
  193.8490  176.5800  137.1860 N   0  0  0  0  0  0  0  0  0  0  0  0
  193.0690  176.6140  138.0400 C   0  0  0  0  0  0  0  0  0  0  0  0
  1  9  2  0  0  0  0
  2  8  1  0  0  0  0
  3  1  1  0  0  0  0
  3 13  1  0  0  0  0
  4 10  2  0  0  0  0
  4  5  1  0  0  0  0
  7  2  2  0  0  0  0
  7 11  1  0  0  0  0
  8 12  1  0  0  0  0
  8 13  2  0  0  0  0
  9 10  1  0  0  0  0
  9  6  1  0  0  0  0
 11  3  2  0  0  0  0
 13  4  1  0  0  0  0
 15  7  1  0  0  0  0
 16 20  1  6  0  0  0
 16 15  1  0  0  0  0
 17 14  1  1  0  0  0
 17 19  1  0  0  0  0
 17 16  1  0  0  0  0
 18 15  2  0  0  0  0
 19 14  1  1  0  0  0
 19 18  1  0  0  0  0
 20 22  1  0  0  0  0
 21 20  2  0  0  0  0
 22 23  1  0  0  0  0
 24 25  3  0  0  0  0
 25 23  1  0  0  0  0
M  END
>  <MODEL>
9

>  <REMARK>
 VINA RESULT:      -7.5      3.073      6.254
  Name = 
  4 active torsions:
  status: ('A' for Active; 'I' for Inactive)
    1  A    between atoms: C_4  and  C_11
    2  A    between atoms: C_5  and  C_10
    3  A    between atoms: C_12  and  C_22
    4  A    between atoms: C_12  and  N_23
                            x       y       z     vdW  Elec       q    Type
                         _______ _______ _______ _____ _____    ______ ____

>  <TORSDO>
F 4

$$$$
