=
 OpenBabel10232409063D

 28 31  0  0  1  0  0  0  0  0999 V2000
  186.7740  178.4670  147.7230 C   0  0  0  0  0  3  0  0  0  0  0  0
  182.5910  179.1060  144.3800 N   0  0  0  0  0  1  0  0  0  0  0  0
  185.7920  178.3300  145.4910 C   0  0  0  0  0  0  0  0  0  0  0  0
  186.8700  178.1640  146.3620 C   0  0  0  0  0  0  0  0  0  0  0  0
  184.7220  178.2700  143.5490 N   0  0  0  0  0  0  0  0  0  0  0  0
  189.0700  177.7620  148.0380 C   0  0  0  0  0  3  0  0  0  0  0  0
  188.0870  177.6650  145.8210 C   0  0  0  0  0  0  0  0  0  0  0  0
  183.9470  178.7200  144.5670 C   0  0  0  0  0  0  0  0  0  0  0  0
  188.1820  177.3680  144.4320 C   0  0  0  0  0  0  0  0  0  0  0  0
  185.8880  178.0290  144.1660 C   0  0  0  0  0  0  0  0  0  0  0  0
  190.4380  176.8710  146.1340 C   0  0  0  0  0  0  0  0  0  0  0  0
  189.4790  176.9010  143.8190 C   0  0  2  0  0  3  0  0  0  0  0  0
  184.5580  178.7750  145.7780 N   0  0  0  0  0  2  0  0  0  0  0  0
  187.0630  177.5500  143.5950 C   0  0  0  0  0  3  0  0  0  0  0  0
  189.1870  177.4530  146.6740 C   0  0  0  0  0  0  0  0  0  0  0  0
  187.8750  178.2700  148.5570 C   0  0  0  0  0  3  0  0  0  0  0  0
  190.5520  176.5960  144.8330 C   0  0  0  0  0  3  0  0  0  0  0  0
  192.4340  176.2970  147.6950 N   0  0  0  0  0  0  0  0  0  0  0  0
  191.5450  176.5530  147.0000 C   0  0  0  0  0  0  0  0  0  0  0  0
  189.9540  177.8640  142.9250 O   0  0  0  0  0  0  0  0  0  0  0  0
  190.9320  177.2090  142.1740 C   0  0  0  0  0  2  0  0  0  0  0  0
  190.4780  177.1090  140.7330 C   0  0  0  0  0  2  0  0  0  0  0  0
  187.3800  178.5250  139.4150 O   0  0  0  0  0  0  0  0  0  0  0  0
  189.4390  178.3850  138.3240 N   0  0  0  0  0  2  0  0  0  0  0  0
  188.5870  178.1680  139.4520 C   0  0  0  0  0  0  0  0  0  0  0  0
  189.0970  177.5440  140.6300 N   0  0  0  0  0  2  0  0  0  0  0  0
  188.9590  179.0170  137.1080 C   0  0  0  0  0  2  0  0  0  0  0  0
  188.6110  177.9520  136.0890 C   0  0  0  0  0  1  0  0  0  0  0  0
  1 16  1  0  0  0  0
  2  8  1  0  0  0  0
  3 13  1  0  0  0  0
  3  4  1  0  0  0  0
  4  1  2  0  0  0  0
  5 10  1  0  0  0  0
  5  8  2  0  0  0  0
  6 16  2  0  0  0  0
  7  4  1  0  0  0  0
  7 15  2  0  0  0  0
  8 13  1  0  0  0  0
  9  7  1  0  0  0  0
 10  3  2  0  0  0  0
 11 15  1  0  0  0  0
 11 19  1  0  0  0  0
 12 20  1  6  0  0  0
 12  9  1  0  0  0  0
 12 17  1  0  0  0  0
 14 10  1  0  0  0  0
 14  9  2  0  0  0  0
 15  6  1  0  0  0  0
 17 11  2  0  0  0  0
 19 18  3  0  0  0  0
 21 20  1  0  0  0  0
 22 21  1  0  0  0  0
 23 25  2  0  0  0  0
 24 25  1  0  0  0  0
 25 26  1  0  0  0  0
 26 22  1  0  0  0  0
 27 24  1  0  0  0  0
 28 27  1  0  0  0  0
M  END
>  <MODEL>
1

>  <REMARK>
 VINA RESULT:     -10.3      0.000      0.000
  Name = 
  6 active torsions:
  status: ('A' for Active; 'I' for Inactive)
    1  A    between atoms: C_3  and  N_5
    2  A    between atoms: C_11  and  C_14
    3  A    between atoms: C_11  and  N_22
    4  A    between atoms: C_14  and  O_15
    5  A    between atoms: O_15  and  C_23
    6  A    between atoms: C_16  and  C_21
                            x       y       z     vdW  Elec       q    Type
                         _______ _______ _______ _____ _____    ______ ____

>  <TORSDO>
F 6

$$$$
=
 OpenBabel10232409063D

 28 31  0  0  1  0  0  0  0  0999 V2000
  186.7040  178.3560  147.4480 C   0  0  0  0  0  3  0  0  0  0  0  0
  182.6020  179.0690  144.0220 N   0  0  0  0  0  1  0  0  0  0  0  0
  185.7820  178.2890  145.1890 C   0  0  0  0  0  0  0  0  0  0  0  0
  186.8390  178.1030  146.0800 C   0  0  0  0  0  0  0  0  0  0  0  0
  184.7630  178.2850  143.2180 N   0  0  0  0  0  0  0  0  0  0  0  0
  189.0000  177.6640  147.7990 C   0  0  0  0  0  3  0  0  0  0  0  0
  188.0750  177.6360  145.5550 C   0  0  0  0  0  0  0  0  0  0  0  0
  183.9570  178.6910  144.2310 C   0  0  0  0  0  0  0  0  0  0  0  0
  188.2090  177.3890  144.1590 C   0  0  0  0  0  0  0  0  0  0  0  0
  185.9150  178.0350  143.8570 C   0  0  0  0  0  0  0  0  0  0  0  0
  190.4260  176.8560  145.9010 C   0  0  0  0  0  0  0  0  0  0  0  0
  189.5270  176.9570  143.5640 C   0  0  2  0  0  3  0  0  0  0  0  0
  184.5360  178.7100  145.4580 N   0  0  0  0  0  2  0  0  0  0  0  0
  187.1100  177.5890  143.3000 C   0  0  0  0  0  3  0  0  0  0  0  0
  189.1550  177.4060  146.4280 C   0  0  0  0  0  0  0  0  0  0  0  0
  187.7860  178.1410  148.3040 C   0  0  0  0  0  3  0  0  0  0  0  0
  190.5770  176.6280  144.5950 C   0  0  0  0  0  3  0  0  0  0  0  0
  192.3880  176.2490  147.4920 N   0  0  0  0  0  0  0  0  0  0  0  0
  191.5140  176.5190  146.7840 C   0  0  0  0  0  0  0  0  0  0  0  0
  190.0130  177.9570  142.7170 O   0  0  0  0  0  0  0  0  0  0  0  0
  190.5970  177.2720  141.6490 C   0  0  0  0  0  2  0  0  0  0  0  0
  189.5780  177.1020  140.5420 C   0  0  0  0  0  2  0  0  0  0  0  0
  189.0130  179.3560  137.7250 O   0  0  0  0  0  0  0  0  0  0  0  0
  187.5140  177.7960  138.6000 N   0  0  0  0  0  2  0  0  0  0  0  0
  188.7790  178.4630  138.5810 C   0  0  0  0  0  0  0  0  0  0  0  0
  189.7880  178.1230  139.5310 N   0  0  0  0  0  2  0  0  0  0  0  0
  186.4630  178.1130  137.6500 C   0  0  0  0  0  2  0  0  0  0  0  0
  185.1710  178.3750  138.3960 C   0  0  0  0  0  1  0  0  0  0  0  0
  1 16  1  0  0  0  0
  2  8  1  0  0  0  0
  3 13  1  0  0  0  0
  3  4  1  0  0  0  0
  4  1  2  0  0  0  0
  5 10  1  0  0  0  0
  5  8  2  0  0  0  0
  6 16  2  0  0  0  0
  7  4  1  0  0  0  0
  7 15  2  0  0  0  0
  8 13  1  0  0  0  0
  9  7  1  0  0  0  0
 10  3  2  0  0  0  0
 11 15  1  0  0  0  0
 11 19  1  0  0  0  0
 12 20  1  6  0  0  0
 12  9  1  0  0  0  0
 12 17  1  0  0  0  0
 14 10  1  0  0  0  0
 14  9  2  0  0  0  0
 15  6  1  0  0  0  0
 17 11  2  0  0  0  0
 19 18  3  0  0  0  0
 21 20  1  0  0  0  0
 22 21  1  0  0  0  0
 23 25  2  0  0  0  0
 25 24  1  0  0  0  0
 25 26  1  0  0  0  0
 26 22  1  0  0  0  0
 27 28  1  0  0  0  0
 27 24  1  0  0  0  0
M  END
>  <MODEL>
2

>  <REMARK>
 VINA RESULT:     -10.2      1.128      1.207
  Name = 
  6 active torsions:
  status: ('A' for Active; 'I' for Inactive)
    1  A    between atoms: C_3  and  N_5
    2  A    between atoms: C_11  and  C_14
    3  A    between atoms: C_11  and  N_22
    4  A    between atoms: C_14  and  O_15
    5  A    between atoms: O_15  and  C_23
    6  A    between atoms: C_16  and  C_21
                            x       y       z     vdW  Elec       q    Type
                         _______ _______ _______ _____ _____    ______ ____

>  <TORSDO>
F 6

$$$$
=
 OpenBabel10232409063D

 28 31  0  0  1  0  0  0  0  0999 V2000
  186.9430  178.3960  147.6690 C   0  0  0  0  0  3  0  0  0  0  0  0
  182.6840  179.1410  144.4460 N   0  0  0  0  0  1  0  0  0  0  0  0
  185.8980  178.2940  145.4650 C   0  0  0  0  0  0  0  0  0  0  0  0
  186.9950  178.1000  146.3040 C   0  0  0  0  0  0  0  0  0  0  0  0
  184.7740  178.2670  143.5520 N   0  0  0  0  0  0  0  0  0  0  0  0
  189.2320  177.6430  147.9170 C   0  0  0  0  0  3  0  0  0  0  0  0
  188.1860  177.5800  145.7270 C   0  0  0  0  0  0  0  0  0  0  0  0
  184.0360  178.7270  144.5940 C   0  0  0  0  0  0  0  0  0  0  0  0
  188.2370  177.2890  144.3350 C   0  0  0  0  0  0  0  0  0  0  0  0
  185.9510  177.9990  144.1350 C   0  0  0  0  0  0  0  0  0  0  0  0
  190.5280  176.7370  145.9710 C   0  0  0  0  0  0  0  0  0  0  0  0
  189.5080  176.8000  143.6830 C   0  0  2  0  0  3  0  0  0  0  0  0
  184.6810  178.7620  145.7880 N   0  0  0  0  0  2  0  0  0  0  0  0
  187.1000  177.5000  143.5300 C   0  0  0  0  0  3  0  0  0  0  0  0
  189.3050  177.3410  146.5480 C   0  0  0  0  0  0  0  0  0  0  0  0
  188.0620  178.1710  148.4710 C   0  0  0  0  0  3  0  0  0  0  0  0
  190.6010  176.4670  144.6650 C   0  0  0  0  0  3  0  0  0  0  0  0
  192.5540  176.1120  147.4740 N   0  0  0  0  0  0  0  0  0  0  0  0
  191.6520  176.3910  146.8040 C   0  0  0  0  0  0  0  0  0  0  0  0
  189.9770  177.7590  142.7820 O   0  0  0  0  0  0  0  0  0  0  0  0
  191.0430  177.1440  142.1220 C   0  0  0  0  0  2  0  0  0  0  0  0
  191.0040  177.5090  140.6530 C   0  0  0  0  0  2  0  0  0  0  0  0
  190.5140  174.9700  138.0740 O   0  0  0  0  0  0  0  0  0  0  0  0
  192.2340  176.5430  138.1910 N   0  0  0  0  0  2  0  0  0  0  0  0
  191.0430  175.9310  138.6910 C   0  0  0  0  0  0  0  0  0  0  0  0
  190.4410  176.4050  139.8960 N   0  0  0  0  0  2  0  0  0  0  0  0
  192.8760  176.0910  136.9690 C   0  0  0  0  0  2  0  0  0  0  0  0
  194.1430  175.3360  137.3130 C   0  0  0  0  0  1  0  0  0  0  0  0
  1 16  1  0  0  0  0
  2  8  1  0  0  0  0
  3 13  1  0  0  0  0
  3  4  1  0  0  0  0
  4  1  2  0  0  0  0
  5 10  1  0  0  0  0
  5  8  2  0  0  0  0
  6 16  2  0  0  0  0
  7  4  1  0  0  0  0
  7 15  2  0  0  0  0
  8 13  1  0  0  0  0
  9  7  1  0  0  0  0
 10  3  2  0  0  0  0
 11 15  1  0  0  0  0
 11 19  1  0  0  0  0
 12 20  1  6  0  0  0
 12  9  1  0  0  0  0
 12 17  1  0  0  0  0
 14 10  1  0  0  0  0
 14  9  2  0  0  0  0
 15  6  1  0  0  0  0
 17 11  2  0  0  0  0
 19 18  3  0  0  0  0
 21 20  1  0  0  0  0
 22 21  1  0  0  0  0
 23 25  2  0  0  0  0
 24 25  1  0  0  0  0
 25 26  1  0  0  0  0
 26 22  1  0  0  0  0
 27 28  1  0  0  0  0
 27 24  1  0  0  0  0
M  END
>  <MODEL>
3

>  <REMARK>
 VINA RESULT:      -9.8      1.845      2.024
  Name = 
  6 active torsions:
  status: ('A' for Active; 'I' for Inactive)
    1  A    between atoms: C_3  and  N_5
    2  A    between atoms: C_11  and  C_14
    3  A    between atoms: C_11  and  N_22
    4  A    between atoms: C_14  and  O_15
    5  A    between atoms: O_15  and  C_23
    6  A    between atoms: C_16  and  C_21
                            x       y       z     vdW  Elec       q    Type
                         _______ _______ _______ _____ _____    ______ ____

>  <TORSDO>
F 6

$$$$
=
 OpenBabel10232409063D

 28 31  0  0  1  0  0  0  0  0999 V2000
  187.3760  177.4490  146.7820 C   0  0  0  0  0  3  0  0  0  0  0  0
  192.4420  176.4140  148.3170 N   0  0  0  0  0  1  0  0  0  0  0  0
  189.7380  177.1270  146.2510 C   0  0  0  0  0  0  0  0  0  0  0  0
  188.4260  177.3970  145.8610 C   0  0  0  0  0  0  0  0  0  0  0  0
  191.9160  176.8110  145.9720 N   0  0  0  0  0  0  0  0  0  0  0  0
  185.8350  177.9860  144.9920 C   0  0  0  0  0  3  0  0  0  0  0  0
  188.1810  177.6290  144.4790 C   0  0  0  0  0  0  0  0  0  0  0  0
  191.5260  176.7020  147.2670 C   0  0  0  0  0  0  0  0  0  0  0  0
  189.2520  177.5660  143.5430 C   0  0  0  0  0  0  0  0  0  0  0  0
  190.7590  177.0830  145.3500 C   0  0  0  0  0  0  0  0  0  0  0  0
  186.6200  178.2450  142.6250 C   0  0  0  0  0  0  0  0  0  0  0  0
  189.0100  177.7400  142.0640 C   0  0  2  0  0  3  0  0  0  0  0  0
  190.2000  176.8870  147.4890 N   0  0  0  0  0  2  0  0  0  0  0  0
  190.5600  177.2920  143.9890 C   0  0  0  0  0  3  0  0  0  0  0  0
  186.8750  177.9370  144.0500 C   0  0  0  0  0  0  0  0  0  0  0  0
  186.0830  177.7380  146.3460 C   0  0  0  0  0  3  0  0  0  0  0  0
  187.6080  178.1800  141.7290 C   0  0  0  0  0  3  0  0  0  0  0  0
  184.2680  178.9910  141.8130 N   0  0  0  0  0  0  0  0  0  0  0  0
  185.3150  178.6580  142.1740 C   0  0  0  0  0  0  0  0  0  0  0  0
  189.2880  176.5460  141.3950 O   0  0  0  0  0  0  0  0  0  0  0  0
  190.4260  176.8160  140.6320 C   0  0  0  0  0  2  0  0  0  0  0  0
  190.0960  176.6610  139.1620 C   0  0  0  0  0  2  0  0  0  0  0  0
  188.7590  179.5840  137.4280 O   0  0  0  0  0  0  0  0  0  0  0  0
  187.6260  177.6070  137.9320 N   0  0  0  0  0  2  0  0  0  0  0  0
  188.7900  178.4370  137.9460 C   0  0  0  0  0  0  0  0  0  0  0  0
  189.9990  177.9730  138.5480 N   0  0  0  0  0  2  0  0  0  0  0  0
  186.3780  178.0410  137.3290 C   0  0  0  0  0  2  0  0  0  0  0  0
  185.3790  178.3690  138.4190 C   0  0  0  0  0  1  0  0  0  0  0  0
  3 13  1  0  0  0  0
  4  3  1  0  0  0  0
  4  1  2  0  0  0  0
  5  8  2  0  0  0  0
  6 16  2  0  0  0  0
  7  4  1  0  0  0  0
  8 13  1  0  0  0  0
  8  2  1  0  0  0  0
  9 14  2  0  0  0  0
  9  7  1  0  0  0  0
 10  5  1  0  0  0  0
 10  3  2  0  0  0  0
 11 15  1  0  0  0  0
 12 20  1  6  0  0  0
 12  9  1  0  0  0  0
 14 10  1  0  0  0  0
 15  7  2  0  0  0  0
 15  6  1  0  0  0  0
 16  1  1  0  0  0  0
 17 12  1  0  0  0  0
 17 11  2  0  0  0  0
 18 19  3  0  0  0  0
 19 11  1  0  0  0  0
 21 20  1  0  0  0  0
 22 21  1  0  0  0  0
 23 25  2  0  0  0  0
 24 25  1  0  0  0  0
 25 26  1  0  0  0  0
 26 22  1  0  0  0  0
 27 24  1  0  0  0  0
 27 28  1  0  0  0  0
M  END
>  <MODEL>
4

>  <REMARK>
 VINA RESULT:      -9.5      1.652      4.906
  Name = 
  6 active torsions:
  status: ('A' for Active; 'I' for Inactive)
    1  A    between atoms: C_3  and  N_5
    2  A    between atoms: C_11  and  C_14
    3  A    between atoms: C_11  and  N_22
    4  A    between atoms: C_14  and  O_15
    5  A    between atoms: O_15  and  C_23
    6  A    between atoms: C_16  and  C_21
                            x       y       z     vdW  Elec       q    Type
                         _______ _______ _______ _____ _____    ______ ____

>  <TORSDO>
F 6

$$$$
=
 OpenBabel10232409063D

 28 31  0  0  1  0  0  0  0  0999 V2000
  185.2800  178.7100  146.7240 C   0  0  0  0  0  3  0  0  0  0  0  0
  181.4760  179.3110  142.9490 N   0  0  0  0  0  1  0  0  0  0  0  0
  184.5530  178.5850  144.3960 C   0  0  0  0  0  0  0  0  0  0  0  0
  185.5320  178.4290  145.3780 C   0  0  0  0  0  0  0  0  0  0  0  0
  183.7040  178.5300  142.3480 N   0  0  0  0  0  0  0  0  0  0  0  0
  187.5430  178.0480  147.2810 C   0  0  0  0  0  3  0  0  0  0  0  0
  186.8110  177.9630  144.9680 C   0  0  0  0  0  0  0  0  0  0  0  0
  182.8120  178.9500  143.2800 C   0  0  0  0  0  0  0  0  0  0  0  0
  187.0650  177.6870  143.5950 C   0  0  0  0  0  0  0  0  0  0  0  0
  184.8000  178.3050  143.0860 C   0  0  0  0  0  0  0  0  0  0  0  0
  189.1310  177.2140  145.5290 C   0  0  0  0  0  0  0  0  0  0  0  0
  188.4320  177.2560  143.1230 C   0  0  2  0  0  3  0  0  0  0  0  0
  183.2850  179.0010  144.5510 N   0  0  0  0  0  2  0  0  0  0  0  0
  186.0410  177.8590  142.6420 C   0  0  0  0  0  3  0  0  0  0  0  0
  187.8160  177.7620  145.9340 C   0  0  0  0  0  0  0  0  0  0  0  0
  186.2870  178.5240  147.6720 C   0  0  0  0  0  3  0  0  0  0  0  0
  189.3930  176.9590  144.2450 C   0  0  0  0  0  3  0  0  0  0  0  0
  190.9560  176.6580  147.2920 N   0  0  0  0  0  0  0  0  0  0  0  0
  190.1430  176.9060  146.5070 C   0  0  0  0  0  0  0  0  0  0  0  0
  188.9800  178.2420  142.2980 O   0  0  0  0  0  0  0  0  0  0  0  0
  189.6050  177.5420  141.2640 C   0  0  0  0  0  2  0  0  0  0  0  0
  188.6870  177.4950  140.0600 C   0  0  0  0  0  2  0  0  0  0  0  0
  188.9610  179.7500  137.2000 O   0  0  0  0  0  0  0  0  0  0  0  0
  188.5260  177.4580  137.1480 N   0  0  0  0  0  2  0  0  0  0  0  0
  188.7930  178.6790  137.8410 C   0  0  0  0  0  0  0  0  0  0  0  0
  188.8720  178.6970  139.2660 N   0  0  0  0  0  2  0  0  0  0  0  0
  188.4390  177.3980  135.6990 C   0  0  0  0  0  2  0  0  0  0  0  0
  189.7770  176.9740  135.1300 C   0  0  0  0  0  1  0  0  0  0  0  0
  1 16  1  0  0  0  0
  2  8  1  0  0  0  0
  3 13  1  0  0  0  0
  3  4  1  0  0  0  0
  4  1  2  0  0  0  0
  5 10  1  0  0  0  0
  5  8  2  0  0  0  0
  6 16  2  0  0  0  0
  7  4  1  0  0  0  0
  7 15  2  0  0  0  0
  8 13  1  0  0  0  0
  9  7  1  0  0  0  0
 10  3  2  0  0  0  0
 11 15  1  0  0  0  0
 11 19  1  0  0  0  0
 12 20  1  6  0  0  0
 12  9  1  0  0  0  0
 12 17  1  0  0  0  0
 14 10  1  0  0  0  0
 14  9  2  0  0  0  0
 15  6  1  0  0  0  0
 17 11  2  0  0  0  0
 19 18  3  0  0  0  0
 21 20  1  0  0  0  0
 22 21  1  0  0  0  0
 23 25  2  0  0  0  0
 24 25  1  0  0  0  0
 25 26  1  0  0  0  0
 26 22  1  0  0  0  0
 27 24  1  0  0  0  0
 28 27  1  0  0  0  0
M  END
>  <MODEL>
5

>  <REMARK>
 VINA RESULT:      -9.4      1.286      1.728
  Name = 
  6 active torsions:
  status: ('A' for Active; 'I' for Inactive)
    1  A    between atoms: C_3  and  N_5
    2  A    between atoms: C_11  and  C_14
    3  A    between atoms: C_11  and  N_22
    4  A    between atoms: C_14  and  O_15
    5  A    between atoms: O_15  and  C_23
    6  A    between atoms: C_16  and  C_21
                            x       y       z     vdW  Elec       q    Type
                         _______ _______ _______ _____ _____    ______ ____

>  <TORSDO>
F 6

$$$$
=
 OpenBabel10232409063D

 28 31  0  0  1  0  0  0  0  0999 V2000
  187.3570  177.4520  146.0860 C   0  0  0  0  0  3  0  0  0  0  0  0
  192.2240  176.3280  148.1200 N   0  0  0  0  0  1  0  0  0  0  0  0
  189.7640  177.1500  145.8050 C   0  0  0  0  0  0  0  0  0  0  0  0
  188.5030  177.4420  145.2850 C   0  0  0  0  0  0  0  0  0  0  0  0
  191.9600  176.8420  145.7540 N   0  0  0  0  0  0  0  0  0  0  0  0
  186.0220  178.0810  144.1640 C   0  0  0  0  0  3  0  0  0  0  0  0
  188.4110  177.7430  143.8980 C   0  0  0  0  0  0  0  0  0  0  0  0
  191.4300  176.6700  146.9910 C   0  0  0  0  0  0  0  0  0  0  0  0
  189.5800  177.7220  143.0850 C   0  0  0  0  0  0  0  0  0  0  0  0
  190.8790  177.1470  145.0220 C   0  0  0  0  0  0  0  0  0  0  0  0
  187.0640  178.4530  141.9140 C   0  0  0  0  0  0  0  0  0  0  0  0
  189.5030  177.9690  141.5980 C   0  0  2  0  0  3  0  0  0  0  0  0
  190.0860  176.8480  147.0730 N   0  0  0  0  0  2  0  0  0  0  0  0
  190.8310  177.4230  143.6590 C   0  0  0  0  0  3  0  0  0  0  0  0
  187.1610  178.0750  143.3430 C   0  0  0  0  0  0  0  0  0  0  0  0
  186.1190  177.7660  145.5230 C   0  0  0  0  0  3  0  0  0  0  0  0
  188.1460  178.4290  141.1310 C   0  0  0  0  0  3  0  0  0  0  0  0
  184.8140  179.2450  140.8840 N   0  0  0  0  0  0  0  0  0  0  0  0
  185.8160  178.8920  141.3430 C   0  0  0  0  0  0  0  0  0  0  0  0
  189.8570  176.8080  140.9060 O   0  0  0  0  0  0  0  0  0  0  0  0
  191.0040  177.1510  140.1880 C   0  0  0  0  0  2  0  0  0  0  0  0
  190.7790  176.8760  138.7160 C   0  0  0  0  0  2  0  0  0  0  0  0
  190.0020  173.5670  137.3790 O   0  0  0  0  0  0  0  0  0  0  0  0
  188.9990  175.5920  136.7950 N   0  0  0  0  0  2  0  0  0  0  0  0
  189.9360  174.8140  137.5430 C   0  0  0  0  0  0  0  0  0  0  0  0
  190.8070  175.4430  138.4830 N   0  0  0  0  0  2  0  0  0  0  0  0
  188.0950  174.9900  135.8300 C   0  0  0  0  0  2  0  0  0  0  0  0
  186.7400  174.7780  136.4720 C   0  0  0  0  0  1  0  0  0  0  0  0
  3 13  1  0  0  0  0
  4  3  1  0  0  0  0
  4  1  2  0  0  0  0
  5  8  2  0  0  0  0
  6 16  2  0  0  0  0
  7  4  1  0  0  0  0
  8 13  1  0  0  0  0
  8  2  1  0  0  0  0
  9 14  2  0  0  0  0
  9  7  1  0  0  0  0
 10  5  1  0  0  0  0
 10  3  2  0  0  0  0
 11 15  1  0  0  0  0
 12 20  1  6  0  0  0
 12  9  1  0  0  0  0
 14 10  1  0  0  0  0
 15  7  2  0  0  0  0
 15  6  1  0  0  0  0
 16  1  1  0  0  0  0
 17 12  1  0  0  0  0
 17 11  2  0  0  0  0
 18 19  3  0  0  0  0
 19 11  1  0  0  0  0
 21 20  1  0  0  0  0
 22 21  1  0  0  0  0
 23 25  2  0  0  0  0
 24 25  1  0  0  0  0
 25 26  1  0  0  0  0
 26 22  1  0  0  0  0
 27 28  1  0  0  0  0
 27 24  1  0  0  0  0
M  END
>  <MODEL>
6

>  <REMARK>
 VINA RESULT:      -8.9      2.286      5.233
  Name = 
  6 active torsions:
  status: ('A' for Active; 'I' for Inactive)
    1  A    between atoms: C_3  and  N_5
    2  A    between atoms: C_11  and  C_14
    3  A    between atoms: C_11  and  N_22
    4  A    between atoms: C_14  and  O_15
    5  A    between atoms: O_15  and  C_23
    6  A    between atoms: C_16  and  C_21
                            x       y       z     vdW  Elec       q    Type
                         _______ _______ _______ _____ _____    ______ ____

>  <TORSDO>
F 6

$$$$
=
 OpenBabel10232409063D

 28 31  0  0  1  0  0  0  0  0999 V2000
  187.4090  177.4820  146.3910 C   0  0  0  0  0  3  0  0  0  0  0  0
  192.3310  176.3170  148.2610 N   0  0  0  0  0  1  0  0  0  0  0  0
  189.7980  177.1370  146.0260 C   0  0  0  0  0  0  0  0  0  0  0  0
  188.5230  177.4410  145.5480 C   0  0  0  0  0  0  0  0  0  0  0  0
  191.9860  176.7940  145.8980 N   0  0  0  0  0  0  0  0  0  0  0  0
  186.0120  178.0990  144.5100 C   0  0  0  0  0  3  0  0  0  0  0  0
  188.3840  177.7180  144.1610 C   0  0  0  0  0  0  0  0  0  0  0  0
  191.5000  176.6520  147.1570 C   0  0  0  0  0  0  0  0  0  0  0  0
  189.5200  177.6650  143.3050 C   0  0  0  0  0  0  0  0  0  0  0  0
  190.8820  177.1030  145.2020 C   0  0  0  0  0  0  0  0  0  0  0  0
  186.9730  178.4160  142.2160 C   0  0  0  0  0  0  0  0  0  0  0  0
  189.3910  177.8880  141.8180 C   0  0  2  0  0  3  0  0  0  0  0  0
  190.1640  176.8520  147.2860 N   0  0  0  0  0  2  0  0  0  0  0  0
  190.7880  177.3560  143.8370 C   0  0  0  0  0  3  0  0  0  0  0  0
  187.1180  178.0600  143.6470 C   0  0  0  0  0  0  0  0  0  0  0  0
  186.1550  177.8060  145.8700 C   0  0  0  0  0  3  0  0  0  0  0  0
  188.0240  178.3610  141.3940 C   0  0  0  0  0  3  0  0  0  0  0  0
  184.6980  179.2230  141.2560 N   0  0  0  0  0  0  0  0  0  0  0  0
  185.7110  178.8640  141.6840 C   0  0  0  0  0  0  0  0  0  0  0  0
  189.7000  176.7100  141.1340 O   0  0  0  0  0  0  0  0  0  0  0  0
  190.8500  177.0100  140.4000 C   0  0  0  0  0  2  0  0  0  0  0  0
  190.5030  177.0820  138.9280 C   0  0  0  0  0  2  0  0  0  0  0  0
  190.6600  173.7380  137.4680 O   0  0  0  0  0  0  0  0  0  0  0  0
  192.4180  175.2550  137.7000 N   0  0  0  0  0  2  0  0  0  0  0  0
  191.0510  174.8700  137.8570 C   0  0  0  0  0  0  0  0  0  0  0  0
  190.1140  175.7640  138.4580 N   0  0  0  0  0  2  0  0  0  0  0  0
  193.4010  174.3750  137.0930 C   0  0  0  0  0  2  0  0  0  0  0  0
  194.6510  174.3480  137.9480 C   0  0  0  0  0  1  0  0  0  0  0  0
  3 13  1  0  0  0  0
  4  3  1  0  0  0  0
  4  1  2  0  0  0  0
  5  8  2  0  0  0  0
  6 16  2  0  0  0  0
  7  4  1  0  0  0  0
  8 13  1  0  0  0  0
  8  2  1  0  0  0  0
  9 14  2  0  0  0  0
  9  7  1  0  0  0  0
 10  5  1  0  0  0  0
 10  3  2  0  0  0  0
 11 15  1  0  0  0  0
 12 20  1  6  0  0  0
 12  9  1  0  0  0  0
 14 10  1  0  0  0  0
 15  7  2  0  0  0  0
 15  6  1  0  0  0  0
 16  1  1  0  0  0  0
 17 12  1  0  0  0  0
 17 11  2  0  0  0  0
 18 19  3  0  0  0  0
 19 11  1  0  0  0  0
 21 20  1  0  0  0  0
 22 21  1  0  0  0  0
 23 25  2  0  0  0  0
 24 25  1  0  0  0  0
 25 26  1  0  0  0  0
 26 22  1  0  0  0  0
 27 24  1  0  0  0  0
 27 28  1  0  0  0  0
M  END
>  <MODEL>
7

>  <REMARK>
 VINA RESULT:      -8.9      2.577      5.428
  Name = 
  6 active torsions:
  status: ('A' for Active; 'I' for Inactive)
    1  A    between atoms: C_3  and  N_5
    2  A    between atoms: C_11  and  C_14
    3  A    between atoms: C_11  and  N_22
    4  A    between atoms: C_14  and  O_15
    5  A    between atoms: O_15  and  C_23
    6  A    between atoms: C_16  and  C_21
                            x       y       z     vdW  Elec       q    Type
                         _______ _______ _______ _____ _____    ______ ____

>  <TORSDO>
F 6

$$$$
=
 OpenBabel10232409063D

 28 31  0  0  1  0  0  0  0  0999 V2000
  185.4920  178.7960  140.5720 C   0  0  0  0  0  3  0  0  0  0  0  0
  189.0560  178.1550  136.5760 N   0  0  0  0  0  1  0  0  0  0  0  0
  187.7410  178.2530  139.7930 C   0  0  0  0  0  0  0  0  0  0  0  0
  186.8140  178.4170  140.8220 C   0  0  0  0  0  0  0  0  0  0  0  0
  189.7140  177.7850  138.8920 N   0  0  0  0  0  0  0  0  0  0  0  0
  185.0150  178.6840  142.9450 C   0  0  0  0  0  3  0  0  0  0  0  0
  187.2540  178.1800  142.1530 C   0  0  2  0  0  3  0  0  0  0  0  0
  188.7750  178.1180  137.9700 C   0  0  0  0  0  0  0  0  0  0  0  0
  188.6040  177.8040  142.4030 C   0  0  0  0  0  0  0  0  0  0  0  0
  189.0280  177.8780  140.0400 C   0  0  0  0  0  0  0  0  0  0  0  0
  186.7680  177.9950  144.6000 C   0  0  0  0  0  0  0  0  0  0  0  0
  189.1150  177.6110  143.8100 C   0  0  0  0  0  0  0  0  0  0  0  0
  187.5500  178.4130  138.4740 N   0  0  0  0  0  2  0  0  0  0  0  0
  189.5010  177.6480  141.3280 C   0  0  0  0  0  3  0  0  0  0  0  0
  186.3390  178.3040  143.2170 C   0  0  0  0  0  0  0  0  0  0  0  0
  184.5970  178.9330  141.6340 C   0  0  0  0  0  3  0  0  0  0  0  0
  188.0320  177.6510  144.8580 C   0  0  0  0  0  3  0  0  0  0  0  0
  185.0770  178.0390  146.5720 N   0  0  0  0  0  0  0  0  0  0  0  0
  185.8300  178.0180  145.6940 C   0  0  0  0  0  0  0  0  0  0  0  0
  190.0730  178.5850  144.1020 O   0  0  0  0  0  0  0  0  0  0  0  0
  191.2930  177.9060  144.0940 C   0  0  0  0  0  2  0  0  0  0  0  0
  191.1130  176.5380  144.7200 C   0  0  0  0  0  2  0  0  0  0  0  0
  192.1070  176.8440  148.2210 O   0  0  0  0  0  0  0  0  0  0  0  0
  190.0830  177.5120  147.2700 N   0  0  0  0  0  2  0  0  0  0  0  0
  191.3890  176.9360  147.1910 C   0  0  0  0  0  0  0  0  0  0  0  0
  191.8920  176.4600  145.9430 N   0  0  0  0  0  2  0  0  0  0  0  0
  189.5350  178.0080  148.5200 C   0  0  0  0  0  2  0  0  0  0  0  0
  188.0610  177.6670  148.5960 C   0  0  0  0  0  1  0  0  0  0  0  0
  1  4  2  0  0  0  0
  1 16  1  0  0  0  0
  2  8  1  0  0  0  0
  3 10  2  0  0  0  0
  3  4  1  0  0  0  0
  5 10  1  0  0  0  0
  6 15  1  0  0  0  0
  7  4  1  6  0  0  0
  7  9  1  0  0  0  0
  7 15  1  0  0  0  0
  8 13  1  0  0  0  0
  8  5  2  0  0  0  0
  9 12  1  0  0  0  0
 10 14  1  0  0  0  0
 11 17  1  0  0  0  0
 11 19  1  0  0  0  0
 12 20  1  0  0  0  0
 12 17  2  0  0  0  0
 13  3  1  0  0  0  0
 14  9  2  0  0  0  0
 15 11  2  0  0  0  0
 16  6  2  0  0  0  0
 19 18  3  0  0  0  0
 21 20  1  0  0  0  0
 21 22  1  0  0  0  0
 22 26  1  0  0  0  0
 24 27  1  0  0  0  0
 25 24  1  0  0  0  0
 25 23  2  0  0  0  0
 26 25  1  0  0  0  0
 27 28  1  0  0  0  0
M  END
>  <MODEL>
8

>  <REMARK>
 VINA RESULT:      -8.5      1.903      6.818
  Name = 
  6 active torsions:
  status: ('A' for Active; 'I' for Inactive)
    1  A    between atoms: C_3  and  N_5
    2  A    between atoms: C_11  and  C_14
    3  A    between atoms: C_11  and  N_22
    4  A    between atoms: C_14  and  O_15
    5  A    between atoms: O_15  and  C_23
    6  A    between atoms: C_16  and  C_21
                            x       y       z     vdW  Elec       q    Type
                         _______ _______ _______ _____ _____    ______ ____

>  <TORSDO>
F 6

$$$$
=
 OpenBabel10232409063D

 28 31  0  0  1  0  0  0  0  0999 V2000
  189.8140  176.8860  144.1720 C   0  0  0  0  0  3  0  0  0  0  0  0
  191.9370  176.9160  139.2150 N   0  0  0  0  0  1  0  0  0  0  0  0
  189.6460  177.3830  141.7870 C   0  0  0  0  0  0  0  0  0  0  0  0
  189.1030  177.3760  143.0720 C   0  0  0  0  0  0  0  0  0  0  0  0
  189.6890  177.7680  139.6030 N   0  0  0  0  0  0  0  0  0  0  0  0
  187.9500  177.4380  145.6180 C   0  0  0  0  0  3  0  0  0  0  0  0
  187.7890  177.8930  143.2390 C   0  0  0  0  0  0  0  0  0  0  0  0
  190.8360  177.2110  140.0650 C   0  0  0  0  0  0  0  0  0  0  0  0
  187.0660  178.3810  142.1140 C   0  0  0  0  0  0  0  0  0  0  0  0
  188.9520  177.8660  140.7180 C   0  0  0  0  0  0  0  0  0  0  0  0
  185.8780  178.5300  144.7210 C   0  0  0  0  0  0  0  0  0  0  0  0
  185.6460  178.8730  142.2500 C   0  0  2  0  0  3  0  0  0  0  0  0
  190.8580  176.9570  141.3980 N   0  0  0  0  0  2  0  0  0  0  0  0
  187.6600  178.3700  140.8360 C   0  0  0  0  0  3  0  0  0  0  0  0
  187.2190  177.9320  144.5260 C   0  0  0  0  0  0  0  0  0  0  0  0
  189.2340  176.9140  145.4410 C   0  0  0  0  0  3  0  0  0  0  0  0
  185.1780  178.9830  143.6790 C   0  0  0  0  0  3  0  0  0  0  0  0
  184.8550  178.7870  147.0960 N   0  0  0  0  0  0  0  0  0  0  0  0
  185.3110  178.6720  146.0390 C   0  0  0  0  0  0  0  0  0  0  0  0
  184.7830  178.0270  141.5490 O   0  0  0  0  0  0  0  0  0  0  0  0
  184.0920  178.8640  140.6700 C   0  0  0  0  0  2  0  0  0  0  0  0
  184.2260  178.3330  139.2580 C   0  0  0  0  0  2  0  0  0  0  0  0
  187.0560  179.0880  137.0770 O   0  0  0  0  0  0  0  0  0  0  0  0
  186.0330  177.0130  137.3860 N   0  0  0  0  0  2  0  0  0  0  0  0
  186.1620  178.4120  137.6500 C   0  0  0  0  0  0  0  0  0  0  0  0
  185.2770  179.0570  138.5660 N   0  0  0  0  0  2  0  0  0  0  0  0
  186.9130  176.3200  136.4620 C   0  0  0  0  0  2  0  0  0  0  0  0
  188.0410  175.6660  137.2340 C   0  0  0  0  0  1  0  0  0  0  0  0
  1 16  1  0  0  0  0
  2  8  1  0  0  0  0
  3  4  1  0  0  0  0
  4  7  1  0  0  0  0
  4  1  2  0  0  0  0
  5  8  2  0  0  0  0
  5 10  1  0  0  0  0
  7 15  2  0  0  0  0
  8 13  1  0  0  0  0
  9 12  1  0  0  0  0
  9  7  1  0  0  0  0
 10 14  1  0  0  0  0
 10  3  2  0  0  0  0
 11 19  1  0  0  0  0
 12 20  1  6  0  0  0
 12 17  1  0  0  0  0
 13  3  1  0  0  0  0
 14  9  2  0  0  0  0
 15 11  1  0  0  0  0
 15  6  1  0  0  0  0
 16  6  2  0  0  0  0
 17 11  2  0  0  0  0
 19 18  3  0  0  0  0
 21 20  1  0  0  0  0
 22 21  1  0  0  0  0
 23 25  2  0  0  0  0
 24 25  1  0  0  0  0
 25 26  1  0  0  0  0
 26 22  1  0  0  0  0
 27 28  1  0  0  0  0
 27 24  1  0  0  0  0
M  END
>  <MODEL>
9

>  <REMARK>
 VINA RESULT:      -8.5      2.456      5.408
  Name = 
  6 active torsions:
  status: ('A' for Active; 'I' for Inactive)
    1  A    between atoms: C_3  and  N_5
    2  A    between atoms: C_11  and  C_14
    3  A    between atoms: C_11  and  N_22
    4  A    between atoms: C_14  and  O_15
    5  A    between atoms: O_15  and  C_23
    6  A    between atoms: C_16  and  C_21
                            x       y       z     vdW  Elec       q    Type
                         _______ _______ _______ _____ _____    ______ ____

>  <TORSDO>
F 6

$$$$
