=
 OpenBabel10232411523D

 31 35  0  0  1  0  0  0  0  0999 V2000
  189.9220  177.7180  141.2460 C   0  0  0  0  0  3  0  0  0  0  0  0
  190.0130  177.4360  146.2410 C   0  0  0  0  0  2  0  0  0  0  0  0
  187.9580  177.1140  145.2090 C   0  0  0  0  0  0  0  0  0  0  0  0
  189.8740  177.2660  143.6360 C   0  0  0  0  0  0  0  0  0  0  0  0
  189.2450  177.2900  144.9760 C   0  0  0  0  0  0  0  0  0  0  0  0
  188.9030  178.6550  147.9650 O   0  0  0  0  0  1  0  0  0  0  0  0
  186.8850  177.9770  143.1950 C   0  0  0  0  0  0  0  0  0  0  0  0
  188.9540  177.4090  147.3410 C   0  0  1  0  0  3  0  0  0  0  0  0
  187.9030  178.2960  142.4480 N   0  0  0  0  0  0  0  0  0  0  0  0
  191.2360  177.2540  141.1650 C   0  0  0  0  0  0  0  0  0  0  0  0
  187.6230  177.1320  146.6500 C   0  0  0  0  0  2  0  0  0  0  0  0
  191.8720  176.8050  142.3270 C   0  0  0  0  0  3  0  0  0  0  0  0
  189.2190  177.7170  142.4560 C   0  0  0  0  0  0  0  0  0  0  0  0
  191.2000  176.8180  143.5480 C   0  0  0  0  0  3  0  0  0  0  0  0
  186.9590  176.8260  144.1480 C   0  0  0  0  0  2  0  0  0  0  0  0
  191.6620  176.3840  138.7850 C   0  0  0  0  0  0  0  0  0  0  0  0
  190.7830  175.4430  138.8230 N   0  0  0  0  0  0  0  0  0  0  0  0
  192.5960  176.5490  137.2630 S   0  0  0  0  0  0  0  0  0  0  0  0
  191.6750  175.1400  136.5550 C   0  0  0  0  0  2  0  0  0  0  0  0
  190.7340  174.7080  137.6160 C   0  0  0  0  0  0  0  0  0  0  0  0
  189.9370  173.7470  137.4590 O   0  0  0  0  0  0  0  0  0  0  0  0
  191.8950  177.2660  139.8910 N   0  0  0  0  0  2  0  0  0  0  0  0
  182.5300  178.8710  143.2170 C   0  0  0  0  0  0  0  0  0  0  0  0
  185.6170  178.7270  143.0700 C   0  0  0  0  0  0  0  0  0  0  0  0
  184.8370  178.9330  144.1330 C   0  0  0  0  0  3  0  0  0  0  0  0
  182.7740  178.4010  142.0240 N   0  0  0  0  0  0  0  0  0  0  0  0
  183.9780  178.5210  141.2970 N   0  0  0  0  0  2  0  0  0  0  0  0
  183.5410  179.6670  144.0030 C   0  0  0  0  0  2  0  0  0  0  0  0
  185.1640  179.2430  141.7400 C   0  0  0  0  0  2  0  0  0  0  0  0
  181.2680  178.6310  143.7650 O   0  0  0  0  0  0  0  0  0  0  0  0
  180.0880  178.5630  142.9750 C   0  0  0  0  0  1  0  0  0  0  0  0
  1 13  1  0  0  0  0
  2  8  1  0  0  0  0
  3 11  1  0  0  0  0
  4  5  1  0  0  0  0
  5  3  2  0  0  0  0
  5  2  1  0  0  0  0
  7 15  1  0  0  0  0
  8  6  1  6  0  0  0
  9 13  1  0  0  0  0
  9  7  2  0  0  0  0
 10  1  2  0  0  0  0
 10 12  1  0  0  0  0
 11  8  1  0  0  0  0
 12 14  2  0  0  0  0
 13  4  2  0  0  0  0
 14  4  1  0  0  0  0
 15  3  1  0  0  0  0
 16 17  2  0  0  0  0
 16 22  1  0  0  0  0
 18 16  1  0  0  0  0
 19 18  1  0  0  0  0
 19 20  1  0  0  0  0
 20 17  1  0  0  0  0
 21 20  2  0  0  0  0
 22 10  1  0  0  0  0
 23 30  1  0  0  0  0
 23 28  1  0  0  0  0
 24  7  1  0  0  0  0
 24 25  2  0  0  0  0
 26 23  2  0  0  0  0
 27 29  1  0  0  0  0
 27 26  1  0  0  0  0
 28 25  1  0  0  0  0
 29 24  1  0  0  0  0
 31 30  1  0  0  0  0
M  END
>  <MODEL>
1

>  <REMARK>
 VINA RESULT:      -9.8      0.000      0.000
  Name = 
  3 active torsions:
  status: ('A' for Active; 'I' for Inactive)
    1  A    between atoms: C_3  and  O_19
    2  A    between atoms: C_4  and  C_15
    3  A    between atoms: C_21  and  N_26
                            x       y       z     vdW  Elec       q    Type
                         _______ _______ _______ _____ _____    ______ ____

>  <TORSDO>
F 3

$$$$
=
 OpenBabel10232411523D

 31 35  0  0  1  0  0  0  0  0999 V2000
  185.8500  178.2280  143.7080 C   0  0  0  0  0  3  0  0  0  0  0  0
  189.9850  176.8740  146.1790 C   0  0  0  0  0  2  0  0  0  0  0  0
  190.2820  178.0870  144.2220 C   0  0  0  0  0  0  0  0  0  0  0  0
  187.9150  177.8920  144.9490 C   0  0  0  0  0  0  0  0  0  0  0  0
  189.3690  177.6290  145.0560 C   0  0  0  0  0  0  0  0  0  0  0  0
  191.8790  175.5490  145.5890 O   0  0  0  0  0  1  0  0  0  0  0  0
  189.0910  178.2570  142.0990 C   0  0  0  0  0  0  0  0  0  0  0  0
  191.4780  176.8560  145.8590 C   0  0  1  0  0  3  0  0  0  0  0  0
  187.8790  177.9100  142.4280 N   0  0  0  0  0  0  0  0  0  0  0  0
  185.1230  178.2910  144.8970 C   0  0  0  0  0  0  0  0  0  0  0  0
  191.6600  177.7110  144.6090 C   0  0  0  0  0  2  0  0  0  0  0  0
  185.7950  178.1440  146.1150 C   0  0  0  0  0  3  0  0  0  0  0  0
  187.2380  178.0490  143.7080 C   0  0  0  0  0  0  0  0  0  0  0  0
  187.1730  177.9400  146.1380 C   0  0  0  0  0  3  0  0  0  0  0  0
  189.9770  178.9730  143.0690 C   0  0  0  0  0  2  0  0  0  0  0  0
  182.9050  178.6420  143.6490 C   0  0  0  0  0  0  0  0  0  0  0  0
  183.4060  178.6020  142.4620 N   0  0  0  0  0  0  0  0  0  0  0  0
  181.1330  178.8940  143.7620 S   0  0  0  0  0  0  0  0  0  0  0  0
  181.0330  178.9590  141.9400 C   0  0  0  0  0  2  0  0  0  0  0  0
  182.4240  178.7720  141.4590 C   0  0  0  0  0  0  0  0  0  0  0  0
  182.7190  178.7630  140.2370 O   0  0  0  0  0  0  0  0  0  0  0  0
  183.7040  178.4920  144.8290 N   0  0  0  0  0  2  0  0  0  0  0  0
  189.4910  176.3910  138.0840 C   0  0  0  0  0  0  0  0  0  0  0  0
  189.5890  177.9860  140.7340 C   0  0  0  0  0  0  0  0  0  0  0  0
  188.8050  178.1740  139.6710 C   0  0  0  0  0  3  0  0  0  0  0  0
  190.2280  175.6580  138.8740 N   0  0  0  0  0  0  0  0  0  0  0  0
  190.9200  176.0870  140.0270 N   0  0  0  0  0  2  0  0  0  0  0  0
  189.2980  177.8730  138.2920 C   0  0  0  0  0  2  0  0  0  0  0  0
  190.9740  177.4590  140.5180 C   0  0  0  0  0  2  0  0  0  0  0  0
  188.8810  175.7640  136.9960 O   0  0  0  0  0  0  0  0  0  0  0  0
  187.4880  175.4820  136.9550 C   0  0  0  0  0  1  0  0  0  0  0  0
  1 13  2  0  0  0  0
  1 10  1  0  0  0  0
  3 11  1  0  0  0  0
  3  5  2  0  0  0  0
  4  5  1  0  0  0  0
  4 14  2  0  0  0  0
  5  2  1  0  0  0  0
  7  9  2  0  0  0  0
  7 15  1  0  0  0  0
  8  6  1  6  0  0  0
  8  2  1  0  0  0  0
  9 13  1  0  0  0  0
 10 12  2  0  0  0  0
 11  8  1  0  0  0  0
 12 14  1  0  0  0  0
 13  4  1  0  0  0  0
 15  3  1  0  0  0  0
 16 18  1  0  0  0  0
 16 22  1  0  0  0  0
 17 16  2  0  0  0  0
 19 18  1  0  0  0  0
 20 19  1  0  0  0  0
 20 17  1  0  0  0  0
 21 20  2  0  0  0  0
 22 10  1  0  0  0  0
 23 28  1  0  0  0  0
 23 26  2  0  0  0  0
 24  7  1  0  0  0  0
 25 24  2  0  0  0  0
 26 27  1  0  0  0  0
 27 29  1  0  0  0  0
 28 25  1  0  0  0  0
 29 24  1  0  0  0  0
 30 23  1  0  0  0  0
 31 30  1  0  0  0  0
M  END
>  <MODEL>
2

>  <REMARK>
 VINA RESULT:      -9.0      3.047      7.255
  Name = 
  3 active torsions:
  status: ('A' for Active; 'I' for Inactive)
    1  A    between atoms: C_3  and  O_19
    2  A    between atoms: C_4  and  C_15
    3  A    between atoms: C_21  and  N_26
                            x       y       z     vdW  Elec       q    Type
                         _______ _______ _______ _____ _____    ______ ____

>  <TORSDO>
F 3

$$$$
=
 OpenBabel10232411523D

 31 35  0  0  1  0  0  0  0  0999 V2000
  191.8720  175.7270  138.0770 C   0  0  0  0  0  3  0  0  0  0  0  0
  187.2440  177.1670  136.8340 C   0  0  0  0  0  2  0  0  0  0  0  0
  188.0550  177.8960  138.8840 C   0  0  0  0  0  0  0  0  0  0  0  0
  189.7410  176.7350  137.4780 C   0  0  0  0  0  0  0  0  0  0  0  0
  188.3860  177.2500  137.7830 C   0  0  0  0  0  0  0  0  0  0  0  0
  185.1080  176.8470  137.8460 O   0  0  0  0  0  1  0  0  0  0  0  0
  189.5650  176.9790  140.5670 C   0  0  0  0  0  0  0  0  0  0  0  0
  186.0780  177.8120  137.5780 C   0  0  1  0  0  3  0  0  0  0  0  0
  190.3060  176.1670  139.8690 N   0  0  0  0  0  0  0  0  0  0  0  0
  192.2550  175.6910  136.7360 C   0  0  0  0  0  0  0  0  0  0  0  0
  186.6440  178.3420  138.8910 C   0  0  0  0  0  2  0  0  0  0  0  0
  191.3720  176.1690  135.7620 C   0  0  0  0  0  3  0  0  0  0  0  0
  190.6390  176.2560  138.4720 C   0  0  0  0  0  0  0  0  0  0  0  0
  190.1270  176.6780  136.1310 C   0  0  0  0  0  3  0  0  0  0  0  0
  189.0170  178.2340  139.9640 C   0  0  0  0  0  2  0  0  0  0  0  0
  194.6680  175.8590  135.8690 C   0  0  0  0  0  0  0  0  0  0  0  0
  194.6430  177.1260  135.6370 N   0  0  0  0  0  0  0  0  0  0  0  0
  196.2010  175.0060  135.5000 S   0  0  0  0  0  0  0  0  0  0  0  0
  196.9350  176.5830  134.9440 C   0  0  0  0  0  2  0  0  0  0  0  0
  195.8710  177.6000  135.1190 C   0  0  0  0  0  0  0  0  0  0  0  0
  196.0410  178.8120  134.8290 O   0  0  0  0  0  0  0  0  0  0  0  0
  193.5400  175.1500  136.3980 N   0  0  0  0  0  2  0  0  0  0  0  0
  188.5590  177.6130  144.8510 C   0  0  0  0  0  0  0  0  0  0  0  0
  189.2970  176.6890  141.9920 C   0  0  0  0  0  0  0  0  0  0  0  0
  188.0900  176.9040  142.5180 C   0  0  0  0  0  3  0  0  0  0  0  0
  189.8480  177.8060  144.7730 N   0  0  0  0  0  0  0  0  0  0  0  0
  190.7430  177.1910  143.8710 N   0  0  0  0  0  2  0  0  0  0  0  0
  187.8250  176.6380  143.9650 C   0  0  0  0  0  2  0  0  0  0  0  0
  190.3860  176.1790  142.8840 C   0  0  0  0  0  2  0  0  0  0  0  0
  187.8510  178.3350  145.8140 O   0  0  0  0  0  0  0  0  0  0  0  0
  186.4850  178.0790  146.1150 C   0  0  0  0  0  1  0  0  0  0  0  0
  1 13  1  0  0  0  0
  2  8  1  0  0  0  0
  2  5  1  0  0  0  0
  3 11  1  0  0  0  0
  3 15  1  0  0  0  0
  4  5  1  0  0  0  0
  4 13  2  0  0  0  0
  5  3  2  0  0  0  0
  7 24  1  0  0  0  0
  8  6  1  1  0  0  0
  8 11  1  0  0  0  0
  9  7  2  0  0  0  0
 10  1  2  0  0  0  0
 12 14  2  0  0  0  0
 12 10  1  0  0  0  0
 13  9  1  0  0  0  0
 14  4  1  0  0  0  0
 15  7  1  0  0  0  0
 16 22  1  0  0  0  0
 17 16  2  0  0  0  0
 18 16  1  0  0  0  0
 19 20  1  0  0  0  0
 19 18  1  0  0  0  0
 20 17  1  0  0  0  0
 21 20  2  0  0  0  0
 22 10  1  0  0  0  0
 23 30  1  0  0  0  0
 24 25  2  0  0  0  0
 24 29  1  0  0  0  0
 25 28  1  0  0  0  0
 26 23  2  0  0  0  0
 27 26  1  0  0  0  0
 28 23  1  0  0  0  0
 29 27  1  0  0  0  0
 30 31  1  0  0  0  0
M  END
>  <MODEL>
3

>  <REMARK>
 VINA RESULT:      -8.1      3.497      6.502
  Name = 
  3 active torsions:
  status: ('A' for Active; 'I' for Inactive)
    1  A    between atoms: C_3  and  O_19
    2  A    between atoms: C_4  and  C_15
    3  A    between atoms: C_21  and  N_26
                            x       y       z     vdW  Elec       q    Type
                         _______ _______ _______ _____ _____    ______ ____

>  <TORSDO>
F 3

$$$$
=
 OpenBabel10232411523D

 31 35  0  0  1  0  0  0  0  0999 V2000
  185.5910  178.4980  140.1330 C   0  0  0  0  0  3  0  0  0  0  0  0
  180.9900  178.4750  142.0990 C   0  0  0  0  0  2  0  0  0  0  0  0
  182.7280  179.1020  143.5040 C   0  0  0  0  0  0  0  0  0  0  0  0
  183.3940  178.8120  141.1290 C   0  0  0  0  0  0  0  0  0  0  0  0
  182.4350  178.7860  142.2570 C   0  0  0  0  0  0  0  0  0  0  0  0
  180.0000  177.3000  143.9240 O   0  0  0  0  0  1  0  0  0  0  0  0
  185.0820  178.4940  143.7150 C   0  0  0  0  0  0  0  0  0  0  0  0
  180.4180  178.5650  143.5110 C   0  0  1  0  0  3  0  0  0  0  0  0
  185.3800  178.0980  142.5100 N   0  0  0  0  0  0  0  0  0  0  0  0
  185.0840  178.8030  138.8690 C   0  0  0  0  0  0  0  0  0  0  0  0
  181.5570  179.0400  144.4070 C   0  0  0  0  0  2  0  0  0  0  0  0
  183.7240  179.1040  138.7360 C   0  0  0  0  0  3  0  0  0  0  0  0
  184.7780  178.5130  141.2710 C   0  0  0  0  0  0  0  0  0  0  0  0
  182.8900  179.1000  139.8530 C   0  0  0  0  0  3  0  0  0  0  0  0
  184.0670  179.5690  143.9440 C   0  0  0  0  0  2  0  0  0  0  0  0
  186.3390  177.6540  136.9450 C   0  0  0  0  0  0  0  0  0  0  0  0
  185.8730  176.4720  137.1620 N   0  0  0  0  0  0  0  0  0  0  0  0
  187.4800  177.8250  135.5720 S   0  0  0  0  0  0  0  0  0  0  0  0
  187.3190  176.0400  135.2250 C   0  0  0  0  0  2  0  0  0  0  0  0
  186.3750  175.5210  136.2440 C   0  0  0  0  0  0  0  0  0  0  0  0
  186.0350  174.3110  136.2950 O   0  0  0  0  0  0  0  0  0  0  0  0
  185.9740  178.7860  137.7450 N   0  0  0  0  0  2  0  0  0  0  0  0
  187.8160  178.1290  147.2020 C   0  0  0  0  0  0  0  0  0  0  0  0
  185.7870  177.9100  144.8760 C   0  0  0  0  0  0  0  0  0  0  0  0
  185.6050  178.4000  146.1030 C   0  0  0  0  0  3  0  0  0  0  0  0
  188.5470  177.8270  146.1630 N   0  0  0  0  0  0  0  0  0  0  0  0
  188.1090  177.2220  144.9650 N   0  0  0  0  0  2  0  0  0  0  0  0
  186.3390  177.8290  147.2740 C   0  0  0  0  0  2  0  0  0  0  0  0
  186.7480  176.7760  144.6930 C   0  0  0  0  0  2  0  0  0  0  0  0
  188.4480  178.7370  148.2880 O   0  0  0  0  0  0  0  0  0  0  0  0
  189.7730  178.4130  148.6850 C   0  0  0  0  0  1  0  0  0  0  0  0
  1 13  1  0  0  0  0
  2  5  1  0  0  0  0
  2  8  1  0  0  0  0
  3 15  1  0  0  0  0
  3 11  1  0  0  0  0
  4 13  2  0  0  0  0
  4  5  1  0  0  0  0
  5  3  2  0  0  0  0
  7 15  1  0  0  0  0
  7 24  1  0  0  0  0
  8  6  1  1  0  0  0
  8 11  1  0  0  0  0
  9  7  2  0  0  0  0
 10  1  2  0  0  0  0
 12 10  1  0  0  0  0
 12 14  2  0  0  0  0
 13  9  1  0  0  0  0
 14  4  1  0  0  0  0
 16 17  2  0  0  0  0
 16 22  1  0  0  0  0
 18 16  1  0  0  0  0
 19 18  1  0  0  0  0
 19 20  1  0  0  0  0
 20 21  2  0  0  0  0
 20 17  1  0  0  0  0
 22 10  1  0  0  0  0
 23 28  1  0  0  0  0
 23 30  1  0  0  0  0
 24 25  2  0  0  0  0
 25 28  1  0  0  0  0
 26 23  2  0  0  0  0
 27 26  1  0  0  0  0
 29 24  1  0  0  0  0
 29 27  1  0  0  0  0
 30 31  1  0  0  0  0
M  END
>  <MODEL>
4

>  <REMARK>
 VINA RESULT:      -7.9      3.422      6.541
  Name = 
  3 active torsions:
  status: ('A' for Active; 'I' for Inactive)
    1  A    between atoms: C_3  and  O_19
    2  A    between atoms: C_4  and  C_15
    3  A    between atoms: C_21  and  N_26
                            x       y       z     vdW  Elec       q    Type
                         _______ _______ _______ _____ _____    ______ ____

>  <TORSDO>
F 3

$$$$
=
 OpenBabel10232411523D

 31 35  0  0  1  0  0  0  0  0999 V2000
  190.7420  176.7850  139.1450 C   0  0  0  0  0  3  0  0  0  0  0  0
  185.9960  177.9060  138.0200 C   0  0  0  0  0  2  0  0  0  0  0  0
  186.7430  178.5050  140.1350 C   0  0  0  0  0  0  0  0  0  0  0  0
  188.5240  177.6460  138.6330 C   0  0  0  0  0  0  0  0  0  0  0  0
  187.1290  178.0010  138.9790 C   0  0  0  0  0  0  0  0  0  0  0  0
  183.9020  177.2940  138.9850 O   0  0  0  0  0  1  0  0  0  0  0  0
  188.3370  177.5740  141.7310 C   0  0  0  0  0  0  0  0  0  0  0  0
  184.7770  178.3650  138.8160 C   0  0  1  0  0  3  0  0  0  0  0  0
  189.1470  176.9040  140.9610 N   0  0  0  0  0  0  0  0  0  0  0  0
  191.1210  176.9140  137.8080 C   0  0  0  0  0  0  0  0  0  0  0  0
  185.2970  178.8160  140.1770 C   0  0  0  0  0  2  0  0  0  0  0  0
  190.1940  177.4010  136.8800 C   0  0  0  0  0  3  0  0  0  0  0  0
  189.4660  177.1580  139.5820 C   0  0  0  0  0  0  0  0  0  0  0  0
  188.9100  177.7550  137.2890 C   0  0  0  0  0  3  0  0  0  0  0  0
  187.6740  178.8250  141.2480 C   0  0  0  0  0  2  0  0  0  0  0  0
  192.8650  175.2700  136.8800 C   0  0  0  0  0  0  0  0  0  0  0  0
  192.0400  174.3060  136.6550 N   0  0  0  0  0  0  0  0  0  0  0  0
  194.5830  174.9670  136.4680 S   0  0  0  0  0  0  0  0  0  0  0  0
  194.1440  173.2860  135.9060 C   0  0  0  0  0  2  0  0  0  0  0  0
  192.6810  173.1680  136.1130 C   0  0  0  0  0  0  0  0  0  0  0  0
  192.0410  172.1240  135.8260 O   0  0  0  0  0  0  0  0  0  0  0  0
  192.4500  176.5290  137.4270 N   0  0  0  0  0  2  0  0  0  0  0  0
  187.8720  177.7020  146.1500 C   0  0  0  0  0  0  0  0  0  0  0  0
  188.1010  177.1240  143.1190 C   0  0  0  0  0  0  0  0  0  0  0  0
  187.0490  177.5640  143.8110 C   0  0  0  0  0  3  0  0  0  0  0  0
  189.1520  177.5480  145.9480 N   0  0  0  0  0  0  0  0  0  0  0  0
  189.7650  176.8800  144.8660 N   0  0  0  0  0  2  0  0  0  0  0  0
  186.8260  177.1320  145.2250 C   0  0  0  0  0  2  0  0  0  0  0  0
  189.0610  176.1900  143.7910 C   0  0  0  0  0  2  0  0  0  0  0  0
  187.4730  178.4100  147.2860 O   0  0  0  0  0  0  0  0  0  0  0  0
  187.8600  178.0330  148.6010 C   0  0  0  0  0  1  0  0  0  0  0  0
  1 13  1  0  0  0  0
  2  8  1  0  0  0  0
  2  5  1  0  0  0  0
  3 11  1  0  0  0  0
  3 15  1  0  0  0  0
  4  5  1  0  0  0  0
  4 13  2  0  0  0  0
  5  3  2  0  0  0  0
  7 24  1  0  0  0  0
  8  6  1  1  0  0  0
  8 11  1  0  0  0  0
  9  7  2  0  0  0  0
 10  1  2  0  0  0  0
 12 14  2  0  0  0  0
 12 10  1  0  0  0  0
 13  9  1  0  0  0  0
 14  4  1  0  0  0  0
 15  7  1  0  0  0  0
 16 22  1  0  0  0  0
 17 16  2  0  0  0  0
 18 16  1  0  0  0  0
 19 20  1  0  0  0  0
 19 18  1  0  0  0  0
 20 17  1  0  0  0  0
 21 20  2  0  0  0  0
 22 10  1  0  0  0  0
 23 30  1  0  0  0  0
 24 29  1  0  0  0  0
 24 25  2  0  0  0  0
 25 28  1  0  0  0  0
 26 23  2  0  0  0  0
 27 26  1  0  0  0  0
 28 23  1  0  0  0  0
 29 27  1  0  0  0  0
 30 31  1  0  0  0  0
M  END
>  <MODEL>
5

>  <REMARK>
 VINA RESULT:      -7.9      2.961      5.575
  Name = 
  3 active torsions:
  status: ('A' for Active; 'I' for Inactive)
    1  A    between atoms: C_3  and  O_19
    2  A    between atoms: C_4  and  C_15
    3  A    between atoms: C_21  and  N_26
                            x       y       z     vdW  Elec       q    Type
                         _______ _______ _______ _____ _____    ______ ____

>  <TORSDO>
F 3

$$$$
=
 OpenBabel10232411523D

 31 35  0  0  1  0  0  0  0  0999 V2000
  185.7150  178.3070  143.6890 C   0  0  0  0  0  3  0  0  0  0  0  0
  181.0270  179.8670  142.8940 C   0  0  0  0  0  2  0  0  0  0  0  0
  181.9220  178.3960  141.3370 C   0  0  0  0  0  0  0  0  0  0  0  0
  183.3480  178.7490  143.3390 C   0  0  0  0  0  0  0  0  0  0  0  0
  182.1560  178.9850  142.4930 C   0  0  0  0  0  0  0  0  0  0  0  0
  179.9820  181.0500  141.1070 O   0  0  0  0  0  1  0  0  0  0  0  0
  184.1530  177.9760  140.4420 C   0  0  0  0  0  0  0  0  0  0  0  0
  180.0510  179.8020  141.7230 C   0  0  1  0  0  3  0  0  0  0  0  0
  184.9250  178.3960  141.4030 N   0  0  0  0  0  0  0  0  0  0  0  0
  185.5520  178.4220  145.0700 C   0  0  0  0  0  0  0  0  0  0  0  0
  180.6230  178.7830  140.7420 C   0  0  0  0  0  2  0  0  0  0  0  0
  184.2840  178.7110  145.5840 C   0  0  0  0  0  3  0  0  0  0  0  0
  184.6340  178.4470  142.8100 C   0  0  0  0  0  0  0  0  0  0  0  0
  183.1980  178.8800  144.7270 C   0  0  0  0  0  3  0  0  0  0  0  0
  182.8160  177.3730  140.7360 C   0  0  0  0  0  2  0  0  0  0  0  0
  187.9840  177.7400  145.5440 C   0  0  0  0  0  0  0  0  0  0  0  0
  188.2600  177.3680  144.3410 N   0  0  0  0  0  0  0  0  0  0  0  0
  189.3010  177.5930  146.7510 S   0  0  0  0  0  0  0  0  0  0  0  0
  190.4030  176.9280  145.4550 C   0  0  0  0  0  2  0  0  0  0  0  0
  189.5900  176.9030  144.2160 C   0  0  0  0  0  0  0  0  0  0  0  0
  190.0460  176.4960  143.1170 O   0  0  0  0  0  0  0  0  0  0  0  0
  186.6970  178.2510  145.9170 N   0  0  0  0  0  2  0  0  0  0  0  0
  186.0910  176.8290  136.6090 C   0  0  0  0  0  0  0  0  0  0  0  0
  184.6170  178.0500  139.0400 C   0  0  0  0  0  0  0  0  0  0  0  0
  184.1570  177.1990  138.1220 C   0  0  0  0  0  3  0  0  0  0  0  0
  187.0390  177.3780  137.3180 N   0  0  0  0  0  0  0  0  0  0  0  0
  186.8940  178.3970  138.2830 N   0  0  0  0  0  2  0  0  0  0  0  0
  184.6470  177.2530  136.7100 C   0  0  0  0  0  2  0  0  0  0  0  0
  185.6420  179.0610  138.6280 C   0  0  0  0  0  2  0  0  0  0  0  0
  186.4500  175.8220  135.7110 O   0  0  0  0  0  0  0  0  0  0  0  0
  187.7880  175.3680  135.5610 C   0  0  0  0  0  1  0  0  0  0  0  0
  1 10  1  0  0  0  0
  3  5  2  0  0  0  0
  4 14  2  0  0  0  0
  5  2  1  0  0  0  0
  5  4  1  0  0  0  0
  7 15  1  0  0  0  0
  7  9  2  0  0  0  0
  8  6  1  6  0  0  0
  8  2  1  0  0  0  0
  9 13  1  0  0  0  0
 10 12  2  0  0  0  0
 10 22  1  0  0  0  0
 11  3  1  0  0  0  0
 11  8  1  0  0  0  0
 13  4  1  0  0  0  0
 13  1  2  0  0  0  0
 14 12  1  0  0  0  0
 15  3  1  0  0  0  0
 16 22  1  0  0  0  0
 16 18  1  0  0  0  0
 17 16  2  0  0  0  0
 19 18  1  0  0  0  0
 20 17  1  0  0  0  0
 20 19  1  0  0  0  0
 21 20  2  0  0  0  0
 23 28  1  0  0  0  0
 23 26  2  0  0  0  0
 24  7  1  0  0  0  0
 25 24  2  0  0  0  0
 26 27  1  0  0  0  0
 27 29  1  0  0  0  0
 28 25  1  0  0  0  0
 29 24  1  0  0  0  0
 30 23  1  0  0  0  0
 31 30  1  0  0  0  0
M  END
>  <MODEL>
6

>  <REMARK>
 VINA RESULT:      -7.8      3.444      7.605
  Name = 
  3 active torsions:
  status: ('A' for Active; 'I' for Inactive)
    1  A    between atoms: C_3  and  O_19
    2  A    between atoms: C_4  and  C_15
    3  A    between atoms: C_21  and  N_26
                            x       y       z     vdW  Elec       q    Type
                         _______ _______ _______ _____ _____    ______ ____

>  <TORSDO>
F 3

$$$$
=
 OpenBabel10232411523D

 31 35  0  0  1  0  0  0  0  0999 V2000
  192.3440  176.1440  138.6650 C   0  0  0  0  0  3  0  0  0  0  0  0
  187.8240  176.9660  136.6810 C   0  0  0  0  0  2  0  0  0  0  0  0
  188.1950  177.7840  138.8220 C   0  0  0  0  0  0  0  0  0  0  0  0
  190.2210  176.8640  137.7190 C   0  0  0  0  0  0  0  0  0  0  0  0
  188.7790  177.1930  137.7980 C   0  0  0  0  0  0  0  0  0  0  0  0
  185.6150  176.3600  137.3460 O   0  0  0  0  0  1  0  0  0  0  0  0
  189.5250  177.0660  140.7380 C   0  0  0  0  0  0  0  0  0  0  0  0
  186.4790  177.4460  137.2200 C   0  0  1  0  0  3  0  0  0  0  0  0
  190.4680  176.3620  140.1780 N   0  0  0  0  0  0  0  0  0  0  0  0
  192.9360  176.1660  137.4020 C   0  0  0  0  0  0  0  0  0  0  0  0
  186.7540  178.0390  138.5980 C   0  0  0  0  0  2  0  0  0  0  0  0
  192.1640  176.5300  136.2940 C   0  0  0  0  0  3  0  0  0  0  0  0
  191.0040  176.5030  138.8510 C   0  0  0  0  0  0  0  0  0  0  0  0
  190.8210  176.8670  136.4520 C   0  0  0  0  0  3  0  0  0  0  0  0
  188.9200  178.2400  140.0360 C   0  0  0  0  0  2  0  0  0  0  0  0
  194.8580  174.4830  137.1270 C   0  0  0  0  0  0  0  0  0  0  0  0
  194.1140  173.4320  137.0700 N   0  0  0  0  0  0  0  0  0  0  0  0
  196.6270  174.2200  136.9980 S   0  0  0  0  0  0  0  0  0  0  0  0
  196.3410  172.4230  136.8440 C   0  0  0  0  0  2  0  0  0  0  0  0
  194.8710  172.2480  136.9130 C   0  0  0  0  0  0  0  0  0  0  0  0
  194.3220  171.1180  136.8380 O   0  0  0  0  0  0  0  0  0  0  0  0
  194.3190  175.8020  137.2820 N   0  0  0  0  0  2  0  0  0  0  0  0
  188.3820  177.5660  145.0050 C   0  0  0  0  0  0  0  0  0  0  0  0
  189.0730  176.7340  142.1060 C   0  0  0  0  0  0  0  0  0  0  0  0
  187.9310  177.2250  142.5870 C   0  0  0  0  0  3  0  0  0  0  0  0
  189.6770  177.4020  145.0170 N   0  0  0  0  0  0  0  0  0  0  0  0
  190.4440  176.6470  144.1030 N   0  0  0  0  0  2  0  0  0  0  0  0
  187.4870  176.9140  143.9800 C   0  0  0  0  0  2  0  0  0  0  0  0
  189.9090  175.8650  142.9950 C   0  0  0  0  0  2  0  0  0  0  0  0
  187.8180  178.3660  146.0010 O   0  0  0  0  0  0  0  0  0  0  0  0
  186.4760  178.2110  146.4420 C   0  0  0  0  0  1  0  0  0  0  0  0
  1 13  1  0  0  0  0
  2  8  1  0  0  0  0
  2  5  1  0  0  0  0
  3 15  1  0  0  0  0
  4  5  1  0  0  0  0
  4 13  2  0  0  0  0
  5  3  2  0  0  0  0
  7 24  1  0  0  0  0
  8  6  1  1  0  0  0
  8 11  1  0  0  0  0
  9  7  2  0  0  0  0
 10  1  2  0  0  0  0
 11  3  1  0  0  0  0
 12 14  2  0  0  0  0
 12 10  1  0  0  0  0
 13  9  1  0  0  0  0
 14  4  1  0  0  0  0
 15  7  1  0  0  0  0
 16 22  1  0  0  0  0
 17 16  2  0  0  0  0
 18 16  1  0  0  0  0
 19 20  1  0  0  0  0
 19 18  1  0  0  0  0
 20 17  1  0  0  0  0
 21 20  2  0  0  0  0
 22 10  1  0  0  0  0
 23 26  2  0  0  0  0
 23 30  1  0  0  0  0
 24 25  2  0  0  0  0
 24 29  1  0  0  0  0
 25 28  1  0  0  0  0
 27 26  1  0  0  0  0
 28 23  1  0  0  0  0
 29 27  1  0  0  0  0
 30 31  1  0  0  0  0
M  END
>  <MODEL>
7

>  <REMARK>
 VINA RESULT:      -7.7      3.527      6.249
  Name = 
  3 active torsions:
  status: ('A' for Active; 'I' for Inactive)
    1  A    between atoms: C_3  and  O_19
    2  A    between atoms: C_4  and  C_15
    3  A    between atoms: C_21  and  N_26
                            x       y       z     vdW  Elec       q    Type
                         _______ _______ _______ _____ _____    ______ ____

>  <TORSDO>
F 3

$$$$
=
 OpenBabel10232411523D

 31 35  0  0  1  0  0  0  0  0999 V2000
  190.2860  177.1610  142.5090 C   0  0  0  0  0  3  0  0  0  0  0  0
  187.2060  178.4130  138.7700 C   0  0  0  0  0  2  0  0  0  0  0  0
  188.8900  176.8930  138.2780 C   0  0  0  0  0  0  0  0  0  0  0  0
  188.6980  177.4530  140.6890 C   0  0  0  0  0  0  0  0  0  0  0  0
  188.3270  177.5690  139.2610 C   0  0  0  0  0  0  0  0  0  0  0  0
  187.5540  179.4190  136.6350 O   0  0  0  0  0  1  0  0  0  0  0  0
  191.1740  176.5360  139.0580 C   0  0  0  0  0  0  0  0  0  0  0  0
  187.2100  178.2190  137.2560 C   0  0  1  0  0  3  0  0  0  0  0  0
  191.1500  177.0580  140.2510 N   0  0  0  0  0  0  0  0  0  0  0  0
  189.2740  177.3580  143.4500 C   0  0  0  0  0  0  0  0  0  0  0  0
  188.2770  177.1710  136.9590 C   0  0  0  0  0  2  0  0  0  0  0  0
  187.9720  177.6130  143.0070 C   0  0  0  0  0  3  0  0  0  0  0  0
  190.0220  177.1860  141.1350 C   0  0  0  0  0  0  0  0  0  0  0  0
  187.6910  177.6660  141.6420 C   0  0  0  0  0  3  0  0  0  0  0  0
  189.9600  175.8820  138.4780 C   0  0  0  0  0  2  0  0  0  0  0  0
  188.7550  177.6210  145.9520 C   0  0  0  0  0  0  0  0  0  0  0  0
  187.5320  177.9980  145.8010 N   0  0  0  0  0  0  0  0  0  0  0  0
  189.3540  177.5010  147.6380 S   0  0  0  0  0  0  0  0  0  0  0  0
  187.7200  178.0400  148.2490 C   0  0  0  0  0  2  0  0  0  0  0  0
  186.8920  178.2500  147.0360 C   0  0  0  0  0  0  0  0  0  0  0  0
  185.6940  178.6290  147.0950 O   0  0  0  0  0  0  0  0  0  0  0  0
  189.6080  177.3050  144.8440 N   0  0  0  0  0  2  0  0  0  0  0  0
  194.6500  175.0630  136.7100 C   0  0  0  0  0  0  0  0  0  0  0  0
  192.4300  176.5420  138.2780 C   0  0  0  0  0  0  0  0  0  0  0  0
  192.4430  176.1630  136.9990 C   0  0  0  0  0  3  0  0  0  0  0  0
  195.0170  174.9620  137.9590 N   0  0  0  0  0  0  0  0  0  0  0  0
  194.6070  175.7840  139.0310 N   0  0  0  0  0  2  0  0  0  0  0  0
  193.7180  176.1410  136.2180 C   0  0  0  0  0  2  0  0  0  0  0  0
  193.7240  176.9390  138.9200 C   0  0  0  0  0  2  0  0  0  0  0  0
  195.1680  174.1350  135.8040 O   0  0  0  0  0  0  0  0  0  0  0  0
  194.3780  173.5310  134.7880 C   0  0  0  0  0  1  0  0  0  0  0  0
  1 10  1  0  0  0  0
  2  5  1  0  0  0  0
  3 15  1  0  0  0  0
  3  5  2  0  0  0  0
  4 13  1  0  0  0  0
  4 14  2  0  0  0  0
  5  4  1  0  0  0  0
  7  9  2  0  0  0  0
  8  6  1  6  0  0  0
  8  2  1  0  0  0  0
  9 13  1  0  0  0  0
 10 22  1  0  0  0  0
 11  8  1  0  0  0  0
 11  3  1  0  0  0  0
 12 10  2  0  0  0  0
 13  1  2  0  0  0  0
 14 12  1  0  0  0  0
 15  7  1  0  0  0  0
 16 18  1  0  0  0  0
 17 16  2  0  0  0  0
 17 20  1  0  0  0  0
 18 19  1  0  0  0  0
 20 21  2  0  0  0  0
 20 19  1  0  0  0  0
 22 16  1  0  0  0  0
 23 26  2  0  0  0  0
 24 29  1  0  0  0  0
 24  7  1  0  0  0  0
 25 24  2  0  0  0  0
 26 27  1  0  0  0  0
 28 23  1  0  0  0  0
 28 25  1  0  0  0  0
 29 27  1  0  0  0  0
 30 23  1  0  0  0  0
 31 30  1  0  0  0  0
M  END
>  <MODEL>
8

>  <REMARK>
 VINA RESULT:      -7.7      3.784      9.594
  Name = 
  3 active torsions:
  status: ('A' for Active; 'I' for Inactive)
    1  A    between atoms: C_3  and  O_19
    2  A    between atoms: C_4  and  C_15
    3  A    between atoms: C_21  and  N_26
                            x       y       z     vdW  Elec       q    Type
                         _______ _______ _______ _____ _____    ______ ____

>  <TORSDO>
F 3

$$$$
=
 OpenBabel10232411523D

 31 35  0  0  1  0  0  0  0  0999 V2000
  189.2560  177.8460  141.4990 C   0  0  0  0  0  3  0  0  0  0  0  0
  187.8600  178.3220  146.2810 C   0  0  0  0  0  2  0  0  0  0  0  0
  186.2280  177.6470  144.7740 C   0  0  0  0  0  0  0  0  0  0  0  0
  188.5170  177.7530  143.8160 C   0  0  0  0  0  0  0  0  0  0  0  0
  187.5140  177.9130  144.8940 C   0  0  0  0  0  0  0  0  0  0  0  0
  186.2240  179.6670  147.3780 O   0  0  0  0  0  1  0  0  0  0  0  0
  185.7650  178.0890  142.4190 C   0  0  0  0  0  0  0  0  0  0  0  0
  186.5240  178.3540  147.0180 C   0  0  1  0  0  3  0  0  0  0  0  0
  186.9420  178.3930  141.9530 N   0  0  0  0  0  0  0  0  0  0  0  0
  190.5550  177.5090  141.8800 C   0  0  0  0  0  0  0  0  0  0  0  0
  185.4760  177.8460  146.0330 C   0  0  0  0  0  2  0  0  0  0  0  0
  190.8370  177.3030  143.2350 C   0  0  0  0  0  3  0  0  0  0  0  0
  188.2230  177.9560  142.4380 C   0  0  0  0  0  0  0  0  0  0  0  0
  189.8290  177.4320  144.1900 C   0  0  0  0  0  3  0  0  0  0  0  0
  185.6090  177.1060  143.5370 C   0  0  0  0  0  2  0  0  0  0  0  0
  191.4540  176.7300  139.6020 C   0  0  0  0  0  0  0  0  0  0  0  0
  190.3750  176.1360  139.2240 N   0  0  0  0  0  0  0  0  0  0  0  0
  192.8350  176.6890  138.4590 S   0  0  0  0  0  0  0  0  0  0  0  0
  191.8230  175.7260  137.2830 C   0  0  0  0  0  2  0  0  0  0  0  0
  190.5050  175.5540  137.9420 C   0  0  0  0  0  0  0  0  0  0  0  0
  189.5570  174.9290  137.4000 O   0  0  0  0  0  0  0  0  0  0  0  0
  191.5640  177.3970  140.8670 N   0  0  0  0  0  2  0  0  0  0  0  0
  181.6810  178.4270  140.6940 C   0  0  0  0  0  0  0  0  0  0  0  0
  184.5560  178.6830  141.8090 C   0  0  0  0  0  0  0  0  0  0  0  0
  183.3970  178.7020  142.4680 C   0  0  0  0  0  3  0  0  0  0  0  0
  182.4470  178.0900  139.6920 N   0  0  0  0  0  0  0  0  0  0  0  0
  183.8090  178.4180  139.5180 N   0  0  0  0  0  2  0  0  0  0  0  0
  182.1670  179.2770  141.8420 C   0  0  0  0  0  2  0  0  0  0  0  0
  184.6000  179.2450  140.4220 C   0  0  0  0  0  2  0  0  0  0  0  0
  180.3560  177.9880  140.6770 O   0  0  0  0  0  0  0  0  0  0  0  0
  179.9990  176.6180  140.8080 C   0  0  0  0  0  1  0  0  0  0  0  0
  1 10  2  0  0  0  0
  1 13  1  0  0  0  0
  2  8  1  0  0  0  0
  3  5  2  0  0  0  0
  3 11  1  0  0  0  0
  4 14  1  0  0  0  0
  4  5  1  0  0  0  0
  5  2  1  0  0  0  0
  7 15  1  0  0  0  0
  8  6  1  6  0  0  0
  9  7  2  0  0  0  0
  9 13  1  0  0  0  0
 10 12  1  0  0  0  0
 11  8  1  0  0  0  0
 12 14  2  0  0  0  0
 13  4  2  0  0  0  0
 15  3  1  0  0  0  0
 16 22  1  0  0  0  0
 17 16  2  0  0  0  0
 18 16  1  0  0  0  0
 19 20  1  0  0  0  0
 19 18  1  0  0  0  0
 20 17  1  0  0  0  0
 21 20  2  0  0  0  0
 22 10  1  0  0  0  0
 23 28  1  0  0  0  0
 24  7  1  0  0  0  0
 24 25  2  0  0  0  0
 26 23  2  0  0  0  0
 27 26  1  0  0  0  0
 27 29  1  0  0  0  0
 28 25  1  0  0  0  0
 29 24  1  0  0  0  0
 30 23  1  0  0  0  0
 30 31  1  0  0  0  0
M  END
>  <MODEL>
9

>  <REMARK>
 VINA RESULT:      -7.6      1.597      1.861
  Name = 
  3 active torsions:
  status: ('A' for Active; 'I' for Inactive)
    1  A    between atoms: C_3  and  O_19
    2  A    between atoms: C_4  and  C_15
    3  A    between atoms: C_21  and  N_26
                            x       y       z     vdW  Elec       q    Type
                         _______ _______ _______ _____ _____    ______ ____

>  <TORSDO>
F 3

$$$$
