=
 OpenBabel10232408213D

 30 36  0  0  1  0  0  0  0  0999 V2000
  192.3570  175.0950  147.0100 C   0  0  0  0  0  3  0  0  0  0  0  0
  189.4260  177.2110  144.7910 C   0  0  0  0  0  0  0  0  0  0  0  0
  188.9910  178.0160  147.0140 C   0  0  0  0  0  0  0  0  0  0  0  0
  185.9440  178.3750  145.0040 C   0  0  0  0  0  0  0  0  0  0  0  0
  192.1760  174.9960  145.4820 C   0  0  0  0  0  3  0  0  0  0  0  0
  190.3410  176.2360  144.1410 C   0  0  1  0  0  3  0  0  0  0  0  0
  186.3820  177.6460  142.7620 N   0  0  0  0  0  0  0  0  0  0  0  0
  187.6980  177.4210  143.0280 C   0  0  0  0  0  0  0  0  0  0  0  0
  188.1570  177.5910  144.3590 C   0  0  0  0  0  0  0  0  0  0  0  0
  191.6260  176.3560  147.4920 C   0  0  0  0  0  2  0  0  0  0  0  0
  189.8530  177.4420  146.0780 C   0  0  0  0  0  0  0  0  0  0  0  0
  190.7940  176.7190  142.8140 C   0  0  0  0  0  3  0  0  0  0  0  0
  185.5040  178.0940  143.6960 C   0  0  0  0  0  0  0  0  0  0  0  0
  183.2880  178.8110  144.3110 C   0  0  0  0  0  3  0  0  0  0  0  0
  184.1710  178.3160  143.3490 C   0  0  0  0  0  3  0  0  0  0  0  0
  189.3530  178.2190  148.2030 O   0  0  0  0  0  0  0  0  0  0  0  0
  185.0210  178.8700  145.9350 C   0  0  0  0  0  3  0  0  0  0  0  0
  191.4480  176.1860  145.0910 N   0  0  0  0  0  0  0  0  0  0  0  0
  183.7260  179.0770  145.5710 N   0  0  0  0  0  0  0  0  0  0  0  0
  187.7250  178.3340  146.6230 N   0  0  0  0  0  2  0  0  0  0  0  0
  189.9690  177.0920  141.8290 C   0  0  0  0  0  0  0  0  0  0  0  0
  188.4870  177.1900  141.9620 C   0  0  0  0  0  2  0  0  0  0  0  0
  187.2800  178.1240  145.3430 C   0  0  0  0  0  0  0  0  0  0  0  0
  191.0360  176.8730  146.2440 C   0  0  2  0  0  3  0  0  0  0  0  0
  191.7970  177.6870  140.4210 O   0  0  0  0  0  0  0  0  0  0  0  0
  190.5650  177.4310  140.5160 C   0  0  0  0  0  0  0  0  0  0  0  0
  189.7340  177.4560  139.2740 C   0  0  0  0  0  2  0  0  0  0  0  0
  187.9050  178.6440  138.4140 O   0  0  0  0  0  0  0  0  0  0  0  0
  189.0490  178.8020  139.1290 C   0  0  2  0  0  3  0  0  0  0  0  0
  188.9930  179.1730  137.7390 N   0  0  0  0  0  2  0  0  0  0  0  0
  1 10  1  0  0  0  0
  2 11  2  0  0  0  0
  3 16  2  0  0  0  0
  4 23  1  0  0  0  0
  4 17  1  0  0  0  0
  5  1  2  0  0  0  0
  6 12  1  6  0  0  0
  6  2  1  0  0  0  0
  6 18  1  0  0  0  0
  7  8  2  0  0  0  0
  7 13  1  0  0  0  0
  8  9  1  0  0  0  0
  9  2  1  0  0  0  0
  9 23  2  0  0  0  0
 11 24  1  0  0  0  0
 11  3  1  0  0  0  0
 13  4  2  0  0  0  0
 14 19  1  0  0  0  0
 15 13  1  0  0  0  0
 15 14  2  0  0  0  0
 18  5  1  0  0  0  0
 18 24  1  0  0  0  0
 19 17  2  0  0  0  0
 20  3  1  0  0  0  0
 21 22  1  0  0  0  0
 21 12  2  0  0  0  0
 22  8  1  0  0  0  0
 23 20  1  0  0  0  0
 24 10  1  1  0  0  0
 25 26  2  0  0  0  0
 26 21  1  0  0  0  0
 27 26  1  0  0  0  0
 28 29  1  0  0  0  0
 29 27  1  6  0  0  0
 30 28  1  0  0  0  0
 30 29  1  0  0  0  0
M  END
>  <MODEL>
1

>  <REMARK>
 VINA RESULT:     -10.9      0.000      0.000
  Name = 
  3 active torsions:
  status: ('A' for Active; 'I' for Inactive)
    1  A    between atoms: C_7  and  C_13
    2  A    between atoms: C_7  and  C_23
    3  A    between atoms: C_23  and  C_26
                            x       y       z     vdW  Elec       q    Type
                         _______ _______ _______ _____ _____    ______ ____

>  <TORSDO>
F 3

$$$$
=
 OpenBabel10232408213D

 30 36  0  0  1  0  0  0  0  0999 V2000
  187.1320  178.8220  148.0160 C   0  0  0  0  0  3  0  0  0  0  0  0
  186.8910  177.9650  143.8690 C   0  0  0  0  0  0  0  0  0  0  0  0
  188.9010  176.7900  144.4660 C   0  0  0  0  0  0  0  0  0  0  0  0
  189.0060  177.5770  140.8860 C   0  0  0  0  0  0  0  0  0  0  0  0
  186.0000  179.3050  147.0870 C   0  0  0  0  0  3  0  0  0  0  0  0
  185.8930  178.8380  144.5430 C   0  0  1  0  0  3  0  0  0  0  0  0
  186.9740  178.6850  140.2570 N   0  0  0  0  0  0  0  0  0  0  0  0
  186.4430  178.5490  141.5030 C   0  0  0  0  0  0  0  0  0  0  0  0
  187.2500  177.9820  142.5230 C   0  0  0  0  0  0  0  0  0  0  0  0
  187.8690  177.6770  147.3080 C   0  0  0  0  0  2  0  0  0  0  0  0
  187.6760  177.3580  144.8210 C   0  0  0  0  0  0  0  0  0  0  0  0
  184.5220  178.5840  144.0390 C   0  0  0  0  0  3  0  0  0  0  0  0
  188.2140  178.2390  139.9280 C   0  0  0  0  0  0  0  0  0  0  0  0
  189.9510  177.9050  138.2930 C   0  0  0  0  0  3  0  0  0  0  0  0
  188.6890  178.4010  138.6260 C   0  0  0  0  0  3  0  0  0  0  0  0
  189.6460  176.2460  145.3240 O   0  0  0  0  0  0  0  0  0  0  0  0
  190.2660  177.0970  140.5050 C   0  0  0  0  0  3  0  0  0  0  0  0
  186.0290  178.4250  145.9360 N   0  0  0  0  0  0  0  0  0  0  0  0
  190.7060  177.2690  139.2290 N   0  0  0  0  0  0  0  0  0  0  0  0
  189.2950  176.8550  143.1630 N   0  0  0  0  0  2  0  0  0  0  0  0
  184.1750  178.6360  142.7480 C   0  0  0  0  0  0  0  0  0  0  0  0
  185.1340  178.8390  141.6240 C   0  0  0  0  0  2  0  0  0  0  0  0
  188.5250  177.4450  142.1950 C   0  0  0  0  0  0  0  0  0  0  0  0
  187.1630  177.6010  146.0160 C   0  0  2  0  0  3  0  0  0  0  0  0
  182.3960  177.9350  141.3260 O   0  0  0  0  0  0  0  0  0  0  0  0
  182.7410  178.4840  142.4090 C   0  0  0  0  0  0  0  0  0  0  0  0
  181.6730  178.9510  143.3440 C   0  0  0  0  0  2  0  0  0  0  0  0
  180.6660  180.3210  141.7300 O   0  0  0  0  0  0  0  0  0  0  0  0
  180.4110  179.2860  142.5720 C   0  0  2  0  0  3  0  0  0  0  0  0
  179.9820  180.6220  142.8960 N   0  0  0  0  0  2  0  0  0  0  0  0
  2  6  1  0  0  0  0
  2 11  2  0  0  0  0
  3 11  1  0  0  0  0
  3 16  2  0  0  0  0
  4 23  2  0  0  0  0
  5  1  2  0  0  0  0
  6 12  1  6  0  0  0
  6 18  1  0  0  0  0
  7  8  1  0  0  0  0
  8 22  1  0  0  0  0
  8  9  2  0  0  0  0
  9  2  1  0  0  0  0
 10  1  1  0  0  0  0
 11 24  1  0  0  0  0
 13  7  2  0  0  0  0
 13  4  1  0  0  0  0
 14 15  2  0  0  0  0
 14 19  1  0  0  0  0
 15 13  1  0  0  0  0
 17  4  1  0  0  0  0
 18 24  1  0  0  0  0
 18  5  1  0  0  0  0
 19 17  2  0  0  0  0
 20  3  1  0  0  0  0
 21 12  2  0  0  0  0
 22 21  1  0  0  0  0
 23  9  1  0  0  0  0
 23 20  1  0  0  0  0
 24 10  1  1  0  0  0
 25 26  2  0  0  0  0
 26 21  1  0  0  0  0
 26 27  1  0  0  0  0
 28 29  1  0  0  0  0
 28 30  1  0  0  0  0
 29 30  1  0  0  0  0
 29 27  1  1  0  0  0
M  END
>  <MODEL>
2

>  <REMARK>
 VINA RESULT:      -9.5      2.693      6.317
  Name = 
  3 active torsions:
  status: ('A' for Active; 'I' for Inactive)
    1  A    between atoms: C_7  and  C_13
    2  A    between atoms: C_7  and  C_23
    3  A    between atoms: C_23  and  C_26
                            x       y       z     vdW  Elec       q    Type
                         _______ _______ _______ _____ _____    ______ ____

>  <TORSDO>
F 3

$$$$
=
 OpenBabel10232408213D

 30 36  0  0  1  0  0  0  0  0999 V2000
  184.2650  178.2190  144.4910 C   0  0  0  0  0  3  0  0  0  0  0  0
  187.7400  177.9610  142.0730 C   0  0  0  0  0  0  0  0  0  0  0  0
  186.1890  178.9810  140.5440 C   0  0  0  0  0  0  0  0  0  0  0  0
  188.7940  177.2590  138.6200 C   0  0  0  0  0  0  0  0  0  0  0  0
  185.6200  177.6580  144.9650 C   0  0  0  0  0  3  0  0  0  0  0  0
  187.7190  177.4380  143.4650 C   0  0  1  0  0  3  0  0  0  0  0  0
  190.3920  176.2990  140.1300 N   0  0  0  0  0  0  0  0  0  0  0  0
  189.7720  176.8310  141.2190 C   0  0  0  0  0  0  0  0  0  0  0  0
  188.5580  177.5390  141.0270 C   0  0  0  0  0  0  0  0  0  0  0  0
  184.5090  179.0270  143.2090 C   0  0  0  0  0  2  0  0  0  0  0  0
  186.5960  178.6930  141.8480 C   0  0  0  0  0  0  0  0  0  0  0  0
  188.9910  177.7260  144.1700 C   0  0  0  0  0  3  0  0  0  0  0  0
  189.9380  176.4740  138.8610 C   0  0  0  0  0  0  0  0  0  0  0  0
  190.1750  176.1300  136.4890 C   0  0  0  0  0  3  0  0  0  0  0  0
  190.6320  175.9110  137.7890 C   0  0  0  0  0  3  0  0  0  0  0  0
  185.1350  179.6310  140.3140 O   0  0  0  0  0  0  0  0  0  0  0  0
  188.3730  177.4510  137.2980 C   0  0  0  0  0  3  0  0  0  0  0  0
  186.6100  178.1870  144.0480 N   0  0  0  0  0  0  0  0  0  0  0  0
  189.0670  176.8880  136.2710 N   0  0  0  0  0  0  0  0  0  0  0  0
  186.9460  178.5190  139.5090 N   0  0  0  0  0  2  0  0  0  0  0  0
  190.1990  177.3770  143.7130 C   0  0  0  0  0  0  0  0  0  0  0  0
  190.4500  176.7580  142.3800 C   0  0  0  0  0  2  0  0  0  0  0  0
  188.0950  177.7970  139.7080 C   0  0  0  0  0  0  0  0  0  0  0  0
  185.9560  178.8470  142.9950 C   0  0  2  0  0  3  0  0  0  0  0  0
  191.9410  178.7440  144.5940 O   0  0  0  0  0  0  0  0  0  0  0  0
  191.3690  177.6190  144.5890 C   0  0  0  0  0  0  0  0  0  0  0  0
  191.8830  176.5540  145.5020 C   0  0  0  0  0  2  0  0  0  0  0  0
  192.0390  176.9850  147.8020 O   0  0  0  0  0  0  0  0  0  0  0  0
  191.1600  176.6130  146.8350 C   0  0  2  0  0  3  0  0  0  0  0  0
  191.7190  175.6380  147.7360 N   0  0  0  0  0  2  0  0  0  0  0  0
  1  5  2  0  0  0  0
  2  6  1  0  0  0  0
  3 11  1  0  0  0  0
  4 13  1  0  0  0  0
  4 23  2  0  0  0  0
  6 18  1  0  0  0  0
  6 12  1  1  0  0  0
  7  8  1  0  0  0  0
  8 22  1  0  0  0  0
  9  8  2  0  0  0  0
  9  2  1  0  0  0  0
 10  1  1  0  0  0  0
 11  2  2  0  0  0  0
 11 24  1  0  0  0  0
 13  7  2  0  0  0  0
 14 15  2  0  0  0  0
 15 13  1  0  0  0  0
 16  3  2  0  0  0  0
 17  4  1  0  0  0  0
 18  5  1  0  0  0  0
 19 14  1  0  0  0  0
 19 17  2  0  0  0  0
 20 23  1  0  0  0  0
 20  3  1  0  0  0  0
 21 12  2  0  0  0  0
 21 26  1  0  0  0  0
 22 21  1  0  0  0  0
 23  9  1  0  0  0  0
 24 10  1  6  0  0  0
 24 18  1  0  0  0  0
 26 25  2  0  0  0  0
 26 27  1  0  0  0  0
 29 27  1  6  0  0  0
 29 30  1  0  0  0  0
 29 28  1  0  0  0  0
 30 28  1  0  0  0  0
M  END
>  <MODEL>
3

>  <REMARK>
 VINA RESULT:      -9.5      2.116      7.012
  Name = 
  3 active torsions:
  status: ('A' for Active; 'I' for Inactive)
    1  A    between atoms: C_7  and  C_13
    2  A    between atoms: C_7  and  C_23
    3  A    between atoms: C_23  and  C_26
                            x       y       z     vdW  Elec       q    Type
                         _______ _______ _______ _____ _____    ______ ____

>  <TORSDO>
F 3

$$$$
=
 OpenBabel10232408213D

 30 36  0  0  1  0  0  0  0  0999 V2000
  187.5290  178.7430  148.2150 C   0  0  0  0  0  3  0  0  0  0  0  0
  187.0150  177.9920  144.0720 C   0  0  0  0  0  0  0  0  0  0  0  0
  189.0240  176.7500  144.5190 C   0  0  0  0  0  0  0  0  0  0  0  0
  188.9340  177.6190  140.9580 C   0  0  0  0  0  0  0  0  0  0  0  0
  186.3570  179.2770  147.3680 C   0  0  0  0  0  3  0  0  0  0  0  0
  186.0840  178.8740  144.8260 C   0  0  1  0  0  3  0  0  0  0  0  0
  186.8990  178.7940  140.4790 N   0  0  0  0  0  0  0  0  0  0  0  0
  186.4410  178.6420  141.7520 C   0  0  0  0  0  0  0  0  0  0  0  0
  187.2920  178.0310  142.7070 C   0  0  0  0  0  0  0  0  0  0  0  0
  188.1900  177.5960  147.4380 C   0  0  0  0  0  2  0  0  0  0  0  0
  187.8400  177.3420  144.9610 C   0  0  0  0  0  0  0  0  0  0  0  0
  184.6790  178.6670  144.4000 C   0  0  0  0  0  3  0  0  0  0  0  0
  188.1050  178.3250  140.0650 C   0  0  0  0  0  0  0  0  0  0  0  0
  189.7300  177.9840  138.3200 C   0  0  0  0  0  3  0  0  0  0  0  0
  188.5050  178.5040  138.7400 C   0  0  0  0  0  3  0  0  0  0  0  0
  189.8040  176.1670  145.3180 O   0  0  0  0  0  0  0  0  0  0  0  0
  190.1550  177.1160  140.4900 C   0  0  0  0  0  3  0  0  0  0  0  0
  186.2930  178.4250  146.1980 N   0  0  0  0  0  0  0  0  0  0  0  0
  190.5220  177.3060  139.1940 N   0  0  0  0  0  0  0  0  0  0  0  0
  189.3410  176.8360  143.1970 N   0  0  0  0  0  2  0  0  0  0  0  0
  184.2560  178.7600  143.1340 C   0  0  0  0  0  0  0  0  0  0  0  0
  185.1500  178.9640  141.9590 C   0  0  0  0  0  2  0  0  0  0  0  0
  188.5300  177.4690  142.2900 C   0  0  0  0  0  0  0  0  0  0  0  0
  187.4060  177.5690  146.1900 C   0  0  2  0  0  3  0  0  0  0  0  0
  181.9760  178.7880  143.8250 O   0  0  0  0  0  0  0  0  0  0  0  0
  182.8000  178.6530  142.8800 C   0  0  0  0  0  0  0  0  0  0  0  0
  182.2740  178.4070  141.5030 C   0  0  0  0  0  2  0  0  0  0  0  0
  180.1540  177.4910  141.0940 O   0  0  0  0  0  0  0  0  0  0  0  0
  180.7750  178.6400  141.4660 C   0  0  2  0  0  3  0  0  0  0  0  0
  180.2870  178.4690  140.1220 N   0  0  0  0  0  2  0  0  0  0  0  0
  2  6  1  0  0  0  0
  2 11  2  0  0  0  0
  3 11  1  0  0  0  0
  3 16  2  0  0  0  0
  4 23  2  0  0  0  0
  5  1  2  0  0  0  0
  6 12  1  6  0  0  0
  6 18  1  0  0  0  0
  7  8  1  0  0  0  0
  8 22  1  0  0  0  0
  8  9  2  0  0  0  0
  9  2  1  0  0  0  0
 10  1  1  0  0  0  0
 11 24  1  0  0  0  0
 13  7  2  0  0  0  0
 13  4  1  0  0  0  0
 14 15  2  0  0  0  0
 14 19  1  0  0  0  0
 15 13  1  0  0  0  0
 17  4  1  0  0  0  0
 18  5  1  0  0  0  0
 19 17  2  0  0  0  0
 20  3  1  0  0  0  0
 21 12  2  0  0  0  0
 22 21  1  0  0  0  0
 23  9  1  0  0  0  0
 23 20  1  0  0  0  0
 24 18  1  0  0  0  0
 24 10  1  1  0  0  0
 26 21  1  0  0  0  0
 26 25  2  0  0  0  0
 27 26  1  0  0  0  0
 28 29  1  0  0  0  0
 29 27  1  6  0  0  0
 30 28  1  0  0  0  0
 30 29  1  0  0  0  0
M  END
>  <MODEL>
4

>  <REMARK>
 VINA RESULT:      -9.3      2.976      6.126
  Name = 
  3 active torsions:
  status: ('A' for Active; 'I' for Inactive)
    1  A    between atoms: C_7  and  C_13
    2  A    between atoms: C_7  and  C_23
    3  A    between atoms: C_23  and  C_26
                            x       y       z     vdW  Elec       q    Type
                         _______ _______ _______ _____ _____    ______ ____

>  <TORSDO>
F 3

$$$$
=
 OpenBabel10232408213D

 30 36  0  0  1  0  0  0  0  0999 V2000
  189.5150  177.8440  147.6140 C   0  0  0  0  0  3  0  0  0  0  0  0
  188.1780  177.5320  143.6010 C   0  0  0  0  0  0  0  0  0  0  0  0
  190.1770  176.1990  143.5260 C   0  0  0  0  0  0  0  0  0  0  0  0
  189.4430  177.4280  140.1490 C   0  0  0  0  0  0  0  0  0  0  0  0
  188.2270  178.4930  147.0680 C   0  0  0  0  0  3  0  0  0  0  0  0
  187.4520  178.3580  144.6020 C   0  0  1  0  0  3  0  0  0  0  0  0
  187.4090  178.6990  140.1920 N   0  0  0  0  0  0  0  0  0  0  0  0
  187.1990  178.4310  141.5100 C   0  0  0  0  0  0  0  0  0  0  0  0
  188.1890  177.7030  142.2180 C   0  0  0  0  0  0  0  0  0  0  0  0
  189.9610  176.7650  146.6180 C   0  0  0  0  0  2  0  0  0  0  0  0
  189.1280  176.7740  144.2450 C   0  0  0  0  0  0  0  0  0  0  0  0
  185.9820  178.2330  144.4430 C   0  0  0  0  0  3  0  0  0  0  0  0
  188.4900  178.2420  139.5070 C   0  0  0  0  0  0  0  0  0  0  0  0
  189.7320  178.0380  137.4530 C   0  0  0  0  0  3  0  0  0  0  0  0
  188.6350  178.5450  138.1530 C   0  0  0  0  0  3  0  0  0  0  0  0
  191.0690  175.5170  144.0970 O   0  0  0  0  0  0  0  0  0  0  0  0
  190.5270  176.9430  139.4060 C   0  0  0  0  0  3  0  0  0  0  0  0
  187.8990  177.7660  145.8580 N   0  0  0  0  0  0  0  0  0  0  0  0
  190.6460  177.2540  138.0860 N   0  0  0  0  0  0  0  0  0  0  0  0
  190.2360  176.4110  142.1810 N   0  0  0  0  0  2  0  0  0  0  0  0
  185.3280  178.4640  143.2990 C   0  0  0  0  0  0  0  0  0  0  0  0
  185.9880  178.7630  141.9960 C   0  0  0  0  0  2  0  0  0  0  0  0
  189.2960  177.1540  141.5150 C   0  0  0  0  0  0  0  0  0  0  0  0
  188.9500  176.8860  145.5510 C   0  0  2  0  0  3  0  0  0  0  0  0
  183.2290  178.4140  144.4260 O   0  0  0  0  0  0  0  0  0  0  0  0
  183.8480  178.4220  143.3260 C   0  0  0  0  0  0  0  0  0  0  0  0
  183.0530  178.4130  142.0610 C   0  0  0  0  0  2  0  0  0  0  0  0
  180.7710  178.0680  141.6460 O   0  0  0  0  0  0  0  0  0  0  0  0
  181.6300  178.8650  142.3330 C   0  0  2  0  0  3  0  0  0  0  0  0
  181.0200  179.3210  141.1110 N   0  0  0  0  0  2  0  0  0  0  0  0
  2 11  2  0  0  0  0
  2  6  1  0  0  0  0
  3 16  2  0  0  0  0
  3 11  1  0  0  0  0
  4 23  2  0  0  0  0
  5  1  2  0  0  0  0
  6 12  1  6  0  0  0
  6 18  1  0  0  0  0
  7  8  1  0  0  0  0
  8 22  1  0  0  0  0
  8  9  2  0  0  0  0
  9  2  1  0  0  0  0
 10  1  1  0  0  0  0
 11 24  1  0  0  0  0
 13  4  1  0  0  0  0
 13  7  2  0  0  0  0
 14 19  1  0  0  0  0
 14 15  2  0  0  0  0
 15 13  1  0  0  0  0
 17  4  1  0  0  0  0
 18  5  1  0  0  0  0
 19 17  2  0  0  0  0
 20  3  1  0  0  0  0
 21 26  1  0  0  0  0
 21 12  2  0  0  0  0
 22 21  1  0  0  0  0
 23 20  1  0  0  0  0
 23  9  1  0  0  0  0
 24 18  1  0  0  0  0
 24 10  1  1  0  0  0
 26 25  2  0  0  0  0
 27 26  1  0  0  0  0
 28 29  1  0  0  0  0
 29 27  1  6  0  0  0
 30 28  1  0  0  0  0
 30 29  1  0  0  0  0
M  END
>  <MODEL>
5

>  <REMARK>
 VINA RESULT:      -9.2      2.688      5.905
  Name = 
  3 active torsions:
  status: ('A' for Active; 'I' for Inactive)
    1  A    between atoms: C_7  and  C_13
    2  A    between atoms: C_7  and  C_23
    3  A    between atoms: C_23  and  C_26
                            x       y       z     vdW  Elec       q    Type
                         _______ _______ _______ _____ _____    ______ ____

>  <TORSDO>
F 3

$$$$
=
 OpenBabel10232408213D

 30 36  0  0  1  0  0  0  0  0999 V2000
  189.8770  176.4050  137.3570 C   0  0  0  0  0  3  0  0  0  0  0  0
  189.3030  177.5700  141.3950 C   0  0  0  0  0  0  0  0  0  0  0  0
  191.7030  177.5380  141.2610 C   0  0  0  0  0  0  0  0  0  0  0  0
  190.7030  177.0690  144.7580 C   0  0  0  0  0  0  0  0  0  0  0  0
  188.5010  176.6210  138.0180 C   0  0  0  0  0  3  0  0  0  0  0  0
  188.1550  177.2640  140.5010 C   0  0  1  0  0  3  0  0  0  0  0  0
  188.3130  177.1730  144.9210 N   0  0  0  0  0  0  0  0  0  0  0  0
  188.1760  177.4630  143.5980 C   0  0  0  0  0  0  0  0  0  0  0  0
  189.3370  177.4750  142.7850 C   0  0  0  0  0  0  0  0  0  0  0  0
  190.9370  177.0780  138.2400 C   0  0  0  0  0  2  0  0  0  0  0  0
  190.4550  177.6320  140.6440 C   0  0  0  0  0  0  0  0  0  0  0  0
  187.0300  178.2050  140.7240 C   0  0  0  0  0  3  0  0  0  0  0  0
  189.5180  176.9620  145.5110 C   0  0  0  0  0  0  0  0  0  0  0  0
  190.8330  176.5040  147.4770 C   0  0  0  0  0  3  0  0  0  0  0  0
  189.5850  176.6820  146.8760 C   0  0  0  0  0  3  0  0  0  0  0  0
  192.7700  177.5720  140.5920 O   0  0  0  0  0  0  0  0  0  0  0  0
  191.9330  176.8830  145.4040 C   0  0  0  0  0  3  0  0  0  0  0  0
  188.7460  177.4500  139.1800 N   0  0  0  0  0  0  0  0  0  0  0  0
  191.9700  176.6080  146.7370 N   0  0  0  0  0  0  0  0  0  0  0  0
  191.7510  177.3810  142.6140 N   0  0  0  0  0  2  0  0  0  0  0  0
  186.4620  178.4280  141.9150 C   0  0  0  0  0  0  0  0  0  0  0  0
  186.9500  177.8570  143.2020 C   0  0  0  0  0  2  0  0  0  0  0  0
  190.6180  177.3270  143.3840 C   0  0  0  0  0  0  0  0  0  0  0  0
  190.1310  177.5910  139.3620 C   0  0  2  0  0  3  0  0  0  0  0  0
  184.7030  179.6680  140.8910 O   0  0  0  0  0  0  0  0  0  0  0  0
  185.2650  179.3000  141.9590 C   0  0  0  0  0  0  0  0  0  0  0  0
  184.6820  179.7440  143.2620 C   0  0  0  0  0  2  0  0  0  0  0  0
  182.5040  179.2900  144.0020 O   0  0  0  0  0  0  0  0  0  0  0  0
  183.7080  178.7020  143.7810 C   0  0  2  0  0  3  0  0  0  0  0  0
  183.2910  179.0470  145.1160 N   0  0  0  0  0  2  0  0  0  0  0  0
  1  5  2  0  0  0  0
  1 10  1  0  0  0  0
  2  9  1  0  0  0  0
  3 20  1  0  0  0  0
  4 17  2  0  0  0  0
  4 13  1  0  0  0  0
  5 18  1  0  0  0  0
  6 12  1  1  0  0  0
  6  2  1  0  0  0  0
  7 13  1  0  0  0  0
  8  7  2  0  0  0  0
  9 23  2  0  0  0  0
  9  8  1  0  0  0  0
 11  3  1  0  0  0  0
 11  2  2  0  0  0  0
 12 21  2  0  0  0  0
 13 15  2  0  0  0  0
 15 14  1  0  0  0  0
 16  3  2  0  0  0  0
 17 19  1  0  0  0  0
 18 24  1  0  0  0  0
 18  6  1  0  0  0  0
 19 14  2  0  0  0  0
 20 23  1  0  0  0  0
 21 26  1  0  0  0  0
 21 22  1  0  0  0  0
 22  8  1  0  0  0  0
 23  4  1  0  0  0  0
 24 10  1  1  0  0  0
 24 11  1  0  0  0  0
 25 26  2  0  0  0  0
 26 27  1  0  0  0  0
 28 30  1  0  0  0  0
 29 27  1  6  0  0  0
 29 28  1  0  0  0  0
 29 30  1  0  0  0  0
M  END
>  <MODEL>
6

>  <REMARK>
 VINA RESULT:      -9.2      2.209      6.446
  Name = 
  3 active torsions:
  status: ('A' for Active; 'I' for Inactive)
    1  A    between atoms: C_7  and  C_13
    2  A    between atoms: C_7  and  C_23
    3  A    between atoms: C_23  and  C_26
                            x       y       z     vdW  Elec       q    Type
                         _______ _______ _______ _____ _____    ______ ____

>  <TORSDO>
F 3

$$$$
=
 OpenBabel10232408213D

 30 36  0  0  1  0  0  0  0  0999 V2000
  189.1960  176.7710  147.4680 C   0  0  0  0  0  3  0  0  0  0  0  0
  186.7390  178.2340  144.3360 C   0  0  0  0  0  0  0  0  0  0  0  0
  185.6090  179.1240  146.2620 C   0  0  0  0  0  0  0  0  0  0  0  0
  183.2120  178.8530  143.5000 C   0  0  0  0  0  0  0  0  0  0  0  0
  189.4570  176.5320  145.9680 C   0  0  0  0  0  3  0  0  0  0  0  0
  187.9160  177.3670  144.0630 C   0  0  1  0  0  3  0  0  0  0  0  0
  184.3400  178.0370  141.5470 N   0  0  0  0  0  0  0  0  0  0  0  0
  185.5500  178.0400  142.1720 C   0  0  0  0  0  0  0  0  0  0  0  0
  185.5990  178.3790  143.5480 C   0  0  0  0  0  0  0  0  0  0  0  0
  188.2040  177.9350  147.5970 C   0  0  0  0  0  2  0  0  0  0  0  0
  186.7620  178.6240  145.6560 C   0  0  0  0  0  0  0  0  0  0  0  0
  188.6490  177.8160  142.8540 C   0  0  0  0  0  3  0  0  0  0  0  0
  183.1880  178.4110  142.1640 C   0  0  0  0  0  0  0  0  0  0  0  0
  180.8150  178.8170  142.0930 C   0  0  0  0  0  3  0  0  0  0  0  0
  181.9840  178.3960  141.4580 C   0  0  0  0  0  3  0  0  0  0  0  0
  185.6010  179.4680  147.4740 O   0  0  0  0  0  0  0  0  0  0  0  0
  182.0120  179.2670  144.0960 C   0  0  0  0  0  3  0  0  0  0  0  0
  188.7160  177.5620  145.2680 N   0  0  0  0  0  0  0  0  0  0  0  0
  180.8520  179.2410  143.3860 N   0  0  0  0  0  0  0  0  0  0  0  0
  184.4690  179.2110  145.5210 N   0  0  0  0  0  2  0  0  0  0  0  0
  188.0850  177.9810  141.6520 C   0  0  0  0  0  0  0  0  0  0  0  0
  186.6240  177.8560  141.3820 C   0  0  0  0  0  2  0  0  0  0  0  0
  184.4240  178.8390  144.2020 C   0  0  0  0  0  0  0  0  0  0  0  0
  187.9170  178.2600  146.1880 C   0  0  2  0  0  3  0  0  0  0  0  0
  188.6130  179.1630  139.6520 O   0  0  0  0  0  0  0  0  0  0  0  0
  188.9690  178.3110  140.5100 C   0  0  0  0  0  0  0  0  0  0  0  0
  190.3080  177.6630  140.3600 C   0  0  0  0  0  2  0  0  0  0  0  0
  190.6990  175.7880  139.0090 O   0  0  0  0  0  0  0  0  0  0  0  0
  190.4750  177.1260  138.9510 C   0  0  2  0  0  3  0  0  0  0  0  0
  191.8030  176.5950  138.7860 N   0  0  0  0  0  2  0  0  0  0  0  0
  1 10  1  0  0  0  0
  2 11  2  0  0  0  0
  3 16  2  0  0  0  0
  4 17  1  0  0  0  0
  4 23  2  0  0  0  0
  5  1  2  0  0  0  0
  6 12  1  6  0  0  0
  6  2  1  0  0  0  0
  6 18  1  0  0  0  0
  7 13  2  0  0  0  0
  7  8  1  0  0  0  0
  8  9  2  0  0  0  0
  9 23  1  0  0  0  0
  9  2  1  0  0  0  0
 11 24  1  0  0  0  0
 11  3  1  0  0  0  0
 13  4  1  0  0  0  0
 14 19  1  0  0  0  0
 15 14  2  0  0  0  0
 15 13  1  0  0  0  0
 18  5  1  0  0  0  0
 18 24  1  0  0  0  0
 19 17  2  0  0  0  0
 20  3  1  0  0  0  0
 21 12  2  0  0  0  0
 22 21  1  0  0  0  0
 22  8  1  0  0  0  0
 23 20  1  0  0  0  0
 24 10  1  1  0  0  0
 25 26  2  0  0  0  0
 26 21  1  0  0  0  0
 27 26  1  0  0  0  0
 29 28  1  0  0  0  0
 29 27  1  1  0  0  0
 30 29  1  0  0  0  0
 30 28  1  0  0  0  0
M  END
>  <MODEL>
7

>  <REMARK>
 VINA RESULT:      -8.9      1.967      3.099
  Name = 
  3 active torsions:
  status: ('A' for Active; 'I' for Inactive)
    1  A    between atoms: C_7  and  C_13
    2  A    between atoms: C_7  and  C_23
    3  A    between atoms: C_23  and  C_26
                            x       y       z     vdW  Elec       q    Type
                         _______ _______ _______ _____ _____    ______ ____

>  <TORSDO>
F 3

$$$$
=
 OpenBabel10232408213D

 30 36  0  0  1  0  0  0  0  0999 V2000
  181.0400  178.4230  142.4050 C   0  0  0  0  0  3  0  0  0  0  0  0
  185.2610  178.4800  142.8130 C   0  0  0  0  0  0  0  0  0  0  0  0
  185.0090  179.2040  140.5340 C   0  0  0  0  0  0  0  0  0  0  0  0
  188.3400  177.7270  140.9480 C   0  0  0  0  0  0  0  0  0  0  0  0
  181.7980  178.0690  143.7000 C   0  0  0  0  0  3  0  0  0  0  0  0
  184.3770  178.0370  143.9240 C   0  0  1  0  0  3  0  0  0  0  0  0
  188.6370  177.0680  143.2340 N   0  0  0  0  0  0  0  0  0  0  0  0
  187.4290  177.5750  143.6010 C   0  0  0  0  0  0  0  0  0  0  0  0
  186.5860  178.1090  142.5920 C   0  0  0  0  0  0  0  0  0  0  0  0
  182.0040  179.1830  141.4840 C   0  0  0  0  0  2  0  0  0  0  0  0
  184.4920  179.0440  141.8210 C   0  0  0  0  0  0  0  0  0  0  0  0
  184.8700  178.5260  145.2350 C   0  0  0  0  0  3  0  0  0  0  0  0
  189.1030  177.1110  141.9590 C   0  0  0  0  0  0  0  0  0  0  0  0
  190.8390  176.6680  140.3490 C   0  0  0  0  0  3  0  0  0  0  0  0
  190.3580  176.5830  141.6570 C   0  0  0  0  0  3  0  0  0  0  0  0
  184.3160  179.6990  139.6060 O   0  0  0  0  0  0  0  0  0  0  0  0
  188.8640  177.7890  139.6500 C   0  0  0  0  0  3  0  0  0  0  0  0
  183.1110  178.6680  143.5670 N   0  0  0  0  0  0  0  0  0  0  0  0
  190.0910  177.2650  139.3820 N   0  0  0  0  0  0  0  0  0  0  0  0
  186.2820  178.7860  140.2880 N   0  0  0  0  0  2  0  0  0  0  0  0
  186.1050  178.3100  145.7010 C   0  0  0  0  0  0  0  0  0  0  0  0
  187.1970  177.6550  144.9250 C   0  0  0  0  0  2  0  0  0  0  0  0
  187.0710  178.2310  141.2620 C   0  0  0  0  0  0  0  0  0  0  0  0
  183.2540  179.1790  142.2660 C   0  0  2  0  0  3  0  0  0  0  0  0
  185.9930  179.8620  147.5050 O   0  0  0  0  0  0  0  0  0  0  0  0
  186.4120  178.7500  147.0820 C   0  0  0  0  0  0  0  0  0  0  0  0
  187.1990  177.8830  148.0110 C   0  0  0  0  0  2  0  0  0  0  0  0
  189.3250  178.0570  147.0370 O   0  0  0  0  0  0  0  0  0  0  0  0
  188.6160  178.4090  148.1420 C   0  0  2  0  0  3  0  0  0  0  0  0
  189.5440  177.3070  148.1810 N   0  0  0  0  0  2  0  0  0  0  0  0
  1  5  2  0  0  0  0
  2  6  1  0  0  0  0
  3 11  1  0  0  0  0
  4 23  2  0  0  0  0
  4 13  1  0  0  0  0
  6 12  1  1  0  0  0
  7  8  1  0  0  0  0
  8 22  1  0  0  0  0
  9  2  1  0  0  0  0
  9  8  2  0  0  0  0
 10  1  1  0  0  0  0
 11 24  1  0  0  0  0
 11  2  2  0  0  0  0
 12 21  2  0  0  0  0
 13  7  2  0  0  0  0
 14 15  2  0  0  0  0
 15 13  1  0  0  0  0
 16  3  2  0  0  0  0
 17  4  1  0  0  0  0
 18  5  1  0  0  0  0
 18  6  1  0  0  0  0
 19 17  2  0  0  0  0
 19 14  1  0  0  0  0
 20  3  1  0  0  0  0
 20 23  1  0  0  0  0
 21 26  1  0  0  0  0
 22 21  1  0  0  0  0
 23  9  1  0  0  0  0
 24 10  1  6  0  0  0
 24 18  1  0  0  0  0
 26 25  2  0  0  0  0
 26 27  1  0  0  0  0
 28 29  1  0  0  0  0
 28 30  1  0  0  0  0
 29 27  1  6  0  0  0
 29 30  1  0  0  0  0
M  END
>  <MODEL>
8

>  <REMARK>
 VINA RESULT:      -8.7      2.629      7.766
  Name = 
  3 active torsions:
  status: ('A' for Active; 'I' for Inactive)
    1  A    between atoms: C_7  and  C_13
    2  A    between atoms: C_7  and  C_23
    3  A    between atoms: C_23  and  C_26
                            x       y       z     vdW  Elec       q    Type
                         _______ _______ _______ _____ _____    ______ ____

>  <TORSDO>
F 3

$$$$
=
 OpenBabel10232408213D

 30 36  0  0  1  0  0  0  0  0999 V2000
  183.5140  178.4000  144.3820 C   0  0  0  0  0  3  0  0  0  0  0  0
  187.3280  178.0170  142.5670 C   0  0  0  0  0  0  0  0  0  0  0  0
  186.0990  179.1250  140.8240 C   0  0  0  0  0  0  0  0  0  0  0  0
  188.9110  177.3120  139.3230 C   0  0  0  0  0  0  0  0  0  0  0  0
  184.7470  177.7720  145.0620 C   0  0  0  0  0  3  0  0  0  0  0  0
  187.0540  177.4770  143.9260 C   0  0  1  0  0  3  0  0  0  0  0  0
  190.1930  176.2620  141.0570 N   0  0  0  0  0  0  0  0  0  0  0  0
  189.4240  176.8070  142.0390 C   0  0  0  0  0  0  0  0  0  0  0  0
  188.2900  177.5710  141.6630 C   0  0  0  0  0  0  0  0  0  0  0  0
  184.0020  179.2130  143.1750 C   0  0  0  0  0  2  0  0  0  0  0  0
  186.2700  178.8020  142.1710 C   0  0  0  0  0  0  0  0  0  0  0  0
  188.2020  177.6970  144.8370 C   0  0  0  0  0  3  0  0  0  0  0  0
  189.9650  176.4730  139.7340 C   0  0  0  0  0  0  0  0  0  0  0  0
  190.5780  176.1490  137.4270 C   0  0  0  0  0  3  0  0  0  0  0  0
  190.8020  175.8930  138.7810 C   0  0  0  0  0  3  0  0  0  0  0  0
  185.1260  179.8260  140.4360 O   0  0  0  0  0  0  0  0  0  0  0  0
  188.7240  177.5400  137.9530 C   0  0  0  0  0  3  0  0  0  0  0  0
  185.8970  178.2670  144.3320 N   0  0  0  0  0  0  0  0  0  0  0  0
  189.5550  176.9600  137.0440 N   0  0  0  0  0  0  0  0  0  0  0  0
  186.9960  178.6430  139.9200 N   0  0  0  0  0  2  0  0  0  0  0  0
  189.4540  177.3000  144.5800 C   0  0  0  0  0  0  0  0  0  0  0  0
  189.8960  176.6880  143.2940 C   0  0  0  0  0  2  0  0  0  0  0  0
  188.0640  177.8680  140.2910 C   0  0  0  0  0  0  0  0  0  0  0  0
  185.4550  178.9700  143.2000 C   0  0  2  0  0  3  0  0  0  0  0  0
  191.6210  177.9120  145.3590 O   0  0  0  0  0  0  0  0  0  0  0  0
  190.4700  177.4770  145.6420 C   0  0  0  0  0  0  0  0  0  0  0  0
  190.1550  177.1720  147.0710 C   0  0  0  0  0  2  0  0  0  0  0  0
  189.2850  178.3290  148.9150 O   0  0  0  0  0  0  0  0  0  0  0  0
  189.0910  178.1230  147.5870 C   0  0  2  0  0  3  0  0  0  0  0  0
  188.2710  177.4540  148.5630 N   0  0  0  0  0  2  0  0  0  0  0  0
  1  5  2  0  0  0  0
  2  6  1  0  0  0  0
  3 11  1  0  0  0  0
  4 13  1  0  0  0  0
  4 23  2  0  0  0  0
  6 18  1  0  0  0  0
  6 12  1  1  0  0  0
  7  8  1  0  0  0  0
  8 22  1  0  0  0  0
  9  8  2  0  0  0  0
  9  2  1  0  0  0  0
 10  1  1  0  0  0  0
 11  2  2  0  0  0  0
 11 24  1  0  0  0  0
 13  7  2  0  0  0  0
 14 15  2  0  0  0  0
 15 13  1  0  0  0  0
 16  3  2  0  0  0  0
 17  4  1  0  0  0  0
 18  5  1  0  0  0  0
 19 14  1  0  0  0  0
 19 17  2  0  0  0  0
 20 23  1  0  0  0  0
 20  3  1  0  0  0  0
 21 12  2  0  0  0  0
 21 26  1  0  0  0  0
 22 21  1  0  0  0  0
 23  9  1  0  0  0  0
 24 10  1  6  0  0  0
 24 18  1  0  0  0  0
 25 26  2  0  0  0  0
 26 27  1  0  0  0  0
 29 27  1  1  0  0  0
 29 30  1  0  0  0  0
 29 28  1  0  0  0  0
 30 28  1  0  0  0  0
M  END
>  <MODEL>
9

>  <REMARK>
 VINA RESULT:      -8.6      1.964      7.066
  Name = 
  3 active torsions:
  status: ('A' for Active; 'I' for Inactive)
    1  A    between atoms: C_7  and  C_13
    2  A    between atoms: C_7  and  C_23
    3  A    between atoms: C_23  and  C_26
                            x       y       z     vdW  Elec       q    Type
                         _______ _______ _______ _____ _____    ______ ____

>  <TORSDO>
F 3

$$$$
