=
 OpenBabel10222421273D

 69 75  0  0  1  0  0  0  0  0999 V2000
  190.5770  173.5360  136.0150 C   0  0  0  0  0  0  0  0  0  0  0  0
  187.0660  173.7110  136.5920 C   0  0  2  0  0  3  0  0  0  0  0  0
  187.8680  171.6750  135.2720 C   0  0  1  0  0  3  0  0  0  0  0  0
  195.8270  173.5100  137.8830 F   0  0  0  0  0  0  0  0  0  0  0  0
  191.8940  173.7160  136.2990 C   0  0  0  0  0  0  0  0  0  0  0  0
  194.3130  172.8920  136.1910 C   0  0  0  0  0  0  0  0  0  0  0  0
  190.1260  172.6750  134.8660 C   0  0  0  0  0  2  0  0  0  0  0  0
  192.9900  173.0440  135.5550 C   0  0  0  0  0  0  0  0  0  0  0  0
  188.2800  174.5700  136.2210 C   0  0  1  0  0  3  0  0  0  0  0  0
  192.3070  174.6190  137.4120 C   0  0  0  0  0  0  0  0  0  0  0  0
  193.7710  174.7950  137.7140 C   0  0  0  0  0  2  0  0  0  0  0  0
  194.6340  173.6510  137.2600 C   0  0  0  0  0  0  0  0  0  0  0  0
  189.1300  176.4070  137.4480 C   0  0  1  0  0  3  0  0  0  0  0  0
  190.0200  175.2800  137.6300 N   0  0  0  0  0  0  0  0  0  0  0  0
  191.7960  176.4380  139.0170 C   0  0  0  0  0  1  0  0  0  0  0  0
  188.0260  175.9660  136.5930 N   0  0  0  0  0  2  0  0  0  0  0  0
  187.3530  172.2010  136.6090 C   0  0  0  0  0  2  0  0  0  0  0  0
  189.5310  174.1080  136.9510 C   0  0  2  0  0  3  0  0  0  0  0  0
  192.8140  172.6000  134.3900 O   0  0  0  0  0  0  0  0  0  0  0  0
  191.3970  175.4090  138.0070 C   0  0  0  0  0  0  0  0  0  0  0  0
  189.3740  171.4380  135.3340 C   0  0  0  0  0  2  0  0  0  0  0  0
  184.9010  174.7450  136.1540 C   0  0  0  0  0  0  0  0  0  0  0  0
  183.9010  175.4490  136.6110 C   0  0  0  0  0  3  0  0  0  0  0  0
  185.9020  174.0360  135.7090 C   0  0  0  0  0  3  0  0  0  0  0  0
  182.8730  176.0250  135.6960 C   0  0  1  0  0  3  0  0  0  0  0  0
  181.5190  174.5420  137.0360 O   0  0  0  0  0  1  0  0  0  0  0  0
  181.4670  175.5290  136.0500 C   0  0  0  0  0  2  0  0  0  0  0  0
  182.9600  177.5460  135.7380 C   0  0  0  0  0  2  0  0  0  0  0  0
  180.7800  177.6750  136.8680 O   0  0  0  0  0  0  0  0  0  0  0  0
  181.0400  178.8800  136.3260 O   0  0  0  0  0  0  0  0  0  0  0  0
  182.0790  178.1330  136.8310 C   0  0  0  0  0  0  0  0  0  0  0  0
  182.6740  178.7200  138.1200 C   0  0  1  0  0  3  0  0  0  0  0  0
  182.1050  180.8140  138.5960 C   0  0  0  0  0  1  0  0  0  0  0  0
  181.7070  179.4880  138.7820 O   0  0  0  0  0  0  0  0  0  0  0  0
  182.1980  176.8680  139.7960 C   0  0  0  0  0  1  0  0  0  0  0  0
  183.2720  177.6500  139.0480 C   0  0  2  0  0  3  0  0  0  0  0  0
  184.8330  179.4460  139.4680 O   0  0  0  0  0  1  0  0  0  0  0  0
  184.2640  178.2940  140.0220 C   0  0  1  0  0  3  0  0  0  0  0  0
  183.5880  178.6040  141.3530 C   0  0  0  0  0  2  0  0  0  0  0  0
  184.1140  179.3390  143.5750 O   0  0  0  0  0  1  0  0  0  0  0  0
  184.5770  178.5640  142.5070 C   0  0  0  0  0  2  0  0  0  0  0  0
  187.7560  169.2380  134.8000 C   0  0  0  0  0  2  0  0  0  0  0  0
  187.1440  170.4200  134.8770 C   0  0  0  0  0  3  0  0  0  0  0  0
  188.5810  176.8640  138.7920 C   0  0  0  0  0  2  0  0  0  0  0  0
  188.8890  179.2320  138.6760 O   0  0  0  0  0  1  0  0  0  0  0  0
  189.3520  178.0690  139.3010 C   0  0  1  0  0  3  0  0  0  0  0  0
  189.1550  178.1790  140.8000 C   0  0  0  0  0  2  0  0  0  0  0  0
  190.2870  177.4740  141.5300 C   0  0  1  0  0  3  0  0  0  0  0  0
  191.2050  178.5290  142.1280 C   0  0  0  0  0  1  0  0  0  0  0  0
  191.5620  175.4040  145.6410 C   0  0  0  0  0  2  0  0  0  0  0  0
  191.1420  177.8480  146.2050 N   0  0  0  0  0  2  0  0  0  0  0  0
  189.3220  176.7810  144.8740 C   0  0  2  0  0  3  0  0  0  0  0  0
  189.7320  176.5500  142.6190 C   0  0  2  0  0  3  0  0  0  0  0  0
  191.3520  175.7060  144.1450 C   0  0  0  0  0  2  0  0  0  0  0  0
  188.2560  176.8350  142.8540 C   0  0  0  0  0  2  0  0  0  0  0  0
  190.4010  176.7990  143.8890 N   0  0  2  0  0  0  0  0  0  0  0  0
  188.1110  177.2620  144.2350 N   0  0  0  0  0  2  0  0  0  0  0  0
  189.6870  177.6400  146.0870 C   0  0  1  0  0  3  0  0  0  0  0  0
  191.9150  176.6270  146.5030 C   0  0  0  0  0  2  0  0  0  0  0  0
  189.0830  177.0630  147.3610 C   0  0  0  0  0  2  0  0  0  0  0  0
  187.9950  177.9840  147.8880 C   0  0  0  0  0  2  0  0  0  0  0  0
  186.6300  177.5420  147.3840 C   0  0  0  0  0  2  0  0  0  0  0  0
  184.6310  178.5680  146.5790 O   0  0  0  0  0  0  0  0  0  0  0  0
  186.1340  179.9800  147.5780 O   0  0  0  0  0  1  0  0  0  0  0  0
  185.7460  178.7220  147.1420 C   0  0  0  0  0  0  0  0  0  0  0  0
  195.1930  171.8840  135.6650 N   0  0  0  0  0  2  0  0  0  0  0  0
  195.7570  170.7610  136.4080 C   0  0  0  0  0  2  0  0  0  0  0  0
  194.8490  168.6700  137.2550 N   0  0  0  0  0  1  0  0  0  0  0  0
  194.6920  170.1130  137.2760 C   0  0  0  0  0  2  0  0  0  0  0  0
  1  5  2  0  0  0  0
  2 24  1  6  0  0  0
  2 17  1  0  0  0  0
  3 43  1  1  0  0  0
  3 21  1  0  0  0  0
  3 17  1  0  0  0  0
  5 10  1  0  0  0  0
  6 12  2  0  0  0  0
  7 21  1  0  0  0  0
  7  1  1  0  0  0  0
  8  6  1  0  0  0  0
  8  5  1  0  0  0  0
  9  2  1  0  0  0  0
  9 16  1  1  0  0  0
  9 18  1  0  0  0  0
 10 11  1  0  0  0  0
 10 20  2  0  0  0  0
 12 11  1  0  0  0  0
 12  4  1  0  0  0  0
 13 14  1  0  0  0  0
 13 44  1  1  0  0  0
 14 20  1  0  0  0  0
 16 13  1  0  0  0  0
 18  1  1  6  0  0  0
 18 14  1  0  0  0  0
 19  8  2  0  0  0  0
 20 15  1  0  0  0  0
 22 23  2  0  0  0  0
 24 22  2  0  0  0  0
 25 28  1  1  0  0  0
 25 27  1  0  0  0  0
 25 23  1  0  0  0  0
 27 26  1  0  0  0  0
 28 31  1  0  0  0  0
 30 31  1  0  0  0  0
 30 29  1  0  0  0  0
 31 29  1  0  0  0  0
 31 32  1  0  0  0  0
 32 34  1  1  0  0  0
 32 36  1  0  0  0  0
 33 34  1  0  0  0  0
 36 35  1  1  0  0  0
 36 38  1  0  0  0  0
 38 37  1  6  0  0  0
 38 39  1  0  0  0  0
 39 41  1  0  0  0  0
 41 40  1  0  0  0  0
 42 43  2  0  0  0  0
 44 46  1  0  0  0  0
 46 45  1  6  0  0  0
 46 47  1  0  0  0  0
 47 48  1  0  0  0  0
 48 49  1  1  0  0  0
 50 59  1  0  0  0  0
 51 59  1  0  0  0  0
 52 57  1  6  0  0  0
 52 58  1  0  0  0  0
 53 48  1  6  0  0  0
 53 55  1  0  0  0  0
 53 56  1  0  0  0  0
 54 50  1  0  0  0  0
 55 57  1  0  0  0  0
 56 54  1  1  0  0  0
 56 52  1  0  0  0  0
 58 51  1  0  0  0  0
 58 60  1  1  0  0  0
 60 61  1  0  0  0  0
 62 61  1  0  0  0  0
 63 65  2  0  0  0  0
 65 62  1  0  0  0  0
 65 64  1  0  0  0  0
 66  6  1  0  0  0  0
 66 67  1  0  0  0  0
 67 69  1  0  0  0  0
 68 69  1  0  0  0  0
M  END
>  <MODEL>
1

>  <REMARK>
 VINA RESULT:      -6.6      0.000      0.000
  Name = 
  24 active torsions:
  status: ('A' for Active; 'I' for Inactive)
    1  A    between atoms: C_3  and  C_53
    2  A    between atoms: C_5  and  C_13
    3  A    between atoms: C_7  and  C_43
    4  A    between atoms: C_7  and  C_67
    5  A    between atoms: C_11  and  N_26
    6  A    between atoms: C_21  and  C_43
    7  A    between atoms: N_26  and  C_27
    8  A    between atoms: C_27  and  C_48
    9  A    between atoms: C_28  and  C_41
   10  A    between atoms: C_30  and  C_35
   11  A    between atoms: C_30  and  C_38
   12  A    between atoms: C_32  and  C_44
   13  A    between atoms: C_32  and  C_55
   14  A    between atoms: C_33  and  C_35
   15  A    between atoms: C_33  and  C_41
   16  A    between atoms: C_37  and  O_40
   17  A    between atoms: C_37  and  C_66
   18  A    between atoms: C_37  and  C_67
   19  A    between atoms: C_43  and  C_65
   20  A    between atoms: C_44  and  C_51
   21  A    between atoms: C_51  and  C_62
   22  A    between atoms: C_59  and  C_60
   23  A    between atoms: C_59  and  C_66
   24  A    between atoms: C_60  and  C_69
                            x       y       z     vdW  Elec       q    Type
                         _______ _______ _______ _____ _____    ______ ____

>  <TORSDO>
F 24

$$$$
=
 OpenBabel10222421273D

 69 75  0  0  1  0  0  0  0  0999 V2000
  190.8050  173.3370  135.8740 C   0  0  0  0  0  0  0  0  0  0  0  0
  187.2780  173.1130  136.3250 C   0  0  2  0  0  3  0  0  0  0  0  0
  188.3580  171.1620  135.0760 C   0  0  1  0  0  3  0  0  0  0  0  0
  195.9510  173.9510  137.9220 F   0  0  0  0  0  0  0  0  0  0  0  0
  192.0810  173.6740  136.1990 C   0  0  0  0  0  0  0  0  0  0  0  0
  194.5810  173.1340  136.1910 C   0  0  0  0  0  0  0  0  0  0  0  0
  190.4980  172.4110  134.7280 C   0  0  0  0  0  2  0  0  0  0  0  0
  193.2730  173.1210  135.5070 C   0  0  0  0  0  0  0  0  0  0  0  0
  188.3980  174.1020  135.9790 C   0  0  1  0  0  3  0  0  0  0  0  0
  192.3460  174.6360  137.3070 C   0  0  0  0  0  0  0  0  0  0  0  0
  193.7680  174.9850  137.6560 C   0  0  0  0  0  2  0  0  0  0  0  0
  194.7740  173.9420  137.2550 C   0  0  0  0  0  0  0  0  0  0  0  0
  188.9850  176.0440  137.1970 C   0  0  1  0  0  3  0  0  0  0  0  0
  189.9920  175.0310  137.4320 N   0  0  0  0  0  0  0  0  0  0  0  0
  191.5710  176.4100  138.8550 C   0  0  0  0  0  1  0  0  0  0  0  0
  187.9710  175.4640  136.3140 N   0  0  0  0  0  2  0  0  0  0  0  0
  187.7370  171.6470  136.3830 C   0  0  0  0  0  2  0  0  0  0  0  0
  189.6660  173.7990  136.7610 C   0  0  2  0  0  3  0  0  0  0  0  0
  193.1930  172.6410  134.3460 O   0  0  0  0  0  0  0  0  0  0  0  0
  191.3300  175.3250  137.8540 C   0  0  0  0  0  0  0  0  0  0  0  0
  189.8770  171.1030  135.1940 C   0  0  0  0  0  2  0  0  0  0  0  0
  184.9290  172.8610  135.7240 C   0  0  0  0  0  0  0  0  0  0  0  0
  183.7440  172.4250  136.0570 C   0  0  0  0  0  3  0  0  0  0  0  0
  186.1170  173.2870  135.3970 C   0  0  0  0  0  3  0  0  0  0  0  0
  182.5240  172.8250  135.2950 C   0  0  1  0  0  3  0  0  0  0  0  0
  181.1600  170.8580  134.9790 O   0  0  0  0  0  1  0  0  0  0  0  0
  182.0660  171.7130  134.3470 C   0  0  0  0  0  2  0  0  0  0  0  0
  181.4270  173.2170  136.2760 C   0  0  0  0  0  2  0  0  0  0  0  0
  179.9850  175.1050  135.6430 O   0  0  0  0  0  0  0  0  0  0  0  0
  181.1490  175.2290  134.9770 O   0  0  0  0  0  0  0  0  0  0  0  0
  181.1560  174.7140  136.2530 C   0  0  0  0  0  0  0  0  0  0  0  0
  181.7840  175.6650  137.2840 C   0  0  1  0  0  3  0  0  0  0  0  0
  181.2120  175.3180  139.4030 C   0  0  0  0  0  1  0  0  0  0  0  0
  182.1460  174.9470  138.4320 O   0  0  0  0  0  0  0  0  0  0  0  0
  184.2470  176.2460  137.5310 C   0  0  0  0  0  1  0  0  0  0  0  0
  182.9730  176.4610  136.7220 C   0  0  2  0  0  3  0  0  0  0  0  0
  182.2540  178.3060  135.3360 O   0  0  0  0  0  1  0  0  0  0  0  0
  182.6170  177.9490  136.6390 C   0  0  1  0  0  3  0  0  0  0  0  0
  181.5090  178.2930  137.6280 C   0  0  0  0  0  2  0  0  0  0  0  0
  183.2070  179.6940  138.5830 O   0  0  0  0  0  1  0  0  0  0  0  0
  182.0630  178.9490  138.8840 C   0  0  0  0  0  2  0  0  0  0  0  0
  187.8870  168.7550  135.4710 C   0  0  0  0  0  2  0  0  0  0  0  0
  187.7980  169.8260  134.6820 C   0  0  0  0  0  3  0  0  0  0  0  0
  188.3380  176.4570  138.5110 C   0  0  0  0  0  2  0  0  0  0  0  0
  187.0030  178.4120  138.8410 O   0  0  0  0  0  1  0  0  0  0  0  0
  188.3150  177.9680  138.6430 C   0  0  1  0  0  3  0  0  0  0  0  0
  189.1760  178.3710  139.8250 C   0  0  0  0  0  2  0  0  0  0  0  0
  188.7320  177.6250  141.0730 C   0  0  1  0  0  3  0  0  0  0  0  0
  189.7410  176.5230  141.3600 C   0  0  0  0  0  1  0  0  0  0  0  0
  185.8480  178.6730  144.7330 C   0  0  0  0  0  2  0  0  0  0  0  0
  187.0420  176.5270  145.3930 N   0  0  0  0  0  2  0  0  0  0  0  0
  188.5580  178.3190  144.5490 C   0  0  2  0  0  3  0  0  0  0  0  0
  188.6190  178.5850  142.2620 C   0  0  2  0  0  3  0  0  0  0  0  0
  186.4960  178.6110  143.3370 C   0  0  0  0  0  2  0  0  0  0  0  0
  189.9940  178.8580  142.8550 C   0  0  0  0  0  2  0  0  0  0  0  0
  187.8280  177.9870  143.3280 N   0  0  2  0  0  0  0  0  0  0  0  0
  189.9720  178.3910  144.2310 N   0  0  0  0  0  2  0  0  0  0  0  0
  188.2870  177.2780  145.6370 C   0  0  1  0  0  3  0  0  0  0  0  0
  185.8110  177.3330  145.4860 C   0  0  0  0  0  2  0  0  0  0  0  0
  188.3110  177.9200  147.0190 C   0  0  0  0  0  2  0  0  0  0  0  0
  189.3350  177.2260  147.9020 C   0  0  0  0  0  2  0  0  0  0  0  0
  190.2150  176.3020  147.0740 C   0  0  0  0  0  2  0  0  0  0  0  0
  192.4940  175.5950  147.0440 O   0  0  0  0  0  0  0  0  0  0  0  0
  192.0270  177.3680  148.4190 O   0  0  0  0  0  1  0  0  0  0  0  0
  191.6390  176.3860  147.5180 C   0  0  0  0  0  0  0  0  0  0  0  0
  195.5910  172.2260  135.7170 N   0  0  0  0  0  2  0  0  0  0  0  0
  196.9180  172.0370  136.2940 C   0  0  0  0  0  2  0  0  0  0  0  0
  198.3980  172.5410  134.4300 N   0  0  0  0  0  1  0  0  0  0  0  0
  197.8700  171.4690  135.2550 C   0  0  0  0  0  2  0  0  0  0  0  0
  1  5  2  0  0  0  0
  2 24  1  6  0  0  0
  2 17  1  0  0  0  0
  3 43  1  1  0  0  0
  3 21  1  0  0  0  0
  3 17  1  0  0  0  0
  5 10  1  0  0  0  0
  6 12  2  0  0  0  0
  7 21  1  0  0  0  0
  7  1  1  0  0  0  0
  8  6  1  0  0  0  0
  8  5  1  0  0  0  0
  9 16  1  1  0  0  0
  9  2  1  0  0  0  0
  9 18  1  0  0  0  0
 10 11  1  0  0  0  0
 10 20  2  0  0  0  0
 12 11  1  0  0  0  0
 12  4  1  0  0  0  0
 13 14  1  0  0  0  0
 13 44  1  1  0  0  0
 14 20  1  0  0  0  0
 16 13  1  0  0  0  0
 18  1  1  6  0  0  0
 18 14  1  0  0  0  0
 19  8  2  0  0  0  0
 20 15  1  0  0  0  0
 22 23  2  0  0  0  0
 24 22  2  0  0  0  0
 25 27  1  1  0  0  0
 25 23  1  0  0  0  0
 25 28  1  0  0  0  0
 27 26  1  0  0  0  0
 29 31  1  0  0  0  0
 30 29  1  0  0  0  0
 30 31  1  0  0  0  0
 31 28  1  0  0  0  0
 31 32  1  0  0  0  0
 32 34  1  1  0  0  0
 34 33  1  0  0  0  0
 36 32  1  0  0  0  0
 36 35  1  1  0  0  0
 38 37  1  6  0  0  0
 38 36  1  0  0  0  0
 38 39  1  0  0  0  0
 39 41  1  0  0  0  0
 40 41  1  0  0  0  0
 43 42  2  0  0  0  0
 44 46  1  0  0  0  0
 46 45  1  1  0  0  0
 46 47  1  0  0  0  0
 47 48  1  0  0  0  0
 48 49  1  1  0  0  0
 50 59  1  0  0  0  0
 51 59  1  0  0  0  0
 51 58  1  0  0  0  0
 52 57  1  6  0  0  0
 52 58  1  0  0  0  0
 53 48  1  6  0  0  0
 53 55  1  0  0  0  0
 53 56  1  0  0  0  0
 54 50  1  0  0  0  0
 55 57  1  0  0  0  0
 56 54  1  1  0  0  0
 56 52  1  0  0  0  0
 58 60  1  1  0  0  0
 60 61  1  0  0  0  0
 62 65  1  0  0  0  0
 62 61  1  0  0  0  0
 63 65  2  0  0  0  0
 65 64  1  0  0  0  0
 66  6  1  0  0  0  0
 66 67  1  0  0  0  0
 68 69  1  0  0  0  0
 69 67  1  0  0  0  0
M  END
>  <MODEL>
2

>  <REMARK>
 VINA RESULT:      -6.3      1.981      3.222
  Name = 
  24 active torsions:
  status: ('A' for Active; 'I' for Inactive)
    1  A    between atoms: C_3  and  C_53
    2  A    between atoms: C_5  and  C_13
    3  A    between atoms: C_7  and  C_43
    4  A    between atoms: C_7  and  C_67
    5  A    between atoms: C_11  and  N_26
    6  A    between atoms: C_21  and  C_43
    7  A    between atoms: N_26  and  C_27
    8  A    between atoms: C_27  and  C_48
    9  A    between atoms: C_28  and  C_41
   10  A    between atoms: C_30  and  C_35
   11  A    between atoms: C_30  and  C_38
   12  A    between atoms: C_32  and  C_44
   13  A    between atoms: C_32  and  C_55
   14  A    between atoms: C_33  and  C_35
   15  A    between atoms: C_33  and  C_41
   16  A    between atoms: C_37  and  O_40
   17  A    between atoms: C_37  and  C_66
   18  A    between atoms: C_37  and  C_67
   19  A    between atoms: C_43  and  C_65
   20  A    between atoms: C_44  and  C_51
   21  A    between atoms: C_51  and  C_62
   22  A    between atoms: C_59  and  C_60
   23  A    between atoms: C_59  and  C_66
   24  A    between atoms: C_60  and  C_69
                            x       y       z     vdW  Elec       q    Type
                         _______ _______ _______ _____ _____    ______ ____

>  <TORSDO>
F 24

$$$$
=
 OpenBabel10222421273D

 69 75  0  0  1  0  0  0  0  0999 V2000
  186.7230  177.2710  138.2050 C   0  0  0  0  0  0  0  0  0  0  0  0
  190.2850  177.2000  138.1410 C   0  0  2  0  0  3  0  0  0  0  0  0
  189.1280  176.5920  135.9450 C   0  0  1  0  0  3  0  0  0  0  0  0
  181.9190  179.9190  139.1820 F   0  0  0  0  0  0  0  0  0  0  0  0
  185.4960  177.7120  138.5870 C   0  0  0  0  0  0  0  0  0  0  0  0
  183.0530  178.2150  138.0210 C   0  0  0  0  0  0  0  0  0  0  0  0
  186.9000  176.3210  137.0520 C   0  0  0  0  0  2  0  0  0  0  0  0
  184.2420  177.3530  137.8750 C   0  0  0  0  0  0  0  0  0  0  0  0
  189.0780  176.8270  139.0100 C   0  0  1  0  0  3  0  0  0  0  0  0
  185.3520  178.6110  139.7680 C   0  0  0  0  0  0  0  0  0  0  0  0
  183.9830  179.0950  140.1640 C   0  0  0  0  0  2  0  0  0  0  0  0
  182.9820  179.0940  139.0430 C   0  0  0  0  0  0  0  0  0  0  0  0
  188.5850  177.6690  141.1660 C   0  0  1  0  0  3  0  0  0  0  0  0
  187.6760  178.2750  140.2160 N   0  0  0  0  0  0  0  0  0  0  0  0
  186.2620  179.5940  141.8540 C   0  0  0  0  0  1  0  0  0  0  0  0
  189.4820  176.7860  140.4200 N   0  0  0  0  0  2  0  0  0  0  0  0
  189.9130  177.6470  136.7180 C   0  0  0  0  0  2  0  0  0  0  0  0
  187.9580  177.8460  138.8700 C   0  0  2  0  0  3  0  0  0  0  0  0
  184.1710  176.3270  137.1500 O   0  0  0  0  0  0  0  0  0  0  0  0
  186.4040  178.8280  140.5760 C   0  0  0  0  0  0  0  0  0  0  0  0
  187.6490  176.9570  135.8900 C   0  0  0  0  0  2  0  0  0  0  0  0
  192.1900  176.0150  137.1860 C   0  0  0  0  0  0  0  0  0  0  0  0
  193.0900  175.9510  136.2420 C   0  0  0  0  0  3  0  0  0  0  0  0
  191.2830  176.0850  138.1200 C   0  0  0  0  0  3  0  0  0  0  0  0
  194.2610  175.0300  136.3440 C   0  0  1  0  0  3  0  0  0  0  0  0
  196.1660  176.4770  136.0130 O   0  0  0  0  0  1  0  0  0  0  0  0
  195.4010  175.4700  135.4200 C   0  0  0  0  0  2  0  0  0  0  0  0
  194.7120  174.9530  137.7970 C   0  0  0  0  0  2  0  0  0  0  0  0
  195.0300  172.9860  139.2380 O   0  0  0  0  0  0  0  0  0  0  0  0
  196.1700  173.7030  139.2560 O   0  0  0  0  0  0  0  0  0  0  0  0
  195.4300  173.6450  138.0970 C   0  0  0  0  0  0  0  0  0  0  0  0
  196.1070  172.8230  136.9880 C   0  0  1  0  0  3  0  0  0  0  0  0
  197.7740  172.9090  135.5220 C   0  0  0  0  0  1  0  0  0  0  0  0
  197.4380  173.2360  136.8380 O   0  0  0  0  0  0  0  0  0  0  0  0
  197.3840  170.6640  137.4090 C   0  0  0  0  0  1  0  0  0  0  0  0
  196.0130  171.3060  137.2220 C   0  0  2  0  0  3  0  0  0  0  0  0
  195.8520  169.4400  135.6960 O   0  0  0  0  0  1  0  0  0  0  0  0
  195.2470  170.6440  136.0720 C   0  0  1  0  0  3  0  0  0  0  0  0
  193.7870  170.4280  136.4520 C   0  0  0  0  0  2  0  0  0  0  0  0
  192.7760  172.3410  135.4160 O   0  0  0  0  0  1  0  0  0  0  0  0
  192.8450  170.9450  135.3760 C   0  0  0  0  0  2  0  0  0  0  0  0
  190.9580  176.0690  134.3460 C   0  0  0  0  0  2  0  0  0  0  0  0
  189.6880  176.4150  134.5630 C   0  0  0  0  0  3  0  0  0  0  0  0
  189.4000  178.7440  141.8710 C   0  0  0  0  0  2  0  0  0  0  0  0
  191.6450  178.6820  142.6920 O   0  0  0  0  0  1  0  0  0  0  0  0
  190.3750  178.1160  142.8510 C   0  0  1  0  0  3  0  0  0  0  0  0
  189.8770  178.3620  144.2620 C   0  0  0  0  0  2  0  0  0  0  0  0
  189.9810  177.0860  145.0830 C   0  0  1  0  0  3  0  0  0  0  0  0
  190.8210  177.3750  146.3180 C   0  0  0  0  0  1  0  0  0  0  0  0
  186.4360  177.9940  148.1520 C   0  0  0  0  0  2  0  0  0  0  0  0
  186.2940  179.8150  146.3820 N   0  0  0  0  0  2  0  0  0  0  0  0
  186.4770  177.5060  145.4580 C   0  0  2  0  0  3  0  0  0  0  0  0
  188.5870  176.5830  145.4740 C   0  0  2  0  0  3  0  0  0  0  0  0
  187.7340  177.4650  147.5130 C   0  0  0  0  0  2  0  0  0  0  0  0
  187.8260  176.1200  144.2410 C   0  0  0  0  0  2  0  0  0  0  0  0
  187.8000  177.6610  146.0570 N   0  0  2  0  0  0  0  0  0  0  0  0
  186.6400  176.9510  144.1260 N   0  0  0  0  0  2  0  0  0  0  0  0
  185.7460  178.8490  145.4120 C   0  0  1  0  0  3  0  0  0  0  0  0
  186.0880  179.4490  147.7960 C   0  0  0  0  0  2  0  0  0  0  0  0
  184.2440  178.6550  145.5800 C   0  0  0  0  0  2  0  0  0  0  0  0
  183.4890  179.5680  144.6280 C   0  0  0  0  0  2  0  0  0  0  0  0
  182.9160  178.7710  143.4660 C   0  0  0  0  0  2  0  0  0  0  0  0
  181.0960  179.7670  142.2850 O   0  0  0  0  0  0  0  0  0  0  0  0
  180.5250  178.5740  144.1570 O   0  0  0  0  0  1  0  0  0  0  0  0
  181.4670  179.0810  143.2730 C   0  0  0  0  0  0  0  0  0  0  0  0
  182.0300  178.1150  137.0150 N   0  0  0  0  0  2  0  0  0  0  0  0
  181.3330  176.8980  136.6140 C   0  0  0  0  0  2  0  0  0  0  0  0
  179.9820  175.0590  137.4580 N   0  0  0  0  0  1  0  0  0  0  0  0
  180.4270  176.4130  137.7320 C   0  0  0  0  0  2  0  0  0  0  0  0
  1  5  2  0  0  0  0
  2 24  1  6  0  0  0
  2  9  1  0  0  0  0
  3 43  1  6  0  0  0
  3 17  1  0  0  0  0
  5 10  1  0  0  0  0
  6 12  2  0  0  0  0
  7  1  1  0  0  0  0
  8  6  1  0  0  0  0
  8  5  1  0  0  0  0
  9 16  1  1  0  0  0
 10 11  1  0  0  0  0
 10 20  2  0  0  0  0
 12  4  1  0  0  0  0
 12 11  1  0  0  0  0
 13 44  1  6  0  0  0
 14 20  1  0  0  0  0
 14 13  1  0  0  0  0
 16 13  1  0  0  0  0
 17  2  1  0  0  0  0
 18  1  1  1  0  0  0
 18  9  1  0  0  0  0
 18 14  1  0  0  0  0
 19  8  2  0  0  0  0
 20 15  1  0  0  0  0
 21  3  1  0  0  0  0
 21  7  1  0  0  0  0
 22 24  2  0  0  0  0
 23 25  1  0  0  0  0
 23 22  2  0  0  0  0
 25 27  1  6  0  0  0
 25 28  1  0  0  0  0
 27 26  1  0  0  0  0
 28 31  1  0  0  0  0
 29 30  1  0  0  0  0
 31 29  1  0  0  0  0
 31 30  1  0  0  0  0
 32 34  1  1  0  0  0
 32 36  1  0  0  0  0
 32 31  1  0  0  0  0
 33 34  1  0  0  0  0
 36 35  1  6  0  0  0
 38 37  1  1  0  0  0
 38 39  1  0  0  0  0
 38 36  1  0  0  0  0
 41 40  1  0  0  0  0
 41 39  1  0  0  0  0
 42 43  2  0  0  0  0
 44 46  1  0  0  0  0
 46 45  1  1  0  0  0
 46 47  1  0  0  0  0
 47 48  1  0  0  0  0
 48 49  1  1  0  0  0
 51 59  1  0  0  0  0
 52 57  1  6  0  0  0
 52 56  1  0  0  0  0
 53 48  1  6  0  0  0
 53 56  1  0  0  0  0
 54 50  1  0  0  0  0
 55 53  1  0  0  0  0
 56 54  1  1  0  0  0
 57 55  1  0  0  0  0
 58 52  1  0  0  0  0
 58 60  1  1  0  0  0
 58 51  1  0  0  0  0
 59 50  1  0  0  0  0
 61 60  1  0  0  0  0
 62 61  1  0  0  0  0
 63 65  2  0  0  0  0
 65 62  1  0  0  0  0
 65 64  1  0  0  0  0
 66  6  1  0  0  0  0
 67 66  1  0  0  0  0
 67 69  1  0  0  0  0
 68 69  1  0  0  0  0
M  END
>  <MODEL>
3

>  <REMARK>
 VINA RESULT:      -5.9      3.627      9.925
  Name = 
  24 active torsions:
  status: ('A' for Active; 'I' for Inactive)
    1  A    between atoms: C_3  and  C_53
    2  A    between atoms: C_5  and  C_13
    3  A    between atoms: C_7  and  C_43
    4  A    between atoms: C_7  and  C_67
    5  A    between atoms: C_11  and  N_26
    6  A    between atoms: C_21  and  C_43
    7  A    between atoms: N_26  and  C_27
    8  A    between atoms: C_27  and  C_48
    9  A    between atoms: C_28  and  C_41
   10  A    between atoms: C_30  and  C_35
   11  A    between atoms: C_30  and  C_38
   12  A    between atoms: C_32  and  C_44
   13  A    between atoms: C_32  and  C_55
   14  A    between atoms: C_33  and  C_35
   15  A    between atoms: C_33  and  C_41
   16  A    between atoms: C_37  and  O_40
   17  A    between atoms: C_37  and  C_66
   18  A    between atoms: C_37  and  C_67
   19  A    between atoms: C_43  and  C_65
   20  A    between atoms: C_44  and  C_51
   21  A    between atoms: C_51  and  C_62
   22  A    between atoms: C_59  and  C_60
   23  A    between atoms: C_59  and  C_66
   24  A    between atoms: C_60  and  C_69
                            x       y       z     vdW  Elec       q    Type
                         _______ _______ _______ _____ _____    ______ ____

>  <TORSDO>
F 24

$$$$
=
 OpenBabel10222421273D

 69 75  0  0  1  0  0  0  0  0999 V2000
  185.2980  175.2320  136.5040 C   0  0  0  0  0  0  0  0  0  0  0  0
  187.1200  178.2890  136.6790 C   0  0  2  0  0  3  0  0  0  0  0  0
  188.2000  176.4370  135.2870 C   0  0  1  0  0  3  0  0  0  0  0  0
  180.6390  172.3940  135.3710 F   0  0  0  0  0  0  0  0  0  0  0  0
  184.1910  174.4460  136.4650 C   0  0  0  0  0  0  0  0  0  0  0  0
  182.9820  172.3700  135.5850 C   0  0  0  0  0  0  0  0  0  0  0  0
  186.6680  174.6850  136.2070 C   0  0  0  0  0  2  0  0  0  0  0  0
  184.2190  173.0140  136.0700 C   0  0  0  0  0  0  0  0  0  0  0  0
  186.2890  177.3200  137.5280 C   0  0  1  0  0  3  0  0  0  0  0  0
  182.8550  175.0090  136.8170 C   0  0  0  0  0  0  0  0  0  0  0  0
  181.6410  174.1210  136.7550 C   0  0  0  0  0  2  0  0  0  0  0  0
  181.7860  172.9450  135.8310 C   0  0  0  0  0  0  0  0  0  0  0  0
  184.2700  177.8190  138.6590 C   0  0  1  0  0  3  0  0  0  0  0  0
  183.9600  177.0180  137.4940 N   0  0  0  0  0  0  0  0  0  0  0  0
  181.4670  176.7690  137.8770 C   0  0  0  0  0  1  0  0  0  0  0  0
  185.7180  178.0370  138.6740 N   0  0  0  0  0  2  0  0  0  0  0  0
  187.4440  177.7630  135.2710 C   0  0  0  0  0  2  0  0  0  0  0  0
  185.1430  176.7230  136.7270 C   0  0  2  0  0  3  0  0  0  0  0  0
  185.2770  172.3360  136.1410 O   0  0  0  0  0  0  0  0  0  0  0  0
  182.7680  176.2330  137.3660 C   0  0  0  0  0  0  0  0  0  0  0  0
  187.2650  175.2830  134.9420 C   0  0  0  0  0  2  0  0  0  0  0  0
  189.1660  177.8030  137.9140 C   0  0  0  0  0  0  0  0  0  0  0  0
  189.9610  176.9010  138.4220 C   0  0  0  0  0  3  0  0  0  0  0  0
  188.3610  178.6970  137.4090 C   0  0  0  0  0  3  0  0  0  0  0  0
  191.3300  177.2510  138.9010 C   0  0  1  0  0  3  0  0  0  0  0  0
  192.2480  177.6650  141.0960 O   0  0  0  0  0  1  0  0  0  0  0  0
  191.5820  176.7170  140.3150 C   0  0  0  0  0  2  0  0  0  0  0  0
  192.3590  176.7260  137.9090 C   0  0  0  0  0  2  0  0  0  0  0  0
  190.8540  174.8750  137.3110 O   0  0  0  0  0  0  0  0  0  0  0  0
  191.3510  174.6270  138.5380 O   0  0  0  0  0  0  0  0  0  0  0  0
  192.1470  175.2500  137.6030 C   0  0  0  0  0  0  0  0  0  0  0  0
  193.2890  174.3580  137.0920 C   0  0  1  0  0  3  0  0  0  0  0  0
  192.3110  172.8000  135.8470 C   0  0  0  0  0  1  0  0  0  0  0  0
  193.0430  173.9870  135.7630 O   0  0  0  0  0  0  0  0  0  0  0  0
  195.0040  175.9460  136.0910 C   0  0  0  0  0  1  0  0  0  0  0  0
  194.6740  175.0080  137.2460 C   0  0  2  0  0  3  0  0  0  0  0  0
  196.6470  173.9560  136.3300 O   0  0  0  0  0  1  0  0  0  0  0  0
  195.7480  173.9260  137.4010 C   0  0  1  0  0  3  0  0  0  0  0  0
  196.4770  174.0780  138.7310 C   0  0  0  0  0  2  0  0  0  0  0  0
  198.8710  174.2010  138.8410 O   0  0  0  0  0  1  0  0  0  0  0  0
  197.7150  174.9500  138.5950 C   0  0  0  0  0  2  0  0  0  0  0  0
  190.6300  176.5650  134.7810 C   0  0  0  0  0  2  0  0  0  0  0  0
  189.3710  176.4790  134.3480 C   0  0  0  0  0  3  0  0  0  0  0  0
  183.5550  179.1600  138.5800 C   0  0  0  0  0  2  0  0  0  0  0  0
  181.5240  179.4480  139.8070 O   0  0  0  0  0  1  0  0  0  0  0  0
  182.9180  179.5040  139.9130 C   0  0  1  0  0  3  0  0  0  0  0  0
  183.3930  178.5090  140.9550 C   0  0  0  0  0  2  0  0  0  0  0  0
  183.3330  179.1330  142.3400 C   0  0  1  0  0  3  0  0  0  0  0  0
  182.7050  178.1290  143.2940 C   0  0  0  0  0  1  0  0  0  0  0  0
  185.9910  179.3580  146.3020 C   0  0  0  0  0  2  0  0  0  0  0  0
  185.8930  176.8930  145.6800 N   0  0  0  0  0  2  0  0  0  0  0  0
  186.4910  178.4010  143.7840 C   0  0  2  0  0  3  0  0  0  0  0  0
  184.7360  179.5310  142.8110 C   0  0  2  0  0  3  0  0  0  0  0  0
  184.9990  179.6890  145.1710 C   0  0  0  0  0  2  0  0  0  0  0  0
  185.7720  179.1680  141.7560 C   0  0  0  0  0  2  0  0  0  0  0  0
  185.1020  178.7900  144.0100 N   0  0  2  0  0  0  0  0  0  0  0  0
  186.6880  178.2150  142.3580 N   0  0  0  0  0  2  0  0  0  0  0  0
  186.8240  177.1240  144.5600 C   0  0  1  0  0  3  0  0  0  0  0  0
  185.9770  177.8910  146.7630 C   0  0  0  0  0  2  0  0  0  0  0  0
  188.2790  177.1290  145.0130 C   0  0  0  0  0  2  0  0  0  0  0  0
  189.1970  177.3700  143.8250 C   0  0  0  0  0  2  0  0  0  0  0  0
  190.3120  176.3360  143.7940 C   0  0  0  0  0  2  0  0  0  0  0  0
  192.1210  175.8910  145.2850 O   0  0  0  0  0  1  0  0  0  0  0  0
  191.7950  178.0970  144.7580 O   0  0  0  0  0  0  0  0  0  0  0  0
  191.4500  176.7560  144.6670 C   0  0  0  0  0  0  0  0  0  0  0  0
  183.1170  171.1650  134.8120 N   0  0  0  0  0  2  0  0  0  0  0  0
  183.8380  169.9610  135.2120 C   0  0  0  0  0  2  0  0  0  0  0  0
  181.5450  169.1630  135.0540 N   0  0  0  0  0  1  0  0  0  0  0  0
  182.9340  168.7450  135.1080 C   0  0  0  0  0  2  0  0  0  0  0  0
  2 24  1  1  0  0  0
  2  9  1  0  0  0  0
  3 43  1  6  0  0  0
  4 12  1  0  0  0  0
  5  1  2  0  0  0  0
  5 10  1  0  0  0  0
  6 12  2  0  0  0  0
  6  8  1  0  0  0  0
  7  1  1  0  0  0  0
  8 19  2  0  0  0  0
  8  5  1  0  0  0  0
  9 16  1  1  0  0  0
 10 20  2  0  0  0  0
 11 10  1  0  0  0  0
 12 11  1  0  0  0  0
 13 44  1  6  0  0  0
 13 16  1  0  0  0  0
 14 13  1  0  0  0  0
 17  3  1  0  0  0  0
 17  2  1  0  0  0  0
 18  1  1  1  0  0  0
 18 14  1  0  0  0  0
 18  9  1  0  0  0  0
 20 14  1  0  0  0  0
 20 15  1  0  0  0  0
 21  3  1  0  0  0  0
 21  7  1  0  0  0  0
 22 23  2  0  0  0  0
 23 25  1  0  0  0  0
 24 22  2  0  0  0  0
 25 28  1  6  0  0  0
 25 27  1  0  0  0  0
 27 26  1  0  0  0  0
 29 31  1  0  0  0  0
 29 30  1  0  0  0  0
 31 28  1  0  0  0  0
 31 30  1  0  0  0  0
 32 34  1  6  0  0  0
 32 36  1  0  0  0  0
 32 31  1  0  0  0  0
 34 33  1  0  0  0  0
 36 35  1  6  0  0  0
 36 38  1  0  0  0  0
 38 37  1  6  0  0  0
 38 39  1  0  0  0  0
 41 39  1  0  0  0  0
 41 40  1  0  0  0  0
 43 42  2  0  0  0  0
 44 46  1  0  0  0  0
 46 45  1  6  0  0  0
 46 47  1  0  0  0  0
 47 48  1  0  0  0  0
 48 49  1  1  0  0  0
 50 59  1  0  0  0  0
 51 59  1  0  0  0  0
 52 57  1  6  0  0  0
 52 56  1  0  0  0  0
 52 58  1  0  0  0  0
 53 48  1  6  0  0  0
 53 56  1  0  0  0  0
 54 50  1  0  0  0  0
 55 57  1  0  0  0  0
 55 53  1  0  0  0  0
 56 54  1  1  0  0  0
 58 60  1  1  0  0  0
 58 51  1  0  0  0  0
 61 60  1  0  0  0  0
 62 61  1  0  0  0  0
 62 65  1  0  0  0  0
 65 64  2  0  0  0  0
 65 63  1  0  0  0  0
 66 67  1  0  0  0  0
 66  6  1  0  0  0  0
 68 69  1  0  0  0  0
 69 67  1  0  0  0  0
M  END
>  <MODEL>
4

>  <REMARK>
 VINA RESULT:      -5.2      3.837      9.007
  Name = 
  24 active torsions:
  status: ('A' for Active; 'I' for Inactive)
    1  A    between atoms: C_3  and  C_53
    2  A    between atoms: C_5  and  C_13
    3  A    between atoms: C_7  and  C_43
    4  A    between atoms: C_7  and  C_67
    5  A    between atoms: C_11  and  N_26
    6  A    between atoms: C_21  and  C_43
    7  A    between atoms: N_26  and  C_27
    8  A    between atoms: C_27  and  C_48
    9  A    between atoms: C_28  and  C_41
   10  A    between atoms: C_30  and  C_35
   11  A    between atoms: C_30  and  C_38
   12  A    between atoms: C_32  and  C_44
   13  A    between atoms: C_32  and  C_55
   14  A    between atoms: C_33  and  C_35
   15  A    between atoms: C_33  and  C_41
   16  A    between atoms: C_37  and  O_40
   17  A    between atoms: C_37  and  C_66
   18  A    between atoms: C_37  and  C_67
   19  A    between atoms: C_43  and  C_65
   20  A    between atoms: C_44  and  C_51
   21  A    between atoms: C_51  and  C_62
   22  A    between atoms: C_59  and  C_60
   23  A    between atoms: C_59  and  C_66
   24  A    between atoms: C_60  and  C_69
                            x       y       z     vdW  Elec       q    Type
                         _______ _______ _______ _____ _____    ______ ____

>  <TORSDO>
F 24

$$$$
=
 OpenBabel10222421273D

 69 75  0  0  1  0  0  0  0  0999 V2000
  193.2300  173.5240  137.4810 C   0  0  0  0  0  0  0  0  0  0  0  0
  190.6640  175.9950  137.5170 C   0  0  2  0  0  3  0  0  0  0  0  0
  192.8540  176.6620  138.6510 C   0  0  1  0  0  3  0  0  0  0  0  0
  196.5480  169.9830  134.7430 F   0  0  0  0  0  0  0  0  0  0  0  0
  193.9500  172.4860  136.9790 C   0  0  0  0  0  0  0  0  0  0  0  0
  196.1930  171.3000  136.6600 C   0  0  0  0  0  0  0  0  0  0  0  0
  193.6990  174.3060  138.6780 C   0  0  0  0  0  2  0  0  0  0  0  0
  195.2720  172.0740  137.5150 C   0  0  0  0  0  0  0  0  0  0  0  0
  190.9030  174.4900  137.6870 C   0  0  1  0  0  3  0  0  0  0  0  0
  193.4290  171.6990  135.8240 C   0  0  0  0  0  0  0  0  0  0  0  0
  194.2500  170.5610  135.2790 C   0  0  0  0  0  2  0  0  0  0  0  0
  195.7210  170.6720  135.5630 C   0  0  0  0  0  0  0  0  0  0  0  0
  189.9830  172.7610  136.3580 C   0  0  1  0  0  3  0  0  0  0  0  0
  191.3790  172.9150  136.0110 N   0  0  0  0  0  0  0  0  0  0  0  0
  191.5560  171.0030  134.3570 C   0  0  0  0  0  1  0  0  0  0  0  0
  189.6690  173.7580  137.3830 N   0  0  0  0  0  2  0  0  0  0  0  0
  191.9540  176.8250  137.4300 C   0  0  0  0  0  2  0  0  0  0  0  0
  191.9900  173.9920  136.7470 C   0  0  2  0  0  3  0  0  0  0  0  0
  195.6250  172.3710  138.6870 O   0  0  0  0  0  0  0  0  0  0  0  0
  192.1650  171.8800  135.4060 C   0  0  0  0  0  0  0  0  0  0  0  0
  194.0330  175.7490  138.3290 C   0  0  0  0  0  2  0  0  0  0  0  0
  190.1360  176.5270  139.8370 C   0  0  0  0  0  0  0  0  0  0  0  0
  190.5240  176.5360  141.0840 C   0  0  0  0  0  3  0  0  0  0  0  0
  189.7550  176.5070  138.5900 C   0  0  0  0  0  3  0  0  0  0  0  0
  189.7700  177.2890  142.1290 C   0  0  1  0  0  3  0  0  0  0  0  0
  187.5390  177.9750  142.7450 O   0  0  0  0  0  1  0  0  0  0  0  0
  188.3490  177.6210  141.6640 C   0  0  0  0  0  2  0  0  0  0  0  0
  189.7670  176.4850  143.4220 C   0  0  0  0  0  2  0  0  0  0  0  0
  191.2960  178.2800  144.1190 O   0  0  0  0  0  0  0  0  0  0  0  0
  191.9690  177.1140  144.1760 O   0  0  0  0  0  0  0  0  0  0  0  0
  190.6310  177.1340  144.4940 C   0  0  0  0  0  0  0  0  0  0  0  0
  190.3620  176.9130  145.9910 C   0  0  1  0  0  3  0  0  0  0  0  0
  191.9720  175.5980  146.7770 C   0  0  0  0  0  1  0  0  0  0  0  0
  191.5730  176.9350  146.6980 O   0  0  0  0  0  0  0  0  0  0  0  0
  189.8000  178.4650  147.9260 C   0  0  0  0  0  1  0  0  0  0  0  0
  189.3530  177.9150  146.5760 C   0  0  2  0  0  3  0  0  0  0  0  0
  188.0040  176.1320  147.4920 O   0  0  0  0  0  1  0  0  0  0  0  0
  187.9680  177.2680  146.6760 C   0  0  1  0  0  3  0  0  0  0  0  0
  186.9400  178.2720  147.1820 C   0  0  0  0  0  2  0  0  0  0  0  0
  184.6320  178.5210  146.5740 O   0  0  0  0  0  1  0  0  0  0  0  0
  185.9410  178.6470  146.0980 C   0  0  0  0  0  2  0  0  0  0  0  0
  193.9170  178.1490  140.3340 C   0  0  0  0  0  2  0  0  0  0  0  0
  193.3300  177.9970  139.1470 C   0  0  0  0  0  3  0  0  0  0  0  0
  189.1080  172.9970  135.1350 C   0  0  0  0  0  2  0  0  0  0  0  0
  187.7870  171.3340  136.2300 O   0  0  0  0  0  1  0  0  0  0  0  0
  187.7210  172.4210  135.3520 C   0  0  1  0  0  3  0  0  0  0  0  0
  186.8290  173.4990  135.9360 C   0  0  0  0  0  2  0  0  0  0  0  0
  185.4630  172.9220  136.2710 C   0  0  1  0  0  3  0  0  0  0  0  0
  185.2230  173.0860  137.7640 C   0  0  0  0  0  1  0  0  0  0  0  0
  180.7100  173.3130  136.0140 C   0  0  0  0  0  2  0  0  0  0  0  0
  181.4050  174.7070  138.0260 N   0  0  0  0  0  2  0  0  0  0  0  0
  182.7290  175.1630  135.9610 C   0  0  2  0  0  3  0  0  0  0  0  0
  184.3680  173.6250  135.4610 C   0  0  2  0  0  3  0  0  0  0  0  0
  182.1600  172.8250  135.8440 C   0  0  0  0  0  2  0  0  0  0  0  0
  184.8220  175.0200  135.0580 C   0  0  0  0  0  2  0  0  0  0  0  0
  183.1700  173.8060  136.2690 N   0  0  2  0  0  0  0  0  0  0  0  0
  183.8990  175.9670  135.6580 N   0  0  0  0  0  2  0  0  0  0  0  0
  181.9410  175.7520  137.1340 C   0  0  1  0  0  3  0  0  0  0  0  0
  180.3710  173.8500  137.4150 C   0  0  0  0  0  2  0  0  0  0  0  0
  180.8550  176.6970  136.6380 C   0  0  0  0  0  2  0  0  0  0  0  0
  180.5840  177.7750  137.6740 C   0  0  0  0  0  2  0  0  0  0  0  0
  181.8900  178.3720  138.1770 C   0  0  0  0  0  2  0  0  0  0  0  0
  182.1250  177.4320  140.3580 O   0  0  0  0  0  1  0  0  0  0  0  0
  181.6880  179.6810  140.2930 O   0  0  0  0  0  0  0  0  0  0  0  0
  181.8940  178.4590  139.6690 C   0  0  0  0  0  0  0  0  0  0  0  0
  197.5880  171.2980  137.0130 N   0  0  0  0  0  2  0  0  0  0  0  0
  198.4910  172.4430  136.9610 C   0  0  0  0  0  2  0  0  0  0  0  0
  198.8480  174.3870  135.5430 N   0  0  0  0  0  1  0  0  0  0  0  0
  198.6150  172.9540  135.5360 C   0  0  0  0  0  2  0  0  0  0  0  0
  1  7  1  0  0  0  0
  2  9  1  0  0  0  0
  2 24  1  1  0  0  0
  3 43  1  6  0  0  0
  4 12  1  0  0  0  0
  5  1  2  0  0  0  0
  5  8  1  0  0  0  0
  6 66  1  0  0  0  0
  6  8  1  0  0  0  0
  8 19  2  0  0  0  0
  9 16  1  6  0  0  0
 10  5  1  0  0  0  0
 11 12  1  0  0  0  0
 11 10  1  0  0  0  0
 12  6  2  0  0  0  0
 13 44  1  6  0  0  0
 13 16  1  0  0  0  0
 14 13  1  0  0  0  0
 14 18  1  0  0  0  0
 15 20  1  0  0  0  0
 17  2  1  0  0  0  0
 17  3  1  0  0  0  0
 18  1  1  1  0  0  0
 18  9  1  0  0  0  0
 20 10  2  0  0  0  0
 20 14  1  0  0  0  0
 21  3  1  0  0  0  0
 21  7  1  0  0  0  0
 22 23  2  0  0  0  0
 24 22  2  0  0  0  0
 25 23  1  6  0  0  0
 25 28  1  0  0  0  0
 27 25  1  0  0  0  0
 27 26  1  0  0  0  0
 28 31  1  0  0  0  0
 29 30  1  0  0  0  0
 29 31  1  0  0  0  0
 30 31  1  0  0  0  0
 31 32  1  0  0  0  0
 32 36  1  0  0  0  0
 32 34  1  1  0  0  0
 34 33  1  0  0  0  0
 36 38  1  0  0  0  0
 36 35  1  1  0  0  0
 38 39  1  0  0  0  0
 38 37  1  1  0  0  0
 41 40  1  0  0  0  0
 41 39  1  0  0  0  0
 43 42  2  0  0  0  0
 44 46  1  0  0  0  0
 46 47  1  0  0  0  0
 46 45  1  1  0  0  0
 47 48  1  0  0  0  0
 48 49  1  1  0  0  0
 50 59  1  0  0  0  0
 52 57  1  1  0  0  0
 52 56  1  0  0  0  0
 52 58  1  0  0  0  0
 53 56  1  0  0  0  0
 53 48  1  1  0  0  0
 54 50  1  0  0  0  0
 55 53  1  0  0  0  0
 55 57  1  0  0  0  0
 56 54  1  6  0  0  0
 58 60  1  6  0  0  0
 58 51  1  0  0  0  0
 59 51  1  0  0  0  0
 60 61  1  0  0  0  0
 61 62  1  0  0  0  0
 62 65  1  0  0  0  0
 65 64  2  0  0  0  0
 65 63  1  0  0  0  0
 67 66  1  0  0  0  0
 69 68  1  0  0  0  0
 69 67  1  0  0  0  0
M  END
>  <MODEL>
5

>  <REMARK>
 VINA RESULT:      -4.7      2.732      8.615
  Name = 
  24 active torsions:
  status: ('A' for Active; 'I' for Inactive)
    1  A    between atoms: C_3  and  C_53
    2  A    between atoms: C_5  and  C_13
    3  A    between atoms: C_7  and  C_43
    4  A    between atoms: C_7  and  C_67
    5  A    between atoms: C_11  and  N_26
    6  A    between atoms: C_21  and  C_43
    7  A    between atoms: N_26  and  C_27
    8  A    between atoms: C_27  and  C_48
    9  A    between atoms: C_28  and  C_41
   10  A    between atoms: C_30  and  C_35
   11  A    between atoms: C_30  and  C_38
   12  A    between atoms: C_32  and  C_44
   13  A    between atoms: C_32  and  C_55
   14  A    between atoms: C_33  and  C_35
   15  A    between atoms: C_33  and  C_41
   16  A    between atoms: C_37  and  O_40
   17  A    between atoms: C_37  and  C_66
   18  A    between atoms: C_37  and  C_67
   19  A    between atoms: C_43  and  C_65
   20  A    between atoms: C_44  and  C_51
   21  A    between atoms: C_51  and  C_62
   22  A    between atoms: C_59  and  C_60
   23  A    between atoms: C_59  and  C_66
   24  A    between atoms: C_60  and  C_69
                            x       y       z     vdW  Elec       q    Type
                         _______ _______ _______ _____ _____    ______ ____

>  <TORSDO>
F 24

$$$$
=
 OpenBabel10222421273D

 69 75  0  0  1  0  0  0  0  0999 V2000
  188.4010  177.4580  141.3070 C   0  0  0  0  0  0  0  0  0  0  0  0
  187.0210  177.9500  138.0590 C   0  0  2  0  0  3  0  0  0  0  0  0
  185.4660  178.4920  140.0130 C   0  0  1  0  0  3  0  0  0  0  0  0
  192.3580  178.4030  145.1140 F   0  0  0  0  0  0  0  0  0  0  0  0
  189.3770  177.4330  142.2510 C   0  0  0  0  0  0  0  0  0  0  0  0
  190.1260  177.8050  144.6690 C   0  0  0  0  0  0  0  0  0  0  0  0
  186.9450  177.3370  141.6690 C   0  0  0  0  0  2  0  0  0  0  0  0
  189.1020  177.3490  143.7090 C   0  0  0  0  0  0  0  0  0  0  0  0
  187.8950  176.9900  138.8740 C   0  0  1  0  0  3  0  0  0  0  0  0
  190.8130  177.5010  141.8520 C   0  0  0  0  0  0  0  0  0  0  0  0
  191.8760  177.4820  142.9180 C   0  0  0  0  0  2  0  0  0  0  0  0
  191.4050  177.9540  144.2650 C   0  0  0  0  0  0  0  0  0  0  0  0
  190.1500  176.4240  138.4330 C   0  0  1  0  0  3  0  0  0  0  0  0
  190.1140  177.3130  139.5730 N   0  0  0  0  0  0  0  0  0  0  0  0
  192.5850  177.2910  140.1320 C   0  0  0  0  0  1  0  0  0  0  0  0
  188.7740  176.2380  137.9720 N   0  0  0  0  0  2  0  0  0  0  0  0
  186.3490  179.0470  138.8990 C   0  0  0  0  0  2  0  0  0  0  0  0
  188.7700  177.7430  139.8650 C   0  0  2  0  0  3  0  0  0  0  0  0
  188.0110  176.8940  144.1440 O   0  0  0  0  0  0  0  0  0  0  0  0
  191.1540  177.3860  140.5580 C   0  0  0  0  0  0  0  0  0  0  0  0
  186.1680  178.6080  141.3620 C   0  0  0  0  0  2  0  0  0  0  0  0
  186.3510  176.0930  136.6270 C   0  0  0  0  0  0  0  0  0  0  0  0
  186.6980  175.0010  136.0010 C   0  0  0  0  0  3  0  0  0  0  0  0
  186.0170  177.1890  137.2510 C   0  0  0  0  0  3  0  0  0  0  0  0
  185.6770  174.0750  135.4280 C   0  0  1  0  0  3  0  0  0  0  0  0
  186.4020  171.8990  136.1830 O   0  0  0  0  0  1  0  0  0  0  0  0
  186.2930  172.7210  135.0590 C   0  0  0  0  0  2  0  0  0  0  0  0
  184.5280  173.9210  136.4160 C   0  0  0  0  0  2  0  0  0  0  0  0
  182.9050  173.6160  134.5950 O   0  0  0  0  0  0  0  0  0  0  0  0
  183.3220  174.8970  134.5700 O   0  0  0  0  0  0  0  0  0  0  0  0
  183.1870  174.2570  135.7810 C   0  0  0  0  0  0  0  0  0  0  0  0
  182.0080  174.7840  136.6140 C   0  0  1  0  0  3  0  0  0  0  0  0
  181.2310  172.8180  137.2950 C   0  0  0  0  0  1  0  0  0  0  0  0
  181.8400  173.9880  137.7550 O   0  0  0  0  0  0  0  0  0  0  0  0
  182.4060  176.4750  138.4710 C   0  0  0  0  0  1  0  0  0  0  0  0
  182.1490  176.2700  136.9820 C   0  0  2  0  0  3  0  0  0  0  0  0
  180.0700  177.3310  137.6080 O   0  0  0  0  0  1  0  0  0  0  0  0
  180.9090  177.0450  136.5250 C   0  0  1  0  0  3  0  0  0  0  0  0
  181.3100  178.3200  135.7930 C   0  0  0  0  0  2  0  0  0  0  0  0
  180.5300  180.5730  135.5240 O   0  0  0  0  0  1  0  0  0  0  0  0
  180.7320  179.5570  136.4630 C   0  0  0  0  0  2  0  0  0  0  0  0
  183.7000  179.9300  139.0200 C   0  0  0  0  0  2  0  0  0  0  0  0
  184.1360  179.1890  140.0390 C   0  0  0  0  0  3  0  0  0  0  0  0
  190.9820  177.0370  137.3150 C   0  0  0  0  0  2  0  0  0  0  0  0
  192.1960  176.5110  135.3230 O   0  0  0  0  0  1  0  0  0  0  0  0
  191.2520  176.0120  136.2280 C   0  0  1  0  0  3  0  0  0  0  0  0
  191.7790  174.7430  136.8700 C   0  0  0  0  0  2  0  0  0  0  0  0
  193.2210  174.5060  136.4530 C   0  0  1  0  0  3  0  0  0  0  0  0
  194.1120  175.4560  137.2390 C   0  0  0  0  0  1  0  0  0  0  0  0
  195.7040  170.9460  134.4600 C   0  0  0  0  0  2  0  0  0  0  0  0
  197.4390  172.5500  135.4000 N   0  0  0  0  0  2  0  0  0  0  0  0
  195.6260  171.9550  137.0050 C   0  0  2  0  0  3  0  0  0  0  0  0
  193.6210  173.0480  136.7030 C   0  0  2  0  0  3  0  0  0  0  0  0
  194.5810  171.9310  134.8340 C   0  0  0  0  0  2  0  0  0  0  0  0
  193.8690  172.8140  138.1860 C   0  0  0  0  0  2  0  0  0  0  0  0
  194.8740  172.7380  136.0290 N   0  0  2  0  0  0  0  0  0  0  0  0
  195.2540  172.4030  138.3350 N   0  0  0  0  0  2  0  0  0  0  0  0
  197.1310  172.1040  136.7700 C   0  0  1  0  0  3  0  0  0  0  0  0
  197.1030  171.5750  134.3460 C   0  0  0  0  0  2  0  0  0  0  0  0
  197.8660  170.8220  137.1380 C   0  0  0  0  0  2  0  0  0  0  0  0
  198.8640  171.0900  138.2520 C   0  0  0  0  0  2  0  0  0  0  0  0
  200.2130  170.4690  137.9220 C   0  0  0  0  0  2  0  0  0  0  0  0
  199.8180  168.1190  138.0600 O   0  0  0  0  0  1  0  0  0  0  0  0
  200.0770  168.9560  135.9420 O   0  0  0  0  0  0  0  0  0  0  0  0
  200.0390  169.1130  137.3200 C   0  0  0  0  0  0  0  0  0  0  0  0
  189.6930  178.1290  146.0010 N   0  0  0  0  0  2  0  0  0  0  0  0
  189.6100  177.2050  147.1280 C   0  0  0  0  0  2  0  0  0  0  0  0
  187.4470  178.3190  147.1760 N   0  0  0  0  0  1  0  0  0  0  0  0
  188.2040  177.1970  147.7030 C   0  0  0  0  0  2  0  0  0  0  0  0
  1  7  1  0  0  0  0
  1  5  2  0  0  0  0
  2 24  1  1  0  0  0
  2  9  1  0  0  0  0
  2 17  1  0  0  0  0
  3 43  1  1  0  0  0
  3 21  1  0  0  0  0
  5  8  1  0  0  0  0
  6 66  1  0  0  0  0
  8 19  2  0  0  0  0
  8  6  1  0  0  0  0
  9 16  1  6  0  0  0
  9 18  1  0  0  0  0
 10  5  1  0  0  0  0
 10 11  1  0  0  0  0
 11 12  1  0  0  0  0
 12  6  2  0  0  0  0
 12  4  1  0  0  0  0
 13 44  1  6  0  0  0
 13 14  1  0  0  0  0
 14 18  1  0  0  0  0
 14 20  1  0  0  0  0
 15 20  1  0  0  0  0
 16 13  1  0  0  0  0
 17  3  1  0  0  0  0
 18  1  1  1  0  0  0
 20 10  2  0  0  0  0
 21  7  1  0  0  0  0
 22 24  2  0  0  0  0
 23 22  2  0  0  0  0
 25 27  1  1  0  0  0
 25 23  1  0  0  0  0
 25 28  1  0  0  0  0
 27 26  1  0  0  0  0
 29 31  1  0  0  0  0
 30 29  1  0  0  0  0
 30 31  1  0  0  0  0
 31 28  1  0  0  0  0
 31 32  1  0  0  0  0
 32 36  1  0  0  0  0
 32 34  1  1  0  0  0
 33 34  1  0  0  0  0
 36 35  1  1  0  0  0
 38 36  1  0  0  0  0
 38 37  1  1  0  0  0
 39 41  1  0  0  0  0
 39 38  1  0  0  0  0
 40 41  1  0  0  0  0
 42 43  2  0  0  0  0
 46 45  1  6  0  0  0
 46 47  1  0  0  0  0
 46 44  1  0  0  0  0
 48 47  1  0  0  0  0
 48 49  1  1  0  0  0
 50 54  1  0  0  0  0
 51 58  1  0  0  0  0
 52 57  1  1  0  0  0
 53 48  1  1  0  0  0
 53 55  1  0  0  0  0
 55 57  1  0  0  0  0
 56 54  1  6  0  0  0
 56 53  1  0  0  0  0
 56 52  1  0  0  0  0
 58 52  1  0  0  0  0
 58 60  1  6  0  0  0
 59 50  1  0  0  0  0
 59 51  1  0  0  0  0
 60 61  1  0  0  0  0
 62 61  1  0  0  0  0
 64 65  2  0  0  0  0
 65 62  1  0  0  0  0
 65 63  1  0  0  0  0
 66 67  1  0  0  0  0
 67 69  1  0  0  0  0
 68 69  1  0  0  0  0
M  END
>  <MODEL>
6

>  <REMARK>
 VINA RESULT:      -4.5      2.822      9.490
  Name = 
  24 active torsions:
  status: ('A' for Active; 'I' for Inactive)
    1  A    between atoms: C_3  and  C_53
    2  A    between atoms: C_5  and  C_13
    3  A    between atoms: C_7  and  C_43
    4  A    between atoms: C_7  and  C_67
    5  A    between atoms: C_11  and  N_26
    6  A    between atoms: C_21  and  C_43
    7  A    between atoms: N_26  and  C_27
    8  A    between atoms: C_27  and  C_48
    9  A    between atoms: C_28  and  C_41
   10  A    between atoms: C_30  and  C_35
   11  A    between atoms: C_30  and  C_38
   12  A    between atoms: C_32  and  C_44
   13  A    between atoms: C_32  and  C_55
   14  A    between atoms: C_33  and  C_35
   15  A    between atoms: C_33  and  C_41
   16  A    between atoms: C_37  and  O_40
   17  A    between atoms: C_37  and  C_66
   18  A    between atoms: C_37  and  C_67
   19  A    between atoms: C_43  and  C_65
   20  A    between atoms: C_44  and  C_51
   21  A    between atoms: C_51  and  C_62
   22  A    between atoms: C_59  and  C_60
   23  A    between atoms: C_59  and  C_66
   24  A    between atoms: C_60  and  C_69
                            x       y       z     vdW  Elec       q    Type
                         _______ _______ _______ _____ _____    ______ ____

>  <TORSDO>
F 24

$$$$
=
 OpenBabel10222421273D

 69 75  0  0  1  0  0  0  0  0999 V2000
  190.7470  174.6940  136.7550 C   0  0  0  0  0  0  0  0  0  0  0  0
  187.5150  176.0120  136.0400 C   0  0  2  0  0  3  0  0  0  0  0  0
  189.2270  177.6980  136.9110 C   0  0  1  0  0  3  0  0  0  0  0  0
  195.3220  171.9080  135.2200 F   0  0  0  0  0  0  0  0  0  0  0  0
  191.8200  173.8760  136.5920 C   0  0  0  0  0  0  0  0  0  0  0  0
  194.3500  173.5090  136.6440 C   0  0  0  0  0  0  0  0  0  0  0  0
  190.8010  175.8990  137.6540 C   0  0  0  0  0  2  0  0  0  0  0  0
  193.1400  174.1240  137.2250 C   0  0  0  0  0  0  0  0  0  0  0  0
  188.2230  174.8020  136.6610 C   0  0  1  0  0  3  0  0  0  0  0  0
  191.7150  172.6600  135.7340 C   0  0  0  0  0  0  0  0  0  0  0  0
  192.9200  171.7740  135.5600 C   0  0  0  0  0  2  0  0  0  0  0  0
  194.2320  172.4690  135.7930 C   0  0  0  0  0  0  0  0  0  0  0  0
  188.0760  172.5580  135.9260 C   0  0  1  0  0  3  0  0  0  0  0  0
  189.3690  173.0820  135.5450 N   0  0  0  0  0  0  0  0  0  0  0  0
  190.3450  170.9640  134.5540 C   0  0  0  0  0  1  0  0  0  0  0  0
  187.3420  173.6310  136.5980 N   0  0  0  0  0  2  0  0  0  0  0  0
  188.4570  177.1790  135.7000 C   0  0  0  0  0  2  0  0  0  0  0  0
  189.5060  174.4680  135.9150 C   0  0  2  0  0  3  0  0  0  0  0  0
  193.2500  174.8480  138.2490 O   0  0  0  0  0  0  0  0  0  0  0  0
  190.5140  172.2600  135.2830 C   0  0  0  0  0  0  0  0  0  0  0  0
  190.6700  177.2030  136.8810 C   0  0  0  0  0  2  0  0  0  0  0  0
  186.6030  177.1000  138.0220 C   0  0  0  0  0  0  0  0  0  0  0  0
  186.8350  177.7340  139.1410 C   0  0  0  0  0  3  0  0  0  0  0  0
  186.3810  176.4600  136.9080 C   0  0  0  0  0  3  0  0  0  0  0  0
  185.7450  178.4350  139.8790 C   0  0  1  0  0  3  0  0  0  0  0  0
  183.4460  178.1640  140.5690 O   0  0  0  0  0  1  0  0  0  0  0  0
  184.6200  177.4690  140.2660 C   0  0  0  0  0  2  0  0  0  0  0  0
  186.3330  179.1320  141.0990 C   0  0  0  0  0  2  0  0  0  0  0  0
  185.6990  177.3420  142.6620 O   0  0  0  0  0  0  0  0  0  0  0  0
  186.0970  178.4060  143.3860 O   0  0  0  0  0  0  0  0  0  0  0  0
  186.7170  178.1400  142.1870 C   0  0  0  0  0  0  0  0  0  0  0  0
  188.1610  177.6400  142.3510 C   0  0  1  0  0  3  0  0  0  0  0  0
  189.6840  176.8370  140.9460 C   0  0  0  0  0  1  0  0  0  0  0  0
  188.9090  177.9690  141.2120 O   0  0  0  0  0  0  0  0  0  0  0  0
  190.1760  178.8240  143.3530 C   0  0  0  0  0  1  0  0  0  0  0  0
  188.8340  178.1560  143.6330 C   0  0  2  0  0  3  0  0  0  0  0  0
  190.1490  177.1720  145.4060 O   0  0  0  0  0  1  0  0  0  0  0  0
  188.9870  177.0140  144.6430 C   0  0  1  0  0  3  0  0  0  0  0  0
  187.7560  176.9160  145.5360 C   0  0  0  0  0  2  0  0  0  0  0  0
  187.9400  176.9010  147.9280 O   0  0  0  0  0  1  0  0  0  0  0  0
  187.9180  177.7360  146.8060 C   0  0  0  0  0  2  0  0  0  0  0  0
  189.3540  179.8700  138.1120 C   0  0  0  0  0  2  0  0  0  0  0  0
  189.1770  179.1970  136.9740 C   0  0  0  0  0  3  0  0  0  0  0  0
  187.3060  172.1110  134.6910 C   0  0  0  0  0  2  0  0  0  0  0  0
  187.1460  169.9970  135.7940 O   0  0  0  0  0  1  0  0  0  0  0  0
  186.4330  170.9120  135.0120 C   0  0  1  0  0  3  0  0  0  0  0  0
  185.2060  171.3850  135.7670 C   0  0  0  0  0  2  0  0  0  0  0  0
  184.3410  172.2530  134.8670 C   0  0  1  0  0  3  0  0  0  0  0  0
  183.0660  171.4890  134.5430 C   0  0  0  0  0  1  0  0  0  0  0  0
  181.3480  175.9620  134.5490 C   0  0  0  0  0  2  0  0  0  0  0  0
  179.9830  174.0620  135.5480 N   0  0  0  0  0  2  0  0  0  0  0  0
  182.1860  174.4300  136.6600 C   0  0  2  0  0  3  0  0  0  0  0  0
  184.0210  173.5860  135.5520 C   0  0  2  0  0  3  0  0  0  0  0  0
  182.5400  175.0070  134.3470 C   0  0  0  0  0  2  0  0  0  0  0  0
  184.2210  173.4700  137.0560 C   0  0  0  0  0  2  0  0  0  0  0  0
  182.6210  173.9390  135.3550 N   0  0  2  0  0  0  0  0  0  0  0  0
  182.9380  173.7310  137.6860 N   0  0  0  0  0  2  0  0  0  0  0  0
  180.6800  174.2200  136.8380 C   0  0  1  0  0  3  0  0  0  0  0  0
  179.9840  175.2670  134.6980 C   0  0  0  0  0  2  0  0  0  0  0  0
  180.0750  175.3310  137.6870 C   0  0  0  0  0  2  0  0  0  0  0  0
  180.9050  176.5980  137.5610 C   0  0  0  0  0  2  0  0  0  0  0  0
  180.0440  177.8280  137.8060 C   0  0  0  0  0  2  0  0  0  0  0  0
  181.4160  179.4530  136.7240 O   0  0  0  0  0  0  0  0  0  0  0  0
  181.0130  179.8230  138.9500 O   0  0  0  0  0  1  0  0  0  0  0  0
  180.8750  179.0690  137.7930 C   0  0  0  0  0  0  0  0  0  0  0  0
  195.6210  174.0950  136.9780 N   0  0  0  0  0  2  0  0  0  0  0  0
  196.9260  173.4600  136.8340 C   0  0  0  0  0  2  0  0  0  0  0  0
  199.0070  174.6380  136.3860 N   0  0  0  0  0  1  0  0  0  0  0  0
  197.7590  174.1910  135.7950 C   0  0  0  0  0  2  0  0  0  0  0  0
  1  7  1  0  0  0  0
  2  9  1  0  0  0  0
  2 24  1  1  0  0  0
  3 43  1  6  0  0  0
  4 12  1  0  0  0  0
  5  1  2  0  0  0  0
  5  8  1  0  0  0  0
  6 66  1  0  0  0  0
  6  8  1  0  0  0  0
  8 19  2  0  0  0  0
  9 16  1  6  0  0  0
 10  5  1  0  0  0  0
 11 10  1  0  0  0  0
 11 12  1  0  0  0  0
 12  6  2  0  0  0  0
 13 44  1  6  0  0  0
 13 16  1  0  0  0  0
 14 18  1  0  0  0  0
 14 13  1  0  0  0  0
 15 20  1  0  0  0  0
 17  2  1  0  0  0  0
 17  3  1  0  0  0  0
 18  9  1  0  0  0  0
 18  1  1  1  0  0  0
 20 14  1  0  0  0  0
 20 10  2  0  0  0  0
 21  3  1  0  0  0  0
 21  7  1  0  0  0  0
 22 23  2  0  0  0  0
 24 22  2  0  0  0  0
 25 23  1  1  0  0  0
 25 27  1  0  0  0  0
 25 28  1  0  0  0  0
 27 26  1  0  0  0  0
 28 31  1  0  0  0  0
 29 30  1  0  0  0  0
 31 32  1  0  0  0  0
 31 29  1  0  0  0  0
 31 30  1  0  0  0  0
 32 34  1  6  0  0  0
 32 36  1  0  0  0  0
 33 34  1  0  0  0  0
 36 35  1  6  0  0  0
 36 38  1  0  0  0  0
 38 37  1  1  0  0  0
 38 39  1  0  0  0  0
 39 41  1  0  0  0  0
 41 40  1  0  0  0  0
 43 42  2  0  0  0  0
 44 46  1  0  0  0  0
 46 47  1  0  0  0  0
 46 45  1  1  0  0  0
 48 49  1  1  0  0  0
 48 47  1  0  0  0  0
 50 59  1  0  0  0  0
 51 58  1  0  0  0  0
 52 58  1  0  0  0  0
 52 57  1  1  0  0  0
 53 48  1  6  0  0  0
 53 55  1  0  0  0  0
 54 50  1  0  0  0  0
 55 57  1  0  0  0  0
 56 54  1  6  0  0  0
 56 53  1  0  0  0  0
 56 52  1  0  0  0  0
 58 60  1  6  0  0  0
 59 51  1  0  0  0  0
 61 60  1  0  0  0  0
 61 62  1  0  0  0  0
 63 65  2  0  0  0  0
 65 62  1  0  0  0  0
 65 64  1  0  0  0  0
 67 66  1  0  0  0  0
 69 68  1  0  0  0  0
 69 67  1  0  0  0  0
M  END
>  <MODEL>
7

>  <REMARK>
 VINA RESULT:      -3.7      2.881      8.074
  Name = 
  24 active torsions:
  status: ('A' for Active; 'I' for Inactive)
    1  A    between atoms: C_3  and  C_53
    2  A    between atoms: C_5  and  C_13
    3  A    between atoms: C_7  and  C_43
    4  A    between atoms: C_7  and  C_67
    5  A    between atoms: C_11  and  N_26
    6  A    between atoms: C_21  and  C_43
    7  A    between atoms: N_26  and  C_27
    8  A    between atoms: C_27  and  C_48
    9  A    between atoms: C_28  and  C_41
   10  A    between atoms: C_30  and  C_35
   11  A    between atoms: C_30  and  C_38
   12  A    between atoms: C_32  and  C_44
   13  A    between atoms: C_32  and  C_55
   14  A    between atoms: C_33  and  C_35
   15  A    between atoms: C_33  and  C_41
   16  A    between atoms: C_37  and  O_40
   17  A    between atoms: C_37  and  C_66
   18  A    between atoms: C_37  and  C_67
   19  A    between atoms: C_43  and  C_65
   20  A    between atoms: C_44  and  C_51
   21  A    between atoms: C_51  and  C_62
   22  A    between atoms: C_59  and  C_60
   23  A    between atoms: C_59  and  C_66
   24  A    between atoms: C_60  and  C_69
                            x       y       z     vdW  Elec       q    Type
                         _______ _______ _______ _____ _____    ______ ____

>  <TORSDO>
F 24

$$$$
