=
 OpenBabel10232412473D

 40 42  0  0  1  0  0  0  0  0999 V2000
  183.2440  178.1890  138.2850 C   0  0  0  0  0  0  0  0  0  0  0  0
  182.3220  179.1140  137.5660 C   0  0  2  0  0  3  0  0  0  0  0  0
  183.2530  178.9550  139.4520 C   0  0  0  0  0  0  0  0  0  0  0  0
  182.2680  180.3170  138.7670 S   0  0  0  0  0  0  0  0  0  0  0  0
  185.1680  178.5180  143.2470 C   0  0  0  0  0  0  0  0  0  0  0  0
  185.9180  178.6790  142.0760 C   0  0  0  0  0  3  0  0  0  0  0  0
  181.6260  178.7140  141.9440 C   0  0  0  0  0  1  0  0  0  0  0  0
  183.8770  178.7910  140.7700 C   0  0  0  0  0  0  0  0  0  0  0  0
  183.7730  178.5200  143.1800 C   0  0  0  0  0  3  0  0  0  0  0  0
  183.1180  178.6540  141.9520 C   0  0  0  0  0  0  0  0  0  0  0  0
  185.2730  178.8210  140.8470 C   0  0  0  0  0  3  0  0  0  0  0  0
  185.8100  178.3660  144.5130 N   0  0  0  0  0  0  0  0  0  0  0  0
  189.6800  176.8530  147.3080 C   0  0  1  0  0  3  0  0  0  0  0  0
  187.1350  177.9150  144.6070 N   0  0  0  0  0  0  0  0  0  0  0  0
  191.1720  176.5810  147.3730 C   0  0  0  0  0  1  0  0  0  0  0  0
  189.2740  177.9430  148.2830 C   0  0  0  0  0  2  0  0  0  0  0  0
  187.1950  178.1540  146.9580 N   0  0  0  0  0  0  0  0  0  0  0  0
  189.1850  177.1810  145.8860 C   0  0  1  0  0  3  0  0  0  0  0  0
  187.7510  177.9970  148.3070 C   0  0  0  0  0  2  0  0  0  0  0  0
  187.7800  177.7430  145.8680 C   0  0  0  0  0  0  0  0  0  0  0  0
  190.5980  177.3440  144.0750 O   0  0  0  0  0  1  0  0  0  0  0  0
  190.1120  178.0390  145.1380 N   0  0  0  0  0  2  0  0  0  0  0  0
  183.1200  175.3830  138.1440 Cl  0  0  0  0  0  0  0  0  0  0  0  0
  186.8440  176.1120  135.9990 C   0  0  0  0  0  1  0  0  0  0  0  0
  186.3800  177.0080  137.0970 C   0  0  0  0  0  0  0  0  0  0  0  0
  185.1330  176.9590  137.4720 C   0  0  0  0  0  0  0  0  0  0  0  0
  183.8930  176.9340  137.8710 C   0  0  0  0  0  0  0  0  0  0  0  0
  187.1330  179.2790  137.1660 O   0  0  0  0  0  1  0  0  0  0  0  0
  187.2930  178.0130  137.7370 C   0  0  2  0  0  3  0  0  0  0  0  0
  188.7450  177.5640  137.5960 C   0  0  0  0  0  2  0  0  0  0  0  0
  189.5680  177.7140  139.9660 C   0  0  0  0  0  1  0  0  0  0  0  0
  189.2450  176.7810  138.8120 C   0  0  2  0  0  3  0  0  0  0  0  0
  190.3630  176.0010  138.4910 O   0  0  0  0  0  0  0  0  0  0  0  0
  191.1130  176.7880  137.6130 C   0  0  0  0  0  2  0  0  0  0  0  0
  192.4990  174.7400  137.6560 C   0  0  0  0  0  1  0  0  0  0  0  0
  192.5290  176.2480  137.5230 C   0  0  2  0  0  3  0  0  0  0  0  0
  193.3040  176.7870  138.5510 O   0  0  0  0  0  1  0  0  0  0  0  0
  180.9650  178.5000  137.3710 C   0  0  0  0  0  0  0  0  0  0  0  0
  180.3090  178.7650  136.3280 O   0  0  0  0  0  0  0  0  0  0  0  0
  180.4210  177.6540  138.3300 O   0  0  0  0  0  1  0  0  0  0  0  0
  1  3  2  0  0  0  0
  2 38  1  1  0  0  0
  2  1  1  0  0  0  0
  2  4  1  0  0  0  0
  3  8  1  0  0  0  0
  4  3  1  0  0  0  0
  5 12  1  0  0  0  0
  6  5  2  0  0  0  0
  7 10  1  0  0  0  0
  8 11  2  0  0  0  0
  8 10  1  0  0  0  0
  9  5  1  0  0  0  0
 10  9  2  0  0  0  0
 11  6  1  0  0  0  0
 12 14  2  0  0  0  0
 13 15  1  6  0  0  0
 13 16  1  0  0  0  0
 14 20  1  0  0  0  0
 16 19  1  0  0  0  0
 17 19  1  0  0  0  0
 18 22  1  1  0  0  0
 18 13  1  0  0  0  0
 20 18  1  0  0  0  0
 20 17  2  0  0  0  0
 21 22  1  0  0  0  0
 24 25  1  0  0  0  0
 25 26  2  0  0  0  0
 25 29  1  0  0  0  0
 26 27  2  0  0  0  0
 27 23  1  0  0  0  0
 27  1  1  0  0  0  0
 29 28  1  6  0  0  0
 30 29  1  0  0  0  0
 30 32  1  0  0  0  0
 32 31  1  1  0  0  0
 33 32  1  0  0  0  0
 34 33  1  0  0  0  0
 36 34  1  0  0  0  0
 36 35  1  1  0  0  0
 36 37  1  0  0  0  0
 38 40  1  0  0  0  0
 39 38  2  0  0  0  0
M  END
>  <MODEL>
1

>  <REMARK>
 VINA RESULT:      -8.0      0.000      0.000
  Name = 
  12 active torsions:
  status: ('A' for Active; 'I' for Inactive)
    1  A    between atoms: C_2  and  C_29
    2  A    between atoms: C_5  and  N_22
    3  A    between atoms: N_8  and  N_22
    4  A    between atoms: C_9  and  C_34
    5  A    between atoms: C_9  and  C_35
    6  A    between atoms: C_15  and  C_30
    7  A    between atoms: C_16  and  C_32
    8  A    between atoms: O_18  and  C_34
    9  A    between atoms: O_18  and  C_37
   10  A    between atoms: C_21  and  C_37
   11  A    between atoms: C_23  and  N_39
   12  A    between atoms: C_24  and  C_35
                            x       y       z     vdW  Elec       q    Type
                         _______ _______ _______ _____ _____    ______ ____

>  <TORSDO>
F 12

$$$$
=
 OpenBabel10232412473D

 40 42  0  0  1  0  0  0  0  0999 V2000
  190.4230  176.7710  139.3070 C   0  0  0  0  0  0  0  0  0  0  0  0
  188.9340  176.8590  139.3360 C   0  0  2  0  0  3  0  0  0  0  0  0
  190.4500  176.0620  138.1060 C   0  0  0  0  0  0  0  0  0  0  0  0
  188.6500  175.8800  137.9750 S   0  0  0  0  0  0  0  0  0  0  0  0
  193.6150  174.5190  135.6820 C   0  0  0  0  0  0  0  0  0  0  0  0
  193.5050  174.1700  137.0330 C   0  0  0  0  0  3  0  0  0  0  0  0
  190.5990  176.7450  135.2030 C   0  0  0  0  0  1  0  0  0  0  0  0
  191.5300  175.5600  137.2470 C   0  0  0  0  0  0  0  0  0  0  0  0
  192.6650  175.3690  135.1100 C   0  0  0  0  0  3  0  0  0  0  0  0
  191.6230  175.8950  135.8790 C   0  0  0  0  0  0  0  0  0  0  0  0
  192.4640  174.6830  137.8070 C   0  0  0  0  0  3  0  0  0  0  0  0
  194.6760  174.0080  134.8770 N   0  0  0  0  0  2  0  0  0  0  0  0
  198.8290  171.6500  136.3840 C   0  0  1  0  0  3  0  0  0  0  0  0
  196.0080  174.0580  135.3120 N   0  0  0  0  0  2  0  0  0  0  0  0
  200.1850  171.7680  137.0550 C   0  0  0  0  0  1  0  0  0  0  0  0
  197.9050  170.7320  137.1630 C   0  0  0  0  0  2  0  0  0  0  0  0
  196.0460  171.7690  135.9030 N   0  0  0  0  0  0  0  0  0  0  0  0
  198.1560  173.0140  136.1330 C   0  0  1  0  0  3  0  0  0  0  0  0
  196.6600  170.5020  136.3150 C   0  0  0  0  0  2  0  0  0  0  0  0
  196.6980  172.8880  135.7510 C   0  0  0  0  0  0  0  0  0  0  0  0
  198.8270  175.1280  136.7520 O   0  0  0  0  0  1  0  0  0  0  0  0
  198.3380  173.9580  137.2420 N   0  0  0  0  0  2  0  0  0  0  0  0
  193.1140  177.4740  139.7200 Cl  0  0  0  0  0  0  0  0  0  0  0  0
  191.4200  178.5500  143.5890 C   0  0  0  0  0  1  0  0  0  0  0  0
  190.8670  177.4330  142.7720 C   0  0  0  0  0  0  0  0  0  0  0  0
  191.1690  177.3630  141.5060 C   0  0  0  0  0  0  0  0  0  0  0  0
  191.4510  177.2640  140.2380 C   0  0  0  0  0  0  0  0  0  0  0  0
  190.1930  175.1380  142.8710 O   0  0  0  0  0  1  0  0  0  0  0  0
  189.9190  176.4230  143.3500 C   0  0  2  0  0  3  0  0  0  0  0  0
  188.4800  176.8030  143.0090 C   0  0  0  0  0  2  0  0  0  0  0  0
  186.3050  177.7310  143.8580 C   0  0  0  0  0  1  0  0  0  0  0  0
  187.6400  177.1220  144.2470 C   0  0  2  0  0  3  0  0  0  0  0  0
  188.3250  177.9750  145.1220 O   0  0  0  0  0  0  0  0  0  0  0  0
  187.9560  177.5530  146.4020 C   0  0  0  0  0  2  0  0  0  0  0  0
  190.1570  176.7910  147.2320 C   0  0  0  0  0  1  0  0  0  0  0  0
  189.0780  177.8430  147.3810 C   0  0  2  0  0  3  0  0  0  0  0  0
  188.5840  177.8150  148.6860 O   0  0  0  0  0  1  0  0  0  0  0  0
  188.4590  178.2620  139.0870 C   0  0  0  0  0  0  0  0  0  0  0  0
  189.1080  179.0080  138.3070 O   0  0  0  0  0  0  0  0  0  0  0  0
  187.3190  178.7500  139.7160 O   0  0  0  0  0  1  0  0  0  0  0  0
  1  2  1  0  0  0  0
  1 27  1  0  0  0  0
  2 38  1  6  0  0  0
  3  1  2  0  0  0  0
  4  3  1  0  0  0  0
  4  2  1  0  0  0  0
  5  6  1  0  0  0  0
  6 11  2  0  0  0  0
  7 10  1  0  0  0  0
  8 11  1  0  0  0  0
  8  3  1  0  0  0  0
  9  5  2  0  0  0  0
  9 10  1  0  0  0  0
 10  8  2  0  0  0  0
 12 14  1  0  0  0  0
 12  5  1  0  0  0  0
 13 15  1  1  0  0  0
 13 16  1  0  0  0  0
 14 20  1  0  0  0  0
 17 19  1  0  0  0  0
 18 13  1  0  0  0  0
 18 22  1  1  0  0  0
 19 16  1  0  0  0  0
 20 17  2  0  0  0  0
 20 18  1  0  0  0  0
 21 22  1  0  0  0  0
 23 27  1  0  0  0  0
 25 29  1  0  0  0  0
 25 24  1  0  0  0  0
 26 25  2  0  0  0  0
 27 26  2  0  0  0  0
 29 28  1  6  0  0  0
 30 29  1  0  0  0  0
 30 32  1  0  0  0  0
 32 31  1  6  0  0  0
 32 33  1  0  0  0  0
 33 34  1  0  0  0  0
 34 36  1  0  0  0  0
 36 35  1  1  0  0  0
 36 37  1  0  0  0  0
 38 40  1  0  0  0  0
 39 38  2  0  0  0  0
M  END
>  <MODEL>
2

>  <REMARK>
 VINA RESULT:      -6.9      5.838     10.617
  Name = 
  12 active torsions:
  status: ('A' for Active; 'I' for Inactive)
    1  A    between atoms: C_2  and  C_29
    2  A    between atoms: C_5  and  N_22
    3  A    between atoms: N_8  and  N_22
    4  A    between atoms: C_9  and  C_34
    5  A    between atoms: C_9  and  C_35
    6  A    between atoms: C_15  and  C_30
    7  A    between atoms: C_16  and  C_32
    8  A    between atoms: O_18  and  C_34
    9  A    between atoms: O_18  and  C_37
   10  A    between atoms: C_21  and  C_37
   11  A    between atoms: C_23  and  N_39
   12  A    between atoms: C_24  and  C_35
                            x       y       z     vdW  Elec       q    Type
                         _______ _______ _______ _____ _____    ______ ____

>  <TORSDO>
F 12

$$$$
=
 OpenBabel10232412473D

 40 42  0  0  1  0  0  0  0  0999 V2000
  189.7140  177.6250  145.6130 C   0  0  0  0  0  0  0  0  0  0  0  0
  190.1060  176.7660  146.7680 C   0  0  2  0  0  3  0  0  0  0  0  0
  188.3470  177.4560  145.8320 C   0  0  0  0  0  0  0  0  0  0  0  0
  188.5380  176.2510  147.1750 S   0  0  0  0  0  0  0  0  0  0  0  0
  184.8530  178.9420  143.8690 C   0  0  0  0  0  0  0  0  0  0  0  0
  185.8100  178.1960  143.1710 C   0  0  0  0  0  3  0  0  0  0  0  0
  186.2740  178.9570  147.3700 C   0  0  0  0  0  1  0  0  0  0  0  0
  187.1410  177.9910  145.1880 C   0  0  0  0  0  0  0  0  0  0  0  0
  185.0300  179.1890  145.2320 C   0  0  0  0  0  3  0  0  0  0  0  0
  186.1660  178.7210  145.9000 C   0  0  0  0  0  0  0  0  0  0  0  0
  186.9430  177.7190  143.8300 C   0  0  0  0  0  3  0  0  0  0  0  0
  183.6910  179.4430  143.2100 N   0  0  0  0  0  2  0  0  0  0  0  0
  182.6700  177.4690  138.7210 C   0  0  1  0  0  3  0  0  0  0  0  0
  182.8990  178.6140  142.4010 N   0  0  0  0  0  2  0  0  0  0  0  0
  181.6610  176.7410  137.8530 C   0  0  0  0  0  1  0  0  0  0  0  0
  182.9990  178.8390  138.1550 C   0  0  0  0  0  2  0  0  0  0  0  0
  183.8820  179.3960  140.3980 N   0  0  0  0  0  0  0  0  0  0  0  0
  182.2340  177.5800  140.1950 C   0  0  1  0  0  3  0  0  0  0  0  0
  184.1660  179.4020  138.9590 C   0  0  0  0  0  2  0  0  0  0  0  0
  183.0770  178.5550  140.9860 C   0  0  0  0  0  0  0  0  0  0  0  0
  180.2230  176.8500  141.0470 O   0  0  0  0  0  1  0  0  0  0  0  0
  180.8020  177.8640  140.3520 N   0  0  0  0  0  2  0  0  0  0  0  0
  191.1430  179.9610  144.9740 Cl  0  0  0  0  0  0  0  0  0  0  0  0
  191.9270  177.5660  141.4180 C   0  0  0  0  0  1  0  0  0  0  0  0
  190.6590  177.4350  142.1910 C   0  0  0  0  0  0  0  0  0  0  0  0
  190.6050  177.9030  143.4070 C   0  0  0  0  0  0  0  0  0  0  0  0
  190.5180  178.3610  144.6230 C   0  0  0  0  0  0  0  0  0  0  0  0
  189.2570  175.4970  142.2800 O   0  0  0  0  0  1  0  0  0  0  0  0
  189.4620  176.7200  141.6340 C   0  0  2  0  0  3  0  0  0  0  0  0
  189.6440  176.4870  140.1360 C   0  0  0  0  0  2  0  0  0  0  0  0
  187.8600  178.2560  140.0800 C   0  0  0  0  0  1  0  0  0  0  0  0
  188.9350  177.5390  139.2810 C   0  0  2  0  0  3  0  0  0  0  0  0
  188.3830  176.9700  138.1270 O   0  0  0  0  0  0  0  0  0  0  0  0
  187.1590  177.6230  137.9520 C   0  0  0  0  0  2  0  0  0  0  0  0
  188.1440  177.7030  135.6850 C   0  0  0  0  0  1  0  0  0  0  0  0
  187.1570  178.3610  136.6260 C   0  0  2  0  0  3  0  0  0  0  0  0
  187.5290  179.6910  136.8270 O   0  0  0  0  0  1  0  0  0  0  0  0
  190.7030  177.5760  147.8820 C   0  0  0  0  0  0  0  0  0  0  0  0
  191.9200  177.4300  148.1730 O   0  0  0  0  0  0  0  0  0  0  0  0
  189.9270  178.4770  148.6040 O   0  0  0  0  0  1  0  0  0  0  0  0
  1  3  2  0  0  0  0
  1  2  1  0  0  0  0
  2  4  1  0  0  0  0
  2 38  1  1  0  0  0
  3  4  1  0  0  0  0
  5  9  1  0  0  0  0
  6 11  1  0  0  0  0
  6  5  2  0  0  0  0
  8  3  1  0  0  0  0
  8 10  1  0  0  0  0
  9 10  2  0  0  0  0
 10  7  1  0  0  0  0
 11  8  2  0  0  0  0
 12  5  1  0  0  0  0
 13 15  1  6  0  0  0
 13 18  1  0  0  0  0
 14 12  1  0  0  0  0
 16 13  1  0  0  0  0
 16 19  1  0  0  0  0
 17 20  2  0  0  0  0
 18 22  1  6  0  0  0
 18 20  1  0  0  0  0
 19 17  1  0  0  0  0
 20 14  1  0  0  0  0
 22 21  1  0  0  0  0
 24 25  1  0  0  0  0
 25 26  2  0  0  0  0
 26 27  2  0  0  0  0
 27 23  1  0  0  0  0
 27  1  1  0  0  0  0
 29 25  1  0  0  0  0
 29 28  1  1  0  0  0
 30 29  1  0  0  0  0
 32 31  1  1  0  0  0
 32 30  1  0  0  0  0
 33 32  1  0  0  0  0
 34 33  1  0  0  0  0
 36 35  1  6  0  0  0
 36 37  1  0  0  0  0
 36 34  1  0  0  0  0
 38 39  2  0  0  0  0
 38 40  1  0  0  0  0
M  END
>  <MODEL>
3

>  <REMARK>
 VINA RESULT:      -6.8      3.595      8.429
  Name = 
  12 active torsions:
  status: ('A' for Active; 'I' for Inactive)
    1  A    between atoms: C_2  and  C_29
    2  A    between atoms: C_5  and  N_22
    3  A    between atoms: N_8  and  N_22
    4  A    between atoms: C_9  and  C_34
    5  A    between atoms: C_9  and  C_35
    6  A    between atoms: C_15  and  C_30
    7  A    between atoms: C_16  and  C_32
    8  A    between atoms: O_18  and  C_34
    9  A    between atoms: O_18  and  C_37
   10  A    between atoms: C_21  and  C_37
   11  A    between atoms: C_23  and  N_39
   12  A    between atoms: C_24  and  C_35
                            x       y       z     vdW  Elec       q    Type
                         _______ _______ _______ _____ _____    ______ ____

>  <TORSDO>
F 12

$$$$
=
 OpenBabel10232412473D

 40 42  0  0  1  0  0  0  0  0999 V2000
  189.6190  175.4250  136.1300 C   0  0  0  0  0  0  0  0  0  0  0  0
  189.1680  176.1490  134.9070 C   0  0  2  0  0  3  0  0  0  0  0  0
  189.7170  176.5880  136.8950 C   0  0  0  0  0  0  0  0  0  0  0  0
  189.3490  177.7220  135.5270 S   0  0  0  0  0  0  0  0  0  0  0  0
  190.6050  177.3440  141.0070 C   0  0  0  0  0  0  0  0  0  0  0  0
  189.2820  177.2990  140.5510 C   0  0  0  0  0  3  0  0  0  0  0  0
  192.5440  176.5760  137.8560 C   0  0  0  0  0  1  0  0  0  0  0  0
  190.0590  176.8560  138.2970 C   0  0  0  0  0  0  0  0  0  0  0  0
  191.6520  177.1180  140.1100 C   0  0  0  0  0  3  0  0  0  0  0  0
  191.3930  176.8750  138.7580 C   0  0  0  0  0  0  0  0  0  0  0  0
  189.0130  177.0500  139.2050 C   0  0  0  0  0  3  0  0  0  0  0  0
  190.8990  177.6030  142.3790 N   0  0  0  0  0  2  0  0  0  0  0  0
  189.3360  177.8510  147.1310 C   0  0  1  0  0  3  0  0  0  0  0  0
  189.8770  177.8480  143.3080 N   0  0  0  0  0  2  0  0  0  0  0  0
  188.1520  177.9110  148.0780 C   0  0  0  0  0  1  0  0  0  0  0  0
  190.1670  176.6020  147.3650 C   0  0  0  0  0  2  0  0  0  0  0  0
  191.1340  176.9990  145.1220 N   0  0  0  0  0  0  0  0  0  0  0  0
  188.9330  177.9670  145.6470 C   0  0  1  0  0  3  0  0  0  0  0  0
  191.4380  176.7310  146.5320 C   0  0  0  0  0  2  0  0  0  0  0  0
  190.0580  177.6050  144.7030 C   0  0  0  0  0  0  0  0  0  0  0  0
  187.0040  177.9210  144.3920 O   0  0  0  0  0  1  0  0  0  0  0  0
  187.7070  177.2270  145.3250 N   0  0  0  0  0  2  0  0  0  0  0  0
  188.7550  173.0500  137.3630 Cl  0  0  0  0  0  0  0  0  0  0  0  0
  192.2500  171.5880  135.2080 C   0  0  0  0  0  1  0  0  0  0  0  0
  192.1720  172.9840  135.7250 C   0  0  0  0  0  0  0  0  0  0  0  0
  191.0100  173.4760  136.0520 C   0  0  0  0  0  0  0  0  0  0  0  0
  189.8640  173.9960  136.3880 C   0  0  0  0  0  0  0  0  0  0  0  0
  193.3320  174.9000  134.8790 O   0  0  0  0  0  1  0  0  0  0  0  0
  193.3850  173.8640  135.8160 C   0  0  2  0  0  3  0  0  0  0  0  0
  194.6480  173.0360  135.5970 C   0  0  0  0  0  2  0  0  0  0  0  0
  195.2830  171.6330  137.5830 C   0  0  0  0  0  1  0  0  0  0  0  0
  195.5210  172.9410  136.8500 C   0  0  2  0  0  3  0  0  0  0  0  0
  195.2990  174.0250  137.7100 O   0  0  0  0  0  0  0  0  0  0  0  0
  196.5560  174.3310  138.2390 C   0  0  0  0  0  2  0  0  0  0  0  0
  198.9220  174.0050  137.5960 C   0  0  0  0  0  1  0  0  0  0  0  0
  197.5640  174.4710  137.1130 C   0  0  2  0  0  3  0  0  0  0  0  0
  197.6490  175.8070  136.7200 O   0  0  0  0  0  1  0  0  0  0  0  0
  187.7260  175.8660  134.5960 C   0  0  0  0  0  0  0  0  0  0  0  0
  187.3660  174.6840  134.3460 O   0  0  0  0  0  0  0  0  0  0  0  0
  186.7870  176.8910  134.5700 O   0  0  0  0  0  1  0  0  0  0  0  0
  1 27  1  0  0  0  0
  1  3  2  0  0  0  0
  2 38  1  1  0  0  0
  2  4  1  0  0  0  0
  2  1  1  0  0  0  0
  3  8  1  0  0  0  0
  4  3  1  0  0  0  0
  5 12  1  0  0  0  0
  6  5  1  0  0  0  0
  7 10  1  0  0  0  0
  8 10  2  0  0  0  0
  8 11  1  0  0  0  0
  9  5  2  0  0  0  0
 10  9  1  0  0  0  0
 11  6  2  0  0  0  0
 12 14  1  0  0  0  0
 13 16  1  0  0  0  0
 13 15  1  1  0  0  0
 14 20  1  0  0  0  0
 17 19  1  0  0  0  0
 18 22  1  1  0  0  0
 18 13  1  0  0  0  0
 19 16  1  0  0  0  0
 20 17  2  0  0  0  0
 20 18  1  0  0  0  0
 21 22  1  0  0  0  0
 24 25  1  0  0  0  0
 25 29  1  0  0  0  0
 25 26  2  0  0  0  0
 26 27  2  0  0  0  0
 27 23  1  0  0  0  0
 29 28  1  6  0  0  0
 30 29  1  0  0  0  0
 30 32  1  0  0  0  0
 32 31  1  1  0  0  0
 32 33  1  0  0  0  0
 33 34  1  0  0  0  0
 36 35  1  1  0  0  0
 36 34  1  0  0  0  0
 37 36  1  0  0  0  0
 39 38  2  0  0  0  0
 40 38  1  0  0  0  0
M  END
>  <MODEL>
4

>  <REMARK>
 VINA RESULT:      -6.7      4.363      6.456
  Name = 
  12 active torsions:
  status: ('A' for Active; 'I' for Inactive)
    1  A    between atoms: C_2  and  C_29
    2  A    between atoms: C_5  and  N_22
    3  A    between atoms: N_8  and  N_22
    4  A    between atoms: C_9  and  C_34
    5  A    between atoms: C_9  and  C_35
    6  A    between atoms: C_15  and  C_30
    7  A    between atoms: C_16  and  C_32
    8  A    between atoms: O_18  and  C_34
    9  A    between atoms: O_18  and  C_37
   10  A    between atoms: C_21  and  C_37
   11  A    between atoms: C_23  and  N_39
   12  A    between atoms: C_24  and  C_35
                            x       y       z     vdW  Elec       q    Type
                         _______ _______ _______ _____ _____    ______ ____

>  <TORSDO>
F 12

$$$$
=
 OpenBabel10232412473D

 40 42  0  0  1  0  0  0  0  0999 V2000
  189.8250  177.6430  145.6170 C   0  0  0  0  0  0  0  0  0  0  0  0
  190.1740  176.8320  146.8200 C   0  0  2  0  0  3  0  0  0  0  0  0
  188.4560  177.3980  145.7350 C   0  0  0  0  0  0  0  0  0  0  0  0
  188.6110  176.2340  147.1180 S   0  0  0  0  0  0  0  0  0  0  0  0
  185.0470  178.6340  143.4730 C   0  0  0  0  0  0  0  0  0  0  0  0
  186.0980  177.9330  142.8690 C   0  0  0  0  0  3  0  0  0  0  0  0
  186.1860  178.8030  147.0720 C   0  0  0  0  0  1  0  0  0  0  0  0
  187.2760  177.8470  144.9870 C   0  0  0  0  0  0  0  0  0  0  0  0
  185.1020  178.9170  144.8390 C   0  0  0  0  0  3  0  0  0  0  0  0
  186.2080  178.5320  145.6040 C   0  0  0  0  0  0  0  0  0  0  0  0
  187.2020  177.5370  143.6250 C   0  0  0  0  0  3  0  0  0  0  0  0
  183.9140  179.0510  142.7140 N   0  0  0  0  0  2  0  0  0  0  0  0
  181.6710  178.5500  138.2640 C   0  0  1  0  0  3  0  0  0  0  0  0
  183.9640  179.1320  141.3150 N   0  0  0  0  0  2  0  0  0  0  0  0
  181.8400  178.4420  136.7600 C   0  0  0  0  0  1  0  0  0  0  0  0
  181.0320  177.2990  138.8390 C   0  0  0  0  0  2  0  0  0  0  0  0
  181.8810  178.0480  141.0380 N   0  0  0  0  0  0  0  0  0  0  0  0
  182.9840  178.8790  139.0010 C   0  0  1  0  0  3  0  0  0  0  0  0
  180.7030  177.5780  140.3010 C   0  0  0  0  0  2  0  0  0  0  0  0
  182.8810  178.6870  140.4980 C   0  0  0  0  0  0  0  0  0  0  0  0
  185.2160  179.0070  138.4500 O   0  0  0  0  0  1  0  0  0  0  0  0
  184.1450  178.1700  138.4510 N   0  0  0  0  0  2  0  0  0  0  0  0
  191.1700  180.0420  145.0340 Cl  0  0  0  0  0  0  0  0  0  0  0  0
  192.3470  177.6300  141.6010 C   0  0  0  0  0  1  0  0  0  0  0  0
  191.0330  177.4420  142.2800 C   0  0  0  0  0  0  0  0  0  0  0  0
  190.8630  177.9290  143.4770 C   0  0  0  0  0  0  0  0  0  0  0  0
  190.6600  178.4030  144.6730 C   0  0  0  0  0  0  0  0  0  0  0  0
  189.7940  175.3950  142.2500 O   0  0  0  0  0  1  0  0  0  0  0  0
  189.9230  176.6520  141.6520 C   0  0  2  0  0  3  0  0  0  0  0  0
  190.1810  176.4870  140.1560 C   0  0  0  0  0  2  0  0  0  0  0  0
  188.3930  178.2360  139.9160 C   0  0  0  0  0  1  0  0  0  0  0  0
  189.6770  177.6730  139.3320 C   0  0  2  0  0  3  0  0  0  0  0  0
  189.4840  177.3170  137.9910 O   0  0  0  0  0  0  0  0  0  0  0  0
  188.2800  176.6070  137.9750 C   0  0  0  0  0  2  0  0  0  0  0  0
  187.6460  178.1500  136.1490 C   0  0  0  0  0  1  0  0  0  0  0  0
  187.6470  176.7040  136.5990 C   0  0  2  0  0  3  0  0  0  0  0  0
  186.3340  176.2350  136.6500 O   0  0  0  0  0  1  0  0  0  0  0  0
  190.6350  177.7000  147.9560 C   0  0  0  0  0  0  0  0  0  0  0  0
  189.8080  178.4540  148.5350 O   0  0  0  0  0  1  0  0  0  0  0  0
  191.9620  177.6890  148.3690 O   0  0  0  0  0  0  0  0  0  0  0  0
  1  3  2  0  0  0  0
  1  2  1  0  0  0  0
  2  4  1  0  0  0  0
  2 38  1  1  0  0  0
  3  4  1  0  0  0  0
  5  9  1  0  0  0  0
  6  5  2  0  0  0  0
  6 11  1  0  0  0  0
  8 10  1  0  0  0  0
  8  3  1  0  0  0  0
  9 10  2  0  0  0  0
 10  7  1  0  0  0  0
 11  8  2  0  0  0  0
 12  5  1  0  0  0  0
 13 15  1  6  0  0  0
 13 16  1  0  0  0  0
 13 18  1  0  0  0  0
 14 12  1  0  0  0  0
 16 19  1  0  0  0  0
 18 22  1  6  0  0  0
 18 20  1  0  0  0  0
 19 17  1  0  0  0  0
 20 17  2  0  0  0  0
 20 14  1  0  0  0  0
 21 22  1  0  0  0  0
 24 25  1  0  0  0  0
 25 26  2  0  0  0  0
 26 27  2  0  0  0  0
 27 23  1  0  0  0  0
 27  1  1  0  0  0  0
 29 28  1  1  0  0  0
 29 25  1  0  0  0  0
 30 29  1  0  0  0  0
 32 31  1  1  0  0  0
 32 30  1  0  0  0  0
 33 32  1  0  0  0  0
 34 33  1  0  0  0  0
 36 35  1  1  0  0  0
 36 37  1  0  0  0  0
 36 34  1  0  0  0  0
 38 40  2  0  0  0  0
 38 39  1  0  0  0  0
M  END
>  <MODEL>
5

>  <REMARK>
 VINA RESULT:      -6.5      3.628      8.468
  Name = 
  12 active torsions:
  status: ('A' for Active; 'I' for Inactive)
    1  A    between atoms: C_2  and  C_29
    2  A    between atoms: C_5  and  N_22
    3  A    between atoms: N_8  and  N_22
    4  A    between atoms: C_9  and  C_34
    5  A    between atoms: C_9  and  C_35
    6  A    between atoms: C_15  and  C_30
    7  A    between atoms: C_16  and  C_32
    8  A    between atoms: O_18  and  C_34
    9  A    between atoms: O_18  and  C_37
   10  A    between atoms: C_21  and  C_37
   11  A    between atoms: C_23  and  N_39
   12  A    between atoms: C_24  and  C_35
                            x       y       z     vdW  Elec       q    Type
                         _______ _______ _______ _____ _____    ______ ____

>  <TORSDO>
F 12

$$$$
=
 OpenBabel10232412473D

 40 42  0  0  1  0  0  0  0  0999 V2000
  188.7680  176.1570  137.5570 C   0  0  0  0  0  0  0  0  0  0  0  0
  187.7530  175.0830  137.3550 C   0  0  2  0  0  3  0  0  0  0  0  0
  189.8180  175.3870  137.0570 C   0  0  0  0  0  0  0  0  0  0  0  0
  188.8390  173.8720  136.8610 S   0  0  0  0  0  0  0  0  0  0  0  0
  193.9920  176.0870  136.4590 C   0  0  0  0  0  0  0  0  0  0  0  0
  193.4960  175.7140  137.7140 C   0  0  0  0  0  3  0  0  0  0  0  0
  190.8590  176.0820  134.3460 C   0  0  0  0  0  1  0  0  0  0  0  0
  191.2440  175.6460  136.8180 C   0  0  0  0  0  0  0  0  0  0  0  0
  193.1140  176.2120  135.3790 C   0  0  0  0  0  3  0  0  0  0  0  0
  191.7430  175.9970  135.5460 C   0  0  0  0  0  0  0  0  0  0  0  0
  192.1300  175.4890  137.8890 C   0  0  0  0  0  3  0  0  0  0  0  0
  195.3850  176.3260  136.2630 N   0  0  0  0  0  2  0  0  0  0  0  0
  199.0220  172.9540  136.9580 C   0  0  1  0  0  3  0  0  0  0  0  0
  196.2290  175.3300  135.7500 N   0  0  0  0  0  2  0  0  0  0  0  0
  200.0550  172.0470  136.3140 C   0  0  0  0  0  1  0  0  0  0  0  0
  199.6780  173.9920  137.8500 C   0  0  0  0  0  2  0  0  0  0  0  0
  197.5500  175.2470  137.7090 N   0  0  0  0  0  0  0  0  0  0  0  0
  198.0850  173.6270  135.9360 C   0  0  1  0  0  3  0  0  0  0  0  0
  198.5710  174.7080  138.6150 C   0  0  0  0  0  2  0  0  0  0  0  0
  197.2670  174.7480  136.5390 C   0  0  0  0  0  0  0  0  0  0  0  0
  199.3210  175.2950  134.9400 O   0  0  0  0  0  1  0  0  0  0  0  0
  198.7800  174.0680  134.7210 N   0  0  0  0  0  2  0  0  0  0  0  0
  188.5320  178.9100  137.0350 Cl  0  0  0  0  0  0  0  0  0  0  0  0
  188.2520  178.9110  141.3840 C   0  0  0  0  0  1  0  0  0  0  0  0
  189.0520  177.8910  140.6480 C   0  0  0  0  0  0  0  0  0  0  0  0
  188.8410  177.7180  139.3730 C   0  0  0  0  0  0  0  0  0  0  0  0
  188.6550  177.5210  138.0990 C   0  0  0  0  0  0  0  0  0  0  0  0
  190.3450  175.8780  140.5810 O   0  0  0  0  0  1  0  0  0  0  0  0
  190.0470  177.0100  141.3460 C   0  0  2  0  0  3  0  0  0  0  0  0
  189.5020  176.5840  142.7060 C   0  0  0  0  0  2  0  0  0  0  0  0
  191.6020  175.7400  143.7990 C   0  0  0  0  0  1  0  0  0  0  0  0
  190.5070  176.7920  143.8410 C   0  0  2  0  0  3  0  0  0  0  0  0
  189.8760  176.7840  145.0900 O   0  0  0  0  0  0  0  0  0  0  0  0
  189.2490  178.0300  145.1870 C   0  0  0  0  0  2  0  0  0  0  0  0
  188.3920  177.2770  147.3820 C   0  0  0  0  0  1  0  0  0  0  0  0
  188.0140  177.9150  146.0610 C   0  0  2  0  0  3  0  0  0  0  0  0
  187.0570  177.1240  145.4240 O   0  0  0  0  0  1  0  0  0  0  0  0
  186.8000  175.4240  136.2450 C   0  0  0  0  0  0  0  0  0  0  0  0
  185.7930  176.1390  136.4910 O   0  0  0  0  0  1  0  0  0  0  0  0
  187.0100  174.9520  134.9550 O   0  0  0  0  0  0  0  0  0  0  0  0
  1 27  1  0  0  0  0
  2 38  1  6  0  0  0
  2  1  1  0  0  0  0
  3  1  2  0  0  0  0
  4  3  1  0  0  0  0
  4  2  1  0  0  0  0
  5  6  1  0  0  0  0
  6 11  2  0  0  0  0
  7 10  1  0  0  0  0
  8  3  1  0  0  0  0
  8 11  1  0  0  0  0
  9 10  1  0  0  0  0
  9  5  2  0  0  0  0
 10  8  2  0  0  0  0
 12  5  1  0  0  0  0
 13 15  1  6  0  0  0
 13 16  1  0  0  0  0
 14 12  1  0  0  0  0
 14 20  1  0  0  0  0
 16 19  1  0  0  0  0
 17 19  1  0  0  0  0
 18 22  1  6  0  0  0
 18 20  1  0  0  0  0
 18 13  1  0  0  0  0
 20 17  2  0  0  0  0
 22 21  1  0  0  0  0
 23 27  1  0  0  0  0
 25 29  1  0  0  0  0
 25 24  1  0  0  0  0
 26 25  2  0  0  0  0
 27 26  2  0  0  0  0
 29 28  1  6  0  0  0
 29 30  1  0  0  0  0
 30 32  1  0  0  0  0
 32 31  1  1  0  0  0
 32 33  1  0  0  0  0
 33 34  1  0  0  0  0
 34 36  1  0  0  0  0
 36 35  1  1  0  0  0
 37 36  1  0  0  0  0
 38 39  1  0  0  0  0
 40 38  2  0  0  0  0
M  END
>  <MODEL>
6

>  <REMARK>
 VINA RESULT:      -6.4      5.376     10.005
  Name = 
  12 active torsions:
  status: ('A' for Active; 'I' for Inactive)
    1  A    between atoms: C_2  and  C_29
    2  A    between atoms: C_5  and  N_22
    3  A    between atoms: N_8  and  N_22
    4  A    between atoms: C_9  and  C_34
    5  A    between atoms: C_9  and  C_35
    6  A    between atoms: C_15  and  C_30
    7  A    between atoms: C_16  and  C_32
    8  A    between atoms: O_18  and  C_34
    9  A    between atoms: O_18  and  C_37
   10  A    between atoms: C_21  and  C_37
   11  A    between atoms: C_23  and  N_39
   12  A    between atoms: C_24  and  C_35
                            x       y       z     vdW  Elec       q    Type
                         _______ _______ _______ _____ _____    ______ ____

>  <TORSDO>
F 12

$$$$
=
 OpenBabel10232412473D

 40 42  0  0  1  0  0  0  0  0999 V2000
  188.4580  177.8670  139.4960 C   0  0  0  0  0  0  0  0  0  0  0  0
  189.8660  178.1340  139.0840 C   0  0  2  0  0  3  0  0  0  0  0  0
  188.0630  177.4670  138.2190 C   0  0  0  0  0  0  0  0  0  0  0  0
  189.6440  177.8620  137.4210 S   0  0  0  0  0  0  0  0  0  0  0  0
  184.3600  176.0970  136.5810 C   0  0  0  0  0  0  0  0  0  0  0  0
  184.4660  177.3670  137.1610 C   0  0  0  0  0  3  0  0  0  0  0  0
  187.8930  174.7940  136.8970 C   0  0  0  0  0  1  0  0  0  0  0  0
  186.8050  176.9600  137.6560 C   0  0  0  0  0  0  0  0  0  0  0  0
  185.4850  175.2710  136.5160 C   0  0  0  0  0  3  0  0  0  0  0  0
  186.7080  175.6890  137.0500 C   0  0  0  0  0  0  0  0  0  0  0  0
  185.6840  177.7960  137.6890 C   0  0  0  0  0  3  0  0  0  0  0  0
  183.1210  175.6400  136.0400 N   0  0  0  0  0  2  0  0  0  0  0  0
  180.4650  171.4000  135.8340 C   0  0  1  0  0  3  0  0  0  0  0  0
  182.9710  174.3250  135.5770 N   0  0  0  0  0  2  0  0  0  0  0  0
  180.4550  169.9210  135.4910 C   0  0  0  0  0  1  0  0  0  0  0  0
  180.1740  171.6270  137.3060 C   0  0  0  0  0  2  0  0  0  0  0  0
  181.1340  173.8870  136.9990 N   0  0  0  0  0  0  0  0  0  0  0  0
  181.7690  172.1090  135.4200 C   0  0  1  0  0  3  0  0  0  0  0  0
  179.9890  173.1260  137.5140 C   0  0  0  0  0  2  0  0  0  0  0  0
  181.9040  173.4890  136.0250 C   0  0  0  0  0  0  0  0  0  0  0  0
  183.3190  171.4130  136.9740 O   0  0  0  0  0  1  0  0  0  0  0  0
  182.9680  171.2990  135.6660 N   0  0  0  0  0  2  0  0  0  0  0  0
  186.5500  179.2290  141.0490 Cl  0  0  0  0  0  0  0  0  0  0  0  0
  187.7410  176.1000  143.8380 C   0  0  0  0  0  1  0  0  0  0  0  0
  188.6880  176.6570  142.8310 C   0  0  0  0  0  0  0  0  0  0  0  0
  188.2150  177.3260  141.8170 C   0  0  0  0  0  0  0  0  0  0  0  0
  187.7740  177.9990  140.7930 C   0  0  0  0  0  0  0  0  0  0  0  0
  190.4750  175.0750  142.6560 O   0  0  0  0  0  1  0  0  0  0  0  0
  190.1670  176.4140  142.9140 C   0  0  2  0  0  3  0  0  0  0  0  0
  190.6820  176.8030  144.2970 C   0  0  0  0  0  2  0  0  0  0  0  0
  191.0780  179.2810  144.1670 C   0  0  0  0  0  1  0  0  0  0  0  0
  190.2000  178.1850  144.7430 C   0  0  2  0  0  3  0  0  0  0  0  0
  190.1560  178.2830  146.1400 O   0  0  0  0  0  0  0  0  0  0  0  0
  189.5060  177.1210  146.5640 C   0  0  0  0  0  2  0  0  0  0  0  0
  187.2520  178.0350  147.0110 C   0  0  0  0  0  1  0  0  0  0  0  0
  188.5010  177.4640  147.6480 C   0  0  2  0  0  3  0  0  0  0  0  0
  189.0490  178.4080  148.5180 O   0  0  0  0  0  1  0  0  0  0  0  0
  190.8130  177.1230  139.6640 C   0  0  0  0  0  0  0  0  0  0  0  0
  190.6420  175.8990  139.4150 O   0  0  0  0  0  0  0  0  0  0  0  0
  191.8670  177.5180  140.4800 O   0  0  0  0  0  1  0  0  0  0  0  0
  1 27  1  0  0  0  0
  2  1  1  0  0  0  0
  2 38  1  1  0  0  0
  3  1  2  0  0  0  0
  4  3  1  0  0  0  0
  4  2  1  0  0  0  0
  5  6  1  0  0  0  0
  6 11  2  0  0  0  0
  7 10  1  0  0  0  0
  8 11  1  0  0  0  0
  8  3  1  0  0  0  0
  9  5  2  0  0  0  0
  9 10  1  0  0  0  0
 10  8  2  0  0  0  0
 12  5  1  0  0  0  0
 13 15  1  1  0  0  0
 13 16  1  0  0  0  0
 14 20  1  0  0  0  0
 14 12  1  0  0  0  0
 16 19  1  0  0  0  0
 17 19  1  0  0  0  0
 18 22  1  1  0  0  0
 18 13  1  0  0  0  0
 18 20  1  0  0  0  0
 20 17  2  0  0  0  0
 22 21  1  0  0  0  0
 25 29  1  0  0  0  0
 25 24  1  0  0  0  0
 26 25  2  0  0  0  0
 27 23  1  0  0  0  0
 27 26  2  0  0  0  0
 29 28  1  1  0  0  0
 29 30  1  0  0  0  0
 30 32  1  0  0  0  0
 32 31  1  1  0  0  0
 32 33  1  0  0  0  0
 33 34  1  0  0  0  0
 34 36  1  0  0  0  0
 36 35  1  6  0  0  0
 36 37  1  0  0  0  0
 38 40  1  0  0  0  0
 39 38  2  0  0  0  0
M  END
>  <MODEL>
7

>  <REMARK>
 VINA RESULT:      -6.3      4.821      9.686
  Name = 
  12 active torsions:
  status: ('A' for Active; 'I' for Inactive)
    1  A    between atoms: C_2  and  C_29
    2  A    between atoms: C_5  and  N_22
    3  A    between atoms: N_8  and  N_22
    4  A    between atoms: C_9  and  C_34
    5  A    between atoms: C_9  and  C_35
    6  A    between atoms: C_15  and  C_30
    7  A    between atoms: C_16  and  C_32
    8  A    between atoms: O_18  and  C_34
    9  A    between atoms: O_18  and  C_37
   10  A    between atoms: C_21  and  C_37
   11  A    between atoms: C_23  and  N_39
   12  A    between atoms: C_24  and  C_35
                            x       y       z     vdW  Elec       q    Type
                         _______ _______ _______ _____ _____    ______ ____

>  <TORSDO>
F 12

$$$$
=
 OpenBabel10232412473D

 40 42  0  0  1  0  0  0  0  0999 V2000
  190.2440  176.7660  139.1220 C   0  0  0  0  0  0  0  0  0  0  0  0
  188.7570  176.8820  139.0980 C   0  0  2  0  0  3  0  0  0  0  0  0
  190.2990  176.0290  137.9390 C   0  0  0  0  0  0  0  0  0  0  0  0
  188.5010  175.8760  137.7510 S   0  0  0  0  0  0  0  0  0  0  0  0
  193.5170  174.3760  135.6630 C   0  0  0  0  0  0  0  0  0  0  0  0
  193.3800  174.0950  137.0270 C   0  0  0  0  0  3  0  0  0  0  0  0
  190.5070  176.5660  135.0090 C   0  0  0  0  0  1  0  0  0  0  0  0
  191.3970  175.4870  137.1290 C   0  0  0  0  0  0  0  0  0  0  0  0
  192.5770  175.1930  135.0280 C   0  0  0  0  0  3  0  0  0  0  0  0
  191.5180  175.7530  135.7480 C   0  0  0  0  0  0  0  0  0  0  0  0
  192.3210  174.6430  137.7520 C   0  0  0  0  0  3  0  0  0  0  0  0
  194.5950  173.8290  134.9060 N   0  0  0  0  0  2  0  0  0  0  0  0
  198.7680  171.5980  136.5490 C   0  0  1  0  0  3  0  0  0  0  0  0
  195.9200  173.9170  135.3590 N   0  0  0  0  0  2  0  0  0  0  0  0
  200.1110  171.7630  137.2360 C   0  0  0  0  0  1  0  0  0  0  0  0
  197.8490  170.6880  137.3440 C   0  0  0  0  0  2  0  0  0  0  0  0
  195.9900  171.6500  136.0250 N   0  0  0  0  0  0  0  0  0  0  0  0
  198.0740  172.9410  136.2440 C   0  0  1  0  0  3  0  0  0  0  0  0
  196.6210  170.4080  136.4860 C   0  0  0  0  0  2  0  0  0  0  0  0
  196.6240  172.7750  135.8460 C   0  0  0  0  0  0  0  0  0  0  0  0
  198.5890  175.1170  136.7900 O   0  0  0  0  0  1  0  0  0  0  0  0
  198.2220  173.9230  137.3240 N   0  0  0  0  0  2  0  0  0  0  0  0
  192.9350  177.4180  139.6150 Cl  0  0  0  0  0  0  0  0  0  0  0  0
  191.1280  178.6510  143.3840 C   0  0  0  0  0  1  0  0  0  0  0  0
  190.5770  177.5230  142.5800 C   0  0  0  0  0  0  0  0  0  0  0  0
  190.9230  177.4070  141.3280 C   0  0  0  0  0  0  0  0  0  0  0  0
  191.2500  177.2630  140.0760 C   0  0  0  0  0  0  0  0  0  0  0  0
  189.7960  175.2620  142.6620 O   0  0  0  0  0  1  0  0  0  0  0  0
  189.5830  176.5540  143.1520 C   0  0  2  0  0  3  0  0  0  0  0  0
  188.1640  177.0040  142.8160 C   0  0  0  0  0  2  0  0  0  0  0  0
  187.8370  177.2750  145.2930 C   0  0  0  0  0  1  0  0  0  0  0  0
  187.5330  177.8530  143.9220 C   0  0  2  0  0  3  0  0  0  0  0  0
  186.1500  177.9760  143.7440 O   0  0  0  0  0  0  0  0  0  0  0  0
  185.9980  178.5790  142.4920 C   0  0  0  0  0  2  0  0  0  0  0  0
  184.3870  179.0760  140.6820 C   0  0  0  0  0  1  0  0  0  0  0  0
  184.6310  178.2440  141.9240 C   0  0  2  0  0  3  0  0  0  0  0  0
  183.6460  178.5290  142.8710 O   0  0  0  0  0  1  0  0  0  0  0  0
  188.3160  178.2860  138.8010 C   0  0  0  0  0  0  0  0  0  0  0  0
  187.1380  178.6380  139.0760 O   0  0  0  0  0  1  0  0  0  0  0  0
  189.1880  179.1990  138.2180 O   0  0  0  0  0  0  0  0  0  0  0  0
  1 27  1  0  0  0  0
  2 38  1  6  0  0  0
  2  1  1  0  0  0  0
  3  1  2  0  0  0  0
  4  3  1  0  0  0  0
  4  2  1  0  0  0  0
  5  6  1  0  0  0  0
  6 11  2  0  0  0  0
  7 10  1  0  0  0  0
  8 11  1  0  0  0  0
  8  3  1  0  0  0  0
  9  5  2  0  0  0  0
  9 10  1  0  0  0  0
 10  8  2  0  0  0  0
 12 14  1  0  0  0  0
 12  5  1  0  0  0  0
 13 15  1  1  0  0  0
 13 16  1  0  0  0  0
 14 20  1  0  0  0  0
 17 19  1  0  0  0  0
 18 13  1  0  0  0  0
 18 22  1  1  0  0  0
 19 16  1  0  0  0  0
 20 17  2  0  0  0  0
 20 18  1  0  0  0  0
 21 22  1  0  0  0  0
 23 27  1  0  0  0  0
 25 29  1  0  0  0  0
 25 24  1  0  0  0  0
 26 25  2  0  0  0  0
 27 26  2  0  0  0  0
 29 28  1  6  0  0  0
 30 29  1  0  0  0  0
 30 32  1  0  0  0  0
 32 31  1  1  0  0  0
 33 32  1  0  0  0  0
 34 33  1  0  0  0  0
 36 35  1  6  0  0  0
 36 34  1  0  0  0  0
 36 37  1  0  0  0  0
 38 39  1  0  0  0  0
 40 38  2  0  0  0  0
M  END
>  <MODEL>
8

>  <REMARK>
 VINA RESULT:      -6.3      5.473     10.432
  Name = 
  12 active torsions:
  status: ('A' for Active; 'I' for Inactive)
    1  A    between atoms: C_2  and  C_29
    2  A    between atoms: C_5  and  N_22
    3  A    between atoms: N_8  and  N_22
    4  A    between atoms: C_9  and  C_34
    5  A    between atoms: C_9  and  C_35
    6  A    between atoms: C_15  and  C_30
    7  A    between atoms: C_16  and  C_32
    8  A    between atoms: O_18  and  C_34
    9  A    between atoms: O_18  and  C_37
   10  A    between atoms: C_21  and  C_37
   11  A    between atoms: C_23  and  N_39
   12  A    between atoms: C_24  and  C_35
                            x       y       z     vdW  Elec       q    Type
                         _______ _______ _______ _____ _____    ______ ____

>  <TORSDO>
F 12

$$$$
=
 OpenBabel10232412473D

 40 42  0  0  1  0  0  0  0  0999 V2000
  189.2610  177.6770  144.0520 C   0  0  0  0  0  0  0  0  0  0  0  0
  190.2050  178.3010  145.0230 C   0  0  2  0  0  3  0  0  0  0  0  0
  189.9260  178.1870  142.9360 C   0  0  0  0  0  0  0  0  0  0  0  0
  191.1100  179.1820  143.8850 S   0  0  0  0  0  0  0  0  0  0  0  0
  189.2720  177.8530  138.7260 C   0  0  0  0  0  0  0  0  0  0  0  0
  188.2640  178.3220  139.5770 C   0  0  0  0  0  3  0  0  0  0  0  0
  192.1270  177.2800  141.1330 C   0  0  0  0  0  1  0  0  0  0  0  0
  189.7330  178.0490  141.4870 C   0  0  0  0  0  0  0  0  0  0  0  0
  190.5170  177.5080  139.2550 C   0  0  0  0  0  3  0  0  0  0  0  0
  190.7590  177.6000  140.6290 C   0  0  0  0  0  0  0  0  0  0  0  0
  188.4980  178.4240  140.9490 C   0  0  0  0  0  3  0  0  0  0  0  0
  189.0490  177.7360  137.3210 N   0  0  0  0  0  2  0  0  0  0  0  0
  187.8750  173.2340  135.4690 C   0  0  1  0  0  3  0  0  0  0  0  0
  189.4190  176.5800  136.6200 N   0  0  0  0  0  2  0  0  0  0  0  0
  188.3830  171.9220  134.9000 C   0  0  0  0  0  1  0  0  0  0  0  0
  187.1030  173.0150  136.7570 C   0  0  0  0  0  2  0  0  0  0  0  0
  187.4380  175.4260  137.1990 N   0  0  0  0  0  0  0  0  0  0  0  0
  188.9900  174.2790  135.6720 C   0  0  1  0  0  3  0  0  0  0  0  0
  186.4530  174.3410  137.1370 C   0  0  0  0  0  2  0  0  0  0  0  0
  188.5450  175.4570  136.5100 C   0  0  0  0  0  0  0  0  0  0  0  0
  190.1290  173.5430  137.5330 O   0  0  0  0  0  1  0  0  0  0  0  0
  190.2360  173.6980  136.1880 N   0  0  0  0  0  2  0  0  0  0  0  0
  187.8660  175.3330  143.3680 Cl  0  0  0  0  0  0  0  0  0  0  0  0
  185.2640  176.9120  146.4880 C   0  0  0  0  0  1  0  0  0  0  0  0
  186.0660  177.8070  145.6050 C   0  0  0  0  0  0  0  0  0  0  0  0
  187.0640  177.3060  144.9330 C   0  0  0  0  0  0  0  0  0  0  0  0
  188.0680  176.8370  144.2470 C   0  0  0  0  0  0  0  0  0  0  0  0
  185.6060  179.8360  146.7880 O   0  0  0  0  0  1  0  0  0  0  0  0
  185.7990  179.2810  145.5200 C   0  0  2  0  0  3  0  0  0  0  0  0
  184.5700  179.5390  144.6520 C   0  0  0  0  0  2  0  0  0  0  0  0
  185.3090  179.4130  142.2540 C   0  0  0  0  0  1  0  0  0  0  0  0
  184.5620  178.7040  143.3700 C   0  0  2  0  0  3  0  0  0  0  0  0
  183.2550  178.4050  142.9640 O   0  0  0  0  0  0  0  0  0  0  0  0
  182.4360  179.2210  143.7500 C   0  0  0  0  0  2  0  0  0  0  0  0
  180.1280  178.4010  144.0920 C   0  0  0  0  0  1  0  0  0  0  0  0
  181.0260  179.2220  143.1900 C   0  0  2  0  0  3  0  0  0  0  0  0
  181.0270  178.6650  141.9100 O   0  0  0  0  0  1  0  0  0  0  0  0
  191.0640  177.2720  145.7000 C   0  0  0  0  0  0  0  0  0  0  0  0
  191.9810  176.7040  145.0480 O   0  0  0  0  0  0  0  0  0  0  0  0
  190.8520  176.9290  147.0300 O   0  0  0  0  0  1  0  0  0  0  0  0
  1 27  1  0  0  0  0
  1  2  1  0  0  0  0
  2 38  1  6  0  0  0
  3  4  1  0  0  0  0
  3  1  2  0  0  0  0
  4  2  1  0  0  0  0
  5  9  2  0  0  0  0
  5  6  1  0  0  0  0
  6 11  2  0  0  0  0
  8  3  1  0  0  0  0
  9 10  1  0  0  0  0
 10  7  1  0  0  0  0
 10  8  2  0  0  0  0
 11  8  1  0  0  0  0
 12  5  1  0  0  0  0
 13 15  1  1  0  0  0
 13 18  1  0  0  0  0
 13 16  1  0  0  0  0
 14 12  1  0  0  0  0
 16 19  1  0  0  0  0
 18 22  1  1  0  0  0
 18 20  1  0  0  0  0
 19 17  1  0  0  0  0
 20 14  1  0  0  0  0
 20 17  2  0  0  0  0
 22 21  1  0  0  0  0
 23 27  1  0  0  0  0
 25 24  1  0  0  0  0
 26 25  2  0  0  0  0
 27 26  2  0  0  0  0
 29 25  1  0  0  0  0
 29 28  1  1  0  0  0
 30 29  1  0  0  0  0
 32 31  1  6  0  0  0
 32 30  1  0  0  0  0
 33 32  1  0  0  0  0
 33 34  1  0  0  0  0
 36 34  1  0  0  0  0
 36 35  1  1  0  0  0
 37 36  1  0  0  0  0
 38 40  1  0  0  0  0
 39 38  2  0  0  0  0
M  END
>  <MODEL>
9

>  <REMARK>
 VINA RESULT:      -6.3      4.385      9.872
  Name = 
  12 active torsions:
  status: ('A' for Active; 'I' for Inactive)
    1  A    between atoms: C_2  and  C_29
    2  A    between atoms: C_5  and  N_22
    3  A    between atoms: N_8  and  N_22
    4  A    between atoms: C_9  and  C_34
    5  A    between atoms: C_9  and  C_35
    6  A    between atoms: C_15  and  C_30
    7  A    between atoms: C_16  and  C_32
    8  A    between atoms: O_18  and  C_34
    9  A    between atoms: O_18  and  C_37
   10  A    between atoms: C_21  and  C_37
   11  A    between atoms: C_23  and  N_39
   12  A    between atoms: C_24  and  C_35
                            x       y       z     vdW  Elec       q    Type
                         _______ _______ _______ _____ _____    ______ ____

>  <TORSDO>
F 12

$$$$
