=
 OpenBabel10232409143D

 57 64  0  0  1  0  0  0  0  0999 V2000
  186.2080  178.3730  143.1430 C   0  0  0  0  0  0  0  0  0  0  0  0
  189.9420  177.1370  139.5170 C   0  0  0  0  0  0  0  0  0  0  0  0
  184.6110  178.8170  144.5760 C   0  0  0  0  0  0  0  0  0  0  0  0
  184.0800  179.0690  143.2290 C   0  0  0  0  0  3  0  0  0  0  0  0
  188.3790  177.5780  143.8090 C   0  0  0  0  0  0  0  0  0  0  0  0
  187.7920  177.9540  140.1950 C   0  0  0  0  0  0  0  0  0  0  0  0
  186.7130  178.0640  145.4660 N   0  0  0  0  0  0  0  0  0  0  0  0
  190.3260  176.9350  140.8540 C   0  0  0  0  0  3  0  0  0  0  0  0
  185.0540  178.7960  142.3520 C   0  0  0  0  0  3  0  0  0  0  0  0
  187.9900  177.6520  145.1770 C   0  0  0  0  0  0  0  0  0  0  0  0
  189.5380  177.1440  143.2990 C   0  0  0  0  0  3  0  0  0  0  0  0
  188.7000  177.6390  139.2230 N   0  0  0  0  0  0  0  0  0  0  0  0
  185.8570  178.4130  144.4650 C   0  0  0  0  0  0  0  0  0  0  0  0
  183.9160  178.9720  145.7680 O   0  0  0  0  0  1  0  0  0  0  0  0
  187.4880  177.9490  142.8020 C   0  0  0  0  0  0  0  0  0  0  0  0
  188.1560  177.7420  141.5270 C   0  0  0  0  0  0  0  0  0  0  0  0
  189.3990  177.2500  141.8430 C   0  0  0  0  0  0  0  0  0  0  0  0
  191.3590  175.6220  138.3090 N   0  0  0  0  0  0  0  0  0  0  0  0
  190.8880  176.8170  138.4480 C   0  0  0  0  0  3  0  0  0  0  0  0
  194.7310  174.8340  135.8090 C   0  0  0  0  0  0  0  0  0  0  0  0
  195.7460  172.2230  135.6080 C   0  0  0  0  0  3  0  0  0  0  0  0
  195.1670  177.1840  135.8230 O   0  0  0  0  0  1  0  0  0  0  0  0
  194.7000  172.5000  136.4940 C   0  0  0  0  0  3  0  0  0  0  0  0
  193.0840  174.0540  137.5830 C   0  0  0  0  0  2  0  0  0  0  0  0
  194.1760  173.7930  136.5870 C   0  0  0  0  0  0  0  0  0  0  0  0
  192.2900  175.3130  137.2370 C   0  0  2  0  0  3  0  0  0  0  0  0
  196.2750  173.2420  134.8130 C   0  0  0  0  0  3  0  0  0  0  0  0
  193.2550  176.4740  137.0520 C   0  0  0  0  0  2  0  0  0  0  0  0
  195.7650  174.5400  134.9080 C   0  0  0  0  0  3  0  0  0  0  0  0
  194.1490  176.2300  135.8370 C   0  0  2  0  0  3  0  0  0  0  0  0
  188.2990  176.9460  147.7960 S   0  0  0  0  0  0  0  0  0  0  0  0
  188.8840  177.3000  146.3050 C   0  0  0  0  0  0  0  0  0  0  0  0
  190.2680  177.0740  146.0510 N   0  0  0  0  0  0  0  0  0  0  0  0
  191.5130  176.2560  146.1390 C   0  0  0  0  0  2  0  0  0  0  0  0
  191.5930  177.4720  145.4930 C   0  0  0  0  0  2  0  0  0  0  0  0
  186.5260  178.5160  139.8590 N   0  0  0  0  0  2  0  0  0  0  0  0
  185.8330  178.2080  138.6180 C   0  0  0  0  0  2  0  0  0  0  0  0
  184.4080  178.7250  138.6880 C   0  0  0  0  0  2  0  0  0  0  0  0
  183.4800  177.6150  139.1570 C   0  0  0  0  0  2  0  0  0  0  0  0
  182.2740  177.4990  138.2450 C   0  0  0  0  0  2  0  0  0  0  0  0
  181.3980  174.7990  138.3310 O   0  0  0  0  0  0  0  0  0  0  0  0
  182.0790  175.1590  137.3310 C   0  0  0  0  0  0  0  0  0  0  0  0
  182.5250  176.5100  137.2070 N   0  0  0  0  0  2  0  0  0  0  0  0
  182.3830  174.1800  136.2300 C   0  0  1  0  0  3  0  0  0  0  0  0
  184.7350  174.3360  135.3430 C   0  0  0  0  0  2  0  0  0  0  0  0
  184.3270  173.6940  137.6490 N   0  0  0  0  0  2  0  0  0  0  0  0
  186.5730  173.7410  136.6190 C   0  0  1  0  0  3  0  0  0  0  0  0
  185.6630  173.1040  137.6820 C   0  0  0  0  0  2  0  0  0  0  0  0
  186.0110  173.7330  135.3190 O   0  0  0  0  0  0  0  0  0  0  0  0
  183.7990  173.5830  136.2920 C   0  0  1  0  0  3  0  0  0  0  0  0
  187.2080  175.0820  137.0100 C   0  0  0  0  0  2  0  0  0  0  0  0
  188.6550  176.6420  135.6400 C   0  0  0  0  0  0  0  0  0  0  0  0
  189.8850  176.8500  134.8310 C   0  0  0  0  0  1  0  0  0  0  0  0
  188.4120  175.3680  136.2390 N   0  0  0  0  0  2  0  0  0  0  0  0
  187.8390  177.5890  135.7890 O   0  0  0  0  0  0  0  0  0  0  0  0
  180.4870  173.6580  135.0390 C   0  0  0  0  0  1  0  0  0  0  0  0
  181.3560  173.2220  136.0520 O   0  0  0  0  0  0  0  0  0  0  0  0
  1 13  1  0  0  0  0
  2  8  2  0  0  0  0
  3 14  1  0  0  0  0
  4  3  2  0  0  0  0
  5 10  2  0  0  0  0
  6 16  1  0  0  0  0
  8 17  1  0  0  0  0
  9  1  2  0  0  0  0
  9  4  1  0  0  0  0
 10  7  1  0  0  0  0
 10 32  1  0  0  0  0
 11  5  1  0  0  0  0
 12  2  1  0  0  0  0
 12  6  2  0  0  0  0
 13  3  1  0  0  0  0
 13  7  2  0  0  0  0
 15  1  1  0  0  0  0
 15  5  1  0  0  0  0
 16 17  1  0  0  0  0
 16 15  2  0  0  0  0
 17 11  2  0  0  0  0
 18 19  2  0  0  0  0
 19  2  1  0  0  0  0
 20 30  1  0  0  0  0
 20 25  1  0  0  0  0
 21 23  1  0  0  0  0
 23 25  2  0  0  0  0
 25 24  1  0  0  0  0
 26 24  1  0  0  0  0
 26 18  1  1  0  0  0
 27 29  1  0  0  0  0
 27 21  2  0  0  0  0
 28 26  1  0  0  0  0
 29 20  2  0  0  0  0
 30 22  1  1  0  0  0
 30 28  1  0  0  0  0
 32 31  2  0  0  0  0
 33 34  1  0  0  0  0
 33 32  1  0  0  0  0
 35 33  1  0  0  0  0
 35 34  1  0  0  0  0
 36  6  1  0  0  0  0
 37 38  1  0  0  0  0
 37 36  1  0  0  0  0
 38 39  1  0  0  0  0
 40 39  1  0  0  0  0
 42 41  2  0  0  0  0
 43 42  1  0  0  0  0
 43 40  1  0  0  0  0
 44 57  1  1  0  0  0
 44 42  1  0  0  0  0
 45 50  1  0  0  0  0
 46 48  1  0  0  0  0
 47 51  1  1  0  0  0
 47 48  1  0  0  0  0
 49 45  1  0  0  0  0
 49 47  1  0  0  0  0
 50 44  1  1  0  0  0
 50 46  1  0  0  0  0
 52 55  2  0  0  0  0
 52 54  1  0  0  0  0
 53 52  1  0  0  0  0
 54 51  1  0  0  0  0
 56 57  1  0  0  0  0
M  END
>  <MODEL>
1

>  <REMARK>
 VINA RESULT:      -8.8      0.000      0.000
  Name = 
  15 active torsions:
  status: ('A' for Active; 'I' for Inactive)
    1  A    between atoms: C_7  and  C_46
    2  A    between atoms: C_11  and  C_24
    3  A    between atoms: N_13  and  C_50
    4  A    between atoms: C_15  and  C_28
    5  A    between atoms: C_15  and  N_47
    6  A    between atoms: C_16  and  N_21
    7  A    between atoms: C_17  and  C_27
    8  A    between atoms: C_17  and  C_28
    9  A    between atoms: C_22  and  N_36
   10  A    between atoms: C_22  and  C_43
   11  A    between atoms: C_24  and  O_34
   12  A    between atoms: C_24  and  C_57
   13  A    between atoms: C_26  and  N_47
   14  A    between atoms: C_27  and  N_38
   15  A    between atoms: C_33  and  C_50
                            x       y       z     vdW  Elec       q    Type
                         _______ _______ _______ _____ _____    ______ ____

>  <TORSDO>
F 15

$$$$
=
 OpenBabel10232409143D

 57 64  0  0  1  0  0  0  0  0999 V2000
  184.8070  177.6310  138.0120 C   0  0  0  0  0  0  0  0  0  0  0  0
  189.5660  175.7840  136.4110 C   0  0  0  0  0  0  0  0  0  0  0  0
  182.8870  178.4830  138.6350 C   0  0  0  0  0  0  0  0  0  0  0  0
  183.9500  179.3110  139.2210 C   0  0  0  0  0  3  0  0  0  0  0  0
  184.9810  175.7030  136.5830 C   0  0  0  0  0  0  0  0  0  0  0  0
  188.1400  177.2610  137.6500 C   0  0  0  0  0  0  0  0  0  0  0  0
  182.8250  176.5340  137.2290 N   0  0  0  0  0  0  0  0  0  0  0  0
  188.4580  175.0760  135.9130 C   0  0  0  0  0  3  0  0  0  0  0  0
  185.1240  178.7930  138.8400 C   0  0  0  0  0  3  0  0  0  0  0  0
  183.5620  175.5980  136.5460 C   0  0  0  0  0  0  0  0  0  0  0  0
  185.8850  174.9500  135.9430 C   0  0  0  0  0  3  0  0  0  0  0  0
  189.3830  176.8450  137.2610 N   0  0  0  0  0  0  0  0  0  0  0  0
  183.4460  177.5170  137.9390 C   0  0  0  0  0  0  0  0  0  0  0  0
  181.5210  178.6860  138.7820 O   0  0  0  0  0  1  0  0  0  0  0  0
  185.5940  176.7130  137.3250 C   0  0  0  0  0  0  0  0  0  0  0  0
  187.0310  176.5760  137.1480 C   0  0  0  0  0  0  0  0  0  0  0  0
  187.1940  175.5030  136.3050 C   0  0  0  0  0  0  0  0  0  0  0  0
  191.9500  175.7500  136.6920 N   0  0  0  0  0  0  0  0  0  0  0  0
  190.9130  175.3660  136.0230 C   0  0  0  0  0  3  0  0  0  0  0  0
  196.1300  174.9770  136.2800 C   0  0  0  0  0  0  0  0  0  0  0  0
  197.2870  172.7890  137.6080 C   0  0  0  0  0  3  0  0  0  0  0  0
  196.3650  177.2130  135.4710 O   0  0  0  0  0  1  0  0  0  0  0  0
  195.9390  173.0970  137.8130 C   0  0  0  0  0  3  0  0  0  0  0  0
  193.9100  174.4940  137.4250 C   0  0  0  0  0  2  0  0  0  0  0  0
  195.3500  174.1720  137.1420 C   0  0  0  0  0  0  0  0  0  0  0  0
  193.2820  175.3200  136.3030 C   0  0  2  0  0  3  0  0  0  0  0  0
  198.0530  173.5600  136.7320 C   0  0  0  0  0  3  0  0  0  0  0  0
  194.1520  176.5380  136.0370 C   0  0  0  0  0  2  0  0  0  0  0  0
  197.4760  174.6450  136.0660 C   0  0  0  0  0  3  0  0  0  0  0  0
  195.5120  176.1090  135.4890 C   0  0  2  0  0  3  0  0  0  0  0  0
  182.0560  174.8540  134.3930 S   0  0  0  0  0  0  0  0  0  0  0  0
  182.8350  174.5420  135.8030 C   0  0  0  0  0  0  0  0  0  0  0  0
  182.9720  173.1840  136.2130 N   0  0  0  0  0  0  0  0  0  0  0  0
  183.6510  172.0930  136.9710 C   0  0  0  0  0  2  0  0  0  0  0  0
  182.5500  171.7540  136.2130 C   0  0  0  0  0  2  0  0  0  0  0  0
  187.9850  178.3390  138.5690 N   0  0  0  0  0  2  0  0  0  0  0  0
  189.0510  178.7780  139.4550 C   0  0  0  0  0  2  0  0  0  0  0  0
  189.0060  177.9770  140.7430 C   0  0  0  0  0  2  0  0  0  0  0  0
  190.1480  176.9740  140.7660 C   0  0  0  0  0  2  0  0  0  0  0  0
  191.2960  177.4830  141.6180 C   0  0  0  0  0  2  0  0  0  0  0  0
  190.9410  179.3580  143.7200 O   0  0  0  0  0  0  0  0  0  0  0  0
  190.9350  178.1320  144.0240 C   0  0  0  0  0  0  0  0  0  0  0  0
  191.0760  177.1340  143.0130 N   0  0  0  0  0  2  0  0  0  0  0  0
  190.7240  177.7080  145.4530 C   0  0  1  0  0  3  0  0  0  0  0  0
  188.7210  177.9360  146.9610 C   0  0  0  0  0  2  0  0  0  0  0  0
  188.4370  177.4320  144.6030 N   0  0  0  0  0  2  0  0  0  0  0  0
  186.5670  177.5360  146.2140 C   0  0  1  0  0  3  0  0  0  0  0  0
  187.1030  176.9230  144.9100 C   0  0  0  0  0  2  0  0  0  0  0  0
  187.4590  177.4070  147.3060 O   0  0  0  0  0  0  0  0  0  0  0  0
  189.3050  177.1990  145.7540 C   0  0  1  0  0  3  0  0  0  0  0  0
  185.9490  178.9340  146.0820 C   0  0  0  0  0  2  0  0  0  0  0  0
  184.0700  179.0640  144.3930 C   0  0  0  0  0  0  0  0  0  0  0  0
  182.6100  179.0420  144.1130 C   0  0  0  0  0  1  0  0  0  0  0  0
  184.5360  178.8830  145.7310 N   0  0  0  0  0  2  0  0  0  0  0  0
  184.8830  179.2430  143.4470 O   0  0  0  0  0  0  0  0  0  0  0  0
  191.4160  176.3950  147.2090 C   0  0  0  0  0  1  0  0  0  0  0  0
  191.7570  176.8670  145.9310 O   0  0  0  0  0  0  0  0  0  0  0  0
  1  9  1  0  0  0  0
  2 12  1  0  0  0  0
  3 14  1  0  0  0  0
  3  4  1  0  0  0  0
  5 15  1  0  0  0  0
  6 36  1  0  0  0  0
  7 13  1  0  0  0  0
  8 17  1  0  0  0  0
  8  2  2  0  0  0  0
  9  4  2  0  0  0  0
 10  5  1  0  0  0  0
 10  7  2  0  0  0  0
 11 17  1  0  0  0  0
 11  5  2  0  0  0  0
 12  6  2  0  0  0  0
 13  1  1  0  0  0  0
 13  3  2  0  0  0  0
 15  1  2  0  0  0  0
 16 15  1  0  0  0  0
 16  6  1  0  0  0  0
 17 16  2  0  0  0  0
 19  2  1  0  0  0  0
 19 18  2  0  0  0  0
 20 25  1  0  0  0  0
 21 23  1  0  0  0  0
 25 24  1  0  0  0  0
 25 23  2  0  0  0  0
 26 18  1  1  0  0  0
 26 24  1  0  0  0  0
 27 21  2  0  0  0  0
 28 26  1  0  0  0  0
 29 20  2  0  0  0  0
 29 27  1  0  0  0  0
 30 22  1  1  0  0  0
 30 28  1  0  0  0  0
 30 20  1  0  0  0  0
 31 32  2  0  0  0  0
 32 33  1  0  0  0  0
 32 10  1  0  0  0  0
 33 34  1  0  0  0  0
 35 33  1  0  0  0  0
 35 34  1  0  0  0  0
 36 37  1  0  0  0  0
 37 38  1  0  0  0  0
 38 39  1  0  0  0  0
 39 40  1  0  0  0  0
 40 43  1  0  0  0  0
 41 42  2  0  0  0  0
 43 42  1  0  0  0  0
 44 42  1  6  0  0  0
 44 57  1  0  0  0  0
 45 49  1  0  0  0  0
 46 48  1  0  0  0  0
 46 50  1  0  0  0  0
 47 51  1  6  0  0  0
 47 49  1  0  0  0  0
 48 47  1  0  0  0  0
 50 44  1  6  0  0  0
 50 45  1  0  0  0  0
 52 54  1  0  0  0  0
 53 52  1  0  0  0  0
 54 51  1  0  0  0  0
 55 52  2  0  0  0  0
 57 56  1  0  0  0  0
M  END
>  <MODEL>
2

>  <REMARK>
 VINA RESULT:      -8.5      3.019      8.472
  Name = 
  15 active torsions:
  status: ('A' for Active; 'I' for Inactive)
    1  A    between atoms: C_7  and  C_46
    2  A    between atoms: C_11  and  C_24
    3  A    between atoms: N_13  and  C_50
    4  A    between atoms: C_15  and  C_28
    5  A    between atoms: C_15  and  N_47
    6  A    between atoms: C_16  and  N_21
    7  A    between atoms: C_17  and  C_27
    8  A    between atoms: C_17  and  C_28
    9  A    between atoms: C_22  and  N_36
   10  A    between atoms: C_22  and  C_43
   11  A    between atoms: C_24  and  O_34
   12  A    between atoms: C_24  and  C_57
   13  A    between atoms: C_26  and  N_47
   14  A    between atoms: C_27  and  N_38
   15  A    between atoms: C_33  and  C_50
                            x       y       z     vdW  Elec       q    Type
                         _______ _______ _______ _____ _____    ______ ____

>  <TORSDO>
F 15

$$$$
=
 OpenBabel10232409143D

 57 64  0  0  1  0  0  0  0  0999 V2000
  186.6710  178.2350  142.5640 C   0  0  0  0  0  0  0  0  0  0  0  0
  190.6160  177.0470  139.1530 C   0  0  0  0  0  0  0  0  0  0  0  0
  184.9910  178.6580  143.9060 C   0  0  0  0  0  0  0  0  0  0  0  0
  184.5230  178.8740  142.5300 C   0  0  0  0  0  3  0  0  0  0  0  0
  188.8250  177.5120  143.3520 C   0  0  0  0  0  0  0  0  0  0  0  0
  188.4140  177.8140  139.7080 C   0  0  0  0  0  0  0  0  0  0  0  0
  187.0650  177.9770  144.9140 N   0  0  0  0  0  0  0  0  0  0  0  0
  190.9370  176.8770  140.5110 C   0  0  0  0  0  3  0  0  0  0  0  0
  185.5480  178.6150  141.7080 C   0  0  0  0  0  3  0  0  0  0  0  0
  188.3660  177.5960  144.6970 C   0  0  0  0  0  0  0  0  0  0  0  0
  190.0200  177.1020  142.9080 C   0  0  0  0  0  3  0  0  0  0  0  0
  189.3780  177.5100  138.7870 N   0  0  0  0  0  0  0  0  0  0  0  0
  186.2520  178.2860  143.8650 C   0  0  0  0  0  0  0  0  0  0  0  0
  184.2320  178.8120  145.0590 O   0  0  0  0  0  1  0  0  0  0  0  0
  187.9770  177.8420  142.2960 C   0  0  0  0  0  0  0  0  0  0  0  0
  188.7150  177.6340  141.0600 C   0  0  0  0  0  0  0  0  0  0  0  0
  189.9530  177.1810  141.4460 C   0  0  0  0  0  0  0  0  0  0  0  0
  192.3330  175.6590  138.2100 N   0  0  0  0  0  0  0  0  0  0  0  0
  191.6240  176.7370  138.1380 C   0  0  0  0  0  3  0  0  0  0  0  0
  195.8170  175.2080  135.7810 C   0  0  0  0  0  0  0  0  0  0  0  0
  197.5060  172.9940  136.1510 C   0  0  0  0  0  3  0  0  0  0  0  0
  195.5990  177.5190  135.2090 O   0  0  0  0  0  1  0  0  0  0  0  0
  196.4150  173.1910  137.0030 C   0  0  0  0  0  3  0  0  0  0  0  0
  194.4260  174.4780  137.7820 C   0  0  0  0  0  2  0  0  0  0  0  0
  195.5590  174.2800  136.8150 C   0  0  0  0  0  0  0  0  0  0  0  0
  193.3240  175.3560  137.1900 C   0  0  2  0  0  3  0  0  0  0  0  0
  197.7450  173.8900  135.1070 C   0  0  0  0  0  3  0  0  0  0  0  0
  193.9390  176.6490  136.6800 C   0  0  0  0  0  2  0  0  0  0  0  0
  196.9020  174.9880  134.9190 C   0  0  0  0  0  3  0  0  0  0  0  0
  194.8780  176.3620  135.5080 C   0  0  2  0  0  3  0  0  0  0  0  0
  190.7880  176.8670  145.7240 S   0  0  0  0  0  0  0  0  0  0  0  0
  189.2100  177.2870  145.8750 C   0  0  0  0  0  0  0  0  0  0  0  0
  188.7010  177.5450  147.1810 N   0  0  0  0  0  0  0  0  0  0  0  0
  187.8290  177.2240  148.3490 C   0  0  0  0  0  2  0  0  0  0  0  0
  188.6270  178.3460  148.4370 C   0  0  0  0  0  2  0  0  0  0  0  0
  187.1520  178.3360  139.2980 N   0  0  0  0  0  2  0  0  0  0  0  0
  186.5610  178.0400  138.0030 C   0  0  0  0  0  2  0  0  0  0  0  0
  187.2530  178.8580  136.9270 C   0  0  0  0  0  2  0  0  0  0  0  0
  187.1290  178.1550  135.5850 C   0  0  0  0  0  2  0  0  0  0  0  0
  188.2580  177.1600  135.3910 C   0  0  0  0  0  2  0  0  0  0  0  0
  188.0950  174.9820  137.2060 O   0  0  0  0  0  0  0  0  0  0  0  0
  187.6950  174.7880  136.0250 C   0  0  0  0  0  0  0  0  0  0  0  0
  187.7180  175.8480  135.0680 N   0  0  0  0  0  2  0  0  0  0  0  0
  187.1360  173.4490  135.6250 C   0  0  1  0  0  3  0  0  0  0  0  0
  185.2310  172.8040  137.1400 C   0  0  0  0  0  2  0  0  0  0  0  0
  184.9980  174.6570  135.5880 N   0  0  0  0  0  2  0  0  0  0  0  0
  183.1610  173.8330  137.0200 C   0  0  1  0  0  3  0  0  0  0  0  0
  183.5490  174.5210  135.7000 C   0  0  0  0  0  2  0  0  0  0  0  0
  183.8370  172.6070  137.2370 O   0  0  0  0  0  0  0  0  0  0  0  0
  185.6080  173.3400  135.7570 C   0  0  1  0  0  3  0  0  0  0  0  0
  183.1210  174.7440  138.2530 C   0  0  0  0  0  2  0  0  0  0  0  0
  182.9920  177.1950  138.8670 C   0  0  0  0  0  0  0  0  0  0  0  0
  182.9700  178.6160  138.4270 C   0  0  0  0  0  1  0  0  0  0  0  0
  183.1340  176.1570  137.8960 N   0  0  0  0  0  2  0  0  0  0  0  0
  182.8840  176.9210  140.0920 O   0  0  0  0  0  0  0  0  0  0  0  0
  188.9490  172.5010  134.5750 C   0  0  0  0  0  1  0  0  0  0  0  0
  187.6460  172.9910  134.3870 O   0  0  0  0  0  0  0  0  0  0  0  0
  1 13  1  0  0  0  0
  2  8  2  0  0  0  0
  3 14  1  0  0  0  0
  4  3  2  0  0  0  0
  5 10  2  0  0  0  0
  6 16  1  0  0  0  0
  8 17  1  0  0  0  0
  9  4  1  0  0  0  0
  9  1  2  0  0  0  0
 10  7  1  0  0  0  0
 10 32  1  0  0  0  0
 11  5  1  0  0  0  0
 12  2  1  0  0  0  0
 12  6  2  0  0  0  0
 13  3  1  0  0  0  0
 13  7  2  0  0  0  0
 15  1  1  0  0  0  0
 15  5  1  0  0  0  0
 16 17  1  0  0  0  0
 16 15  2  0  0  0  0
 17 11  2  0  0  0  0
 19 18  2  0  0  0  0
 19  2  1  0  0  0  0
 20 25  1  0  0  0  0
 21 23  1  0  0  0  0
 25 23  2  0  0  0  0
 25 24  1  0  0  0  0
 26 24  1  0  0  0  0
 26 18  1  1  0  0  0
 27 21  2  0  0  0  0
 28 26  1  0  0  0  0
 29 27  1  0  0  0  0
 29 20  2  0  0  0  0
 30 22  1  1  0  0  0
 30 20  1  0  0  0  0
 30 28  1  0  0  0  0
 31 32  2  0  0  0  0
 32 33  1  0  0  0  0
 33 34  1  0  0  0  0
 33 35  1  0  0  0  0
 34 35  1  0  0  0  0
 36  6  1  0  0  0  0
 37 36  1  0  0  0  0
 38 37  1  0  0  0  0
 39 38  1  0  0  0  0
 40 39  1  0  0  0  0
 42 41  2  0  0  0  0
 43 40  1  0  0  0  0
 43 42  1  0  0  0  0
 44 57  1  6  0  0  0
 44 42  1  0  0  0  0
 45 49  1  0  0  0  0
 46 48  1  0  0  0  0
 46 50  1  0  0  0  0
 47 49  1  0  0  0  0
 47 51  1  1  0  0  0
 48 47  1  0  0  0  0
 50 44  1  1  0  0  0
 50 45  1  0  0  0  0
 52 55  2  0  0  0  0
 53 52  1  0  0  0  0
 54 51  1  0  0  0  0
 54 52  1  0  0  0  0
 57 56  1  0  0  0  0
M  END
>  <MODEL>
3

>  <REMARK>
 VINA RESULT:      -8.3      1.510      3.414
  Name = 
  15 active torsions:
  status: ('A' for Active; 'I' for Inactive)
    1  A    between atoms: C_7  and  C_46
    2  A    between atoms: C_11  and  C_24
    3  A    between atoms: N_13  and  C_50
    4  A    between atoms: C_15  and  C_28
    5  A    between atoms: C_15  and  N_47
    6  A    between atoms: C_16  and  N_21
    7  A    between atoms: C_17  and  C_27
    8  A    between atoms: C_17  and  C_28
    9  A    between atoms: C_22  and  N_36
   10  A    between atoms: C_22  and  C_43
   11  A    between atoms: C_24  and  O_34
   12  A    between atoms: C_24  and  C_57
   13  A    between atoms: C_26  and  N_47
   14  A    between atoms: C_27  and  N_38
   15  A    between atoms: C_33  and  C_50
                            x       y       z     vdW  Elec       q    Type
                         _______ _______ _______ _____ _____    ______ ____

>  <TORSDO>
F 15

$$$$
=
 OpenBabel10232409143D

 57 64  0  0  1  0  0  0  0  0999 V2000
  186.6020  178.1890  142.7460 C   0  0  0  0  0  0  0  0  0  0  0  0
  190.5410  177.1600  139.2760 C   0  0  0  0  0  0  0  0  0  0  0  0
  184.9270  178.5440  144.1130 C   0  0  0  0  0  0  0  0  0  0  0  0
  184.4320  178.7490  142.7440 C   0  0  0  0  0  3  0  0  0  0  0  0
  188.7920  177.5420  143.5020 C   0  0  0  0  0  0  0  0  0  0  0  0
  188.3200  177.8440  139.8640 C   0  0  0  0  0  0  0  0  0  0  0  0
  187.0370  177.9360  145.0890 N   0  0  0  0  0  0  0  0  0  0  0  0
  190.8860  176.9970  140.6290 C   0  0  0  0  0  3  0  0  0  0  0  0
  185.4540  178.5300  141.9070 C   0  0  0  0  0  3  0  0  0  0  0  0
  188.3480  177.6040  144.8530 C   0  0  0  0  0  0  0  0  0  0  0  0
  189.9950  177.1780  143.0400 C   0  0  0  0  0  3  0  0  0  0  0  0
  189.2820  177.5790  138.9300 N   0  0  0  0  0  0  0  0  0  0  0  0
  186.2000  178.2190  144.0530 C   0  0  0  0  0  0  0  0  0  0  0  0
  184.1780  178.6650  145.2770 O   0  0  0  0  0  1  0  0  0  0  0  0
  187.9180  177.8450  142.4580 C   0  0  0  0  0  0  0  0  0  0  0  0
  188.6460  177.6690  141.2110 C   0  0  0  0  0  0  0  0  0  0  0  0
  189.9050  177.2610  141.5790 C   0  0  0  0  0  0  0  0  0  0  0  0
  192.1410  175.7470  138.1780 N   0  0  0  0  0  0  0  0  0  0  0  0
  191.5450  176.8920  138.2460 C   0  0  0  0  0  3  0  0  0  0  0  0
  195.6200  175.3970  135.7250 C   0  0  0  0  0  0  0  0  0  0  0  0
  197.3030  173.1640  135.9920 C   0  0  0  0  0  3  0  0  0  0  0  0
  195.4070  177.7320  135.2590 O   0  0  0  0  0  1  0  0  0  0  0  0
  196.2150  173.3260  136.8550 C   0  0  0  0  0  3  0  0  0  0  0  0
  194.2300  174.5810  137.6930 C   0  0  0  0  0  2  0  0  0  0  0  0
  195.3610  174.4240  136.7170 C   0  0  0  0  0  0  0  0  0  0  0  0
  193.1290  175.4880  137.1440 C   0  0  2  0  0  3  0  0  0  0  0  0
  197.5440  174.1060  134.9890 C   0  0  0  0  0  3  0  0  0  0  0  0
  193.7470  176.8010  136.6910 C   0  0  0  0  0  2  0  0  0  0  0  0
  196.7020  175.2140  134.8530 C   0  0  0  0  0  3  0  0  0  0  0  0
  194.6830  176.5650  135.5070 C   0  0  2  0  0  3  0  0  0  0  0  0
  190.7970  176.9090  145.8400 S   0  0  0  0  0  0  0  0  0  0  0  0
  189.2190  177.3210  146.0170 C   0  0  0  0  0  0  0  0  0  0  0  0
  188.7360  177.5970  147.3290 N   0  0  0  0  0  0  0  0  0  0  0  0
  188.7340  178.3770  148.6020 C   0  0  0  0  0  2  0  0  0  0  0  0
  187.8440  177.3280  148.4950 C   0  0  0  0  0  2  0  0  0  0  0  0
  187.0340  178.3210  139.4740 N   0  0  0  0  0  2  0  0  0  0  0  0
  186.6270  178.4380  138.0830 C   0  0  0  0  0  2  0  0  0  0  0  0
  186.3770  177.0560  137.5070 C   0  0  0  0  0  2  0  0  0  0  0  0
  185.3940  177.1510  136.3500 C   0  0  0  0  0  2  0  0  0  0  0  0
  185.0140  175.7700  135.8510 C   0  0  0  0  0  2  0  0  0  0  0  0
  182.5280  174.6100  135.1150 O   0  0  0  0  0  0  0  0  0  0  0  0
  182.8350  174.6050  136.3400 C   0  0  0  0  0  0  0  0  0  0  0  0
  184.0830  175.1420  136.7770 N   0  0  0  0  0  2  0  0  0  0  0  0
  181.9090  173.9810  137.3490 C   0  0  1  0  0  3  0  0  0  0  0  0
  181.6580  175.3160  139.4690 C   0  0  0  0  0  2  0  0  0  0  0  0
  180.9230  176.2300  137.3430 N   0  0  0  0  0  2  0  0  0  0  0  0
  180.6000  177.3750  139.5090 C   0  0  1  0  0  3  0  0  0  0  0  0
  180.0750  177.1630  138.0800 C   0  0  0  0  0  2  0  0  0  0  0  0
  180.8140  176.1660  140.2160 O   0  0  0  0  0  0  0  0  0  0  0  0
  181.0350  174.9920  138.1100 C   0  0  1  0  0  3  0  0  0  0  0  0
  181.7470  178.3840  139.6490 C   0  0  0  0  0  2  0  0  0  0  0  0
  182.3370  180.7080  138.8410 C   0  0  0  0  0  0  0  0  0  0  0  0
  181.8830  182.0590  138.4190 C   0  0  0  0  0  1  0  0  0  0  0  0
  181.3710  179.7140  139.1880 N   0  0  0  0  0  2  0  0  0  0  0  0
  183.5700  180.4520  138.8900 O   0  0  0  0  0  0  0  0  0  0  0  0
  180.1700  172.5220  137.7170 C   0  0  0  0  0  1  0  0  0  0  0  0
  181.1970  172.8750  136.8260 O   0  0  0  0  0  0  0  0  0  0  0  0
  1 13  1  0  0  0  0
  2  8  2  0  0  0  0
  3 14  1  0  0  0  0
  4  3  2  0  0  0  0
  5 10  2  0  0  0  0
  6 16  1  0  0  0  0
  8 17  1  0  0  0  0
  9  4  1  0  0  0  0
  9  1  2  0  0  0  0
 10  7  1  0  0  0  0
 10 32  1  0  0  0  0
 11  5  1  0  0  0  0
 12  2  1  0  0  0  0
 12  6  2  0  0  0  0
 13  3  1  0  0  0  0
 13  7  2  0  0  0  0
 15  1  1  0  0  0  0
 15  5  1  0  0  0  0
 16 17  1  0  0  0  0
 16 15  2  0  0  0  0
 17 11  2  0  0  0  0
 18 19  2  0  0  0  0
 19  2  1  0  0  0  0
 20 25  1  0  0  0  0
 21 23  1  0  0  0  0
 25 23  2  0  0  0  0
 25 24  1  0  0  0  0
 26 24  1  0  0  0  0
 26 18  1  1  0  0  0
 27 21  2  0  0  0  0
 28 26  1  0  0  0  0
 29 27  1  0  0  0  0
 29 20  2  0  0  0  0
 30 22  1  1  0  0  0
 30 20  1  0  0  0  0
 30 28  1  0  0  0  0
 31 32  2  0  0  0  0
 32 33  1  0  0  0  0
 33 35  1  0  0  0  0
 33 34  1  0  0  0  0
 35 34  1  0  0  0  0
 36  6  1  0  0  0  0
 37 36  1  0  0  0  0
 38 37  1  0  0  0  0
 39 38  1  0  0  0  0
 40 39  1  0  0  0  0
 40 43  1  0  0  0  0
 41 42  2  0  0  0  0
 42 43  1  0  0  0  0
 44 42  1  6  0  0  0
 45 49  1  0  0  0  0
 46 48  1  0  0  0  0
 46 50  1  0  0  0  0
 47 51  1  6  0  0  0
 47 49  1  0  0  0  0
 48 47  1  0  0  0  0
 50 44  1  6  0  0  0
 50 45  1  0  0  0  0
 52 55  2  0  0  0  0
 52 54  1  0  0  0  0
 53 52  1  0  0  0  0
 54 51  1  0  0  0  0
 57 44  1  0  0  0  0
 57 56  1  0  0  0  0
M  END
>  <MODEL>
4

>  <REMARK>
 VINA RESULT:      -8.0      1.864      3.501
  Name = 
  15 active torsions:
  status: ('A' for Active; 'I' for Inactive)
    1  A    between atoms: C_7  and  C_46
    2  A    between atoms: C_11  and  C_24
    3  A    between atoms: N_13  and  C_50
    4  A    between atoms: C_15  and  C_28
    5  A    between atoms: C_15  and  N_47
    6  A    between atoms: C_16  and  N_21
    7  A    between atoms: C_17  and  C_27
    8  A    between atoms: C_17  and  C_28
    9  A    between atoms: C_22  and  N_36
   10  A    between atoms: C_22  and  C_43
   11  A    between atoms: C_24  and  O_34
   12  A    between atoms: C_24  and  C_57
   13  A    between atoms: C_26  and  N_47
   14  A    between atoms: C_27  and  N_38
   15  A    between atoms: C_33  and  C_50
                            x       y       z     vdW  Elec       q    Type
                         _______ _______ _______ _____ _____    ______ ____

>  <TORSDO>
F 15

$$$$
=
 OpenBabel10232409143D

 57 64  0  0  1  0  0  0  0  0999 V2000
  186.8020  178.1680  142.7550 C   0  0  0  0  0  0  0  0  0  0  0  0
  190.8930  177.0830  139.4830 C   0  0  0  0  0  0  0  0  0  0  0  0
  185.0670  178.5460  144.0380 C   0  0  0  0  0  0  0  0  0  0  0  0
  184.6400  178.7450  142.6460 C   0  0  0  0  0  3  0  0  0  0  0  0
  188.9490  177.5080  143.6180 C   0  0  0  0  0  0  0  0  0  0  0  0
  188.6520  177.7890  139.9600 C   0  0  0  0  0  0  0  0  0  0  0  0
  187.1240  177.9280  145.1180 N   0  0  0  0  0  0  0  0  0  0  0  0
  191.1720  176.9260  140.8510 C   0  0  0  0  0  3  0  0  0  0  0  0
  185.6980  178.5120  141.8600 C   0  0  0  0  0  3  0  0  0  0  0  0
  188.4420  177.5840  144.9460 C   0  0  0  0  0  0  0  0  0  0  0  0
  190.1690  177.1320  143.2160 C   0  0  0  0  0  3  0  0  0  0  0  0
  189.6540  177.5090  139.0740 N   0  0  0  0  0  0  0  0  0  0  0  0
  186.3390  178.2100  144.0410 C   0  0  0  0  0  0  0  0  0  0  0  0
  184.2660  178.6810  145.1640 O   0  0  0  0  0  1  0  0  0  0  0  0
  188.1270  177.8110  142.5320 C   0  0  0  0  0  0  0  0  0  0  0  0
  188.9120  177.6210  141.3220 C   0  0  0  0  0  0  0  0  0  0  0  0
  190.1490  177.2050  141.7520 C   0  0  0  0  0  0  0  0  0  0  0  0
  192.1760  175.5910  138.1070 N   0  0  0  0  0  0  0  0  0  0  0  0
  191.9420  176.7990  138.5040 C   0  0  0  0  0  3  0  0  0  0  0  0
  195.7650  175.2480  135.8180 C   0  0  0  0  0  0  0  0  0  0  0  0
  197.4890  173.0700  136.2360 C   0  0  0  0  0  3  0  0  0  0  0  0
  195.5140  177.5580  135.2590 O   0  0  0  0  0  1  0  0  0  0  0  0
  196.3610  173.2330  137.0450 C   0  0  0  0  0  3  0  0  0  0  0  0
  194.3120  174.4640  137.7530 C   0  0  0  0  0  2  0  0  0  0  0  0
  195.4870  174.3030  136.8320 C   0  0  0  0  0  0  0  0  0  0  0  0
  193.2140  175.3220  137.1260 C   0  0  2  0  0  3  0  0  0  0  0  0
  197.7500  173.9820  135.2100 C   0  0  0  0  0  3  0  0  0  0  0  0
  193.8180  176.6350  136.6520 C   0  0  0  0  0  2  0  0  0  0  0  0
  196.8880  175.0620  134.9990 C   0  0  0  0  0  3  0  0  0  0  0  0
  194.8100  176.3820  135.5180 C   0  0  2  0  0  3  0  0  0  0  0  0
  190.8310  176.8610  146.0520 S   0  0  0  0  0  0  0  0  0  0  0  0
  189.2540  177.3020  146.1520 C   0  0  0  0  0  0  0  0  0  0  0  0
  188.7180  177.6060  147.4370 N   0  0  0  0  0  0  0  0  0  0  0  0
  188.6200  178.4490  148.6650 C   0  0  0  0  0  2  0  0  0  0  0  0
  187.8230  177.3250  148.5980 C   0  0  0  0  0  2  0  0  0  0  0  0
  187.3900  178.2720  139.5060 N   0  0  0  0  0  2  0  0  0  0  0  0
  187.0210  178.3110  138.1000 C   0  0  0  0  0  2  0  0  0  0  0  0
  186.2760  177.0410  137.7330 C   0  0  0  0  0  2  0  0  0  0  0  0
  184.8200  177.3660  137.4380 C   0  0  0  0  0  2  0  0  0  0  0  0
  184.2750  178.3630  138.4430 C   0  0  0  0  0  2  0  0  0  0  0  0
  181.7060  179.5470  138.2010 O   0  0  0  0  0  0  0  0  0  0  0  0
  181.8050  178.5100  138.9140 C   0  0  0  0  0  0  0  0  0  0  0  0
  183.0600  177.8450  139.0540 N   0  0  0  0  0  2  0  0  0  0  0  0
  180.5870  177.9310  139.5830 C   0  0  1  0  0  3  0  0  0  0  0  0
  180.5020  176.5210  137.4980 C   0  0  0  0  0  2  0  0  0  0  0  0
  180.7250  175.4810  139.6820 N   0  0  0  0  0  2  0  0  0  0  0  0
  180.4830  174.2070  137.5780 C   0  0  1  0  0  3  0  0  0  0  0  0
  180.2400  174.2350  139.0970 C   0  0  0  0  0  2  0  0  0  0  0  0
  179.9820  175.3490  136.9070 O   0  0  0  0  0  0  0  0  0  0  0  0
  180.1090  176.6020  138.9750 C   0  0  1  0  0  3  0  0  0  0  0  0
  181.8970  173.8050  137.1420 C   0  0  0  0  0  2  0  0  0  0  0  0
  183.1800  171.6410  136.8600 C   0  0  0  0  0  0  0  0  0  0  0  0
  183.1990  170.2270  136.4010 C   0  0  0  0  0  1  0  0  0  0  0  0
  181.9760  172.4030  136.7500 N   0  0  0  0  0  2  0  0  0  0  0  0
  184.2240  172.1550  137.3430 O   0  0  0  0  0  0  0  0  0  0  0  0
  180.7380  179.2440  141.4640 C   0  0  0  0  0  1  0  0  0  0  0  0
  180.6910  177.9220  140.9940 O   0  0  0  0  0  0  0  0  0  0  0  0
  1 13  1  0  0  0  0
  2  8  2  0  0  0  0
  3 13  1  0  0  0  0
  3 14  1  0  0  0  0
  4  3  2  0  0  0  0
  5 10  2  0  0  0  0
  6 16  1  0  0  0  0
  8 17  1  0  0  0  0
  9  4  1  0  0  0  0
  9  1  2  0  0  0  0
 10  7  1  0  0  0  0
 10 32  1  0  0  0  0
 11  5  1  0  0  0  0
 12  2  1  0  0  0  0
 12  6  2  0  0  0  0
 13  7  2  0  0  0  0
 15  1  1  0  0  0  0
 15  5  1  0  0  0  0
 16 17  1  0  0  0  0
 16 15  2  0  0  0  0
 17 11  2  0  0  0  0
 18 19  2  0  0  0  0
 19  2  1  0  0  0  0
 20 25  1  0  0  0  0
 21 23  1  0  0  0  0
 25 23  2  0  0  0  0
 25 24  1  0  0  0  0
 26 24  1  0  0  0  0
 26 18  1  1  0  0  0
 27 21  2  0  0  0  0
 28 26  1  0  0  0  0
 29 27  1  0  0  0  0
 29 20  2  0  0  0  0
 30 22  1  1  0  0  0
 30 20  1  0  0  0  0
 30 28  1  0  0  0  0
 31 32  2  0  0  0  0
 32 33  1  0  0  0  0
 33 35  1  0  0  0  0
 33 34  1  0  0  0  0
 35 34  1  0  0  0  0
 36  6  1  0  0  0  0
 37 36  1  0  0  0  0
 38 37  1  0  0  0  0
 39 38  1  0  0  0  0
 39 40  1  0  0  0  0
 40 43  1  0  0  0  0
 41 42  2  0  0  0  0
 42 43  1  0  0  0  0
 44 42  1  6  0  0  0
 44 57  1  0  0  0  0
 45 50  1  0  0  0  0
 47 51  1  1  0  0  0
 47 48  1  0  0  0  0
 48 46  1  0  0  0  0
 49 45  1  0  0  0  0
 49 47  1  0  0  0  0
 50 44  1  1  0  0  0
 50 46  1  0  0  0  0
 52 55  2  0  0  0  0
 53 52  1  0  0  0  0
 54 52  1  0  0  0  0
 54 51  1  0  0  0  0
 57 56  1  0  0  0  0
M  END
>  <MODEL>
5

>  <REMARK>
 VINA RESULT:      -8.0      2.036      3.655
  Name = 
  15 active torsions:
  status: ('A' for Active; 'I' for Inactive)
    1  A    between atoms: C_7  and  C_46
    2  A    between atoms: C_11  and  C_24
    3  A    between atoms: N_13  and  C_50
    4  A    between atoms: C_15  and  C_28
    5  A    between atoms: C_15  and  N_47
    6  A    between atoms: C_16  and  N_21
    7  A    between atoms: C_17  and  C_27
    8  A    between atoms: C_17  and  C_28
    9  A    between atoms: C_22  and  N_36
   10  A    between atoms: C_22  and  C_43
   11  A    between atoms: C_24  and  O_34
   12  A    between atoms: C_24  and  C_57
   13  A    between atoms: C_26  and  N_47
   14  A    between atoms: C_27  and  N_38
   15  A    between atoms: C_33  and  C_50
                            x       y       z     vdW  Elec       q    Type
                         _______ _______ _______ _____ _____    ______ ____

>  <TORSDO>
F 15

$$$$
=
 OpenBabel10232409143D

 57 64  0  0  1  0  0  0  0  0999 V2000
  186.6880  176.0100  137.1720 C   0  0  0  0  0  0  0  0  0  0  0  0
  191.7780  174.3670  137.0830 C   0  0  0  0  0  0  0  0  0  0  0  0
  184.6330  176.7690  137.1540 C   0  0  0  0  0  0  0  0  0  0  0  0
  185.4990  177.8490  137.6460 C   0  0  0  0  0  3  0  0  0  0  0  0
  187.2700  173.7920  136.4440 C   0  0  0  0  0  0  0  0  0  0  0  0
  190.0400  175.9520  137.5430 C   0  0  0  0  0  0  0  0  0  0  0  0
  184.9810  174.5090  136.4110 N   0  0  0  0  0  0  0  0  0  0  0  0
  190.8430  173.4210  136.6300 C   0  0  0  0  0  3  0  0  0  0  0  0
  186.7560  177.3880  137.6550 C   0  0  0  0  0  3  0  0  0  0  0  0
  185.8980  173.5140  136.1850 C   0  0  0  0  0  0  0  0  0  0  0  0
  188.3310  173.0030  136.2330 C   0  0  0  0  0  3  0  0  0  0  0  0
  191.3590  175.5950  137.5270 N   0  0  0  0  0  0  0  0  0  0  0  0
  185.3810  175.7190  136.8930 C   0  0  0  0  0  0  0  0  0  0  0  0
  183.2560  176.8410  136.9840 O   0  0  0  0  0  1  0  0  0  0  0  0
  187.6540  175.0360  136.9450 C   0  0  0  0  0  0  0  0  0  0  0  0
  189.1020  175.0270  137.0800 C   0  0  0  0  0  0  0  0  0  0  0  0
  189.5010  173.7870  136.6410 C   0  0  0  0  0  0  0  0  0  0  0  0
  193.9160  174.1310  136.0180 N   0  0  0  0  0  0  0  0  0  0  0  0
  193.1990  174.0190  137.0870 C   0  0  0  0  0  3  0  0  0  0  0  0
  197.9560  173.1350  136.9820 C   0  0  0  0  0  0  0  0  0  0  0  0
  198.7000  170.4440  137.2890 C   0  0  0  0  0  3  0  0  0  0  0  0
  198.2550  175.4100  137.6490 O   0  0  0  0  0  1  0  0  0  0  0  0
  197.3610  170.7770  137.0630 C   0  0  0  0  0  3  0  0  0  0  0  0
  195.5300  172.4280  136.6940 C   0  0  0  0  0  2  0  0  0  0  0  0
  196.9850  172.1120  136.8900 C   0  0  0  0  0  0  0  0  0  0  0  0
  195.3300  173.7930  136.0360 C   0  0  2  0  0  3  0  0  0  0  0  0
  199.6680  171.4480  137.3470 C   0  0  0  0  0  3  0  0  0  0  0  0
  196.0930  174.8420  136.8280 C   0  0  0  0  0  2  0  0  0  0  0  0
  199.2990  172.7870  137.1880 C   0  0  0  0  0  3  0  0  0  0  0  0
  197.5960  174.5840  136.7380 C   0  0  2  0  0  3  0  0  0  0  0  0
  186.2870  171.3000  134.6340 S   0  0  0  0  0  0  0  0  0  0  0  0
  185.4070  172.2120  135.6750 C   0  0  0  0  0  0  0  0  0  0  0  0
  184.2320  171.6420  136.2460 N   0  0  0  0  0  0  0  0  0  0  0  0
  182.9860  171.7190  137.0640 C   0  0  0  0  0  2  0  0  0  0  0  0
  183.2980  170.5040  136.4890 C   0  0  0  0  0  2  0  0  0  0  0  0
  189.6330  177.2200  138.0520 N   0  0  0  0  0  2  0  0  0  0  0  0
  190.2810  177.8580  139.1870 C   0  0  0  0  0  2  0  0  0  0  0  0
  189.4420  177.6530  140.4350 C   0  0  0  0  0  2  0  0  0  0  0  0
  190.0680  176.5750  141.3050 C   0  0  0  0  0  2  0  0  0  0  0  0
  191.3010  177.1030  142.0140 C   0  0  0  0  0  2  0  0  0  0  0  0
  190.9380  179.2000  143.8920 O   0  0  0  0  0  0  0  0  0  0  0  0
  191.0190  178.0230  144.3410 C   0  0  0  0  0  0  0  0  0  0  0  0
  191.1700  176.9170  143.4510 N   0  0  0  0  0  2  0  0  0  0  0  0
  190.9030  177.7670  145.8200 C   0  0  1  0  0  3  0  0  0  0  0  0
  189.0060  178.1140  147.4390 C   0  0  0  0  0  2  0  0  0  0  0  0
  188.5660  177.3960  145.1620 N   0  0  0  0  0  2  0  0  0  0  0  0
  186.8110  177.6300  146.8860 C   0  0  1  0  0  3  0  0  0  0  0  0
  187.2650  176.9060  145.6070 C   0  0  0  0  0  2  0  0  0  0  0  0
  187.7790  177.6070  147.9190 O   0  0  0  0  0  0  0  0  0  0  0  0
  189.5150  177.2750  146.2650 C   0  0  1  0  0  3  0  0  0  0  0  0
  186.1660  179.0050  146.6730 C   0  0  0  0  0  2  0  0  0  0  0  0
  184.3790  179.0200  144.8810 C   0  0  0  0  0  0  0  0  0  0  0  0
  182.9380  178.9480  144.5240 C   0  0  0  0  0  1  0  0  0  0  0  0
  184.7750  178.9030  146.2480 N   0  0  0  0  0  2  0  0  0  0  0  0
  185.2380  179.1840  143.9740 O   0  0  0  0  0  0  0  0  0  0  0  0
  191.4930  176.0810  147.2670 C   0  0  0  0  0  1  0  0  0  0  0  0
  191.9810  177.0050  146.3290 O   0  0  0  0  0  0  0  0  0  0  0  0
  1  9  1  0  0  0  0
  2 19  1  0  0  0  0
  2 12  1  0  0  0  0
  3  4  1  0  0  0  0
  4  9  2  0  0  0  0
  5 15  1  0  0  0  0
  6 36  1  0  0  0  0
  7 13  1  0  0  0  0
  8 17  1  0  0  0  0
  8  2  2  0  0  0  0
 10  7  2  0  0  0  0
 10  5  1  0  0  0  0
 11  5  2  0  0  0  0
 11 17  1  0  0  0  0
 12  6  2  0  0  0  0
 13  3  2  0  0  0  0
 13  1  1  0  0  0  0
 14  3  1  0  0  0  0
 15 16  1  0  0  0  0
 15  1  2  0  0  0  0
 16  6  1  0  0  0  0
 17 16  2  0  0  0  0
 18 19  2  0  0  0  0
 20 29  1  0  0  0  0
 21 27  1  0  0  0  0
 23 21  2  0  0  0  0
 24 25  1  0  0  0  0
 25 20  2  0  0  0  0
 25 23  1  0  0  0  0
 26 18  1  1  0  0  0
 26 24  1  0  0  0  0
 26 28  1  0  0  0  0
 29 27  2  0  0  0  0
 30 28  1  0  0  0  0
 30 20  1  0  0  0  0
 30 22  1  1  0  0  0
 31 32  2  0  0  0  0
 32 10  1  0  0  0  0
 32 33  1  0  0  0  0
 33 35  1  0  0  0  0
 33 34  1  0  0  0  0
 35 34  1  0  0  0  0
 36 37  1  0  0  0  0
 37 38  1  0  0  0  0
 38 39  1  0  0  0  0
 39 40  1  0  0  0  0
 40 43  1  0  0  0  0
 41 42  2  0  0  0  0
 43 42  1  0  0  0  0
 44 42  1  6  0  0  0
 44 57  1  0  0  0  0
 45 49  1  0  0  0  0
 46 48  1  0  0  0  0
 46 50  1  0  0  0  0
 47 51  1  6  0  0  0
 47 49  1  0  0  0  0
 48 47  1  0  0  0  0
 50 44  1  6  0  0  0
 50 45  1  0  0  0  0
 52 54  1  0  0  0  0
 53 52  1  0  0  0  0
 54 51  1  0  0  0  0
 55 52  2  0  0  0  0
 57 56  1  0  0  0  0
M  END
>  <MODEL>
6

>  <REMARK>
 VINA RESULT:      -7.7      3.211      8.948
  Name = 
  15 active torsions:
  status: ('A' for Active; 'I' for Inactive)
    1  A    between atoms: C_7  and  C_46
    2  A    between atoms: C_11  and  C_24
    3  A    between atoms: N_13  and  C_50
    4  A    between atoms: C_15  and  C_28
    5  A    between atoms: C_15  and  N_47
    6  A    between atoms: C_16  and  N_21
    7  A    between atoms: C_17  and  C_27
    8  A    between atoms: C_17  and  C_28
    9  A    between atoms: C_22  and  N_36
   10  A    between atoms: C_22  and  C_43
   11  A    between atoms: C_24  and  O_34
   12  A    between atoms: C_24  and  C_57
   13  A    between atoms: C_26  and  N_47
   14  A    between atoms: C_27  and  N_38
   15  A    between atoms: C_33  and  C_50
                            x       y       z     vdW  Elec       q    Type
                         _______ _______ _______ _____ _____    ______ ____

>  <TORSDO>
F 15

$$$$
=
 OpenBabel10232409143D

 57 64  0  0  1  0  0  0  0  0999 V2000
  184.8720  177.3150  137.7790 C   0  0  0  0  0  0  0  0  0  0  0  0
  189.5580  175.3980  136.0530 C   0  0  0  0  0  0  0  0  0  0  0  0
  182.9790  178.1930  138.4470 C   0  0  0  0  0  0  0  0  0  0  0  0
  184.0630  179.0620  138.9250 C   0  0  0  0  0  3  0  0  0  0  0  0
  184.9890  175.3020  136.4650 C   0  0  0  0  0  0  0  0  0  0  0  0
  188.1850  176.9410  137.2690 C   0  0  0  0  0  0  0  0  0  0  0  0
  182.8610  176.1610  137.1690 N   0  0  0  0  0  0  0  0  0  0  0  0
  188.4330  174.6550  135.6570 C   0  0  0  0  0  3  0  0  0  0  0  0
  185.2210  178.5280  138.5160 C   0  0  0  0  0  3  0  0  0  0  0  0
  183.5700  175.1880  136.5080 C   0  0  0  0  0  0  0  0  0  0  0  0
  185.8650  174.5170  135.8280 C   0  0  0  0  0  3  0  0  0  0  0  0
  189.4100  176.5090  136.8430 N   0  0  0  0  0  0  0  0  0  0  0  0
  183.5100  177.1890  137.7840 C   0  0  0  0  0  0  0  0  0  0  0  0
  181.6210  178.3980  138.6510 O   0  0  0  0  0  1  0  0  0  0  0  0
  185.6300  176.3600  137.1110 C   0  0  0  0  0  0  0  0  0  0  0  0
  187.0570  176.2200  136.8690 C   0  0  0  0  0  0  0  0  0  0  0  0
  187.1860  175.0980  136.0860 C   0  0  0  0  0  0  0  0  0  0  0  0
  191.9330  175.2030  136.3420 N   0  0  0  0  0  0  0  0  0  0  0  0
  190.8870  174.9640  135.6220 C   0  0  0  0  0  3  0  0  0  0  0  0
  196.0420  174.1130  135.9280 C   0  0  0  0  0  0  0  0  0  0  0  0
  196.8740  171.5110  136.5850 C   0  0  0  0  0  3  0  0  0  0  0  0
  196.5520  176.4460  135.8500 O   0  0  0  0  0  1  0  0  0  0  0  0
  195.5480  171.8970  136.8050 C   0  0  0  0  0  3  0  0  0  0  0  0
  193.6990  173.5700  136.7580 C   0  0  0  0  0  2  0  0  0  0  0  0
  195.1210  173.1840  136.4630 C   0  0  0  0  0  0  0  0  0  0  0  0
  193.2470  174.7580  135.9090 C   0  0  2  0  0  3  0  0  0  0  0  0
  197.7790  172.4150  136.0250 C   0  0  0  0  0  3  0  0  0  0  0  0
  194.2460  175.8920  136.0710 C   0  0  0  0  0  2  0  0  0  0  0  0
  197.3640  173.7080  135.6920 C   0  0  0  0  0  3  0  0  0  0  0  0
  195.6010  175.4920  135.4880 C   0  0  2  0  0  3  0  0  0  0  0  0
  182.0150  174.2870  134.4520 S   0  0  0  0  0  0  0  0  0  0  0  0
  182.8160  174.0840  135.8700 C   0  0  0  0  0  0  0  0  0  0  0  0
  182.9420  172.7640  136.3910 N   0  0  0  0  0  0  0  0  0  0  0  0
  183.7360  171.6390  136.9670 C   0  0  0  0  0  2  0  0  0  0  0  0
  182.3840  171.4360  136.7810 C   0  0  0  0  0  2  0  0  0  0  0  0
  188.0680  178.0740  138.1270 N   0  0  0  0  0  2  0  0  0  0  0  0
  189.2160  178.7150  138.7450 C   0  0  0  0  0  2  0  0  0  0  0  0
  189.5820  177.9850  140.0240 C   0  0  0  0  0  2  0  0  0  0  0  0
  188.3170  177.5980  140.7750 C   0  0  0  0  0  2  0  0  0  0  0  0
  187.7950  178.7670  141.5900 C   0  0  0  0  0  2  0  0  0  0  0  0
  185.4870  180.2920  142.2320 O   0  0  0  0  0  0  0  0  0  0  0  0
  185.6060  179.1570  142.7730 C   0  0  0  0  0  0  0  0  0  0  0  0
  186.7250  178.3240  142.4700 N   0  0  0  0  0  2  0  0  0  0  0  0
  184.5380  178.6470  143.7030 C   0  0  1  0  0  3  0  0  0  0  0  0
  186.2870  177.2840  144.8960 C   0  0  0  0  0  2  0  0  0  0  0  0
  185.4560  179.3470  145.8700 N   0  0  0  0  0  2  0  0  0  0  0  0
  187.0580  177.8460  147.0050 C   0  0  1  0  0  3  0  0  0  0  0  0
  185.9340  178.8820  147.1700 C   0  0  0  0  0  2  0  0  0  0  0  0
  186.7170  176.7770  146.1410 O   0  0  0  0  0  0  0  0  0  0  0  0
  185.0650  178.1870  145.0730 C   0  0  1  0  0  3  0  0  0  0  0  0
  188.4570  178.4240  146.7520 C   0  0  0  0  0  2  0  0  0  0  0  0
  190.5680  177.0450  146.5420 C   0  0  0  0  0  0  0  0  0  0  0  0
  191.5850  176.1720  147.1870 C   0  0  0  0  0  1  0  0  0  0  0  0
  189.5090  177.5950  147.3270 N   0  0  0  0  0  2  0  0  0  0  0  0
  190.6500  177.2910  145.3090 O   0  0  0  0  0  0  0  0  0  0  0  0
  182.2410  178.7360  143.7640 C   0  0  0  0  0  1  0  0  0  0  0  0
  183.4160  179.5060  143.7700 O   0  0  0  0  0  0  0  0  0  0  0  0
  1 13  1  0  0  0  0
  1  9  1  0  0  0  0
  2 12  1  0  0  0  0
  3 14  1  0  0  0  0
  3  4  1  0  0  0  0
  5 10  1  0  0  0  0
  5 15  1  0  0  0  0
  6 36  1  0  0  0  0
  7 13  1  0  0  0  0
  8  2  2  0  0  0  0
  8 17  1  0  0  0  0
  9  4  2  0  0  0  0
 10  7  2  0  0  0  0
 11 17  1  0  0  0  0
 11  5  2  0  0  0  0
 12  6  2  0  0  0  0
 13  3  2  0  0  0  0
 15  1  2  0  0  0  0
 16 15  1  0  0  0  0
 16  6  1  0  0  0  0
 17 16  2  0  0  0  0
 19  2  1  0  0  0  0
 19 18  2  0  0  0  0
 20 25  1  0  0  0  0
 21 23  1  0  0  0  0
 25 24  1  0  0  0  0
 25 23  2  0  0  0  0
 26 28  1  0  0  0  0
 26 18  1  1  0  0  0
 26 24  1  0  0  0  0
 27 21  2  0  0  0  0
 29 20  2  0  0  0  0
 29 27  1  0  0  0  0
 30 22  1  1  0  0  0
 30 20  1  0  0  0  0
 30 28  1  0  0  0  0
 31 32  2  0  0  0  0
 32 33  1  0  0  0  0
 32 10  1  0  0  0  0
 33 35  1  0  0  0  0
 33 34  1  0  0  0  0
 35 34  1  0  0  0  0
 36 37  1  0  0  0  0
 37 38  1  0  0  0  0
 38 39  1  0  0  0  0
 39 40  1  0  0  0  0
 40 43  1  0  0  0  0
 41 42  2  0  0  0  0
 43 42  1  0  0  0  0
 44 42  1  1  0  0  0
 44 57  1  0  0  0  0
 45 50  1  0  0  0  0
 45 49  1  0  0  0  0
 46 48  1  0  0  0  0
 47 51  1  6  0  0  0
 47 48  1  0  0  0  0
 49 47  1  0  0  0  0
 50 44  1  6  0  0  0
 50 46  1  0  0  0  0
 51 54  1  0  0  0  0
 52 53  1  0  0  0  0
 52 54  1  0  0  0  0
 55 52  2  0  0  0  0
 56 57  1  0  0  0  0
M  END
>  <MODEL>
7

>  <REMARK>
 VINA RESULT:      -6.8      2.924      7.882
  Name = 
  15 active torsions:
  status: ('A' for Active; 'I' for Inactive)
    1  A    between atoms: C_7  and  C_46
    2  A    between atoms: C_11  and  C_24
    3  A    between atoms: N_13  and  C_50
    4  A    between atoms: C_15  and  C_28
    5  A    between atoms: C_15  and  N_47
    6  A    between atoms: C_16  and  N_21
    7  A    between atoms: C_17  and  C_27
    8  A    between atoms: C_17  and  C_28
    9  A    between atoms: C_22  and  N_36
   10  A    between atoms: C_22  and  C_43
   11  A    between atoms: C_24  and  O_34
   12  A    between atoms: C_24  and  C_57
   13  A    between atoms: C_26  and  N_47
   14  A    between atoms: C_27  and  N_38
   15  A    between atoms: C_33  and  C_50
                            x       y       z     vdW  Elec       q    Type
                         _______ _______ _______ _____ _____    ______ ____

>  <TORSDO>
F 15

$$$$
=
 OpenBabel10232409143D

 57 64  0  0  1  0  0  0  0  0999 V2000
  184.1800  177.4240  137.6010 C   0  0  0  0  0  0  0  0  0  0  0  0
  188.9890  175.4300  136.3710 C   0  0  0  0  0  0  0  0  0  0  0  0
  182.2380  178.3310  138.0580 C   0  0  0  0  0  0  0  0  0  0  0  0
  183.2810  179.2520  138.5340 C   0  0  0  0  0  3  0  0  0  0  0  0
  184.4030  175.3090  136.4750 C   0  0  0  0  0  0  0  0  0  0  0  0
  187.5230  177.0520  137.3530 C   0  0  0  0  0  0  0  0  0  0  0  0
  182.2250  176.1960  136.9540 N   0  0  0  0  0  0  0  0  0  0  0  0
  187.8990  174.6400  135.9640 C   0  0  0  0  0  3  0  0  0  0  0  0
  184.4680  178.7000  138.2530 C   0  0  0  0  0  3  0  0  0  0  0  0
  182.9860  175.1800  136.4300 C   0  0  0  0  0  0  0  0  0  0  0  0
  185.3270  174.4840  135.9690 C   0  0  0  0  0  3  0  0  0  0  0  0
  188.7770  176.6020  137.0510 N   0  0  0  0  0  0  0  0  0  0  0  0
  182.8210  177.2810  137.5220 C   0  0  0  0  0  0  0  0  0  0  0  0
  180.8680  178.5340  138.1500 O   0  0  0  0  0  1  0  0  0  0  0  0
  184.9900  176.4260  137.0700 C   0  0  0  0  0  0  0  0  0  0  0  0
  186.4310  176.2850  136.9400 C   0  0  0  0  0  0  0  0  0  0  0  0
  186.6230  175.1030  136.2670 C   0  0  0  0  0  0  0  0  0  0  0  0
  191.3770  175.6520  136.4660 N   0  0  0  0  0  0  0  0  0  0  0  0
  190.3480  174.9780  136.0710 C   0  0  0  0  0  3  0  0  0  0  0  0
  195.5530  174.7640  136.3560 C   0  0  0  0  0  0  0  0  0  0  0  0
  196.5460  172.5270  137.7350 C   0  0  0  0  0  3  0  0  0  0  0  0
  195.9100  177.0030  135.6000 O   0  0  0  0  0  1  0  0  0  0  0  0
  195.1950  172.8720  137.8430 C   0  0  0  0  0  3  0  0  0  0  0  0
  193.2410  174.3320  137.3260 C   0  0  0  0  0  2  0  0  0  0  0  0
  194.6880  173.9720  137.1450 C   0  0  0  0  0  0  0  0  0  0  0  0
  192.7230  175.1890  136.1720 C   0  0  2  0  0  3  0  0  0  0  0  0
  197.3970  173.2870  136.9300 C   0  0  0  0  0  3  0  0  0  0  0  0
  193.6430  176.3850  135.9890 C   0  0  0  0  0  2  0  0  0  0  0  0
  196.9020  174.3970  136.2390 C   0  0  0  0  0  3  0  0  0  0  0  0
  195.0280  175.9240  135.5380 C   0  0  2  0  0  3  0  0  0  0  0  0
  181.5580  174.0960  134.3700 S   0  0  0  0  0  0  0  0  0  0  0  0
  182.2850  174.0160  135.8380 C   0  0  0  0  0  0  0  0  0  0  0  0
  182.4070  172.7410  136.4640 N   0  0  0  0  0  0  0  0  0  0  0  0
  181.9130  171.6530  137.3580 C   0  0  0  0  0  2  0  0  0  0  0  0
  183.1280  171.4630  136.7330 C   0  0  0  0  0  2  0  0  0  0  0  0
  187.3380  178.2520  138.1000 N   0  0  0  0  0  2  0  0  0  0  0  0
  188.3570  178.7940  138.9850 C   0  0  0  0  0  2  0  0  0  0  0  0
  188.0470  178.4040  140.4190 C   0  0  0  0  0  2  0  0  0  0  0  0
  186.5440  178.4260  140.6450 C   0  0  0  0  0  2  0  0  0  0  0  0
  186.2030  179.1450  141.9370 C   0  0  0  0  0  2  0  0  0  0  0  0
  184.7770  178.2060  144.2060 O   0  0  0  0  0  0  0  0  0  0  0  0
  186.0280  178.0350  144.1910 C   0  0  0  0  0  0  0  0  0  0  0  0
  186.8030  178.4530  143.0680 N   0  0  0  0  0  2  0  0  0  0  0  0
  186.7090  177.3360  145.3360 C   0  0  1  0  0  3  0  0  0  0  0  0
  188.2830  176.2390  143.7050 C   0  0  0  0  0  2  0  0  0  0  0  0
  189.0060  178.1470  145.0210 N   0  0  0  0  0  2  0  0  0  0  0  0
  190.4940  176.8930  143.4990 C   0  0  1  0  0  3  0  0  0  0  0  0
  190.3880  177.7480  144.7730 C   0  0  0  0  0  2  0  0  0  0  0  0
  189.6040  175.7920  143.4840 O   0  0  0  0  0  0  0  0  0  0  0  0
  188.1710  176.9490  145.0560 C   0  0  1  0  0  3  0  0  0  0  0  0
  190.5330  177.6740  142.1790 C   0  0  0  0  0  2  0  0  0  0  0  0
  192.0890  177.2720  140.2250 C   0  0  0  0  0  0  0  0  0  0  0  0
  193.4760  177.2560  139.6880 C   0  0  0  0  0  1  0  0  0  0  0  0
  191.8600  177.6740  141.5770 N   0  0  0  0  0  2  0  0  0  0  0  0
  191.1290  176.9310  139.4840 O   0  0  0  0  0  0  0  0  0  0  0  0
  187.5620  177.6710  147.4450 C   0  0  0  0  0  1  0  0  0  0  0  0
  186.5090  177.9920  146.5740 O   0  0  0  0  0  0  0  0  0  0  0  0
  1  9  1  0  0  0  0
  2 12  1  0  0  0  0
  3 14  1  0  0  0  0
  3  4  1  0  0  0  0
  5 15  1  0  0  0  0
  6 36  1  0  0  0  0
  7 13  1  0  0  0  0
  8 17  1  0  0  0  0
  8  2  2  0  0  0  0
  9  4  2  0  0  0  0
 10  5  1  0  0  0  0
 10  7  2  0  0  0  0
 11 17  1  0  0  0  0
 11  5  2  0  0  0  0
 12  6  2  0  0  0  0
 13  1  1  0  0  0  0
 13  3  2  0  0  0  0
 15  1  2  0  0  0  0
 16 15  1  0  0  0  0
 16  6  1  0  0  0  0
 17 16  2  0  0  0  0
 19  2  1  0  0  0  0
 19 18  2  0  0  0  0
 20 25  1  0  0  0  0
 21 23  1  0  0  0  0
 25 24  1  0  0  0  0
 25 23  2  0  0  0  0
 26 18  1  1  0  0  0
 26 24  1  0  0  0  0
 27 21  2  0  0  0  0
 28 26  1  0  0  0  0
 29 20  2  0  0  0  0
 29 27  1  0  0  0  0
 30 22  1  1  0  0  0
 30 28  1  0  0  0  0
 30 20  1  0  0  0  0
 31 32  2  0  0  0  0
 32 10  1  0  0  0  0
 32 33  1  0  0  0  0
 33 35  1  0  0  0  0
 33 34  1  0  0  0  0
 35 34  1  0  0  0  0
 36 37  1  0  0  0  0
 37 38  1  0  0  0  0
 38 39  1  0  0  0  0
 39 40  1  0  0  0  0
 40 43  1  0  0  0  0
 42 41  2  0  0  0  0
 43 42  1  0  0  0  0
 44 42  1  6  0  0  0
 44 57  1  0  0  0  0
 45 50  1  0  0  0  0
 46 50  1  0  0  0  0
 47 51  1  6  0  0  0
 47 48  1  0  0  0  0
 48 46  1  0  0  0  0
 49 47  1  0  0  0  0
 49 45  1  0  0  0  0
 50 44  1  6  0  0  0
 52 54  1  0  0  0  0
 53 52  1  0  0  0  0
 54 51  1  0  0  0  0
 55 52  2  0  0  0  0
 57 56  1  0  0  0  0
M  END
>  <MODEL>
8

>  <REMARK>
 VINA RESULT:      -6.5      2.918      7.533
  Name = 
  15 active torsions:
  status: ('A' for Active; 'I' for Inactive)
    1  A    between atoms: C_7  and  C_46
    2  A    between atoms: C_11  and  C_24
    3  A    between atoms: N_13  and  C_50
    4  A    between atoms: C_15  and  C_28
    5  A    between atoms: C_15  and  N_47
    6  A    between atoms: C_16  and  N_21
    7  A    between atoms: C_17  and  C_27
    8  A    between atoms: C_17  and  C_28
    9  A    between atoms: C_22  and  N_36
   10  A    between atoms: C_22  and  C_43
   11  A    between atoms: C_24  and  O_34
   12  A    between atoms: C_24  and  C_57
   13  A    between atoms: C_26  and  N_47
   14  A    between atoms: C_27  and  N_38
   15  A    between atoms: C_33  and  C_50
                            x       y       z     vdW  Elec       q    Type
                         _______ _______ _______ _____ _____    ______ ____

>  <TORSDO>
F 15

$$$$
=
 OpenBabel10232409143D

 57 64  0  0  1  0  0  0  0  0999 V2000
  183.9850  178.3130  138.7100 C   0  0  0  0  0  0  0  0  0  0  0  0
  188.3010  176.6140  136.0460 C   0  0  0  0  0  0  0  0  0  0  0  0
  182.2660  179.1010  139.8170 C   0  0  0  0  0  0  0  0  0  0  0  0
  183.4610  179.3090  140.6480 C   0  0  0  0  0  3  0  0  0  0  0  0
  183.7960  177.3490  136.5140 C   0  0  0  0  0  0  0  0  0  0  0  0
  187.1780  177.5320  137.9540 C   0  0  0  0  0  0  0  0  0  0  0  0
  181.8420  178.1530  137.6490 N   0  0  0  0  0  0  0  0  0  0  0  0
  187.0860  176.4740  135.3540 C   0  0  0  0  0  3  0  0  0  0  0  0
  184.5130  178.8300  139.9720 C   0  0  0  0  0  3  0  0  0  0  0  0
  182.3880  177.5540  136.5420 C   0  0  0  0  0  0  0  0  0  0  0  0
  184.5430  176.8510  135.5200 C   0  0  0  0  0  3  0  0  0  0  0  0
  188.3180  177.1310  137.3170 N   0  0  0  0  0  0  0  0  0  0  0  0
  182.6320  178.5160  138.6970 C   0  0  0  0  0  0  0  0  0  0  0  0
  180.9690  179.4660  140.1500 O   0  0  0  0  0  1  0  0  0  0  0  0
  184.5840  177.7210  137.6030 C   0  0  0  0  0  0  0  0  0  0  0  0
  185.9660  177.4140  137.2710 C   0  0  0  0  0  0  0  0  0  0  0  0
  185.9270  176.8880  136.0020 C   0  0  0  0  0  0  0  0  0  0  0  0
  190.5330  175.7290  136.0910 N   0  0  0  0  0  0  0  0  0  0  0  0
  189.5440  176.1900  135.3990 C   0  0  0  0  0  3  0  0  0  0  0  0
  194.5390  174.8440  134.9040 C   0  0  0  0  0  0  0  0  0  0  0  0
  195.7460  172.4460  135.7300 C   0  0  0  0  0  3  0  0  0  0  0  0
  194.7870  177.1580  134.3640 O   0  0  0  0  0  1  0  0  0  0  0  0
  194.4690  172.7800  136.1900 C   0  0  0  0  0  3  0  0  0  0  0  0
  192.4990  174.3020  136.3250 C   0  0  0  0  0  2  0  0  0  0  0  0
  193.8530  173.9620  135.7700 C   0  0  0  0  0  0  0  0  0  0  0  0
  191.7580  175.3010  135.4370 C   0  0  2  0  0  3  0  0  0  0  0  0
  196.4140  173.2980  134.8470 C   0  0  0  0  0  3  0  0  0  0  0  0
  192.6510  176.5070  135.1920 C   0  0  0  0  0  2  0  0  0  0  0  0
  195.8100  174.4880  134.4310 C   0  0  0  0  0  3  0  0  0  0  0  0
  193.8790  176.0990  134.3780 C   0  0  2  0  0  3  0  0  0  0  0  0
  180.9090  178.2610  134.3580 S   0  0  0  0  0  0  0  0  0  0  0  0
  181.4790  177.1650  135.4370 C   0  0  0  0  0  0  0  0  0  0  0  0
  181.2450  175.7820  135.1840 N   0  0  0  0  0  0  0  0  0  0  0  0
  181.5290  174.3320  135.3920 C   0  0  0  0  0  2  0  0  0  0  0  0
  180.5280  174.6650  134.5040 C   0  0  0  0  0  2  0  0  0  0  0  0
  187.2240  178.0240  139.2910 N   0  0  0  0  0  2  0  0  0  0  0  0
  188.4710  178.2940  139.9890 C   0  0  0  0  0  2  0  0  0  0  0  0
  188.1820  178.6120  141.4450 C   0  0  0  0  0  2  0  0  0  0  0  0
  187.0460  177.7360  141.9480 C   0  0  0  0  0  2  0  0  0  0  0  0
  186.5880  178.1830  143.3240 C   0  0  0  0  0  2  0  0  0  0  0  0
  186.7820  176.6350  145.6970 O   0  0  0  0  0  0  0  0  0  0  0  0
  187.7340  177.4230  145.4340 C   0  0  0  0  0  0  0  0  0  0  0  0
  187.7170  178.2070  144.2420 N   0  0  0  0  0  2  0  0  0  0  0  0
  188.9240  177.5030  146.3510 C   0  0  1  0  0  3  0  0  0  0  0  0
  190.6880  176.3630  144.9620 C   0  0  0  0  0  2  0  0  0  0  0  0
  190.1440  178.7000  144.5870 N   0  0  0  0  0  2  0  0  0  0  0  0
  191.9510  177.5080  143.3960 C   0  0  1  0  0  3  0  0  0  0  0  0
  191.4370  178.8570  143.9270 C   0  0  0  0  0  2  0  0  0  0  0  0
  191.9660  176.4860  144.3760 O   0  0  0  0  0  0  0  0  0  0  0  0
  190.2680  177.6780  145.6230 C   0  0  1  0  0  3  0  0  0  0  0  0
  191.3700  177.0640  142.0470 C   0  0  0  0  0  2  0  0  0  0  0  0
  192.0450  176.7960  139.6230 C   0  0  0  0  0  0  0  0  0  0  0  0
  193.0750  176.9710  138.5640 C   0  0  0  0  0  1  0  0  0  0  0  0
  192.3170  177.2420  140.9530 N   0  0  0  0  0  2  0  0  0  0  0  0
  190.9440  176.2540  139.3380 O   0  0  0  0  0  0  0  0  0  0  0  0
  188.3660  177.6760  148.5750 C   0  0  0  0  0  1  0  0  0  0  0  0
  188.7260  178.4010  147.4280 O   0  0  0  0  0  0  0  0  0  0  0  0
  1  9  1  0  0  0  0
  2 12  1  0  0  0  0
  3 14  1  0  0  0  0
  3  4  1  0  0  0  0
  5 10  1  0  0  0  0
  5 15  1  0  0  0  0
  6 36  1  0  0  0  0
  7 13  1  0  0  0  0
  8 17  1  0  0  0  0
  8  2  2  0  0  0  0
  9  4  2  0  0  0  0
 10  7  2  0  0  0  0
 11 17  1  0  0  0  0
 11  5  2  0  0  0  0
 12  6  2  0  0  0  0
 13  1  1  0  0  0  0
 13  3  2  0  0  0  0
 15  1  2  0  0  0  0
 16 15  1  0  0  0  0
 16  6  1  0  0  0  0
 17 16  2  0  0  0  0
 19  2  1  0  0  0  0
 19 18  2  0  0  0  0
 20 25  1  0  0  0  0
 21 23  1  0  0  0  0
 25 23  2  0  0  0  0
 25 24  1  0  0  0  0
 26 18  1  1  0  0  0
 26 24  1  0  0  0  0
 27 21  2  0  0  0  0
 28 26  1  0  0  0  0
 29 27  1  0  0  0  0
 29 20  2  0  0  0  0
 30 22  1  1  0  0  0
 30 20  1  0  0  0  0
 30 28  1  0  0  0  0
 31 32  2  0  0  0  0
 32 10  1  0  0  0  0
 33 34  1  0  0  0  0
 33 32  1  0  0  0  0
 35 33  1  0  0  0  0
 35 34  1  0  0  0  0
 36 37  1  0  0  0  0
 37 38  1  0  0  0  0
 38 39  1  0  0  0  0
 39 40  1  0  0  0  0
 40 43  1  0  0  0  0
 42 41  2  0  0  0  0
 43 42  1  0  0  0  0
 44 42  1  6  0  0  0
 44 57  1  0  0  0  0
 45 50  1  0  0  0  0
 46 50  1  0  0  0  0
 47 51  1  6  0  0  0
 47 48  1  0  0  0  0
 47 49  1  0  0  0  0
 48 46  1  0  0  0  0
 49 45  1  0  0  0  0
 50 44  1  6  0  0  0
 52 54  1  0  0  0  0
 53 52  1  0  0  0  0
 54 51  1  0  0  0  0
 55 52  2  0  0  0  0
 57 56  1  0  0  0  0
M  END
>  <MODEL>
9

>  <REMARK>
 VINA RESULT:      -5.9      3.143      7.999
  Name = 
  15 active torsions:
  status: ('A' for Active; 'I' for Inactive)
    1  A    between atoms: C_7  and  C_46
    2  A    between atoms: C_11  and  C_24
    3  A    between atoms: N_13  and  C_50
    4  A    between atoms: C_15  and  C_28
    5  A    between atoms: C_15  and  N_47
    6  A    between atoms: C_16  and  N_21
    7  A    between atoms: C_17  and  C_27
    8  A    between atoms: C_17  and  C_28
    9  A    between atoms: C_22  and  N_36
   10  A    between atoms: C_22  and  C_43
   11  A    between atoms: C_24  and  O_34
   12  A    between atoms: C_24  and  C_57
   13  A    between atoms: C_26  and  N_47
   14  A    between atoms: C_27  and  N_38
   15  A    between atoms: C_33  and  C_50
                            x       y       z     vdW  Elec       q    Type
                         _______ _______ _______ _____ _____    ______ ____

>  <TORSDO>
F 15

$$$$
