=
 OpenBabel10232408563D

 56 60  0  0  1  0  0  0  0  0999 V2000
  189.4510  177.8340  146.0360 C   0  0  2  0  0  3  0  0  0  0  0  0
  187.6820  177.5020  147.8130 N   0  0  0  0  0  2  0  0  0  0  0  0
  189.8110  178.2770  148.3610 O   0  0  0  0  0  0  0  0  0  0  0  0
  189.0140  177.8920  147.4680 C   0  0  0  0  0  0  0  0  0  0  0  0
  186.8060  176.9270  146.7960 C   0  0  0  0  0  2  0  0  0  0  0  0
  188.2610  177.9950  145.1210 C   0  0  0  0  0  3  0  0  0  0  0  0
  187.0310  177.5930  145.4610 C   0  0  0  0  0  0  0  0  0  0  0  0
  185.9810  177.7170  144.4920 N   0  0  0  0  0  0  0  0  0  0  0  0
  184.9730  179.7680  145.2440 C   0  0  0  0  0  1  0  0  0  0  0  0
  184.9210  178.6870  144.4700 C   0  0  0  0  0  0  0  0  0  0  0  0
  183.9000  178.6430  143.3550 C   0  0  1  0  0  3  0  0  0  0  0  0
  181.7000  178.5630  144.0320 C   0  0  0  0  0  1  0  0  0  0  0  0
  182.7400  179.4140  143.6160 O   0  0  0  0  0  0  0  0  0  0  0  0
  184.4880  178.8840  141.9590 C   0  0  0  0  0  2  0  0  0  0  0  0
  184.2420  177.6850  141.0600 C   0  0  0  0  0  2  0  0  0  0  0  0
  182.5470  176.4770  139.6790 C   0  0  0  0  0  2  0  0  0  0  0  0
  182.7960  179.0260  139.5190 C   0  0  0  0  0  2  0  0  0  0  0  0
  182.8690  177.7820  140.4200 C   0  0  2  0  0  3  0  0  0  0  0  0
  181.7230  178.8670  138.4460 C   0  0  0  0  0  2  0  0  0  0  0  0
  182.0310  177.6860  137.5180 C   0  0  0  0  0  2  0  0  0  0  0  0
  182.8590  176.5780  138.1840 C   0  0  2  0  0  3  0  0  0  0  0  0
  182.5840  175.2550  137.4910 C   0  0  0  0  0  2  0  0  0  0  0  0
  185.9970  175.6460  136.5560 C   0  0  1  0  0  3  0  0  0  0  0  0
  183.7360  174.8490  136.7000 N   0  0  0  0  0  0  0  0  0  0  0  0
  186.0030  174.2800  137.1980 C   0  0  0  0  0  2  0  0  0  0  0  0
  184.5340  176.0430  136.4700 C   0  0  0  0  0  2  0  0  0  0  0  0
  184.5590  173.9940  137.5370 C   0  0  0  0  0  2  0  0  0  0  0  0
  186.7590  176.6240  137.4310 C   0  0  0  0  0  2  0  0  0  0  0  0
  187.8710  177.2870  136.6410 C   0  0  0  0  0  1  0  0  0  0  0  0
  190.1570  176.5110  145.7650 C   0  0  0  0  0  2  0  0  0  0  0  0
  189.9850  176.1490  143.0450 S   0  0  0  0  0  0  0  0  0  0  0  0
  191.1750  177.0620  142.0270 C   0  0  2  0  0  3  0  0  0  0  0  0
  190.9860  176.5800  144.4940 C   0  0  1  0  0  3  0  0  0  0  0  0
  191.5180  177.9880  144.3000 C   0  0  0  0  0  2  0  0  0  0  0  0
  191.5560  178.3060  142.8130 C   0  0  0  0  0  2  0  0  0  0  0  0
  190.5770  177.4150  140.6560 C   0  0  1  0  0  3  0  0  0  0  0  0
  191.3730  176.8960  139.4900 C   0  0  0  0  0  0  0  0  0  0  0  0
  193.4630  176.6370  138.2840 C   0  0  0  0  0  3  0  0  0  0  0  0
  190.7250  176.1260  138.5190 C   0  0  0  0  0  3  0  0  0  0  0  0
  192.7490  177.1420  139.3730 C   0  0  0  0  0  3  0  0  0  0  0  0
  192.8110  175.8600  137.3150 C   0  0  0  0  0  0  0  0  0  0  0  0
  191.4410  175.6150  137.4330 C   0  0  0  0  0  3  0  0  0  0  0  0
  193.5380  175.3520  136.1110 C   0  0  0  0  0  2  0  0  0  0  0  0
  195.9210  174.7430  135.5400 C   0  0  0  0  0  0  0  0  0  0  0  0
  194.9750  175.5630  136.2300 N   0  0  0  0  0  2  0  0  0  0  0  0
  195.5310  173.7740  134.8360 O   0  0  0  0  0  0  0  0  0  0  0  0
  197.7550  175.9230  134.6350 O   0  0  0  0  0  1  0  0  0  0  0  0
  197.3830  175.0310  135.6420 C   0  0  1  0  0  3  0  0  0  0  0  0
  197.8570  174.8180  138.1270 C   0  0  0  0  0  0  0  0  0  0  0  0
  197.7130  175.6020  136.9410 N   0  0  0  0  0  2  0  0  0  0  0  0
  197.6750  173.5700  138.0940 O   0  0  0  0  0  0  0  0  0  0  0  0
  197.4220  175.2870  140.4520 N   0  0  0  0  0  1  0  0  0  0  0  0
  198.1930  175.4490  139.3220 O   0  0  0  0  0  0  0  0  0  0  0  0
  189.0960  177.0450  140.5350 C   0  0  0  0  0  2  0  0  0  0  0  0
  187.9890  178.9780  141.6220 C   0  0  0  0  0  1  0  0  0  0  0  0
  188.2030  178.2560  140.3060 C   0  0  0  0  0  2  0  0  0  0  0  0
  1 30  1  6  0  0  0
  1  4  1  0  0  0  0
  4  2  1  0  0  0  0
  4  3  2  0  0  0  0
  5  2  1  0  0  0  0
  6  7  2  0  0  0  0
  6  1  1  0  0  0  0
  7  5  1  0  0  0  0
  8  7  1  0  0  0  0
 10  8  2  0  0  0  0
 10  9  1  0  0  0  0
 11 14  1  6  0  0  0
 11 13  1  0  0  0  0
 11 10  1  0  0  0  0
 13 12  1  0  0  0  0
 15 14  1  0  0  0  0
 16 18  1  0  0  0  0
 17 18  1  0  0  0  0
 18 15  1  6  0  0  0
 19 17  1  0  0  0  0
 20 21  1  0  0  0  0
 20 19  1  0  0  0  0
 21 22  1  6  0  0  0
 21 16  1  0  0  0  0
 23 25  1  0  0  0  0
 23 28  1  1  0  0  0
 24 22  1  0  0  0  0
 24 27  1  0  0  0  0
 25 27  1  0  0  0  0
 26 23  1  0  0  0  0
 26 24  1  0  0  0  0
 29 28  1  0  0  0  0
 31 33  1  0  0  0  0
 32 36  1  6  0  0  0
 32 35  1  0  0  0  0
 32 31  1  0  0  0  0
 33 30  1  1  0  0  0
 34 33  1  0  0  0  0
 35 34  1  0  0  0  0
 36 54  1  1  0  0  0
 37 36  1  0  0  0  0
 38 40  2  0  0  0  0
 39 37  2  0  0  0  0
 40 37  1  0  0  0  0
 41 42  2  0  0  0  0
 41 38  1  0  0  0  0
 42 39  1  0  0  0  0
 43 45  1  0  0  0  0
 43 41  1  0  0  0  0
 44 48  1  0  0  0  0
 44 45  1  0  0  0  0
 46 44  2  0  0  0  0
 48 47  1  6  0  0  0
 48 50  1  0  0  0  0
 49 53  1  0  0  0  0
 50 49  1  0  0  0  0
 51 49  2  0  0  0  0
 53 52  1  0  0  0  0
 56 54  1  0  0  0  0
 56 55  1  0  0  0  0
M  END
>  <MODEL>
1

>  <REMARK>
 VINA RESULT:      -7.2      0.000      0.000
  Name = 
  21 active torsions:
  status: ('A' for Active; 'I' for Inactive)
    1  A    between atoms: C_1  and  C_11
    2  A    between atoms: C_2  and  N_19
    3  A    between atoms: C_2  and  C_54
    4  A    between atoms: C_4  and  C_14
    5  A    between atoms: C_7  and  C_11
    6  A    between atoms: C_8  and  C_10
    7  A    between atoms: C_11  and  C_17
    8  A    between atoms: C_14  and  C_47
    9  A    between atoms: N_15  and  C_30
   10  A    between atoms: N_15  and  C_42
   11  A    between atoms: C_17  and  C_25
   12  A    between atoms: C_20  and  O_41
   13  A    between atoms: C_24  and  N_27
   14  A    between atoms: C_24  and  C_33
   15  A    between atoms: C_26  and  C_50
   16  A    between atoms: N_34  and  C_39
   17  A    between atoms: C_35  and  C_50
   18  A    between atoms: C_35  and  C_56
   19  A    between atoms: C_39  and  C_43
   20  A    between atoms: C_42  and  C_56
   21  A    between atoms: O_55  and  C_56
                            x       y       z     vdW  Elec       q    Type
                         _______ _______ _______ _____ _____    ______ ____

>  <TORSDO>
F 21

$$$$
=
 OpenBabel10232408563D

 56 60  0  0  1  0  0  0  0  0999 V2000
  183.4160  178.0250  141.9790 C   0  0  2  0  0  3  0  0  0  0  0  0
  182.5440  179.6670  143.6940 N   0  0  0  0  0  2  0  0  0  0  0  0
  181.0900  178.4990  142.2960 O   0  0  0  0  0  0  0  0  0  0  0  0
  182.2750  178.7280  142.6490 C   0  0  0  0  0  0  0  0  0  0  0  0
  183.9230  180.0310  144.0080 C   0  0  0  0  0  2  0  0  0  0  0  0
  184.5910  177.9260  142.9200 C   0  0  0  0  0  3  0  0  0  0  0  0
  184.8340  178.8370  143.8700 C   0  0  0  0  0  0  0  0  0  0  0  0
  186.0210  178.6970  144.6630 N   0  0  0  0  0  0  0  0  0  0  0  0
  185.0070  178.3070  146.8090 C   0  0  0  0  0  1  0  0  0  0  0  0
  186.1060  178.4930  146.0820 C   0  0  0  0  0  0  0  0  0  0  0  0
  187.4480  178.1850  146.7070 C   0  0  1  0  0  3  0  0  0  0  0  0
  188.2900  178.1000  148.8500 C   0  0  0  0  0  1  0  0  0  0  0  0
  187.3550  177.5350  147.9630 O   0  0  0  0  0  0  0  0  0  0  0  0
  188.4450  177.5190  145.7510 C   0  0  0  0  0  2  0  0  0  0  0  0
  189.4610  178.5290  145.2470 C   0  0  0  0  0  2  0  0  0  0  0  0
  191.4840  178.0670  143.8550 C   0  0  0  0  0  2  0  0  0  0  0  0
  190.7860  176.4600  145.7310 C   0  0  0  0  0  2  0  0  0  0  0  0
  190.8510  177.9180  145.2460 C   0  0  2  0  0  3  0  0  0  0  0  0
  191.9740  175.6550  145.2170 C   0  0  0  0  0  2  0  0  0  0  0  0
  191.9880  175.5940  143.6840 C   0  0  0  0  0  2  0  0  0  0  0  0
  191.3150  176.8000  143.0140 C   0  0  2  0  0  3  0  0  0  0  0  0
  191.9010  176.9990  141.6270 C   0  0  0  0  0  2  0  0  0  0  0  0
  188.7160  177.1220  140.0410 C   0  0  1  0  0  3  0  0  0  0  0  0
  190.9710  176.5250  140.6120 N   0  0  0  0  0  0  0  0  0  0  0  0
  189.6340  177.5770  138.9330 C   0  0  0  0  0  2  0  0  0  0  0  0
  189.6330  176.6700  141.1630 C   0  0  0  0  0  2  0  0  0  0  0  0
  191.0300  177.4570  139.5000 C   0  0  0  0  0  2  0  0  0  0  0  0
  187.8530  178.2830  140.4980 C   0  0  0  0  0  2  0  0  0  0  0  0
  188.4640  178.9510  141.7150 C   0  0  0  0  0  1  0  0  0  0  0  0
  183.8080  178.7720  140.7110 C   0  0  0  0  0  2  0  0  0  0  0  0
  184.0510  178.5930  137.9780 S   0  0  0  0  0  0  0  0  0  0  0  0
  183.2970  177.1460  137.1880 C   0  0  2  0  0  3  0  0  0  0  0  0
  183.1400  178.1680  139.4870 C   0  0  1  0  0  3  0  0  0  0  0  0
  183.1080  176.6560  139.6100 C   0  0  0  0  0  2  0  0  0  0  0  0
  183.2830  176.0400  138.2300 C   0  0  0  0  0  2  0  0  0  0  0  0
  184.0760  176.7330  135.9300 C   0  0  1  0  0  3  0  0  0  0  0  0
  185.1450  175.7050  136.1840 C   0  0  0  0  0  0  0  0  0  0  0  0
  185.9500  173.4160  136.1560 C   0  0  0  0  0  3  0  0  0  0  0  0
  186.3860  176.1290  136.6720 C   0  0  0  0  0  3  0  0  0  0  0  0
  184.9330  174.3440  135.9180 C   0  0  0  0  0  3  0  0  0  0  0  0
  187.1960  173.8450  136.6380 C   0  0  0  0  0  0  0  0  0  0  0  0
  187.4050  175.2000  136.9020 C   0  0  0  0  0  3  0  0  0  0  0  0
  188.2830  172.8670  136.9520 C   0  0  0  0  0  2  0  0  0  0  0  0
  190.6070  173.8360  136.7680 C   0  0  0  0  0  0  0  0  0  0  0  0
  189.4910  173.1540  136.1900 N   0  0  0  0  0  2  0  0  0  0  0  0
  190.5540  174.2530  137.9560 O   0  0  0  0  0  0  0  0  0  0  0  0
  191.5360  174.7350  134.7920 O   0  0  0  0  0  1  0  0  0  0  0  0
  191.8500  174.0570  135.9710 C   0  0  1  0  0  3  0  0  0  0  0  0
  194.2230  174.5330  136.7400 C   0  0  0  0  0  0  0  0  0  0  0  0
  192.8250  174.8300  136.7290 N   0  0  0  0  0  2  0  0  0  0  0  0
  194.6710  173.5460  136.0940 O   0  0  0  0  0  0  0  0  0  0  0  0
  195.3000  175.1030  138.8210 N   0  0  0  0  0  1  0  0  0  0  0  0
  195.0830  175.3390  137.4810 O   0  0  0  0  0  0  0  0  0  0  0  0
  183.1650  176.3210  134.7690 C   0  0  0  0  0  2  0  0  0  0  0  0
  180.9610  175.2170  135.0280 C   0  0  0  0  0  1  0  0  0  0  0  0
  181.6910  176.5450  135.0700 C   0  0  0  0  0  2  0  0  0  0  0  0
  1 30  1  6  0  0  0
  1  4  1  0  0  0  0
  1  6  1  0  0  0  0
  2  5  1  0  0  0  0
  3  4  2  0  0  0  0
  4  2  1  0  0  0  0
  6  7  2  0  0  0  0
  7  5  1  0  0  0  0
  7  8  1  0  0  0  0
  8 10  2  0  0  0  0
 10 11  1  0  0  0  0
 10  9  1  0  0  0  0
 11 14  1  6  0  0  0
 11 13  1  0  0  0  0
 13 12  1  0  0  0  0
 15 14  1  0  0  0  0
 16 18  1  0  0  0  0
 18 15  1  6  0  0  0
 18 17  1  0  0  0  0
 19 17  1  0  0  0  0
 20 19  1  0  0  0  0
 21 22  1  6  0  0  0
 21 20  1  0  0  0  0
 21 16  1  0  0  0  0
 23 28  1  1  0  0  0
 23 26  1  0  0  0  0
 24 26  1  0  0  0  0
 24 22  1  0  0  0  0
 25 27  1  0  0  0  0
 25 23  1  0  0  0  0
 27 24  1  0  0  0  0
 28 29  1  0  0  0  0
 31 33  1  0  0  0  0
 32 36  1  6  0  0  0
 32 31  1  0  0  0  0
 32 35  1  0  0  0  0
 33 34  1  0  0  0  0
 33 30  1  1  0  0  0
 35 34  1  0  0  0  0
 36 54  1  6  0  0  0
 36 37  1  0  0  0  0
 37 39  1  0  0  0  0
 38 41  2  0  0  0  0
 39 42  2  0  0  0  0
 40 38  1  0  0  0  0
 40 37  2  0  0  0  0
 41 42  1  0  0  0  0
 41 43  1  0  0  0  0
 44 46  2  0  0  0  0
 45 44  1  0  0  0  0
 45 43  1  0  0  0  0
 48 47  1  6  0  0  0
 48 50  1  0  0  0  0
 48 44  1  0  0  0  0
 49 53  1  0  0  0  0
 50 49  1  0  0  0  0
 51 49  2  0  0  0  0
 53 52  1  0  0  0  0
 54 56  1  0  0  0  0
 55 56  1  0  0  0  0
M  END
>  <MODEL>
2

>  <REMARK>
 VINA RESULT:      -6.6      2.438      7.319
  Name = 
  21 active torsions:
  status: ('A' for Active; 'I' for Inactive)
    1  A    between atoms: C_1  and  C_11
    2  A    between atoms: C_2  and  N_19
    3  A    between atoms: C_2  and  C_54
    4  A    between atoms: C_4  and  C_14
    5  A    between atoms: C_7  and  C_11
    6  A    between atoms: C_8  and  C_10
    7  A    between atoms: C_11  and  C_17
    8  A    between atoms: C_14  and  C_47
    9  A    between atoms: N_15  and  C_30
   10  A    between atoms: N_15  and  C_42
   11  A    between atoms: C_17  and  C_25
   12  A    between atoms: C_20  and  O_41
   13  A    between atoms: C_24  and  N_27
   14  A    between atoms: C_24  and  C_33
   15  A    between atoms: C_26  and  C_50
   16  A    between atoms: N_34  and  C_39
   17  A    between atoms: C_35  and  C_50
   18  A    between atoms: C_35  and  C_56
   19  A    between atoms: C_39  and  C_43
   20  A    between atoms: C_42  and  C_56
   21  A    between atoms: O_55  and  C_56
                            x       y       z     vdW  Elec       q    Type
                         _______ _______ _______ _____ _____    ______ ____

>  <TORSDO>
F 21

$$$$
=
 OpenBabel10232408563D

 56 60  0  0  1  0  0  0  0  0999 V2000
  190.4310  177.7960  145.0530 C   0  0  2  0  0  3  0  0  0  0  0  0
  190.1390  176.3960  147.1390 N   0  0  0  0  0  2  0  0  0  0  0  0
  192.2410  176.7070  146.1810 O   0  0  0  0  0  0  0  0  0  0  0  0
  191.0070  176.9440  146.1430 C   0  0  0  0  0  0  0  0  0  0  0  0
  188.6930  176.5590  147.0150 C   0  0  0  0  0  2  0  0  0  0  0  0
  189.1650  178.4650  145.5280 C   0  0  0  0  0  3  0  0  0  0  0  0
  188.3570  177.9140  146.4420 C   0  0  0  0  0  0  0  0  0  0  0  0
  187.1360  178.5910  146.7710 N   0  0  0  0  0  2  0  0  0  0  0  0
  184.7660  178.1950  146.8690 C   0  0  0  0  0  2  0  0  0  0  0  0
  185.8540  178.4360  146.1430 C   0  0  0  0  0  0  0  0  0  0  0  0
  185.6830  178.8470  144.6980 C   0  0  1  0  0  3  0  0  0  0  0  0
  186.3840  176.7110  144.1920 C   0  0  0  0  0  1  0  0  0  0  0  0
  186.4330  178.0590  143.7890 O   0  0  0  0  0  0  0  0  0  0  0  0
  184.2220  179.0400  144.2700 C   0  0  0  0  0  2  0  0  0  0  0  0
  183.9200  178.2370  143.0170 C   0  0  0  0  0  2  0  0  0  0  0  0
  182.4500  179.0860  141.1840 C   0  0  0  0  0  2  0  0  0  0  0  0
  184.9760  178.8110  140.8200 C   0  0  0  0  0  2  0  0  0  0  0  0
  183.8500  179.1550  141.8100 C   0  0  2  0  0  3  0  0  0  0  0  0
  184.6240  179.2610  139.4060 C   0  0  0  0  0  2  0  0  0  0  0  0
  183.3680  178.5470  138.8900 C   0  0  0  0  0  2  0  0  0  0  0  0
  182.4020  178.1160  140.0020 C   0  0  2  0  0  3  0  0  0  0  0  0
  180.9930  178.0280  139.4420 C   0  0  0  0  0  2  0  0  0  0  0  0
  181.7390  175.5290  137.0180 C   0  0  1  0  0  3  0  0  0  0  0  0
  180.7590  176.7120  138.8640 N   0  0  0  0  0  0  0  0  0  0  0  0
  182.1490  174.8500  138.3020 C   0  0  0  0  0  2  0  0  0  0  0  0
  181.0550  176.8150  137.4440 C   0  0  0  0  0  2  0  0  0  0  0  0
  181.7690  175.8170  139.4000 C   0  0  0  0  0  2  0  0  0  0  0  0
  182.9720  175.8360  136.1880 C   0  0  0  0  0  2  0  0  0  0  0  0
  184.2280  175.6600  137.0190 C   0  0  0  0  0  1  0  0  0  0  0  0
  190.1530  176.9410  143.8230 C   0  0  0  0  0  2  0  0  0  0  0  0
  190.7350  176.7380  141.1430 S   0  0  0  0  0  0  0  0  0  0  0  0
  189.9720  177.9670  140.0500 C   0  0  2  0  0  3  0  0  0  0  0  0
  190.2330  177.7670  142.5490 C   0  0  1  0  0  3  0  0  0  0  0  0
  188.8750  178.3660  142.2360 C   0  0  0  0  0  2  0  0  0  0  0  0
  188.6860  178.4120  140.7280 C   0  0  0  0  0  2  0  0  0  0  0  0
  189.7060  177.3790  138.6550 C   0  0  1  0  0  3  0  0  0  0  0  0
  190.7470  176.3920  138.2010 C   0  0  0  0  0  0  0  0  0  0  0  0
  191.3860  174.2190  137.3300 C   0  0  0  0  0  3  0  0  0  0  0  0
  192.0910  176.7810  138.2000 C   0  0  0  0  0  3  0  0  0  0  0  0
  190.3970  175.1090  137.7550 C   0  0  0  0  0  3  0  0  0  0  0  0
  192.7320  174.6140  137.3230 C   0  0  0  0  0  0  0  0  0  0  0  0
  193.0800  175.8920  137.7680 C   0  0  0  0  0  3  0  0  0  0  0  0
  193.8170  173.6640  136.9250 C   0  0  0  0  0  2  0  0  0  0  0  0
  196.3110  174.0440  136.8300 C   0  0  0  0  0  0  0  0  0  0  0  0
  195.0820  174.0070  137.5600 N   0  0  0  0  0  2  0  0  0  0  0  0
  196.3370  173.7340  135.6090 O   0  0  0  0  0  0  0  0  0  0  0  0
  198.0370  175.6520  136.9460 O   0  0  0  0  0  1  0  0  0  0  0  0
  197.5770  174.4590  137.5060 C   0  0  1  0  0  3  0  0  0  0  0  0
  198.4110  175.0190  139.8380 C   0  0  0  0  0  0  0  0  0  0  0  0
  197.3670  174.6450  138.9360 N   0  0  0  0  0  2  0  0  0  0  0  0
  199.5890  175.1830  139.4180 O   0  0  0  0  0  0  0  0  0  0  0  0
  199.0830  175.0400  142.1530 N   0  0  0  0  0  1  0  0  0  0  0  0
  198.1130  175.1910  141.1870 O   0  0  0  0  0  0  0  0  0  0  0  0
  188.2910  176.8140  138.5020 C   0  0  0  0  0  2  0  0  0  0  0  0
  188.2090  178.7280  136.9290 C   0  0  0  0  0  1  0  0  0  0  0  0
  187.5340  177.4340  137.3370 C   0  0  0  0  0  2  0  0  0  0  0  0
  1 30  1  6  0  0  0
  1  6  1  0  0  0  0
  1  4  1  0  0  0  0
  4  3  2  0  0  0  0
  4  2  1  0  0  0  0
  5  2  1  0  0  0  0
  6  7  2  0  0  0  0
  7  8  1  0  0  0  0
  7  5  1  0  0  0  0
 10  8  1  0  0  0  0
 10  9  2  0  0  0  0
 11 14  1  6  0  0  0
 11 10  1  0  0  0  0
 13 12  1  0  0  0  0
 13 11  1  0  0  0  0
 15 14  1  0  0  0  0
 16 18  1  0  0  0  0
 17 18  1  0  0  0  0
 18 15  1  1  0  0  0
 19 17  1  0  0  0  0
 20 19  1  0  0  0  0
 20 21  1  0  0  0  0
 21 22  1  6  0  0  0
 21 16  1  0  0  0  0
 23 28  1  6  0  0  0
 23 26  1  0  0  0  0
 23 25  1  0  0  0  0
 24 27  1  0  0  0  0
 24 22  1  0  0  0  0
 25 27  1  0  0  0  0
 26 24  1  0  0  0  0
 28 29  1  0  0  0  0
 31 33  1  0  0  0  0
 32 36  1  6  0  0  0
 32 35  1  0  0  0  0
 32 31  1  0  0  0  0
 33 30  1  1  0  0  0
 34 33  1  0  0  0  0
 35 34  1  0  0  0  0
 36 54  1  1  0  0  0
 37 36  1  0  0  0  0
 38 40  1  0  0  0  0
 39 37  1  0  0  0  0
 40 37  2  0  0  0  0
 41 38  2  0  0  0  0
 41 42  1  0  0  0  0
 42 39  2  0  0  0  0
 43 41  1  0  0  0  0
 43 45  1  0  0  0  0
 44 48  1  0  0  0  0
 44 45  1  0  0  0  0
 46 44  2  0  0  0  0
 48 47  1  6  0  0  0
 48 50  1  0  0  0  0
 49 53  1  0  0  0  0
 50 49  1  0  0  0  0
 51 49  2  0  0  0  0
 53 52  1  0  0  0  0
 55 56  1  0  0  0  0
 56 54  1  0  0  0  0
M  END
>  <MODEL>
3

>  <REMARK>
 VINA RESULT:      -6.1      1.694      2.805
  Name = 
  21 active torsions:
  status: ('A' for Active; 'I' for Inactive)
    1  A    between atoms: C_1  and  C_11
    2  A    between atoms: C_2  and  N_19
    3  A    between atoms: C_2  and  C_54
    4  A    between atoms: C_4  and  C_14
    5  A    between atoms: C_7  and  C_11
    6  A    between atoms: C_8  and  C_10
    7  A    between atoms: C_11  and  C_17
    8  A    between atoms: C_14  and  C_47
    9  A    between atoms: N_15  and  C_30
   10  A    between atoms: N_15  and  C_42
   11  A    between atoms: C_17  and  C_25
   12  A    between atoms: C_20  and  O_41
   13  A    between atoms: C_24  and  N_27
   14  A    between atoms: C_24  and  C_33
   15  A    between atoms: C_26  and  C_50
   16  A    between atoms: N_34  and  C_39
   17  A    between atoms: C_35  and  C_50
   18  A    between atoms: C_35  and  C_56
   19  A    between atoms: C_39  and  C_43
   20  A    between atoms: C_42  and  C_56
   21  A    between atoms: O_55  and  C_56
                            x       y       z     vdW  Elec       q    Type
                         _______ _______ _______ _____ _____    ______ ____

>  <TORSDO>
F 21

$$$$
=
 OpenBabel10232408563D

 56 60  0  0  1  0  0  0  0  0999 V2000
  189.3490  178.0830  141.9830 C   0  0  2  0  0  3  0  0  0  0  0  0
  188.3220  177.2800  144.1510 N   0  0  0  0  0  2  0  0  0  0  0  0
  190.6210  177.6190  143.9590 O   0  0  0  0  0  0  0  0  0  0  0  0
  189.4880  177.6540  143.4120 C   0  0  0  0  0  0  0  0  0  0  0  0
  187.0300  177.1910  143.4760 C   0  0  0  0  0  2  0  0  0  0  0  0
  187.9770  178.6660  141.7460 C   0  0  0  0  0  3  0  0  0  0  0  0
  186.8980  178.2740  142.4340 C   0  0  0  0  0  0  0  0  0  0  0  0
  185.6240  178.8310  142.0810 N   0  0  0  0  0  2  0  0  0  0  0  0
  184.2190  178.9180  144.0310 C   0  0  0  0  0  2  0  0  0  0  0  0
  184.3660  178.6240  142.7420 C   0  0  0  0  0  0  0  0  0  0  0  0
  183.1280  178.3660  141.9130 C   0  0  1  0  0  3  0  0  0  0  0  0
  180.9780  179.1810  141.7660 C   0  0  0  0  0  1  0  0  0  0  0  0
  181.9160  178.5720  142.6190 O   0  0  0  0  0  0  0  0  0  0  0  0
  183.1470  179.0370  140.5330 C   0  0  0  0  0  2  0  0  0  0  0  0
  182.9190  178.0120  139.4360 C   0  0  0  0  0  2  0  0  0  0  0  0
  183.2870  177.5140  137.0160 C   0  0  0  0  0  2  0  0  0  0  0  0
  185.2400  178.2260  138.5220 C   0  0  0  0  0  2  0  0  0  0  0  0
  183.7400  178.3660  138.2090 C   0  0  2  0  0  3  0  0  0  0  0  0
  186.0490  177.9970  137.2490 C   0  0  0  0  0  2  0  0  0  0  0  0
  185.6340  176.6960  136.5500 C   0  0  0  0  0  2  0  0  0  0  0  0
  184.1800  176.2870  136.8190 C   0  0  2  0  0  3  0  0  0  0  0  0
  183.6720  175.4360  135.6690 C   0  0  0  0  0  2  0  0  0  0  0  0
  184.5060  171.9790  135.8380 C   0  0  1  0  0  3  0  0  0  0  0  0
  183.3860  174.0850  136.1260 N   0  0  0  0  0  0  0  0  0  0  0  0
  184.6280  172.4010  137.2820 C   0  0  0  0  0  2  0  0  0  0  0  0
  183.9120  173.1770  135.1180 C   0  0  0  0  0  2  0  0  0  0  0  0
  184.1910  173.8470  137.3110 C   0  0  0  0  0  2  0  0  0  0  0  0
  185.8810  171.6570  135.2820 C   0  0  0  0  0  2  0  0  0  0  0  0
  186.0560  170.1570  135.1380 C   0  0  0  0  0  1  0  0  0  0  0  0
  189.5900  176.8930  141.0630 C   0  0  0  0  0  2  0  0  0  0  0  0
  190.8660  175.8720  138.8520 S   0  0  0  0  0  0  0  0  0  0  0  0
  190.8950  176.9200  137.3730 C   0  0  2  0  0  3  0  0  0  0  0  0
  190.3070  177.3180  139.7920 C   0  0  1  0  0  3  0  0  0  0  0  0
  189.3660  178.1200  138.9110 C   0  0  0  0  0  2  0  0  0  0  0  0
  189.6700  177.8160  137.4520 C   0  0  0  0  0  2  0  0  0  0  0  0
  190.8970  176.0720  136.0920 C   0  0  1  0  0  3  0  0  0  0  0  0
  192.2680  175.6280  135.6560 C   0  0  0  0  0  0  0  0  0  0  0  0
  194.4800  176.1000  134.7790 C   0  0  0  0  0  3  0  0  0  0  0  0
  192.6090  174.2760  135.7730 C   0  0  0  0  0  3  0  0  0  0  0  0
  193.2130  176.5410  135.1650 C   0  0  0  0  0  3  0  0  0  0  0  0
  194.8220  174.7450  134.9040 C   0  0  0  0  0  0  0  0  0  0  0  0
  193.8800  173.8370  135.3930 C   0  0  0  0  0  3  0  0  0  0  0  0
  196.1520  174.2360  134.4470 C   0  0  0  0  0  2  0  0  0  0  0  0
  197.6900  174.7290  136.3880 C   0  0  0  0  0  0  0  0  0  0  0  0
  196.9690  173.8010  135.5720 N   0  0  0  0  0  2  0  0  0  0  0  0
  197.6710  175.9600  136.1220 O   0  0  0  0  0  0  0  0  0  0  0  0
  199.8160  174.1390  137.2280 O   0  0  0  0  0  1  0  0  0  0  0  0
  198.4670  174.2470  137.5690 C   0  0  1  0  0  3  0  0  0  0  0  0
  197.3010  175.0310  139.6840 C   0  0  0  0  0  0  0  0  0  0  0  0
  198.3240  175.1610  138.6950 N   0  0  0  0  0  2  0  0  0  0  0  0
  196.4460  174.1070  139.6010 O   0  0  0  0  0  0  0  0  0  0  0  0
  197.7630  175.6240  141.9750 N   0  0  0  0  0  1  0  0  0  0  0  0
  197.2530  175.9420  140.7360 O   0  0  0  0  0  0  0  0  0  0  0  0
  189.9180  174.8950  136.1490 C   0  0  0  0  0  2  0  0  0  0  0  0
  188.9000  173.4610  134.4020 C   0  0  0  0  0  1  0  0  0  0  0  0
  188.9620  174.8670  134.9660 C   0  0  0  0  0  2  0  0  0  0  0  0
  1 30  1  6  0  0  0
  1  4  1  0  0  0  0
  4  3  2  0  0  0  0
  4  2  1  0  0  0  0
  5  2  1  0  0  0  0
  6  1  1  0  0  0  0
  6  7  2  0  0  0  0
  7  5  1  0  0  0  0
  8  7  1  0  0  0  0
  8 10  1  0  0  0  0
 10  9  2  0  0  0  0
 11 14  1  6  0  0  0
 11 13  1  0  0  0  0
 11 10  1  0  0  0  0
 12 13  1  0  0  0  0
 15 14  1  0  0  0  0
 16 18  1  0  0  0  0
 18 17  1  0  0  0  0
 18 15  1  1  0  0  0
 19 17  1  0  0  0  0
 20 21  1  0  0  0  0
 20 19  1  0  0  0  0
 21 22  1  6  0  0  0
 21 16  1  0  0  0  0
 22 24  1  0  0  0  0
 23 28  1  6  0  0  0
 23 25  1  0  0  0  0
 24 27  1  0  0  0  0
 25 27  1  0  0  0  0
 26 23  1  0  0  0  0
 26 24  1  0  0  0  0
 29 28  1  0  0  0  0
 31 33  1  0  0  0  0
 32 36  1  6  0  0  0
 32 35  1  0  0  0  0
 32 31  1  0  0  0  0
 33 30  1  1  0  0  0
 34 33  1  0  0  0  0
 35 34  1  0  0  0  0
 36 54  1  1  0  0  0
 37 39  1  0  0  0  0
 37 36  1  0  0  0  0
 38 41  2  0  0  0  0
 38 40  1  0  0  0  0
 40 37  2  0  0  0  0
 41 42  1  0  0  0  0
 42 39  2  0  0  0  0
 43 41  1  0  0  0  0
 43 45  1  0  0  0  0
 44 48  1  0  0  0  0
 45 44  1  0  0  0  0
 46 44  2  0  0  0  0
 48 47  1  6  0  0  0
 48 50  1  0  0  0  0
 49 53  1  0  0  0  0
 50 49  1  0  0  0  0
 51 49  2  0  0  0  0
 53 52  1  0  0  0  0
 55 56  1  0  0  0  0
 56 54  1  0  0  0  0
M  END
>  <MODEL>
4

>  <REMARK>
 VINA RESULT:      -6.1      2.059      3.778
  Name = 
  21 active torsions:
  status: ('A' for Active; 'I' for Inactive)
    1  A    between atoms: C_1  and  C_11
    2  A    between atoms: C_2  and  N_19
    3  A    between atoms: C_2  and  C_54
    4  A    between atoms: C_4  and  C_14
    5  A    between atoms: C_7  and  C_11
    6  A    between atoms: C_8  and  C_10
    7  A    between atoms: C_11  and  C_17
    8  A    between atoms: C_14  and  C_47
    9  A    between atoms: N_15  and  C_30
   10  A    between atoms: N_15  and  C_42
   11  A    between atoms: C_17  and  C_25
   12  A    between atoms: C_20  and  O_41
   13  A    between atoms: C_24  and  N_27
   14  A    between atoms: C_24  and  C_33
   15  A    between atoms: C_26  and  C_50
   16  A    between atoms: N_34  and  C_39
   17  A    between atoms: C_35  and  C_50
   18  A    between atoms: C_35  and  C_56
   19  A    between atoms: C_39  and  C_43
   20  A    between atoms: C_42  and  C_56
   21  A    between atoms: O_55  and  C_56
                            x       y       z     vdW  Elec       q    Type
                         _______ _______ _______ _____ _____    ______ ____

>  <TORSDO>
F 21

$$$$
=
 OpenBabel10232408563D

 56 60  0  0  1  0  0  0  0  0999 V2000
  181.8930  178.4610  138.8760 C   0  0  2  0  0  3  0  0  0  0  0  0
  180.5650  179.3950  136.9360 N   0  0  0  0  0  2  0  0  0  0  0  0
  181.6570  180.8040  138.4380 O   0  0  0  0  0  0  0  0  0  0  0  0
  181.3800  179.6280  138.0890 C   0  0  0  0  0  0  0  0  0  0  0  0
  180.1320  178.0380  136.6130 C   0  0  0  0  0  2  0  0  0  0  0  0
  182.0170  177.2480  137.9870 C   0  0  0  0  0  3  0  0  0  0  0  0
  181.2190  177.0420  136.9310 C   0  0  0  0  0  0  0  0  0  0  0  0
  181.3630  175.8200  136.1960 N   0  0  0  0  0  2  0  0  0  0  0  0
  182.8840  176.2780  134.3890 C   0  0  0  0  0  2  0  0  0  0  0  0
  182.4440  175.4440  135.3270 C   0  0  0  0  0  0  0  0  0  0  0  0
  183.2840  174.2340  135.6720 C   0  0  1  0  0  3  0  0  0  0  0  0
  183.5730  171.9580  135.4700 C   0  0  0  0  0  1  0  0  0  0  0  0
  182.6290  173.0000  135.4330 O   0  0  0  0  0  0  0  0  0  0  0  0
  184.7110  174.2820  135.1100 C   0  0  0  0  0  2  0  0  0  0  0  0
  185.7130  174.5620  136.2170 C   0  0  0  0  0  2  0  0  0  0  0  0
  187.8070  175.9190  136.3290 C   0  0  0  0  0  2  0  0  0  0  0  0
  185.5400  176.9510  136.9450 C   0  0  0  0  0  2  0  0  0  0  0  0
  186.2980  175.9540  136.0530 C   0  0  2  0  0  3  0  0  0  0  0  0
  186.4020  178.1680  137.2670 C   0  0  0  0  0  2  0  0  0  0  0  0
  187.6610  177.7700  138.0460 C   0  0  0  0  0  2  0  0  0  0  0  0
  188.1350  176.3370  137.7640 C   0  0  2  0  0  3  0  0  0  0  0  0
  189.6280  176.2380  138.0220 C   0  0  0  0  0  2  0  0  0  0  0  0
  192.5750  174.9700  136.4810 C   0  0  1  0  0  3  0  0  0  0  0  0
  190.2940  175.5940  136.9000 N   0  0  0  0  0  0  0  0  0  0  0  0
  191.7540  173.7160  136.6630 C   0  0  0  0  0  2  0  0  0  0  0  0
  191.6520  176.1130  136.8600 C   0  0  0  0  0  2  0  0  0  0  0  0
  190.4330  174.1860  137.2270 C   0  0  0  0  0  2  0  0  0  0  0  0
  193.7770  174.9320  137.4060 C   0  0  0  0  0  2  0  0  0  0  0  0
  194.2860  173.5110  137.5550 C   0  0  0  0  0  1  0  0  0  0  0  0
  180.9580  178.1750  140.0430 C   0  0  0  0  0  2  0  0  0  0  0  0
  183.4900  178.3100  141.1050 S   0  0  0  0  0  0  0  0  0  0  0  0
  183.6090  178.4740  142.9070 C   0  0  2  0  0  3  0  0  0  0  0  0
  181.7370  177.9000  141.3190 C   0  0  1  0  0  3  0  0  0  0  0  0
  181.1880  178.7460  142.4520 C   0  0  0  0  0  2  0  0  0  0  0  0
  182.3320  179.1590  143.3660 C   0  0  0  0  0  2  0  0  0  0  0  0
  184.8590  179.2710  143.3110 C   0  0  1  0  0  3  0  0  0  0  0  0
  185.5730  178.7180  144.5140 C   0  0  0  0  0  0  0  0  0  0  0  0
  186.0900  178.7480  146.8850 C   0  0  0  0  0  3  0  0  0  0  0  0
  186.3830  177.5880  144.3580 C   0  0  0  0  0  3  0  0  0  0  0  0
  185.4210  179.2910  145.7850 C   0  0  0  0  0  3  0  0  0  0  0  0
  186.8960  177.6100  146.7260 C   0  0  0  0  0  0  0  0  0  0  0  0
  187.0460  177.0410  145.4590 C   0  0  0  0  0  3  0  0  0  0  0  0
  187.6660  177.0400  147.8750 C   0  0  0  0  0  2  0  0  0  0  0  0
  190.0470  177.3140  147.0810 C   0  0  0  0  0  0  0  0  0  0  0  0
  188.9390  176.4840  147.4360 N   0  0  0  0  0  2  0  0  0  0  0  0
  189.9330  178.5690  147.0950 O   0  0  0  0  0  0  0  0  0  0  0  0
  191.6240  175.6130  147.5240 O   0  0  0  0  0  1  0  0  0  0  0  0
  191.3540  176.7030  146.6940 C   0  0  1  0  0  3  0  0  0  0  0  0
  191.5670  177.1370  144.2020 C   0  0  0  0  0  0  0  0  0  0  0  0
  191.3320  176.2610  145.3060 N   0  0  0  0  0  2  0  0  0  0  0  0
  191.7840  178.3650  144.3950 O   0  0  0  0  0  0  0  0  0  0  0  0
  192.0020  177.3610  141.8400 N   0  0  0  0  0  1  0  0  0  0  0  0
  191.5450  176.6210  142.9090 O   0  0  0  0  0  0  0  0  0  0  0  0
  185.8230  179.5070  142.1440 C   0  0  0  0  0  2  0  0  0  0  0  0
  188.0950  178.8790  141.3790 C   0  0  0  0  0  1  0  0  0  0  0  0
  186.7880  178.3500  141.9360 C   0  0  0  0  0  2  0  0  0  0  0  0
  1 30  1  1  0  0  0
  2  4  1  0  0  0  0
  4  3  2  0  0  0  0
  4  1  1  0  0  0  0
  5  7  1  0  0  0  0
  5  2  1  0  0  0  0
  6  1  1  0  0  0  0
  7  6  2  0  0  0  0
  8  7  1  0  0  0  0
  9 10  2  0  0  0  0
 10 11  1  0  0  0  0
 10  8  1  0  0  0  0
 11 14  1  6  0  0  0
 13 12  1  0  0  0  0
 13 11  1  0  0  0  0
 14 15  1  0  0  0  0
 16 21  1  0  0  0  0
 17 19  1  0  0  0  0
 18 15  1  1  0  0  0
 18 16  1  0  0  0  0
 18 17  1  0  0  0  0
 19 20  1  0  0  0  0
 21 22  1  6  0  0  0
 21 20  1  0  0  0  0
 23 25  1  0  0  0  0
 23 26  1  0  0  0  0
 23 28  1  1  0  0  0
 24 27  1  0  0  0  0
 24 22  1  0  0  0  0
 25 27  1  0  0  0  0
 26 24  1  0  0  0  0
 28 29  1  0  0  0  0
 31 33  1  0  0  0  0
 31 32  1  0  0  0  0
 32 36  1  6  0  0  0
 32 35  1  0  0  0  0
 33 30  1  6  0  0  0
 33 34  1  0  0  0  0
 34 35  1  0  0  0  0
 36 54  1  6  0  0  0
 36 37  1  0  0  0  0
 37 40  1  0  0  0  0
 39 37  2  0  0  0  0
 39 42  1  0  0  0  0
 40 38  2  0  0  0  0
 41 38  1  0  0  0  0
 41 43  1  0  0  0  0
 42 41  2  0  0  0  0
 44 46  2  0  0  0  0
 44 45  1  0  0  0  0
 45 43  1  0  0  0  0
 48 44  1  0  0  0  0
 48 47  1  1  0  0  0
 49 51  2  0  0  0  0
 49 50  1  0  0  0  0
 50 48  1  0  0  0  0
 52 53  1  0  0  0  0
 53 49  1  0  0  0  0
 55 56  1  0  0  0  0
 56 54  1  0  0  0  0
M  END
>  <MODEL>
5

>  <REMARK>
 VINA RESULT:      -6.0      3.480      9.307
  Name = 
  21 active torsions:
  status: ('A' for Active; 'I' for Inactive)
    1  A    between atoms: C_1  and  C_11
    2  A    between atoms: C_2  and  N_19
    3  A    between atoms: C_2  and  C_54
    4  A    between atoms: C_4  and  C_14
    5  A    between atoms: C_7  and  C_11
    6  A    between atoms: C_8  and  C_10
    7  A    between atoms: C_11  and  C_17
    8  A    between atoms: C_14  and  C_47
    9  A    between atoms: N_15  and  C_30
   10  A    between atoms: N_15  and  C_42
   11  A    between atoms: C_17  and  C_25
   12  A    between atoms: C_20  and  O_41
   13  A    between atoms: C_24  and  N_27
   14  A    between atoms: C_24  and  C_33
   15  A    between atoms: C_26  and  C_50
   16  A    between atoms: N_34  and  C_39
   17  A    between atoms: C_35  and  C_50
   18  A    between atoms: C_35  and  C_56
   19  A    between atoms: C_39  and  C_43
   20  A    between atoms: C_42  and  C_56
   21  A    between atoms: O_55  and  C_56
                            x       y       z     vdW  Elec       q    Type
                         _______ _______ _______ _____ _____    ______ ____

>  <TORSDO>
F 21

$$$$
=
 OpenBabel10232408563D

 56 60  0  0  1  0  0  0  0  0999 V2000
  183.4730  179.0380  141.5720 C   0  0  2  0  0  3  0  0  0  0  0  0
  181.1550  178.0310  141.4700 N   0  0  0  0  0  2  0  0  0  0  0  0
  181.8580  179.2480  143.3290 O   0  0  0  0  0  0  0  0  0  0  0  0
  182.1290  178.7920  142.1880 C   0  0  0  0  0  0  0  0  0  0  0  0
  181.5180  177.3890  140.2090 C   0  0  0  0  0  2  0  0  0  0  0  0
  183.3690  179.0070  140.0670 C   0  0  0  0  0  3  0  0  0  0  0  0
  182.4650  178.2600  139.4210 C   0  0  0  0  0  0  0  0  0  0  0  0
  182.4980  178.2370  137.9880 N   0  0  0  0  0  2  0  0  0  0  0  0
  184.5900  177.4190  137.1290 C   0  0  0  0  0  2  0  0  0  0  0  0
  183.2620  177.3600  137.1450 C   0  0  0  0  0  0  0  0  0  0  0  0
  182.5820  176.1690  136.5070 C   0  0  1  0  0  3  0  0  0  0  0  0
  180.7690  176.8010  135.2340 C   0  0  0  0  0  1  0  0  0  0  0  0
  182.1210  176.4140  135.1900 O   0  0  0  0  0  0  0  0  0  0  0  0
  183.3640  174.8560  136.6410 C   0  0  0  0  0  2  0  0  0  0  0  0
  182.4300  173.7080  136.9810 C   0  0  0  0  0  2  0  0  0  0  0  0
  184.7030  172.6800  136.8450 C   0  0  0  0  0  2  0  0  0  0  0  0
  182.6110  171.3310  136.2170 C   0  0  0  0  0  2  0  0  0  0  0  0
  183.2160  172.4170  137.1230 C   0  0  2  0  0  3  0  0  0  0  0  0
  183.6430  170.2600  135.8760 C   0  0  0  0  0  2  0  0  0  0  0  0
  184.8270  170.8520  135.1010 C   0  0  0  0  0  2  0  0  0  0  0  0
  185.0830  172.3350  135.4030 C   0  0  2  0  0  3  0  0  0  0  0  0
  186.5430  172.6600  135.1440 C   0  0  0  0  0  2  0  0  0  0  0  0
  189.3990  173.7250  136.9830 C   0  0  1  0  0  3  0  0  0  0  0  0
  187.1330  173.3070  136.3060 N   0  0  0  0  0  0  0  0  0  0  0  0
  188.7480  175.0400  136.6280 C   0  0  0  0  0  2  0  0  0  0  0  0
  188.4110  172.6570  136.5500 C   0  0  0  0  0  2  0  0  0  0  0  0
  187.4630  174.6690  135.9240 C   0  0  0  0  0  2  0  0  0  0  0  0
  190.7030  173.5800  136.2200 C   0  0  0  0  0  2  0  0  0  0  0  0
  190.5320  174.0410  134.7850 C   0  0  0  0  0  1  0  0  0  0  0  0
  184.4630  177.9880  142.0610 C   0  0  0  0  0  2  0  0  0  0  0  0
  186.8320  177.4920  143.3650 S   0  0  0  0  0  0  0  0  0  0  0  0
  188.2970  178.3650  142.7510 C   0  0  2  0  0  3  0  0  0  0  0  0
  185.8190  178.6070  142.3580 C   0  0  1  0  0  3  0  0  0  0  0  0
  186.5580  178.8760  141.0600 C   0  0  0  0  0  2  0  0  0  0  0  0
  188.0470  178.6520  141.2800 C   0  0  0  0  0  2  0  0  0  0  0  0
  189.5690  177.5300  142.9600 C   0  0  1  0  0  3  0  0  0  0  0  0
  190.3230  177.2380  141.6900 C   0  0  0  0  0  0  0  0  0  0  0  0
  190.4060  176.4620  139.3930 C   0  0  0  0  0  3  0  0  0  0  0  0
  191.6910  177.5290  141.6350 C   0  0  0  0  0  3  0  0  0  0  0  0
  189.6810  176.7110  140.5600 C   0  0  0  0  0  3  0  0  0  0  0  0
  191.7760  176.7610  139.3380 C   0  0  0  0  0  0  0  0  0  0  0  0
  192.4140  177.2850  140.4650 C   0  0  0  0  0  3  0  0  0  0  0  0
  192.5890  176.4530  138.1210 C   0  0  0  0  0  2  0  0  0  0  0  0
  194.4900  174.8000  138.2790 C   0  0  0  0  0  0  0  0  0  0  0  0
  193.9620  176.1150  138.4710 N   0  0  0  0  0  2  0  0  0  0  0  0
  193.7560  173.8760  137.8380 O   0  0  0  0  0  0  0  0  0  0  0  0
  196.7370  175.0400  137.5940 O   0  0  0  0  0  1  0  0  0  0  0  0
  195.9210  174.5100  138.5940 C   0  0  1  0  0  3  0  0  0  0  0  0
  197.6310  175.0430  140.3940 C   0  0  0  0  0  0  0  0  0  0  0  0
  196.2980  175.0810  139.8810 N   0  0  0  0  0  2  0  0  0  0  0  0
  198.5500  174.4750  139.7420 O   0  0  0  0  0  0  0  0  0  0  0  0
  198.7590  175.0370  142.5250 N   0  0  0  0  0  1  0  0  0  0  0  0
  197.9020  175.6320  141.6260 O   0  0  0  0  0  0  0  0  0  0  0  0
  190.4910  178.1000  144.0420 C   0  0  0  0  0  2  0  0  0  0  0  0
  189.9210  177.3420  146.3320 C   0  0  0  0  0  1  0  0  0  0  0  0
  190.8130  177.0900  145.1330 C   0  0  0  0  0  2  0  0  0  0  0  0
  1 30  1  1  0  0  0
  1  4  1  0  0  0  0
  2  4  1  0  0  0  0
  4  3  2  0  0  0  0
  5  2  1  0  0  0  0
  6  1  1  0  0  0  0
  7  6  2  0  0  0  0
  7  5  1  0  0  0  0
  8  7  1  0  0  0  0
  9 10  2  0  0  0  0
 10  8  1  0  0  0  0
 11 14  1  6  0  0  0
 11 10  1  0  0  0  0
 13 12  1  0  0  0  0
 13 11  1  0  0  0  0
 14 15  1  0  0  0  0
 16 18  1  0  0  0  0
 17 18  1  0  0  0  0
 18 15  1  6  0  0  0
 19 17  1  0  0  0  0
 20 21  1  0  0  0  0
 20 19  1  0  0  0  0
 21 22  1  1  0  0  0
 21 16  1  0  0  0  0
 22 24  1  0  0  0  0
 23 28  1  6  0  0  0
 24 26  1  0  0  0  0
 25 23  1  0  0  0  0
 26 23  1  0  0  0  0
 27 24  1  0  0  0  0
 27 25  1  0  0  0  0
 29 28  1  0  0  0  0
 32 36  1  6  0  0  0
 32 31  1  0  0  0  0
 33 30  1  6  0  0  0
 33 31  1  0  0  0  0
 34 35  1  0  0  0  0
 34 33  1  0  0  0  0
 35 32  1  0  0  0  0
 36 54  1  1  0  0  0
 37 36  1  0  0  0  0
 38 40  1  0  0  0  0
 39 37  1  0  0  0  0
 40 37  2  0  0  0  0
 41 38  2  0  0  0  0
 41 42  1  0  0  0  0
 42 39  2  0  0  0  0
 43 45  1  0  0  0  0
 43 41  1  0  0  0  0
 44 45  1  0  0  0  0
 44 48  1  0  0  0  0
 46 44  2  0  0  0  0
 48 47  1  6  0  0  0
 48 50  1  0  0  0  0
 49 53  1  0  0  0  0
 50 49  1  0  0  0  0
 51 49  2  0  0  0  0
 53 52  1  0  0  0  0
 54 56  1  0  0  0  0
 56 55  1  0  0  0  0
M  END
>  <MODEL>
6

>  <REMARK>
 VINA RESULT:      -5.9      2.697      5.697
  Name = 
  21 active torsions:
  status: ('A' for Active; 'I' for Inactive)
    1  A    between atoms: C_1  and  C_11
    2  A    between atoms: C_2  and  N_19
    3  A    between atoms: C_2  and  C_54
    4  A    between atoms: C_4  and  C_14
    5  A    between atoms: C_7  and  C_11
    6  A    between atoms: C_8  and  C_10
    7  A    between atoms: C_11  and  C_17
    8  A    between atoms: C_14  and  C_47
    9  A    between atoms: N_15  and  C_30
   10  A    between atoms: N_15  and  C_42
   11  A    between atoms: C_17  and  C_25
   12  A    between atoms: C_20  and  O_41
   13  A    between atoms: C_24  and  N_27
   14  A    between atoms: C_24  and  C_33
   15  A    between atoms: C_26  and  C_50
   16  A    between atoms: N_34  and  C_39
   17  A    between atoms: C_35  and  C_50
   18  A    between atoms: C_35  and  C_56
   19  A    between atoms: C_39  and  C_43
   20  A    between atoms: C_42  and  C_56
   21  A    between atoms: O_55  and  C_56
                            x       y       z     vdW  Elec       q    Type
                         _______ _______ _______ _____ _____    ______ ____

>  <TORSDO>
F 21

$$$$
=
 OpenBabel10232408563D

 56 60  0  0  1  0  0  0  0  0999 V2000
  190.0810  177.8310  141.9280 C   0  0  2  0  0  3  0  0  0  0  0  0
  189.2380  176.5510  143.9400 N   0  0  0  0  0  2  0  0  0  0  0  0
  191.5150  176.9460  143.6300 O   0  0  0  0  0  0  0  0  0  0  0  0
  190.3400  177.0930  143.2060 C   0  0  0  0  0  0  0  0  0  0  0  0
  187.8920  176.6040  143.3770 C   0  0  0  0  0  2  0  0  0  0  0  0
  188.7000  178.4390  141.9480 C   0  0  0  0  0  3  0  0  0  0  0  0
  187.6800  177.8920  142.6220 C   0  0  0  0  0  0  0  0  0  0  0  0
  186.3870  178.5020  142.5150 N   0  0  0  0  0  2  0  0  0  0  0  0
  185.5960  178.7450  144.7730 C   0  0  0  0  0  2  0  0  0  0  0  0
  185.3350  178.4980  143.4930 C   0  0  0  0  0  0  0  0  0  0  0  0
  183.8950  178.5180  143.0310 C   0  0  1  0  0  3  0  0  0  0  0  0
  181.8240  178.8380  143.9880 C   0  0  0  0  0  1  0  0  0  0  0  0
  183.0790  179.4270  143.7500 O   0  0  0  0  0  0  0  0  0  0  0  0
  183.7270  178.6250  141.5100 C   0  0  0  0  0  2  0  0  0  0  0  0
  183.3640  177.2750  140.9150 C   0  0  0  0  0  2  0  0  0  0  0  0
  182.4600  176.2690  138.8140 C   0  0  0  0  0  2  0  0  0  0  0  0
  182.5690  178.8170  139.1090 C   0  0  0  0  0  2  0  0  0  0  0  0
  182.3620  177.4520  139.7880 C   0  0  2  0  0  3  0  0  0  0  0  0
  182.0330  178.8090  137.6810 C   0  0  0  0  0  2  0  0  0  0  0  0
  182.7740  177.7830  136.8130 C   0  0  0  0  0  2  0  0  0  0  0  0
  183.3400  176.5970  137.6060 C   0  0  2  0  0  3  0  0  0  0  0  0
  183.4630  175.3910  136.6920 C   0  0  0  0  0  2  0  0  0  0  0  0
  184.5470  172.0020  136.7980 C   0  0  1  0  0  3  0  0  0  0  0  0
  183.9510  174.2390  137.4360 N   0  0  0  0  0  0  0  0  0  0  0  0
  185.8000  172.7430  137.1980 C   0  0  0  0  0  2  0  0  0  0  0  0
  183.4540  173.0540  136.7550 C   0  0  0  0  0  2  0  0  0  0  0  0
  185.3930  174.1960  137.2740 C   0  0  0  0  0  2  0  0  0  0  0  0
  184.7370  171.3810  135.4270 C   0  0  0  0  0  2  0  0  0  0  0  0
  183.9870  172.1760  134.3760 C   0  0  0  0  0  1  0  0  0  0  0  0
  190.2290  176.8820  140.7450 C   0  0  0  0  0  2  0  0  0  0  0  0
  190.7640  177.3400  138.0880 S   0  0  0  0  0  0  0  0  0  0  0  0
  189.3350  177.4690  136.9810 C   0  0  2  0  0  3  0  0  0  0  0  0
  189.6180  177.4720  139.4850 C   0  0  1  0  0  3  0  0  0  0  0  0
  188.3470  176.7240  139.1280 C   0  0  0  0  0  2  0  0  0  0  0  0
  188.2200  176.6540  137.6140 C   0  0  0  0  0  2  0  0  0  0  0  0
  189.6780  176.9660  135.5700 C   0  0  1  0  0  3  0  0  0  0  0  0
  190.5060  175.7090  135.5550 C   0  0  0  0  0  0  0  0  0  0  0  0
  190.8590  173.3840  136.1530 C   0  0  0  0  0  3  0  0  0  0  0  0
  191.7220  175.7090  134.8630 C   0  0  0  0  0  3  0  0  0  0  0  0
  190.0730  174.5380  136.1940 C   0  0  0  0  0  3  0  0  0  0  0  0
  192.0740  173.3850  135.4520 C   0  0  0  0  0  0  0  0  0  0  0  0
  192.5050  174.5530  134.8170 C   0  0  0  0  0  3  0  0  0  0  0  0
  192.9620  172.1820  135.4380 C   0  0  0  0  0  2  0  0  0  0  0  0
  195.2440  171.8280  136.4570 C   0  0  0  0  0  0  0  0  0  0  0  0
  193.8630  172.1730  136.5830 N   0  0  0  0  0  2  0  0  0  0  0  0
  195.7140  171.4730  135.3420 O   0  0  0  0  0  0  0  0  0  0  0  0
  196.9260  170.7320  137.7010 O   0  0  0  0  0  1  0  0  0  0  0  0
  196.1480  171.8900  137.6440 C   0  0  1  0  0  3  0  0  0  0  0  0
  196.6890  174.3150  138.1670 C   0  0  0  0  0  0  0  0  0  0  0  0
  197.0190  173.0560  137.5760 N   0  0  0  0  0  2  0  0  0  0  0  0
  195.5890  174.4710  138.7640 O   0  0  0  0  0  0  0  0  0  0  0  0
  198.4160  175.7020  139.1200 N   0  0  0  0  0  1  0  0  0  0  0  0
  197.5930  175.3690  138.0670 O   0  0  0  0  0  0  0  0  0  0  0  0
  188.4510  176.8410  134.6630 C   0  0  0  0  0  2  0  0  0  0  0  0
  186.0430  177.4150  134.7960 C   0  0  0  0  0  1  0  0  0  0  0  0
  187.4520  177.9700  134.8660 C   0  0  0  0  0  2  0  0  0  0  0  0
  1 30  1  6  0  0  0
  1  6  1  0  0  0  0
  1  4  1  0  0  0  0
  4  3  2  0  0  0  0
  4  2  1  0  0  0  0
  5  2  1  0  0  0  0
  6  7  2  0  0  0  0
  7  5  1  0  0  0  0
  8  7  1  0  0  0  0
  8 10  1  0  0  0  0
 10  9  2  0  0  0  0
 11 14  1  6  0  0  0
 11 10  1  0  0  0  0
 11 13  1  0  0  0  0
 13 12  1  0  0  0  0
 15 14  1  0  0  0  0
 16 18  1  0  0  0  0
 17 18  1  0  0  0  0
 18 15  1  1  0  0  0
 19 17  1  0  0  0  0
 20 21  1  0  0  0  0
 20 19  1  0  0  0  0
 21 22  1  6  0  0  0
 21 16  1  0  0  0  0
 22 24  1  0  0  0  0
 23 28  1  6  0  0  0
 23 25  1  0  0  0  0
 25 27  1  0  0  0  0
 26 23  1  0  0  0  0
 26 24  1  0  0  0  0
 27 24  1  0  0  0  0
 29 28  1  0  0  0  0
 31 33  1  0  0  0  0
 32 36  1  6  0  0  0
 32 35  1  0  0  0  0
 32 31  1  0  0  0  0
 33 30  1  1  0  0  0
 34 33  1  0  0  0  0
 35 34  1  0  0  0  0
 36 54  1  6  0  0  0
 37 36  1  0  0  0  0
 37 40  1  0  0  0  0
 38 40  2  0  0  0  0
 39 37  2  0  0  0  0
 41 38  1  0  0  0  0
 42 39  1  0  0  0  0
 42 41  2  0  0  0  0
 43 41  1  0  0  0  0
 43 45  1  0  0  0  0
 44 45  1  0  0  0  0
 44 48  1  0  0  0  0
 46 44  2  0  0  0  0
 48 47  1  6  0  0  0
 49 51  2  0  0  0  0
 50 48  1  0  0  0  0
 50 49  1  0  0  0  0
 53 49  1  0  0  0  0
 53 52  1  0  0  0  0
 54 56  1  0  0  0  0
 55 56  1  0  0  0  0
M  END
>  <MODEL>
7

>  <REMARK>
 VINA RESULT:      -5.8      2.207      3.740
  Name = 
  21 active torsions:
  status: ('A' for Active; 'I' for Inactive)
    1  A    between atoms: C_1  and  C_11
    2  A    between atoms: C_2  and  N_19
    3  A    between atoms: C_2  and  C_54
    4  A    between atoms: C_4  and  C_14
    5  A    between atoms: C_7  and  C_11
    6  A    between atoms: C_8  and  C_10
    7  A    between atoms: C_11  and  C_17
    8  A    between atoms: C_14  and  C_47
    9  A    between atoms: N_15  and  C_30
   10  A    between atoms: N_15  and  C_42
   11  A    between atoms: C_17  and  C_25
   12  A    between atoms: C_20  and  O_41
   13  A    between atoms: C_24  and  N_27
   14  A    between atoms: C_24  and  C_33
   15  A    between atoms: C_26  and  C_50
   16  A    between atoms: N_34  and  C_39
   17  A    between atoms: C_35  and  C_50
   18  A    between atoms: C_35  and  C_56
   19  A    between atoms: C_39  and  C_43
   20  A    between atoms: C_42  and  C_56
   21  A    between atoms: O_55  and  C_56
                            x       y       z     vdW  Elec       q    Type
                         _______ _______ _______ _____ _____    ______ ____

>  <TORSDO>
F 21

$$$$
=
 OpenBabel10232408563D

 56 60  0  0  1  0  0  0  0  0999 V2000
  187.0150  172.9220  136.0650 C   0  0  2  0  0  3  0  0  0  0  0  0
  184.7200  172.0920  135.3990 N   0  0  0  0  0  2  0  0  0  0  0  0
  186.6090  170.7520  135.1360 O   0  0  0  0  0  0  0  0  0  0  0  0
  186.1260  171.8520  135.5090 C   0  0  0  0  0  0  0  0  0  0  0  0
  184.1820  173.4150  135.7030 C   0  0  0  0  0  2  0  0  0  0  0  0
  186.2360  173.8110  137.0030 C   0  0  0  0  0  3  0  0  0  0  0  0
  184.9250  174.0400  136.8570 C   0  0  0  0  0  0  0  0  0  0  0  0
  184.2900  174.9630  137.7540 N   0  0  0  0  0  2  0  0  0  0  0  0
  185.0870  177.2300  137.6470 C   0  0  0  0  0  2  0  0  0  0  0  0
  184.0770  176.3690  137.5540 C   0  0  0  0  0  0  0  0  0  0  0  0
  182.7780  176.8410  136.9400 C   0  0  1  0  0  3  0  0  0  0  0  0
  181.7750  175.9450  135.0700 C   0  0  0  0  0  1  0  0  0  0  0  0
  182.7780  176.8220  135.5230 O   0  0  0  0  0  0  0  0  0  0  0  0
  181.5270  176.2010  137.5550 C   0  0  0  0  0  2  0  0  0  0  0  0
  181.4950  176.4220  139.0580 C   0  0  0  0  0  2  0  0  0  0  0  0
  182.4060  178.0320  140.7360 C   0  0  0  0  0  2  0  0  0  0  0  0
  180.3730  178.6480  139.2960 C   0  0  0  0  0  2  0  0  0  0  0  0
  181.7100  177.8910  139.3760 C   0  0  2  0  0  3  0  0  0  0  0  0
  180.4100  179.9200  140.1360 C   0  0  0  0  0  2  0  0  0  0  0  0
  180.6330  179.6040  141.6200 C   0  0  0  0  0  2  0  0  0  0  0  0
  181.4070  178.3010  141.8630 C   0  0  2  0  0  3  0  0  0  0  0  0
  182.1190  178.3790  143.2020 C   0  0  0  0  0  2  0  0  0  0  0  0
  185.1860  179.5420  144.5850 C   0  0  1  0  0  3  0  0  0  0  0  0
  183.3940  179.0660  143.0590 N   0  0  0  0  0  0  0  0  0  0  0  0
  185.6640  178.5250  143.5770 C   0  0  0  0  0  2  0  0  0  0  0  0
  183.6930  179.6750  144.3450 C   0  0  0  0  0  2  0  0  0  0  0  0
  184.4160  178.0510  142.8690 C   0  0  0  0  0  2  0  0  0  0  0  0
  185.4530  179.0320  145.9890 C   0  0  0  0  0  2  0  0  0  0  0  0
  185.5020  177.5160  146.0020 C   0  0  0  0  0  1  0  0  0  0  0  0
  187.6110  173.7400  134.9260 C   0  0  0  0  0  2  0  0  0  0  0  0
  189.5560  175.6700  135.1560 S   0  0  0  0  0  0  0  0  0  0  0  0
  191.0730  175.1950  136.0270 C   0  0  2  0  0  3  0  0  0  0  0  0
  189.1110  173.9130  135.1000 C   0  0  1  0  0  3  0  0  0  0  0  0
  189.5580  173.2700  136.3990 C   0  0  0  0  0  2  0  0  0  0  0  0
  190.6900  174.0910  136.9980 C   0  0  0  0  0  2  0  0  0  0  0  0
  191.6970  176.3990  136.7510 C   0  0  1  0  0  3  0  0  0  0  0  0
  190.9470  176.8240  137.9840 C   0  0  0  0  0  0  0  0  0  0  0  0
  190.7190  176.9640  140.3960 C   0  0  0  0  0  3  0  0  0  0  0  0
  189.7530  177.5380  137.8360 C   0  0  0  0  0  3  0  0  0  0  0  0
  191.4330  176.5460  139.2700 C   0  0  0  0  0  3  0  0  0  0  0  0
  189.5250  177.6850  140.2440 C   0  0  0  0  0  0  0  0  0  0  0  0
  189.0430  177.9610  138.9620 C   0  0  0  0  0  3  0  0  0  0  0  0
  188.7120  178.0970  141.4300 C   0  0  0  0  0  2  0  0  0  0  0  0
  189.2010  176.9650  143.6330 C   0  0  0  0  0  0  0  0  0  0  0  0
  189.4770  177.9800  142.6640 N   0  0  0  0  0  2  0  0  0  0  0  0
  188.2450  176.1630  143.4610 O   0  0  0  0  0  0  0  0  0  0  0  0
  191.3000  177.4120  144.6200 O   0  0  0  0  0  1  0  0  0  0  0  0
  190.0480  176.8420  144.8570 C   0  0  1  0  0  3  0  0  0  0  0  0
  189.8920  177.3680  147.3360 C   0  0  0  0  0  0  0  0  0  0  0  0
  189.4210  177.5040  145.9940 N   0  0  0  0  0  2  0  0  0  0  0  0
  190.8810  176.6290  147.5950 O   0  0  0  0  0  0  0  0  0  0  0  0
  187.8900  177.8890  148.5750 N   0  0  0  0  0  1  0  0  0  0  0  0
  189.2400  178.0550  148.3570 O   0  0  0  0  0  0  0  0  0  0  0  0
  193.1910  176.2190  137.0350 C   0  0  0  0  0  2  0  0  0  0  0  0
  193.8400  175.1960  134.8720 C   0  0  0  0  0  1  0  0  0  0  0  0
  193.7710  174.9790  136.3710 C   0  0  0  0  0  2  0  0  0  0  0  0
  1 30  1  6  0  0  0
  1  6  1  0  0  0  0
  2  4  1  0  0  0  0
  2  5  1  0  0  0  0
  3  4  2  0  0  0  0
  4  1  1  0  0  0  0
  5  7  1  0  0  0  0
  7  6  2  0  0  0  0
  7  8  1  0  0  0  0
 10  9  2  0  0  0  0
 10  8  1  0  0  0  0
 11 10  1  0  0  0  0
 11 14  1  1  0  0  0
 12 13  1  0  0  0  0
 13 11  1  0  0  0  0
 14 15  1  0  0  0  0
 16 21  1  0  0  0  0
 17 18  1  0  0  0  0
 17 19  1  0  0  0  0
 18 15  1  1  0  0  0
 18 16  1  0  0  0  0
 19 20  1  0  0  0  0
 20 21  1  0  0  0  0
 21 22  1  1  0  0  0
 23 28  1  1  0  0  0
 24 22  1  0  0  0  0
 24 26  1  0  0  0  0
 25 23  1  0  0  0  0
 26 23  1  0  0  0  0
 27 24  1  0  0  0  0
 27 25  1  0  0  0  0
 28 29  1  0  0  0  0
 31 32  1  0  0  0  0
 32 36  1  1  0  0  0
 32 35  1  0  0  0  0
 33 30  1  1  0  0  0
 33 31  1  0  0  0  0
 33 34  1  0  0  0  0
 34 35  1  0  0  0  0
 36 54  1  1  0  0  0
 36 37  1  0  0  0  0
 37 40  1  0  0  0  0
 39 37  2  0  0  0  0
 39 42  1  0  0  0  0
 40 38  2  0  0  0  0
 41 38  1  0  0  0  0
 41 43  1  0  0  0  0
 42 41  2  0  0  0  0
 43 45  1  0  0  0  0
 44 48  1  0  0  0  0
 45 44  1  0  0  0  0
 46 44  2  0  0  0  0
 48 47  1  6  0  0  0
 48 50  1  0  0  0  0
 49 51  2  0  0  0  0
 49 53  1  0  0  0  0
 50 49  1  0  0  0  0
 53 52  1  0  0  0  0
 55 56  1  0  0  0  0
 56 54  1  0  0  0  0
M  END
>  <MODEL>
8

>  <REMARK>
 VINA RESULT:      -5.7      4.002      8.742
  Name = 
  21 active torsions:
  status: ('A' for Active; 'I' for Inactive)
    1  A    between atoms: C_1  and  C_11
    2  A    between atoms: C_2  and  N_19
    3  A    between atoms: C_2  and  C_54
    4  A    between atoms: C_4  and  C_14
    5  A    between atoms: C_7  and  C_11
    6  A    between atoms: C_8  and  C_10
    7  A    between atoms: C_11  and  C_17
    8  A    between atoms: C_14  and  C_47
    9  A    between atoms: N_15  and  C_30
   10  A    between atoms: N_15  and  C_42
   11  A    between atoms: C_17  and  C_25
   12  A    between atoms: C_20  and  O_41
   13  A    between atoms: C_24  and  N_27
   14  A    between atoms: C_24  and  C_33
   15  A    between atoms: C_26  and  C_50
   16  A    between atoms: N_34  and  C_39
   17  A    between atoms: C_35  and  C_50
   18  A    between atoms: C_35  and  C_56
   19  A    between atoms: C_39  and  C_43
   20  A    between atoms: C_42  and  C_56
   21  A    between atoms: O_55  and  C_56
                            x       y       z     vdW  Elec       q    Type
                         _______ _______ _______ _____ _____    ______ ____

>  <TORSDO>
F 21

$$$$
=
 OpenBabel10232408563D

 56 60  0  0  1  0  0  0  0  0999 V2000
  190.3580  177.4710  145.6260 C   0  0  2  0  0  3  0  0  0  0  0  0
  188.8660  177.0670  147.6280 N   0  0  0  0  0  2  0  0  0  0  0  0
  191.1660  177.3490  147.8770 O   0  0  0  0  0  0  0  0  0  0  0  0
  190.1760  177.2970  147.1030 C   0  0  0  0  0  0  0  0  0  0  0  0
  187.7410  176.8720  146.7180 C   0  0  0  0  0  2  0  0  0  0  0  0
  189.0940  178.0140  145.0060 C   0  0  0  0  0  3  0  0  0  0  0  0
  187.8780  177.7570  145.5040 C   0  0  0  0  0  0  0  0  0  0  0  0
  186.7330  178.2530  144.7970 N   0  0  0  0  0  2  0  0  0  0  0  0
  185.3450  179.1560  146.5410 C   0  0  0  0  0  2  0  0  0  0  0  0
  185.4480  178.5900  145.3420 C   0  0  0  0  0  0  0  0  0  0  0  0
  184.2360  178.5870  144.4370 C   0  0  1  0  0  3  0  0  0  0  0  0
  181.9450  178.7680  144.2890 C   0  0  0  0  0  1  0  0  0  0  0  0
  183.0770  179.1420  145.0350 O   0  0  0  0  0  0  0  0  0  0  0  0
  184.5080  179.1260  143.0260 C   0  0  0  0  0  2  0  0  0  0  0  0
  184.3310  178.0300  141.9900 C   0  0  0  0  0  2  0  0  0  0  0  0
  182.7700  177.1610  140.2440 C   0  0  0  0  0  2  0  0  0  0  0  0
  183.7190  179.5410  140.0900 C   0  0  0  0  0  2  0  0  0  0  0  0
  183.2340  178.4070  141.0100 C   0  0  2  0  0  3  0  0  0  0  0  0
  182.9410  179.5560  138.7780 C   0  0  0  0  0  2  0  0  0  0  0  0
  183.1430  178.2530  137.9940 C   0  0  0  0  0  2  0  0  0  0  0  0
  183.4560  177.0400  138.8810 C   0  0  2  0  0  3  0  0  0  0  0  0
  183.0190  175.7700  138.1740 C   0  0  0  0  0  2  0  0  0  0  0  0
  184.4350  173.0110  136.4270 C   0  0  1  0  0  3  0  0  0  0  0  0
  184.1660  175.1000  137.5800 N   0  0  0  0  0  0  0  0  0  0  0  0
  184.6320  174.1380  135.4420 C   0  0  0  0  0  2  0  0  0  0  0  0
  183.9280  173.6700  137.6970 C   0  0  0  0  0  2  0  0  0  0  0  0
  184.1410  175.3770  136.1550 C   0  0  0  0  0  2  0  0  0  0  0  0
  183.4030  172.0370  135.8880 C   0  0  0  0  0  2  0  0  0  0  0  0
  183.7480  170.6180  136.2980 C   0  0  0  0  0  1  0  0  0  0  0  0
  190.7330  176.1370  144.9930 C   0  0  0  0  0  2  0  0  0  0  0  0
  190.3780  175.9990  142.2700 S   0  0  0  0  0  0  0  0  0  0  0  0
  191.4680  177.0320  141.2550 C   0  0  2  0  0  3  0  0  0  0  0  0
  191.4680  176.3390  143.6780 C   0  0  1  0  0  3  0  0  0  0  0  0
  191.9470  177.7750  143.5700 C   0  0  0  0  0  2  0  0  0  0  0  0
  191.8700  178.2170  142.1170 C   0  0  0  0  0  2  0  0  0  0  0  0
  190.7640  177.4800  139.9640 C   0  0  1  0  0  3  0  0  0  0  0  0
  191.3660  176.9060  138.7100 C   0  0  0  0  0  0  0  0  0  0  0  0
  193.2240  175.9270  137.4940 C   0  0  0  0  0  3  0  0  0  0  0  0
  190.5650  176.7870  137.5690 C   0  0  0  0  0  3  0  0  0  0  0  0
  192.6970  176.4650  138.6710 C   0  0  0  0  0  3  0  0  0  0  0  0
  192.4160  175.8030  136.3540 C   0  0  0  0  0  0  0  0  0  0  0  0
  191.0910  176.2420  136.3950 C   0  0  0  0  0  3  0  0  0  0  0  0
  192.9690  175.2810  135.0650 C   0  0  0  0  0  2  0  0  0  0  0  0
  194.4890  173.2690  135.1830 C   0  0  0  0  0  0  0  0  0  0  0  0
  194.2830  174.6820  135.2560 N   0  0  0  0  0  2  0  0  0  0  0  0
  193.5150  172.4920  134.9950 O   0  0  0  0  0  0  0  0  0  0  0  0
  196.6480  173.5580  136.0940 O   0  0  0  0  0  1  0  0  0  0  0  0
  195.8620  172.6990  135.3240 C   0  0  1  0  0  3  0  0  0  0  0  0
  196.9380  170.4980  135.9900 C   0  0  0  0  0  0  0  0  0  0  0  0
  195.8190  171.3860  135.9550 N   0  0  0  0  0  2  0  0  0  0  0  0
  198.0270  170.8190  135.4390 O   0  0  0  0  0  0  0  0  0  0  0  0
  196.4960  169.1960  137.9710 N   0  0  0  0  0  1  0  0  0  0  0  0
  196.8100  169.2690  136.6310 O   0  0  0  0  0  0  0  0  0  0  0  0
  189.2470  177.2720  140.0050 C   0  0  0  0  0  2  0  0  0  0  0  0
  187.0470  178.4120  140.0650 C   0  0  0  0  0  1  0  0  0  0  0  0
  188.4980  178.5010  140.4960 C   0  0  0  0  0  2  0  0  0  0  0  0
  1 30  1  6  0  0  0
  1  4  1  0  0  0  0
  4  2  1  0  0  0  0
  4  3  2  0  0  0  0
  5  2  1  0  0  0  0
  6  7  2  0  0  0  0
  6  1  1  0  0  0  0
  7  5  1  0  0  0  0
  8 10  1  0  0  0  0
  8  7  1  0  0  0  0
 10  9  2  0  0  0  0
 11 14  1  6  0  0  0
 11 13  1  0  0  0  0
 11 10  1  0  0  0  0
 12 13  1  0  0  0  0
 15 14  1  0  0  0  0
 16 18  1  0  0  0  0
 17 18  1  0  0  0  0
 18 15  1  1  0  0  0
 19 17  1  0  0  0  0
 20 19  1  0  0  0  0
 20 21  1  0  0  0  0
 21 22  1  6  0  0  0
 21 16  1  0  0  0  0
 23 28  1  6  0  0  0
 23 26  1  0  0  0  0
 24 26  1  0  0  0  0
 24 22  1  0  0  0  0
 25 27  1  0  0  0  0
 25 23  1  0  0  0  0
 27 24  1  0  0  0  0
 28 29  1  0  0  0  0
 31 33  1  0  0  0  0
 32 36  1  6  0  0  0
 32 35  1  0  0  0  0
 32 31  1  0  0  0  0
 33 30  1  1  0  0  0
 34 33  1  0  0  0  0
 35 34  1  0  0  0  0
 36 54  1  1  0  0  0
 37 36  1  0  0  0  0
 38 40  2  0  0  0  0
 39 37  2  0  0  0  0
 40 37  1  0  0  0  0
 41 42  2  0  0  0  0
 41 38  1  0  0  0  0
 42 39  1  0  0  0  0
 43 45  1  0  0  0  0
 43 41  1  0  0  0  0
 44 45  1  0  0  0  0
 44 48  1  0  0  0  0
 46 44  2  0  0  0  0
 48 50  1  0  0  0  0
 48 47  1  1  0  0  0
 49 53  1  0  0  0  0
 50 49  1  0  0  0  0
 51 49  2  0  0  0  0
 53 52  1  0  0  0  0
 54 56  1  0  0  0  0
 55 56  1  0  0  0  0
M  END
>  <MODEL>
9

>  <REMARK>
 VINA RESULT:      -5.6      1.917      2.505
  Name = 
  21 active torsions:
  status: ('A' for Active; 'I' for Inactive)
    1  A    between atoms: C_1  and  C_11
    2  A    between atoms: C_2  and  N_19
    3  A    between atoms: C_2  and  C_54
    4  A    between atoms: C_4  and  C_14
    5  A    between atoms: C_7  and  C_11
    6  A    between atoms: C_8  and  C_10
    7  A    between atoms: C_11  and  C_17
    8  A    between atoms: C_14  and  C_47
    9  A    between atoms: N_15  and  C_30
   10  A    between atoms: N_15  and  C_42
   11  A    between atoms: C_17  and  C_25
   12  A    between atoms: C_20  and  O_41
   13  A    between atoms: C_24  and  N_27
   14  A    between atoms: C_24  and  C_33
   15  A    between atoms: C_26  and  C_50
   16  A    between atoms: N_34  and  C_39
   17  A    between atoms: C_35  and  C_50
   18  A    between atoms: C_35  and  C_56
   19  A    between atoms: C_39  and  C_43
   20  A    between atoms: C_42  and  C_56
   21  A    between atoms: O_55  and  C_56
                            x       y       z     vdW  Elec       q    Type
                         _______ _______ _______ _____ _____    ______ ____

>  <TORSDO>
F 21

$$$$
