=
 OpenBabel10222421323D

 65 69  0  0  1  0  0  0  0  0999 V2000
  187.8600  175.7110  137.2040 C   0  0  0  0  0  0  0  0  0  0  0  0
  182.3300  175.6540  139.9150 C   0  0  0  0  0  1  0  0  0  0  0  0
  185.3310  178.5570  140.9470 C   0  0  0  0  0  2  0  0  0  0  0  0
  187.1680  177.9030  138.3490 C   0  0  0  0  0  2  0  0  0  0  0  0
  185.2180  174.7430  134.3530 S   0  0  0  0  0  0  0  0  0  0  0  0
  188.0360  176.7460  138.1790 N   0  0  0  0  0  2  0  0  0  0  0  0
  183.7320  177.1000  138.3710 C   0  0  0  0  0  2  0  0  0  0  0  0
  182.9820  177.0110  139.6990 C   0  0  1  0  0  3  0  0  0  0  0  0
  184.5450  178.3920  143.3450 C   0  0  0  0  0  0  0  0  0  0  0  0
  188.8000  174.6680  137.1580 C   0  0  0  0  0  3  0  0  0  0  0  0
  187.5830  173.5980  135.3430 C   0  0  0  0  0  3  0  0  0  0  0  0
  181.9980  178.0760  139.8180 N   0  0  0  0  0  2  0  0  0  0  0  0
  184.5920  176.1350  135.4000 C   0  0  1  0  0  3  0  0  0  0  0  0
  183.6870  178.6640  144.2290 O   0  0  0  0  0  0  0  0  0  0  0  0
  186.7780  175.6660  136.2940 C   0  0  0  0  0  0  0  0  0  0  0  0
  182.6880  179.3230  140.1520 C   0  0  2  0  0  3  0  0  0  0  0  0
  183.0130  179.3780  141.6450 C   0  0  0  0  0  2  0  0  0  0  0  0
  186.6740  174.6480  135.3700 C   0  0  0  0  0  0  0  0  0  0  0  0
  185.7330  177.5280  143.6930 C   0  0  1  0  0  3  0  0  0  0  0  0
  183.3650  175.6860  136.2230 C   0  0  1  0  0  3  0  0  0  0  0  0
  184.3210  178.8030  141.9870 N   0  0  0  0  0  0  0  0  0  0  0  0
  186.6940  178.1890  141.4820 C   0  0  0  0  0  0  0  0  0  0  0  0
  188.6610  173.6140  136.2400 C   0  0  0  0  0  3  0  0  0  0  0  0
  181.8930  177.4250  136.9300 O   0  0  0  0  0  0  0  0  0  0  0  0
  185.6780  176.5610  136.2820 N   0  0  0  0  0  2  0  0  0  0  0  0
  187.8240  178.2890  140.6550 O   0  0  0  0  0  0  0  0  0  0  0  0
  187.7930  178.8670  139.3470 C   0  0  0  0  0  2  0  0  0  0  0  0
  182.9030  176.7840  137.1550 C   0  0  0  0  0  0  0  0  0  0  0  0
  186.8570  177.7380  142.7210 C   0  0  0  0  0  3  0  0  0  0  0  0
  181.7720  180.4910  139.7790 C   0  0  0  0  0  3  0  0  0  0  0  0
  181.2360  180.2380  138.3830 C   0  0  0  0  0  2  0  0  0  0  0  0
  182.3410  181.2470  138.6020 C   0  0  0  0  0  2  0  0  0  0  0  0
  182.2320  175.2460  135.2900 C   0  0  0  0  0  2  0  0  0  0  0  0
  181.6050  173.9510  135.7740 C   0  0  0  0  0  2  0  0  0  0  0  0
  180.4120  173.6620  134.9780 N   0  0  0  0  0  2  0  0  0  0  0  0
  180.2840  172.2610  134.9260 N   0  0  0  0  0  2  0  0  0  0  0  0
  181.8330  170.3250  134.8050 C   0  0  0  0  0  0  0  0  0  0  0  0
  180.8760  169.5040  134.8010 O   0  0  0  0  0  0  0  0  0  0  0  0
  181.5810  171.7230  135.0160 N   0  0  0  0  0  2  0  0  0  0  0  0
  183.2340  169.8480  134.5840 C   0  0  0  0  0  2  0  0  0  0  0  0
  184.2080  171.0140  134.5960 C   0  0  0  0  0  2  0  0  0  0  0  0
  185.0080  171.1470  135.8940 C   0  0  0  0  0  2  0  0  0  0  0  0
  185.4120  172.6430  137.8750 C   0  0  0  0  0  1  0  0  0  0  0  0
  184.3740  172.1090  136.8990 C   0  0  2  0  0  3  0  0  0  0  0  0
  183.3510  171.4740  137.6050 O   0  0  0  0  0  1  0  0  0  0  0  0
  186.2010  177.8150  144.9810 O   0  0  0  0  0  0  0  0  0  0  0  0
  187.5540  177.4620  144.9760 C   0  0  0  0  0  2  0  0  0  0  0  0
  188.0100  176.9560  147.3030 O   0  0  0  0  0  1  0  0  0  0  0  0
  188.2360  177.8890  146.2860 C   0  0  1  0  0  3  0  0  0  0  0  0
  189.7430  178.1350  146.0910 C   0  0  1  0  0  3  0  0  0  0  0  0
  189.9000  175.8800  146.9640 O   0  0  0  0  0  1  0  0  0  0  0  0
  191.7710  177.1600  146.9860 O   0  0  0  0  0  1  0  0  0  0  0  0
  190.6080  176.8610  146.2680 C   0  0  0  0  0  3  0  0  0  0  0  0
  189.9620  178.7080  144.8290 O   0  0  0  0  0  0  0  0  0  0  0  0
  190.7960  177.8040  144.1660 C   0  0  0  0  0  2  0  0  0  0  0  0
  190.3080  177.5790  142.7400 C   0  0  0  0  0  2  0  0  0  0  0  0
  191.4520  177.1740  141.8180 C   0  0  0  0  0  2  0  0  0  0  0  0
  191.2780  177.7890  140.5110 N   0  0  0  0  0  2  0  0  0  0  0  0
  191.5380  176.7550  139.5200 C   0  0  0  0  0  2  0  0  0  0  0  0
  193.0220  176.7250  139.1930 C   0  0  0  0  0  2  0  0  0  0  0  0
  192.0830  175.1450  137.1670 O   0  0  0  0  0  0  0  0  0  0  0  0
  193.3730  175.7160  137.7120 P   0  0  2  0  0  0  0  0  0  0  0  0
  194.4400  174.4650  138.1240 O   0  0  0  0  0  1  0  0  0  0  0  0
  194.9940  175.8710  135.8510 C   0  0  0  0  0  1  0  0  0  0  0  0
  194.1020  176.7030  136.5470 O   0  0  0  0  0  0  0  0  0  0  0  0
  1  6  1  0  0  0  0
  3 22  1  0  0  0  0
  3 21  1  0  0  0  0
  4 27  1  0  0  0  0
  5 18  1  0  0  0  0
  6  4  1  0  0  0  0
  7  8  1  0  0  0  0
  8 12  1  0  0  0  0
  8  2  1  6  0  0  0
  9 19  1  0  0  0  0
  9 14  2  0  0  0  0
 10  1  1  0  0  0  0
 11 18  2  0  0  0  0
 11 23  1  0  0  0  0
 12 16  1  0  0  0  0
 13  5  1  1  0  0  0
 13 20  1  0  0  0  0
 13 25  1  0  0  0  0
 15  1  2  0  0  0  0
 16 30  1  1  0  0  0
 16 17  1  0  0  0  0
 17 21  1  0  0  0  0
 18 15  1  0  0  0  0
 19 46  1  1  0  0  0
 20 33  1  6  0  0  0
 20 28  1  0  0  0  0
 21  9  1  0  0  0  0
 22 29  2  0  0  0  0
 23 10  2  0  0  0  0
 24 28  2  0  0  0  0
 25 15  1  0  0  0  0
 26 22  1  0  0  0  0
 27 26  1  0  0  0  0
 28  7  1  0  0  0  0
 29 19  1  0  0  0  0
 31 32  1  0  0  0  0
 31 30  1  0  0  0  0
 32 30  1  0  0  0  0
 33 34  1  0  0  0  0
 35 34  1  0  0  0  0
 36 35  1  0  0  0  0
 36 39  1  0  0  0  0
 37 39  1  0  0  0  0
 38 37  2  0  0  0  0
 40 41  1  0  0  0  0
 40 37  1  0  0  0  0
 41 42  1  0  0  0  0
 42 44  1  0  0  0  0
 44 45  1  0  0  0  0
 44 43  1  1  0  0  0
 47 46  1  0  0  0  0
 47 49  1  0  0  0  0
 49 48  1  1  0  0  0
 50 54  1  6  0  0  0
 50 53  1  0  0  0  0
 50 49  1  0  0  0  0
 53 51  1  0  0  0  0
 53 52  1  0  0  0  0
 55 54  1  0  0  0  0
 56 55  1  0  0  0  0
 57 56  1  0  0  0  0
 58 57  1  0  0  0  0
 59 58  1  0  0  0  0
 60 59  1  0  0  0  0
 62 61  2  6  0  0  0
 62 63  1  0  0  0  0
 62 60  1  0  0  0  0
 64 65  1  0  0  0  0
 65 62  1  0  0  0  0
M  END
>  <MODEL>
1

>  <REMARK>
 VINA RESULT:      -5.1      0.000      0.000
  Name = 
  24 active torsions:
  status: ('A' for Active; 'I' for Inactive)
    1  A    between atoms: C_1  and  O_15
    2  A    between atoms: C_1  and  C_58
    3  A    between atoms: C_3  and  C_37
    4  A    between atoms: C_4  and  N_48
    5  A    between atoms: C_4  and  C_62
    6  A    between atoms: C_5  and  O_15
    7  A    between atoms: C_5  and  C_19
    8  A    between atoms: C_5  and  C_64
    9  A    between atoms: C_9  and  C_52
   10  A    between atoms: O_11  and  C_42
   11  A    between atoms: O_11  and  C_46
   12  A    between atoms: C_14  and  C_63
   13  A    between atoms: O_22  and  P_41
   14  A    between atoms: C_24  and  C_43
   15  A    between atoms: C_24  and  C_53
   16  A    between atoms: C_28  and  N_48
   17  A    between atoms: C_28  and  C_58
   18  A    between atoms: N_40  and  N_49
   19  A    between atoms: P_41  and  C_62
   20  A    between atoms: C_46  and  C_64
   21  A    between atoms: C_47  and  C_52
   22  A    between atoms: C_47  and  C_63
   23  A    between atoms: N_49  and  N_50
   24  A    between atoms: N_50  and  C_53
                            x       y       z     vdW  Elec       q    Type
                         _______ _______ _______ _____ _____    ______ ____

>  <TORSDO>
F 24

$$$$
=
 OpenBabel10222421323D

 65 69  0  0  1  0  0  0  0  0999 V2000
  188.0440  176.0860  137.5620 C   0  0  0  0  0  0  0  0  0  0  0  0
  182.1270  175.4220  139.1380 C   0  0  0  0  0  1  0  0  0  0  0  0
  184.4680  178.7720  140.4770 C   0  0  0  0  0  2  0  0  0  0  0  0
  186.8650  178.2250  138.3550 C   0  0  0  0  0  2  0  0  0  0  0  0
  186.1840  174.5880  134.3470 S   0  0  0  0  0  0  0  0  0  0  0  0
  187.8860  177.1930  138.4580 N   0  0  0  0  0  2  0  0  0  0  0  0
  183.6240  176.9530  137.7770 C   0  0  0  0  0  2  0  0  0  0  0  0
  182.6360  176.8410  138.9360 C   0  0  1  0  0  3  0  0  0  0  0  0
  183.2340  178.6450  142.6810 C   0  0  0  0  0  0  0  0  0  0  0  0
  189.0960  175.1850  137.7910 C   0  0  0  0  0  3  0  0  0  0  0  0
  188.4200  173.8460  135.8750 C   0  0  0  0  0  3  0  0  0  0  0  0
  181.5230  177.7630  138.7680 N   0  0  0  0  0  2  0  0  0  0  0  0
  185.1880  175.9400  135.1260 C   0  0  1  0  0  3  0  0  0  0  0  0
  182.1870  178.8480  143.3540 O   0  0  0  0  0  0  0  0  0  0  0  0
  187.1860  175.8360  136.4660 C   0  0  0  0  0  0  0  0  0  0  0  0
  181.9690  179.1120  139.1190 C   0  0  2  0  0  3  0  0  0  0  0  0
  181.9720  179.3020  140.6370 C   0  0  0  0  0  2  0  0  0  0  0  0
  187.4000  174.7590  135.6320 C   0  0  0  0  0  0  0  0  0  0  0  0
  184.4240  177.9780  143.3280 C   0  0  1  0  0  3  0  0  0  0  0  0
  183.8840  175.3750  135.7310 C   0  0  1  0  0  3  0  0  0  0  0  0
  183.2440  178.9370  141.2760 N   0  0  0  0  0  0  0  0  0  0  0  0
  185.7270  178.6320  141.2980 C   0  0  0  0  0  0  0  0  0  0  0  0
  189.2810  174.0670  136.9590 C   0  0  0  0  0  3  0  0  0  0  0  0
  182.0930  176.9310  135.9830 O   0  0  0  0  0  0  0  0  0  0  0  0
  186.0090  176.5660  136.1630 N   0  0  0  0  0  2  0  0  0  0  0  0
  186.9810  178.8390  140.7020 O   0  0  0  0  0  0  0  0  0  0  0  0
  187.1470  179.3260  139.3670 C   0  0  0  0  0  2  0  0  0  0  0  0
  183.1070  176.4520  136.4550 C   0  0  0  0  0  0  0  0  0  0  0  0
  185.6880  178.2830  142.5800 C   0  0  0  0  0  3  0  0  0  0  0  0
  181.0100  180.1160  138.4740 C   0  0  0  0  0  3  0  0  0  0  0  0
  181.4450  180.3210  137.0360 C   0  0  0  0  0  2  0  0  0  0  0  0
  181.7540  181.3700  138.0810 C   0  0  0  0  0  2  0  0  0  0  0  0
  183.0300  174.7250  134.6370 C   0  0  0  0  0  2  0  0  0  0  0  0
  182.0760  173.7030  135.2300 C   0  0  0  0  0  2  0  0  0  0  0  0
  180.7310  173.9300  134.7020 N   0  0  0  0  0  2  0  0  0  0  0  0
  180.0300  172.7170  134.8340 N   0  0  0  0  0  2  0  0  0  0  0  0
  180.8160  170.4370  135.4210 C   0  0  0  0  0  0  0  0  0  0  0  0
  179.9830  170.3440  136.3610 O   0  0  0  0  0  0  0  0  0  0  0  0
  180.9720  171.6790  134.7160 N   0  0  0  0  0  2  0  0  0  0  0  0
  181.6410  169.2520  135.0270 C   0  0  0  0  0  2  0  0  0  0  0  0
  183.0740  169.6670  134.7330 C   0  0  0  0  0  2  0  0  0  0  0  0
  183.8480  170.1550  135.9600 C   0  0  0  0  0  2  0  0  0  0  0  0
  186.1350  170.9070  135.2310 C   0  0  0  0  0  1  0  0  0  0  0  0
  184.7480  171.3560  135.6680 C   0  0  2  0  0  3  0  0  0  0  0  0
  184.8540  172.1740  136.7930 O   0  0  0  0  0  1  0  0  0  0  0  0
  184.5790  178.4050  144.6530 O   0  0  0  0  0  0  0  0  0  0  0  0
  185.8030  177.8770  145.0770 C   0  0  0  0  0  2  0  0  0  0  0  0
  185.6360  179.1560  147.1300 O   0  0  0  0  0  1  0  0  0  0  0  0
  186.4910  178.8230  146.0750 C   0  0  1  0  0  3  0  0  0  0  0  0
  187.8110  178.2340  146.6020 C   0  0  1  0  0  3  0  0  0  0  0  0
  188.3100  178.2650  148.9730 O   0  0  0  0  0  1  0  0  0  0  0  0
  188.2510  176.2540  147.9260 O   0  0  0  0  0  1  0  0  0  0  0  0
  187.6720  177.5270  147.9740 C   0  0  0  0  0  3  0  0  0  0  0  0
  188.3430  177.3540  145.6470 O   0  0  0  0  0  0  0  0  0  0  0  0
  188.6870  178.1680  144.5640 C   0  0  0  0  0  2  0  0  0  0  0  0
  190.0750  178.7610  144.7670 C   0  0  0  0  0  2  0  0  0  0  0  0
  190.6460  179.3000  143.4610 C   0  0  0  0  0  2  0  0  0  0  0  0
  191.9530  178.7120  143.2090 N   0  0  0  0  0  2  0  0  0  0  0  0
  191.7610  177.6620  142.2200 C   0  0  0  0  0  2  0  0  0  0  0  0
  192.5070  176.4120  142.6540 C   0  0  0  0  0  2  0  0  0  0  0  0
  192.3840  174.2630  144.3420 O   0  0  0  0  0  1  0  0  0  0  0  0
  191.6480  175.5410  144.0100 P   0  0  2  0  0  0  0  0  0  0  0  0
  190.0560  175.1950  143.5360 O   0  0  0  0  0  0  0  0  0  0  0  0
  191.7630  175.7060  146.4740 C   0  0  0  0  0  1  0  0  0  0  0  0
  191.6130  176.5540  145.3650 O   0  0  0  0  0  0  0  0  0  0  0  0
  1 10  1  0  0  0  0
  1  6  1  0  0  0  0
  3 21  1  0  0  0  0
  3 22  1  0  0  0  0
  4  6  1  0  0  0  0
  4 27  1  0  0  0  0
  5 18  1  0  0  0  0
  7  8  1  0  0  0  0
  8  2  1  6  0  0  0
  9 19  1  0  0  0  0
  9 14  2  0  0  0  0
 11 23  1  0  0  0  0
 12  8  1  0  0  0  0
 12 16  1  0  0  0  0
 13  5  1  1  0  0  0
 13 20  1  0  0  0  0
 13 25  1  0  0  0  0
 15  1  2  0  0  0  0
 16 30  1  6  0  0  0
 16 17  1  0  0  0  0
 17 21  1  0  0  0  0
 18 11  2  0  0  0  0
 18 15  1  0  0  0  0
 19 46  1  1  0  0  0
 20 33  1  6  0  0  0
 20 28  1  0  0  0  0
 21  9  1  0  0  0  0
 22 29  2  0  0  0  0
 23 10  2  0  0  0  0
 24 28  2  0  0  0  0
 25 15  1  0  0  0  0
 26 22  1  0  0  0  0
 27 26  1  0  0  0  0
 28  7  1  0  0  0  0
 29 19  1  0  0  0  0
 31 32  1  0  0  0  0
 31 30  1  0  0  0  0
 32 30  1  0  0  0  0
 33 34  1  0  0  0  0
 35 36  1  0  0  0  0
 35 34  1  0  0  0  0
 37 38  2  0  0  0  0
 39 36  1  0  0  0  0
 39 37  1  0  0  0  0
 40 37  1  0  0  0  0
 41 40  1  0  0  0  0
 41 42  1  0  0  0  0
 44 43  1  1  0  0  0
 44 42  1  0  0  0  0
 44 45  1  0  0  0  0
 46 47  1  0  0  0  0
 47 49  1  0  0  0  0
 49 50  1  0  0  0  0
 49 48  1  1  0  0  0
 50 54  1  6  0  0  0
 50 53  1  0  0  0  0
 52 53  1  0  0  0  0
 53 51  1  0  0  0  0
 55 56  1  0  0  0  0
 55 54  1  0  0  0  0
 57 56  1  0  0  0  0
 58 57  1  0  0  0  0
 59 60  1  0  0  0  0
 59 58  1  0  0  0  0
 60 62  1  0  0  0  0
 62 63  2  6  0  0  0
 62 61  1  0  0  0  0
 62 65  1  0  0  0  0
 65 64  1  0  0  0  0
M  END
>  <MODEL>
2

>  <REMARK>
 VINA RESULT:      -4.5      2.285      2.868
  Name = 
  24 active torsions:
  status: ('A' for Active; 'I' for Inactive)
    1  A    between atoms: C_1  and  O_15
    2  A    between atoms: C_1  and  C_58
    3  A    between atoms: C_3  and  C_37
    4  A    between atoms: C_4  and  N_48
    5  A    between atoms: C_4  and  C_62
    6  A    between atoms: C_5  and  O_15
    7  A    between atoms: C_5  and  C_19
    8  A    between atoms: C_5  and  C_64
    9  A    between atoms: C_9  and  C_52
   10  A    between atoms: O_11  and  C_42
   11  A    between atoms: O_11  and  C_46
   12  A    between atoms: C_14  and  C_63
   13  A    between atoms: O_22  and  P_41
   14  A    between atoms: C_24  and  C_43
   15  A    between atoms: C_24  and  C_53
   16  A    between atoms: C_28  and  N_48
   17  A    between atoms: C_28  and  C_58
   18  A    between atoms: N_40  and  N_49
   19  A    between atoms: P_41  and  C_62
   20  A    between atoms: C_46  and  C_64
   21  A    between atoms: C_47  and  C_52
   22  A    between atoms: C_47  and  C_63
   23  A    between atoms: N_49  and  N_50
   24  A    between atoms: N_50  and  C_53
                            x       y       z     vdW  Elec       q    Type
                         _______ _______ _______ _____ _____    ______ ____

>  <TORSDO>
F 24

$$$$
=
 OpenBabel10222421323D

 65 69  0  0  1  0  0  0  0  0999 V2000
  187.3360  177.6660  144.5770 C   0  0  0  0  0  0  0  0  0  0  0  0
  188.5400  179.9250  138.9750 C   0  0  0  0  0  1  0  0  0  0  0  0
  190.4690  176.3760  140.4510 C   0  0  0  0  0  2  0  0  0  0  0  0
  188.3920  176.0100  142.9220 C   0  0  0  0  0  2  0  0  0  0  0  0
  183.8550  179.0300  143.1410 S   0  0  0  0  0  0  0  0  0  0  0  0
  188.3820  176.7810  144.1570 N   0  0  0  0  0  2  0  0  0  0  0  0
  187.4910  177.8930  140.0760 C   0  0  0  0  0  2  0  0  0  0  0  0
  188.5770  178.4120  139.1350 C   0  0  1  0  0  3  0  0  0  0  0  0
  192.5740  177.1310  139.2690 C   0  0  0  0  0  0  0  0  0  0  0  0
  187.4710  178.3230  145.8110 C   0  0  0  0  0  3  0  0  0  0  0  0
  185.3470  179.4630  145.4810 C   0  0  0  0  0  3  0  0  0  0  0  0
  188.5020  177.7590  137.8380 N   0  0  0  0  0  2  0  0  0  0  0  0
  184.7870  178.0870  141.8500 C   0  0  1  0  0  3  0  0  0  0  0  0
  193.2240  177.2850  138.2000 O   0  0  0  0  0  0  0  0  0  0  0  0
  186.1800  177.9330  143.8090 C   0  0  0  0  0  0  0  0  0  0  0  0
  189.0730  176.4160  137.9500 C   0  0  2  0  0  3  0  0  0  0  0  0
  190.6000  176.4710  137.9000 C   0  0  0  0  0  2  0  0  0  0  0  0
  185.2020  178.7860  144.2760 C   0  0  0  0  0  0  0  0  0  0  0  0
  193.1620  177.5960  140.5790 C   0  0  1  0  0  3  0  0  0  0  0  0
  185.2420  179.0260  140.7130 C   0  0  1  0  0  3  0  0  0  0  0  0
  191.2300  176.6270  139.2180 N   0  0  0  0  0  0  0  0  0  0  0  0
  191.3120  176.3470  141.7030 C   0  0  0  0  0  0  0  0  0  0  0  0
  186.4880  179.2220  146.2580 C   0  0  0  0  0  3  0  0  0  0  0  0
  185.6500  177.9880  138.6040 O   0  0  0  0  0  0  0  0  0  0  0  0
  185.9400  177.4580  142.4940 N   0  0  0  0  0  2  0  0  0  0  0  0
  190.8080  175.7640  142.8770 O   0  0  0  0  0  0  0  0  0  0  0  0
  189.5700  175.0480  142.9300 C   0  0  0  0  0  2  0  0  0  0  0  0
  186.0870  178.2870  139.7000 C   0  0  0  0  0  0  0  0  0  0  0  0
  192.5230  176.8920  141.7400 C   0  0  0  0  0  3  0  0  0  0  0  0
  188.5470  175.5740  136.7860 C   0  0  0  0  0  3  0  0  0  0  0  0
  187.5030  174.6190  137.3330 C   0  0  0  0  0  2  0  0  0  0  0  0
  188.8900  174.1190  136.9960 C   0  0  0  0  0  2  0  0  0  0  0  0
  184.0280  179.6770  140.0430 C   0  0  0  0  0  2  0  0  0  0  0  0
  182.7830  178.8280  140.2360 C   0  0  0  0  0  2  0  0  0  0  0  0
  181.6220  179.5410  139.7040 N   0  0  0  0  0  2  0  0  0  0  0  0
  181.3180  178.9570  138.4600 N   0  0  0  0  0  2  0  0  0  0  0  0
  182.3900  176.8470  137.7100 C   0  0  0  0  0  0  0  0  0  0  0  0
  182.7840  177.3780  136.6370 O   0  0  0  0  0  0  0  0  0  0  0  0
  181.5190  177.5700  138.5940 N   0  0  0  0  0  2  0  0  0  0  0  0
  182.8330  175.4640  138.0720 C   0  0  0  0  0  2  0  0  0  0  0  0
  183.8390  174.9390  137.0600 C   0  0  0  0  0  2  0  0  0  0  0  0
  183.2960  173.8300  136.1560 C   0  0  0  0  0  2  0  0  0  0  0  0
  184.8460  172.4300  137.5570 C   0  0  0  0  0  1  0  0  0  0  0  0
  183.6100  172.4240  136.6700 C   0  0  2  0  0  3  0  0  0  0  0  0
  183.8040  171.5460  135.6040 O   0  0  0  0  0  1  0  0  0  0  0  0
  194.5420  177.3580  140.6220 O   0  0  0  0  0  0  0  0  0  0  0  0
  194.6950  175.9900  140.3790 C   0  0  0  0  0  2  0  0  0  0  0  0
  196.8460  174.9900  140.8790 O   0  0  0  0  0  1  0  0  0  0  0  0
  196.1220  175.6750  139.8990 C   0  0  1  0  0  3  0  0  0  0  0  0
  196.1180  174.8950  138.5720 C   0  0  1  0  0  3  0  0  0  0  0  0
  197.7790  175.3690  136.8730 O   0  0  0  0  0  1  0  0  0  0  0  0
  197.6610  173.2550  137.6830 O   0  0  0  0  0  1  0  0  0  0  0  0
  197.5360  174.6070  138.0170 C   0  0  0  0  0  3  0  0  0  0  0  0
  195.4010  173.7000  138.7350 O   0  0  0  0  0  0  0  0  0  0  0  0
  194.1940  173.9130  138.0640 C   0  0  0  0  0  2  0  0  0  0  0  0
  194.4390  174.0620  136.5680 C   0  0  0  0  0  2  0  0  0  0  0  0
  194.8210  172.7300  135.9320 C   0  0  0  0  0  2  0  0  0  0  0  0
  193.9220  171.6830  136.3940 N   0  0  0  0  0  2  0  0  0  0  0  0
  194.6940  170.4500  136.4330 C   0  0  0  0  0  2  0  0  0  0  0  0
  195.2070  170.2160  137.8440 C   0  0  0  0  0  2  0  0  0  0  0  0
  196.1570  167.9140  136.7120 O   0  0  0  0  0  0  0  0  0  0  0  0
  196.3510  168.7950  137.9260 P   0  0  2  0  0  0  0  0  0  0  0  0
  196.0520  167.9140  139.3440 O   0  0  0  0  0  1  0  0  0  0  0  0
  198.3200  169.5250  136.6200 C   0  0  0  0  0  1  0  0  0  0  0  0
  197.9370  169.3810  137.9640 O   0  0  0  0  0  0  0  0  0  0  0  0
  1 10  1  0  0  0  0
  3 22  1  0  0  0  0
  4 27  1  0  0  0  0
  4  6  1  0  0  0  0
  5 18  1  0  0  0  0
  6  1  1  0  0  0  0
  8  2  1  6  0  0  0
  8  7  1  0  0  0  0
  9 19  1  0  0  0  0
 10 23  2  0  0  0  0
 11 23  1  0  0  0  0
 12 16  1  0  0  0  0
 12  8  1  0  0  0  0
 13 25  1  1  0  0  0
 13  5  1  0  0  0  0
 14  9  2  0  0  0  0
 15 18  1  0  0  0  0
 15  1  2  0  0  0  0
 16 30  1  6  0  0  0
 17 16  1  0  0  0  0
 17 21  1  0  0  0  0
 18 11  2  0  0  0  0
 19 46  1  6  0  0  0
 19 29  1  0  0  0  0
 20 33  1  6  0  0  0
 20 13  1  0  0  0  0
 21  9  1  0  0  0  0
 21  3  1  0  0  0  0
 22 29  2  0  0  0  0
 22 26  1  0  0  0  0
 24 28  2  0  0  0  0
 25 15  1  0  0  0  0
 26 27  1  0  0  0  0
 28  7  1  0  0  0  0
 28 20  1  0  0  0  0
 30 32  1  0  0  0  0
 30 31  1  0  0  0  0
 32 31  1  0  0  0  0
 33 34  1  0  0  0  0
 35 34  1  0  0  0  0
 36 39  1  0  0  0  0
 36 35  1  0  0  0  0
 37 40  1  0  0  0  0
 37 39  1  0  0  0  0
 38 37  2  0  0  0  0
 41 40  1  0  0  0  0
 42 44  1  0  0  0  0
 42 41  1  0  0  0  0
 44 43  1  6  0  0  0
 45 44  1  0  0  0  0
 47 46  1  0  0  0  0
 49 47  1  0  0  0  0
 49 48  1  1  0  0  0
 50 53  1  1  0  0  0
 50 54  1  0  0  0  0
 50 49  1  0  0  0  0
 51 53  1  0  0  0  0
 52 53  1  0  0  0  0
 55 54  1  0  0  0  0
 56 55  1  0  0  0  0
 57 58  1  0  0  0  0
 57 56  1  0  0  0  0
 58 59  1  0  0  0  0
 59 60  1  0  0  0  0
 60 62  1  0  0  0  0
 62 61  2  6  0  0  0
 62 65  1  0  0  0  0
 62 63  1  0  0  0  0
 64 65  1  0  0  0  0
M  END
>  <MODEL>
3

>  <REMARK>
 VINA RESULT:      -2.7      3.317      7.894
  Name = 
  24 active torsions:
  status: ('A' for Active; 'I' for Inactive)
    1  A    between atoms: C_1  and  O_15
    2  A    between atoms: C_1  and  C_58
    3  A    between atoms: C_3  and  C_37
    4  A    between atoms: C_4  and  N_48
    5  A    between atoms: C_4  and  C_62
    6  A    between atoms: C_5  and  O_15
    7  A    between atoms: C_5  and  C_19
    8  A    between atoms: C_5  and  C_64
    9  A    between atoms: C_9  and  C_52
   10  A    between atoms: O_11  and  C_42
   11  A    between atoms: O_11  and  C_46
   12  A    between atoms: C_14  and  C_63
   13  A    between atoms: O_22  and  P_41
   14  A    between atoms: C_24  and  C_43
   15  A    between atoms: C_24  and  C_53
   16  A    between atoms: C_28  and  N_48
   17  A    between atoms: C_28  and  C_58
   18  A    between atoms: N_40  and  N_49
   19  A    between atoms: P_41  and  C_62
   20  A    between atoms: C_46  and  C_64
   21  A    between atoms: C_47  and  C_52
   22  A    between atoms: C_47  and  C_63
   23  A    between atoms: N_49  and  N_50
   24  A    between atoms: N_50  and  C_53
                            x       y       z     vdW  Elec       q    Type
                         _______ _______ _______ _____ _____    ______ ____

>  <TORSDO>
F 24

$$$$
