=
 OpenBabel10232410193D

 52 56  0  0  1  0  0  0  0  0999 V2000
  186.6550  178.0560  143.7110 C   0  0  2  0  0  3  0  0  0  0  0  0
  184.8940  179.6520  143.5750 O   0  0  0  0  0  0  0  0  0  0  0  0
  185.4640  178.6670  143.0370 C   0  0  0  0  0  0  0  0  0  0  0  0
  184.9860  178.1220  141.7980 N   0  0  0  0  0  2  0  0  0  0  0  0
  184.2150  179.3130  139.7610 C   0  0  0  0  0  3  0  0  0  0  0  0
  181.8420  179.6150  139.3690 C   0  0  0  0  0  0  0  0  0  0  0  0
  183.9440  178.6540  140.9700 C   0  0  0  0  0  0  0  0  0  0  0  0
  183.1690  179.7900  138.9660 C   0  0  0  0  0  3  0  0  0  0  0  0
  182.6150  178.4740  141.3680 C   0  0  0  0  0  3  0  0  0  0  0  0
  181.5690  178.9500  140.5740 C   0  0  0  0  0  3  0  0  0  0  0  0
  180.7860  180.0870  138.5260 N   0  0  0  0  0  2  0  0  0  0  0  0
  180.9420  180.3060  137.0930 C   0  0  0  0  0  2  0  0  0  0  0  0
  180.5370  179.0620  136.3170 C   0  0  0  0  0  2  0  0  0  0  0  0
  181.7590  178.2440  135.9290 C   0  0  0  0  0  2  0  0  0  0  0  0
  181.8550  176.9690  136.7700 C   0  0  0  0  0  2  0  0  0  0  0  0
  183.1890  176.2220  136.6350 C   0  0  1  0  0  0  0  0  0  0  0  0
  183.0190  175.2240  135.5110 C   0  0  0  0  0  0  0  0  0  0  0  0
  181.9090  174.6530  135.3340 O   0  0  0  0  0  1  0  0  0  0  0  0
  184.0540  174.9710  134.6200 O   0  0  0  0  0  0  0  0  0  0  0  0
  185.3740  177.1240  137.1690 F   0  0  0  0  0  0  0  0  0  0  0  0
  184.2980  177.2340  136.3050 C   0  0  0  0  0  2  0  0  0  0  0  0
  183.4830  175.5050  137.9670 C   0  0  0  0  0  2  0  0  0  0  0  0
  184.1300  174.1360  137.8040 C   0  0  0  0  0  1  0  0  0  0  0  0
  187.3430  177.0340  142.8160 C   0  0  0  0  0  2  0  0  0  0  0  0
  188.6230  176.5510  143.4740 C   0  0  0  0  0  2  0  0  0  0  0  0
  189.7470  177.5490  143.2520 C   0  0  2  0  0  0  0  0  0  0  0  0
  192.0920  177.2710  140.8660 N   0  0  0  0  0  0  0  0  0  0  0  0
  191.6100  177.8990  141.8910 C   0  0  0  0  0  0  0  0  0  0  0  0
  191.1510  176.3880  138.7820 C   0  0  0  0  0  0  0  0  0  0  0  0
  192.1160  177.6560  143.1890 N   0  0  0  0  0  2  0  0  0  0  0  0
  191.0120  176.9600  139.9950 C   0  0  0  0  0  0  0  0  0  0  0  0
  190.1410  178.1070  141.8830 C   0  0  1  0  0  3  0  0  0  0  0  0
  188.6000  177.1140  140.2700 O   0  0  0  0  0  0  0  0  0  0  0  0
  189.7740  177.3340  140.6690 C   0  0  0  0  0  0  0  0  0  0  0  0
  191.0140  177.2550  144.0570 C   0  0  1  0  0  3  0  0  0  0  0  0
  190.1140  178.4330  144.4250 C   0  0  0  0  0  2  0  0  0  0  0  0
  189.7350  177.2420  136.9120 C   0  0  0  0  0  2  0  0  0  0  0  0
  188.5370  176.9090  136.0260 C   0  0  0  0  0  2  0  0  0  0  0  0
  190.0350  174.7620  137.2380 C   0  0  0  0  0  2  0  0  0  0  0  0
  189.9410  176.1230  137.9340 C   0  0  0  0  0  3  0  0  0  0  0  0
  188.7580  175.6350  135.3400 N   0  0  0  0  0  0  0  0  0  0  0  0
  187.5770  175.3870  134.5340 C   0  0  0  0  0  1  0  0  0  0  0  0
  188.8160  174.5710  136.3400 C   0  0  0  0  0  2  0  0  0  0  0  0
  193.3030  176.9020  137.8340 O   0  0  0  0  0  0  0  0  0  0  0  0
  192.4760  176.0370  138.2220 C   0  0  0  0  0  3  0  0  0  0  0  0
  186.3070  177.4850  145.0850 C   0  0  0  0  0  2  0  0  0  0  0  0
  186.8470  178.3320  146.2340 C   0  0  0  0  0  2  0  0  0  0  0  0
  187.1990  177.4580  147.4230 C   0  0  0  0  0  2  0  0  0  0  0  0
  189.5600  176.5820  147.2850 N   0  0  0  0  0  2  0  0  0  0  0  0
  188.6490  177.5770  147.7520 C   0  0  0  0  0  0  0  0  0  0  0  0
  189.0610  178.5610  148.4250 O   0  0  0  0  0  0  0  0  0  0  0  0
  190.9890  176.6690  147.5250 C   0  0  0  0  0  1  0  0  0  0  0  0
  1 24  1  6  0  0  0
  1 46  1  0  0  0  0
  3  2  2  0  0  0  0
  3  1  1  0  0  0  0
  4  3  1  0  0  0  0
  5  7  1  0  0  0  0
  6 10  2  0  0  0  0
  7  9  2  0  0  0  0
  7  4  1  0  0  0  0
  8  6  1  0  0  0  0
  8  5  2  0  0  0  0
 10  9  1  0  0  0  0
 11  6  1  0  0  0  0
 12 11  1  0  0  0  0
 13 12  1  0  0  0  0
 14 13  1  0  0  0  0
 14 15  1  0  0  0  0
 16 21  1  6  0  0  0
 16 15  1  0  0  0  0
 16 22  1  0  0  0  0
 17 16  1  0  0  0  0
 18 17  1  0  0  0  0
 19 17  2  0  0  0  0
 21 20  1  0  0  0  0
 23 22  1  0  0  0  0
 24 25  1  0  0  0  0
 26 25  1  1  0  0  0
 26 35  1  0  0  0  0
 26 36  1  0  0  0  0
 27 28  2  0  0  0  0
 28 30  1  0  0  0  0
 29 31  2  0  0  0  0
 30 35  1  0  0  0  0
 31 34  1  0  0  0  0
 31 27  1  0  0  0  0
 32 34  1  6  0  0  0
 32 28  1  0  0  0  0
 32 26  1  0  0  0  0
 33 34  2  0  0  0  0
 35 36  1  1  0  0  0
 37 40  1  0  0  0  0
 38 37  1  0  0  0  0
 39 40  1  0  0  0  0
 40 29  1  0  0  0  0
 41 38  1  0  0  0  0
 41 43  1  0  0  0  0
 42 41  1  0  0  0  0
 43 39  1  0  0  0  0
 44 45  2  0  0  0  0
 45 29  1  0  0  0  0
 46 47  1  0  0  0  0
 47 48  1  0  0  0  0
 48 50  1  0  0  0  0
 49 52  1  0  0  0  0
 49 50  1  0  0  0  0
 50 51  2  0  0  0  0
M  END
>  <MODEL>
1

>  <REMARK>
 VINA RESULT:      -7.0      0.000      0.000
  Name = 
  20 active torsions:
  status: ('A' for Active; 'I' for Inactive)
    1  A    between atoms: C_1  and  C_49
    2  A    between atoms: C_3  and  N_4
    3  A    between atoms: C_3  and  C_35
    4  A    between atoms: N_4  and  C_19
    5  A    between atoms: C_12  and  C_47
    6  A    between atoms: C_14  and  C_23
    7  A    between atoms: C_14  and  C_52
    8  A    between atoms: C_15  and  C_20
    9  A    between atoms: C_15  and  C_31
   10  A    between atoms: C_16  and  C_23
   11  A    between atoms: C_18  and  C_24
   12  A    between atoms: C_21  and  C_47
   13  A    between atoms: C_22  and  N_36
   14  A    between atoms: C_24  and  C_42
   15  A    between atoms: C_24  and  C_52
   16  A    between atoms: C_27  and  C_47
   17  A    between atoms: C_28  and  C_33
   18  A    between atoms: C_28  and  C_47
   19  A    between atoms: C_33  and  C_35
   20  A    between atoms: C_42  and  C_49
                            x       y       z     vdW  Elec       q    Type
                         _______ _______ _______ _____ _____    ______ ____

>  <TORSDO>
F 20

$$$$
=
 OpenBabel10232410193D

 52 56  0  0  1  0  0  0  0  0999 V2000
  190.1300  177.2770  138.7170 C   0  0  2  0  0  3  0  0  0  0  0  0
  188.9310  177.5150  140.7600 O   0  0  0  0  0  0  0  0  0  0  0  0
  190.0550  177.3790  140.2100 C   0  0  0  0  0  0  0  0  0  0  0  0
  191.2580  177.3270  140.9920 N   0  0  0  0  0  2  0  0  0  0  0  0
  191.3180  178.4580  143.2000 C   0  0  0  0  0  3  0  0  0  0  0  0
  191.4840  177.1350  145.2250 C   0  0  0  0  0  0  0  0  0  0  0  0
  191.3540  177.2910  142.4210 C   0  0  0  0  0  0  0  0  0  0  0  0
  191.3820  178.3790  144.5950 C   0  0  0  0  0  3  0  0  0  0  0  0
  191.4480  176.0480  143.0550 C   0  0  0  0  0  3  0  0  0  0  0  0
  191.5120  175.9680  144.4480 C   0  0  0  0  0  3  0  0  0  0  0  0
  191.5200  177.0770  146.6550 N   0  0  0  0  0  2  0  0  0  0  0  0
  190.3880  176.6480  147.4680 C   0  0  0  0  0  2  0  0  0  0  0  0
  189.3720  177.7710  147.6010 C   0  0  0  0  0  2  0  0  0  0  0  0
  188.0600  177.3980  146.9290 C   0  0  0  0  0  2  0  0  0  0  0  0
  187.6630  178.4440  145.8830 C   0  0  0  0  0  2  0  0  0  0  0  0
  186.3600  178.1260  145.1370 C   0  0  1  0  0  0  0  0  0  0  0  0
  186.7520  177.4500  143.8420 C   0  0  0  0  0  0  0  0  0  0  0  0
  187.5120  176.4440  143.8570 O   0  0  0  0  0  1  0  0  0  0  0  0
  186.2320  177.8810  142.6280 O   0  0  0  0  0  0  0  0  0  0  0  0
  184.8700  177.8720  147.0320 F   0  0  0  0  0  0  0  0  0  0  0  0
  185.5010  177.1920  146.0050 C   0  0  0  0  0  2  0  0  0  0  0  0
  185.6210  179.4500  144.8640 C   0  0  0  0  0  2  0  0  0  0  0  0
  184.1660  179.2730  144.4500 C   0  0  0  0  0  1  0  0  0  0  0  0
  188.8270  177.7140  138.0600 C   0  0  0  0  0  2  0  0  0  0  0  0
  188.0050  176.4940  137.6830 C   0  0  0  0  0  2  0  0  0  0  0  0
  187.4120  176.6600  136.2930 C   0  0  2  0  0  0  0  0  0  0  0  0
  184.1750  176.1900  135.5400 N   0  0  0  0  0  0  0  0  0  0  0  0
  185.3840  176.4530  135.1580 C   0  0  0  0  0  0  0  0  0  0  0  0
  182.7100  177.0120  137.3250 C   0  0  0  0  0  0  0  0  0  0  0  0
  186.2190  175.4300  134.6520 N   0  0  0  0  0  2  0  0  0  0  0  0
  183.9060  176.9610  136.7040 C   0  0  0  0  0  0  0  0  0  0  0  0
  186.1230  177.4290  135.9970 C   0  0  1  0  0  3  0  0  0  0  0  0
  185.3400  178.3050  138.1370 O   0  0  0  0  0  0  0  0  0  0  0  0
  185.1450  177.6240  137.0960 C   0  0  0  0  0  0  0  0  0  0  0  0
  187.4450  175.3890  135.4430 C   0  0  1  0  0  3  0  0  0  0  0  0
  188.3720  176.5610  135.1270 C   0  0  0  0  0  2  0  0  0  0  0  0
  181.2070  178.6410  138.4740 C   0  0  0  0  0  2  0  0  0  0  0  0
  181.0280  179.4590  139.7510 C   0  0  0  0  0  2  0  0  0  0  0  0
  182.6220  177.0570  139.8280 C   0  0  0  0  0  2  0  0  0  0  0  0
  182.5310  177.8780  138.5390 C   0  0  0  0  0  3  0  0  0  0  0  0
  181.0450  178.5780  140.9190 N   0  0  0  0  0  0  0  0  0  0  0  0
  180.8820  179.4280  142.0830 C   0  0  0  0  0  1  0  0  0  0  0  0
  182.3690  177.9690  141.0250 C   0  0  0  0  0  2  0  0  0  0  0  0
  181.3680  175.0350  137.0370 O   0  0  0  0  0  0  0  0  0  0  0  0
  181.5310  176.2660  136.8310 C   0  0  0  0  0  3  0  0  0  0  0  0
  190.5770  175.8910  138.2560 C   0  0  0  0  0  2  0  0  0  0  0  0
  191.7200  175.9410  137.2470 C   0  0  0  0  0  2  0  0  0  0  0  0
  193.0540  176.0780  137.9570 C   0  0  0  0  0  2  0  0  0  0  0  0
  194.7350  174.3940  137.1210 N   0  0  0  0  0  2  0  0  0  0  0  0
  194.1750  175.7050  137.0470 C   0  0  0  0  0  0  0  0  0  0  0  0
  194.6080  176.5430  136.2080 O   0  0  0  0  0  0  0  0  0  0  0  0
  195.7890  173.9520  136.2270 C   0  0  0  0  0  1  0  0  0  0  0  0
  1 24  1  6  0  0  0
  1  3  1  0  0  0  0
  3  2  2  0  0  0  0
  3  4  1  0  0  0  0
  4  7  1  0  0  0  0
  5  8  1  0  0  0  0
  6 11  1  0  0  0  0
  7  9  1  0  0  0  0
  7  5  2  0  0  0  0
  8  6  2  0  0  0  0
  9 10  2  0  0  0  0
 10  6  1  0  0  0  0
 11 12  1  0  0  0  0
 12 13  1  0  0  0  0
 14 13  1  0  0  0  0
 15 14  1  0  0  0  0
 16 22  1  6  0  0  0
 16 15  1  0  0  0  0
 16 21  1  0  0  0  0
 17 18  1  0  0  0  0
 17 16  1  0  0  0  0
 19 17  2  0  0  0  0
 21 20  1  0  0  0  0
 23 22  1  0  0  0  0
 25 24  1  0  0  0  0
 26 25  1  1  0  0  0
 27 31  1  0  0  0  0
 28 27  2  0  0  0  0
 29 40  1  0  0  0  0
 30 28  1  0  0  0  0
 30 35  1  0  0  0  0
 31 34  1  0  0  0  0
 31 29  2  0  0  0  0
 32 28  1  6  0  0  0
 32 26  1  0  0  0  0
 32 34  1  0  0  0  0
 34 33  2  0  0  0  0
 35 36  1  6  0  0  0
 35 26  1  0  0  0  0
 36 26  1  0  0  0  0
 37 40  1  0  0  0  0
 37 38  1  0  0  0  0
 38 41  1  0  0  0  0
 39 43  1  0  0  0  0
 40 39  1  0  0  0  0
 41 43  1  0  0  0  0
 41 42  1  0  0  0  0
 45 44  2  0  0  0  0
 45 29  1  0  0  0  0
 46  1  1  0  0  0  0
 47 48  1  0  0  0  0
 47 46  1  0  0  0  0
 50 49  1  0  0  0  0
 50 48  1  0  0  0  0
 51 50  2  0  0  0  0
 52 49  1  0  0  0  0
M  END
>  <MODEL>
2

>  <REMARK>
 VINA RESULT:      -6.8      2.403      9.685
  Name = 
  20 active torsions:
  status: ('A' for Active; 'I' for Inactive)
    1  A    between atoms: C_1  and  C_49
    2  A    between atoms: C_3  and  N_4
    3  A    between atoms: C_3  and  C_35
    4  A    between atoms: N_4  and  C_19
    5  A    between atoms: C_12  and  C_47
    6  A    between atoms: C_14  and  C_23
    7  A    between atoms: C_14  and  C_52
    8  A    between atoms: C_15  and  C_20
    9  A    between atoms: C_15  and  C_31
   10  A    between atoms: C_16  and  C_23
   11  A    between atoms: C_18  and  C_24
   12  A    between atoms: C_21  and  C_47
   13  A    between atoms: C_22  and  N_36
   14  A    between atoms: C_24  and  C_42
   15  A    between atoms: C_24  and  C_52
   16  A    between atoms: C_27  and  C_47
   17  A    between atoms: C_28  and  C_33
   18  A    between atoms: C_28  and  C_47
   19  A    between atoms: C_33  and  C_35
   20  A    between atoms: C_42  and  C_49
                            x       y       z     vdW  Elec       q    Type
                         _______ _______ _______ _____ _____    ______ ____

>  <TORSDO>
F 20

$$$$
=
 OpenBabel10232410193D

 52 56  0  0  1  0  0  0  0  0999 V2000
  183.2400  179.0540  139.1100 C   0  0  2  0  0  3  0  0  0  0  0  0
  183.9990  177.2210  137.7940 O   0  0  0  0  0  0  0  0  0  0  0  0
  184.3100  178.2790  138.4030 C   0  0  0  0  0  0  0  0  0  0  0  0
  185.6680  178.7430  138.4310 N   0  0  0  0  0  2  0  0  0  0  0  0
  186.9810  178.4310  136.3480 C   0  0  0  0  0  3  0  0  0  0  0  0
  189.0220  177.1240  136.3970 C   0  0  0  0  0  0  0  0  0  0  0  0
  186.7810  178.1910  137.7160 C   0  0  0  0  0  0  0  0  0  0  0  0
  188.0960  177.9010  135.6930 C   0  0  0  0  0  3  0  0  0  0  0  0
  187.7120  177.4200  138.4190 C   0  0  0  0  0  3  0  0  0  0  0  0
  188.8270  176.8890  137.7650 C   0  0  0  0  0  3  0  0  0  0  0  0
  190.1720  176.6140  135.7120 N   0  0  0  0  0  2  0  0  0  0  0  0
  190.9380  175.4660  136.1800 C   0  0  0  0  0  2  0  0  0  0  0  0
  192.4240  175.7890  136.1990 C   0  0  0  0  0  2  0  0  0  0  0  0
  193.2010  174.7190  136.9520 C   0  0  0  0  0  2  0  0  0  0  0  0
  194.6820  175.0910  137.0580 C   0  0  0  0  0  2  0  0  0  0  0  0
  195.6270  173.8870  137.1700 C   0  0  1  0  0  0  0  0  0  0  0  0
  197.0340  174.4200  137.0140 C   0  0  0  0  0  0  0  0  0  0  0  0
  198.0180  173.6310  137.0490 O   0  0  0  0  0  1  0  0  0  0  0  0
  197.2620  175.7670  136.7640 O   0  0  0  0  0  0  0  0  0  0  0  0
  195.7750  174.0860  139.5810 F   0  0  0  0  0  0  0  0  0  0  0  0
  195.4400  173.2290  138.5470 C   0  0  0  0  0  2  0  0  0  0  0  0
  195.2870  172.8950  136.0400 C   0  0  0  0  0  2  0  0  0  0  0  0
  195.6930  173.3730  134.6520 C   0  0  0  0  0  1  0  0  0  0  0  0
  182.3830  178.1530  139.9890 C   0  0  0  0  0  2  0  0  0  0  0  0
  183.1600  177.7550  141.2320 C   0  0  0  0  0  2  0  0  0  0  0  0
  182.8880  178.7290  142.3660 C   0  0  2  0  0  0  0  0  0  0  0  0
  184.3420  178.5810  145.3880 N   0  0  0  0  0  0  0  0  0  0  0  0
  183.4900  179.1330  144.5840 C   0  0  0  0  0  0  0  0  0  0  0  0
  186.6960  177.9180  145.2200 C   0  0  0  0  0  0  0  0  0  0  0  0
  182.1260  178.7600  144.6120 N   0  0  0  0  0  2  0  0  0  0  0  0
  185.5560  178.3860  144.6730 C   0  0  0  0  0  0  0  0  0  0  0  0
  183.9810  179.3910  143.2070 C   0  0  1  0  0  3  0  0  0  0  0  0
  186.1100  178.5980  142.3140 O   0  0  0  0  0  0  0  0  0  0  0  0
  185.3140  178.7420  143.2790 C   0  0  0  0  0  0  0  0  0  0  0  0
  181.7300  178.3220  143.2770 C   0  0  1  0  0  3  0  0  0  0  0  0
  181.5830  179.4940  142.3080 C   0  0  0  0  0  2  0  0  0  0  0  0
  189.1880  178.0640  145.1910 C   0  0  0  0  0  2  0  0  0  0  0  0
  190.4230  177.8420  144.3200 C   0  0  0  0  0  2  0  0  0  0  0  0
  188.0050  176.3800  143.7390 C   0  0  0  0  0  2  0  0  0  0  0  0
  187.9280  177.7710  144.3750 C   0  0  0  0  0  3  0  0  0  0  0  0
  190.4500  176.4630  143.8300 N   0  0  0  0  0  0  0  0  0  0  0  0
  191.6380  176.3390  143.0070 C   0  0  0  0  0  1  0  0  0  0  0  0
  189.3030  176.2590  142.9460 C   0  0  0  0  0  2  0  0  0  0  0  0
  186.9830  178.4350  147.5530 O   0  0  0  0  0  0  0  0  0  0  0  0
  186.7990  177.5720  146.6550 C   0  0  0  0  0  3  0  0  0  0  0  0
  182.4030  179.8910  138.1440 C   0  0  0  0  0  2  0  0  0  0  0  0
  182.2030  181.3260  138.6220 C   0  0  0  0  0  2  0  0  0  0  0  0
  180.8580  181.8590  138.1660 C   0  0  0  0  0  2  0  0  0  0  0  0
  180.3510  183.0930  136.0250 N   0  0  0  0  0  2  0  0  0  0  0  0
  181.0350  183.0440  137.2780 C   0  0  0  0  0  0  0  0  0  0  0  0
  181.7730  184.0000  137.6450 O   0  0  0  0  0  0  0  0  0  0  0  0
  180.4390  184.2410  135.1410 C   0  0  0  0  0  1  0  0  0  0  0  0
  1 46  1  6  0  0  0
  1 24  1  0  0  0  0
  2  3  2  0  0  0  0
  3  4  1  0  0  0  0
  3  1  1  0  0  0  0
  5  7  1  0  0  0  0
  6 10  2  0  0  0  0
  7  9  2  0  0  0  0
  7  4  1  0  0  0  0
  8  5  2  0  0  0  0
  8  6  1  0  0  0  0
 10  9  1  0  0  0  0
 11 12  1  0  0  0  0
 11  6  1  0  0  0  0
 12 13  1  0  0  0  0
 13 14  1  0  0  0  0
 14 15  1  0  0  0  0
 15 16  1  0  0  0  0
 16 22  1  6  0  0  0
 16 21  1  0  0  0  0
 17 18  1  0  0  0  0
 17 16  1  0  0  0  0
 19 17  2  0  0  0  0
 21 20  1  0  0  0  0
 23 22  1  0  0  0  0
 24 25  1  0  0  0  0
 26 25  1  6  0  0  0
 26 32  1  0  0  0  0
 26 35  1  0  0  0  0
 28 30  1  0  0  0  0
 28 27  2  0  0  0  0
 29 45  1  0  0  0  0
 31 29  2  0  0  0  0
 31 27  1  0  0  0  0
 32 34  1  1  0  0  0
 32 28  1  0  0  0  0
 33 34  2  0  0  0  0
 34 31  1  0  0  0  0
 35 36  1  6  0  0  0
 35 30  1  0  0  0  0
 36 26  1  0  0  0  0
 38 37  1  0  0  0  0
 39 40  1  0  0  0  0
 40 37  1  0  0  0  0
 40 29  1  0  0  0  0
 41 38  1  0  0  0  0
 42 41  1  0  0  0  0
 43 39  1  0  0  0  0
 43 41  1  0  0  0  0
 45 44  2  0  0  0  0
 46 47  1  0  0  0  0
 48 47  1  0  0  0  0
 49 50  1  0  0  0  0
 50 51  2  0  0  0  0
 50 48  1  0  0  0  0
 52 49  1  0  0  0  0
M  END
>  <MODEL>
3

>  <REMARK>
 VINA RESULT:      -6.6      3.246      9.934
  Name = 
  20 active torsions:
  status: ('A' for Active; 'I' for Inactive)
    1  A    between atoms: C_1  and  C_49
    2  A    between atoms: C_3  and  N_4
    3  A    between atoms: C_3  and  C_35
    4  A    between atoms: N_4  and  C_19
    5  A    between atoms: C_12  and  C_47
    6  A    between atoms: C_14  and  C_23
    7  A    between atoms: C_14  and  C_52
    8  A    between atoms: C_15  and  C_20
    9  A    between atoms: C_15  and  C_31
   10  A    between atoms: C_16  and  C_23
   11  A    between atoms: C_18  and  C_24
   12  A    between atoms: C_21  and  C_47
   13  A    between atoms: C_22  and  N_36
   14  A    between atoms: C_24  and  C_42
   15  A    between atoms: C_24  and  C_52
   16  A    between atoms: C_27  and  C_47
   17  A    between atoms: C_28  and  C_33
   18  A    between atoms: C_28  and  C_47
   19  A    between atoms: C_33  and  C_35
   20  A    between atoms: C_42  and  C_49
                            x       y       z     vdW  Elec       q    Type
                         _______ _______ _______ _____ _____    ______ ____

>  <TORSDO>
F 20

$$$$
=
 OpenBabel10232410193D

 52 56  0  0  1  0  0  0  0  0999 V2000
  189.7140  177.8790  140.7880 C   0  0  2  0  0  3  0  0  0  0  0  0
  187.5420  178.6030  140.1350 O   0  0  0  0  0  0  0  0  0  0  0  0
  188.2770  178.1940  141.0720 C   0  0  0  0  0  0  0  0  0  0  0  0
  187.7580  178.0320  142.4010 N   0  0  0  0  0  2  0  0  0  0  0  0
  186.0280  178.2500  144.1680 C   0  0  0  0  0  3  0  0  0  0  0  0
  183.7000  178.5140  143.5450 C   0  0  0  0  0  0  0  0  0  0  0  0
  186.3930  178.1740  142.8150 C   0  0  0  0  0  0  0  0  0  0  0  0
  184.6880  178.4200  144.5300 C   0  0  0  0  0  3  0  0  0  0  0  0
  185.4030  178.2760  141.8320 C   0  0  0  0  0  3  0  0  0  0  0  0
  184.0640  178.4450  142.1930 C   0  0  0  0  0  3  0  0  0  0  0  0
  182.3380  178.7160  143.9380 N   0  0  0  0  0  2  0  0  0  0  0  0
  181.3610  179.4150  143.1120 C   0  0  0  0  0  2  0  0  0  0  0  0
  180.2170  178.4860  142.7390 C   0  0  0  0  0  2  0  0  0  0  0  0
  179.9840  178.4900  141.2360 C   0  0  0  0  0  2  0  0  0  0  0  0
  180.9050  177.4870  140.5360 C   0  0  0  0  0  2  0  0  0  0  0  0
  181.5180  178.0000  139.2270 C   0  0  1  0  0  0  0  0  0  0  0  0
  182.8300  177.2710  139.0420 C   0  0  0  0  0  0  0  0  0  0  0  0
  182.9530  176.0800  139.4380 O   0  0  0  0  0  1  0  0  0  0  0  0
  183.8920  177.8710  138.3790 O   0  0  0  0  0  0  0  0  0  0  0  0
  181.1770  177.0070  137.0420 F   0  0  0  0  0  0  0  0  0  0  0  0
  180.5540  177.6960  138.0680 C   0  0  0  0  0  2  0  0  0  0  0  0
  181.7480  179.5190  139.3600 C   0  0  0  0  0  2  0  0  0  0  0  0
  181.6130  180.2840  138.0500 C   0  0  0  0  0  1  0  0  0  0  0  0
  189.9330  177.5390  139.3200 C   0  0  0  0  0  2  0  0  0  0  0  0
  190.4360  176.1110  139.1910 C   0  0  0  0  0  2  0  0  0  0  0  0
  191.0250  175.8760  137.8100 C   0  0  2  0  0  0  0  0  0  0  0  0
  190.0750  173.4150  135.7350 N   0  0  0  0  0  0  0  0  0  0  0  0
  190.8560  174.4130  136.0000 C   0  0  0  0  0  0  0  0  0  0  0  0
  187.6550  173.0390  135.8360 C   0  0  0  0  0  0  0  0  0  0  0  0
  192.1390  174.1990  136.5560 N   0  0  0  0  0  2  0  0  0  0  0  0
  188.7470  173.7970  136.0670 C   0  0  0  0  0  0  0  0  0  0  0  0
  190.1900  175.6180  136.5550 C   0  0  1  0  0  3  0  0  0  0  0  0
  187.8520  175.7230  137.2530 O   0  0  0  0  0  0  0  0  0  0  0  0
  188.8070  175.1020  136.7160 C   0  0  0  0  0  0  0  0  0  0  0  0
  192.2460  174.9550  137.7990 C   0  0  1  0  0  3  0  0  0  0  0  0
  192.4000  176.4540  137.5480 C   0  0  0  0  0  2  0  0  0  0  0  0
  185.3200  173.4150  135.0380 C   0  0  0  0  0  2  0  0  0  0  0  0
  183.9320  173.8840  135.4710 C   0  0  0  0  0  2  0  0  0  0  0  0
  185.7520  172.8400  137.4520 C   0  0  0  0  0  2  0  0  0  0  0  0
  186.2940  173.5510  136.2090 C   0  0  0  0  0  3  0  0  0  0  0  0
  183.4670  173.0890  136.6090 N   0  0  0  0  0  0  0  0  0  0  0  0
  182.1570  173.6020  136.9640 C   0  0  0  0  0  1  0  0  0  0  0  0
  184.3440  173.3480  137.7490 C   0  0  0  0  0  2  0  0  0  0  0  0
  187.9880  170.6560  135.8190 O   0  0  0  0  0  0  0  0  0  0  0  0
  187.7380  171.7130  135.1840 C   0  0  0  0  0  3  0  0  0  0  0  0
  190.2630  176.8030  141.7240 C   0  0  0  0  0  2  0  0  0  0  0  0
  191.2210  177.3610  142.7720 C   0  0  0  0  0  2  0  0  0  0  0  0
  191.5640  176.2990  143.8010 C   0  0  0  0  0  2  0  0  0  0  0  0
  189.7720  177.2980  145.2680 N   0  0  0  0  0  2  0  0  0  0  0  0
  191.0590  176.6890  145.1480 C   0  0  0  0  0  0  0  0  0  0  0  0
  191.7610  176.4640  146.1720 O   0  0  0  0  0  0  0  0  0  0  0  0
  189.2010  177.6510  146.5550 C   0  0  0  0  0  1  0  0  0  0  0  0
  1 24  1  6  0  0  0
  1  3  1  0  0  0  0
  1 46  1  0  0  0  0
  2  3  2  0  0  0  0
  3  4  1  0  0  0  0
  4  7  1  0  0  0  0
  5  8  1  0  0  0  0
  6 11  1  0  0  0  0
  6  8  2  0  0  0  0
  7  5  2  0  0  0  0
  9 10  2  0  0  0  0
  9  7  1  0  0  0  0
 10  6  1  0  0  0  0
 12 11  1  0  0  0  0
 13 12  1  0  0  0  0
 14 13  1  0  0  0  0
 15 14  1  0  0  0  0
 16 21  1  6  0  0  0
 16 22  1  0  0  0  0
 16 15  1  0  0  0  0
 17 16  1  0  0  0  0
 17 18  1  0  0  0  0
 19 17  2  0  0  0  0
 20 21  1  0  0  0  0
 23 22  1  0  0  0  0
 25 24  1  0  0  0  0
 26 25  1  1  0  0  0
 27 28  2  0  0  0  0
 27 31  1  0  0  0  0
 28 30  1  0  0  0  0
 29 31  2  0  0  0  0
 29 40  1  0  0  0  0
 30 35  1  0  0  0  0
 31 34  1  0  0  0  0
 32 28  1  6  0  0  0
 32 34  1  0  0  0  0
 32 26  1  0  0  0  0
 34 33  2  0  0  0  0
 35 36  1  6  0  0  0
 35 26  1  0  0  0  0
 36 26  1  0  0  0  0
 37 38  1  0  0  0  0
 37 40  1  0  0  0  0
 38 41  1  0  0  0  0
 39 43  1  0  0  0  0
 40 39  1  0  0  0  0
 41 42  1  0  0  0  0
 41 43  1  0  0  0  0
 45 44  2  0  0  0  0
 45 29  1  0  0  0  0
 46 47  1  0  0  0  0
 47 48  1  0  0  0  0
 48 50  1  0  0  0  0
 49 52  1  0  0  0  0
 50 49  1  0  0  0  0
 50 51  2  0  0  0  0
M  END
>  <MODEL>
4

>  <REMARK>
 VINA RESULT:      -6.6      2.518      5.225
  Name = 
  20 active torsions:
  status: ('A' for Active; 'I' for Inactive)
    1  A    between atoms: C_1  and  C_49
    2  A    between atoms: C_3  and  N_4
    3  A    between atoms: C_3  and  C_35
    4  A    between atoms: N_4  and  C_19
    5  A    between atoms: C_12  and  C_47
    6  A    between atoms: C_14  and  C_23
    7  A    between atoms: C_14  and  C_52
    8  A    between atoms: C_15  and  C_20
    9  A    between atoms: C_15  and  C_31
   10  A    between atoms: C_16  and  C_23
   11  A    between atoms: C_18  and  C_24
   12  A    between atoms: C_21  and  C_47
   13  A    between atoms: C_22  and  N_36
   14  A    between atoms: C_24  and  C_42
   15  A    between atoms: C_24  and  C_52
   16  A    between atoms: C_27  and  C_47
   17  A    between atoms: C_28  and  C_33
   18  A    between atoms: C_28  and  C_47
   19  A    between atoms: C_33  and  C_35
   20  A    between atoms: C_42  and  C_49
                            x       y       z     vdW  Elec       q    Type
                         _______ _______ _______ _____ _____    ______ ____

>  <TORSDO>
F 20

$$$$
=
 OpenBabel10232410193D

 52 56  0  0  1  0  0  0  0  0999 V2000
  190.2990  177.2690  137.7940 C   0  0  2  0  0  3  0  0  0  0  0  0
  189.1970  178.5940  139.4370 O   0  0  0  0  0  0  0  0  0  0  0  0
  189.9720  177.6270  139.2120 C   0  0  0  0  0  0  0  0  0  0  0  0
  190.5470  176.8750  140.2910 N   0  0  0  0  0  2  0  0  0  0  0  0
  189.5540  176.0200  142.3990 C   0  0  0  0  0  3  0  0  0  0  0  0
  189.7600  177.3150  144.4390 C   0  0  0  0  0  0  0  0  0  0  0  0
  190.2500  177.0090  141.6870 C   0  0  0  0  0  0  0  0  0  0  0  0
  189.3110  176.1730  143.7680 C   0  0  0  0  0  3  0  0  0  0  0  0
  190.7040  178.1470  142.3620 C   0  0  0  0  0  3  0  0  0  0  0  0
  190.4610  178.3010  143.7290 C   0  0  0  0  0  3  0  0  0  0  0  0
  189.5240  177.4390  145.8450 N   0  0  0  0  0  2  0  0  0  0  0  0
  188.3470  178.0910  146.4060 C   0  0  0  0  0  2  0  0  0  0  0  0
  187.0810  177.3670  145.9740 C   0  0  0  0  0  2  0  0  0  0  0  0
  186.1820  178.2860  145.1610 C   0  0  0  0  0  2  0  0  0  0  0  0
  185.9600  177.7300  143.7520 C   0  0  0  0  0  2  0  0  0  0  0  0
  185.0820  178.6150  142.8570 C   0  0  1  0  0  0  0  0  0  0  0  0
  185.9590  179.0960  141.7230 C   0  0  0  0  0  0  0  0  0  0  0  0
  187.2060  178.9170  141.7670 O   0  0  0  0  0  1  0  0  0  0  0  0
  185.4040  179.6810  140.5920 O   0  0  0  0  0  0  0  0  0  0  0  0
  183.0280  178.5390  141.5730 F   0  0  0  0  0  0  0  0  0  0  0  0
  183.9070  177.7790  142.3240 C   0  0  0  0  0  2  0  0  0  0  0  0
  184.5700  179.8010  143.6970 C   0  0  0  0  0  2  0  0  0  0  0  0
  183.1700  179.6010  144.2630 C   0  0  0  0  0  1  0  0  0  0  0  0
  189.0400  177.1190  136.9510 C   0  0  0  0  0  2  0  0  0  0  0  0
  188.1410  176.0510  137.5490 C   0  0  0  0  0  2  0  0  0  0  0  0
  187.5840  175.1510  136.4590 C   0  0  2  0  0  0  0  0  0  0  0  0
  184.3480  174.3080  136.1600 N   0  0  0  0  0  0  0  0  0  0  0  0
  185.5740  174.1960  135.7560 C   0  0  0  0  0  0  0  0  0  0  0  0
  182.8770  176.1880  136.7140 C   0  0  0  0  0  0  0  0  0  0  0  0
  186.3830  173.1220  136.1950 N   0  0  0  0  0  2  0  0  0  0  0  0
  184.0830  175.6880  136.3770 C   0  0  0  0  0  0  0  0  0  0  0  0
  186.3300  175.4680  135.6430 C   0  0  1  0  0  3  0  0  0  0  0  0
  185.5340  177.6400  136.4250 O   0  0  0  0  0  0  0  0  0  0  0  0
  185.3360  176.4150  136.2070 C   0  0  0  0  0  0  0  0  0  0  0  0
  187.5890  173.6630  136.8120 C   0  0  1  0  0  3  0  0  0  0  0  0
  188.5640  174.2200  135.7770 C   0  0  0  0  0  2  0  0  0  0  0  0
  181.4110  178.1530  136.2400 C   0  0  0  0  0  2  0  0  0  0  0  0
  181.2340  179.6470  136.5010 C   0  0  0  0  0  2  0  0  0  0  0  0
  182.7350  178.0530  138.3800 C   0  0  0  0  0  2  0  0  0  0  0  0
  182.7030  177.6690  136.8980 C   0  0  0  0  0  3  0  0  0  0  0  0
  181.1910  179.9030  137.9420 N   0  0  0  0  0  0  0  0  0  0  0  0
  181.0350  181.3360  138.1040 C   0  0  0  0  0  1  0  0  0  0  0  0
  182.4900  179.5530  138.5160 C   0  0  0  0  0  2  0  0  0  0  0  0
  181.1280  174.7420  135.9100 O   0  0  0  0  0  0  0  0  0  0  0  0
  181.6830  175.3290  136.8760 C   0  0  0  0  0  3  0  0  0  0  0  0
  191.2070  176.0430  137.7060 C   0  0  0  0  0  2  0  0  0  0  0  0
  191.8990  175.9150  136.3530 C   0  0  0  0  0  2  0  0  0  0  0  0
  192.8570  174.7380  136.3520 C   0  0  0  0  0  2  0  0  0  0  0  0
  194.5120  173.7750  137.9940 N   0  0  0  0  0  2  0  0  0  0  0  0
  193.9170  174.9220  137.3850 C   0  0  0  0  0  0  0  0  0  0  0  0
  194.2920  176.0850  137.7000 O   0  0  0  0  0  0  0  0  0  0  0  0
  195.5860  173.8860  138.9650 C   0  0  0  0  0  1  0  0  0  0  0  0
  1 24  1  6  0  0  0
  1  3  1  0  0  0  0
  3  2  2  0  0  0  0
  3  4  1  0  0  0  0
  4  7  1  0  0  0  0
  5  8  1  0  0  0  0
  6 11  1  0  0  0  0
  7  9  1  0  0  0  0
  7  5  2  0  0  0  0
  8  6  2  0  0  0  0
  9 10  2  0  0  0  0
 10  6  1  0  0  0  0
 11 12  1  0  0  0  0
 13 12  1  0  0  0  0
 14 13  1  0  0  0  0
 15 14  1  0  0  0  0
 16 21  1  6  0  0  0
 16 22  1  0  0  0  0
 16 15  1  0  0  0  0
 17 18  1  0  0  0  0
 17 16  1  0  0  0  0
 19 17  2  0  0  0  0
 20 21  1  0  0  0  0
 22 23  1  0  0  0  0
 24 25  1  0  0  0  0
 26 35  1  0  0  0  0
 26 25  1  1  0  0  0
 27 31  1  0  0  0  0
 28 27  2  0  0  0  0
 28 30  1  0  0  0  0
 29 45  1  0  0  0  0
 29 40  1  0  0  0  0
 30 35  1  0  0  0  0
 31 29  2  0  0  0  0
 32 28  1  1  0  0  0
 32 34  1  0  0  0  0
 32 26  1  0  0  0  0
 34 31  1  0  0  0  0
 34 33  2  0  0  0  0
 35 36  1  6  0  0  0
 36 26  1  0  0  0  0
 37 38  1  0  0  0  0
 37 40  1  0  0  0  0
 38 41  1  0  0  0  0
 39 43  1  0  0  0  0
 40 39  1  0  0  0  0
 41 42  1  0  0  0  0
 41 43  1  0  0  0  0
 44 45  2  0  0  0  0
 46  1  1  0  0  0  0
 47 46  1  0  0  0  0
 48 47  1  0  0  0  0
 48 50  1  0  0  0  0
 49 52  1  0  0  0  0
 50 51  2  0  0  0  0
 50 49  1  0  0  0  0
M  END
>  <MODEL>
5

>  <REMARK>
 VINA RESULT:      -6.5      2.134      8.886
  Name = 
  20 active torsions:
  status: ('A' for Active; 'I' for Inactive)
    1  A    between atoms: C_1  and  C_49
    2  A    between atoms: C_3  and  N_4
    3  A    between atoms: C_3  and  C_35
    4  A    between atoms: N_4  and  C_19
    5  A    between atoms: C_12  and  C_47
    6  A    between atoms: C_14  and  C_23
    7  A    between atoms: C_14  and  C_52
    8  A    between atoms: C_15  and  C_20
    9  A    between atoms: C_15  and  C_31
   10  A    between atoms: C_16  and  C_23
   11  A    between atoms: C_18  and  C_24
   12  A    between atoms: C_21  and  C_47
   13  A    between atoms: C_22  and  N_36
   14  A    between atoms: C_24  and  C_42
   15  A    between atoms: C_24  and  C_52
   16  A    between atoms: C_27  and  C_47
   17  A    between atoms: C_28  and  C_33
   18  A    between atoms: C_28  and  C_47
   19  A    between atoms: C_33  and  C_35
   20  A    between atoms: C_42  and  C_49
                            x       y       z     vdW  Elec       q    Type
                         _______ _______ _______ _____ _____    ______ ____

>  <TORSDO>
F 20

$$$$
=
 OpenBabel10232410193D

 52 56  0  0  1  0  0  0  0  0999 V2000
  189.3340  177.5260  138.7640 C   0  0  2  0  0  3  0  0  0  0  0  0
  188.5180  178.1320  140.9170 O   0  0  0  0  0  0  0  0  0  0  0  0
  189.4800  177.6710  140.2480 C   0  0  0  0  0  0  0  0  0  0  0  0
  190.7090  177.2910  140.8870 N   0  0  0  0  0  2  0  0  0  0  0  0
  191.1850  178.4230  143.0440 C   0  0  0  0  0  3  0  0  0  0  0  0
  191.4150  177.1070  145.0680 C   0  0  0  0  0  0  0  0  0  0  0  0
  190.9710  177.2550  142.2960 C   0  0  0  0  0  0  0  0  0  0  0  0
  191.4050  178.3480  144.4230 C   0  0  0  0  0  3  0  0  0  0  0  0
  190.9730  176.0160  142.9440 C   0  0  0  0  0  3  0  0  0  0  0  0
  191.1940  175.9400  144.3210 C   0  0  0  0  0  3  0  0  0  0  0  0
  191.6150  177.0560  146.4840 N   0  0  0  0  0  2  0  0  0  0  0  0
  190.5900  176.6150  147.4220 C   0  0  0  0  0  2  0  0  0  0  0  0
  189.7030  177.7820  147.8290 C   0  0  0  0  0  2  0  0  0  0  0  0
  188.2370  177.4610  147.5800 C   0  0  0  0  0  2  0  0  0  0  0  0
  187.5150  178.6510  146.9440 C   0  0  0  0  0  2  0  0  0  0  0  0
  186.3610  178.2630  146.0110 C   0  0  1  0  0  0  0  0  0  0  0  0
  186.9820  177.6230  144.7900 C   0  0  0  0  0  0  0  0  0  0  0  0
  188.0960  178.0260  144.3610 O   0  0  0  0  0  1  0  0  0  0  0  0
  186.3720  176.5430  144.1640 O   0  0  0  0  0  0  0  0  0  0  0  0
  184.1530  177.7670  146.8790 F   0  0  0  0  0  0  0  0  0  0  0  0
  185.4380  177.2730  146.7400 C   0  0  0  0  0  2  0  0  0  0  0  0
  185.5920  179.5440  145.6290 C   0  0  0  0  0  2  0  0  0  0  0  0
  184.9130  179.4760  144.2680 C   0  0  0  0  0  1  0  0  0  0  0  0
  190.6070  176.9880  138.1260 C   0  0  0  0  0  2  0  0  0  0  0  0
  190.3230  176.5470  136.7000 C   0  0  0  0  0  2  0  0  0  0  0  0
  189.9980  175.0630  136.6570 C   0  0  2  0  0  0  0  0  0  0  0  0
  191.9820  172.7220  135.2970 N   0  0  0  0  0  0  0  0  0  0  0  0
  190.8670  173.0450  135.8700 C   0  0  0  0  0  0  0  0  0  0  0  0
  194.3480  173.1850  135.7370 C   0  0  0  0  0  0  0  0  0  0  0  0
  189.7070  173.2970  135.1000 N   0  0  0  0  0  2  0  0  0  0  0  0
  193.0380  173.3670  135.9980 C   0  0  0  0  0  0  0  0  0  0  0  0
  190.9850  173.9570  137.0340 C   0  0  1  0  0  3  0  0  0  0  0  0
  193.0410  175.0800  137.7240 O   0  0  0  0  0  0  0  0  0  0  0  0
  192.4380  174.2560  136.9860 C   0  0  0  0  0  0  0  0  0  0  0  0
  189.2100  174.6310  135.4190 C   0  0  1  0  0  3  0  0  0  0  0  0
  188.5390  174.6810  136.7900 C   0  0  0  0  0  2  0  0  0  0  0  0
  195.8070  173.0600  137.7600 C   0  0  0  0  0  2  0  0  0  0  0  0
  196.9030  173.7900  138.5330 C   0  0  0  0  0  2  0  0  0  0  0  0
  196.5980  174.2870  135.7080 C   0  0  0  0  0  2  0  0  0  0  0  0
  195.3820  173.9030  136.5560 C   0  0  0  0  0  3  0  0  0  0  0  0
  198.0530  174.0360  137.6610 N   0  0  0  0  0  0  0  0  0  0  0  0
  199.0370  174.7380  138.4610 C   0  0  0  0  0  1  0  0  0  0  0  0
  197.6430  174.9530  136.5980 C   0  0  0  0  0  2  0  0  0  0  0  0
  195.1310  171.0630  134.9140 O   0  0  0  0  0  0  0  0  0  0  0  0
  194.8230  172.2610  134.6830 C   0  0  0  0  0  3  0  0  0  0  0  0
  188.8540  178.8190  138.1050 C   0  0  0  0  0  2  0  0  0  0  0  0
  187.5870  178.6280  137.2770 C   0  0  0  0  0  2  0  0  0  0  0  0
  186.6610  177.6250  137.9410 C   0  0  0  0  0  2  0  0  0  0  0  0
  185.0440  179.2100  139.0540 N   0  0  0  0  0  2  0  0  0  0  0  0
  185.2890  178.1910  138.0830 C   0  0  0  0  0  0  0  0  0  0  0  0
  184.3590  177.7790  137.3350 O   0  0  0  0  0  0  0  0  0  0  0  0
  183.7450  179.8390  139.2030 C   0  0  0  0  0  1  0  0  0  0  0  0
  1 46  1  6  0  0  0
  1  3  1  0  0  0  0
  3  4  1  0  0  0  0
  3  2  2  0  0  0  0
  4  7  1  0  0  0  0
  5  8  1  0  0  0  0
  6 11  1  0  0  0  0
  7  9  1  0  0  0  0
  7  5  2  0  0  0  0
  8  6  2  0  0  0  0
  9 10  2  0  0  0  0
 10  6  1  0  0  0  0
 11 12  1  0  0  0  0
 12 13  1  0  0  0  0
 14 13  1  0  0  0  0
 15 14  1  0  0  0  0
 16 22  1  6  0  0  0
 16 21  1  0  0  0  0
 16 15  1  0  0  0  0
 17 16  1  0  0  0  0
 18 17  1  0  0  0  0
 19 17  2  0  0  0  0
 21 20  1  0  0  0  0
 23 22  1  0  0  0  0
 24  1  1  0  0  0  0
 25 24  1  0  0  0  0
 26 25  1  1  0  0  0
 26 36  1  0  0  0  0
 26 32  1  0  0  0  0
 27 28  2  0  0  0  0
 27 31  1  0  0  0  0
 29 31  2  0  0  0  0
 29 40  1  0  0  0  0
 30 35  1  0  0  0  0
 30 28  1  0  0  0  0
 31 34  1  0  0  0  0
 32 28  1  6  0  0  0
 34 32  1  0  0  0  0
 34 33  2  0  0  0  0
 35 26  1  0  0  0  0
 35 36  1  1  0  0  0
 37 38  1  0  0  0  0
 39 40  1  0  0  0  0
 39 43  1  0  0  0  0
 40 37  1  0  0  0  0
 41 42  1  0  0  0  0
 41 38  1  0  0  0  0
 43 41  1  0  0  0  0
 45 44  2  0  0  0  0
 45 29  1  0  0  0  0
 47 48  1  0  0  0  0
 47 46  1  0  0  0  0
 48 50  1  0  0  0  0
 49 52  1  0  0  0  0
 50 49  1  0  0  0  0
 51 50  2  0  0  0  0
M  END
>  <MODEL>
6

>  <REMARK>
 VINA RESULT:      -6.3      3.326      9.167
  Name = 
  20 active torsions:
  status: ('A' for Active; 'I' for Inactive)
    1  A    between atoms: C_1  and  C_49
    2  A    between atoms: C_3  and  N_4
    3  A    between atoms: C_3  and  C_35
    4  A    between atoms: N_4  and  C_19
    5  A    between atoms: C_12  and  C_47
    6  A    between atoms: C_14  and  C_23
    7  A    between atoms: C_14  and  C_52
    8  A    between atoms: C_15  and  C_20
    9  A    between atoms: C_15  and  C_31
   10  A    between atoms: C_16  and  C_23
   11  A    between atoms: C_18  and  C_24
   12  A    between atoms: C_21  and  C_47
   13  A    between atoms: C_22  and  N_36
   14  A    between atoms: C_24  and  C_42
   15  A    between atoms: C_24  and  C_52
   16  A    between atoms: C_27  and  C_47
   17  A    between atoms: C_28  and  C_33
   18  A    between atoms: C_28  and  C_47
   19  A    between atoms: C_33  and  C_35
   20  A    between atoms: C_42  and  C_49
                            x       y       z     vdW  Elec       q    Type
                         _______ _______ _______ _____ _____    ______ ____

>  <TORSDO>
F 20

$$$$
=
 OpenBabel10232410193D

 52 56  0  0  1  0  0  0  0  0999 V2000
  189.9160  177.3100  139.4320 C   0  0  2  0  0  3  0  0  0  0  0  0
  192.1810  176.5800  139.3820 O   0  0  0  0  0  0  0  0  0  0  0  0
  191.0560  176.5550  138.8180 C   0  0  0  0  0  0  0  0  0  0  0  0
  190.8560  175.8240  137.5990 N   0  0  0  0  0  2  0  0  0  0  0  0
  193.0340  175.4310  136.4760 C   0  0  0  0  0  3  0  0  0  0  0  0
  193.6230  173.1960  135.7410 C   0  0  0  0  0  0  0  0  0  0  0  0
  191.7990  174.9620  136.9490 C   0  0  0  0  0  0  0  0  0  0  0  0
  193.9400  174.5510  135.8760 C   0  0  0  0  0  3  0  0  0  0  0  0
  191.4860  173.6050  136.8200 C   0  0  0  0  0  3  0  0  0  0  0  0
  192.3910  172.7260  136.2200 C   0  0  0  0  0  3  0  0  0  0  0  0
  194.5770  172.3090  135.1480 N   0  0  0  0  0  2  0  0  0  0  0  0
  195.4480  171.4360  135.9250 C   0  0  0  0  0  2  0  0  0  0  0  0
  196.5750  170.8980  135.0560 C   0  0  0  0  0  2  0  0  0  0  0  0
  197.7060  171.9090  134.9480 C   0  0  0  0  0  2  0  0  0  0  0  0
  198.0380  172.5080  136.3180 C   0  0  0  0  0  2  0  0  0  0  0  0
  198.2130  174.0320  136.3130 C   0  0  1  0  0  0  0  0  0  0  0  0
  197.7060  174.5340  137.6470 C   0  0  0  0  0  0  0  0  0  0  0  0
  198.3500  175.4150  138.2790 O   0  0  0  0  0  1  0  0  0  0  0  0
  196.4970  174.0850  138.1640 O   0  0  0  0  0  0  0  0  0  0  0  0
  200.2120  173.8470  134.9550 F   0  0  0  0  0  0  0  0  0  0  0  0
  199.7030  174.3660  136.1330 C   0  0  0  0  0  2  0  0  0  0  0  0
  197.3800  174.6140  135.1550 C   0  0  0  0  0  2  0  0  0  0  0  0
  197.4600  176.1300  135.0340 C   0  0  0  0  0  1  0  0  0  0  0  0
  189.5660  176.7710  140.8130 C   0  0  0  0  0  2  0  0  0  0  0  0
  189.9310  177.7940  141.8740 C   0  0  0  0  0  2  0  0  0  0  0  0
  190.1910  177.1120  143.2070 C   0  0  2  0  0  0  0  0  0  0  0  0
  188.5500  177.8090  146.0510 N   0  0  0  0  0  0  0  0  0  0  0  0
  189.4820  177.1580  145.4290 C   0  0  0  0  0  0  0  0  0  0  0  0
  186.1760  178.2490  145.6330 C   0  0  0  0  0  0  0  0  0  0  0  0
  190.8170  177.6250  145.4360 N   0  0  0  0  0  2  0  0  0  0  0  0
  187.3730  177.7560  145.2560 C   0  0  0  0  0  0  0  0  0  0  0  0
  189.0910  176.5720  144.1230 C   0  0  1  0  0  3  0  0  0  0  0  0
  186.9760  176.9970  142.9790 O   0  0  0  0  0  0  0  0  0  0  0  0
  187.7200  177.1240  143.9870 C   0  0  0  0  0  0  0  0  0  0  0  0
  191.2660  177.7890  144.0580 C   0  0  1  0  0  3  0  0  0  0  0  0
  191.5410  176.4490  143.3800 C   0  0  0  0  0  2  0  0  0  0  0  0
  183.6990  178.5000  145.4460 C   0  0  0  0  0  2  0  0  0  0  0  0
  182.5250  178.4210  144.4730 C   0  0  0  0  0  2  0  0  0  0  0  0
  185.1690  178.9610  143.4530 C   0  0  0  0  0  2  0  0  0  0  0  0
  184.9910  178.1200  144.7200 C   0  0  0  0  0  3  0  0  0  0  0  0
  182.7500  179.3210  143.3400 N   0  0  0  0  0  0  0  0  0  0  0  0
  181.6030  179.1780  142.4630 C   0  0  0  0  0  1  0  0  0  0  0  0
  183.9130  178.8480  142.5930 C   0  0  0  0  0  2  0  0  0  0  0  0
  186.0380  180.1360  147.1200 O   0  0  0  0  0  0  0  0  0  0  0  0
  185.9660  178.8910  146.9500 C   0  0  0  0  0  3  0  0  0  0  0  0
  188.7020  177.3710  138.5070 C   0  0  0  0  0  2  0  0  0  0  0  0
  188.5670  178.7120  137.7920 C   0  0  0  0  0  2  0  0  0  0  0  0
  187.4270  178.6720  136.7910 C   0  0  0  0  0  2  0  0  0  0  0  0
  185.4220  177.1480  136.9310 N   0  0  0  0  0  2  0  0  0  0  0  0
  186.1590  178.2540  137.4550 C   0  0  0  0  0  0  0  0  0  0  0  0
  185.7540  178.8680  138.4800 O   0  0  0  0  0  0  0  0  0  0  0  0
  184.2100  176.6580  137.5630 C   0  0  0  0  0  1  0  0  0  0  0  0
  1 46  1  6  0  0  0
  1 24  1  0  0  0  0
  3  2  2  0  0  0  0
  3  1  1  0  0  0  0
  4  3  1  0  0  0  0
  5  7  1  0  0  0  0
  6  8  1  0  0  0  0
  6 10  2  0  0  0  0
  7  4  1  0  0  0  0
  8  5  2  0  0  0  0
  9  7  2  0  0  0  0
 10  9  1  0  0  0  0
 11  6  1  0  0  0  0
 11 12  1  0  0  0  0
 13 12  1  0  0  0  0
 14 13  1  0  0  0  0
 14 15  1  0  0  0  0
 16 22  1  6  0  0  0
 16 15  1  0  0  0  0
 16 17  1  0  0  0  0
 17 19  2  0  0  0  0
 17 18  1  0  0  0  0
 20 21  1  0  0  0  0
 21 16  1  0  0  0  0
 23 22  1  0  0  0  0
 24 25  1  0  0  0  0
 26 25  1  6  0  0  0
 26 36  1  0  0  0  0
 26 35  1  0  0  0  0
 26 32  1  0  0  0  0
 28 30  1  0  0  0  0
 28 27  2  0  0  0  0
 29 45  1  0  0  0  0
 31 29  2  0  0  0  0
 31 27  1  0  0  0  0
 32 34  1  6  0  0  0
 32 28  1  0  0  0  0
 33 34  2  0  0  0  0
 34 31  1  0  0  0  0
 35 36  1  1  0  0  0
 35 30  1  0  0  0  0
 38 37  1  0  0  0  0
 39 40  1  0  0  0  0
 40 37  1  0  0  0  0
 40 29  1  0  0  0  0
 41 38  1  0  0  0  0
 42 41  1  0  0  0  0
 43 41  1  0  0  0  0
 43 39  1  0  0  0  0
 45 44  2  0  0  0  0
 47 46  1  0  0  0  0
 48 50  1  0  0  0  0
 48 47  1  0  0  0  0
 49 50  1  0  0  0  0
 49 52  1  0  0  0  0
 50 51  2  0  0  0  0
M  END
>  <MODEL>
7

>  <REMARK>
 VINA RESULT:      -6.1      4.182     10.931
  Name = 
  20 active torsions:
  status: ('A' for Active; 'I' for Inactive)
    1  A    between atoms: C_1  and  C_49
    2  A    between atoms: C_3  and  N_4
    3  A    between atoms: C_3  and  C_35
    4  A    between atoms: N_4  and  C_19
    5  A    between atoms: C_12  and  C_47
    6  A    between atoms: C_14  and  C_23
    7  A    between atoms: C_14  and  C_52
    8  A    between atoms: C_15  and  C_20
    9  A    between atoms: C_15  and  C_31
   10  A    between atoms: C_16  and  C_23
   11  A    between atoms: C_18  and  C_24
   12  A    between atoms: C_21  and  C_47
   13  A    between atoms: C_22  and  N_36
   14  A    between atoms: C_24  and  C_42
   15  A    between atoms: C_24  and  C_52
   16  A    between atoms: C_27  and  C_47
   17  A    between atoms: C_28  and  C_33
   18  A    between atoms: C_28  and  C_47
   19  A    between atoms: C_33  and  C_35
   20  A    between atoms: C_42  and  C_49
                            x       y       z     vdW  Elec       q    Type
                         _______ _______ _______ _____ _____    ______ ____

>  <TORSDO>
F 20

$$$$
=
 OpenBabel10232410193D

 52 56  0  0  1  0  0  0  0  0999 V2000
  188.0320  177.9040  136.6720 C   0  0  2  0  0  3  0  0  0  0  0  0
  186.2580  178.6030  138.0970 O   0  0  0  0  0  0  0  0  0  0  0  0
  187.4360  178.1640  138.0220 C   0  0  0  0  0  0  0  0  0  0  0  0
  188.2100  177.9170  139.2060 N   0  0  0  0  0  2  0  0  0  0  0  0
  186.6100  178.7270  140.9220 C   0  0  0  0  0  3  0  0  0  0  0  0
  186.8900  178.0630  143.2370 C   0  0  0  0  0  0  0  0  0  0  0  0
  187.7550  178.0000  140.5630 C   0  0  0  0  0  0  0  0  0  0  0  0
  186.1800  178.7570  142.2520 C   0  0  0  0  0  3  0  0  0  0  0  0
  188.4590  177.3010  141.5480 C   0  0  0  0  0  3  0  0  0  0  0  0
  188.0310  177.3310  142.8780 C   0  0  0  0  0  3  0  0  0  0  0  0
  186.4160  178.0850  144.5880 N   0  0  0  0  0  2  0  0  0  0  0  0
  186.9460  177.2220  145.6360 C   0  0  0  0  0  2  0  0  0  0  0  0
  187.5690  178.0540  146.7470 C   0  0  0  0  0  2  0  0  0  0  0  0
  189.0870  178.0170  146.6640 C   0  0  0  0  0  2  0  0  0  0  0  0
  189.5610  176.8510  145.7930 C   0  0  0  0  0  2  0  0  0  0  0  0
  191.0400  176.9250  145.3900 C   0  0  1  0  0  0  0  0  0  0  0  0
  191.8330  176.3100  146.5210 C   0  0  0  0  0  0  0  0  0  0  0  0
  191.9790  176.9350  147.6060 O   0  0  0  0  0  1  0  0  0  0  0  0
  192.3550  175.0270  146.4090 O   0  0  0  0  0  0  0  0  0  0  0  0
  190.1220  175.4030  143.7420 F   0  0  0  0  0  0  0  0  0  0  0  0
  191.2440  176.1380  144.0850 C   0  0  0  0  0  2  0  0  0  0  0  0
  191.4170  178.4070  145.1970 C   0  0  0  0  0  2  0  0  0  0  0  0
  191.6010  178.8160  143.7410 C   0  0  0  0  0  1  0  0  0  0  0  0
  187.3140  176.7710  135.9510 C   0  0  0  0  0  2  0  0  0  0  0  0
  186.8580  175.7270  136.9560 C   0  0  0  0  0  2  0  0  0  0  0  0
  185.9590  174.7000  136.2880 C   0  0  2  0  0  0  0  0  0  0  0  0
  182.8390  173.9710  137.2880 N   0  0  0  0  0  0  0  0  0  0  0  0
  183.8410  173.7440  136.5000 C   0  0  0  0  0  0  0  0  0  0  0  0
  181.6410  175.9770  138.0270 C   0  0  0  0  0  0  0  0  0  0  0  0
  184.7650  172.7120  136.7850 N   0  0  0  0  0  2  0  0  0  0  0  0
  182.6530  175.3780  137.3680 C   0  0  0  0  0  0  0  0  0  0  0  0
  184.4930  174.9490  135.9290 C   0  0  1  0  0  3  0  0  0  0  0  0
  184.0040  177.2470  136.5950 O   0  0  0  0  0  0  0  0  0  0  0  0
  183.7550  176.0140  136.6550 C   0  0  0  0  0  0  0  0  0  0  0  0
  186.1060  173.2830  136.8430 C   0  0  1  0  0  3  0  0  0  0  0  0
  186.6420  173.6350  135.4570 C   0  0  0  0  0  2  0  0  0  0  0  0
  180.0830  177.9130  137.7940 C   0  0  0  0  0  2  0  0  0  0  0  0
  179.9940  179.4360  137.8660 C   0  0  0  0  0  2  0  0  0  0  0  0
  182.0740  178.0730  139.3280 C   0  0  0  0  0  2  0  0  0  0  0  0
  181.5290  177.4740  138.0290 C   0  0  0  0  0  3  0  0  0  0  0  0
  180.4570  179.9050  139.1730 N   0  0  0  0  0  0  0  0  0  0  0  0
  180.3530  181.3520  139.1560 C   0  0  0  0  0  1  0  0  0  0  0  0
  181.8770  179.5870  139.3070 C   0  0  0  0  0  2  0  0  0  0  0  0
  180.5900  175.0450  139.9820 O   0  0  0  0  0  0  0  0  0  0  0  0
  180.5930  175.2060  138.7340 C   0  0  0  0  0  3  0  0  0  0  0  0
  189.5430  177.6820  136.7440 C   0  0  0  0  0  2  0  0  0  0  0  0
  190.0230  176.5650  135.8230 C   0  0  0  0  0  2  0  0  0  0  0  0
  190.2920  175.2980  136.6150 C   0  0  0  0  0  2  0  0  0  0  0  0
  192.6930  175.8800  136.1090 N   0  0  0  0  0  2  0  0  0  0  0  0
  191.7490  175.1550  136.8980 C   0  0  0  0  0  0  0  0  0  0  0  0
  192.1350  174.4090  137.8390 O   0  0  0  0  0  0  0  0  0  0  0  0
  194.1200  175.8260  136.3700 C   0  0  0  0  0  1  0  0  0  0  0  0
  1 24  1  1  0  0  0
  1 46  1  0  0  0  0
  1  3  1  0  0  0  0
  3  2  2  0  0  0  0
  3  4  1  0  0  0  0
  4  7  1  0  0  0  0
  5  8  1  0  0  0  0
  6 11  1  0  0  0  0
  7  5  2  0  0  0  0
  7  9  1  0  0  0  0
  8  6  2  0  0  0  0
  9 10  2  0  0  0  0
 10  6  1  0  0  0  0
 11 12  1  0  0  0  0
 12 13  1  0  0  0  0
 14 13  1  0  0  0  0
 15 14  1  0  0  0  0
 16 21  1  6  0  0  0
 16 15  1  0  0  0  0
 16 17  1  0  0  0  0
 17 18  1  0  0  0  0
 19 17  2  0  0  0  0
 20 21  1  0  0  0  0
 22 16  1  0  0  0  0
 23 22  1  0  0  0  0
 24 25  1  0  0  0  0
 26 35  1  0  0  0  0
 26 25  1  1  0  0  0
 27 31  1  0  0  0  0
 28 30  1  0  0  0  0
 28 27  2  0  0  0  0
 29 40  1  0  0  0  0
 29 45  1  0  0  0  0
 30 35  1  0  0  0  0
 31 29  2  0  0  0  0
 32 26  1  0  0  0  0
 32 28  1  1  0  0  0
 32 34  1  0  0  0  0
 33 34  2  0  0  0  0
 34 31  1  0  0  0  0
 35 36  1  6  0  0  0
 36 26  1  0  0  0  0
 37 38  1  0  0  0  0
 37 40  1  0  0  0  0
 38 41  1  0  0  0  0
 40 39  1  0  0  0  0
 41 43  1  0  0  0  0
 42 41  1  0  0  0  0
 43 39  1  0  0  0  0
 45 44  2  0  0  0  0
 47 48  1  0  0  0  0
 47 46  1  0  0  0  0
 48 50  1  0  0  0  0
 49 52  1  0  0  0  0
 49 50  1  0  0  0  0
 50 51  2  0  0  0  0
M  END
>  <MODEL>
8

>  <REMARK>
 VINA RESULT:      -6.0      2.707      9.839
  Name = 
  20 active torsions:
  status: ('A' for Active; 'I' for Inactive)
    1  A    between atoms: C_1  and  C_49
    2  A    between atoms: C_3  and  N_4
    3  A    between atoms: C_3  and  C_35
    4  A    between atoms: N_4  and  C_19
    5  A    between atoms: C_12  and  C_47
    6  A    between atoms: C_14  and  C_23
    7  A    between atoms: C_14  and  C_52
    8  A    between atoms: C_15  and  C_20
    9  A    between atoms: C_15  and  C_31
   10  A    between atoms: C_16  and  C_23
   11  A    between atoms: C_18  and  C_24
   12  A    between atoms: C_21  and  C_47
   13  A    between atoms: C_22  and  N_36
   14  A    between atoms: C_24  and  C_42
   15  A    between atoms: C_24  and  C_52
   16  A    between atoms: C_27  and  C_47
   17  A    between atoms: C_28  and  C_33
   18  A    between atoms: C_28  and  C_47
   19  A    between atoms: C_33  and  C_35
   20  A    between atoms: C_42  and  C_49
                            x       y       z     vdW  Elec       q    Type
                         _______ _______ _______ _____ _____    ______ ____

>  <TORSDO>
F 20

$$$$
=
 OpenBabel10232410193D

 52 56  0  0  1  0  0  0  0  0999 V2000
  189.2610  176.8250  136.3390 C   0  0  2  0  0  3  0  0  0  0  0  0
  188.9350  178.6870  137.7850 O   0  0  0  0  0  0  0  0  0  0  0  0
  189.3280  177.4960  137.6770 C   0  0  0  0  0  0  0  0  0  0  0  0
  189.8430  176.7820  138.8110 N   0  0  0  0  0  2  0  0  0  0  0  0
  188.7180  177.7170  140.8160 C   0  0  0  0  0  3  0  0  0  0  0  0
  189.9770  178.0360  142.8640 C   0  0  0  0  0  0  0  0  0  0  0  0
  189.8660  177.2310  140.1720 C   0  0  0  0  0  0  0  0  0  0  0  0
  188.7740  178.1160  142.1560 C   0  0  0  0  0  3  0  0  0  0  0  0
  191.0660  177.1450  140.8850 C   0  0  0  0  0  3  0  0  0  0  0  0
  191.1230  177.5440  142.2220 C   0  0  0  0  0  3  0  0  0  0  0  0
  190.0050  178.4240  144.2410 N   0  0  0  0  0  2  0  0  0  0  0  0
  189.6220  177.5360  145.3320 C   0  0  0  0  0  2  0  0  0  0  0  0
  188.3380  178.0210  145.9870 C   0  0  0  0  0  2  0  0  0  0  0  0
  187.1200  177.5450  145.2110 C   0  0  0  0  0  2  0  0  0  0  0  0
  185.9020  178.4220  145.5100 C   0  0  0  0  0  2  0  0  0  0  0  0
  185.0690  178.7890  144.2750 C   0  0  1  0  0  0  0  0  0  0  0  0
  183.6340  178.9120  144.7350 C   0  0  0  0  0  0  0  0  0  0  0  0
  183.3490  178.7960  145.9580 O   0  0  0  0  0  1  0  0  0  0  0  0
  182.6210  179.2180  143.8350 O   0  0  0  0  0  0  0  0  0  0  0  0
  184.8850  181.2050  144.2180 F   0  0  0  0  0  0  0  0  0  0  0  0
  185.5780  180.1220  143.7040 C   0  0  0  0  0  2  0  0  0  0  0  0
  185.2180  177.6600  143.2360 C   0  0  0  0  0  2  0  0  0  0  0  0
  185.0690  178.1220  141.7920 C   0  0  0  0  0  1  0  0  0  0  0  0
  187.8300  176.4620  135.9660 C   0  0  0  0  0  2  0  0  0  0  0  0
  187.1660  175.7280  137.1180 C   0  0  0  0  0  2  0  0  0  0  0  0
  186.1240  174.7510  136.5980 C   0  0  2  0  0  0  0  0  0  0  0  0
  182.9360  174.6400  137.6430 N   0  0  0  0  0  0  0  0  0  0  0  0
  183.8910  174.1530  136.9160 C   0  0  0  0  0  0  0  0  0  0  0  0
  182.0450  176.8870  138.0470 C   0  0  0  0  0  0  0  0  0  0  0  0
  184.6570  173.0550  137.3720 N   0  0  0  0  0  2  0  0  0  0  0  0
  182.9570  176.0550  137.5040 C   0  0  0  0  0  0  0  0  0  0  0  0
  184.7080  175.1500  136.1800 C   0  0  1  0  0  3  0  0  0  0  0  0
  184.5610  177.5690  136.4800 O   0  0  0  0  0  0  0  0  0  0  0  0
  184.1360  176.4090  136.7220 C   0  0  0  0  0  0  0  0  0  0  0  0
  186.0670  173.4300  137.3660 C   0  0  1  0  0  3  0  0  0  0  0  0
  186.6410  173.4840  135.9520 C   0  0  0  0  0  2  0  0  0  0  0  0
  180.8600  178.9190  137.2100 C   0  0  0  0  0  2  0  0  0  0  0  0
  180.9780  180.4340  137.0510 C   0  0  0  0  0  2  0  0  0  0  0  0
  182.5020  179.1080  139.1110 C   0  0  0  0  0  2  0  0  0  0  0  0
  182.1510  178.3670  137.8180 C   0  0  0  0  0  3  0  0  0  0  0  0
  181.2300  181.0570  138.3520 N   0  0  0  0  0  0  0  0  0  0  0  0
  181.3400  182.4830  138.1130 C   0  0  0  0  0  1  0  0  0  0  0  0
  182.5330  180.6090  138.8390 C   0  0  0  0  0  2  0  0  0  0  0  0
  180.4860  175.2060  138.7780 O   0  0  0  0  0  0  0  0  0  0  0  0
  180.9000  176.3930  138.8440 C   0  0  0  0  0  3  0  0  0  0  0  0
  190.2070  175.6280  136.2480 C   0  0  0  0  0  2  0  0  0  0  0  0
  191.6640  176.0360  136.0550 C   0  0  0  0  0  2  0  0  0  0  0  0
  192.5880  175.0810  136.7870 C   0  0  0  0  0  2  0  0  0  0  0  0
  194.4020  176.3520  135.5810 N   0  0  0  0  0  2  0  0  0  0  0  0
  193.9700  175.1560  136.2310 C   0  0  0  0  0  0  0  0  0  0  0  0
  194.7500  174.1730  136.3520 O   0  0  0  0  0  0  0  0  0  0  0  0
  195.7510  176.5090  135.0670 C   0  0  0  0  0  1  0  0  0  0  0  0
  1 24  1  1  0  0  0
  1  3  1  0  0  0  0
  3  2  2  0  0  0  0
  3  4  1  0  0  0  0
  4  7  1  0  0  0  0
  5  8  1  0  0  0  0
  6 11  1  0  0  0  0
  7  5  2  0  0  0  0
  7  9  1  0  0  0  0
  8  6  2  0  0  0  0
  9 10  2  0  0  0  0
 10  6  1  0  0  0  0
 11 12  1  0  0  0  0
 12 13  1  0  0  0  0
 14 15  1  0  0  0  0
 14 13  1  0  0  0  0
 16 22  1  6  0  0  0
 16 17  1  0  0  0  0
 16 15  1  0  0  0  0
 17 18  1  0  0  0  0
 19 17  2  0  0  0  0
 21 20  1  0  0  0  0
 21 16  1  0  0  0  0
 23 22  1  0  0  0  0
 24 25  1  0  0  0  0
 26 25  1  1  0  0  0
 26 35  1  0  0  0  0
 28 30  1  0  0  0  0
 28 27  2  0  0  0  0
 29 45  1  0  0  0  0
 31 27  1  0  0  0  0
 31 29  2  0  0  0  0
 32 26  1  0  0  0  0
 32 34  1  1  0  0  0
 32 28  1  0  0  0  0
 33 34  2  0  0  0  0
 34 31  1  0  0  0  0
 35 36  1  6  0  0  0
 35 30  1  0  0  0  0
 36 26  1  0  0  0  0
 37 40  1  0  0  0  0
 38 37  1  0  0  0  0
 38 41  1  0  0  0  0
 40 29  1  0  0  0  0
 40 39  1  0  0  0  0
 41 43  1  0  0  0  0
 42 41  1  0  0  0  0
 43 39  1  0  0  0  0
 44 45  2  0  0  0  0
 46  1  1  0  0  0  0
 47 46  1  0  0  0  0
 47 48  1  0  0  0  0
 49 50  1  0  0  0  0
 50 51  2  0  0  0  0
 50 48  1  0  0  0  0
 52 49  1  0  0  0  0
M  END
>  <MODEL>
9

>  <REMARK>
 VINA RESULT:      -5.7      2.584      9.520
  Name = 
  20 active torsions:
  status: ('A' for Active; 'I' for Inactive)
    1  A    between atoms: C_1  and  C_49
    2  A    between atoms: C_3  and  N_4
    3  A    between atoms: C_3  and  C_35
    4  A    between atoms: N_4  and  C_19
    5  A    between atoms: C_12  and  C_47
    6  A    between atoms: C_14  and  C_23
    7  A    between atoms: C_14  and  C_52
    8  A    between atoms: C_15  and  C_20
    9  A    between atoms: C_15  and  C_31
   10  A    between atoms: C_16  and  C_23
   11  A    between atoms: C_18  and  C_24
   12  A    between atoms: C_21  and  C_47
   13  A    between atoms: C_22  and  N_36
   14  A    between atoms: C_24  and  C_42
   15  A    between atoms: C_24  and  C_52
   16  A    between atoms: C_27  and  C_47
   17  A    between atoms: C_28  and  C_33
   18  A    between atoms: C_28  and  C_47
   19  A    between atoms: C_33  and  C_35
   20  A    between atoms: C_42  and  C_49
                            x       y       z     vdW  Elec       q    Type
                         _______ _______ _______ _____ _____    ______ ____

>  <TORSDO>
F 20

$$$$
