=
 OpenBabel10232411443D

 27 30  0  0  1  0  0  0  0  0999 V2000
  190.6200  177.8200  143.5260 C   0  0  2  0  0  3  0  0  0  0  0  0
  188.7020  177.6540  142.2260 N   0  0  0  0  0  0  0  0  0  0  0  0
  188.3270  178.0570  143.5400 C   0  0  2  0  0  3  0  0  0  0  0  0
  190.3720  177.2470  146.3370 C   0  0  0  0  0  3  0  0  0  0  0  0
  191.3210  176.4690  145.4920 C   0  0  0  0  0  0  0  0  0  0  0  0
  191.3790  176.6840  144.1640 C   0  0  0  0  0  3  0  0  0  0  0  0
  189.4010  178.1280  144.3240 C   0  0  1  0  0  3  0  0  0  0  0  0
  189.4320  178.0260  145.7880 C   0  0  0  0  0  3  0  0  0  0  0  0
  189.9840  177.4760  142.2180 C   0  0  0  0  0  0  0  0  0  0  0  0
  183.5210  178.4830  142.2870 C   0  0  0  0  0  1  0  0  0  0  0  0
  186.5430  178.2520  145.3070 C   0  0  0  0  0  3  0  0  0  0  0  0
  186.9110  178.1830  143.9540 C   0  0  0  0  0  0  0  0  0  0  0  0
  184.2140  178.4610  144.6850 C   0  0  0  0  0  3  0  0  0  0  0  0
  184.5690  178.4010  143.3370 C   0  0  0  0  0  0  0  0  0  0  0  0
  185.2010  178.3880  145.6710 C   0  0  0  0  0  0  0  0  0  0  0  0
  184.8490  178.4500  147.0130 O   0  0  0  0  0  1  0  0  0  0  0  0
  185.9130  178.2650  142.9730 C   0  0  0  0  0  3  0  0  0  0  0  0
  192.2190  176.7870  139.3650 C   0  0  0  0  0  0  0  0  0  0  0  0
  190.2210  176.2950  140.1090 N   0  0  0  0  0  0  0  0  0  0  0  0
  191.1560  176.1140  139.0880 N   0  0  0  0  0  0  0  0  0  0  0  0
  190.7150  177.0810  141.0070 C   0  0  0  0  0  0  0  0  0  0  0  0
  192.0970  177.5220  140.6590 C   0  0  0  0  0  2  0  0  0  0  0  0
  193.3330  176.1240  137.2800 C   0  0  0  0  0  1  0  0  0  0  0  0
  193.3320  176.8010  138.5270 O   0  0  0  0  0  0  0  0  0  0  0  0
  192.1440  175.4120  146.1050 C   0  0  0  0  0  0  0  0  0  0  0  0
  192.5400  175.5000  147.4710 N   0  0  0  0  0  1  0  0  0  0  0  0
  192.5050  174.4150  145.4240 O   0  0  0  0  0  0  0  0  0  0  0  0
  1  6  1  1  0  0  0
  1  7  1  0  0  0  0
  2  3  1  0  0  0  0
  3 12  1  1  0  0  0
  3  7  1  0  0  0  0
  5 25  1  0  0  0  0
  5  4  1  0  0  0  0
  6  5  2  0  0  0  0
  7  8  1  1  0  0  0
  8  4  2  0  0  0  0
  9  2  2  0  0  0  0
  9  1  1  0  0  0  0
 10 14  1  0  0  0  0
 11 15  1  0  0  0  0
 12 11  2  0  0  0  0
 13 15  2  0  0  0  0
 14 13  1  0  0  0  0
 15 16  1  0  0  0  0
 17 14  2  0  0  0  0
 17 12  1  0  0  0  0
 18 22  1  0  0  0  0
 19 21  2  0  0  0  0
 20 18  2  0  0  0  0
 20 19  1  0  0  0  0
 21  9  1  0  0  0  0
 22 21  1  0  0  0  0
 23 24  1  0  0  0  0
 24 18  1  0  0  0  0
 25 26  1  0  0  0  0
 27 25  2  0  0  0  0
M  END
>  <MODEL>
1

>  <REMARK>
 VINA RESULT:      -9.3      0.000      0.000
  Name = 
  4 active torsions:
  status: ('A' for Active; 'I' for Inactive)
    1  A    between atoms: C_4  and  O_13
    2  A    between atoms: C_5  and  C_16
    3  A    between atoms: C_6  and  C_11
    4  A    between atoms: C_21  and  C_26
                            x       y       z     vdW  Elec       q    Type
                         _______ _______ _______ _____ _____    ______ ____

>  <TORSDO>
F 4

$$$$
=
 OpenBabel10232411443D

 27 30  0  0  1  0  0  0  0  0999 V2000
  188.3780  178.6030  141.3390 C   0  0  2  0  0  3  0  0  0  0  0  0
  187.2370  178.1690  143.3160 N   0  0  0  0  0  0  0  0  0  0  0  0
  188.6350  178.0530  143.5630 C   0  0  2  0  0  3  0  0  0  0  0  0
  190.8830  177.2430  140.9250 C   0  0  0  0  0  3  0  0  0  0  0  0
  189.7690  177.0830  139.9470 C   0  0  0  0  0  0  0  0  0  0  0  0
  188.5730  177.6560  140.1830 C   0  0  0  0  0  3  0  0  0  0  0  0
  189.3200  178.2620  142.4400 C   0  0  1  0  0  3  0  0  0  0  0  0
  190.6740  177.7840  142.1320 C   0  0  0  0  0  3  0  0  0  0  0  0
  187.0790  178.4350  142.0590 C   0  0  0  0  0  0  0  0  0  0  0  0
  188.0700  177.5140  148.4870 C   0  0  0  0  0  1  0  0  0  0  0  0
  190.4450  177.0040  144.9650 C   0  0  0  0  0  3  0  0  0  0  0  0
  189.1720  177.5860  144.8620 C   0  0  0  0  0  0  0  0  0  0  0  0
  190.1600  176.7510  147.3550 C   0  0  0  0  0  3  0  0  0  0  0  0
  188.8950  177.3350  147.2640 C   0  0  0  0  0  0  0  0  0  0  0  0
  190.9370  176.5870  146.2050 C   0  0  0  0  0  0  0  0  0  0  0  0
  192.1960  176.0080  146.2940 O   0  0  0  0  0  1  0  0  0  0  0  0
  188.4050  177.7530  146.0230 C   0  0  0  0  0  3  0  0  0  0  0  0
  183.5640  178.6760  140.9660 C   0  0  0  0  0  0  0  0  0  0  0  0
  185.5680  179.3330  140.3840 N   0  0  0  0  0  0  0  0  0  0  0  0
  184.2070  179.3500  140.0750 N   0  0  0  0  0  0  0  0  0  0  0  0
  185.7540  178.6470  141.4620 C   0  0  0  0  0  0  0  0  0  0  0  0
  184.4730  178.1140  142.0080 C   0  0  0  0  0  2  0  0  0  0  0  0
  181.3490  178.9400  141.9920 C   0  0  0  0  0  1  0  0  0  0  0  0
  182.1800  178.5150  140.9240 O   0  0  0  0  0  0  0  0  0  0  0  0
  189.9600  176.2350  138.7590 C   0  0  0  0  0  0  0  0  0  0  0  0
  189.0990  176.3610  137.6300 N   0  0  0  0  0  1  0  0  0  0  0  0
  190.8920  175.3870  138.7280 O   0  0  0  0  0  0  0  0  0  0  0  0
  1  6  1  6  0  0  0
  1  9  1  0  0  0  0
  1  7  1  0  0  0  0
  2  3  1  0  0  0  0
  3 12  1  6  0  0  0
  4  8  2  0  0  0  0
  5  6  2  0  0  0  0
  5  4  1  0  0  0  0
  7  8  1  6  0  0  0
  7  3  1  0  0  0  0
  9  2  2  0  0  0  0
 11 15  1  0  0  0  0
 12 11  2  0  0  0  0
 12 17  1  0  0  0  0
 14 13  1  0  0  0  0
 14 10  1  0  0  0  0
 15 16  1  0  0  0  0
 15 13  2  0  0  0  0
 17 14  2  0  0  0  0
 18 22  1  0  0  0  0
 19 21  2  0  0  0  0
 20 19  1  0  0  0  0
 20 18  2  0  0  0  0
 21 22  1  0  0  0  0
 21  9  1  0  0  0  0
 24 18  1  0  0  0  0
 24 23  1  0  0  0  0
 25  5  1  0  0  0  0
 26 25  1  0  0  0  0
 27 25  2  0  0  0  0
M  END
>  <MODEL>
2

>  <REMARK>
 VINA RESULT:      -9.3      2.626      6.638
  Name = 
  4 active torsions:
  status: ('A' for Active; 'I' for Inactive)
    1  A    between atoms: C_4  and  O_13
    2  A    between atoms: C_5  and  C_16
    3  A    between atoms: C_6  and  C_11
    4  A    between atoms: C_21  and  C_26
                            x       y       z     vdW  Elec       q    Type
                         _______ _______ _______ _____ _____    ______ ____

>  <TORSDO>
F 4

$$$$
=
 OpenBabel10232411443D

 27 30  0  0  1  0  0  0  0  0999 V2000
  190.6430  177.7890  143.1380 C   0  0  2  0  0  3  0  0  0  0  0  0
  188.7550  177.5960  141.7980 N   0  0  0  0  0  0  0  0  0  0  0  0
  188.3500  178.0280  143.0930 C   0  0  2  0  0  3  0  0  0  0  0  0
  190.3290  177.2800  145.9550 C   0  0  0  0  0  3  0  0  0  0  0  0
  191.2970  176.4820  145.1490 C   0  0  0  0  0  0  0  0  0  0  0  0
  191.3860  176.6680  143.8180 C   0  0  0  0  0  3  0  0  0  0  0  0
  189.4060  178.1160  143.9000 C   0  0  1  0  0  3  0  0  0  0  0  0
  189.4030  178.0470  145.3670 C   0  0  0  0  0  3  0  0  0  0  0  0
  190.0370  177.4170  141.8240 C   0  0  0  0  0  0  0  0  0  0  0  0
  184.8780  178.3520  146.6560 C   0  0  0  0  0  1  0  0  0  0  0  0
  185.9100  178.2290  142.5050 C   0  0  0  0  0  3  0  0  0  0  0  0
  186.9250  178.1640  143.4720 C   0  0  0  0  0  0  0  0  0  0  0  0
  184.2340  178.3820  144.2430 C   0  0  0  0  0  3  0  0  0  0  0  0
  185.2350  178.3110  145.2130 C   0  0  0  0  0  0  0  0  0  0  0  0
  184.5700  178.3400  142.8880 C   0  0  0  0  0  0  0  0  0  0  0  0
  183.5760  178.4080  141.9220 O   0  0  0  0  0  1  0  0  0  0  0  0
  186.5750  178.2000  144.8280 C   0  0  0  0  0  3  0  0  0  0  0  0
  192.3300  176.6770  139.0300 C   0  0  0  0  0  0  0  0  0  0  0  0
  190.3340  176.1620  139.7660 N   0  0  0  0  0  0  0  0  0  0  0  0
  191.2880  175.9660  138.7650 N   0  0  0  0  0  0  0  0  0  0  0  0
  190.7950  176.9940  140.6390 C   0  0  0  0  0  0  0  0  0  0  0  0
  192.1700  177.4570  140.2930 C   0  0  0  0  0  2  0  0  0  0  0  0
  193.3970  176.2330  136.8640 C   0  0  0  0  0  1  0  0  0  0  0  0
  193.4540  176.6880  138.2070 O   0  0  0  0  0  0  0  0  0  0  0  0
  192.1040  175.4380  145.8040 C   0  0  0  0  0  0  0  0  0  0  0  0
  192.4450  175.5430  147.1840 N   0  0  0  0  0  1  0  0  0  0  0  0
  192.4990  174.4380  145.1480 O   0  0  0  0  0  0  0  0  0  0  0  0
  1  6  1  1  0  0  0
  1  7  1  0  0  0  0
  2  9  2  0  0  0  0
  2  3  1  0  0  0  0
  3 12  1  1  0  0  0
  3  7  1  0  0  0  0
  5 25  1  0  0  0  0
  5  4  1  0  0  0  0
  6  5  2  0  0  0  0
  7  8  1  1  0  0  0
  8  4  2  0  0  0  0
  9  1  1  0  0  0  0
 11 15  2  0  0  0  0
 11 12  1  0  0  0  0
 12 17  2  0  0  0  0
 13 14  2  0  0  0  0
 14 10  1  0  0  0  0
 15 13  1  0  0  0  0
 16 15  1  0  0  0  0
 17 14  1  0  0  0  0
 18 22  1  0  0  0  0
 19 21  2  0  0  0  0
 20 18  2  0  0  0  0
 20 19  1  0  0  0  0
 21  9  1  0  0  0  0
 22 21  1  0  0  0  0
 23 24  1  0  0  0  0
 24 18  1  0  0  0  0
 25 26  1  0  0  0  0
 27 25  2  0  0  0  0
M  END
>  <MODEL>
3

>  <REMARK>
 VINA RESULT:      -9.2      1.107      1.677
  Name = 
  4 active torsions:
  status: ('A' for Active; 'I' for Inactive)
    1  A    between atoms: C_4  and  O_13
    2  A    between atoms: C_5  and  C_16
    3  A    between atoms: C_6  and  C_11
    4  A    between atoms: C_21  and  C_26
                            x       y       z     vdW  Elec       q    Type
                         _______ _______ _______ _____ _____    ______ ____

>  <TORSDO>
F 4

$$$$
=
 OpenBabel10232411443D

 27 30  0  0  1  0  0  0  0  0999 V2000
  188.3230  178.6710  141.4290 C   0  0  2  0  0  3  0  0  0  0  0  0
  187.0830  178.2220  143.3420 N   0  0  0  0  0  0  0  0  0  0  0  0
  188.4660  178.0840  143.6540 C   0  0  2  0  0  3  0  0  0  0  0  0
  190.8270  177.2840  141.1150 C   0  0  0  0  0  3  0  0  0  0  0  0
  189.7600  177.1540  140.0820 C   0  0  0  0  0  0  0  0  0  0  0  0
  188.5610  177.7400  140.2690 C   0  0  0  0  0  3  0  0  0  0  0  0
  189.2070  178.3000  142.5690 C   0  0  1  0  0  3  0  0  0  0  0  0
  190.5680  177.8090  142.3180 C   0  0  0  0  0  3  0  0  0  0  0  0
  186.9890  178.5100  142.0840 C   0  0  0  0  0  0  0  0  0  0  0  0
  191.9980  175.8650  146.3850 C   0  0  0  0  0  1  0  0  0  0  0  0
  188.1320  177.6790  146.1170 C   0  0  0  0  0  3  0  0  0  0  0  0
  188.9340  177.5890  144.9690 C   0  0  0  0  0  0  0  0  0  0  0  0
  189.8520  176.5990  147.4310 C   0  0  0  0  0  3  0  0  0  0  0  0
  190.6550  176.4970  146.2940 C   0  0  0  0  0  0  0  0  0  0  0  0
  188.5890  177.1890  147.3430 C   0  0  0  0  0  0  0  0  0  0  0  0
  187.7890  177.2890  148.4730 O   0  0  0  0  0  1  0  0  0  0  0  0
  190.1960  176.9870  145.0670 C   0  0  0  0  0  3  0  0  0  0  0  0
  183.5390  178.7840  140.8050 C   0  0  0  0  0  0  0  0  0  0  0  0
  185.5610  179.5180  140.3980 N   0  0  0  0  0  0  0  0  0  0  0  0
  184.2190  179.5380  140.0110 N   0  0  0  0  0  0  0  0  0  0  0  0
  185.6980  178.7490  141.4270 C   0  0  0  0  0  0  0  0  0  0  0  0
  184.3970  178.1530  141.8510 C   0  0  0  0  0  2  0  0  0  0  0  0
  181.2770  178.7880  141.7590 C   0  0  0  0  0  1  0  0  0  0  0  0
  182.1640  178.6050  140.6670 O   0  0  0  0  0  0  0  0  0  0  0  0
  189.9970  176.3220  138.8900 C   0  0  0  0  0  0  0  0  0  0  0  0
  189.1250  176.3990  137.7650 N   0  0  0  0  0  1  0  0  0  0  0  0
  190.9790  175.5330  138.8530 O   0  0  0  0  0  0  0  0  0  0  0  0
  1  6  1  6  0  0  0
  1  9  1  0  0  0  0
  1  7  1  0  0  0  0
  2  3  1  0  0  0  0
  3 12  1  6  0  0  0
  4  8  2  0  0  0  0
  5  6  2  0  0  0  0
  5  4  1  0  0  0  0
  7  8  1  6  0  0  0
  7  3  1  0  0  0  0
  9  2  2  0  0  0  0
 11 15  1  0  0  0  0
 12 17  1  0  0  0  0
 12 11  2  0  0  0  0
 14 10  1  0  0  0  0
 14 13  1  0  0  0  0
 15 13  2  0  0  0  0
 15 16  1  0  0  0  0
 17 14  2  0  0  0  0
 18 22  1  0  0  0  0
 19 21  2  0  0  0  0
 20 19  1  0  0  0  0
 20 18  2  0  0  0  0
 21 22  1  0  0  0  0
 21  9  1  0  0  0  0
 24 18  1  0  0  0  0
 24 23  1  0  0  0  0
 25  5  1  0  0  0  0
 26 25  1  0  0  0  0
 27 25  2  0  0  0  0
M  END
>  <MODEL>
4

>  <REMARK>
 VINA RESULT:      -8.9      2.642      6.536
  Name = 
  4 active torsions:
  status: ('A' for Active; 'I' for Inactive)
    1  A    between atoms: C_4  and  O_13
    2  A    between atoms: C_5  and  C_16
    3  A    between atoms: C_6  and  C_11
    4  A    between atoms: C_21  and  C_26
                            x       y       z     vdW  Elec       q    Type
                         _______ _______ _______ _____ _____    ______ ____

>  <TORSDO>
F 4

$$$$
=
 OpenBabel10232411443D

 27 30  0  0  1  0  0  0  0  0999 V2000
  187.8850  176.6640  143.8950 C   0  0  2  0  0  3  0  0  0  0  0  0
  187.1060  177.9600  142.1310 N   0  0  0  0  0  0  0  0  0  0  0  0
  188.2870  177.2840  141.7110 C   0  0  2  0  0  3  0  0  0  0  0  0
  190.7290  176.2550  144.0860 C   0  0  0  0  0  3  0  0  0  0  0  0
  189.9820  176.8820  145.2130 C   0  0  0  0  0  0  0  0  0  0  0  0
  188.6670  177.1450  145.0910 C   0  0  0  0  0  3  0  0  0  0  0  0
  188.7820  176.5570  142.7120 C   0  0  1  0  0  3  0  0  0  0  0  0
  190.1730  176.1170  142.8770 C   0  0  0  0  0  3  0  0  0  0  0  0
  186.8950  177.6530  143.3710 C   0  0  0  0  0  0  0  0  0  0  0  0
  192.0390  176.4650  138.5320 C   0  0  0  0  0  1  0  0  0  0  0  0
  188.3530  178.4260  139.4680 C   0  0  0  0  0  3  0  0  0  0  0  0
  188.9200  177.5400  140.3970 C   0  0  0  0  0  0  0  0  0  0  0  0
  190.1810  178.0230  137.9350 C   0  0  0  0  0  3  0  0  0  0  0  0
  190.7580  177.1460  138.8550 C   0  0  0  0  0  0  0  0  0  0  0  0
  188.9790  178.6640  138.2410 C   0  0  0  0  0  0  0  0  0  0  0  0
  188.4050  179.5390  137.3280 O   0  0  0  0  0  1  0  0  0  0  0  0
  190.1310  176.9080  140.0830 C   0  0  0  0  0  3  0  0  0  0  0  0
  183.7190  178.8880  144.7840 C   0  0  0  0  0  0  0  0  0  0  0  0
  185.7760  178.4360  145.3790 N   0  0  0  0  0  0  0  0  0  0  0  0
  184.5220  178.8910  145.7920 N   0  0  0  0  0  0  0  0  0  0  0  0
  185.7360  178.1580  144.1180 C   0  0  0  0  0  0  0  0  0  0  0  0
  184.3850  178.4100  143.5370 C   0  0  0  0  0  2  0  0  0  0  0  0
  181.3870  178.7880  144.0220 C   0  0  0  0  0  1  0  0  0  0  0  0
  182.3900  179.2930  144.8890 O   0  0  0  0  0  0  0  0  0  0  0  0
  190.7040  177.2810  146.4340 C   0  0  0  0  0  0  0  0  0  0  0  0
  189.9920  177.6600  147.6090 N   0  0  0  0  0  1  0  0  0  0  0  0
  191.9640  177.2880  146.4510 O   0  0  0  0  0  0  0  0  0  0  0  0
  1  6  1  1  0  0  0
  2  9  2  0  0  0  0
  3 12  1  1  0  0  0
  3  2  1  0  0  0  0
  3  7  1  0  0  0  0
  4  5  1  0  0  0  0
  5 25  1  0  0  0  0
  6  5  2  0  0  0  0
  7  8  1  1  0  0  0
  7  1  1  0  0  0  0
  8  4  2  0  0  0  0
  9  1  1  0  0  0  0
  9 21  1  0  0  0  0
 10 14  1  0  0  0  0
 11 12  1  0  0  0  0
 13 15  1  0  0  0  0
 13 14  2  0  0  0  0
 14 17  1  0  0  0  0
 15 11  2  0  0  0  0
 16 15  1  0  0  0  0
 17 12  2  0  0  0  0
 18 24  1  0  0  0  0
 18 20  2  0  0  0  0
 19 20  1  0  0  0  0
 21 19  2  0  0  0  0
 22 21  1  0  0  0  0
 22 18  1  0  0  0  0
 23 24  1  0  0  0  0
 25 27  2  0  0  0  0
 25 26  1  0  0  0  0
M  END
>  <MODEL>
5

>  <REMARK>
 VINA RESULT:      -8.7      2.598      6.939
  Name = 
  4 active torsions:
  status: ('A' for Active; 'I' for Inactive)
    1  A    between atoms: C_4  and  O_13
    2  A    between atoms: C_5  and  C_16
    3  A    between atoms: C_6  and  C_11
    4  A    between atoms: C_21  and  C_26
                            x       y       z     vdW  Elec       q    Type
                         _______ _______ _______ _____ _____    ______ ____

>  <TORSDO>
F 4

$$$$
=
 OpenBabel10232411443D

 27 30  0  0  1  0  0  0  0  0999 V2000
  187.4820  176.8050  144.3790 C   0  0  2  0  0  3  0  0  0  0  0  0
  187.0730  177.9720  142.4120 N   0  0  0  0  0  0  0  0  0  0  0  0
  188.3120  177.2810  142.2820 C   0  0  2  0  0  3  0  0  0  0  0  0
  190.2310  176.4380  145.1580 C   0  0  0  0  0  3  0  0  0  0  0  0
  189.2770  177.1320  146.0700 C   0  0  0  0  0  0  0  0  0  0  0  0
  188.0130  177.3720  145.6710 C   0  0  0  0  0  3  0  0  0  0  0  0
  188.5960  176.6290  143.4070 C   0  0  1  0  0  3  0  0  0  0  0  0
  189.9250  176.2140  143.8740 C   0  0  0  0  0  3  0  0  0  0  0  0
  186.6190  177.7470  143.6030 C   0  0  0  0  0  0  0  0  0  0  0  0
  188.8220  178.2570  137.4190 C   0  0  0  0  0  1  0  0  0  0  0  0
  190.5850  177.2890  141.1960 C   0  0  0  0  0  3  0  0  0  0  0  0
  189.1940  177.4570  141.1050 C   0  0  0  0  0  0  0  0  0  0  0  0
  190.8180  177.7610  138.8350 C   0  0  0  0  0  3  0  0  0  0  0  0
  189.4360  177.9230  138.7310 C   0  0  0  0  0  0  0  0  0  0  0  0
  191.3940  177.4430  140.0670 C   0  0  0  0  0  0  0  0  0  0  0  0
  192.7690  177.2800  140.1710 O   0  0  0  0  0  1  0  0  0  0  0  0
  188.6270  177.7680  139.8620 C   0  0  0  0  0  3  0  0  0  0  0  0
  183.2190  179.0080  144.2810 C   0  0  0  0  0  0  0  0  0  0  0  0
  185.1470  178.7150  145.2750 N   0  0  0  0  0  0  0  0  0  0  0  0
  183.8320  179.1640  145.4050 N   0  0  0  0  0  0  0  0  0  0  0  0
  185.3370  178.2880  144.0710 C   0  0  0  0  0  0  0  0  0  0  0  0
  184.1050  178.4130  143.2370 C   0  0  0  0  0  2  0  0  0  0  0  0
  181.2160  179.1620  142.8690 C   0  0  0  0  0  1  0  0  0  0  0  0
  181.8850  179.3680  144.1040 O   0  0  0  0  0  0  0  0  0  0  0  0
  189.7430  177.6180  147.3790 C   0  0  0  0  0  0  0  0  0  0  0  0
  188.8950  178.4130  148.2030 N   0  0  0  0  0  1  0  0  0  0  0  0
  190.9010  177.3320  147.7850 O   0  0  0  0  0  0  0  0  0  0  0  0
  1  6  1  1  0  0  0
  2  9  2  0  0  0  0
  3 12  1  1  0  0  0
  3  2  1  0  0  0  0
  3  7  1  0  0  0  0
  4  5  1  0  0  0  0
  5 25  1  0  0  0  0
  6  5  2  0  0  0  0
  7  8  1  1  0  0  0
  7  1  1  0  0  0  0
  8  4  2  0  0  0  0
  9 21  1  0  0  0  0
  9  1  1  0  0  0  0
 10 14  1  0  0  0  0
 12 11  1  0  0  0  0
 13 15  1  0  0  0  0
 14 13  2  0  0  0  0
 14 17  1  0  0  0  0
 15 16  1  0  0  0  0
 15 11  2  0  0  0  0
 17 12  2  0  0  0  0
 18 20  2  0  0  0  0
 19 20  1  0  0  0  0
 21 19  2  0  0  0  0
 22 21  1  0  0  0  0
 22 18  1  0  0  0  0
 23 24  1  0  0  0  0
 24 18  1  0  0  0  0
 25 27  2  0  0  0  0
 25 26  1  0  0  0  0
M  END
>  <MODEL>
6

>  <REMARK>
 VINA RESULT:      -8.7      2.612      6.868
  Name = 
  4 active torsions:
  status: ('A' for Active; 'I' for Inactive)
    1  A    between atoms: C_4  and  O_13
    2  A    between atoms: C_5  and  C_16
    3  A    between atoms: C_6  and  C_11
    4  A    between atoms: C_21  and  C_26
                            x       y       z     vdW  Elec       q    Type
                         _______ _______ _______ _____ _____    ______ ____

>  <TORSDO>
F 4

$$$$
=
 OpenBabel10232411443D

 27 30  0  0  1  0  0  0  0  0999 V2000
  186.7630  177.0940  144.6250 C   0  0  2  0  0  3  0  0  0  0  0  0
  186.6230  178.0560  142.5150 N   0  0  0  0  0  0  0  0  0  0  0  0
  187.8840  177.4040  142.6350 C   0  0  2  0  0  3  0  0  0  0  0  0
  189.3720  176.9060  145.8290 C   0  0  0  0  0  3  0  0  0  0  0  0
  188.2770  177.6450  146.5190 C   0  0  0  0  0  0  0  0  0  0  0  0
  187.0810  177.7980  145.9190 C   0  0  0  0  0  3  0  0  0  0  0  0
  188.0130  176.8700  143.8480 C   0  0  1  0  0  3  0  0  0  0  0  0
  189.2670  176.5520  144.5420 C   0  0  0  0  0  3  0  0  0  0  0  0
  186.0030  177.9250  143.6430 C   0  0  0  0  0  0  0  0  0  0  0  0
  189.1060  178.2090  137.8690 C   0  0  0  0  0  1  0  0  0  0  0  0
  190.2820  177.2740  141.8760 C   0  0  0  0  0  3  0  0  0  0  0  0
  188.9270  177.5030  141.5880 C   0  0  0  0  0  0  0  0  0  0  0  0
  190.8620  177.6630  139.5590 C   0  0  0  0  0  3  0  0  0  0  0  0
  189.5160  177.8860  139.2600 C   0  0  0  0  0  0  0  0  0  0  0  0
  191.2450  177.3560  140.8660 C   0  0  0  0  0  0  0  0  0  0  0  0
  192.5830  177.1330  141.1640 O   0  0  0  0  0  1  0  0  0  0  0  0
  188.5530  177.8020  140.2710 C   0  0  0  0  0  3  0  0  0  0  0  0
  182.5250  179.1570  143.6770 C   0  0  0  0  0  0  0  0  0  0  0  0
  184.2450  178.8990  145.0060 N   0  0  0  0  0  0  0  0  0  0  0  0
  182.9230  179.3350  144.8900 N   0  0  0  0  0  0  0  0  0  0  0  0
  184.6520  178.4580  143.8630 C   0  0  0  0  0  0  0  0  0  0  0  0
  183.5900  178.5580  142.8190 C   0  0  0  0  0  2  0  0  0  0  0  0
  180.0990  178.7830  143.6970 C   0  0  0  0  0  1  0  0  0  0  0  0
  181.2420  179.4990  143.2560 O   0  0  0  0  0  0  0  0  0  0  0  0
  188.5310  178.2680  147.8290 C   0  0  0  0  0  0  0  0  0  0  0  0
  189.8460  178.2910  148.3800 N   0  0  0  0  0  1  0  0  0  0  0  0
  187.5850  178.7920  148.4760 O   0  0  0  0  0  0  0  0  0  0  0  0
  1  6  1  1  0  0  0
  2  3  1  0  0  0  0
  2  9  2  0  0  0  0
  3 12  1  1  0  0  0
  3  7  1  0  0  0  0
  4  5  1  0  0  0  0
  5 25  1  0  0  0  0
  6  5  2  0  0  0  0
  7  8  1  1  0  0  0
  7  1  1  0  0  0  0
  8  4  2  0  0  0  0
  9 21  1  0  0  0  0
  9  1  1  0  0  0  0
 10 14  1  0  0  0  0
 12 11  1  0  0  0  0
 13 15  1  0  0  0  0
 14 13  2  0  0  0  0
 14 17  1  0  0  0  0
 15 16  1  0  0  0  0
 15 11  2  0  0  0  0
 17 12  2  0  0  0  0
 18 20  2  0  0  0  0
 20 19  1  0  0  0  0
 21 19  2  0  0  0  0
 22 18  1  0  0  0  0
 22 21  1  0  0  0  0
 24 18  1  0  0  0  0
 24 23  1  0  0  0  0
 25 26  1  0  0  0  0
 25 27  2  0  0  0  0
M  END
>  <MODEL>
7

>  <REMARK>
 VINA RESULT:      -8.6      2.738      7.119
  Name = 
  4 active torsions:
  status: ('A' for Active; 'I' for Inactive)
    1  A    between atoms: C_4  and  O_13
    2  A    between atoms: C_5  and  C_16
    3  A    between atoms: C_6  and  C_11
    4  A    between atoms: C_21  and  C_26
                            x       y       z     vdW  Elec       q    Type
                         _______ _______ _______ _____ _____    ______ ____

>  <TORSDO>
F 4

$$$$
=
 OpenBabel10232411443D

 27 30  0  0  1  0  0  0  0  0999 V2000
  188.4220  176.5400  143.4810 C   0  0  2  0  0  3  0  0  0  0  0  0
  188.3940  177.6320  141.4300 N   0  0  0  0  0  0  0  0  0  0  0  0
  189.5730  176.8360  141.5060 C   0  0  2  0  0  3  0  0  0  0  0  0
  190.9930  175.9910  144.6580 C   0  0  0  0  0  3  0  0  0  0  0  0
  189.9870  176.8070  145.3950 C   0  0  0  0  0  0  0  0  0  0  0  0
  188.8160  177.1290  144.8120 C   0  0  0  0  0  3  0  0  0  0  0  0
  189.6400  176.2220  142.6860 C   0  0  1  0  0  3  0  0  0  0  0  0
  190.8490  175.7250  143.3540 C   0  0  0  0  0  3  0  0  0  0  0  0
  187.7610  177.5070  142.5530 C   0  0  0  0  0  0  0  0  0  0  0  0
  190.9510  176.0050  136.7870 C   0  0  0  0  0  1  0  0  0  0  0  0
  191.9270  177.3070  140.7450 C   0  0  0  0  0  3  0  0  0  0  0  0
  190.6220  176.8760  140.4610 C   0  0  0  0  0  0  0  0  0  0  0  0
  192.5840  176.8960  138.4520 C   0  0  0  0  0  3  0  0  0  0  0  0
  191.2910  176.4590  138.1610 C   0  0  0  0  0  0  0  0  0  0  0  0
  192.9040  177.3200  139.7450 C   0  0  0  0  0  0  0  0  0  0  0  0
  194.1900  177.7530  140.0360 O   0  0  0  0  0  1  0  0  0  0  0  0
  190.3150  176.4470  139.1630 C   0  0  0  0  0  3  0  0  0  0  0  0
  184.5530  178.9410  143.6760 C   0  0  0  0  0  0  0  0  0  0  0  0
  185.9080  178.9590  141.9570 N   0  0  0  0  0  0  0  0  0  0  0  0
  184.7100  179.4340  142.4950 N   0  0  0  0  0  0  0  0  0  0  0  0
  186.4790  178.1750  142.8100 C   0  0  0  0  0  0  0  0  0  0  0  0
  185.6820  178.0450  144.0640 C   0  0  0  0  0  2  0  0  0  0  0  0
  182.1340  178.8410  144.0860 C   0  0  0  0  0  1  0  0  0  0  0  0
  183.4430  179.2360  144.4650 O   0  0  0  0  0  0  0  0  0  0  0  0
  190.3080  177.3220  146.7370 C   0  0  0  0  0  0  0  0  0  0  0  0
  191.5710  177.0440  147.3380 N   0  0  0  0  0  1  0  0  0  0  0  0
  189.4680  178.0170  147.3680 O   0  0  0  0  0  0  0  0  0  0  0  0
  1  6  1  1  0  0  0
  2  3  1  0  0  0  0
  2  9  2  0  0  0  0
  3 12  1  1  0  0  0
  3  7  1  0  0  0  0
  4  5  1  0  0  0  0
  5 25  1  0  0  0  0
  6  5  2  0  0  0  0
  7  8  1  1  0  0  0
  7  1  1  0  0  0  0
  8  4  2  0  0  0  0
  9 21  1  0  0  0  0
  9  1  1  0  0  0  0
 10 14  1  0  0  0  0
 12 11  1  0  0  0  0
 13 15  1  0  0  0  0
 14 13  2  0  0  0  0
 14 17  1  0  0  0  0
 15 16  1  0  0  0  0
 15 11  2  0  0  0  0
 17 12  2  0  0  0  0
 18 22  1  0  0  0  0
 18 24  1  0  0  0  0
 19 20  1  0  0  0  0
 19 21  2  0  0  0  0
 20 18  2  0  0  0  0
 21 22  1  0  0  0  0
 23 24  1  0  0  0  0
 25 26  1  0  0  0  0
 25 27  2  0  0  0  0
M  END
>  <MODEL>
8

>  <REMARK>
 VINA RESULT:      -8.5      1.938      6.898
  Name = 
  4 active torsions:
  status: ('A' for Active; 'I' for Inactive)
    1  A    between atoms: C_4  and  O_13
    2  A    between atoms: C_5  and  C_16
    3  A    between atoms: C_6  and  C_11
    4  A    between atoms: C_21  and  C_26
                            x       y       z     vdW  Elec       q    Type
                         _______ _______ _______ _____ _____    ______ ____

>  <TORSDO>
F 4

$$$$
=
 OpenBabel10232411443D

 27 30  0  0  1  0  0  0  0  0999 V2000
  185.5860  177.6100  142.5310 C   0  0  2  0  0  3  0  0  0  0  0  0
  186.9840  178.4400  140.8710 N   0  0  0  0  0  0  0  0  0  0  0  0
  187.7790  177.7550  141.8350 C   0  0  2  0  0  3  0  0  0  0  0  0
  186.6600  177.4130  145.1960 C   0  0  0  0  0  3  0  0  0  0  0  0
  185.4410  178.2300  144.9350 C   0  0  0  0  0  0  0  0  0  0  0  0
  184.9860  178.3850  143.6760 C   0  0  0  0  0  3  0  0  0  0  0  0
  187.0120  177.2960  142.8220 C   0  0  1  0  0  3  0  0  0  0  0  0
  187.4340  176.9810  144.1930 C   0  0  0  0  0  3  0  0  0  0  0  0
  185.7550  178.4020  141.2750 C   0  0  0  0  0  0  0  0  0  0  0  0
  191.9670  176.9230  139.2610 C   0  0  0  0  0  1  0  0  0  0  0  0
  190.0370  178.1030  142.8940 C   0  0  0  0  0  3  0  0  0  0  0  0
  189.2590  177.7520  141.7800 C   0  0  0  0  0  0  0  0  0  0  0  0
  192.0630  177.6920  141.6350 C   0  0  0  0  0  3  0  0  0  0  0  0
  191.2980  177.3340  140.5230 C   0  0  0  0  0  0  0  0  0  0  0  0
  191.4330  178.0750  142.8210 C   0  0  0  0  0  0  0  0  0  0  0  0
  192.1920  178.4290  143.9280 O   0  0  0  0  0  1  0  0  0  0  0  0
  189.9010  177.3620  140.5970 C   0  0  0  0  0  3  0  0  0  0  0  0
  182.6710  179.5670  139.6190 C   0  0  0  0  0  0  0  0  0  0  0  0
  184.8350  179.8910  139.5910 N   0  0  0  0  0  0  0  0  0  0  0  0
  183.6020  180.2470  139.0420 N   0  0  0  0  0  0  0  0  0  0  0  0
  184.6550  178.9930  140.5010 C   0  0  0  0  0  0  0  0  0  0  0  0
  183.2130  178.6440  140.6590 C   0  0  0  0  0  2  0  0  0  0  0  0
  180.5900  178.6430  138.6990 C   0  0  0  0  0  1  0  0  0  0  0  0
  181.3270  179.7070  139.2800 O   0  0  0  0  0  0  0  0  0  0  0  0
  184.7780  178.9270  146.0500 C   0  0  0  0  0  0  0  0  0  0  0  0
  185.5380  179.4260  147.1480 N   0  0  0  0  0  1  0  0  0  0  0  0
  183.5290  179.0910  146.0430 O   0  0  0  0  0  0  0  0  0  0  0  0
  1  7  1  0  0  0  0
  1  6  1  1  0  0  0
  2  9  2  0  0  0  0
  2  3  1  0  0  0  0
  3 12  1  1  0  0  0
  3  7  1  0  0  0  0
  5  4  1  0  0  0  0
  5 25  1  0  0  0  0
  6  5  2  0  0  0  0
  7  8  1  1  0  0  0
  8  4  2  0  0  0  0
  9  1  1  0  0  0  0
 10 14  1  0  0  0  0
 12 11  2  0  0  0  0
 13 15  2  0  0  0  0
 14 17  2  0  0  0  0
 14 13  1  0  0  0  0
 15 11  1  0  0  0  0
 15 16  1  0  0  0  0
 17 12  1  0  0  0  0
 18 22  1  0  0  0  0
 19 21  2  0  0  0  0
 20 19  1  0  0  0  0
 20 18  2  0  0  0  0
 21 22  1  0  0  0  0
 21  9  1  0  0  0  0
 23 24  1  0  0  0  0
 24 18  1  0  0  0  0
 25 26  1  0  0  0  0
 27 25  2  0  0  0  0
M  END
>  <MODEL>
9

>  <REMARK>
 VINA RESULT:      -8.4      3.129      7.283
  Name = 
  4 active torsions:
  status: ('A' for Active; 'I' for Inactive)
    1  A    between atoms: C_4  and  O_13
    2  A    between atoms: C_5  and  C_16
    3  A    between atoms: C_6  and  C_11
    4  A    between atoms: C_21  and  C_26
                            x       y       z     vdW  Elec       q    Type
                         _______ _______ _______ _____ _____    ______ ____

>  <TORSDO>
F 4

$$$$
