=
 OpenBabel10232410333D

 38 42  0  0  1  0  0  0  0  0999 V2000
  188.2770  177.9770  142.2890 C   0  0  0  0  0  0  0  0  0  0  0  0
  186.0860  178.8010  142.8180 N   0  0  0  0  0  0  0  0  0  0  0  0
  190.9720  177.2180  142.8090 C   0  0  0  0  0  3  0  0  0  0  0  0
  185.0090  179.1850  142.0870 C   0  0  0  0  0  3  0  0  0  0  0  0
  188.7050  177.7380  139.8990 C   0  0  0  0  0  0  0  0  0  0  0  0
  186.6120  178.5650  140.7100 C   0  0  0  0  0  0  0  0  0  0  0  0
  189.1460  177.6140  141.2370 C   0  0  0  0  0  0  0  0  0  0  0  0
  188.6940  177.7500  143.7160 C   0  0  0  0  0  2  0  0  0  0  0  0
  187.4160  178.2250  139.6250 C   0  0  0  0  0  3  0  0  0  0  0  0
  187.0370  178.4330  141.9730 N   0  0  0  0  0  0  0  0  0  0  0  0
  190.2100  177.9700  143.8830 C   0  0  1  0  0  3  0  0  0  0  0  0
  185.3280  179.0430  140.7390 C   0  0  0  0  0  0  0  0  0  0  0  0
  190.4890  177.1000  141.5690 C   0  0  0  0  0  3  0  0  0  0  0  0
  192.0830  175.9690  146.4770 C   0  0  0  0  0  2  0  0  0  0  0  0
  191.5130  176.3880  145.1130 C   0  0  0  0  0  2  0  0  0  0  0  0
  189.8860  176.7510  147.4450 C   0  0  0  0  0  2  0  0  0  0  0  0
  189.4940  177.1830  146.0230 C   0  0  0  0  0  2  0  0  0  0  0  0
  190.6640  177.5810  145.2270 N   0  0  0  0  0  0  0  0  0  0  0  0
  191.4020  176.6930  147.6400 C   0  0  0  0  0  2  0  0  0  0  0  0
  183.1360  177.4180  139.7350 O   0  0  0  0  0  0  0  0  0  0  0  0
  184.5020  179.3190  139.6030 N   0  0  0  0  0  2  0  0  0  0  0  0
  183.4300  178.4900  139.1430 C   0  0  0  0  0  0  0  0  0  0  0  0
  182.6510  178.9020  137.9470 C   0  0  0  0  0  1  0  0  0  0  0  0
  189.8420  177.2370  137.3510 C   0  0  1  0  0  3  0  0  0  0  0  0
  189.5520  177.3700  138.8120 N   0  0  0  0  0  0  0  0  0  0  0  0
  190.7940  175.3970  138.4420 O   0  0  0  0  0  1  0  0  0  0  0  0
  190.8050  176.7820  138.2450 C   0  0  1  0  0  3  0  0  0  0  0  0
  188.9190  176.1720  136.7500 C   0  0  0  0  0  2  0  0  0  0  0  0
  187.8710  177.7800  135.3100 O   0  0  0  0  0  1  0  0  0  0  0  0
  187.6110  176.7690  136.2350 C   0  0  1  0  0  3  0  0  0  0  0  0
  186.7070  175.7140  135.6090 C   0  0  0  0  0  2  0  0  0  0  0  0
  187.3130  173.4150  135.3700 O   0  0  0  0  0  1  0  0  0  0  0  0
  186.8750  174.3670  136.2910 C   0  0  2  0  0  3  0  0  0  0  0  0
  185.5420  172.9060  138.1570 O   0  0  0  0  0  1  0  0  0  0  0  0
  185.2860  173.8360  136.9910 P   0  0  2  0  0  0  0  0  0  0  0  0
  184.4080  173.0160  135.7990 O   0  0  0  0  0  0  0  0  0  0  0  0
  184.4240  175.2000  137.5130 O   0  0  0  0  0  0  0  0  0  0  0  0
  183.1960  175.1400  136.8530 C   0  0  0  0  0  1  0  0  0  0  0  0
  1  8  1  0  0  0  0
  4  2  2  0  0  0  0
  5  7  1  0  0  0  0
  6 12  2  0  0  0  0
  6 10  1  0  0  0  0
  7 13  1  0  0  0  0
  7  1  2  0  0  0  0
  8 11  1  0  0  0  0
  9  5  2  0  0  0  0
  9  6  1  0  0  0  0
 10  1  1  0  0  0  0
 10  2  1  0  0  0  0
 11  3  1  6  0  0  0
 11 18  1  0  0  0  0
 12  4  1  0  0  0  0
 13  3  2  0  0  0  0
 14 19  1  0  0  0  0
 15 18  1  0  0  0  0
 15 14  1  0  0  0  0
 16 19  1  0  0  0  0
 17 16  1  0  0  0  0
 18 17  1  0  0  0  0
 21 12  1  0  0  0  0
 22 21  1  0  0  0  0
 22 20  2  0  0  0  0
 23 22  1  0  0  0  0
 24 28  1  6  0  0  0
 24 27  1  0  0  0  0
 24 25  1  0  0  0  0
 25  5  1  0  0  0  0
 27 26  1  6  0  0  0
 27 25  1  0  0  0  0
 30 29  1  6  0  0  0
 30 28  1  0  0  0  0
 31 30  1  0  0  0  0
 31 33  1  0  0  0  0
 33 32  1  6  0  0  0
 33 35  1  0  0  0  0
 35 36  2  6  0  0  0
 35 37  1  0  0  0  0
 35 34  1  0  0  0  0
 38 37  1  0  0  0  0
M  END
>  <MODEL>
1

>  <REMARK>
 VINA RESULT:      -8.0      0.000      0.000
  Name = 
  9 active torsions:
  status: ('A' for Active; 'I' for Inactive)
    1  A    between atoms: C_2  and  C_18
    2  A    between atoms: C_2  and  C_23
    3  A    between atoms: N_7  and  C_36
    4  A    between atoms: O_8  and  P_16
    5  A    between atoms: CA_12  and  C_20
    6  A    between atoms: C_13  and  N_19
    7  A    between atoms: P_16  and  C_18
    8  A    between atoms: C_20  and  C_23
    9  A    between atoms: N_30  and  C_35
                            x       y       z     vdW  Elec       q    Type
                         _______ _______ _______ _____ _____    ______ ____

>  <TORSDO>
F 9

$$$$
=
 OpenBabel10232410333D

 38 42  0  0  1  0  0  0  0  0999 V2000
  188.2010  177.7720  142.3420 C   0  0  0  0  0  0  0  0  0  0  0  0
  190.4100  177.3150  141.5230 N   0  0  0  0  0  0  0  0  0  0  0  0
  186.1190  177.9250  144.2780 C   0  0  0  0  0  3  0  0  0  0  0  0
  190.9760  177.2480  140.2910 C   0  0  0  0  0  3  0  0  0  0  0  0
  186.5680  178.2560  140.5950 C   0  0  0  0  0  0  0  0  0  0  0  0
  188.8410  177.7370  140.0610 C   0  0  0  0  0  0  0  0  0  0  0  0
  186.8820  178.1060  141.9670 C   0  0  0  0  0  0  0  0  0  0  0  0
  188.5730  177.7150  143.7980 C   0  0  0  0  0  2  0  0  0  0  0  0
  187.5620  178.0660  139.6210 C   0  0  0  0  0  3  0  0  0  0  0  0
  189.1290  177.6090  141.3630 N   0  0  0  0  0  0  0  0  0  0  0  0
  187.3940  177.1890  144.6420 C   0  0  1  0  0  3  0  0  0  0  0  0
  189.9880  177.5130  139.3470 C   0  0  0  0  0  0  0  0  0  0  0  0
  185.8700  178.3030  143.0220 C   0  0  0  0  0  3  0  0  0  0  0  0
  187.1000  178.5380  148.1530 C   0  0  0  0  0  2  0  0  0  0  0  0
  186.9080  178.4170  146.6340 C   0  0  0  0  0  2  0  0  0  0  0  0
  189.4710  177.7710  147.7440 C   0  0  0  0  0  2  0  0  0  0  0  0
  189.0950  177.6330  146.2600 C   0  0  0  0  0  2  0  0  0  0  0  0
  187.6770  177.2940  146.0810 N   0  0  0  0  0  0  0  0  0  0  0  0
  188.2540  177.6740  148.6650 C   0  0  0  0  0  2  0  0  0  0  0  0
  190.4160  175.2630  137.5560 O   0  0  0  0  0  0  0  0  0  0  0  0
  190.1200  177.5600  137.9220 N   0  0  0  0  0  2  0  0  0  0  0  0
  190.3290  176.4250  137.0770 C   0  0  0  0  0  0  0  0  0  0  0  0
  190.4470  176.6200  135.6080 C   0  0  0  0  0  1  0  0  0  0  0  0
  183.9140  178.2580  139.6000 C   0  0  1  0  0  3  0  0  0  0  0  0
  185.2480  178.6030  140.1800 N   0  0  0  0  0  0  0  0  0  0  0  0
  184.4850  180.4040  138.8580 O   0  0  0  0  0  1  0  0  0  0  0  0
  184.1460  179.5860  139.9410 C   0  0  1  0  0  3  0  0  0  0  0  0
  184.0860  177.8990  138.1210 C   0  0  0  0  0  2  0  0  0  0  0  0
  182.2630  176.3450  138.2800 O   0  0  0  0  0  1  0  0  0  0  0  0
  183.5660  176.4980  137.8050 C   0  0  1  0  0  3  0  0  0  0  0  0
  183.6120  176.1920  136.3130 C   0  0  0  0  0  2  0  0  0  0  0  0
  184.5730  174.1430  137.0820 O   0  0  0  0  0  1  0  0  0  0  0  0
  184.5590  175.0420  136.0140 C   0  0  2  0  0  3  0  0  0  0  0  0
  186.9580  174.8040  134.7570 O   0  0  0  0  0  0  0  0  0  0  0  0
  186.2360  175.6860  135.7520 P   0  0  2  0  0  0  0  0  0  0  0  0
  187.0670  175.6700  137.2260 O   0  0  0  0  0  1  0  0  0  0  0  0
  186.1360  177.2720  135.1570 O   0  0  0  0  0  0  0  0  0  0  0  0
  187.0600  178.0070  135.9020 C   0  0  0  0  0  1  0  0  0  0  0  0
  1  8  1  0  0  0  0
  3 11  1  0  0  0  0
  4  2  2  0  0  0  0
  5  7  1  0  0  0  0
  6 10  1  0  0  0  0
  7  1  2  0  0  0  0
  7 13  1  0  0  0  0
  9  6  1  0  0  0  0
  9  5  2  0  0  0  0
 10  2  1  0  0  0  0
 10  1  1  0  0  0  0
 11  8  1  6  0  0  0
 11 18  1  0  0  0  0
 12  6  2  0  0  0  0
 12  4  1  0  0  0  0
 13  3  2  0  0  0  0
 14 19  1  0  0  0  0
 15 14  1  0  0  0  0
 16 19  1  0  0  0  0
 17 16  1  0  0  0  0
 18 17  1  0  0  0  0
 18 15  1  0  0  0  0
 21 12  1  0  0  0  0
 22 20  2  0  0  0  0
 22 21  1  0  0  0  0
 23 22  1  0  0  0  0
 24 28  1  6  0  0  0
 24 27  1  0  0  0  0
 24 25  1  0  0  0  0
 25  5  1  0  0  0  0
 27 26  1  6  0  0  0
 27 25  1  0  0  0  0
 30 28  1  0  0  0  0
 30 29  1  6  0  0  0
 31 30  1  0  0  0  0
 33 31  1  0  0  0  0
 33 32  1  1  0  0  0
 35 34  2  6  0  0  0
 35 33  1  0  0  0  0
 35 36  1  0  0  0  0
 37 35  1  0  0  0  0
 37 38  1  0  0  0  0
M  END
>  <MODEL>
2

>  <REMARK>
 VINA RESULT:      -7.9      1.820      4.765
  Name = 
  9 active torsions:
  status: ('A' for Active; 'I' for Inactive)
    1  A    between atoms: C_2  and  C_18
    2  A    between atoms: C_2  and  C_23
    3  A    between atoms: N_7  and  C_36
    4  A    between atoms: O_8  and  P_16
    5  A    between atoms: CA_12  and  C_20
    6  A    between atoms: C_13  and  N_19
    7  A    between atoms: P_16  and  C_18
    8  A    between atoms: C_20  and  C_23
    9  A    between atoms: N_30  and  C_35
                            x       y       z     vdW  Elec       q    Type
                         _______ _______ _______ _____ _____    ______ ____

>  <TORSDO>
F 9

$$$$
=
 OpenBabel10232410333D

 38 42  0  0  1  0  0  0  0  0999 V2000
  185.9680  178.2990  143.2090 C   0  0  0  0  0  0  0  0  0  0  0  0
  186.1290  177.8470  145.5600 N   0  0  0  0  0  0  0  0  0  0  0  0
  184.6520  178.8660  140.7480 C   0  0  0  0  0  3  0  0  0  0  0  0
  187.1210  177.4270  146.3850 C   0  0  0  0  0  3  0  0  0  0  0  0
  188.0490  177.9610  141.9810 C   0  0  0  0  0  0  0  0  0  0  0  0
  187.9150  177.5570  144.3350 C   0  0  0  0  0  0  0  0  0  0  0  0
  186.6820  178.3280  141.9920 C   0  0  0  0  0  0  0  0  0  0  0  0
  184.5470  178.7890  143.2540 C   0  0  0  0  0  2  0  0  0  0  0  0
  188.6800  177.5640  143.1710 C   0  0  0  0  0  3  0  0  0  0  0  0
  186.6260  177.9180  144.3350 N   0  0  0  0  0  0  0  0  0  0  0  0
  183.8120  178.4530  141.9410 C   0  0  1  0  0  3  0  0  0  0  0  0
  188.2680  177.2350  145.6190 C   0  0  0  0  0  0  0  0  0  0  0  0
  185.9830  178.7580  140.7660 C   0  0  0  0  0  3  0  0  0  0  0  0
  180.4620  179.5950  143.2470 C   0  0  0  0  0  2  0  0  0  0  0  0
  181.8300  178.9000  143.2000 C   0  0  0  0  0  2  0  0  0  0  0  0
  180.2380  178.9470  140.8160 C   0  0  0  0  0  2  0  0  0  0  0  0
  181.6550  178.3580  140.9170 C   0  0  0  0  0  2  0  0  0  0  0  0
  182.4820  179.0780  141.8960 N   0  0  0  0  0  0  0  0  0  0  0  0
  179.9830  180.0340  141.8610 C   0  0  0  0  0  2  0  0  0  0  0  0
  189.5690  177.8940  148.1340 O   0  0  0  0  0  0  0  0  0  0  0  0
  189.5610  176.8040  146.0580 N   0  0  0  0  0  2  0  0  0  0  0  0
  190.1640  177.1520  147.3080 C   0  0  0  0  0  0  0  0  0  0  0  0
  191.5160  176.6310  147.6370 C   0  0  0  0  0  1  0  0  0  0  0  0
  188.9440  178.2700  139.3090 C   0  0  1  0  0  3  0  0  0  0  0  0
  188.8040  177.9890  140.7710 N   0  0  0  0  0  0  0  0  0  0  0  0
  190.1800  176.3400  139.7900 O   0  0  0  0  0  1  0  0  0  0  0  0
  190.0370  177.7200  139.9690 C   0  0  1  0  0  3  0  0  0  0  0  0
  188.0660  177.2920  138.5220 C   0  0  0  0  0  2  0  0  0  0  0  0
  187.7040  179.1410  137.0360 O   0  0  0  0  0  1  0  0  0  0  0  0
  187.0970  178.0130  137.5880 C   0  0  1  0  0  3  0  0  0  0  0  0
  186.5890  177.1030  136.4760 C   0  0  0  0  0  2  0  0  0  0  0  0
  187.1260  174.8110  136.0630 O   0  0  0  0  0  1  0  0  0  0  0  0
  186.4690  175.6640  136.9510 C   0  0  2  0  0  3  0  0  0  0  0  0
  184.5970  173.8500  137.7240 O   0  0  0  0  0  1  0  0  0  0  0  0
  184.7170  175.1970  137.0460 P   0  0  2  0  0  0  0  0  0  0  0  0
  184.0910  175.0960  135.4770 O   0  0  0  0  0  0  0  0  0  0  0  0
  183.8750  176.3730  137.9340 O   0  0  0  0  0  0  0  0  0  0  0  0
  182.9630  175.6640  138.7170 C   0  0  0  0  0  1  0  0  0  0  0  0
  1  8  1  0  0  0  0
  1 10  1  0  0  0  0
  2  4  2  0  0  0  0
  3 13  2  0  0  0  0
  5  7  1  0  0  0  0
  5  9  2  0  0  0  0
  6 12  2  0  0  0  0
  7  1  2  0  0  0  0
  9  6  1  0  0  0  0
 10  6  1  0  0  0  0
 10  2  1  0  0  0  0
 11  3  1  6  0  0  0
 11  8  1  0  0  0  0
 12 21  1  0  0  0  0
 12  4  1  0  0  0  0
 13  7  1  0  0  0  0
 15 14  1  0  0  0  0
 16 17  1  0  0  0  0
 16 19  1  0  0  0  0
 17 18  1  0  0  0  0
 18 11  1  0  0  0  0
 18 15  1  0  0  0  0
 19 14  1  0  0  0  0
 21 22  1  0  0  0  0
 22 23  1  0  0  0  0
 22 20  2  0  0  0  0
 24 28  1  6  0  0  0
 24 27  1  0  0  0  0
 24 25  1  0  0  0  0
 25  5  1  0  0  0  0
 27 26  1  6  0  0  0
 27 25  1  0  0  0  0
 30 29  1  6  0  0  0
 30 28  1  0  0  0  0
 31 33  1  0  0  0  0
 31 30  1  0  0  0  0
 33 32  1  6  0  0  0
 33 35  1  0  0  0  0
 35 36  2  6  0  0  0
 35 34  1  0  0  0  0
 35 37  1  0  0  0  0
 37 38  1  0  0  0  0
M  END
>  <MODEL>
3

>  <REMARK>
 VINA RESULT:      -7.9      2.614      6.362
  Name = 
  9 active torsions:
  status: ('A' for Active; 'I' for Inactive)
    1  A    between atoms: C_2  and  C_18
    2  A    between atoms: C_2  and  C_23
    3  A    between atoms: N_7  and  C_36
    4  A    between atoms: O_8  and  P_16
    5  A    between atoms: CA_12  and  C_20
    6  A    between atoms: C_13  and  N_19
    7  A    between atoms: P_16  and  C_18
    8  A    between atoms: C_20  and  C_23
    9  A    between atoms: N_30  and  C_35
                            x       y       z     vdW  Elec       q    Type
                         _______ _______ _______ _____ _____    ______ ____

>  <TORSDO>
F 9

$$$$
=
 OpenBabel10232410333D

 38 42  0  0  1  0  0  0  0  0999 V2000
  188.8410  177.7940  142.3860 C   0  0  0  0  0  0  0  0  0  0  0  0
  191.1840  177.3680  142.6860 N   0  0  0  0  0  0  0  0  0  0  0  0
  186.4890  178.5370  140.9650 C   0  0  0  0  0  3  0  0  0  0  0  0
  191.9830  177.1400  143.7600 C   0  0  0  0  0  3  0  0  0  0  0  0
  187.5550  177.8070  144.4600 C   0  0  0  0  0  0  0  0  0  0  0  0
  189.9180  177.4360  144.4660 C   0  0  0  0  0  0  0  0  0  0  0  0
  187.6040  177.9320  143.0510 C   0  0  0  0  0  0  0  0  0  0  0  0
  188.8910  177.8160  140.8840 C   0  0  0  0  0  2  0  0  0  0  0  0
  188.7310  177.5590  145.1850 C   0  0  0  0  0  3  0  0  0  0  0  0
  189.9500  177.5440  143.1320 N   0  0  0  0  0  0  0  0  0  0  0  0
  187.8370  178.7880  140.3170 C   0  0  1  0  0  3  0  0  0  0  0  0
  191.1910  177.1820  144.9040 C   0  0  0  0  0  0  0  0  0  0  0  0
  186.3910  178.1850  142.2500 C   0  0  0  0  0  3  0  0  0  0  0  0
  186.4490  177.6980  136.9830 C   0  0  0  0  0  2  0  0  0  0  0  0
  186.6440  177.7880  138.5040 C   0  0  0  0  0  2  0  0  0  0  0  0
  188.9600  177.9120  136.8180 C   0  0  0  0  0  2  0  0  0  0  0  0
  188.9760  178.0600  138.3480 C   0  0  0  0  0  2  0  0  0  0  0  0
  187.7490  178.6910  138.8530 N   0  0  0  0  0  0  0  0  0  0  0  0
  187.6160  178.3130  136.2080 C   0  0  0  0  0  2  0  0  0  0  0  0
  192.3570  174.7830  146.0610 O   0  0  0  0  0  0  0  0  0  0  0  0
  191.5950  176.9910  146.2640 N   0  0  0  0  0  2  0  0  0  0  0  0
  192.1680  175.7900  146.7920 C   0  0  0  0  0  0  0  0  0  0  0  0
  192.5440  175.7310  148.2280 C   0  0  0  0  0  1  0  0  0  0  0  0
  184.8250  177.9440  145.2110 C   0  0  1  0  0  3  0  0  0  0  0  0
  186.3200  177.9300  145.1620 N   0  0  0  0  0  0  0  0  0  0  0  0
  185.6070  179.5450  146.7300 O   0  0  0  0  0  1  0  0  0  0  0  0
  185.5130  178.1910  146.3940 C   0  0  1  0  0  3  0  0  0  0  0  0
  184.3080  179.1750  144.4600 C   0  0  0  0  0  2  0  0  0  0  0  0
  182.1950  180.0380  143.7190 O   0  0  0  0  0  1  0  0  0  0  0  0
  182.9950  178.8950  143.7320 C   0  0  1  0  0  3  0  0  0  0  0  0
  183.2220  178.4060  142.3070 C   0  0  0  0  0  2  0  0  0  0  0  0
  180.9830  178.0420  141.5520 O   0  0  0  0  0  1  0  0  0  0  0  0
  182.1030  178.8590  141.3830 C   0  0  2  0  0  3  0  0  0  0  0  0
  183.2490  177.3940  139.4010 O   0  0  0  0  0  1  0  0  0  0  0  0
  182.6600  178.7630  139.6580 P   0  0  2  0  0  0  0  0  0  0  0  0
  183.8450  179.9440  139.3980 O   0  0  0  0  0  0  0  0  0  0  0  0
  181.3370  179.0300  138.6300 O   0  0  0  0  0  0  0  0  0  0  0  0
  181.7940  178.7210  137.3480 C   0  0  0  0  0  1  0  0  0  0  0  0
  1  7  2  0  0  0  0
  1 10  1  0  0  0  0
  2 10  1  0  0  0  0
  2  4  2  0  0  0  0
  3 13  2  0  0  0  0
  4 12  1  0  0  0  0
  5 25  1  0  0  0  0
  5  9  2  0  0  0  0
  6 12  2  0  0  0  0
  6  9  1  0  0  0  0
  7  5  1  0  0  0  0
  8  1  1  0  0  0  0
 10  6  1  0  0  0  0
 11 18  1  6  0  0  0
 11  8  1  0  0  0  0
 11  3  1  0  0  0  0
 12 21  1  0  0  0  0
 13  7  1  0  0  0  0
 14 15  1  0  0  0  0
 15 18  1  0  0  0  0
 16 17  1  0  0  0  0
 17 18  1  0  0  0  0
 19 16  1  0  0  0  0
 19 14  1  0  0  0  0
 20 22  2  0  0  0  0
 21 22  1  0  0  0  0
 22 23  1  0  0  0  0
 24 28  1  6  0  0  0
 24 27  1  0  0  0  0
 25 24  1  0  0  0  0
 25 27  1  0  0  0  0
 27 26  1  6  0  0  0
 30 29  1  6  0  0  0
 30 28  1  0  0  0  0
 31 30  1  0  0  0  0
 33 32  1  6  0  0  0
 33 31  1  0  0  0  0
 34 35  1  0  0  0  0
 35 36  2  6  0  0  0
 35 33  1  0  0  0  0
 37 35  1  0  0  0  0
 38 37  1  0  0  0  0
M  END
>  <MODEL>
4

>  <REMARK>
 VINA RESULT:      -7.8      3.116      8.095
  Name = 
  9 active torsions:
  status: ('A' for Active; 'I' for Inactive)
    1  A    between atoms: C_2  and  C_18
    2  A    between atoms: C_2  and  C_23
    3  A    between atoms: N_7  and  C_36
    4  A    between atoms: O_8  and  P_16
    5  A    between atoms: CA_12  and  C_20
    6  A    between atoms: C_13  and  N_19
    7  A    between atoms: P_16  and  C_18
    8  A    between atoms: C_20  and  C_23
    9  A    between atoms: N_30  and  C_35
                            x       y       z     vdW  Elec       q    Type
                         _______ _______ _______ _____ _____    ______ ____

>  <TORSDO>
F 9

$$$$
=
 OpenBabel10232410333D

 38 42  0  0  1  0  0  0  0  0999 V2000
  188.1330  177.8260  142.2180 C   0  0  0  0  0  0  0  0  0  0  0  0
  190.3080  177.3210  141.3400 N   0  0  0  0  0  0  0  0  0  0  0  0
  186.0910  177.9750  144.1970 C   0  0  0  0  0  3  0  0  0  0  0  0
  190.8500  177.2840  140.0960 C   0  0  0  0  0  3  0  0  0  0  0  0
  186.4880  178.4400  140.5220 C   0  0  0  0  0  0  0  0  0  0  0  0
  188.7310  177.8600  139.9260 C   0  0  0  0  0  0  0  0  0  0  0  0
  186.8200  178.2220  141.8810 C   0  0  0  0  0  0  0  0  0  0  0  0
  188.5270  177.6950  143.6630 C   0  0  0  0  0  2  0  0  0  0  0  0
  187.4570  178.2530  139.5230 C   0  0  0  0  0  3  0  0  0  0  0  0
  189.0360  177.6680  141.2150 N   0  0  0  0  0  0  0  0  0  0  0  0
  187.3450  177.1790  144.5070 C   0  0  1  0  0  3  0  0  0  0  0  0
  189.8560  177.6240  139.1810 C   0  0  0  0  0  0  0  0  0  0  0  0
  185.8350  178.4140  142.9620 C   0  0  0  0  0  3  0  0  0  0  0  0
  187.1840  178.4120  148.0690 C   0  0  0  0  0  2  0  0  0  0  0  0
  186.9610  178.3580  146.5500 C   0  0  0  0  0  2  0  0  0  0  0  0
  189.5010  177.5290  147.5900 C   0  0  0  0  0  2  0  0  0  0  0  0
  189.0940  177.4670  146.1090 C   0  0  0  0  0  2  0  0  0  0  0  0
  187.6560  177.2150  145.9440 N   0  0  0  0  0  0  0  0  0  0  0  0
  188.2960  177.4660  148.5290 C   0  0  0  0  0  2  0  0  0  0  0  0
  189.1100  175.6070  137.2250 O   0  0  0  0  0  0  0  0  0  0  0  0
  189.9650  177.7240  137.7570 N   0  0  0  0  0  2  0  0  0  0  0  0
  189.5840  176.7040  136.8280 C   0  0  0  0  0  0  0  0  0  0  0  0
  189.7510  176.9440  135.3720 C   0  0  0  0  0  1  0  0  0  0  0  0
  183.7050  178.9590  140.3960 C   0  0  1  0  0  3  0  0  0  0  0  0
  185.1750  178.8510  140.1470 N   0  0  0  0  0  0  0  0  0  0  0  0
  184.0200  178.5980  138.1040 O   0  0  0  0  0  1  0  0  0  0  0  0
  184.1950  179.4570  139.1940 C   0  0  1  0  0  3  0  0  0  0  0  0
  183.0820  177.5600  140.3440 C   0  0  0  0  0  2  0  0  0  0  0  0
  181.1420  178.7850  141.0470 O   0  0  0  0  0  1  0  0  0  0  0  0
  181.5580  177.6050  140.4300 C   0  0  1  0  0  3  0  0  0  0  0  0
  180.9020  177.4790  139.0610 C   0  0  0  0  0  2  0  0  0  0  0  0
  180.6190  175.2660  139.9200 O   0  0  0  0  0  1  0  0  0  0  0  0
  180.5250  176.0370  138.7600 C   0  0  2  0  0  3  0  0  0  0  0  0
  181.9680  176.4440  136.4920 O   0  0  0  0  0  0  0  0  0  0  0  0
  181.6470  175.3640  137.5010 P   0  0  2  0  0  0  0  0  0  0  0  0
  180.8830  174.0720  136.7200 O   0  0  0  0  0  1  0  0  0  0  0  0
  183.0710  174.8290  138.2540 O   0  0  0  0  0  0  0  0  0  0  0  0
  184.0990  175.1250  137.3570 C   0  0  0  0  0  1  0  0  0  0  0  0
  1  8  1  0  0  0  0
  3 11  1  0  0  0  0
  4  2  2  0  0  0  0
  5  7  1  0  0  0  0
  6 10  1  0  0  0  0
  7  1  2  0  0  0  0
  7 13  1  0  0  0  0
  9  6  1  0  0  0  0
  9  5  2  0  0  0  0
 10  2  1  0  0  0  0
 10  1  1  0  0  0  0
 11  8  1  6  0  0  0
 11 18  1  0  0  0  0
 12  6  2  0  0  0  0
 12  4  1  0  0  0  0
 13  3  2  0  0  0  0
 14 19  1  0  0  0  0
 15 14  1  0  0  0  0
 16 19  1  0  0  0  0
 17 16  1  0  0  0  0
 18 17  1  0  0  0  0
 18 15  1  0  0  0  0
 21 12  1  0  0  0  0
 22 20  2  0  0  0  0
 22 21  1  0  0  0  0
 23 22  1  0  0  0  0
 24 28  1  6  0  0  0
 25 24  1  0  0  0  0
 25  5  1  0  0  0  0
 27 26  1  6  0  0  0
 27 25  1  0  0  0  0
 27 24  1  0  0  0  0
 28 30  1  0  0  0  0
 30 29  1  6  0  0  0
 31 30  1  0  0  0  0
 33 31  1  0  0  0  0
 33 32  1  1  0  0  0
 35 34  2  6  0  0  0
 35 37  1  0  0  0  0
 35 33  1  0  0  0  0
 36 35  1  0  0  0  0
 38 37  1  0  0  0  0
M  END
>  <MODEL>
5

>  <REMARK>
 VINA RESULT:      -7.8      2.124      5.218
  Name = 
  9 active torsions:
  status: ('A' for Active; 'I' for Inactive)
    1  A    between atoms: C_2  and  C_18
    2  A    between atoms: C_2  and  C_23
    3  A    between atoms: N_7  and  C_36
    4  A    between atoms: O_8  and  P_16
    5  A    between atoms: CA_12  and  C_20
    6  A    between atoms: C_13  and  N_19
    7  A    between atoms: P_16  and  C_18
    8  A    between atoms: C_20  and  C_23
    9  A    between atoms: N_30  and  C_35
                            x       y       z     vdW  Elec       q    Type
                         _______ _______ _______ _____ _____    ______ ____

>  <TORSDO>
F 9

$$$$
=
 OpenBabel10232410333D

 38 42  0  0  1  0  0  0  0  0999 V2000
  189.2700  177.9160  141.3980 C   0  0  0  0  0  0  0  0  0  0  0  0
  191.5640  177.3600  141.8300 N   0  0  0  0  0  0  0  0  0  0  0  0
  186.5420  178.4120  142.0470 C   0  0  0  0  0  3  0  0  0  0  0  0
  192.6340  177.0510  141.0530 C   0  0  0  0  0  3  0  0  0  0  0  0
  188.6840  177.9740  139.0300 C   0  0  0  0  0  0  0  0  0  0  0  0
  190.8970  177.4200  139.7490 C   0  0  0  0  0  0  0  0  0  0  0  0
  188.3080  178.1240  140.3860 C   0  0  0  0  0  0  0  0  0  0  0  0
  188.9130  178.1770  142.8350 C   0  0  0  0  0  2  0  0  0  0  0  0
  190.0010  177.6110  138.7010 C   0  0  0  0  0  3  0  0  0  0  0  0
  190.5330  177.5760  141.0280 N   0  0  0  0  0  0  0  0  0  0  0  0
  187.4410  177.8070  143.1080 C   0  0  1  0  0  3  0  0  0  0  0  0
  192.2250  177.0830  139.7220 C   0  0  0  0  0  0  0  0  0  0  0  0
  186.9390  178.5110  140.7750 C   0  0  0  0  0  3  0  0  0  0  0  0
  187.2680  177.7100  146.8750 C   0  0  0  0  0  2  0  0  0  0  0  0
  187.6030  177.2920  145.4360 C   0  0  0  0  0  2  0  0  0  0  0  0
  185.0490  178.4870  145.9530 C   0  0  0  0  0  2  0  0  0  0  0  0
  185.5660  178.0810  144.5630 C   0  0  0  0  0  2  0  0  0  0  0  0
  187.0250  178.2210  144.4560 N   0  0  0  0  0  0  0  0  0  0  0  0
  186.1850  178.7900  146.9310 C   0  0  0  0  0  2  0  0  0  0  0  0
  192.1710  174.7000  138.0580 O   0  0  0  0  0  0  0  0  0  0  0  0
  193.0110  176.8330  138.5520 N   0  0  0  0  0  2  0  0  0  0  0  0
  192.9510  175.6430  137.7600 C   0  0  0  0  0  0  0  0  0  0  0  0
  193.8260  175.5170  136.5650 C   0  0  0  0  0  1  0  0  0  0  0  0
  186.3580  178.1180  137.4170 C   0  0  1  0  0  3  0  0  0  0  0  0
  187.7410  178.1870  137.9820 N   0  0  0  0  0  0  0  0  0  0  0  0
  187.8650  177.6590  135.6840 O   0  0  0  0  0  1  0  0  0  0  0  0
  187.3700  178.6000  136.5930 C   0  0  1  0  0  3  0  0  0  0  0  0
  185.9670  176.6500  137.2200 C   0  0  0  0  0  2  0  0  0  0  0  0
  184.0030  175.2920  137.4600 O   0  0  0  0  0  1  0  0  0  0  0  0
  184.4790  176.4860  136.9190 C   0  0  1  0  0  3  0  0  0  0  0  0
  183.6560  177.6570  137.4420 C   0  0  0  0  0  2  0  0  0  0  0  0
  181.9830  176.7440  138.8850 O   0  0  0  0  0  1  0  0  0  0  0  0
  183.2050  177.4170  138.8740 C   0  0  2  0  0  3  0  0  0  0  0  0
  181.6810  179.6140  139.3690 O   0  0  0  0  0  1  0  0  0  0  0  0
  183.0200  179.0090  139.7290 P   0  0  2  0  0  0  0  0  0  0  0  0
  184.2600  180.0470  139.2300 O   0  0  0  0  0  0  0  0  0  0  0  0
  183.1120  178.7540  141.4030 O   0  0  0  0  0  0  0  0  0  0  0  0
  181.7930  178.7900  141.8580 C   0  0  0  0  0  1  0  0  0  0  0  0
  1  8  1  0  0  0  0
  4  2  2  0  0  0  0
  5  7  1  0  0  0  0
  6 10  1  0  0  0  0
  7 13  1  0  0  0  0
  7  1  2  0  0  0  0
  8 11  1  0  0  0  0
  9  5  2  0  0  0  0
  9  6  1  0  0  0  0
 10  1  1  0  0  0  0
 10  2  1  0  0  0  0
 11  3  1  6  0  0  0
 11 18  1  0  0  0  0
 12  6  2  0  0  0  0
 12  4  1  0  0  0  0
 13  3  2  0  0  0  0
 14 19  1  0  0  0  0
 15 14  1  0  0  0  0
 16 19  1  0  0  0  0
 17 16  1  0  0  0  0
 18 17  1  0  0  0  0
 18 15  1  0  0  0  0
 21 12  1  0  0  0  0
 22 20  2  0  0  0  0
 22 21  1  0  0  0  0
 23 22  1  0  0  0  0
 24 28  1  6  0  0  0
 24 25  1  0  0  0  0
 25  5  1  0  0  0  0
 27 26  1  6  0  0  0
 27 24  1  0  0  0  0
 27 25  1  0  0  0  0
 30 28  1  0  0  0  0
 30 31  1  0  0  0  0
 30 29  1  1  0  0  0
 31 33  1  0  0  0  0
 33 32  1  6  0  0  0
 33 35  1  0  0  0  0
 34 35  1  0  0  0  0
 35 36  2  6  0  0  0
 35 37  1  0  0  0  0
 37 38  1  0  0  0  0
M  END
>  <MODEL>
6

>  <REMARK>
 VINA RESULT:      -7.6      2.527      5.666
  Name = 
  9 active torsions:
  status: ('A' for Active; 'I' for Inactive)
    1  A    between atoms: C_2  and  C_18
    2  A    between atoms: C_2  and  C_23
    3  A    between atoms: N_7  and  C_36
    4  A    between atoms: O_8  and  P_16
    5  A    between atoms: CA_12  and  C_20
    6  A    between atoms: C_13  and  N_19
    7  A    between atoms: P_16  and  C_18
    8  A    between atoms: C_20  and  C_23
    9  A    between atoms: N_30  and  C_35
                            x       y       z     vdW  Elec       q    Type
                         _______ _______ _______ _____ _____    ______ ____

>  <TORSDO>
F 9

$$$$
=
 OpenBabel10232410333D

 38 42  0  0  1  0  0  0  0  0999 V2000
  191.6490  176.5710  138.7620 C   0  0  0  0  0  0  0  0  0  0  0  0
  192.0490  177.2900  141.0160 N   0  0  0  0  0  0  0  0  0  0  0  0
  192.3380  175.8660  136.0900 C   0  0  0  0  0  3  0  0  0  0  0  0
  191.2580  177.6860  142.0460 C   0  0  0  0  0  3  0  0  0  0  0  0
  189.2910  176.4970  138.1400 C   0  0  0  0  0  0  0  0  0  0  0  0
  189.9790  177.2050  140.3180 C   0  0  0  0  0  0  0  0  0  0  0  0
  190.6510  176.3030  137.8000 C   0  0  0  0  0  0  0  0  0  0  0  0
  193.0880  176.2680  138.4510 C   0  0  0  0  0  2  0  0  0  0  0  0
  188.9440  176.9600  139.4200 C   0  0  0  0  0  3  0  0  0  0  0  0
  191.2620  177.0070  139.9890 N   0  0  0  0  0  0  0  0  0  0  0  0
  193.3910  176.5240  136.9610 C   0  0  1  0  0  3  0  0  0  0  0  0
  189.9340  177.6390  141.6170 C   0  0  0  0  0  0  0  0  0  0  0  0
  191.0580  175.8120  136.4700 C   0  0  0  0  0  3  0  0  0  0  0  0
  196.5770  176.3370  134.9500 C   0  0  0  0  0  2  0  0  0  0  0  0
  195.1430  176.7160  135.3470 C   0  0  0  0  0  2  0  0  0  0  0  0
  196.0670  174.0650  135.9270 C   0  0  0  0  0  2  0  0  0  0  0  0
  194.6900  174.6230  136.3220 C   0  0  0  0  0  2  0  0  0  0  0  0
  194.7400  176.0650  136.6010 N   0  0  0  0  0  0  0  0  0  0  0  0
  197.1190  175.1640  135.7700 C   0  0  0  0  0  2  0  0  0  0  0  0
  188.2350  175.7920  143.0840 O   0  0  0  0  0  0  0  0  0  0  0  0
  188.7540  177.9610  142.3610 N   0  0  0  0  0  2  0  0  0  0  0  0
  187.9460  177.0180  143.0710 C   0  0  0  0  0  0  0  0  0  0  0  0
  186.7440  177.4930  143.8050 C   0  0  0  0  0  1  0  0  0  0  0  0
  187.0580  176.6320  136.4000 C   0  0  1  0  0  3  0  0  0  0  0  0
  188.2560  176.2260  137.1960 N   0  0  0  0  0  0  0  0  0  0  0  0
  186.7690  174.3990  137.0410 O   0  0  0  0  0  1  0  0  0  0  0  0
  187.4980  175.3190  136.2810 C   0  0  1  0  0  3  0  0  0  0  0  0
  185.8780  176.8670  137.3490 C   0  0  0  0  0  2  0  0  0  0  0  0
  186.7260  179.1120  137.3440 O   0  0  0  0  0  1  0  0  0  0  0  0
  185.9980  178.1920  138.0990 C   0  0  1  0  0  3  0  0  0  0  0  0
  184.6360  178.7760  138.4520 C   0  0  0  0  0  2  0  0  0  0  0  0
  185.7750  178.8710  140.5510 O   0  0  0  0  0  1  0  0  0  0  0  0
  184.5660  179.1670  139.9190 C   0  0  2  0  0  3  0  0  0  0  0  0
  183.5710  178.0540  142.1910 O   0  0  0  0  0  1  0  0  0  0  0  0
  183.2260  178.2500  140.7310 P   0  0  2  0  0  0  0  0  0  0  0  0
  183.0620  176.7410  139.9830 O   0  0  0  0  0  0  0  0  0  0  0  0
  181.7830  179.1310  140.5870 O   0  0  0  0  0  0  0  0  0  0  0  0
  181.2130  179.1220  141.8610 C   0  0  0  0  0  1  0  0  0  0  0  0
  1 10  1  0  0  0  0
  2  4  2  0  0  0  0
  3 13  2  0  0  0  0
  5  9  2  0  0  0  0
  6 12  2  0  0  0  0
  7  5  1  0  0  0  0
  7  1  2  0  0  0  0
  8  1  1  0  0  0  0
  9  6  1  0  0  0  0
 10  6  1  0  0  0  0
 10  2  1  0  0  0  0
 11  3  1  6  0  0  0
 11  8  1  0  0  0  0
 12  4  1  0  0  0  0
 12 21  1  0  0  0  0
 13  7  1  0  0  0  0
 14 15  1  0  0  0  0
 14 19  1  0  0  0  0
 15 18  1  0  0  0  0
 16 17  1  0  0  0  0
 17 18  1  0  0  0  0
 18 11  1  0  0  0  0
 19 16  1  0  0  0  0
 21 22  1  0  0  0  0
 22 20  2  0  0  0  0
 22 23  1  0  0  0  0
 24 25  1  0  0  0  0
 24 28  1  1  0  0  0
 25  5  1  0  0  0  0
 27 24  1  0  0  0  0
 27 26  1  1  0  0  0
 27 25  1  0  0  0  0
 28 30  1  0  0  0  0
 30 29  1  6  0  0  0
 30 31  1  0  0  0  0
 31 33  1  0  0  0  0
 33 32  1  1  0  0  0
 33 35  1  0  0  0  0
 35 36  2  6  0  0  0
 35 34  1  0  0  0  0
 37 35  1  0  0  0  0
 37 38  1  0  0  0  0
M  END
>  <MODEL>
7

>  <REMARK>
 VINA RESULT:      -7.3      3.270      6.821
  Name = 
  9 active torsions:
  status: ('A' for Active; 'I' for Inactive)
    1  A    between atoms: C_2  and  C_18
    2  A    between atoms: C_2  and  C_23
    3  A    between atoms: N_7  and  C_36
    4  A    between atoms: O_8  and  P_16
    5  A    between atoms: CA_12  and  C_20
    6  A    between atoms: C_13  and  N_19
    7  A    between atoms: P_16  and  C_18
    8  A    between atoms: C_20  and  C_23
    9  A    between atoms: N_30  and  C_35
                            x       y       z     vdW  Elec       q    Type
                         _______ _______ _______ _____ _____    ______ ____

>  <TORSDO>
F 9

$$$$
=
 OpenBabel10232410333D

 38 42  0  0  1  0  0  0  0  0999 V2000
  189.9160  177.6630  141.5870 C   0  0  0  0  0  0  0  0  0  0  0  0
  192.2980  177.3680  141.5520 N   0  0  0  0  0  0  0  0  0  0  0  0
  187.3350  177.8870  142.7680 C   0  0  0  0  0  3  0  0  0  0  0  0
  193.2180  177.1510  140.5790 C   0  0  0  0  0  3  0  0  0  0  0  0
  188.8680  177.5850  139.3850 C   0  0  0  0  0  0  0  0  0  0  0  0
  191.2270  177.2920  139.6480 C   0  0  0  0  0  0  0  0  0  0  0  0
  188.7550  177.7370  140.7880 C   0  0  0  0  0  0  0  0  0  0  0  0
  189.8260  177.9290  143.0640 C   0  0  0  0  0  2  0  0  0  0  0  0
  190.1240  177.3550  138.8010 C   0  0  0  0  0  3  0  0  0  0  0  0
  191.1100  177.4490  140.9730 N   0  0  0  0  0  0  0  0  0  0  0  0
  188.4890  177.4140  143.6310 C   0  0  1  0  0  3  0  0  0  0  0  0
  192.5510  177.0980  139.3570 C   0  0  0  0  0  0  0  0  0  0  0  0
  187.4560  177.9880  141.4410 C   0  0  0  0  0  3  0  0  0  0  0  0
  189.0000  177.3400  147.3680 C   0  0  0  0  0  2  0  0  0  0  0  0
  189.0860  176.9230  145.8920 C   0  0  0  0  0  2  0  0  0  0  0  0
  186.6240  178.0280  146.8600 C   0  0  0  0  0  2  0  0  0  0  0  0
  186.8970  177.6310  145.4000 C   0  0  0  0  0  2  0  0  0  0  0  0
  188.3070  177.8220  145.0320 N   0  0  0  0  0  0  0  0  0  0  0  0
  187.9050  178.3790  147.6170 C   0  0  0  0  0  2  0  0  0  0  0  0
  192.4190  174.6760  137.7540 O   0  0  0  0  0  0  0  0  0  0  0  0
  193.1110  176.8960  138.0550 N   0  0  0  0  0  2  0  0  0  0  0  0
  193.0210  175.6840  137.2990 C   0  0  0  0  0  0  0  0  0  0  0  0
  193.6490  175.6150  135.9540 C   0  0  0  0  0  1  0  0  0  0  0  0
  186.7350  177.0630  137.5930 C   0  0  1  0  0  3  0  0  0  0  0  0
  187.7170  177.6650  138.5470 N   0  0  0  0  0  0  0  0  0  0  0  0
  187.1100  179.2780  136.9330 O   0  0  0  0  0  1  0  0  0  0  0  0
  186.5930  178.4110  137.9010 C   0  0  1  0  0  3  0  0  0  0  0  0
  187.4460  176.7420  136.2740 C   0  0  0  0  0  2  0  0  0  0  0  0
  189.0890  175.0130  136.5450 O   0  0  0  0  0  1  0  0  0  0  0  0
  187.7750  175.2560  136.1450 C   0  0  1  0  0  3  0  0  0  0  0  0
  186.8190  174.3850  136.9520 C   0  0  0  0  0  2  0  0  0  0  0  0
  185.9620  174.0120  134.7520 O   0  0  0  0  0  1  0  0  0  0  0  0
  185.9900  173.4890  136.0460 C   0  0  2  0  0  3  0  0  0  0  0  0
  184.0980  172.0330  137.3470 O   0  0  0  0  0  1  0  0  0  0  0  0
  184.2940  173.3790  136.6840 P   0  0  2  0  0  0  0  0  0  0  0  0
  183.2110  173.5340  135.3930 O   0  0  0  0  0  0  0  0  0  0  0  0
  184.0410  174.6240  137.8090 O   0  0  0  0  0  0  0  0  0  0  0  0
  183.3010  175.5930  137.1300 C   0  0  0  0  0  1  0  0  0  0  0  0
  1  8  1  0  0  0  0
  4  2  2  0  0  0  0
  5  7  1  0  0  0  0
  6 10  1  0  0  0  0
  7 13  1  0  0  0  0
  7  1  2  0  0  0  0
  8 11  1  0  0  0  0
  9  5  2  0  0  0  0
  9  6  1  0  0  0  0
 10  2  1  0  0  0  0
 10  1  1  0  0  0  0
 11  3  1  6  0  0  0
 11 18  1  0  0  0  0
 12  6  2  0  0  0  0
 12  4  1  0  0  0  0
 13  3  2  0  0  0  0
 14 19  1  0  0  0  0
 15 14  1  0  0  0  0
 16 19  1  0  0  0  0
 17 16  1  0  0  0  0
 18 17  1  0  0  0  0
 18 15  1  0  0  0  0
 21 12  1  0  0  0  0
 22 20  2  0  0  0  0
 22 21  1  0  0  0  0
 23 22  1  0  0  0  0
 24 28  1  6  0  0  0
 24 27  1  0  0  0  0
 24 25  1  0  0  0  0
 25  5  1  0  0  0  0
 27 26  1  6  0  0  0
 27 25  1  0  0  0  0
 30 28  1  0  0  0  0
 30 29  1  1  0  0  0
 30 31  1  0  0  0  0
 33 32  1  6  0  0  0
 33 35  1  0  0  0  0
 33 31  1  0  0  0  0
 35 36  2  6  0  0  0
 35 34  1  0  0  0  0
 35 37  1  0  0  0  0
 38 37  1  0  0  0  0
M  END
>  <MODEL>
8

>  <REMARK>
 VINA RESULT:      -7.2      2.028      4.680
  Name = 
  9 active torsions:
  status: ('A' for Active; 'I' for Inactive)
    1  A    between atoms: C_2  and  C_18
    2  A    between atoms: C_2  and  C_23
    3  A    between atoms: N_7  and  C_36
    4  A    between atoms: O_8  and  P_16
    5  A    between atoms: CA_12  and  C_20
    6  A    between atoms: C_13  and  N_19
    7  A    between atoms: P_16  and  C_18
    8  A    between atoms: C_20  and  C_23
    9  A    between atoms: N_30  and  C_35
                            x       y       z     vdW  Elec       q    Type
                         _______ _______ _______ _____ _____    ______ ____

>  <TORSDO>
F 9

$$$$
=
 OpenBabel10232410333D

 38 42  0  0  1  0  0  0  0  0999 V2000
  190.6710  174.2520  136.6360 C   0  0  0  0  0  0  0  0  0  0  0  0
  189.4030  172.5330  135.5430 N   0  0  0  0  0  0  0  0  0  0  0  0
  192.9910  175.4720  137.7490 C   0  0  0  0  0  3  0  0  0  0  0  0
  188.0810  172.3100  135.3310 C   0  0  0  0  0  3  0  0  0  0  0  0
  189.3130  176.0460  137.5820 C   0  0  0  0  0  0  0  0  0  0  0  0
  188.3090  174.1880  136.4590 C   0  0  0  0  0  0  0  0  0  0  0  0
  190.5850  175.4760  137.3350 C   0  0  0  0  0  0  0  0  0  0  0  0
  192.0170  173.6900  136.2750 C   0  0  0  0  0  2  0  0  0  0  0  0
  188.1510  175.3920  137.1410 C   0  0  0  0  0  3  0  0  0  0  0  0
  189.5180  173.6640  136.2220 N   0  0  0  0  0  0  0  0  0  0  0  0
  193.0530  174.0040  137.3720 C   0  0  1  0  0  3  0  0  0  0  0  0
  187.3680  173.3570  135.9110 C   0  0  0  0  0  0  0  0  0  0  0  0
  191.8300  176.1330  137.7750 C   0  0  0  0  0  3  0  0  0  0  0  0
  196.4670  172.4270  137.6760 C   0  0  0  0  0  2  0  0  0  0  0  0
  195.0670  172.9230  138.0690 C   0  0  0  0  0  2  0  0  0  0  0  0
  196.6320  174.5220  136.2770 C   0  0  0  0  0  2  0  0  0  0  0  0
  195.1910  174.8390  136.7100 C   0  0  0  0  0  2  0  0  0  0  0  0
  194.4100  173.6200  136.9560 N   0  0  0  0  0  0  0  0  0  0  0  0
  196.9480  173.0280  136.3540 C   0  0  0  0  0  2  0  0  0  0  0  0
  185.5600  172.7880  138.1160 O   0  0  0  0  0  0  0  0  0  0  0  0
  185.9500  173.5520  135.9340 N   0  0  0  0  0  2  0  0  0  0  0  0
  185.0960  173.2590  137.0440 C   0  0  0  0  0  0  0  0  0  0  0  0
  183.6370  173.5140  136.9290 C   0  0  0  0  0  1  0  0  0  0  0  0
  189.6150  178.2550  139.3320 C   0  0  1  0  0  3  0  0  0  0  0  0
  189.1900  177.2860  138.2750 N   0  0  0  0  0  0  0  0  0  0  0  0
  187.2820  178.3600  139.1590 O   0  0  0  0  0  1  0  0  0  0  0  0
  188.5190  178.5950  138.5480 C   0  0  1  0  0  3  0  0  0  0  0  0
  189.3040  177.6640  140.7110 C   0  0  0  0  0  2  0  0  0  0  0  0
  191.6350  177.3920  141.2110 O   0  0  0  0  0  1  0  0  0  0  0  0
  190.4080  176.7280  141.1990 C   0  0  1  0  0  3  0  0  0  0  0  0
  190.1120  176.1620  142.5820 C   0  0  0  0  0  2  0  0  0  0  0  0
  191.7310  175.1090  143.9900 O   0  0  0  0  0  1  0  0  0  0  0  0
  191.2930  176.3490  143.5200 C   0  0  2  0  0  3  0  0  0  0  0  0
  189.4500  176.9190  145.4350 O   0  0  0  0  0  1  0  0  0  0  0  0
  190.7980  177.3820  144.9270 P   0  0  2  0  0  0  0  0  0  0  0  0
  190.6840  178.9910  144.4130 O   0  0  0  0  0  0  0  0  0  0  0  0
  191.9610  177.2450  146.1550 O   0  0  0  0  0  0  0  0  0  0  0  0
  191.3350  176.5380  147.1830 C   0  0  0  0  0  1  0  0  0  0  0  0
  1  7  2  0  0  0  0
  2 10  1  0  0  0  0
  3 13  2  0  0  0  0
  4  2  2  0  0  0  0
  4 12  1  0  0  0  0
  5 25  1  0  0  0  0
  6  9  1  0  0  0  0
  7  5  1  0  0  0  0
  7 13  1  0  0  0  0
  8  1  1  0  0  0  0
  9  5  2  0  0  0  0
 10  6  1  0  0  0  0
 10  1  1  0  0  0  0
 11  8  1  6  0  0  0
 11  3  1  0  0  0  0
 12 21  1  0  0  0  0
 12  6  2  0  0  0  0
 14 15  1  0  0  0  0
 16 19  1  0  0  0  0
 16 17  1  0  0  0  0
 17 18  1  0  0  0  0
 18 11  1  0  0  0  0
 18 15  1  0  0  0  0
 19 14  1  0  0  0  0
 21 22  1  0  0  0  0
 22 20  2  0  0  0  0
 23 22  1  0  0  0  0
 24 28  1  1  0  0  0
 25 27  1  0  0  0  0
 25 24  1  0  0  0  0
 27 26  1  1  0  0  0
 27 24  1  0  0  0  0
 28 30  1  0  0  0  0
 30 29  1  1  0  0  0
 30 31  1  0  0  0  0
 31 33  1  0  0  0  0
 33 32  1  1  0  0  0
 33 35  1  0  0  0  0
 35 36  2  6  0  0  0
 35 34  1  0  0  0  0
 35 37  1  0  0  0  0
 37 38  1  0  0  0  0
M  END
>  <MODEL>
9

>  <REMARK>
 VINA RESULT:      -7.1      4.430      8.238
  Name = 
  9 active torsions:
  status: ('A' for Active; 'I' for Inactive)
    1  A    between atoms: C_2  and  C_18
    2  A    between atoms: C_2  and  C_23
    3  A    between atoms: N_7  and  C_36
    4  A    between atoms: O_8  and  P_16
    5  A    between atoms: CA_12  and  C_20
    6  A    between atoms: C_13  and  N_19
    7  A    between atoms: P_16  and  C_18
    8  A    between atoms: C_20  and  C_23
    9  A    between atoms: N_30  and  C_35
                            x       y       z     vdW  Elec       q    Type
                         _______ _______ _______ _____ _____    ______ ____

>  <TORSDO>
F 9

$$$$
