=
 OpenBabel10232410233D

 68 72  0  0  1  0  0  0  0  0999 V2000
  185.6630  177.9410  138.3450 C   0  0  2  0  0  3  0  0  0  0  0  0
  187.3270  178.7620  136.6240 C   0  0  0  0  0  3  0  0  0  0  0  0
  188.6410  178.9080  136.1660 C   0  0  0  0  0  3  0  0  0  0  0  0
  188.1410  177.6450  138.6130 C   0  0  0  0  0  3  0  0  0  0  0  0
  189.4550  177.7840  138.1500 C   0  0  0  0  0  3  0  0  0  0  0  0
  189.7050  178.4100  136.9240 C   0  0  0  0  0  3  0  0  0  0  0  0
  187.0710  178.1180  137.8470 C   0  0  0  0  0  0  0  0  0  0  0  0
  184.7230  177.0210  137.5940 C   0  0  0  0  0  0  0  0  0  0  0  0
  182.8470  175.5870  136.1450 C   0  0  0  0  0  3  0  0  0  0  0  0
  183.5190  177.5470  137.2470 N   0  0  0  0  0  0  0  0  0  0  0  0
  184.0590  174.9820  136.4600 C   0  0  0  0  0  3  0  0  0  0  0  0
  185.0250  175.6940  137.1720 C   0  0  0  0  0  0  0  0  0  0  0  0
  182.6170  176.8670  136.5420 N   0  0  0  0  0  0  0  0  0  0  0  0
  186.3150  174.9990  137.4660 C   0  0  0  0  0  2  0  0  0  0  0  0
  187.1700  175.0290  136.2810 N   0  0  0  0  0  2  0  0  0  0  0  0
  187.8730  173.8180  136.2170 N   0  0  0  0  0  0  0  0  0  0  0  0
  186.9500  172.8170  135.6520 C   0  0  0  0  0  2  0  0  0  0  0  0
  186.4690  173.2060  134.4030 O   0  0  0  0  0  1  0  0  0  0  0  0
  189.0210  174.0570  135.3310 C   0  0  0  0  0  2  0  0  0  0  0  0
  190.2620  173.2380  135.7130 C   0  0  2  0  0  3  0  0  0  0  0  0
  191.6010  175.1840  135.2300 O   0  0  0  0  0  0  0  0  0  0  0  0
  191.5600  173.9990  135.6650 C   0  0  0  0  0  0  0  0  0  0  0  0
  192.7400  173.3860  136.1870 N   0  0  0  0  0  2  0  0  0  0  0  0
  193.9860  174.1030  136.4090 C   0  0  1  0  0  3  0  0  0  0  0  0
  194.8290  171.2700  137.3610 C   0  0  0  0  0  1  0  0  0  0  0  0
  195.6420  171.9230  136.2420 C   0  0  1  0  0  3  0  0  0  0  0  0
  195.1650  173.3180  135.7660 C   0  0  2  0  0  3  0  0  0  0  0  0
  196.4110  173.1790  136.6530 C   0  0  2  0  0  0  0  0  0  0  0  0
  197.7300  173.3420  135.9050 C   0  0  0  0  0  2  0  0  0  0  0  0
  197.4900  173.8150  134.4860 C   0  0  0  0  0  1  0  0  0  0  0  0
  196.3620  173.6160  138.1230 C   0  0  0  0  0  2  0  0  0  0  0  0
  195.1470  174.2430  138.4010 O   0  0  0  0  0  1  0  0  0  0  0  0
  193.8440  175.4250  135.9770 O   0  0  0  0  0  0  0  0  0  0  0  0
  194.8680  175.6030  135.0390 C   0  0  0  0  0  2  0  0  0  0  0  0
  194.9830  177.0750  134.6980 C   0  0  0  0  0  1  0  0  0  0  0  0
  190.3050  171.9290  134.9230 C   0  0  0  0  0  2  0  0  0  0  0  0
  191.7250  171.3890  134.7740 C   0  0  0  0  0  1  0  0  0  0  0  0
  184.9840  179.2260  138.8390 C   0  0  0  0  0  2  0  0  0  0  0  0
  184.8610  179.2680  140.3650 C   0  0  1  0  0  3  0  0  0  0  0  0
  182.6260  178.5340  140.4320 O   0  0  0  0  0  0  0  0  0  0  0  0
  183.4370  179.3740  140.7990 C   0  0  0  0  0  3  0  0  0  0  0  0
  185.5200  178.0590  141.0160 C   0  0  0  0  0  2  0  0  0  0  0  0
  187.6660  177.1790  143.5860 C   0  0  2  0  0  3  0  0  0  0  0  0
  187.5050  177.7520  142.2120 C   0  0  2  0  0  3  0  0  0  0  0  0
  188.6930  176.2330  143.5820 O   0  0  0  0  0  0  0  0  0  0  0  0
  189.8540  177.0390  143.6010 C   0  0  2  0  0  3  0  0  0  0  0  0
  188.7080  178.6650  141.9990 C   0  0  0  0  0  2  0  0  0  0  0  0
  186.2910  176.7010  143.9160 C   0  0  0  0  0  2  0  0  0  0  0  0
  185.4750  177.8750  143.3700 C   0  0  2  0  0  3  0  0  0  0  0  0
  190.0290  177.8950  142.2990 C   0  0  1  0  0  0  0  0  0  0  0  0
  186.2240  178.4510  142.2270 N   0  0  0  0  0  0  0  0  0  0  0  0
  191.1360  178.9180  142.5420 C   0  0  0  0  0  1  0  0  0  0  0  0
  191.5900  177.3680  140.8340 O   0  0  0  0  0  1  0  0  0  0  0  0
  190.3700  177.0410  141.2240 O   0  0  0  0  0  0  0  0  0  0  0  0
  185.3040  178.9130  144.4900 C   0  0  2  0  0  3  0  0  0  0  0  0
  184.9850  178.2660  145.8340 C   0  0  0  0  0  2  0  0  0  0  0  0
  186.0420  178.5760  146.8840 C   0  0  0  0  0  1  0  0  0  0  0  0
  183.1530  179.1830  144.0390 C   0  0  0  0  0  1  0  0  0  0  0  0
  184.3500  179.8890  144.1800 O   0  0  0  0  0  0  0  0  0  0  0  0
  191.0860  176.2460  144.0390 C   0  0  0  0  0  2  0  0  0  0  0  0
  190.9410  175.7480  145.3520 O   0  0  0  0  0  0  0  0  0  0  0  0
  190.8940  176.8160  146.2930 C   0  0  2  0  0  0  0  0  0  0  0  0
  191.5490  178.0570  145.6960 C   0  0  0  0  0  1  0  0  0  0  0  0
  192.6630  175.5980  147.4590 O   0  0  0  0  0  1  0  0  0  0  0  0
  191.9900  177.6040  148.3170 O   0  0  0  0  0  1  0  0  0  0  0  0
  191.5760  176.4580  147.6390 C   0  0  0  0  0  3  0  0  0  0  0  0
  189.4460  177.1670  146.5230 C   0  0  0  0  0  3  0  0  0  0  0  0
  188.7970  176.8270  147.6340 C   0  0  0  0  0  2  0  0  0  0  0  0
  1 38  1  6  0  0  0
  2  7  1  0  0  0  0
  3  2  2  0  0  0  0
  3  6  1  0  0  0  0
  5  4  1  0  0  0  0
  6  5  2  0  0  0  0
  7  1  1  0  0  0  0
  7  4  2  0  0  0  0
  8  1  1  0  0  0  0
  9 11  2  0  0  0  0
  9 13  1  0  0  0  0
 10  8  1  0  0  0  0
 11 12  1  0  0  0  0
 12 14  1  0  0  0  0
 12  8  2  0  0  0  0
 13 10  2  0  0  0  0
 15 14  1  0  0  0  0
 16 15  1  0  0  0  0
 17 16  1  0  0  0  0
 18 17  1  0  0  0  0
 19 20  1  0  0  0  0
 19 16  1  0  0  0  0
 20 36  1  6  0  0  0
 21 22  2  0  0  0  0
 22 20  1  0  0  0  0
 22 23  1  0  0  0  0
 23 24  1  0  0  0  0
 24 33  1  6  0  0  0
 26 28  1  0  0  0  0
 26 25  1  1  0  0  0
 27 26  1  0  0  0  0
 27 24  1  1  0  0  0
 27 28  1  0  0  0  0
 28 29  1  6  0  0  0
 28 31  1  0  0  0  0
 30 29  1  0  0  0  0
 31 32  1  0  0  0  0
 34 33  1  0  0  0  0
 35 34  1  0  0  0  0
 37 36  1  0  0  0  0
 39 38  1  6  0  0  0
 39 41  1  0  0  0  0
 39 42  1  0  0  0  0
 40 41  2  0  0  0  0
 42 51  1  0  0  0  0
 43 48  1  6  0  0  0
 44 47  1  1  0  0  0
 44 51  1  0  0  0  0
 44 43  1  0  0  0  0
 45 43  1  0  0  0  0
 45 46  1  0  0  0  0
 46 60  1  6  0  0  0
 47 50  1  0  0  0  0
 49 48  1  0  0  0  0
 49 55  1  1  0  0  0
 50 52  1  1  0  0  0
 50 46  1  0  0  0  0
 51 49  1  0  0  0  0
 53 54  1  0  0  0  0
 54 50  1  0  0  0  0
 55 56  1  1  0  0  0
 56 57  1  0  0  0  0
 58 59  1  0  0  0  0
 59 55  1  0  0  0  0
 60 61  1  0  0  0  0
 61 62  1  0  0  0  0
 62 63  1  6  0  0  0
 62 67  1  0  0  0  0
 62 66  1  0  0  0  0
 64 66  1  0  0  0  0
 66 65  1  0  0  0  0
 67 68  2  0  0  0  0
M  END
>  <MODEL>
1

>  <REMARK>
 VINA RESULT:      -4.8      0.000      0.000
  Name = 
  30 active torsions:
  status: ('A' for Active; 'I' for Inactive)
    1  A    between atoms: C_2  and  C_21
    2  A    between atoms: C_2  and  O_34
    3  A    between atoms: C_2  and  C_60
    4  A    between atoms: N_4  and  C_56
    5  A    between atoms: N_4  and  N_65
    6  A    between atoms: C_8  and  C_57
    7  A    between atoms: C_10  and  O_34
    8  A    between atoms: C_10  and  C_44
    9  A    between atoms: C_17  and  C_50
   10  A    between atoms: O_19  and  C_61
   11  A    between atoms: C_20  and  C_39
   12  A    between atoms: C_23  and  C_45
   13  A    between atoms: C_23  and  O_54
   14  A    between atoms: C_23  and  N_67
   15  A    between atoms: C_25  and  N_65
   16  A    between atoms: C_26  and  C_33
   17  A    between atoms: C_26  and  C_57
   18  A    between atoms: C_27  and  C_58
   19  A    between atoms: C_30  and  C_50
   20  A    between atoms: C_30  and  N_65
   21  A    between atoms: C_33  and  C_52
   22  A    between atoms: C_33  and  C_55
   23  A    between atoms: C_36  and  C_58
   24  A    between atoms: C_38  and  C_57
   25  A    between atoms: C_39  and  O_53
   26  A    between atoms: C_39  and  C_59
   27  A    between atoms: C_47  and  C_56
   28  A    between atoms: C_50  and  C_64
   29  A    between atoms: C_51  and  O_54
   30  A    between atoms: C_52  and  N_62
                            x       y       z     vdW  Elec       q    Type
                         _______ _______ _______ _____ _____    ______ ____

>  <TORSDO>
F 30

$$$$
=
 OpenBabel10232410233D

 68 72  0  0  1  0  0  0  0  0999 V2000
  185.8530  177.8630  138.4300 C   0  0  2  0  0  3  0  0  0  0  0  0
  188.3130  177.2970  138.6010 C   0  0  0  0  0  3  0  0  0  0  0  0
  189.6250  177.3840  138.1200 C   0  0  0  0  0  3  0  0  0  0  0  0
  187.5380  178.6420  136.7410 C   0  0  0  0  0  3  0  0  0  0  0  0
  188.8520  178.7350  136.2660 C   0  0  0  0  0  3  0  0  0  0  0  0
  189.8960  178.1120  136.9580 C   0  0  0  0  0  3  0  0  0  0  0  0
  187.2650  177.9360  137.9170 C   0  0  0  0  0  0  0  0  0  0  0  0
  184.8430  177.0020  137.6970 C   0  0  0  0  0  0  0  0  0  0  0  0
  182.8390  175.6830  136.3130 C   0  0  0  0  0  3  0  0  0  0  0  0
  183.6230  177.5600  137.4840 N   0  0  0  0  0  0  0  0  0  0  0  0
  184.0640  175.0490  136.4890 C   0  0  0  0  0  3  0  0  0  0  0  0
  185.0930  175.7040  137.1660 C   0  0  0  0  0  0  0  0  0  0  0  0
  182.6580  176.9360  136.8100 N   0  0  0  0  0  0  0  0  0  0  0  0
  186.3930  174.9810  137.3090 C   0  0  0  0  0  2  0  0  0  0  0  0
  187.2090  175.1970  136.1170 N   0  0  0  0  0  2  0  0  0  0  0  0
  187.6830  173.9530  135.6780 N   0  0  0  0  0  0  0  0  0  0  0  0
  186.9730  173.6430  134.4230 C   0  0  0  0  0  2  0  0  0  0  0  0
  186.1210  172.5500  134.5690 O   0  0  0  0  0  1  0  0  0  0  0  0
  189.1260  174.1190  135.4560 C   0  0  0  0  0  2  0  0  0  0  0  0
  189.9100  172.8030  135.5570 C   0  0  2  0  0  3  0  0  0  0  0  0
  191.7830  173.4860  136.9120 O   0  0  0  0  0  0  0  0  0  0  0  0
  191.3810  172.9640  135.8350 C   0  0  0  0  0  0  0  0  0  0  0  0
  192.3230  172.4510  134.8920 N   0  0  0  0  0  2  0  0  0  0  0  0
  193.7480  172.3370  135.1610 C   0  0  1  0  0  3  0  0  0  0  0  0
  194.6160  175.2070  134.3520 C   0  0  0  0  0  1  0  0  0  0  0  0
  194.6520  174.8380  135.8360 C   0  0  1  0  0  3  0  0  0  0  0  0
  194.1720  173.4110  136.2040 C   0  0  2  0  0  3  0  0  0  0  0  0
  195.6680  173.7580  136.2070 C   0  0  2  0  0  0  0  0  0  0  0  0
  196.2610  173.9490  137.5990 C   0  0  0  0  0  2  0  0  0  0  0  0
  196.0660  172.7070  138.4430 C   0  0  0  0  0  1  0  0  0  0  0  0
  196.5860  173.2110  135.1050 C   0  0  0  0  0  2  0  0  0  0  0  0
  197.6460  172.4990  135.6690 O   0  0  0  0  0  1  0  0  0  0  0  0
  194.0520  171.0180  135.5080 O   0  0  0  0  0  0  0  0  0  0  0  0
  193.3120  170.2370  134.6100 C   0  0  0  0  0  2  0  0  0  0  0  0
  193.6390  168.7740  134.8340 C   0  0  0  0  0  1  0  0  0  0  0  0
  189.6230  171.9130  134.3470 C   0  0  0  0  0  2  0  0  0  0  0  0
  189.1230  170.5290  134.7510 C   0  0  0  0  0  1  0  0  0  0  0  0
  185.2690  179.1960  138.9160 C   0  0  0  0  0  2  0  0  0  0  0  0
  185.1390  179.2520  140.4410 C   0  0  1  0  0  3  0  0  0  0  0  0
  182.9010  178.5820  140.1560 O   0  0  0  0  0  0  0  0  0  0  0  0
  183.7160  179.1460  140.8760 C   0  0  0  0  0  3  0  0  0  0  0  0
  185.9770  178.1740  141.1170 C   0  0  0  0  0  2  0  0  0  0  0  0
  187.7670  177.5020  144.0020 C   0  0  2  0  0  3  0  0  0  0  0  0
  187.7850  177.9910  142.5880 C   0  0  2  0  0  3  0  0  0  0  0  0
  188.8040  176.5870  144.1950 O   0  0  0  0  0  0  0  0  0  0  0  0
  189.9340  177.4250  144.3230 C   0  0  2  0  0  3  0  0  0  0  0  0
  188.9870  178.9240  142.4860 C   0  0  0  0  0  2  0  0  0  0  0  0
  186.3690  177.0050  144.1710 C   0  0  0  0  0  2  0  0  0  0  0  0
  185.6130  178.1220  143.4490 C   0  0  2  0  0  3  0  0  0  0  0  0
  190.2690  178.2110  143.0080 C   0  0  1  0  0  0  0  0  0  0  0  0
  186.4990  178.6540  142.3870 N   0  0  0  0  0  0  0  0  0  0  0  0
  191.3110  179.2770  143.3380 C   0  0  0  0  0  1  0  0  0  0  0  0
  189.7590  176.5580  141.6410 O   0  0  0  0  0  1  0  0  0  0  0  0
  190.7720  177.3080  142.0420 O   0  0  0  0  0  0  0  0  0  0  0  0
  185.2680  179.2170  144.4720 C   0  0  2  0  0  3  0  0  0  0  0  0
  185.7000  178.8440  145.8860 C   0  0  0  0  0  2  0  0  0  0  0  0
  185.7040  180.0450  146.8200 C   0  0  0  0  0  1  0  0  0  0  0  0
  183.2340  178.3480  144.3830 C   0  0  0  0  0  1  0  0  0  0  0  0
  183.9130  179.5660  144.4520 O   0  0  0  0  0  0  0  0  0  0  0  0
  191.1110  176.6940  144.9710 C   0  0  0  0  0  2  0  0  0  0  0  0
  191.6350  177.4200  146.0620 O   0  0  0  0  0  0  0  0  0  0  0  0
  191.3560  176.7550  147.2900 C   0  0  2  0  0  0  0  0  0  0  0  0
  191.5600  177.7180  148.4560 C   0  0  0  0  0  1  0  0  0  0  0  0
  191.6100  174.5660  148.3470 O   0  0  0  0  0  1  0  0  0  0  0  0
  192.5270  174.8770  146.2800 O   0  0  0  0  0  1  0  0  0  0  0  0
  192.2270  175.4880  147.4960 C   0  0  0  0  0  3  0  0  0  0  0  0
  189.8940  176.3840  147.2950 C   0  0  0  0  0  3  0  0  0  0  0  0
  188.9750  177.1150  147.9220 C   0  0  0  0  0  2  0  0  0  0  0  0
  1 38  1  6  0  0  0
  3  2  1  0  0  0  0
  4  7  1  0  0  0  0
  5  4  2  0  0  0  0
  5  6  1  0  0  0  0
  6  3  2  0  0  0  0
  7  1  1  0  0  0  0
  7  2  2  0  0  0  0
  8  1  1  0  0  0  0
  9 11  2  0  0  0  0
  9 13  1  0  0  0  0
 10  8  1  0  0  0  0
 11 12  1  0  0  0  0
 12 14  1  0  0  0  0
 12  8  2  0  0  0  0
 13 10  2  0  0  0  0
 15 14  1  0  0  0  0
 16 15  1  0  0  0  0
 17 18  1  0  0  0  0
 17 16  1  0  0  0  0
 19 20  1  0  0  0  0
 19 16  1  0  0  0  0
 20 36  1  6  0  0  0
 20 22  1  0  0  0  0
 22 21  2  0  0  0  0
 23 22  1  0  0  0  0
 24 23  1  1  0  0  0
 24 33  1  0  0  0  0
 26 25  1  6  0  0  0
 26 27  1  0  0  0  0
 26 28  1  0  0  0  0
 27 24  1  6  0  0  0
 27 28  1  0  0  0  0
 28 31  1  6  0  0  0
 28 29  1  0  0  0  0
 29 30  1  0  0  0  0
 31 32  1  0  0  0  0
 34 35  1  0  0  0  0
 34 33  1  0  0  0  0
 36 37  1  0  0  0  0
 39 38  1  6  0  0  0
 39 41  1  0  0  0  0
 39 42  1  0  0  0  0
 40 41  2  0  0  0  0
 42 51  1  0  0  0  0
 43 48  1  6  0  0  0
 43 45  1  0  0  0  0
 44 47  1  1  0  0  0
 44 43  1  0  0  0  0
 45 46  1  0  0  0  0
 46 60  1  6  0  0  0
 47 50  1  0  0  0  0
 49 48  1  0  0  0  0
 49 55  1  1  0  0  0
 50 52  1  1  0  0  0
 50 46  1  0  0  0  0
 51 44  1  0  0  0  0
 51 49  1  0  0  0  0
 53 54  1  0  0  0  0
 54 50  1  0  0  0  0
 55 56  1  1  0  0  0
 56 57  1  0  0  0  0
 58 59  1  0  0  0  0
 59 55  1  0  0  0  0
 60 61  1  0  0  0  0
 61 62  1  0  0  0  0
 62 67  1  0  0  0  0
 62 66  1  0  0  0  0
 62 63  1  1  0  0  0
 65 66  1  0  0  0  0
 66 64  1  0  0  0  0
 67 68  2  0  0  0  0
M  END
>  <MODEL>
2

>  <REMARK>
 VINA RESULT:      -4.3      1.240      2.120
  Name = 
  30 active torsions:
  status: ('A' for Active; 'I' for Inactive)
    1  A    between atoms: C_2  and  C_21
    2  A    between atoms: C_2  and  O_34
    3  A    between atoms: C_2  and  C_60
    4  A    between atoms: N_4  and  C_56
    5  A    between atoms: N_4  and  N_65
    6  A    between atoms: C_8  and  C_57
    7  A    between atoms: C_10  and  O_34
    8  A    between atoms: C_10  and  C_44
    9  A    between atoms: C_17  and  C_50
   10  A    between atoms: O_19  and  C_61
   11  A    between atoms: C_20  and  C_39
   12  A    between atoms: C_23  and  C_45
   13  A    between atoms: C_23  and  O_54
   14  A    between atoms: C_23  and  N_67
   15  A    between atoms: C_25  and  N_65
   16  A    between atoms: C_26  and  C_33
   17  A    between atoms: C_26  and  C_57
   18  A    between atoms: C_27  and  C_58
   19  A    between atoms: C_30  and  C_50
   20  A    between atoms: C_30  and  N_65
   21  A    between atoms: C_33  and  C_52
   22  A    between atoms: C_33  and  C_55
   23  A    between atoms: C_36  and  C_58
   24  A    between atoms: C_38  and  C_57
   25  A    between atoms: C_39  and  O_53
   26  A    between atoms: C_39  and  C_59
   27  A    between atoms: C_47  and  C_56
   28  A    between atoms: C_50  and  C_64
   29  A    between atoms: C_51  and  O_54
   30  A    between atoms: C_52  and  N_62
                            x       y       z     vdW  Elec       q    Type
                         _______ _______ _______ _____ _____    ______ ____

>  <TORSDO>
F 30

$$$$
=
 OpenBabel10232410233D

 68 72  0  0  1  0  0  0  0  0999 V2000
  186.0780  177.6050  138.7010 C   0  0  2  0  0  3  0  0  0  0  0  0
  188.5040  177.0680  139.1810 C   0  0  0  0  0  3  0  0  0  0  0  0
  189.8690  177.2440  138.9260 C   0  0  0  0  0  3  0  0  0  0  0  0
  187.9690  178.6330  137.4110 C   0  0  0  0  0  3  0  0  0  0  0  0
  189.3350  178.8130  137.1620 C   0  0  0  0  0  3  0  0  0  0  0  0
  190.2850  178.1240  137.9230 C   0  0  0  0  0  3  0  0  0  0  0  0
  187.5480  177.7720  138.4290 C   0  0  0  0  0  0  0  0  0  0  0  0
  185.2470  176.7420  137.7730 C   0  0  0  0  0  0  0  0  0  0  0  0
  183.5640  175.4140  136.0190 C   0  0  0  0  0  3  0  0  0  0  0  0
  184.0460  177.2520  137.3960 N   0  0  0  0  0  0  0  0  0  0  0  0
  184.7810  174.8300  136.3560 C   0  0  0  0  0  3  0  0  0  0  0  0
  185.6510  175.4920  137.2220 C   0  0  0  0  0  0  0  0  0  0  0  0
  183.2360  176.6240  136.5450 N   0  0  0  0  0  0  0  0  0  0  0  0
  186.9520  174.8250  137.5340 C   0  0  0  0  0  2  0  0  0  0  0  0
  188.0270  175.4690  136.7820 N   0  0  0  0  0  2  0  0  0  0  0  0
  188.5360  174.5430  135.8610 N   0  0  0  0  0  0  0  0  0  0  0  0
  188.0340  174.9400  134.5330 C   0  0  0  0  0  2  0  0  0  0  0  0
  188.1020  176.3190  134.3470 O   0  0  0  0  0  1  0  0  0  0  0  0
  189.9990  174.6480  135.9410 C   0  0  0  0  0  2  0  0  0  0  0  0
  190.7180  173.3210  135.6580 C   0  0  2  0  0  3  0  0  0  0  0  0
  192.8010  174.4570  135.2340 O   0  0  0  0  0  0  0  0  0  0  0  0
  192.2210  173.4100  135.6330 C   0  0  0  0  0  0  0  0  0  0  0  0
  192.9860  172.3140  136.1370 N   0  0  0  0  0  2  0  0  0  0  0  0
  194.4180  172.3800  136.3810 C   0  0  1  0  0  3  0  0  0  0  0  0
  193.6030  169.8200  134.8240 C   0  0  0  0  0  1  0  0  0  0  0  0
  194.8380  170.5860  134.3490 C   0  0  1  0  0  3  0  0  0  0  0  0
  195.1890  171.8800  135.1250 C   0  0  2  0  0  3  0  0  0  0  0  0
  196.0070  170.5990  135.3340 C   0  0  2  0  0  0  0  0  0  0  0  0
  197.3680  170.6080  134.6450 C   0  0  0  0  0  2  0  0  0  0  0  0
  198.0440  169.2580  134.7670 C   0  0  0  0  0  1  0  0  0  0  0  0
  195.8710  169.8020  136.6390 C   0  0  0  0  0  2  0  0  0  0  0  0
  197.0700  169.8300  137.3500 O   0  0  0  0  0  1  0  0  0  0  0  0
  194.7560  173.6650  136.8150 O   0  0  0  0  0  0  0  0  0  0  0  0
  195.9700  173.9480  136.1750 C   0  0  0  0  0  2  0  0  0  0  0  0
  197.1130  173.6850  137.1340 C   0  0  0  0  0  1  0  0  0  0  0  0
  190.1370  172.6490  134.4130 C   0  0  0  0  0  2  0  0  0  0  0  0
  189.7490  171.1950  134.6670 C   0  0  0  0  0  1  0  0  0  0  0  0
  185.3520  178.8800  139.1510 C   0  0  0  0  0  2  0  0  0  0  0  0
  185.3780  179.0570  140.6720 C   0  0  1  0  0  3  0  0  0  0  0  0
  183.1270  178.4070  140.8900 O   0  0  0  0  0  0  0  0  0  0  0  0
  184.0020  179.1910  141.2340 C   0  0  0  0  0  3  0  0  0  0  0  0
  186.1170  177.9150  141.3590 C   0  0  0  0  0  2  0  0  0  0  0  0
  188.1000  177.2110  144.1070 C   0  0  2  0  0  3  0  0  0  0  0  0
  188.0060  177.7930  142.7320 C   0  0  2  0  0  3  0  0  0  0  0  0
  189.2190  176.3790  144.1880 O   0  0  0  0  0  0  0  0  0  0  0  0
  190.2800  177.3030  144.3260 C   0  0  2  0  0  3  0  0  0  0  0  0
  189.1180  178.8330  142.6430 C   0  0  0  0  0  2  0  0  0  0  0  0
  186.7600  176.5840  144.3020 C   0  0  0  0  0  2  0  0  0  0  0  0
  185.8760  177.6760  143.6960 C   0  0  2  0  0  3  0  0  0  0  0  0
  190.4810  178.2010  143.0560 C   0  0  1  0  0  0  0  0  0  0  0  0
  186.6600  178.3530  142.6350 N   0  0  0  0  0  0  0  0  0  0  0  0
  191.4440  179.3300  143.4140 C   0  0  0  0  0  1  0  0  0  0  0  0
  192.2960  177.6940  141.9110 O   0  0  0  0  0  1  0  0  0  0  0  0
  191.0080  177.4120  142.0070 O   0  0  0  0  0  0  0  0  0  0  0  0
  185.4930  178.6660  144.8090 C   0  0  2  0  0  3  0  0  0  0  0  0
  185.6720  178.0690  146.2000 C   0  0  0  0  0  2  0  0  0  0  0  0
  186.5080  178.9630  147.1040 C   0  0  0  0  0  1  0  0  0  0  0  0
  183.5010  178.7040  145.7750 C   0  0  0  0  0  1  0  0  0  0  0  0
  184.1960  179.1700  144.6570 O   0  0  0  0  0  0  0  0  0  0  0  0
  191.5450  176.6350  144.8670 C   0  0  0  0  0  2  0  0  0  0  0  0
  192.0190  177.2870  146.0260 O   0  0  0  0  0  0  0  0  0  0  0  0
  191.5140  176.6580  147.1990 C   0  0  2  0  0  0  0  0  0  0  0  0
  192.0030  177.4070  148.4350 C   0  0  0  0  0  1  0  0  0  0  0  0
  192.4790  174.8570  148.5390 O   0  0  0  0  0  1  0  0  0  0  0  0
  190.8220  174.3300  147.0590 O   0  0  0  0  0  1  0  0  0  0  0  0
  191.9140  175.1630  147.2970 C   0  0  0  0  0  3  0  0  0  0  0  0
  190.0130  176.7920  147.1870 C   0  0  0  0  0  3  0  0  0  0  0  0
  189.3650  177.6350  147.9890 C   0  0  0  0  0  2  0  0  0  0  0  0
  1 38  1  6  0  0  0
  3  2  1  0  0  0  0
  4  7  1  0  0  0  0
  5  4  2  0  0  0  0
  5  6  1  0  0  0  0
  6  3  2  0  0  0  0
  7  1  1  0  0  0  0
  7  2  2  0  0  0  0
  8  1  1  0  0  0  0
  9 11  2  0  0  0  0
  9 13  1  0  0  0  0
 10  8  1  0  0  0  0
 11 12  1  0  0  0  0
 12 14  1  0  0  0  0
 12  8  2  0  0  0  0
 13 10  2  0  0  0  0
 15 14  1  0  0  0  0
 16 19  1  0  0  0  0
 16 15  1  0  0  0  0
 17 16  1  0  0  0  0
 18 17  1  0  0  0  0
 20 36  1  6  0  0  0
 20 19  1  0  0  0  0
 21 22  2  0  0  0  0
 22 20  1  0  0  0  0
 22 23  1  0  0  0  0
 24 23  1  6  0  0  0
 24 33  1  0  0  0  0
 26 25  1  1  0  0  0
 26 27  1  0  0  0  0
 26 28  1  0  0  0  0
 27 28  1  0  0  0  0
 27 24  1  1  0  0  0
 28 29  1  6  0  0  0
 28 31  1  0  0  0  0
 29 30  1  0  0  0  0
 31 32  1  0  0  0  0
 34 33  1  0  0  0  0
 34 35  1  0  0  0  0
 36 37  1  0  0  0  0
 39 38  1  6  0  0  0
 39 41  1  0  0  0  0
 39 42  1  0  0  0  0
 40 41  2  0  0  0  0
 42 51  1  0  0  0  0
 43 45  1  0  0  0  0
 43 48  1  6  0  0  0
 44 47  1  1  0  0  0
 44 43  1  0  0  0  0
 45 46  1  0  0  0  0
 46 60  1  6  0  0  0
 47 50  1  0  0  0  0
 49 48  1  0  0  0  0
 49 55  1  1  0  0  0
 50 52  1  1  0  0  0
 50 46  1  0  0  0  0
 51 44  1  0  0  0  0
 51 49  1  0  0  0  0
 53 54  1  0  0  0  0
 54 50  1  0  0  0  0
 55 56  1  1  0  0  0
 56 57  1  0  0  0  0
 59 55  1  0  0  0  0
 59 58  1  0  0  0  0
 60 61  1  0  0  0  0
 61 62  1  0  0  0  0
 62 66  1  0  0  0  0
 62 63  1  1  0  0  0
 65 66  1  0  0  0  0
 66 64  1  0  0  0  0
 67 62  1  0  0  0  0
 67 68  2  0  0  0  0
M  END
>  <MODEL>
3

>  <REMARK>
 VINA RESULT:      -3.5      1.431      1.914
  Name = 
  30 active torsions:
  status: ('A' for Active; 'I' for Inactive)
    1  A    between atoms: C_2  and  C_21
    2  A    between atoms: C_2  and  O_34
    3  A    between atoms: C_2  and  C_60
    4  A    between atoms: N_4  and  C_56
    5  A    between atoms: N_4  and  N_65
    6  A    between atoms: C_8  and  C_57
    7  A    between atoms: C_10  and  O_34
    8  A    between atoms: C_10  and  C_44
    9  A    between atoms: C_17  and  C_50
   10  A    between atoms: O_19  and  C_61
   11  A    between atoms: C_20  and  C_39
   12  A    between atoms: C_23  and  C_45
   13  A    between atoms: C_23  and  O_54
   14  A    between atoms: C_23  and  N_67
   15  A    between atoms: C_25  and  N_65
   16  A    between atoms: C_26  and  C_33
   17  A    between atoms: C_26  and  C_57
   18  A    between atoms: C_27  and  C_58
   19  A    between atoms: C_30  and  C_50
   20  A    between atoms: C_30  and  N_65
   21  A    between atoms: C_33  and  C_52
   22  A    between atoms: C_33  and  C_55
   23  A    between atoms: C_36  and  C_58
   24  A    between atoms: C_38  and  C_57
   25  A    between atoms: C_39  and  O_53
   26  A    between atoms: C_39  and  C_59
   27  A    between atoms: C_47  and  C_56
   28  A    between atoms: C_50  and  C_64
   29  A    between atoms: C_51  and  O_54
   30  A    between atoms: C_52  and  N_62
                            x       y       z     vdW  Elec       q    Type
                         _______ _______ _______ _____ _____    ______ ____

>  <TORSDO>
F 30

$$$$
=
 OpenBabel10232410233D

 68 72  0  0  1  0  0  0  0  0999 V2000
  187.8280  178.2610  142.5290 C   0  0  2  0  0  3  0  0  0  0  0  0
  185.9010  179.4950  143.6080 C   0  0  0  0  0  3  0  0  0  0  0  0
  184.9420  179.6210  144.6200 C   0  0  0  0  0  3  0  0  0  0  0  0
  186.6830  177.4290  144.6010 C   0  0  0  0  0  3  0  0  0  0  0  0
  185.7290  177.5600  145.6180 C   0  0  0  0  0  3  0  0  0  0  0  0
  184.8620  178.6590  145.6310 C   0  0  0  0  0  3  0  0  0  0  0  0
  186.7830  178.4020  143.6020 C   0  0  0  0  0  0  0  0  0  0  0  0
  189.2780  178.0770  142.9270 C   0  0  0  0  0  0  0  0  0  0  0  0
  191.8370  177.7670  143.9430 C   0  0  0  0  0  3  0  0  0  0  0  0
  189.5980  178.4220  144.2020 N   0  0  0  0  0  0  0  0  0  0  0  0
  191.5850  177.3870  142.6290 C   0  0  0  0  0  3  0  0  0  0  0  0
  190.2980  177.5170  142.1050 C   0  0  0  0  0  0  0  0  0  0  0  0
  190.8240  178.2660  144.7000 N   0  0  0  0  0  0  0  0  0  0  0  0
  190.0820  177.0770  140.6930 C   0  0  0  0  0  2  0  0  0  0  0  0
  191.2120  176.2600  140.2560 N   0  0  0  0  0  2  0  0  0  0  0  0
  191.6080  176.7020  138.9860 N   0  0  0  0  0  0  0  0  0  0  0  0
  192.5210  177.8410  139.1960 C   0  0  0  0  0  2  0  0  0  0  0  0
  193.5120  177.5420  140.1290 O   0  0  0  0  0  1  0  0  0  0  0  0
  192.2940  175.5680  138.3520 C   0  0  0  0  0  2  0  0  0  0  0  0
  191.3840  174.7520  137.4230 C   0  0  2  0  0  3  0  0  0  0  0  0
  191.7530  173.4880  135.4040 O   0  0  0  0  0  0  0  0  0  0  0  0
  192.0940  173.7100  136.5990 C   0  0  0  0  0  0  0  0  0  0  0  0
  193.2110  173.0240  137.1670 N   0  0  0  0  0  2  0  0  0  0  0  0
  194.1100  172.1800  136.3960 C   0  0  1  0  0  3  0  0  0  0  0  0
  195.6300  174.5590  137.6900 C   0  0  0  0  0  1  0  0  0  0  0  0
  196.2580  173.1680  137.7860 C   0  0  1  0  0  3  0  0  0  0  0  0
  195.4500  172.0010  137.1650 C   0  0  2  0  0  3  0  0  0  0  0  0
  196.6880  172.5610  136.4500 C   0  0  2  0  0  0  0  0  0  0  0  0
  197.9270  171.6790  136.5660 C   0  0  0  0  0  2  0  0  0  0  0  0
  199.0750  172.4430  137.1930 C   0  0  0  0  0  1  0  0  0  0  0  0
  196.5260  173.4060  135.1790 C   0  0  0  0  0  2  0  0  0  0  0  0
  197.6580  173.2860  134.3720 O   0  0  0  0  0  1  0  0  0  0  0  0
  193.4550  170.9930  136.0540 O   0  0  0  0  0  0  0  0  0  0  0  0
  194.4210  170.2380  135.3780 C   0  0  0  0  0  2  0  0  0  0  0  0
  194.0450  168.7710  135.4450 C   0  0  0  0  0  1  0  0  0  0  0  0
  190.5010  175.6790  136.5860 C   0  0  0  0  0  2  0  0  0  0  0  0
  189.0370  175.2470  136.5950 C   0  0  0  0  0  1  0  0  0  0  0  0
  187.6470  179.1910  141.3220 C   0  0  0  0  0  2  0  0  0  0  0  0
  187.0180  178.4720  140.1240 C   0  0  1  0  0  3  0  0  0  0  0  0
  188.3510  177.0560  138.8000 O   0  0  0  0  0  0  0  0  0  0  0  0
  187.7060  177.1810  139.8330 C   0  0  0  0  0  3  0  0  0  0  0  0
  185.5260  178.2390  140.3290 C   0  0  0  0  0  2  0  0  0  0  0  0
  183.8310  176.4130  137.9260 C   0  0  2  0  0  3  0  0  0  0  0  0
  183.7570  177.2400  139.1710 C   0  0  2  0  0  3  0  0  0  0  0  0
  183.0650  175.2570  138.0850 O   0  0  0  0  0  0  0  0  0  0  0  0
  181.7480  175.7320  137.8920 C   0  0  2  0  0  3  0  0  0  0  0  0
  182.3580  177.8470  139.1850 C   0  0  0  0  0  2  0  0  0  0  0  0
  185.3000  176.2430  137.7190 C   0  0  0  0  0  2  0  0  0  0  0  0
  185.7700  177.6600  138.0530 C   0  0  2  0  0  3  0  0  0  0  0  0
  181.2850  176.7330  139.0060 C   0  0  1  0  0  0  0  0  0  0  0  0
  184.8310  178.2230  139.0520 N   0  0  0  0  0  0  0  0  0  0  0  0
  179.9830  177.3880  138.5540 C   0  0  0  0  0  1  0  0  0  0  0  0
  179.9850  176.4900  140.7710 O   0  0  0  0  0  1  0  0  0  0  0  0
  181.0900  176.0240  140.2150 O   0  0  0  0  0  0  0  0  0  0  0  0
  185.7590  178.4940  136.7610 C   0  0  2  0  0  3  0  0  0  0  0  0
  185.8890  177.6280  135.5130 C   0  0  0  0  0  2  0  0  0  0  0  0
  184.6790  177.7560  134.5990 C   0  0  0  0  0  1  0  0  0  0  0  0
  187.9500  178.8150  136.7780 C   0  0  0  0  0  1  0  0  0  0  0  0
  186.7330  179.4990  136.7610 O   0  0  0  0  0  0  0  0  0  0  0  0
  180.7750  174.5920  137.5850 C   0  0  0  0  0  2  0  0  0  0  0  0
  180.6060  174.4160  136.1940 O   0  0  0  0  0  0  0  0  0  0  0  0
  181.0950  173.1430  135.7840 C   0  0  2  0  0  0  0  0  0  0  0  0
  180.0240  172.4160  134.9770 C   0  0  0  0  0  1  0  0  0  0  0  0
  180.9060  171.0170  136.9730 O   0  0  0  0  0  1  0  0  0  0  0  0
  182.9260  172.0810  136.9840 O   0  0  0  0  0  1  0  0  0  0  0  0
  181.5430  172.2610  136.9780 C   0  0  0  0  0  3  0  0  0  0  0  0
  182.2530  173.3720  134.8460 C   0  0  0  0  0  3  0  0  0  0  0  0
  182.7550  174.5830  134.6140 C   0  0  0  0  0  2  0  0  0  0  0  0
  1 38  1  6  0  0  0
  1  8  1  0  0  0  0
  1  7  1  0  0  0  0
  2  3  1  0  0  0  0
  3  6  2  0  0  0  0
  4  5  2  0  0  0  0
  5  6  1  0  0  0  0
  7  2  2  0  0  0  0
  7  4  1  0  0  0  0
  8 10  1  0  0  0  0
  9 13  1  0  0  0  0
 10 13  2  0  0  0  0
 11  9  2  0  0  0  0
 12 11  1  0  0  0  0
 12  8  2  0  0  0  0
 14 12  1  0  0  0  0
 15 14  1  0  0  0  0
 16 17  1  0  0  0  0
 16 15  1  0  0  0  0
 17 18  1  0  0  0  0
 19 16  1  0  0  0  0
 20 36  1  6  0  0  0
 20 19  1  0  0  0  0
 21 22  2  0  0  0  0
 22 23  1  0  0  0  0
 22 20  1  0  0  0  0
 24 33  1  1  0  0  0
 24 23  1  0  0  0  0
 26 25  1  6  0  0  0
 27 24  1  6  0  0  0
 27 26  1  0  0  0  0
 28 31  1  6  0  0  0
 28 29  1  0  0  0  0
 28 27  1  0  0  0  0
 28 26  1  0  0  0  0
 29 30  1  0  0  0  0
 32 31  1  0  0  0  0
 34 35  1  0  0  0  0
 34 33  1  0  0  0  0
 36 37  1  0  0  0  0
 39 41  1  1  0  0  0
 39 42  1  0  0  0  0
 39 38  1  0  0  0  0
 40 41  2  0  0  0  0
 43 48  1  1  0  0  0
 43 45  1  0  0  0  0
 43 44  1  0  0  0  0
 44 47  1  6  0  0  0
 46 60  1  1  0  0  0
 46 45  1  0  0  0  0
 46 50  1  0  0  0  0
 48 49  1  0  0  0  0
 49 55  1  6  0  0  0
 49 51  1  0  0  0  0
 50 52  1  6  0  0  0
 50 47  1  0  0  0  0
 50 54  1  0  0  0  0
 51 44  1  0  0  0  0
 51 42  1  0  0  0  0
 54 53  1  0  0  0  0
 55 56  1  6  0  0  0
 57 56  1  0  0  0  0
 59 55  1  0  0  0  0
 59 58  1  0  0  0  0
 61 60  1  0  0  0  0
 62 63  1  6  0  0  0
 62 61  1  0  0  0  0
 62 66  1  0  0  0  0
 64 66  1  0  0  0  0
 66 65  1  0  0  0  0
 67 62  1  0  0  0  0
 68 67  2  0  0  0  0
M  END
>  <MODEL>
4

>  <REMARK>
 VINA RESULT:      -2.9      2.894      8.453
  Name = 
  30 active torsions:
  status: ('A' for Active; 'I' for Inactive)
    1  A    between atoms: C_2  and  C_21
    2  A    between atoms: C_2  and  O_34
    3  A    between atoms: C_2  and  C_60
    4  A    between atoms: N_4  and  C_56
    5  A    between atoms: N_4  and  N_65
    6  A    between atoms: C_8  and  C_57
    7  A    between atoms: C_10  and  O_34
    8  A    between atoms: C_10  and  C_44
    9  A    between atoms: C_17  and  C_50
   10  A    between atoms: O_19  and  C_61
   11  A    between atoms: C_20  and  C_39
   12  A    between atoms: C_23  and  C_45
   13  A    between atoms: C_23  and  O_54
   14  A    between atoms: C_23  and  N_67
   15  A    between atoms: C_25  and  N_65
   16  A    between atoms: C_26  and  C_33
   17  A    between atoms: C_26  and  C_57
   18  A    between atoms: C_27  and  C_58
   19  A    between atoms: C_30  and  C_50
   20  A    between atoms: C_30  and  N_65
   21  A    between atoms: C_33  and  C_52
   22  A    between atoms: C_33  and  C_55
   23  A    between atoms: C_36  and  C_58
   24  A    between atoms: C_38  and  C_57
   25  A    between atoms: C_39  and  O_53
   26  A    between atoms: C_39  and  C_59
   27  A    between atoms: C_47  and  C_56
   28  A    between atoms: C_50  and  C_64
   29  A    between atoms: C_51  and  O_54
   30  A    between atoms: C_52  and  N_62
                            x       y       z     vdW  Elec       q    Type
                         _______ _______ _______ _____ _____    ______ ____

>  <TORSDO>
F 30

$$$$
=
 OpenBabel10232410233D

 68 72  0  0  1  0  0  0  0  0999 V2000
  187.2100  176.1170  135.5230 C   0  0  2  0  0  3  0  0  0  0  0  0
  187.3890  178.4880  136.3910 C   0  0  0  0  0  3  0  0  0  0  0  0
  187.6630  179.3960  137.4200 C   0  0  0  0  0  3  0  0  0  0  0  0
  187.8440  176.6430  137.8940 C   0  0  0  0  0  3  0  0  0  0  0  0
  188.1260  177.5530  138.9200 C   0  0  0  0  0  3  0  0  0  0  0  0
  188.0420  178.9290  138.6820 C   0  0  0  0  0  3  0  0  0  0  0  0
  187.4890  177.1050  136.6230 C   0  0  0  0  0  0  0  0  0  0  0  0
  185.9350  175.3010  135.5660 C   0  0  0  0  0  0  0  0  0  0  0  0
  183.7120  173.6550  135.4090 C   0  0  0  0  0  3  0  0  0  0  0  0
  185.6570  174.5620  134.4600 N   0  0  0  0  0  0  0  0  0  0  0  0
  183.9320  174.3780  136.5760 C   0  0  0  0  0  3  0  0  0  0  0  0
  185.0560  175.1980  136.6830 C   0  0  0  0  0  0  0  0  0  0  0  0
  184.5970  173.7610  134.3820 N   0  0  0  0  0  0  0  0  0  0  0  0
  185.2500  175.9370  137.9670 C   0  0  0  0  0  2  0  0  0  0  0  0
  183.9510  176.3330  138.5060 N   0  0  0  0  0  2  0  0  0  0  0  0
  184.1220  177.5140  139.2420 N   0  0  0  0  0  0  0  0  0  0  0  0
  183.5790  178.6130  138.4220 C   0  0  0  0  0  2  0  0  0  0  0  0
  182.9140  178.1340  137.2950 O   0  0  0  0  0  1  0  0  0  0  0  0
  183.3570  177.3370  140.4840 C   0  0  0  0  0  2  0  0  0  0  0  0
  183.5470  178.4890  141.4810 C   0  0  2  0  0  3  0  0  0  0  0  0
  185.5000  179.7950  142.0210 O   0  0  0  0  0  0  0  0  0  0  0  0
  184.9530  178.6570  141.9920 C   0  0  0  0  0  0  0  0  0  0  0  0
  185.6400  177.5180  142.5130 N   0  0  0  0  0  2  0  0  0  0  0  0
  186.8960  177.6030  143.2420 C   0  0  1  0  0  3  0  0  0  0  0  0
  185.5420  179.0620  145.6260 C   0  0  0  0  0  1  0  0  0  0  0  0
  186.1030  177.6600  145.8680 C   0  0  1  0  0  3  0  0  0  0  0  0
  186.7340  176.9480  144.6440 C   0  0  2  0  0  3  0  0  0  0  0  0
  187.6230  177.5440  145.7450 C   0  0  2  0  0  0  0  0  0  0  0  0
  188.2210  176.5080  146.6920 C   0  0  0  0  0  2  0  0  0  0  0  0
  188.9170  177.1820  147.8560 C   0  0  0  0  0  1  0  0  0  0  0  0
  188.4320  178.8190  145.4740 C   0  0  0  0  0  2  0  0  0  0  0  0
  189.7800  178.5080  145.2980 O   0  0  0  0  0  1  0  0  0  0  0  0
  187.9260  177.0800  142.4560 O   0  0  0  0  0  0  0  0  0  0  0  0
  188.4570  176.0320  143.2180 C   0  0  0  0  0  2  0  0  0  0  0  0
  189.9400  175.9090  142.9340 C   0  0  0  0  0  1  0  0  0  0  0  0
  182.5090  178.4060  142.6020 C   0  0  0  0  0  2  0  0  0  0  0  0
  182.7030  179.4960  143.6530 C   0  0  0  0  0  1  0  0  0  0  0  0
  188.4280  175.3100  135.0530 C   0  0  0  0  0  2  0  0  0  0  0  0
  189.4140  175.0310  136.1910 C   0  0  1  0  0  3  0  0  0  0  0  0
  187.8270  173.4550  136.9240 O   0  0  0  0  0  0  0  0  0  0  0  0
  188.9670  173.8880  137.0390 C   0  0  0  0  0  3  0  0  0  0  0  0
  190.8220  174.7760  135.6650 C   0  0  0  0  0  2  0  0  0  0  0  0
  193.2440  172.3120  135.4660 C   0  0  2  0  0  3  0  0  0  0  0  0
  192.7700  173.5680  136.1260 C   0  0  2  0  0  3  0  0  0  0  0  0
  194.5940  172.4380  135.1330 O   0  0  0  0  0  0  0  0  0  0  0  0
  195.2380  172.2270  136.3740 C   0  0  2  0  0  3  0  0  0  0  0  0
  193.3890  173.5650  137.5190 C   0  0  0  0  0  2  0  0  0  0  0  0
  192.2730  172.1300  134.3460 C   0  0  0  0  0  2  0  0  0  0  0  0
  190.9770  172.4950  135.0710 C   0  0  2  0  0  3  0  0  0  0  0  0
  194.9290  173.3490  137.4250 C   0  0  1  0  0  0  0  0  0  0  0  0
  191.3120  173.4850  136.1230 N   0  0  0  0  0  0  0  0  0  0  0  0
  195.4330  172.8820  138.7880 C   0  0  0  0  0  1  0  0  0  0  0  0
  196.5360  174.7750  137.9220 O   0  0  0  0  0  1  0  0  0  0  0  0
  195.5820  174.5420  137.0360 O   0  0  0  0  0  0  0  0  0  0  0  0
  190.3880  171.2170  135.6920 C   0  0  2  0  0  3  0  0  0  0  0  0
  191.2560  169.9920  135.4240 C   0  0  0  0  0  2  0  0  0  0  0  0
  190.4340  168.7960  134.9670 C   0  0  0  0  0  1  0  0  0  0  0  0
  188.8000  171.9800  134.3510 C   0  0  0  0  0  1  0  0  0  0  0  0
  189.0700  170.9790  135.2860 O   0  0  0  0  0  0  0  0  0  0  0  0
  196.7170  171.8830  136.1920 C   0  0  0  0  0  2  0  0  0  0  0  0
  197.1480  170.9320  137.1420 O   0  0  0  0  0  0  0  0  0  0  0  0
  198.4590  170.4700  136.8330 C   0  0  2  0  0  0  0  0  0  0  0  0
  199.4940  171.4210  137.4250 C   0  0  0  0  0  1  0  0  0  0  0  0
  199.4340  171.3850  134.7880 O   0  0  0  0  0  1  0  0  0  0  0  0
  199.3370  169.1150  135.0130 O   0  0  0  0  0  1  0  0  0  0  0  0
  198.6960  170.3170  135.3080 C   0  0  0  0  0  3  0  0  0  0  0  0
  198.6570  169.1440  137.5230 C   0  0  0  0  0  3  0  0  0  0  0  0
  197.9490  168.7810  138.5900 C   0  0  0  0  0  2  0  0  0  0  0  0
  1 38  1  1  0  0  0
  1  8  1  0  0  0  0
  1  7  1  0  0  0  0
  2  7  2  0  0  0  0
  2  3  1  0  0  0  0
  3  6  2  0  0  0  0
  4  5  2  0  0  0  0
  6  5  1  0  0  0  0
  7  4  1  0  0  0  0
  8 12  1  0  0  0  0
  9 11  1  0  0  0  0
 10  8  2  0  0  0  0
 11 12  2  0  0  0  0
 12 14  1  0  0  0  0
 13 10  1  0  0  0  0
 13  9  2  0  0  0  0
 14 15  1  0  0  0  0
 15 16  1  0  0  0  0
 16 19  1  0  0  0  0
 17 16  1  0  0  0  0
 18 17  1  0  0  0  0
 20 19  1  1  0  0  0
 20 22  1  0  0  0  0
 20 36  1  0  0  0  0
 22 21  2  0  0  0  0
 22 23  1  0  0  0  0
 23 24  1  0  0  0  0
 24 33  1  6  0  0  0
 26 25  1  6  0  0  0
 27 24  1  6  0  0  0
 27 28  1  0  0  0  0
 27 26  1  0  0  0  0
 28 31  1  6  0  0  0
 28 26  1  0  0  0  0
 28 29  1  0  0  0  0
 29 30  1  0  0  0  0
 32 31  1  0  0  0  0
 33 34  1  0  0  0  0
 35 34  1  0  0  0  0
 36 37  1  0  0  0  0
 39 38  1  6  0  0  0
 39 41  1  0  0  0  0
 40 41  2  0  0  0  0
 42 51  1  0  0  0  0
 42 39  1  0  0  0  0
 43 48  1  6  0  0  0
 43 44  1  0  0  0  0
 44 47  1  1  0  0  0
 45 43  1  0  0  0  0
 45 46  1  0  0  0  0
 46 60  1  6  0  0  0
 46 50  1  0  0  0  0
 48 49  1  0  0  0  0
 49 55  1  1  0  0  0
 49 51  1  0  0  0  0
 50 47  1  0  0  0  0
 50 52  1  1  0  0  0
 51 44  1  0  0  0  0
 54 50  1  0  0  0  0
 54 53  1  0  0  0  0
 55 56  1  6  0  0  0
 57 56  1  0  0  0  0
 58 59  1  0  0  0  0
 59 55  1  0  0  0  0
 60 61  1  0  0  0  0
 62 61  1  0  0  0  0
 62 63  1  1  0  0  0
 62 67  1  0  0  0  0
 64 66  1  0  0  0  0
 65 66  1  0  0  0  0
 66 62  1  0  0  0  0
 67 68  2  0  0  0  0
M  END
>  <MODEL>
5

>  <REMARK>
 VINA RESULT:      -2.7      2.298     10.306
  Name = 
  30 active torsions:
  status: ('A' for Active; 'I' for Inactive)
    1  A    between atoms: C_2  and  C_21
    2  A    between atoms: C_2  and  O_34
    3  A    between atoms: C_2  and  C_60
    4  A    between atoms: N_4  and  C_56
    5  A    between atoms: N_4  and  N_65
    6  A    between atoms: C_8  and  C_57
    7  A    between atoms: C_10  and  O_34
    8  A    between atoms: C_10  and  C_44
    9  A    between atoms: C_17  and  C_50
   10  A    between atoms: O_19  and  C_61
   11  A    between atoms: C_20  and  C_39
   12  A    between atoms: C_23  and  C_45
   13  A    between atoms: C_23  and  O_54
   14  A    between atoms: C_23  and  N_67
   15  A    between atoms: C_25  and  N_65
   16  A    between atoms: C_26  and  C_33
   17  A    between atoms: C_26  and  C_57
   18  A    between atoms: C_27  and  C_58
   19  A    between atoms: C_30  and  C_50
   20  A    between atoms: C_30  and  N_65
   21  A    between atoms: C_33  and  C_52
   22  A    between atoms: C_33  and  C_55
   23  A    between atoms: C_36  and  C_58
   24  A    between atoms: C_38  and  C_57
   25  A    between atoms: C_39  and  O_53
   26  A    between atoms: C_39  and  C_59
   27  A    between atoms: C_47  and  C_56
   28  A    between atoms: C_50  and  C_64
   29  A    between atoms: C_51  and  O_54
   30  A    between atoms: C_52  and  N_62
                            x       y       z     vdW  Elec       q    Type
                         _______ _______ _______ _____ _____    ______ ____

>  <TORSDO>
F 30

$$$$
=
 OpenBabel10232410233D

 68 73  0  0  1  0  0  0  0  0999 V2000
  189.0040  177.0540  137.6110 C   0  0  2  0  0  3  0  0  0  0  0  0
  189.1060  175.0040  136.1300 C   0  0  0  0  0  3  0  0  0  0  0  0
  189.7530  174.2230  135.1650 C   0  0  0  0  0  3  0  0  0  0  0  0
  190.8930  176.6360  136.0110 C   0  0  0  0  0  3  0  0  0  0  0  0
  191.5430  175.8490  135.0520 C   0  0  0  0  0  3  0  0  0  0  0  0
  190.9760  174.6400  134.6340 C   0  0  0  0  0  3  0  0  0  0  0  0
  189.6810  176.2110  136.5650 C   0  0  0  0  0  0  0  0  0  0  0  0
  189.6300  177.1700  138.9860 C   0  0  0  0  0  0  0  0  0  0  0  0
  191.0340  177.3010  141.3700 C   0  0  0  0  0  3  0  0  0  0  0  0
  190.8490  176.5910  139.1410 N   0  0  0  0  0  0  0  0  0  0  0  0
  189.7930  177.9220  141.2860 C   0  0  0  0  0  3  0  0  0  0  0  0
  189.0780  177.8840  140.0880 C   0  0  0  0  0  0  0  0  0  0  0  0
  191.5340  176.6590  140.2810 N   0  0  0  0  0  0  0  0  0  0  0  0
  187.7580  178.5840  140.0520 C   0  0  0  0  0  2  0  0  0  0  0  0
  186.8080  177.8850  140.9150 N   0  0  0  0  0  2  0  0  0  0  0  0
  185.9700  178.8390  141.5080 N   0  0  0  0  0  0  0  0  0  0  0  0
  184.6770  178.1740  141.7600 C   0  0  0  0  0  0  0  0  0  0  0  0
  184.3610  177.2630  140.7540 O   0  0  0  0  0  0  0  0  0  0  0  0
  186.6260  179.2380  142.7610 C   0  0  0  0  0  2  0  0  0  0  0  0
  185.7000  179.1570  143.9820 C   0  0  2  0  0  3  0  0  0  0  0  0
  185.9200  179.0500  146.3810 O   0  0  0  0  0  0  0  0  0  0  0  0
  186.3700  178.7050  145.2530 C   0  0  0  0  0  0  0  0  0  0  0  0
  187.4870  177.8180  145.1680 N   0  0  0  0  0  2  0  0  0  0  0  0
  188.0590  177.1350  146.3180 C   0  0  1  0  0  3  0  0  0  0  0  0
  189.6100  178.5140  144.0070 C   0  0  0  0  0  1  0  0  0  0  0  0
  190.4060  178.0380  145.2230 C   0  0  1  0  0  3  0  0  0  0  0  0
  189.5920  177.3920  146.3720 C   0  0  2  0  0  3  0  0  0  0  0  0
  190.4290  176.5220  145.4240 C   0  0  2  0  0  0  0  0  0  0  0  0
  191.7370  176.0210  146.0290 C   0  0  0  0  0  2  0  0  0  0  0  0
  191.7410  176.2060  147.5330 C   0  0  0  0  0  1  0  0  0  0  0  0
  189.7370  175.6370  144.3790 C   0  0  0  0  0  2  0  0  0  0  0  0
  190.6270  175.3130  143.3550 O   0  0  0  0  0  1  0  0  0  0  0  0
  187.3530  177.4940  147.4690 O   0  0  0  0  0  0  0  0  0  0  0  0
  188.3200  177.5240  148.4820 C   0  0  0  0  0  2  0  0  0  0  0  0
  188.3700  178.9140  149.0850 C   0  0  0  0  0  1  0  0  0  0  0  0
  184.4420  178.3530  143.6500 C   0  0  1  0  0  3  0  0  0  0  0  0
  183.2090  178.8800  144.3800 C   0  0  0  0  0  1  0  0  0  0  0  0
  187.4750  176.9330  137.6520 C   0  0  0  0  0  2  0  0  0  0  0  0
  186.7790  178.1420  137.0200 C   0  0  1  0  0  3  0  0  0  0  0  0
  187.7210  180.2980  136.9970 O   0  0  0  0  0  0  0  0  0  0  0  0
  187.7640  179.1600  136.5490 C   0  0  0  0  0  3  0  0  0  0  0  0
  185.8630  177.7280  135.8740 C   0  0  0  0  0  2  0  0  0  0  0  0
  183.8050  174.9990  135.3290 C   0  0  2  0  0  3  0  0  0  0  0  0
  185.0910  175.5210  135.8880 C   0  0  2  0  0  3  0  0  0  0  0  0
  184.0550  173.8540  134.5710 O   0  0  0  0  0  0  0  0  0  0  0  0
  184.2220  172.8590  135.5610 C   0  0  2  0  0  3  0  0  0  0  0  0
  185.4890  174.5500  136.9950 C   0  0  0  0  0  2  0  0  0  0  0  0
  183.2380  176.1840  134.6210 C   0  0  0  0  0  2  0  0  0  0  0  0
  183.5570  177.2720  135.6480 C   0  0  2  0  0  3  0  0  0  0  0  0
  185.4890  173.0890  136.4550 C   0  0  1  0  0  0  0  0  0  0  0  0
  184.7930  176.8710  136.3600 N   0  0  0  0  0  0  0  0  0  0  0  0
  185.4160  172.1370  137.6470 C   0  0  0  0  0  1  0  0  0  0  0  0
  187.4180  172.0210  136.3930 O   0  0  0  0  0  1  0  0  0  0  0  0
  186.6510  172.8360  135.6890 O   0  0  0  0  0  0  0  0  0  0  0  0
  182.3750  177.3830  136.6240 C   0  0  2  0  0  3  0  0  0  0  0  0
  181.3260  178.3840  136.1510 C   0  0  0  0  0  2  0  0  0  0  0  0
  181.1200  179.5130  137.1500 C   0  0  0  0  0  1  0  0  0  0  0  0
  182.1350  176.7340  138.7270 C   0  0  0  0  0  1  0  0  0  0  0  0
  182.7800  177.6810  137.9300 O   0  0  0  0  0  0  0  0  0  0  0  0
  184.0710  171.4520  134.9810 C   0  0  0  0  0  2  0  0  0  0  0  0
  182.8210  171.2840  134.3480 O   0  0  0  0  0  0  0  0  0  0  0  0
  181.9380  170.5270  135.1700 C   0  0  2  0  0  0  0  0  0  0  0  0
  181.4260  169.3160  134.3980 C   0  0  0  0  0  1  0  0  0  0  0  0
  180.4210  171.0450  137.0150 O   0  0  0  0  0  1  0  0  0  0  0  0
  180.9920  172.7310  135.5850 O   0  0  0  0  0  1  0  0  0  0  0  0
  180.7400  171.3640  135.6920 C   0  0  0  0  0  3  0  0  0  0  0  0
  182.7350  169.9860  136.3300 C   0  0  0  0  0  3  0  0  0  0  0  0
  183.8050  169.2130  136.1610 C   0  0  0  0  0  2  0  0  0  0  0  0
  1 38  1  1  0  0  0
  1  8  1  0  0  0  0
  2  7  1  0  0  0  0
  3  2  2  0  0  0  0
  4  7  2  0  0  0  0
  5  4  1  0  0  0  0
  6  5  2  0  0  0  0
  6  3  1  0  0  0  0
  7  1  1  0  0  0  0
  8 10  2  0  0  0  0
  8 12  1  0  0  0  0
 10 13  1  0  0  0  0
 11  9  1  0  0  0  0
 12 11  2  0  0  0  0
 13  9  2  0  0  0  0
 14 12  1  0  0  0  0
 14 15  1  0  0  0  0
 15 16  1  0  0  0  0
 16 17  1  0  0  0  0
 16 19  1  0  0  0  0
 17 36  1  0  0  0  0
 18 17  2  0  0  0  0
 19 20  1  0  0  0  0
 20 22  1  1  0  0  0
 22 21  2  0  0  0  0
 23 22  1  0  0  0  0
 24 23  1  6  0  0  0
 24 33  1  0  0  0  0
 26 25  1  6  0  0  0
 26 28  1  0  0  0  0
 26 27  1  0  0  0  0
 27 24  1  6  0  0  0
 28 31  1  6  0  0  0
 28 29  1  0  0  0  0
 28 27  1  0  0  0  0
 29 30  1  0  0  0  0
 32 31  1  0  0  0  0
 33 34  1  0  0  0  0
 34 35  1  0  0  0  0
 36 20  1  0  0  0  0
 36 37  1  6  0  0  0
 39 42  1  6  0  0  0
 39 38  1  0  0  0  0
 41 40  2  0  0  0  0
 41 39  1  0  0  0  0
 42 51  1  0  0  0  0
 43 48  1  6  0  0  0
 43 44  1  0  0  0  0
 44 51  1  0  0  0  0
 44 47  1  1  0  0  0
 45 43  1  0  0  0  0
 45 46  1  0  0  0  0
 46 60  1  6  0  0  0
 46 50  1  0  0  0  0
 48 49  1  0  0  0  0
 49 51  1  0  0  0  0
 49 55  1  1  0  0  0
 50 47  1  0  0  0  0
 50 52  1  1  0  0  0
 54 53  1  0  0  0  0
 54 50  1  0  0  0  0
 55 56  1  6  0  0  0
 55 59  1  0  0  0  0
 56 57  1  0  0  0  0
 59 58  1  0  0  0  0
 61 60  1  0  0  0  0
 61 62  1  0  0  0  0
 62 63  1  6  0  0  0
 62 66  1  0  0  0  0
 62 67  1  0  0  0  0
 65 66  1  0  0  0  0
 66 64  1  0  0  0  0
 68 67  2  0  0  0  0
M  END
>  <MODEL>
6

>  <REMARK>
 VINA RESULT:      -2.0      3.090     10.314
  Name = 
  30 active torsions:
  status: ('A' for Active; 'I' for Inactive)
    1  A    between atoms: C_2  and  C_21
    2  A    between atoms: C_2  and  O_34
    3  A    between atoms: C_2  and  C_60
    4  A    between atoms: N_4  and  C_56
    5  A    between atoms: N_4  and  N_65
    6  A    between atoms: C_8  and  C_57
    7  A    between atoms: C_10  and  O_34
    8  A    between atoms: C_10  and  C_44
    9  A    between atoms: C_17  and  C_50
   10  A    between atoms: O_19  and  C_61
   11  A    between atoms: C_20  and  C_39
   12  A    between atoms: C_23  and  C_45
   13  A    between atoms: C_23  and  O_54
   14  A    between atoms: C_23  and  N_67
   15  A    between atoms: C_25  and  N_65
   16  A    between atoms: C_26  and  C_33
   17  A    between atoms: C_26  and  C_57
   18  A    between atoms: C_27  and  C_58
   19  A    between atoms: C_30  and  C_50
   20  A    between atoms: C_30  and  N_65
   21  A    between atoms: C_33  and  C_52
   22  A    between atoms: C_33  and  C_55
   23  A    between atoms: C_36  and  C_58
   24  A    between atoms: C_38  and  C_57
   25  A    between atoms: C_39  and  O_53
   26  A    between atoms: C_39  and  C_59
   27  A    between atoms: C_47  and  C_56
   28  A    between atoms: C_50  and  C_64
   29  A    between atoms: C_51  and  O_54
   30  A    between atoms: C_52  and  N_62
                            x       y       z     vdW  Elec       q    Type
                         _______ _______ _______ _____ _____    ______ ____

>  <TORSDO>
F 30

$$$$
