=
 OpenBabel10232408443D

 55 61  0  0  1  0  0  0  0  0999 V2000
  189.6150  177.6760  139.0860 C   0  0  0  0  0  3  0  0  0  0  0  0
  188.6820  177.2020  136.6950 C   0  0  2  0  0  0  0  0  0  0  0  0
  189.4450  178.0690  135.9280 F   0  0  0  0  0  0  0  0  0  0  0  0
  190.5050  176.9230  139.8520 C   0  0  0  0  0  0  0  0  0  0  0  0
  189.4310  176.9000  137.9590 C   0  0  0  0  0  0  0  0  0  0  0  0
  189.7010  174.9770  135.8480 C   0  0  2  0  0  3  0  0  0  0  0  0
  188.4540  175.8860  135.9160 C   0  0  0  0  0  2  0  0  0  0  0  0
  190.8360  175.8030  139.2490 O   0  0  0  0  0  0  0  0  0  0  0  0
  190.2090  175.7880  138.1050 C   0  0  0  0  0  0  0  0  0  0  0  0
  190.2940  174.7890  137.1390 O   0  0  0  0  0  0  0  0  0  0  0  0
  187.3330  177.8490  137.0240 C   0  0  0  0  0  2  0  0  0  0  0  0
  186.1910  176.8380  137.1280 C   0  0  0  0  0  2  0  0  0  0  0  0
  184.8970  177.5000  137.4740 C   0  0  0  0  0  0  0  0  0  0  0  0
  183.9340  177.3930  136.7310 O   0  0  0  0  0  0  0  0  0  0  0  0
  184.7780  178.2750  138.7440 C   0  0  0  0  0  2  0  0  0  0  0  0
  183.4120  178.7310  138.9360 N   0  0  0  0  0  0  0  0  0  0  0  0
  180.6740  180.3520  138.0810 O   0  0  0  0  0  1  0  0  0  0  0  0
  182.9700  180.0920  138.7040 C   0  0  0  0  0  2  0  0  0  0  0  0
  181.5090  180.1470  139.1780 C   0  0  2  0  0  3  0  0  0  0  0  0
  181.1770  178.7950  139.8240 C   0  0  1  0  0  3  0  0  0  0  0  0
  182.5230  176.7850  139.9020 O   0  0  0  0  0  0  0  0  0  0  0  0
  182.3980  177.9970  139.5860 C   0  0  0  0  0  0  0  0  0  0  0  0
  179.9850  177.9300  142.0710 O   0  0  0  0  0  0  0  0  0  0  0  0
  180.2990  180.3560  141.8360 O   0  0  0  0  0  0  0  0  0  0  0  0
  180.9070  179.0070  141.5770 S   0  0  0  0  0  0  0  0  0  0  0  0
  181.4990  178.8810  144.5410 O   0  0  0  0  0  0  0  0  0  0  0  0
  182.4270  178.8850  142.3980 N   0  0  0  0  0  2  0  0  0  0  0  0
  182.5300  178.8490  143.8200 C   0  0  0  0  0  0  0  0  0  0  0  0
  183.8700  178.7320  144.4540 C   0  0  0  0  0  2  0  0  0  0  0  0
  184.7990  178.3040  143.5070 O   0  0  0  0  0  1  0  0  0  0  0  0
  190.7250  175.5350  134.8640 C   0  0  0  0  0  2  0  0  0  0  0  0
  192.0590  175.3730  135.3790 N   0  0  0  0  0  0  0  0  0  0  0  0
  192.8530  176.3770  135.4720 C   0  0  0  0  0  3  0  0  0  0  0  0
  198.0360  174.7700  136.7730 C   0  0  0  0  0  2  0  0  0  0  0  0
  196.2660  173.3170  137.5100 N   0  0  0  0  0  0  0  0  0  0  0  0
  194.2410  176.1940  135.9880 C   0  0  2  0  0  3  0  0  0  0  0  0
  197.7150  173.4780  137.5190 C   0  0  0  0  0  2  0  0  0  0  0  0
  196.7640  175.4370  136.5870 N   0  0  1  0  0  0  0  0  0  0  0  0
  195.2570  177.8370  134.5450 O   0  0  0  0  0  1  0  0  0  0  0  0
  195.2820  176.4810  134.8820 C   0  0  1  0  0  3  0  0  0  0  0  0
  196.7230  176.0830  135.2760 C   0  0  0  0  0  2  0  0  0  0  0  0
  195.8080  173.6800  138.8460 C   0  0  0  0  0  1  0  0  0  0  0  0
  195.8430  174.3190  136.5350 C   0  0  2  0  0  3  0  0  0  0  0  0
  194.3880  174.7910  136.6120 C   0  0  0  0  0  2  0  0  0  0  0  0
  191.0320  177.3060  141.1960 C   0  0  0  0  0  2  0  0  0  0  0  0
  190.2620  176.6340  142.3270 C   0  0  0  0  0  2  0  0  0  0  0  0
  188.1040  176.1570  143.1140 C   0  0  0  0  0  2  0  0  0  0  0  0
  188.4440  177.3760  143.8340 C   0  0  2  0  0  3  0  0  0  0  0  0
  188.9090  177.1840  142.4340 N   0  0  0  0  0  0  0  0  0  0  0  0
  189.4810  177.0740  144.9180 C   0  0  0  0  0  2  0  0  0  0  0  0
  187.8670  178.2850  146.1150 C   0  0  0  0  0  2  0  0  0  0  0  0
  189.2970  177.9870  146.0360 N   0  0  0  0  0  0  0  0  0  0  0  0
  188.5290  177.4460  148.2480 C   0  0  0  0  0  2  0  0  0  0  0  0
  187.3170  177.6740  147.3880 C   0  0  0  0  0  2  0  0  0  0  0  0
  189.6480  177.2540  147.2520 C   0  0  0  0  0  2  0  0  0  0  0  0
  1  4  2  0  0  0  0
  2  3  1  6  0  0  0
  2 11  1  0  0  0  0
  2  5  1  0  0  0  0
  4 45  1  0  0  0  0
  5  9  2  0  0  0  0
  5  1  1  0  0  0  0
  6 31  1  6  0  0  0
  6  7  1  0  0  0  0
  6 10  1  0  0  0  0
  7  2  1  0  0  0  0
  8  4  1  0  0  0  0
  9  8  1  0  0  0  0
 10  9  1  0  0  0  0
 11 12  1  0  0  0  0
 12 13  1  0  0  0  0
 13 15  1  0  0  0  0
 14 13  2  0  0  0  0
 15 16  1  0  0  0  0
 16 22  1  0  0  0  0
 18 16  1  0  0  0  0
 18 19  1  0  0  0  0
 19 17  1  6  0  0  0
 19 20  1  0  0  0  0
 20 25  1  1  0  0  0
 22 20  1  0  0  0  0
 22 21  2  0  0  0  0
 25 24  2  0  0  0  0
 25 23  2  0  0  0  0
 25 27  1  0  0  0  0
 27 28  1  0  0  0  0
 28 29  1  0  0  0  0
 28 26  2  0  0  0  0
 30 29  1  0  0  0  0
 31 32  1  0  0  0  0
 32 33  2  0  0  0  0
 34 37  1  0  0  0  0
 35 37  1  0  0  0  0
 35 42  1  0  0  0  0
 36 33  1  6  0  0  0
 36 44  1  0  0  0  0
 38 41  1  6  0  0  0
 38 34  1  0  0  0  0
 40 39  1  1  0  0  0
 40 41  1  0  0  0  0
 40 36  1  0  0  0  0
 43 38  1  0  0  0  0
 43 44  1  1  0  0  0
 43 35  1  0  0  0  0
 45 46  1  0  0  0  0
 46 49  1  0  0  0  0
 47 48  1  0  0  0  0
 48 50  1  1  0  0  0
 49 47  1  0  0  0  0
 49 48  1  0  0  0  0
 50 52  1  0  0  0  0
 51 54  1  0  0  0  0
 52 51  1  0  0  0  0
 52 55  1  0  0  0  0
 54 53  1  0  0  0  0
 55 53  1  0  0  0  0
M  END
>  <MODEL>
1

>  <REMARK>
 VINA RESULT:      -8.1      0.000      0.000
  Name = 
  16 active torsions:
  status: ('A' for Active; 'I' for Inactive)
    1  A    between atoms: C_1  and  C_6
    2  A    between atoms: C_1  and  C_46
    3  A    between atoms: C_9  and  C_22
    4  A    between atoms: C_10  and  C_13
    5  A    between atoms: C_10  and  C_46
    6  A    between atoms: C_11  and  C_32
    7  A    between atoms: C_13  and  N_15
    8  A    between atoms: C_14  and  C_43
    9  A    between atoms: N_17  and  C_30
   10  A    between atoms: C_22  and  C_41
   11  A    between atoms: C_26  and  C_30
   12  A    between atoms: N_28  and  S_54
   13  A    between atoms: C_31  and  C_40
   14  A    between atoms: C_36  and  S_54
   15  A    between atoms: N_39  and  C_40
   16  A    between atoms: C_41  and  N_53
                            x       y       z     vdW  Elec       q    Type
                         _______ _______ _______ _____ _____    ______ ____

>  <TORSDO>
F 16

$$$$
=
 OpenBabel10232408443D

 55 61  0  0  1  0  0  0  0  0999 V2000
  190.3290  176.4630  139.2710 C   0  0  0  0  0  3  0  0  0  0  0  0
  188.9590  176.3160  137.0540 C   0  0  2  0  0  0  0  0  0  0  0  0
  187.9350  175.4580  137.4230 F   0  0  0  0  0  0  0  0  0  0  0  0
  190.3640  177.4850  140.2210 C   0  0  0  0  0  0  0  0  0  0  0  0
  189.5000  176.9710  138.2900 C   0  0  0  0  0  0  0  0  0  0  0  0
  187.5530  178.4770  136.8190 C   0  0  2  0  0  3  0  0  0  0  0  0
  188.4060  177.4050  136.1060 C   0  0  0  0  0  2  0  0  0  0  0  0
  189.6250  178.5090  139.8590 O   0  0  0  0  0  0  0  0  0  0  0  0
  189.0890  178.2040  138.7090 C   0  0  0  0  0  0  0  0  0  0  0  0
  188.2150  179.0020  137.9760 O   0  0  0  0  0  0  0  0  0  0  0  0
  190.0680  175.5290  136.3470 C   0  0  0  0  0  2  0  0  0  0  0  0
  190.0160  174.0280  136.6370 C   0  0  0  0  0  2  0  0  0  0  0  0
  190.6140  173.2310  135.5230 C   0  0  0  0  0  0  0  0  0  0  0  0
  190.1280  172.1560  135.2090 O   0  0  0  0  0  0  0  0  0  0  0  0
  191.7940  173.7630  134.7820 C   0  0  0  0  0  2  0  0  0  0  0  0
  192.9170  173.9580  135.6840 N   0  0  0  0  0  0  0  0  0  0  0  0
  194.5370  175.4680  138.1240 O   0  0  0  0  0  1  0  0  0  0  0  0
  193.5100  175.2490  135.9730 C   0  0  0  0  0  2  0  0  0  0  0  0
  194.7440  174.9600  136.8420 C   0  0  2  0  0  3  0  0  0  0  0  0
  194.9140  173.4370  136.9190 C   0  0  1  0  0  3  0  0  0  0  0  0
  193.4330  171.7060  136.0990 O   0  0  0  0  0  0  0  0  0  0  0  0
  193.7220  172.9270  136.2090 C   0  0  0  0  0  0  0  0  0  0  0  0
  196.6110  173.8400  134.8760 O   0  0  0  0  0  0  0  0  0  0  0  0
  196.2790  171.5190  135.6100 O   0  0  0  0  0  0  0  0  0  0  0  0
  196.4030  172.9450  136.0640 S   0  0  0  0  0  0  0  0  0  0  0  0
  197.9580  175.4090  136.8780 O   0  0  0  0  0  0  0  0  0  0  0  0
  197.7470  173.0990  137.1440 N   0  0  0  0  0  2  0  0  0  0  0  0
  198.3780  174.3490  137.4110 C   0  0  0  0  0  0  0  0  0  0  0  0
  199.5210  174.4050  138.3600 C   0  0  0  0  0  2  0  0  0  0  0  0
  199.3300  175.4530  139.2600 O   0  0  0  0  0  1  0  0  0  0  0  0
  186.1830  177.9200  137.1910 C   0  0  0  0  0  2  0  0  0  0  0  0
  185.8300  178.3050  138.5320 N   0  0  0  0  0  0  0  0  0  0  0  0
  184.6280  178.6500  138.8210 C   0  0  0  0  0  3  0  0  0  0  0  0
  183.0300  179.1400  144.1450 C   0  0  0  0  0  2  0  0  0  0  0  0
  181.2960  178.5880  142.5720 N   0  0  0  0  0  0  0  0  0  0  0  0
  184.2780  179.0680  140.2110 C   0  0  2  0  0  3  0  0  0  0  0  0
  181.5410  178.8460  143.9850 C   0  0  0  0  0  2  0  0  0  0  0  0
  183.5420  179.2970  142.8000 N   0  0  1  0  0  0  0  0  0  0  0  0
  186.5460  179.1280  141.0260 O   0  0  0  0  0  1  0  0  0  0  0  0
  185.3050  178.5170  141.2260 C   0  0  1  0  0  3  0  0  0  0  0  0
  184.8770  178.7100  142.6990 C   0  0  0  0  0  2  0  0  0  0  0  0
  180.6630  179.7900  142.0420 C   0  0  0  0  0  1  0  0  0  0  0  0
  182.6480  178.4460  142.0380 C   0  0  2  0  0  3  0  0  0  0  0  0
  182.8260  178.6580  140.5320 C   0  0  0  0  0  2  0  0  0  0  0  0
  191.1380  177.4550  141.4980 C   0  0  0  0  0  2  0  0  0  0  0  0
  190.2950  177.8940  142.6890 C   0  0  0  0  0  2  0  0  0  0  0  0
  189.1510  175.9000  143.1580 C   0  0  0  0  0  2  0  0  0  0  0  0
  188.4500  176.8720  143.9850 C   0  0  2  0  0  3  0  0  0  0  0  0
  188.9710  177.2690  142.6490 N   0  0  0  0  0  0  0  0  0  0  0  0
  189.3220  177.2750  145.1760 C   0  0  0  0  0  2  0  0  0  0  0  0
  189.5720  177.2390  147.5090 C   0  0  0  0  0  2  0  0  0  0  0  0
  188.6780  176.8590  146.4140 N   0  0  0  0  0  0  0  0  0  0  0  0
  187.4520  178.2390  147.9530 C   0  0  0  0  0  2  0  0  0  0  0  0
  188.9070  178.3380  148.3130 C   0  0  0  0  0  2  0  0  0  0  0  0
  187.4640  177.6610  146.5580 C   0  0  0  0  0  2  0  0  0  0  0  0
  1  4  2  0  0  0  0
  2  3  1  1  0  0  0
  2  5  1  0  0  0  0
  4 45  1  0  0  0  0
  5  9  2  0  0  0  0
  5  1  1  0  0  0  0
  6 31  1  1  0  0  0
  6 10  1  0  0  0  0
  7  6  1  0  0  0  0
  7  2  1  0  0  0  0
  8  4  1  0  0  0  0
  9  8  1  0  0  0  0
 10  9  1  0  0  0  0
 11 12  1  0  0  0  0
 11  2  1  0  0  0  0
 13 12  1  0  0  0  0
 14 13  2  0  0  0  0
 15 13  1  0  0  0  0
 15 16  1  0  0  0  0
 16 18  1  0  0  0  0
 16 22  1  0  0  0  0
 18 19  1  0  0  0  0
 19 20  1  0  0  0  0
 19 17  1  1  0  0  0
 20 25  1  6  0  0  0
 21 22  2  0  0  0  0
 22 20  1  0  0  0  0
 23 25  2  0  0  0  0
 24 25  2  0  0  0  0
 25 27  1  0  0  0  0
 26 28  2  0  0  0  0
 27 28  1  0  0  0  0
 28 29  1  0  0  0  0
 29 30  1  0  0  0  0
 31 32  1  0  0  0  0
 32 33  2  0  0  0  0
 35 37  1  0  0  0  0
 36 33  1  6  0  0  0
 36 44  1  0  0  0  0
 36 40  1  0  0  0  0
 37 34  1  0  0  0  0
 38 41  1  1  0  0  0
 38 34  1  0  0  0  0
 40 39  1  1  0  0  0
 40 41  1  0  0  0  0
 42 35  1  0  0  0  0
 43 44  1  6  0  0  0
 43 35  1  0  0  0  0
 43 38  1  0  0  0  0
 45 46  1  0  0  0  0
 47 48  1  0  0  0  0
 48 50  1  1  0  0  0
 49 46  1  0  0  0  0
 49 47  1  0  0  0  0
 49 48  1  0  0  0  0
 50 52  1  0  0  0  0
 51 54  1  0  0  0  0
 52 55  1  0  0  0  0
 52 51  1  0  0  0  0
 53 54  1  0  0  0  0
 55 53  1  0  0  0  0
M  END
>  <MODEL>
2

>  <REMARK>
 VINA RESULT:      -7.9      3.471     11.001
  Name = 
  16 active torsions:
  status: ('A' for Active; 'I' for Inactive)
    1  A    between atoms: C_1  and  C_6
    2  A    between atoms: C_1  and  C_46
    3  A    between atoms: C_9  and  C_22
    4  A    between atoms: C_10  and  C_13
    5  A    between atoms: C_10  and  C_46
    6  A    between atoms: C_11  and  C_32
    7  A    between atoms: C_13  and  N_15
    8  A    between atoms: C_14  and  C_43
    9  A    between atoms: N_17  and  C_30
   10  A    between atoms: C_22  and  C_41
   11  A    between atoms: C_26  and  C_30
   12  A    between atoms: N_28  and  S_54
   13  A    between atoms: C_31  and  C_40
   14  A    between atoms: C_36  and  S_54
   15  A    between atoms: N_39  and  C_40
   16  A    between atoms: C_41  and  N_53
                            x       y       z     vdW  Elec       q    Type
                         _______ _______ _______ _____ _____    ______ ____

>  <TORSDO>
F 16

$$$$
=
 OpenBabel10232408443D

 55 61  0  0  1  0  0  0  0  0999 V2000
  189.1350  176.7080  139.4020 C   0  0  0  0  0  3  0  0  0  0  0  0
  188.2480  176.0440  137.0390 C   0  0  2  0  0  0  0  0  0  0  0  0
  187.2350  175.1570  137.3680 F   0  0  0  0  0  0  0  0  0  0  0  0
  188.9080  177.8730  140.1350 C   0  0  0  0  0  0  0  0  0  0  0  0
  188.4840  176.9520  138.2090 C   0  0  0  0  0  0  0  0  0  0  0  0
  186.7650  177.9730  136.1520 C   0  0  2  0  0  3  0  0  0  0  0  0
  187.8180  176.8920  135.8200 C   0  0  0  0  0  2  0  0  0  0  0  0
  188.1840  178.7370  139.4600 O   0  0  0  0  0  0  0  0  0  0  0  0
  187.9110  178.1870  138.3090 C   0  0  0  0  0  0  0  0  0  0  0  0
  187.1450  178.7530  137.2930 O   0  0  0  0  0  0  0  0  0  0  0  0
  189.5280  175.2710  136.7060 C   0  0  0  0  0  2  0  0  0  0  0  0
  190.6600  176.1700  136.2060 C   0  0  0  0  0  2  0  0  0  0  0  0
  191.6850  175.3940  135.4440 C   0  0  0  0  0  0  0  0  0  0  0  0
  191.5760  174.1840  135.3270 O   0  0  0  0  0  0  0  0  0  0  0  0
  192.8320  176.1070  134.8090 C   0  0  0  0  0  2  0  0  0  0  0  0
  194.0910  175.4960  135.2010 N   0  0  0  0  0  0  0  0  0  0  0  0
  197.2280  174.6010  134.7370 O   0  0  0  0  0  1  0  0  0  0  0  0
  194.8670  174.6170  134.3470 C   0  0  0  0  0  2  0  0  0  0  0  0
  196.0200  174.0960  135.2170 C   0  0  2  0  0  3  0  0  0  0  0  0
  195.7910  174.6010  136.6480 C   0  0  1  0  0  3  0  0  0  0  0  0
  194.1180  176.1540  137.4540 O   0  0  0  0  0  0  0  0  0  0  0  0
  194.6070  175.4750  136.5120 C   0  0  0  0  0  0  0  0  0  0  0  0
  193.9850  172.8340  137.5630 O   0  0  0  0  0  0  0  0  0  0  0  0
  195.6850  173.6200  139.1550 O   0  0  0  0  0  0  0  0  0  0  0  0
  195.4260  173.2260  137.7290 S   0  0  0  0  0  0  0  0  0  0  0  0
  195.2450  170.3200  138.5490 O   0  0  0  0  0  0  0  0  0  0  0  0
  196.4390  171.8900  137.3000 N   0  0  0  0  0  2  0  0  0  0  0  0
  196.2180  170.5700  137.7900 C   0  0  0  0  0  0  0  0  0  0  0  0
  197.1250  169.4700  137.3690 C   0  0  0  0  0  2  0  0  0  0  0  0
  198.4370  169.7880  137.7160 O   0  0  0  0  0  1  0  0  0  0  0  0
  185.3920  177.3450  136.3660 C   0  0  0  0  0  2  0  0  0  0  0  0
  185.0380  177.3680  137.7600 N   0  0  0  0  0  0  0  0  0  0  0  0
  183.8850  177.7860  138.1370 C   0  0  0  0  0  3  0  0  0  0  0  0
  182.7760  179.0270  143.4640 C   0  0  0  0  0  2  0  0  0  0  0  0
  185.0480  179.3720  142.7540 N   0  0  0  0  0  0  0  0  0  0  0  0
  183.5360  177.8250  139.5890 C   0  0  2  0  0  3  0  0  0  0  0  0
  184.1640  179.4810  143.9070 C   0  0  0  0  0  2  0  0  0  0  0  0
  182.9610  178.4310  142.1570 N   0  0  1  0  0  0  0  0  0  0  0  0
  181.1520  177.6600  139.2710 O   0  0  0  0  0  1  0  0  0  0  0  0
  182.1520  178.4770  139.8040 C   0  0  1  0  0  3  0  0  0  0  0  0
  181.8330  178.7640  141.2900 C   0  0  0  0  0  2  0  0  0  0  0  0
  185.8560  178.1770  142.9710 C   0  0  0  0  0  1  0  0  0  0  0  0
  184.1090  179.1600  141.6550 C   0  0  2  0  0  3  0  0  0  0  0  0
  184.6650  178.5170  140.3810 C   0  0  0  0  0  2  0  0  0  0  0  0
  189.4130  178.1420  141.5150 C   0  0  0  0  0  2  0  0  0  0  0  0
  189.4430  176.8810  142.3700 C   0  0  0  0  0  2  0  0  0  0  0  0
  190.6720  178.3130  143.7650 C   0  0  0  0  0  2  0  0  0  0  0  0
  190.1760  177.3080  144.6960 C   0  0  2  0  0  3  0  0  0  0  0  0
  190.5620  176.9170  143.3130 N   0  0  0  0  0  0  0  0  0  0  0  0
  188.6770  177.5020  144.9290 C   0  0  0  0  0  2  0  0  0  0  0  0
  189.5080  177.0310  147.0710 C   0  0  0  0  0  2  0  0  0  0  0  0
  188.3120  176.9640  146.2310 N   0  0  0  0  0  0  0  0  0  0  0  0
  187.7750  178.2010  148.2210 C   0  0  0  0  0  2  0  0  0  0  0  0
  189.2690  178.0510  148.1680 C   0  0  0  0  0  2  0  0  0  0  0  0
  187.3290  177.8760  146.8140 C   0  0  0  0  0  2  0  0  0  0  0  0
  1  4  2  0  0  0  0
  2  3  1  1  0  0  0
  2  5  1  0  0  0  0
  4 45  1  0  0  0  0
  5  9  2  0  0  0  0
  5  1  1  0  0  0  0
  6 31  1  1  0  0  0
  6 10  1  0  0  0  0
  7  6  1  0  0  0  0
  7  2  1  0  0  0  0
  8  4  1  0  0  0  0
  9  8  1  0  0  0  0
 10  9  1  0  0  0  0
 11  2  1  0  0  0  0
 12 11  1  0  0  0  0
 13 12  1  0  0  0  0
 14 13  2  0  0  0  0
 15 16  1  0  0  0  0
 15 13  1  0  0  0  0
 16 22  1  0  0  0  0
 18 16  1  0  0  0  0
 18 19  1  0  0  0  0
 19 17  1  6  0  0  0
 19 20  1  0  0  0  0
 20 25  1  1  0  0  0
 22 20  1  0  0  0  0
 22 21  2  0  0  0  0
 23 25  2  0  0  0  0
 25 24  2  0  0  0  0
 27 25  1  0  0  0  0
 27 28  1  0  0  0  0
 28 26  2  0  0  0  0
 29 30  1  0  0  0  0
 29 28  1  0  0  0  0
 31 32  1  0  0  0  0
 32 33  2  0  0  0  0
 34 37  1  0  0  0  0
 35 42  1  0  0  0  0
 35 37  1  0  0  0  0
 36 33  1  6  0  0  0
 36 40  1  0  0  0  0
 36 44  1  0  0  0  0
 38 41  1  6  0  0  0
 38 34  1  0  0  0  0
 40 39  1  1  0  0  0
 40 41  1  0  0  0  0
 43 44  1  6  0  0  0
 43 38  1  0  0  0  0
 43 35  1  0  0  0  0
 45 46  1  0  0  0  0
 46 49  1  0  0  0  0
 47 48  1  0  0  0  0
 48 50  1  6  0  0  0
 49 47  1  0  0  0  0
 49 48  1  0  0  0  0
 50 52  1  0  0  0  0
 51 54  1  0  0  0  0
 52 55  1  0  0  0  0
 52 51  1  0  0  0  0
 54 53  1  0  0  0  0
 55 53  1  0  0  0  0
M  END
>  <MODEL>
3

>  <REMARK>
 VINA RESULT:      -7.8      3.374     10.885
  Name = 
  16 active torsions:
  status: ('A' for Active; 'I' for Inactive)
    1  A    between atoms: C_1  and  C_6
    2  A    between atoms: C_1  and  C_46
    3  A    between atoms: C_9  and  C_22
    4  A    between atoms: C_10  and  C_13
    5  A    between atoms: C_10  and  C_46
    6  A    between atoms: C_11  and  C_32
    7  A    between atoms: C_13  and  N_15
    8  A    between atoms: C_14  and  C_43
    9  A    between atoms: N_17  and  C_30
   10  A    between atoms: C_22  and  C_41
   11  A    between atoms: C_26  and  C_30
   12  A    between atoms: N_28  and  S_54
   13  A    between atoms: C_31  and  C_40
   14  A    between atoms: C_36  and  S_54
   15  A    between atoms: N_39  and  C_40
   16  A    between atoms: C_41  and  N_53
                            x       y       z     vdW  Elec       q    Type
                         _______ _______ _______ _____ _____    ______ ____

>  <TORSDO>
F 16

$$$$
=
 OpenBabel10232408443D

 55 61  0  0  1  0  0  0  0  0999 V2000
  189.3740  176.7760  139.8740 C   0  0  0  0  0  3  0  0  0  0  0  0
  188.7910  176.1640  137.4040 C   0  0  2  0  0  0  0  0  0  0  0  0
  187.7450  175.2720  137.5850 F   0  0  0  0  0  0  0  0  0  0  0  0
  189.0560  177.9250  140.5980 C   0  0  0  0  0  0  0  0  0  0  0  0
  188.8770  177.0460  138.6140 C   0  0  0  0  0  0  0  0  0  0  0  0
  187.4290  178.1140  136.3810 C   0  0  2  0  0  3  0  0  0  0  0  0
  188.5150  177.0390  136.1600 C   0  0  0  0  0  2  0  0  0  0  0  0
  188.4220  178.8040  139.8560 O   0  0  0  0  0  0  0  0  0  0  0  0
  188.2960  178.2800  138.6680 C   0  0  0  0  0  0  0  0  0  0  0  0
  187.6620  178.8690  137.5770 O   0  0  0  0  0  0  0  0  0  0  0  0
  190.1030  175.3960  137.2180 C   0  0  0  0  0  2  0  0  0  0  0  0
  191.2350  176.2660  136.6700 C   0  0  0  0  0  2  0  0  0  0  0  0
  191.9020  175.6280  135.4950 C   0  0  0  0  0  0  0  0  0  0  0  0
  191.2700  175.4130  134.4720 O   0  0  0  0  0  0  0  0  0  0  0  0
  193.3500  175.2720  135.5680 C   0  0  0  0  0  2  0  0  0  0  0  0
  193.5230  173.8300  135.5120 N   0  0  0  0  0  0  0  0  0  0  0  0
  192.4750  170.7250  135.1730 O   0  0  0  0  0  1  0  0  0  0  0  0
  192.6620  172.8820  136.1920 C   0  0  0  0  0  2  0  0  0  0  0  0
  193.3040  171.5030  135.9790 C   0  0  2  0  0  3  0  0  0  0  0  0
  194.6480  171.7180  135.2700 C   0  0  1  0  0  3  0  0  0  0  0  0
  195.5680  173.7640  134.3610 O   0  0  0  0  0  0  0  0  0  0  0  0
  194.6590  173.1710  135.0000 C   0  0  0  0  0  0  0  0  0  0  0  0
  197.0670  170.5900  135.5720 O   0  0  0  0  0  0  0  0  0  0  0  0
  195.4890  170.3660  137.4420 O   0  0  0  0  0  0  0  0  0  0  0  0
  195.9920  171.2800  136.3620 S   0  0  0  0  0  0  0  0  0  0  0  0
  195.0990  172.7840  138.8300 O   0  0  0  0  0  0  0  0  0  0  0  0
  196.6330  172.7230  137.0700 N   0  0  0  0  0  2  0  0  0  0  0  0
  196.0790  173.3140  138.2440 C   0  0  0  0  0  0  0  0  0  0  0  0
  196.6900  174.5490  138.8010 C   0  0  0  0  0  2  0  0  0  0  0  0
  195.9270  175.0040  139.8760 O   0  0  0  0  0  1  0  0  0  0  0  0
  186.0400  177.4840  136.4070 C   0  0  0  0  0  2  0  0  0  0  0  0
  185.5300  177.4450  137.7520 N   0  0  0  0  0  0  0  0  0  0  0  0
  184.3890  177.9600  138.0350 C   0  0  0  0  0  3  0  0  0  0  0  0
  182.6700  178.9540  143.2510 C   0  0  0  0  0  2  0  0  0  0  0  0
  185.0020  179.3500  142.8170 N   0  0  0  0  0  0  0  0  0  0  0  0
  183.8780  177.9320  139.4380 C   0  0  2  0  0  3  0  0  0  0  0  0
  183.9920  179.4000  143.8670 C   0  0  0  0  0  2  0  0  0  0  0  0
  183.0090  178.4180  141.9490 N   0  0  1  0  0  0  0  0  0  0  0  0
  181.5480  177.7590  138.8460 O   0  0  0  0  0  1  0  0  0  0  0  0
  182.4690  178.5610  139.5230 C   0  0  1  0  0  3  0  0  0  0  0  0
  181.9810  178.7800  140.9740 C   0  0  0  0  0  2  0  0  0  0  0  0
  185.7970  178.1540  143.0730 C   0  0  0  0  0  1  0  0  0  0  0  0
  184.1960  179.1790  141.6110 C   0  0  2  0  0  3  0  0  0  0  0  0
  184.9000  178.5980  140.3820 C   0  0  0  0  0  2  0  0  0  0  0  0
  189.3840  178.1640  142.0350 C   0  0  0  0  0  2  0  0  0  0  0  0
  189.7490  176.8740  142.7610 C   0  0  0  0  0  2  0  0  0  0  0  0
  190.6230  178.4900  144.2210 C   0  0  0  0  0  2  0  0  0  0  0  0
  190.3090  177.3860  145.1170 C   0  0  2  0  0  3  0  0  0  0  0  0
  190.8090  177.1110  143.7430 N   0  0  0  0  0  0  0  0  0  0  0  0
  188.7950  177.2720  145.3010 C   0  0  0  0  0  2  0  0  0  0  0  0
  189.6700  177.1900  147.4760 C   0  0  0  0  0  2  0  0  0  0  0  0
  188.4980  176.8590  146.6650 N   0  0  0  0  0  0  0  0  0  0  0  0
  187.7910  178.2550  148.4890 C   0  0  0  0  0  2  0  0  0  0  0  0
  189.2920  178.2980  148.4380 C   0  0  0  0  0  2  0  0  0  0  0  0
  187.4000  177.6990  147.1400 C   0  0  0  0  0  2  0  0  0  0  0  0
  1  4  2  0  0  0  0
  2  3  1  1  0  0  0
  2  5  1  0  0  0  0
  4 45  1  0  0  0  0
  5  9  2  0  0  0  0
  5  1  1  0  0  0  0
  6 31  1  1  0  0  0
  6 10  1  0  0  0  0
  7  6  1  0  0  0  0
  7  2  1  0  0  0  0
  8  4  1  0  0  0  0
  9  8  1  0  0  0  0
 10  9  1  0  0  0  0
 11  2  1  0  0  0  0
 12 11  1  0  0  0  0
 13 15  1  0  0  0  0
 13 12  1  0  0  0  0
 14 13  2  0  0  0  0
 16 15  1  0  0  0  0
 16 18  1  0  0  0  0
 19 17  1  6  0  0  0
 19 18  1  0  0  0  0
 20 19  1  0  0  0  0
 20 25  1  1  0  0  0
 21 22  2  0  0  0  0
 22 20  1  0  0  0  0
 22 16  1  0  0  0  0
 23 25  2  0  0  0  0
 25 27  1  0  0  0  0
 25 24  2  0  0  0  0
 27 28  1  0  0  0  0
 28 29  1  0  0  0  0
 28 26  2  0  0  0  0
 29 30  1  0  0  0  0
 31 32  1  0  0  0  0
 32 33  2  0  0  0  0
 34 37  1  0  0  0  0
 35 42  1  0  0  0  0
 35 37  1  0  0  0  0
 36 33  1  6  0  0  0
 36 40  1  0  0  0  0
 36 44  1  0  0  0  0
 38 41  1  6  0  0  0
 38 34  1  0  0  0  0
 40 39  1  1  0  0  0
 40 41  1  0  0  0  0
 43 44  1  6  0  0  0
 43 38  1  0  0  0  0
 43 35  1  0  0  0  0
 45 46  1  0  0  0  0
 46 49  1  0  0  0  0
 47 48  1  0  0  0  0
 48 50  1  6  0  0  0
 49 47  1  0  0  0  0
 49 48  1  0  0  0  0
 50 52  1  0  0  0  0
 51 54  1  0  0  0  0
 52 55  1  0  0  0  0
 52 51  1  0  0  0  0
 54 53  1  0  0  0  0
 55 53  1  0  0  0  0
M  END
>  <MODEL>
4

>  <REMARK>
 VINA RESULT:      -7.7      3.533     10.735
  Name = 
  16 active torsions:
  status: ('A' for Active; 'I' for Inactive)
    1  A    between atoms: C_1  and  C_6
    2  A    between atoms: C_1  and  C_46
    3  A    between atoms: C_9  and  C_22
    4  A    between atoms: C_10  and  C_13
    5  A    between atoms: C_10  and  C_46
    6  A    between atoms: C_11  and  C_32
    7  A    between atoms: C_13  and  N_15
    8  A    between atoms: C_14  and  C_43
    9  A    between atoms: N_17  and  C_30
   10  A    between atoms: C_22  and  C_41
   11  A    between atoms: C_26  and  C_30
   12  A    between atoms: N_28  and  S_54
   13  A    between atoms: C_31  and  C_40
   14  A    between atoms: C_36  and  S_54
   15  A    between atoms: N_39  and  C_40
   16  A    between atoms: C_41  and  N_53
                            x       y       z     vdW  Elec       q    Type
                         _______ _______ _______ _____ _____    ______ ____

>  <TORSDO>
F 16

$$$$
=
 OpenBabel10232408443D

 55 61  0  0  1  0  0  0  0  0999 V2000
  189.6490  176.9310  140.4020 C   0  0  0  0  0  3  0  0  0  0  0  0
  190.0510  176.7740  137.8270 C   0  0  2  0  0  0  0  0  0  0  0  0
  189.4720  175.5480  137.5360 F   0  0  0  0  0  0  0  0  0  0  0  0
  188.6980  177.6720  141.1040 C   0  0  0  0  0  0  0  0  0  0  0  0
  189.4350  177.3020  139.0890 C   0  0  0  0  0  0  0  0  0  0  0  0
  188.3170  178.2840  136.6380 C   0  0  2  0  0  3  0  0  0  0  0  0
  189.7710  177.7660  136.6750 C   0  0  0  0  0  2  0  0  0  0  0  0
  187.9720  178.4140  140.2980 O   0  0  0  0  0  0  0  0  0  0  0  0
  188.3960  178.1880  139.0860 C   0  0  0  0  0  0  0  0  0  0  0  0
  187.8860  178.7540  137.9210 O   0  0  0  0  0  0  0  0  0  0  0  0
  191.5630  176.6050  138.0100 C   0  0  0  0  0  2  0  0  0  0  0  0
  192.2600  176.0560  136.7640 C   0  0  0  0  0  2  0  0  0  0  0  0
  193.2410  174.9830  137.1090 C   0  0  0  0  0  0  0  0  0  0  0  0
  194.0010  175.1260  138.0540 O   0  0  0  0  0  0  0  0  0  0  0  0
  193.2750  173.7250  136.3060 C   0  0  0  0  0  2  0  0  0  0  0  0
  194.6330  173.2170  136.2140 N   0  0  0  0  0  0  0  0  0  0  0  0
  196.9040  170.8440  135.9530 O   0  0  0  0  0  1  0  0  0  0  0  0
  195.1290  172.0840  136.9720 C   0  0  0  0  0  2  0  0  0  0  0  0
  196.6340  172.0060  136.6750 C   0  0  2  0  0  3  0  0  0  0  0  0
  197.0070  173.2290  135.8270 C   0  0  1  0  0  3  0  0  0  0  0  0
  195.5470  174.8940  134.8490 O   0  0  0  0  0  0  0  0  0  0  0  0
  195.7030  173.8760  135.5750 C   0  0  0  0  0  0  0  0  0  0  0  0
  198.1860  175.6340  136.0460 O   0  0  0  0  0  0  0  0  0  0  0  0
  199.4290  173.6970  136.9080 O   0  0  0  0  0  0  0  0  0  0  0  0
  198.0700  174.3180  136.7620 S   0  0  0  0  0  0  0  0  0  0  0  0
  199.2730  175.5910  139.2290 O   0  0  0  0  0  0  0  0  0  0  0  0
  197.3750  174.5740  138.3260 N   0  0  0  0  0  2  0  0  0  0  0  0
  198.0930  175.1870  139.3950 C   0  0  0  0  0  0  0  0  0  0  0  0
  197.4260  175.3830  140.7090 C   0  0  0  0  0  2  0  0  0  0  0  0
  198.3270  175.1030  141.7360 O   0  0  0  0  0  1  0  0  0  0  0  0
  187.3710  177.2080  136.1160 C   0  0  0  0  0  2  0  0  0  0  0  0
  186.0190  177.4840  136.5250 N   0  0  0  0  0  0  0  0  0  0  0  0
  185.2880  176.5630  137.0400 C   0  0  0  0  0  3  0  0  0  0  0  0
  180.3070  178.7170  138.3390 C   0  0  0  0  0  2  0  0  0  0  0  0
  182.1320  179.3450  139.7740 N   0  0  0  0  0  0  0  0  0  0  0  0
  183.8800  176.8550  137.4410 C   0  0  2  0  0  3  0  0  0  0  0  0
  180.7010  179.5290  139.5690 C   0  0  0  0  0  2  0  0  0  0  0  0
  181.4570  177.8930  138.0330 N   0  0  1  0  0  0  0  0  0  0  0  0
  182.8820  176.1440  135.3650 O   0  0  0  0  0  1  0  0  0  0  0  0
  183.0270  177.2450  136.2130 C   0  0  1  0  0  3  0  0  0  0  0  0
  181.6280  177.7880  136.5840 C   0  0  0  0  0  2  0  0  0  0  0  0
  182.2680  178.4180  140.8910 C   0  0  0  0  0  1  0  0  0  0  0  0
  182.5500  178.7070  138.5280 C   0  0  2  0  0  3  0  0  0  0  0  0
  183.8630  177.9200  138.5570 C   0  0  0  0  0  2  0  0  0  0  0  0
  188.5030  177.6530  142.5840 C   0  0  0  0  0  2  0  0  0  0  0  0
  189.7470  178.1160  143.3320 C   0  0  0  0  0  2  0  0  0  0  0  0
  191.6480  177.5320  144.5790 C   0  0  0  0  0  2  0  0  0  0  0  0
  190.5730  176.8720  145.3070 C   0  0  2  0  0  3  0  0  0  0  0  0
  190.5170  176.9710  143.8230 N   0  0  0  0  0  0  0  0  0  0  0  0
  189.7390  177.9060  146.0660 C   0  0  0  0  0  2  0  0  0  0  0  0
  188.5810  177.4710  148.0590 C   0  0  0  0  0  2  0  0  0  0  0  0
  188.5490  177.2690  146.6110 N   0  0  0  0  0  0  0  0  0  0  0  0
  186.5000  178.3340  147.2750 C   0  0  0  0  0  2  0  0  0  0  0  0
  187.4460  178.4000  148.4400 C   0  0  0  0  0  2  0  0  0  0  0  0
  187.3940  178.0070  146.1020 C   0  0  0  0  0  2  0  0  0  0  0  0
  1  4  2  0  0  0  0
  2  3  1  6  0  0  0
  2 11  1  0  0  0  0
  2  5  1  0  0  0  0
  4 45  1  0  0  0  0
  5  1  1  0  0  0  0
  6 31  1  1  0  0  0
  6  7  1  0  0  0  0
  6 10  1  0  0  0  0
  7  2  1  0  0  0  0
  8  4  1  0  0  0  0
  9  5  2  0  0  0  0
  9  8  1  0  0  0  0
 10  9  1  0  0  0  0
 12 13  1  0  0  0  0
 12 11  1  0  0  0  0
 13 14  2  0  0  0  0
 15 13  1  0  0  0  0
 16 15  1  0  0  0  0
 16 18  1  0  0  0  0
 19 17  1  6  0  0  0
 19 18  1  0  0  0  0
 20 19  1  0  0  0  0
 20 25  1  1  0  0  0
 21 22  2  0  0  0  0
 22 20  1  0  0  0  0
 22 16  1  0  0  0  0
 23 25  2  0  0  0  0
 25 24  2  0  0  0  0
 25 27  1  0  0  0  0
 26 28  2  0  0  0  0
 27 28  1  0  0  0  0
 28 29  1  0  0  0  0
 29 30  1  0  0  0  0
 31 32  1  0  0  0  0
 32 33  2  0  0  0  0
 34 37  1  0  0  0  0
 35 42  1  0  0  0  0
 36 33  1  6  0  0  0
 36 44  1  0  0  0  0
 37 35  1  0  0  0  0
 38 41  1  6  0  0  0
 38 34  1  0  0  0  0
 38 43  1  0  0  0  0
 40 39  1  6  0  0  0
 40 41  1  0  0  0  0
 40 36  1  0  0  0  0
 43 44  1  1  0  0  0
 43 35  1  0  0  0  0
 45 46  1  0  0  0  0
 46 49  1  0  0  0  0
 47 48  1  0  0  0  0
 48 50  1  1  0  0  0
 49 47  1  0  0  0  0
 49 48  1  0  0  0  0
 50 52  1  0  0  0  0
 51 54  1  0  0  0  0
 52 51  1  0  0  0  0
 53 54  1  0  0  0  0
 55 52  1  0  0  0  0
 55 53  1  0  0  0  0
M  END
>  <MODEL>
5

>  <REMARK>
 VINA RESULT:      -7.6      3.773     11.385
  Name = 
  16 active torsions:
  status: ('A' for Active; 'I' for Inactive)
    1  A    between atoms: C_1  and  C_6
    2  A    between atoms: C_1  and  C_46
    3  A    between atoms: C_9  and  C_22
    4  A    between atoms: C_10  and  C_13
    5  A    between atoms: C_10  and  C_46
    6  A    between atoms: C_11  and  C_32
    7  A    between atoms: C_13  and  N_15
    8  A    between atoms: C_14  and  C_43
    9  A    between atoms: N_17  and  C_30
   10  A    between atoms: C_22  and  C_41
   11  A    between atoms: C_26  and  C_30
   12  A    between atoms: N_28  and  S_54
   13  A    between atoms: C_31  and  C_40
   14  A    between atoms: C_36  and  S_54
   15  A    between atoms: N_39  and  C_40
   16  A    between atoms: C_41  and  N_53
                            x       y       z     vdW  Elec       q    Type
                         _______ _______ _______ _____ _____    ______ ____

>  <TORSDO>
F 16

$$$$
=
 OpenBabel10232408443D

 55 61  0  0  1  0  0  0  0  0999 V2000
  191.0120  175.1000  136.2460 C   0  0  0  0  0  3  0  0  0  0  0  0
  189.4430  176.5280  137.7680 C   0  0  2  0  0  0  0  0  0  0  0  0
  188.8190  175.5420  138.5160 F   0  0  0  0  0  0  0  0  0  0  0  0
  192.3860  174.8820  136.3520 C   0  0  0  0  0  0  0  0  0  0  0  0
  190.7520  175.9900  137.2700 C   0  0  0  0  0  0  0  0  0  0  0  0
  190.8710  177.5690  139.6610 C   0  0  2  0  0  3  0  0  0  0  0  0
  189.7110  177.7620  138.6590 C   0  0  0  0  0  2  0  0  0  0  0  0
  192.9090  175.5630  137.3460 O   0  0  0  0  0  0  0  0  0  0  0  0
  191.9340  176.2190  137.9120 C   0  0  0  0  0  0  0  0  0  0  0  0
  192.0450  177.0520  139.0220 O   0  0  0  0  0  0  0  0  0  0  0  0
  188.5530  176.9250  136.5860 C   0  0  0  0  0  2  0  0  0  0  0  0
  187.6600  175.7840  136.0970 C   0  0  0  0  0  2  0  0  0  0  0  0
  186.2430  175.9660  136.5350 C   0  0  0  0  0  0  0  0  0  0  0  0
  185.7510  175.2060  137.3540 O   0  0  0  0  0  0  0  0  0  0  0  0
  185.4360  177.0940  135.9820 C   0  0  0  0  0  2  0  0  0  0  0  0
  184.7800  177.8230  137.0540 N   0  0  0  0  0  0  0  0  0  0  0  0
  184.4820  180.2880  139.2200 O   0  0  0  0  0  1  0  0  0  0  0  0
  185.4680  178.3520  138.2160 C   0  0  0  0  0  2  0  0  0  0  0  0
  184.3710  178.9010  139.1410 C   0  0  2  0  0  3  0  0  0  0  0  0
  183.0140  178.5330  138.5250 C   0  0  1  0  0  3  0  0  0  0  0  0
  182.5530  177.5230  136.3740 O   0  0  0  0  0  0  0  0  0  0  0  0
  183.3850  177.9120  137.2360 C   0  0  0  0  0  0  0  0  0  0  0  0
  182.9590  176.0700  139.5970 O   0  0  0  0  0  0  0  0  0  0  0  0
  180.7970  177.0860  139.0220 O   0  0  0  0  0  0  0  0  0  0  0  0
  182.1730  177.3490  139.5650 S   0  0  0  0  0  0  0  0  0  0  0  0
  180.3760  179.5300  140.6440 O   0  0  0  0  0  0  0  0  0  0  0  0
  182.0550  177.9940  141.1670 N   0  0  0  0  0  2  0  0  0  0  0  0
  181.1510  179.0430  141.5080 C   0  0  0  0  0  0  0  0  0  0  0  0
  181.0980  179.5380  142.9080 C   0  0  0  0  0  2  0  0  0  0  0  0
  181.0240  178.4550  143.7840 O   0  0  0  0  0  1  0  0  0  0  0  0
  190.4460  176.6660  140.8140 C   0  0  0  0  0  2  0  0  0  0  0  0
  189.5970  177.3820  141.7290 N   0  0  0  0  0  0  0  0  0  0  0  0
  189.3360  176.9060  142.8910 C   0  0  0  0  0  3  0  0  0  0  0  0
  185.3550  178.7520  146.3400 C   0  0  0  0  0  2  0  0  0  0  0  0
  184.6750  178.3430  144.0690 N   0  0  0  0  0  0  0  0  0  0  0  0
  188.4370  177.6470  143.8240 C   0  0  2  0  0  3  0  0  0  0  0  0
  184.1830  178.7970  145.3640 C   0  0  0  0  0  2  0  0  0  0  0  0
  186.5310  178.5270  145.5240 N   0  0  1  0  0  0  0  0  0  0  0  0
  189.7970  177.3180  145.7870 O   0  0  0  0  0  1  0  0  0  0  0  0
  188.5300  177.0690  145.2540 C   0  0  1  0  0  3  0  0  0  0  0  0
  187.4560  177.6310  146.2150 C   0  0  0  0  0  2  0  0  0  0  0  0
  184.8270  179.5400  143.2490 C   0  0  0  0  0  1  0  0  0  0  0  0
  185.9820  177.7860  144.4050 C   0  0  2  0  0  3  0  0  0  0  0  0
  186.9990  177.6630  143.2660 C   0  0  0  0  0  2  0  0  0  0  0  0
  193.1940  173.9950  135.4630 C   0  0  0  0  0  2  0  0  0  0  0  0
  194.6820  174.3140  135.5350 C   0  0  0  0  0  2  0  0  0  0  0  0
  195.8370  176.3550  135.4310 C   0  0  0  0  0  2  0  0  0  0  0  0
  196.4810  175.5690  134.3870 C   0  0  2  0  0  3  0  0  0  0  0  0
  195.0220  175.4210  134.6380 N   0  0  0  0  0  0  0  0  0  0  0  0
  197.3680  174.4910  135.0120 C   0  0  0  0  0  2  0  0  0  0  0  0
  197.8700  174.3370  137.2980 C   0  0  0  0  0  2  0  0  0  0  0  0
  198.1740  175.0770  136.0730 N   0  0  0  0  0  0  0  0  0  0  0  0
  200.2310  174.2260  136.9780 C   0  0  0  0  0  2  0  0  0  0  0  0
  199.1020  173.5530  137.7060 C   0  0  0  0  0  2  0  0  0  0  0  0
  199.5740  174.8070  135.7490 C   0  0  0  0  0  2  0  0  0  0  0  0
  1  4  2  0  0  0  0
  1  5  1  0  0  0  0
  2  3  1  1  0  0  0
  2  7  1  0  0  0  0
  4  8  1  0  0  0  0
  5  2  1  0  0  0  0
  5  9  2  0  0  0  0
  6 31  1  1  0  0  0
  7  6  1  0  0  0  0
  8  9  1  0  0  0  0
  9 10  1  0  0  0  0
 10  6  1  0  0  0  0
 11  2  1  0  0  0  0
 12 13  1  0  0  0  0
 12 11  1  0  0  0  0
 13 14  2  0  0  0  0
 15 13  1  0  0  0  0
 15 16  1  0  0  0  0
 16 22  1  0  0  0  0
 16 18  1  0  0  0  0
 18 19  1  0  0  0  0
 19 17  1  6  0  0  0
 20 19  1  0  0  0  0
 20 25  1  1  0  0  0
 21 22  2  0  0  0  0
 22 20  1  0  0  0  0
 24 25  2  0  0  0  0
 25 23  2  0  0  0  0
 25 27  1  0  0  0  0
 26 28  2  0  0  0  0
 27 28  1  0  0  0  0
 28 29  1  0  0  0  0
 29 30  1  0  0  0  0
 31 32  1  0  0  0  0
 32 33  2  0  0  0  0
 35 43  1  0  0  0  0
 35 37  1  0  0  0  0
 36 33  1  6  0  0  0
 36 40  1  0  0  0  0
 37 34  1  0  0  0  0
 38 41  1  1  0  0  0
 38 34  1  0  0  0  0
 40 39  1  1  0  0  0
 40 41  1  0  0  0  0
 42 35  1  0  0  0  0
 43 44  1  6  0  0  0
 43 38  1  0  0  0  0
 44 36  1  0  0  0  0
 45 46  1  0  0  0  0
 45  4  1  0  0  0  0
 48 49  1  0  0  0  0
 48 50  1  1  0  0  0
 48 47  1  0  0  0  0
 49 47  1  0  0  0  0
 49 46  1  0  0  0  0
 50 52  1  0  0  0  0
 51 54  1  0  0  0  0
 52 51  1  0  0  0  0
 53 54  1  0  0  0  0
 55 52  1  0  0  0  0
 55 53  1  0  0  0  0
M  END
>  <MODEL>
6

>  <REMARK>
 VINA RESULT:      -7.4      1.908      8.813
  Name = 
  16 active torsions:
  status: ('A' for Active; 'I' for Inactive)
    1  A    between atoms: C_1  and  C_6
    2  A    between atoms: C_1  and  C_46
    3  A    between atoms: C_9  and  C_22
    4  A    between atoms: C_10  and  C_13
    5  A    between atoms: C_10  and  C_46
    6  A    between atoms: C_11  and  C_32
    7  A    between atoms: C_13  and  N_15
    8  A    between atoms: C_14  and  C_43
    9  A    between atoms: N_17  and  C_30
   10  A    between atoms: C_22  and  C_41
   11  A    between atoms: C_26  and  C_30
   12  A    between atoms: N_28  and  S_54
   13  A    between atoms: C_31  and  C_40
   14  A    between atoms: C_36  and  S_54
   15  A    between atoms: N_39  and  C_40
   16  A    between atoms: C_41  and  N_53
                            x       y       z     vdW  Elec       q    Type
                         _______ _______ _______ _____ _____    ______ ____

>  <TORSDO>
F 16

$$$$
=
 OpenBabel10232408443D

 55 61  0  0  1  0  0  0  0  0999 V2000
  192.1240  175.4200  136.5480 C   0  0  0  0  0  3  0  0  0  0  0  0
  190.2900  176.6370  137.9510 C   0  0  2  0  0  0  0  0  0  0  0  0
  189.6700  175.5660  138.5750 F   0  0  0  0  0  0  0  0  0  0  0  0
  193.4920  175.2990  136.7980 C   0  0  0  0  0  0  0  0  0  0  0  0
  191.6840  176.2280  137.5780 C   0  0  0  0  0  0  0  0  0  0  0  0
  191.4150  177.6720  140.0410 C   0  0  2  0  0  3  0  0  0  0  0  0
  190.3590  177.8360  138.9250 C   0  0  0  0  0  2  0  0  0  0  0  0
  193.8470  175.9600  137.8760 O   0  0  0  0  0  0  0  0  0  0  0  0
  192.7670  176.5080  138.3600 C   0  0  0  0  0  0  0  0  0  0  0  0
  192.6900  177.2820  139.5150 O   0  0  0  0  0  0  0  0  0  0  0  0
  189.5050  177.0340  136.6970 C   0  0  0  0  0  2  0  0  0  0  0  0
  188.1200  176.3890  136.6270 C   0  0  0  0  0  2  0  0  0  0  0  0
  187.0720  177.3740  136.2230 C   0  0  0  0  0  0  0  0  0  0  0  0
  187.3880  178.5080  135.8990 O   0  0  0  0  0  0  0  0  0  0  0  0
  185.6380  176.9620  136.1960 C   0  0  0  0  0  2  0  0  0  0  0  0
  184.8920  177.6480  137.2370 N   0  0  0  0  0  0  0  0  0  0  0  0
  184.4750  179.9220  139.5840 O   0  0  0  0  0  1  0  0  0  0  0  0
  185.4430  178.0050  138.5300 C   0  0  0  0  0  2  0  0  0  0  0  0
  184.2700  178.5640  139.3480 C   0  0  2  0  0  3  0  0  0  0  0  0
  182.9920  178.3790  138.5180 C   0  0  1  0  0  3  0  0  0  0  0  0
  182.7710  177.6150  136.2320 O   0  0  0  0  0  0  0  0  0  0  0  0
  183.4960  177.8470  137.2350 C   0  0  0  0  0  0  0  0  0  0  0  0
  182.6080  175.8530  139.3480 O   0  0  0  0  0  0  0  0  0  0  0  0
  180.6360  177.0740  138.5360 O   0  0  0  0  0  0  0  0  0  0  0  0
  181.9200  177.1870  139.3060 S   0  0  0  0  0  0  0  0  0  0  0  0
  180.3570  179.5910  140.2730 O   0  0  0  0  0  0  0  0  0  0  0  0
  181.5860  177.7140  140.9210 N   0  0  0  0  0  2  0  0  0  0  0  0
  180.8340  178.8920  141.2050 C   0  0  0  0  0  0  0  0  0  0  0  0
  180.5780  179.2760  142.6180 C   0  0  0  0  0  2  0  0  0  0  0  0
  180.3530  180.6500  142.6950 O   0  0  0  0  0  1  0  0  0  0  0  0
  190.9410  176.6750  141.0940 C   0  0  0  0  0  2  0  0  0  0  0  0
  190.2600  177.3570  142.1630 N   0  0  0  0  0  0  0  0  0  0  0  0
  189.5010  176.7130  142.9720 C   0  0  0  0  0  3  0  0  0  0  0  0
  186.2500  178.4500  147.1620 C   0  0  0  0  0  2  0  0  0  0  0  0
  185.1270  177.9580  145.0920 N   0  0  0  0  0  0  0  0  0  0  0  0
  188.7830  177.4330  144.0650 C   0  0  2  0  0  3  0  0  0  0  0  0
  184.8970  178.4180  146.4560 C   0  0  0  0  0  2  0  0  0  0  0  0
  187.2360  178.2610  146.1190 N   0  0  1  0  0  0  0  0  0  0  0  0
  190.5410  177.2120  145.6990 O   0  0  0  0  0  1  0  0  0  0  0  0
  189.2040  176.8920  145.4500 C   0  0  1  0  0  3  0  0  0  0  0  0
  188.3310  177.4260  146.6090 C   0  0  0  0  0  2  0  0  0  0  0  0
  185.0420  179.1420  144.2440 C   0  0  0  0  0  1  0  0  0  0  0  0
  186.5020  177.4700  145.1510 C   0  0  2  0  0  3  0  0  0  0  0  0
  187.2600  177.3690  143.8240 C   0  0  0  0  0  2  0  0  0  0  0  0
  194.4610  174.5270  135.9630 C   0  0  0  0  0  2  0  0  0  0  0  0
  194.7520  173.1510  136.5490 C   0  0  0  0  0  2  0  0  0  0  0  0
  196.4980  173.1400  138.1180 C   0  0  0  0  0  2  0  0  0  0  0  0
  196.5530  171.7930  137.5690 C   0  0  2  0  0  3  0  0  0  0  0  0
  196.1940  172.9400  136.6920 N   0  0  0  0  0  0  0  0  0  0  0  0
  195.3740  170.9660  138.0840 C   0  0  0  0  0  2  0  0  0  0  0  0
  194.7430  168.8140  138.7740 C   0  0  0  0  0  2  0  0  0  0  0  0
  195.6500  169.5500  137.8930 N   0  0  0  0  0  0  0  0  0  0  0  0
  194.3980  167.9880  136.5630 C   0  0  0  0  0  2  0  0  0  0  0  0
  193.7500  168.0540  137.9170 C   0  0  0  0  0  2  0  0  0  0  0  0
  195.2720  169.2190  136.5200 C   0  0  0  0  0  2  0  0  0  0  0  0
  1  4  2  0  0  0  0
  1  5  1  0  0  0  0
  2  3  1  1  0  0  0
  2  7  1  0  0  0  0
  4  8  1  0  0  0  0
  5  2  1  0  0  0  0
  5  9  2  0  0  0  0
  6 31  1  1  0  0  0
  7  6  1  0  0  0  0
  8  9  1  0  0  0  0
  9 10  1  0  0  0  0
 10  6  1  0  0  0  0
 11  2  1  0  0  0  0
 12 11  1  0  0  0  0
 13 12  1  0  0  0  0
 14 13  2  0  0  0  0
 15 13  1  0  0  0  0
 15 16  1  0  0  0  0
 16 18  1  0  0  0  0
 18 19  1  0  0  0  0
 19 17  1  6  0  0  0
 20 25  1  1  0  0  0
 20 19  1  0  0  0  0
 21 22  2  0  0  0  0
 22 16  1  0  0  0  0
 22 20  1  0  0  0  0
 24 25  2  0  0  0  0
 25 23  2  0  0  0  0
 25 27  1  0  0  0  0
 26 28  2  0  0  0  0
 27 28  1  0  0  0  0
 28 29  1  0  0  0  0
 29 30  1  0  0  0  0
 31 32  1  0  0  0  0
 32 33  2  0  0  0  0
 35 43  1  0  0  0  0
 35 37  1  0  0  0  0
 36 33  1  6  0  0  0
 36 40  1  0  0  0  0
 37 34  1  0  0  0  0
 38 41  1  1  0  0  0
 38 34  1  0  0  0  0
 40 39  1  1  0  0  0
 40 41  1  0  0  0  0
 42 35  1  0  0  0  0
 43 44  1  6  0  0  0
 43 38  1  0  0  0  0
 44 36  1  0  0  0  0
 45 46  1  0  0  0  0
 45  4  1  0  0  0  0
 46 49  1  0  0  0  0
 48 50  1  1  0  0  0
 48 47  1  0  0  0  0
 49 48  1  0  0  0  0
 49 47  1  0  0  0  0
 52 50  1  0  0  0  0
 52 51  1  0  0  0  0
 53 54  1  0  0  0  0
 54 51  1  0  0  0  0
 55 53  1  0  0  0  0
 55 52  1  0  0  0  0
M  END
>  <MODEL>
7

>  <REMARK>
 VINA RESULT:      -7.4      2.551      8.683
  Name = 
  16 active torsions:
  status: ('A' for Active; 'I' for Inactive)
    1  A    between atoms: C_1  and  C_6
    2  A    between atoms: C_1  and  C_46
    3  A    between atoms: C_9  and  C_22
    4  A    between atoms: C_10  and  C_13
    5  A    between atoms: C_10  and  C_46
    6  A    between atoms: C_11  and  C_32
    7  A    between atoms: C_13  and  N_15
    8  A    between atoms: C_14  and  C_43
    9  A    between atoms: N_17  and  C_30
   10  A    between atoms: C_22  and  C_41
   11  A    between atoms: C_26  and  C_30
   12  A    between atoms: N_28  and  S_54
   13  A    between atoms: C_31  and  C_40
   14  A    between atoms: C_36  and  S_54
   15  A    between atoms: N_39  and  C_40
   16  A    between atoms: C_41  and  N_53
                            x       y       z     vdW  Elec       q    Type
                         _______ _______ _______ _____ _____    ______ ____

>  <TORSDO>
F 16

$$$$
=
 OpenBabel10232408443D

 55 61  0  0  1  0  0  0  0  0999 V2000
  187.8560  178.0090  138.2790 C   0  0  0  0  0  3  0  0  0  0  0  0
  187.8480  176.9350  135.9000 C   0  0  2  0  0  0  0  0  0  0  0  0
  188.4900  177.9140  135.1580 F   0  0  0  0  0  0  0  0  0  0  0  0
  188.6740  177.7270  139.3730 C   0  0  0  0  0  0  0  0  0  0  0  0
  188.2560  177.0830  137.3360 C   0  0  0  0  0  0  0  0  0  0  0  0
  189.7080  175.1360  135.8120 C   0  0  2  0  0  3  0  0  0  0  0  0
  188.2760  175.5380  135.3950 C   0  0  0  0  0  2  0  0  0  0  0  0
  189.4960  176.7340  139.1190 O   0  0  0  0  0  0  0  0  0  0  0  0
  189.2640  176.3510  137.8940 C   0  0  0  0  0  0  0  0  0  0  0  0
  189.9310  175.3370  137.2130 O   0  0  0  0  0  0  0  0  0  0  0  0
  186.3300  177.0930  135.7650 C   0  0  0  0  0  2  0  0  0  0  0  0
  185.6450  175.8470  135.2010 C   0  0  0  0  0  2  0  0  0  0  0  0
  184.1840  175.8320  135.5120 C   0  0  0  0  0  0  0  0  0  0  0  0
  183.5450  174.7960  135.4090 O   0  0  0  0  0  0  0  0  0  0  0  0
  183.5120  177.0820  135.9720 C   0  0  0  0  0  2  0  0  0  0  0  0
  182.9400  176.8960  137.2940 N   0  0  0  0  0  0  0  0  0  0  0  0
  181.1430  175.3120  139.5560 O   0  0  0  0  0  1  0  0  0  0  0  0
  181.5590  176.5270  137.5370 C   0  0  0  0  0  2  0  0  0  0  0  0
  181.3660  176.5950  139.0600 C   0  0  2  0  0  3  0  0  0  0  0  0
  182.6570  177.1600  139.6690 C   0  0  1  0  0  3  0  0  0  0  0  0
  184.7630  177.6340  138.5750 O   0  0  0  0  0  0  0  0  0  0  0  0
  183.5600  177.2700  138.5040 C   0  0  0  0  0  0  0  0  0  0  0  0
  180.8710  179.0540  140.3330 O   0  0  0  0  0  0  0  0  0  0  0  0
  183.0820  179.8180  139.5790 O   0  0  0  0  0  0  0  0  0  0  0  0
  182.3460  178.7740  140.3680 S   0  0  0  0  0  0  0  0  0  0  0  0
  185.1660  178.7550  141.4630 O   0  0  0  0  0  0  0  0  0  0  0  0
  182.8960  178.7890  142.0100 N   0  0  0  0  0  2  0  0  0  0  0  0
  184.2800  178.7650  142.3560 C   0  0  0  0  0  0  0  0  0  0  0  0
  184.6770  178.7910  143.7880 C   0  0  0  0  0  2  0  0  0  0  0  0
  183.5420  178.6680  144.5900 O   0  0  0  0  0  1  0  0  0  0  0  0
  190.7450  175.8950  134.9900 C   0  0  0  0  0  2  0  0  0  0  0  0
  192.0760  175.5450  135.4110 N   0  0  0  0  0  0  0  0  0  0  0  0
  192.8680  176.4350  135.8900 C   0  0  0  0  0  3  0  0  0  0  0  0
  197.9830  174.3190  136.5990 C   0  0  0  0  0  2  0  0  0  0  0  0
  196.1540  172.8080  136.9960 N   0  0  0  0  0  0  0  0  0  0  0  0
  194.2530  176.0640  136.3040 C   0  0  2  0  0  3  0  0  0  0  0  0
  197.6090  172.8960  137.0050 C   0  0  0  0  0  2  0  0  0  0  0  0
  196.7440  175.0680  136.6230 N   0  0  1  0  0  0  0  0  0  0  0  0
  195.3280  177.9710  135.2940 O   0  0  0  0  0  1  0  0  0  0  0  0
  195.2890  176.5750  135.2780 C   0  0  1  0  0  3  0  0  0  0  0  0
  196.7150  176.0260  135.5190 C   0  0  0  0  0  2  0  0  0  0  0  0
  195.7350  172.8420  138.3920 C   0  0  0  0  0  1  0  0  0  0  0  0
  195.7670  174.0420  136.3170 C   0  0  2  0  0  3  0  0  0  0  0  0
  194.3390  174.5440  136.5510 C   0  0  0  0  0  2  0  0  0  0  0  0
  188.6450  178.4400  140.6850 C   0  0  0  0  0  2  0  0  0  0  0  0
  189.1090  177.5490  141.8310 C   0  0  0  0  0  2  0  0  0  0  0  0
  187.9710  176.3330  143.4840 C   0  0  0  0  0  2  0  0  0  0  0  0
  188.8290  177.2100  144.2670 C   0  0  2  0  0  3  0  0  0  0  0  0
  188.2320  177.6960  142.9940 N   0  0  0  0  0  0  0  0  0  0  0  0
  190.2830  176.7430  144.1750 C   0  0  0  0  0  2  0  0  0  0  0  0
  190.0700  177.5270  146.3760 C   0  0  0  0  0  2  0  0  0  0  0  0
  191.0350  177.2610  145.3090 N   0  0  0  0  0  0  0  0  0  0  0  0
  191.7210  176.0580  147.2730 C   0  0  0  0  0  2  0  0  0  0  0  0
  190.3210  176.5500  147.5070 C   0  0  0  0  0  2  0  0  0  0  0  0
  191.9030  176.1820  145.7780 C   0  0  0  0  0  2  0  0  0  0  0  0
  1  4  2  0  0  0  0
  2  3  1  6  0  0  0
  2  5  1  0  0  0  0
  4 45  1  0  0  0  0
  5  9  2  0  0  0  0
  5  1  1  0  0  0  0
  6 31  1  6  0  0  0
  6 10  1  0  0  0  0
  7  6  1  0  0  0  0
  7  2  1  0  0  0  0
  8  4  1  0  0  0  0
  9  8  1  0  0  0  0
 10  9  1  0  0  0  0
 11  2  1  0  0  0  0
 12 13  1  0  0  0  0
 12 11  1  0  0  0  0
 13 15  1  0  0  0  0
 14 13  2  0  0  0  0
 15 16  1  0  0  0  0
 16 18  1  0  0  0  0
 16 22  1  0  0  0  0
 18 19  1  0  0  0  0
 19 17  1  1  0  0  0
 19 20  1  0  0  0  0
 20 25  1  6  0  0  0
 22 21  2  0  0  0  0
 22 20  1  0  0  0  0
 23 25  2  0  0  0  0
 24 25  2  0  0  0  0
 25 27  1  0  0  0  0
 26 28  2  0  0  0  0
 27 28  1  0  0  0  0
 28 29  1  0  0  0  0
 29 30  1  0  0  0  0
 31 32  1  0  0  0  0
 32 33  2  0  0  0  0
 34 38  1  0  0  0  0
 34 37  1  0  0  0  0
 35 37  1  0  0  0  0
 35 42  1  0  0  0  0
 36 33  1  6  0  0  0
 36 44  1  0  0  0  0
 38 41  1  6  0  0  0
 40 39  1  1  0  0  0
 40 41  1  0  0  0  0
 40 36  1  0  0  0  0
 43 44  1  1  0  0  0
 43 38  1  0  0  0  0
 43 35  1  0  0  0  0
 45 46  1  0  0  0  0
 46 49  1  0  0  0  0
 47 48  1  0  0  0  0
 48 50  1  6  0  0  0
 49 47  1  0  0  0  0
 49 48  1  0  0  0  0
 50 52  1  0  0  0  0
 51 54  1  0  0  0  0
 52 55  1  0  0  0  0
 52 51  1  0  0  0  0
 53 54  1  0  0  0  0
 55 53  1  0  0  0  0
M  END
>  <MODEL>
8

>  <REMARK>
 VINA RESULT:      -7.4      1.538      2.100
  Name = 
  16 active torsions:
  status: ('A' for Active; 'I' for Inactive)
    1  A    between atoms: C_1  and  C_6
    2  A    between atoms: C_1  and  C_46
    3  A    between atoms: C_9  and  C_22
    4  A    between atoms: C_10  and  C_13
    5  A    between atoms: C_10  and  C_46
    6  A    between atoms: C_11  and  C_32
    7  A    between atoms: C_13  and  N_15
    8  A    between atoms: C_14  and  C_43
    9  A    between atoms: N_17  and  C_30
   10  A    between atoms: C_22  and  C_41
   11  A    between atoms: C_26  and  C_30
   12  A    between atoms: N_28  and  S_54
   13  A    between atoms: C_31  and  C_40
   14  A    between atoms: C_36  and  S_54
   15  A    between atoms: N_39  and  C_40
   16  A    between atoms: C_41  and  N_53
                            x       y       z     vdW  Elec       q    Type
                         _______ _______ _______ _____ _____    ______ ____

>  <TORSDO>
F 16

$$$$
=
 OpenBabel10232408443D

 55 61  0  0  1  0  0  0  0  0999 V2000
  192.4970  176.8700  137.7560 C   0  0  0  0  0  3  0  0  0  0  0  0
  190.1450  177.2460  138.8250 C   0  0  2  0  0  0  0  0  0  0  0  0
  189.8710  178.5450  138.4270 F   0  0  0  0  0  0  0  0  0  0  0  0
  192.8410  176.1590  136.6070 C   0  0  0  0  0  0  0  0  0  0  0  0
  191.1370  176.6560  137.8670 C   0  0  0  0  0  0  0  0  0  0  0  0
  188.3820  176.0400  137.3600 C   0  0  2  0  0  3  0  0  0  0  0  0
  188.8470  176.4080  138.7870 C   0  0  0  0  0  2  0  0  0  0  0  0
  191.7950  175.5760  136.0660 O   0  0  0  0  0  0  0  0  0  0  0  0
  190.7650  175.8810  136.8060 C   0  0  0  0  0  0  0  0  0  0  0  0
  189.4490  175.4880  136.5790 O   0  0  0  0  0  0  0  0  0  0  0  0
  190.7210  177.2470  140.2450 C   0  0  0  0  0  2  0  0  0  0  0  0
  189.6440  177.3100  141.3290 C   0  0  0  0  0  2  0  0  0  0  0  0
  190.0390  176.5370  142.5450 C   0  0  0  0  0  0  0  0  0  0  0  0
  189.2530  175.7580  143.0590 O   0  0  0  0  0  0  0  0  0  0  0  0
  191.4070  176.7060  143.1170 C   0  0  0  0  0  2  0  0  0  0  0  0
  191.3450  176.7980  144.5660 N   0  0  0  0  0  0  0  0  0  0  0  0
  192.4650  176.2940  147.6230 O   0  0  0  0  0  1  0  0  0  0  0  0
  191.6310  175.6940  145.4620 C   0  0  0  0  0  2  0  0  0  0  0  0
  191.2940  176.2000  146.8730 C   0  0  2  0  0  3  0  0  0  0  0  0
  190.6650  177.5930  146.7320 C   0  0  1  0  0  3  0  0  0  0  0  0
  190.4430  178.9570  144.7450 O   0  0  0  0  0  0  0  0  0  0  0  0
  190.7830  177.8720  145.2850 C   0  0  0  0  0  0  0  0  0  0  0  0
  188.6740  178.6430  148.1980 O   0  0  0  0  0  0  0  0  0  0  0  0
  188.6400  176.2110  147.8450 O   0  0  0  0  0  0  0  0  0  0  0  0
  188.9470  177.5390  147.2160 S   0  0  0  0  0  0  0  0  0  0  0  0
  185.9850  178.1180  147.0040 O   0  0  0  0  0  0  0  0  0  0  0  0
  187.9610  177.7610  145.8110 N   0  0  0  0  0  2  0  0  0  0  0  0
  186.5600  178.0190  145.8890 C   0  0  0  0  0  0  0  0  0  0  0  0
  185.7790  178.2100  144.6380 C   0  0  0  0  0  2  0  0  0  0  0  0
  184.5420  178.7770  144.9420 O   0  0  0  0  0  1  0  0  0  0  0  0
  187.7760  177.2510  136.6590 C   0  0  0  0  0  2  0  0  0  0  0  0
  186.4450  177.5020  137.1470 N   0  0  0  0  0  0  0  0  0  0  0  0
  186.2470  178.3040  138.1290 C   0  0  0  0  0  3  0  0  0  0  0  0
  181.0920  178.0950  140.2550 C   0  0  0  0  0  2  0  0  0  0  0  0
  181.4360  176.8830  138.2060 N   0  0  0  0  0  0  0  0  0  0  0  0
  184.8650  178.5410  138.6400 C   0  0  2  0  0  3  0  0  0  0  0  0
  180.4240  177.2190  139.1990 C   0  0  0  0  0  2  0  0  0  0  0  0
  182.3840  178.4480  139.7050 N   0  0  1  0  0  0  0  0  0  0  0  0
  185.5440  179.5230  140.7340 O   0  0  0  0  0  1  0  0  0  0  0  0
  184.8270  178.4580  140.1830 C   0  0  1  0  0  3  0  0  0  0  0  0
  183.3930  178.4580  140.7630 C   0  0  0  0  0  2  0  0  0  0  0  0
  181.1600  177.7210  137.0440 C   0  0  0  0  0  1  0  0  0  0  0  0
  182.6720  177.3070  138.8590 C   0  0  2  0  0  3  0  0  0  0  0  0
  183.8790  177.5730  137.9540 C   0  0  0  0  0  2  0  0  0  0  0  0
  194.2170  176.0470  136.0350 C   0  0  0  0  0  2  0  0  0  0  0  0
  194.8060  174.6560  136.2280 C   0  0  0  0  0  2  0  0  0  0  0  0
  195.0750  174.2910  138.5310 C   0  0  0  0  0  2  0  0  0  0  0  0
  195.9960  173.3270  137.9450 C   0  0  2  0  0  3  0  0  0  0  0  0
  195.8000  174.6550  137.3030 N   0  0  0  0  0  0  0  0  0  0  0  0
  195.2170  172.1720  137.3150 C   0  0  0  0  0  2  0  0  0  0  0  0
  194.7900  169.8650  137.3410 C   0  0  0  0  0  2  0  0  0  0  0  0
  195.5660  170.9260  137.9830 N   0  0  0  0  0  0  0  0  0  0  0  0
  197.0860  169.2340  137.2080 C   0  0  0  0  0  2  0  0  0  0  0  0
  195.7440  168.9550  136.5930 C   0  0  0  0  0  2  0  0  0  0  0  0
  196.9740  170.6610  137.6900 C   0  0  0  0  0  2  0  0  0  0  0  0
  1  5  1  0  0  0  0
  2  3  1  6  0  0  0
  2 11  1  0  0  0  0
  4  1  2  0  0  0  0
  5  2  1  0  0  0  0
  6 31  1  6  0  0  0
  6  7  1  0  0  0  0
  7  2  1  0  0  0  0
  8  4  1  0  0  0  0
  8  9  1  0  0  0  0
  9  5  2  0  0  0  0
 10  9  1  0  0  0  0
 10  6  1  0  0  0  0
 11 12  1  0  0  0  0
 12 13  1  0  0  0  0
 13 14  2  0  0  0  0
 13 15  1  0  0  0  0
 15 16  1  0  0  0  0
 16 22  1  0  0  0  0
 16 18  1  0  0  0  0
 18 19  1  0  0  0  0
 19 17  1  1  0  0  0
 20 19  1  0  0  0  0
 20 25  1  6  0  0  0
 21 22  2  0  0  0  0
 22 20  1  0  0  0  0
 25 24  2  0  0  0  0
 25 23  2  0  0  0  0
 27 28  1  0  0  0  0
 27 25  1  0  0  0  0
 28 26  2  0  0  0  0
 29 30  1  0  0  0  0
 29 28  1  0  0  0  0
 31 32  1  0  0  0  0
 32 33  2  0  0  0  0
 35 43  1  0  0  0  0
 35 37  1  0  0  0  0
 36 33  1  6  0  0  0
 36 40  1  0  0  0  0
 37 34  1  0  0  0  0
 38 34  1  1  0  0  0
 38 41  1  0  0  0  0
 40 39  1  1  0  0  0
 40 41  1  0  0  0  0
 42 35  1  0  0  0  0
 43 44  1  6  0  0  0
 43 38  1  0  0  0  0
 44 36  1  0  0  0  0
 45 46  1  0  0  0  0
 45  4  1  0  0  0  0
 46 49  1  0  0  0  0
 48 50  1  6  0  0  0
 48 47  1  0  0  0  0
 49 48  1  0  0  0  0
 49 47  1  0  0  0  0
 50 52  1  0  0  0  0
 51 52  1  0  0  0  0
 53 55  1  0  0  0  0
 54 53  1  0  0  0  0
 54 51  1  0  0  0  0
 55 52  1  0  0  0  0
M  END
>  <MODEL>
9

>  <REMARK>
 VINA RESULT:      -7.3      3.063     10.092
  Name = 
  16 active torsions:
  status: ('A' for Active; 'I' for Inactive)
    1  A    between atoms: C_1  and  C_6
    2  A    between atoms: C_1  and  C_46
    3  A    between atoms: C_9  and  C_22
    4  A    between atoms: C_10  and  C_13
    5  A    between atoms: C_10  and  C_46
    6  A    between atoms: C_11  and  C_32
    7  A    between atoms: C_13  and  N_15
    8  A    between atoms: C_14  and  C_43
    9  A    between atoms: N_17  and  C_30
   10  A    between atoms: C_22  and  C_41
   11  A    between atoms: C_26  and  C_30
   12  A    between atoms: N_28  and  S_54
   13  A    between atoms: C_31  and  C_40
   14  A    between atoms: C_36  and  S_54
   15  A    between atoms: N_39  and  C_40
   16  A    between atoms: C_41  and  N_53
                            x       y       z     vdW  Elec       q    Type
                         _______ _______ _______ _____ _____    ______ ____

>  <TORSDO>
F 16

$$$$
