=
 OpenBabel10222421463D

 31 35  0  0  1  0  0  0  0  0999 V2000
  190.9150  176.3310  138.7060 C   0  0  0  0  0  2  0  0  0  0  0  0
  192.4700  174.3920  135.8380 C   0  0  0  0  0  2  0  0  0  0  0  0
  197.2430  173.9150  138.1350 C   0  0  0  0  0  1  0  0  0  0  0  0
  193.8030  175.3610  137.9130 C   0  0  2  0  0  3  0  0  0  0  0  0
  191.6810  174.7340  137.0880 C   0  0  1  0  0  0  0  0  0  0  0  0
  191.6020  176.1670  137.4300 N   0  0  0  0  0  0  0  0  0  0  0  0
  195.2480  175.3520  137.6370 N   0  0  0  0  0  0  0  0  0  0  0  0
  193.5260  172.8390  137.5900 C   0  0  0  0  0  2  0  0  0  0  0  0
  190.6620  173.8600  137.4810 O   0  0  0  0  0  1  0  0  0  0  0  0
  195.7290  174.0300  138.1200 C   0  0  1  0  0  3  0  0  0  0  0  0
  195.0570  172.8140  137.4290 C   0  0  0  0  0  2  0  0  0  0  0  0
  193.0800  174.2380  137.2360 C   0  0  1  0  0  0  0  0  0  0  0  0
  192.9930  176.6150  137.6300 C   0  0  0  0  0  2  0  0  0  0  0  0
  194.9980  177.2810  135.7830 N   0  0  0  0  0  1  0  0  0  0  0  0
  195.5970  175.5880  135.8610 P   0  0  1  0  0  0  0  0  0  0  0  0
  197.2560  176.0640  136.0510 O   0  0  0  0  0  1  0  0  0  0  0  0
  189.9260  177.4450  138.5980 C   0  0  0  0  0  3  0  0  0  0  0  0
  189.2350  177.9440  139.6260 C   0  0  0  0  0  3  0  0  0  0  0  0
  190.5200  177.5170  141.6230 N   0  0  0  0  0  0  0  0  0  0  0  0
  190.9610  175.6160  143.0710 C   0  0  0  0  0  1  0  0  0  0  0  0
  190.9830  177.9000  144.0240 C   0  0  0  0  0  3  0  0  0  0  0  0
  188.6190  177.3520  146.6370 O   0  0  0  0  0  0  0  0  0  0  0  0
  190.3630  177.0110  142.9770 C   0  0  1  0  0  0  0  0  0  0  0  0
  190.3950  178.0370  145.2210 C   0  0  0  0  0  3  0  0  0  0  0  0
  188.8790  176.9360  143.1140 C   0  0  1  0  0  3  0  0  0  0  0  0
  188.2420  177.0440  144.2870 C   0  0  1  0  0  3  0  0  0  0  0  0
  189.0630  177.4420  145.4620 C   0  0  0  0  0  0  0  0  0  0  0  0
  188.2600  177.1540  141.8570 N   0  0  0  0  0  2  0  0  0  0  0  0
  189.3630  177.5400  141.0340 C   0  0  0  0  0  0  0  0  0  0  0  0
  185.9440  178.1360  144.4890 C   0  0  0  0  0  1  0  0  0  0  0  0
  186.8110  176.9800  144.3280 N   0  0  0  0  0  2  0  0  0  0  0  0
  2  5  1  0  0  0  0
  4 13  1  6  0  0  0
  5 12  1  0  0  0  0
  5  6  1  0  0  0  0
  5  9  1  1  0  0  0
  6 13  1  0  0  0  0
  6  1  1  0  0  0  0
  7  4  1  0  0  0  0
  7 10  1  0  0  0  0
 10  3  1  6  0  0  0
 11  8  1  0  0  0  0
 11 10  1  0  0  0  0
 12  2  1  6  0  0  0
 12  8  1  0  0  0  0
 12  4  1  0  0  0  0
 15 14  1  1  0  0  0
 15 16  1  0  0  0  0
 15  7  1  0  0  0  0
 17  1  1  0  0  0  0
 17 18  2  0  0  0  0
 18 29  1  0  0  0  0
 19 23  1  0  0  0  0
 21 24  2  0  0  0  0
 23 20  1  1  0  0  0
 23 25  1  0  0  0  0
 23 21  1  0  0  0  0
 24 27  1  0  0  0  0
 25 28  1  6  0  0  0
 25 26  1  0  0  0  0
 26 31  1  6  0  0  0
 26 27  1  0  0  0  0
 27 22  2  0  0  0  0
 29 19  2  0  0  0  0
 29 28  1  0  0  0  0
 31 30  1  0  0  0  0
M  END
>  <MODEL>
1

>  <REMARK>
 VINA RESULT:      -7.7      0.000      0.000
  Name = 
  5 active torsions:
  status: ('A' for Active; 'I' for Inactive)
    1  A    between atoms: N_7  and  C_30
    2  A    between atoms: N_8  and  P_12
    3  A    between atoms: C_16  and  C_30
    4  A    between atoms: C_22  and  N_24
    5  A    between atoms: C_26  and  C_31
                            x       y       z     vdW  Elec       q    Type
                         _______ _______ _______ _____ _____    ______ ____

>  <TORSDO>
F 5

$$$$
=
 OpenBabel10222421463D

 31 35  0  0  1  0  0  0  0  0999 V2000
  189.1180  176.8560  138.7760 C   0  0  0  0  0  2  0  0  0  0  0  0
  190.4630  176.5620  135.2380 C   0  0  0  0  0  2  0  0  0  0  0  0
  193.2910  172.1580  136.1820 C   0  0  0  0  0  1  0  0  0  0  0  0
  191.2720  175.1010  137.2950 C   0  0  2  0  0  3  0  0  0  0  0  0
  189.5490  176.4750  136.4460 C   0  0  1  0  0  0  0  0  0  0  0  0
  190.0440  177.1180  137.6780 N   0  0  0  0  0  0  0  0  0  0  0  0
  192.5320  174.4170  136.9670 N   0  0  0  0  0  0  0  0  0  0  0  0
  189.9680  174.0460  135.3640 C   0  0  0  0  0  2  0  0  0  0  0  0
  188.1750  176.3480  136.2210 O   0  0  0  0  0  1  0  0  0  0  0  0
  192.1270  173.1130  136.3760 C   0  0  1  0  0  3  0  0  0  0  0  0
  191.2500  173.2350  135.1010 C   0  0  0  0  0  2  0  0  0  0  0  0
  190.3940  175.2960  136.0980 C   0  0  1  0  0  0  0  0  0  0  0  0
  191.3100  176.4400  138.0120 C   0  0  0  0  0  2  0  0  0  0  0  0
  194.0300  176.6470  137.0030 N   0  0  0  0  0  1  0  0  0  0  0  0
  193.5490  175.3940  135.8080 P   0  0  1  0  0  0  0  0  0  0  0  0
  195.0100  174.4790  136.0110 O   0  0  0  0  0  1  0  0  0  0  0  0
  188.2860  178.0710  139.0240 C   0  0  0  0  0  3  0  0  0  0  0  0
  187.9490  178.5200  140.2350 C   0  0  0  0  0  3  0  0  0  0  0  0
  189.6340  177.7790  141.7940 N   0  0  0  0  0  0  0  0  0  0  0  0
  190.2290  175.6990  142.9000 C   0  0  0  0  0  1  0  0  0  0  0  0
  190.7020  177.8520  144.0250 C   0  0  0  0  0  3  0  0  0  0  0  0
  189.0050  177.1760  147.0880 O   0  0  0  0  0  0  0  0  0  0  0  0
  189.7630  177.1330  143.0910 C   0  0  1  0  0  0  0  0  0  0  0  0
  190.4400  177.8920  145.3390 C   0  0  0  0  0  3  0  0  0  0  0  0
  188.3580  177.1480  143.5910 C   0  0  1  0  0  3  0  0  0  0  0  0
  188.0390  177.1660  144.8910 C   0  0  1  0  0  3  0  0  0  0  0  0
  189.1560  177.3690  145.8530 C   0  0  0  0  0  0  0  0  0  0  0  0
  187.4750  177.5510  142.5560 N   0  0  0  0  0  2  0  0  0  0  0  0
  188.3760  177.9500  141.5210 C   0  0  0  0  0  0  0  0  0  0  0  0
  185.9820  178.3800  145.7910 C   0  0  0  0  0  1  0  0  0  0  0  0
  186.6620  177.1980  145.2860 N   0  0  0  0  0  2  0  0  0  0  0  0
  1 17  1  0  0  0  0
  2  5  1  0  0  0  0
  4 13  1  6  0  0  0
  5  9  1  6  0  0  0
  5  6  1  0  0  0  0
  6 13  1  0  0  0  0
  6  1  1  0  0  0  0
  7  4  1  0  0  0  0
  8 12  1  0  0  0  0
 10  3  1  6  0  0  0
 10  7  1  0  0  0  0
 11  8  1  0  0  0  0
 11 10  1  0  0  0  0
 12  2  1  6  0  0  0
 12  5  1  0  0  0  0
 12  4  1  0  0  0  0
 15 16  1  1  0  0  0
 15  7  1  0  0  0  0
 15 14  1  0  0  0  0
 17 18  2  0  0  0  0
 18 29  1  0  0  0  0
 19 23  1  0  0  0  0
 21 24  2  0  0  0  0
 23 20  1  6  0  0  0
 23 25  1  0  0  0  0
 23 21  1  0  0  0  0
 24 27  1  0  0  0  0
 25 28  1  6  0  0  0
 25 26  1  0  0  0  0
 26 31  1  6  0  0  0
 26 27  1  0  0  0  0
 27 22  2  0  0  0  0
 29 19  2  0  0  0  0
 29 28  1  0  0  0  0
 31 30  1  0  0  0  0
M  END
>  <MODEL>
2

>  <REMARK>
 VINA RESULT:      -7.4      1.848      2.368
  Name = 
  5 active torsions:
  status: ('A' for Active; 'I' for Inactive)
    1  A    between atoms: N_7  and  C_30
    2  A    between atoms: N_8  and  P_12
    3  A    between atoms: C_16  and  C_30
    4  A    between atoms: C_22  and  N_24
    5  A    between atoms: C_26  and  C_31
                            x       y       z     vdW  Elec       q    Type
                         _______ _______ _______ _____ _____    ______ ____

>  <TORSDO>
F 5

$$$$
=
 OpenBabel10222421463D

 31 35  0  0  1  0  0  0  0  0999 V2000
  183.7580  178.1880  143.1950 C   0  0  0  0  0  2  0  0  0  0  0  0
  181.4780  179.2860  140.3660 C   0  0  0  0  0  2  0  0  0  0  0  0
  182.0520  174.8130  137.5470 C   0  0  0  0  0  1  0  0  0  0  0  0
  183.0000  177.1180  140.3330 C   0  0  2  0  0  3  0  0  0  0  0  0
  181.9700  178.7470  141.6960 C   0  0  1  0  0  0  0  0  0  0  0  0
  183.4220  178.8440  141.9350 N   0  0  0  0  0  0  0  0  0  0  0  0
  183.1080  176.5940  138.9630 N   0  0  0  0  0  0  0  0  0  0  0  0
  180.4500  176.9330  140.4120 C   0  0  0  0  0  2  0  0  0  0  0  0
  181.0780  178.7460  142.7740 O   0  0  0  0  0  1  0  0  0  0  0  0
  181.9790  175.6360  138.8200 C   0  0  1  0  0  3  0  0  0  0  0  0
  180.5770  176.2670  139.0300 C   0  0  0  0  0  2  0  0  0  0  0  0
  181.6850  177.7840  140.5930 C   0  0  1  0  0  0  0  0  0  0  0  0
  184.0640  178.0640  140.8600 C   0  0  0  0  0  2  0  0  0  0  0  0
  184.5240  178.7610  138.2450 N   0  0  0  0  0  1  0  0  0  0  0  0
  183.0200  177.9290  137.7210 P   0  0  1  0  0  0  0  0  0  0  0  0
  183.8110  177.0600  136.4440 O   0  0  0  0  0  1  0  0  0  0  0  0
  183.8690  179.2140  144.2740 C   0  0  0  0  0  3  0  0  0  0  0  0
  184.9270  179.3550  145.0760 C   0  0  0  0  0  3  0  0  0  0  0  0
  186.8150  178.4420  143.8830 N   0  0  0  0  0  0  0  0  0  0  0  0
  187.7170  176.2330  143.4230 C   0  0  0  0  0  1  0  0  0  0  0  0
  189.2550  178.1660  143.5760 C   0  0  0  0  0  3  0  0  0  0  0  0
  191.4530  176.8350  146.0490 O   0  0  0  0  0  0  0  0  0  0  0  0
  187.9650  177.5770  144.0890 C   0  0  1  0  0  0  0  0  0  0  0  0
  190.4010  177.9470  144.2350 C   0  0  0  0  0  3  0  0  0  0  0  0
  187.9760  177.4150  145.5720 C   0  0  1  0  0  3  0  0  0  0  0  0
  189.0880  177.1730  146.2770 C   0  0  1  0  0  3  0  0  0  0  0  0
  190.3800  177.2610  145.5460 C   0  0  0  0  0  0  0  0  0  0  0  0
  186.7870  177.9480  146.1300 N   0  0  0  0  0  2  0  0  0  0  0  0
  186.1770  178.5840  145.0060 C   0  0  0  0  0  0  0  0  0  0  0  0
  189.0780  178.1690  148.6270 C   0  0  0  0  0  1  0  0  0  0  0  0
  189.0120  177.0480  147.7030 N   0  0  0  0  0  2  0  0  0  0  0  0
  1 17  1  0  0  0  0
  2  5  1  0  0  0  0
  4 12  1  0  0  0  0
  4 13  1  6  0  0  0
  5  6  1  0  0  0  0
  5  9  1  1  0  0  0
  6  1  1  0  0  0  0
  7  4  1  0  0  0  0
  8 12  1  0  0  0  0
 10  3  1  6  0  0  0
 10  7  1  0  0  0  0
 10 11  1  0  0  0  0
 11  8  1  0  0  0  0
 12  2  1  6  0  0  0
 12  5  1  0  0  0  0
 13  6  1  0  0  0  0
 15 16  1  6  0  0  0
 15 14  1  0  0  0  0
 15  7  1  0  0  0  0
 17 18  2  0  0  0  0
 19 23  1  0  0  0  0
 19 29  2  0  0  0  0
 21 23  1  0  0  0  0
 21 24  2  0  0  0  0
 23 20  1  6  0  0  0
 23 25  1  0  0  0  0
 24 27  1  0  0  0  0
 25 28  1  1  0  0  0
 25 26  1  0  0  0  0
 26 31  1  1  0  0  0
 27 22  2  0  0  0  0
 27 26  1  0  0  0  0
 29 18  1  0  0  0  0
 29 28  1  0  0  0  0
 31 30  1  0  0  0  0
M  END
>  <MODEL>
3

>  <REMARK>
 VINA RESULT:      -7.4      6.868      9.369
  Name = 
  5 active torsions:
  status: ('A' for Active; 'I' for Inactive)
    1  A    between atoms: N_7  and  C_30
    2  A    between atoms: N_8  and  P_12
    3  A    between atoms: C_16  and  C_30
    4  A    between atoms: C_22  and  N_24
    5  A    between atoms: C_26  and  C_31
                            x       y       z     vdW  Elec       q    Type
                         _______ _______ _______ _____ _____    ______ ____

>  <TORSDO>
F 5

$$$$
=
 OpenBabel10222421463D

 31 35  0  0  1  0  0  0  0  0999 V2000
  189.8680  177.5900  141.8200 C   0  0  0  0  0  2  0  0  0  0  0  0
  189.3570  178.5590  138.1860 C   0  0  0  0  0  2  0  0  0  0  0  0
  189.7790  173.5960  136.3200 C   0  0  0  0  0  1  0  0  0  0  0  0
  190.0930  176.1570  139.0270 C   0  0  2  0  0  3  0  0  0  0  0  0
  189.0870  178.2040  139.6360 C   0  0  1  0  0  0  0  0  0  0  0  0
  190.2760  178.0380  140.4930 N   0  0  0  0  0  0  0  0  0  0  0  0
  190.6060  175.3600  137.9020 N   0  0  0  0  0  0  0  0  0  0  0  0
  187.7950  176.5330  137.9670 C   0  0  0  0  0  2  0  0  0  0  0  0
  187.8690  178.6050  140.1930 O   0  0  0  0  0  1  0  0  0  0  0  0
  189.4200  174.6530  137.3490 C   0  0  1  0  0  3  0  0  0  0  0  0
  188.2900  175.5940  136.8520 C   0  0  0  0  0  2  0  0  0  0  0  0
  189.0290  177.1230  138.6100 C   0  0  1  0  0  0  0  0  0  0  0  0
  191.0610  176.9430  139.8920 C   0  0  0  0  0  2  0  0  0  0  0  0
  192.9860  176.5390  137.4970 N   0  0  0  0  0  1  0  0  0  0  0  0
  191.4100  176.4100  136.6430 P   0  0  1  0  0  0  0  0  0  0  0  0
  191.9430  175.1130  135.6190 O   0  0  0  0  0  1  0  0  0  0  0  0
  191.0430  177.6310  142.7410 C   0  0  0  0  0  3  0  0  0  0  0  0
  190.9570  177.6740  144.0730 C   0  0  0  0  0  3  0  0  0  0  0  0
  189.7360  177.8120  146.1490 N   0  0  0  0  0  0  0  0  0  0  0  0
  188.3250  176.3420  147.4730 C   0  0  0  0  0  1  0  0  0  0  0  0
  187.9390  178.7860  147.5440 C   0  0  0  0  0  3  0  0  0  0  0  0
  184.4800  178.7510  146.6760 O   0  0  0  0  0  0  0  0  0  0  0  0
  188.3940  177.6380  146.6800 C   0  0  1  0  0  0  0  0  0  0  0  0
  186.6560  179.1740  147.5240 C   0  0  0  0  0  3  0  0  0  0  0  0
  187.5770  177.5160  145.4370 C   0  0  1  0  0  3  0  0  0  0  0  0
  186.2870  177.8670  145.3670 C   0  0  1  0  0  3  0  0  0  0  0  0
  185.7210  178.5810  146.5430 C   0  0  0  0  0  0  0  0  0  0  0  0
  188.4240  177.3900  144.3070 N   0  0  0  0  0  2  0  0  0  0  0  0
  189.7180  177.6280  144.8640 C   0  0  0  0  0  0  0  0  0  0  0  0
  185.1260  178.8560  143.3210 C   0  0  0  0  0  1  0  0  0  0  0  0
  185.5810  177.7350  144.1270 N   0  0  0  0  0  2  0  0  0  0  0  0
  1 17  1  0  0  0  0
  2 12  1  0  0  0  0
  2  5  1  0  0  0  0
  4 13  1  6  0  0  0
  5  9  1  1  0  0  0
  5  6  1  0  0  0  0
  6  1  1  0  0  0  0
  7  4  1  0  0  0  0
 10  3  1  6  0  0  0
 10  7  1  0  0  0  0
 11 10  1  0  0  0  0
 11  8  1  0  0  0  0
 12  8  1  6  0  0  0
 12  4  1  0  0  0  0
 12  5  1  0  0  0  0
 13  6  1  0  0  0  0
 15 16  1  6  0  0  0
 15 14  1  0  0  0  0
 15  7  1  0  0  0  0
 17 18  2  0  0  0  0
 18 29  1  0  0  0  0
 19 23  1  0  0  0  0
 23 20  1  1  0  0  0
 23 21  1  0  0  0  0
 24 21  2  0  0  0  0
 25 28  1  6  0  0  0
 25 23  1  0  0  0  0
 26 31  1  6  0  0  0
 26 25  1  0  0  0  0
 26 27  1  0  0  0  0
 27 22  2  0  0  0  0
 27 24  1  0  0  0  0
 28 29  1  0  0  0  0
 29 19  2  0  0  0  0
 30 31  1  0  0  0  0
M  END
>  <MODEL>
4

>  <REMARK>
 VINA RESULT:      -7.3      3.075      4.660
  Name = 
  5 active torsions:
  status: ('A' for Active; 'I' for Inactive)
    1  A    between atoms: N_7  and  C_30
    2  A    between atoms: N_8  and  P_12
    3  A    between atoms: C_16  and  C_30
    4  A    between atoms: C_22  and  N_24
    5  A    between atoms: C_26  and  C_31
                            x       y       z     vdW  Elec       q    Type
                         _______ _______ _______ _____ _____    ______ ____

>  <TORSDO>
F 5

$$$$
=
 OpenBabel10222421463D

 31 35  0  0  1  0  0  0  0  0999 V2000
  186.6170  177.7540  139.1010 C   0  0  0  0  0  2  0  0  0  0  0  0
  183.4980  179.9140  138.9800 C   0  0  0  0  0  2  0  0  0  0  0  0
  180.1040  175.8210  138.8710 C   0  0  0  0  0  1  0  0  0  0  0  0
  183.5370  177.2860  138.6510 C   0  0  2  0  0  3  0  0  0  0  0  0
  184.7090  179.1550  139.4900 C   0  0  1  0  0  0  0  0  0  0  0  0
  185.5660  178.5380  138.4610 N   0  0  0  0  0  0  0  0  0  0  0  0
  182.2620  176.8270  138.0790 N   0  0  0  0  0  0  0  0  0  0  0  0
  182.4570  178.3370  140.7170 C   0  0  0  0  0  2  0  0  0  0  0  0
  185.2510  179.5380  140.7210 O   0  0  0  0  0  1  0  0  0  0  0  0
  181.3920  176.5300  139.2490 C   0  0  1  0  0  3  0  0  0  0  0  0
  181.1410  177.7450  140.1810 C   0  0  0  0  0  2  0  0  0  0  0  0
  183.3750  178.4880  139.5280 C   0  0  1  0  0  0  0  0  0  0  0  0
  184.7060  177.5890  137.7300 C   0  0  0  0  0  2  0  0  0  0  0  0
  182.4740  177.6560  135.5320 N   0  0  0  0  0  1  0  0  0  0  0  0
  181.5180  178.0890  136.9900 P   0  0  1  0  0  0  0  0  0  0  0  0
  180.1430  177.1450  136.5080 O   0  0  0  0  0  1  0  0  0  0  0  0
  187.9480  178.3460  138.7730 C   0  0  0  0  0  3  0  0  0  0  0  0
  188.9640  178.4440  139.6340 C   0  0  0  0  0  3  0  0  0  0  0  0
  190.0990  177.7210  141.6360 N   0  0  0  0  0  0  0  0  0  0  0  0
  190.2150  175.6940  142.9710 C   0  0  0  0  0  1  0  0  0  0  0  0
  190.5200  177.8910  144.0690 C   0  0  0  0  0  3  0  0  0  0  0  0
  188.0040  177.5290  146.5710 O   0  0  0  0  0  0  0  0  0  0  0  0
  189.8210  177.1620  142.9490 C   0  0  1  0  0  0  0  0  0  0  0  0
  189.9120  178.0380  145.2550 C   0  0  0  0  0  3  0  0  0  0  0  0
  188.3380  177.2910  143.0380 C   0  0  1  0  0  3  0  0  0  0  0  0
  187.6780  177.4190  144.1960 C   0  0  1  0  0  3  0  0  0  0  0  0
  188.5010  177.6250  145.4180 C   0  0  0  0  0  0  0  0  0  0  0  0
  187.8040  177.6690  141.7800 N   0  0  0  0  0  2  0  0  0  0  0  0
  188.9800  177.9430  141.0160 C   0  0  0  0  0  0  0  0  0  0  0  0
  185.5470  178.7880  144.5030 C   0  0  0  0  0  1  0  0  0  0  0  0
  186.2520  177.5560  144.1910 N   0  0  0  0  0  2  0  0  0  0  0  0
  2  5  1  0  0  0  0
  4 13  1  6  0  0  0
  4 12  1  0  0  0  0
  5 12  1  0  0  0  0
  5  9  1  1  0  0  0
  6  1  1  0  0  0  0
  6  5  1  0  0  0  0
  7  4  1  0  0  0  0
  7 10  1  0  0  0  0
 10  3  1  6  0  0  0
 10 11  1  0  0  0  0
 11  8  1  0  0  0  0
 12  2  1  6  0  0  0
 12  8  1  0  0  0  0
 13  6  1  0  0  0  0
 15 14  1  6  0  0  0
 15  7  1  0  0  0  0
 16 15  1  0  0  0  0
 17  1  1  0  0  0  0
 17 18  2  0  0  0  0
 18 29  1  0  0  0  0
 19 23  1  0  0  0  0
 21 24  2  0  0  0  0
 23 20  1  1  0  0  0
 23 25  1  0  0  0  0
 23 21  1  0  0  0  0
 24 27  1  0  0  0  0
 25 28  1  6  0  0  0
 25 26  1  0  0  0  0
 26 31  1  6  0  0  0
 26 27  1  0  0  0  0
 27 22  2  0  0  0  0
 29 19  2  0  0  0  0
 29 28  1  0  0  0  0
 31 30  1  0  0  0  0
M  END
>  <MODEL>
5

>  <REMARK>
 VINA RESULT:      -7.3      5.725      8.734
  Name = 
  5 active torsions:
  status: ('A' for Active; 'I' for Inactive)
    1  A    between atoms: N_7  and  C_30
    2  A    between atoms: N_8  and  P_12
    3  A    between atoms: C_16  and  C_30
    4  A    between atoms: C_22  and  N_24
    5  A    between atoms: C_26  and  C_31
                            x       y       z     vdW  Elec       q    Type
                         _______ _______ _______ _____ _____    ______ ____

>  <TORSDO>
F 5

$$$$
=
 OpenBabel10222421463D

 31 35  0  0  1  0  0  0  0  0999 V2000
  184.7060  178.1580  141.9120 C   0  0  0  0  0  2  0  0  0  0  0  0
  184.2520  179.7490  138.4960 C   0  0  0  0  0  2  0  0  0  0  0  0
  186.6810  175.8350  135.8370 C   0  0  0  0  0  1  0  0  0  0  0  0
  185.7370  177.6110  138.9890 C   0  0  2  0  0  3  0  0  0  0  0  0
  183.9840  178.9820  139.7780 C   0  0  1  0  0  0  0  0  0  0  0  0
  185.0540  179.0270  140.7920 N   0  0  0  0  0  0  0  0  0  0  0  0
  186.6230  177.3340  137.8480 N   0  0  0  0  0  0  0  0  0  0  0  0
  183.5870  177.4310  137.6130 C   0  0  0  0  0  2  0  0  0  0  0  0
  182.6530  178.7980  140.1650 O   0  0  0  0  0  1  0  0  0  0  0  0
  185.8490  176.4240  136.9620 C   0  0  1  0  0  3  0  0  0  0  0  0
  184.5090  177.0170  136.4520 C   0  0  0  0  0  2  0  0  0  0  0  0
  184.4390  178.2290  138.5730 C   0  0  1  0  0  0  0  0  0  0  0  0
  186.2470  178.4440  140.1510 C   0  0  0  0  0  2  0  0  0  0  0  0
  188.6250  179.1250  137.9040 N   0  0  0  0  0  1  0  0  0  0  0  0
  187.1050  178.8670  136.9810 P   0  0  1  0  0  0  0  0  0  0  0  0
  187.9100  178.0940  135.6520 O   0  0  0  0  0  1  0  0  0  0  0  0
  184.3690  178.9950  143.1020 C   0  0  0  0  0  3  0  0  0  0  0  0
  185.1000  179.0490  144.2180 C   0  0  0  0  0  3  0  0  0  0  0  0
  187.2760  178.2760  143.5190 N   0  0  0  0  0  0  0  0  0  0  0  0
  188.4030  176.1350  143.2870 C   0  0  0  0  0  1  0  0  0  0  0  0
  189.7300  178.1570  143.8140 C   0  0  0  0  0  3  0  0  0  0  0  0
  191.3430  176.9210  146.7450 O   0  0  0  0  0  0  0  0  0  0  0  0
  188.3960  177.4810  143.9960 C   0  0  1  0  0  0  0  0  0  0  0  0
  190.6940  177.9980  144.7320 C   0  0  0  0  0  3  0  0  0  0  0  0
  188.0570  177.2930  145.4370 C   0  0  1  0  0  3  0  0  0  0  0  0
  188.9770  177.1070  146.3910 C   0  0  1  0  0  3  0  0  0  0  0  0
  190.3990  177.2890  145.9960 C   0  0  0  0  0  0  0  0  0  0  0  0
  186.7350  177.7410  145.6900 N   0  0  0  0  0  2  0  0  0  0  0  0
  186.3770  178.3580  144.4520 C   0  0  0  0  0  0  0  0  0  0  0  0
  188.4930  178.0410  148.7170 C   0  0  0  0  0  1  0  0  0  0  0  0
  188.5660  176.9530  147.7560 N   0  0  0  0  0  2  0  0  0  0  0  0
  1 17  1  0  0  0  0
  2 12  1  0  0  0  0
  2  5  1  0  0  0  0
  4 13  1  1  0  0  0
  5  9  1  1  0  0  0
  5  6  1  0  0  0  0
  6  1  1  0  0  0  0
  7  4  1  0  0  0  0
 10  3  1  6  0  0  0
 10  7  1  0  0  0  0
 11 10  1  0  0  0  0
 11  8  1  0  0  0  0
 12  8  1  6  0  0  0
 12  4  1  0  0  0  0
 12  5  1  0  0  0  0
 13  6  1  0  0  0  0
 15 16  1  6  0  0  0
 15  7  1  0  0  0  0
 15 14  1  0  0  0  0
 17 18  2  0  0  0  0
 18 29  1  0  0  0  0
 19 23  1  0  0  0  0
 19 29  2  0  0  0  0
 21 23  1  0  0  0  0
 21 24  2  0  0  0  0
 23 20  1  6  0  0  0
 23 25  1  0  0  0  0
 24 27  1  0  0  0  0
 25 28  1  1  0  0  0
 25 26  1  0  0  0  0
 26 31  1  1  0  0  0
 27 26  1  0  0  0  0
 27 22  2  0  0  0  0
 29 28  1  0  0  0  0
 31 30  1  0  0  0  0
M  END
>  <MODEL>
6

>  <REMARK>
 VINA RESULT:      -7.1      5.590      7.218
  Name = 
  5 active torsions:
  status: ('A' for Active; 'I' for Inactive)
    1  A    between atoms: N_7  and  C_30
    2  A    between atoms: N_8  and  P_12
    3  A    between atoms: C_16  and  C_30
    4  A    between atoms: C_22  and  N_24
    5  A    between atoms: C_26  and  C_31
                            x       y       z     vdW  Elec       q    Type
                         _______ _______ _______ _____ _____    ______ ____

>  <TORSDO>
F 5

$$$$
=
 OpenBabel10222421463D

 31 35  0  0  1  0  0  0  0  0999 V2000
  189.6850  177.8050  138.1030 C   0  0  0  0  0  2  0  0  0  0  0  0
  187.2400  177.6540  135.2030 C   0  0  0  0  0  2  0  0  0  0  0  0
  184.5100  173.5100  137.1150 C   0  0  0  0  0  1  0  0  0  0  0  0
  187.4410  175.8310  137.1150 C   0  0  2  0  0  3  0  0  0  0  0  0
  187.9200  178.0590  136.4980 C   0  0  1  0  0  0  0  0  0  0  0  0
  189.2110  177.4050  136.7820 N   0  0  0  0  0  0  0  0  0  0  0  0
  186.7340  174.6030  136.7210 N   0  0  0  0  0  0  0  0  0  0  0  0
  185.3680  177.3180  136.9270 C   0  0  0  0  0  2  0  0  0  0  0  0
  187.6470  179.3310  137.0120 O   0  0  0  0  0  1  0  0  0  0  0  0
  185.3430  174.7750  137.2200 C   0  0  1  0  0  3  0  0  0  0  0  0
  184.6060  176.0110  136.6410 C   0  0  0  0  0  2  0  0  0  0  0  0
  186.8090  177.0650  136.5510 C   0  0  1  0  0  0  0  0  0  0  0  0
  188.9300  175.9590  136.8460 C   0  0  0  0  0  2  0  0  0  0  0  0
  188.5180  173.9250  134.8310 N   0  0  0  0  0  1  0  0  0  0  0  0
  186.7750  174.3510  134.9140 P   0  0  1  0  0  0  0  0  0  0  0  0
  186.2550  172.6950  134.9360 O   0  0  0  0  0  1  0  0  0  0  0  0
  190.7060  176.8260  138.5810 C   0  0  0  0  0  3  0  0  0  0  0  0
  190.9300  176.5350  139.8640 C   0  0  0  0  0  3  0  0  0  0  0  0
  188.8890  177.0980  141.0200 N   0  0  0  0  0  0  0  0  0  0  0  0
  187.8570  179.1090  141.9110 C   0  0  0  0  0  1  0  0  0  0  0  0
  187.3950  176.9280  142.9860 C   0  0  0  0  0  3  0  0  0  0  0  0
  188.3380  177.8210  146.3080 O   0  0  0  0  0  0  0  0  0  0  0  0
  188.4250  177.7380  142.2400 C   0  0  1  0  0  0  0  0  0  0  0  0
  187.3820  176.9300  144.3260 C   0  0  0  0  0  3  0  0  0  0  0  0
  189.6890  177.8860  143.0180 C   0  0  1  0  0  3  0  0  0  0  0  0
  189.7310  177.9170  144.3560 C   0  0  1  0  0  3  0  0  0  0  0  0
  188.4680  177.6000  145.0740 C   0  0  0  0  0  0  0  0  0  0  0  0
  190.8050  177.5740  142.2000 N   0  0  0  0  0  2  0  0  0  0  0  0
  190.1870  177.0670  141.0160 C   0  0  0  0  0  0  0  0  0  0  0  0
  191.6800  176.9490  145.6900 C   0  0  0  0  0  1  0  0  0  0  0  0
  190.9920  178.0440  145.0250 N   0  0  0  0  0  2  0  0  0  0  0  0
  1 17  1  0  0  0  0
  2  5  1  0  0  0  0
  4 13  1  6  0  0  0
  5 12  1  0  0  0  0
  5  6  1  0  0  0  0
  5  9  1  1  0  0  0
  6 13  1  0  0  0  0
  6  1  1  0  0  0  0
  7  4  1  0  0  0  0
  7 10  1  0  0  0  0
 10  3  1  6  0  0  0
 11  8  1  0  0  0  0
 11 10  1  0  0  0  0
 12  2  1  6  0  0  0
 12  8  1  0  0  0  0
 12  4  1  0  0  0  0
 15 14  1  1  0  0  0
 15 16  1  0  0  0  0
 15  7  1  0  0  0  0
 17 18  2  0  0  0  0
 18 29  1  0  0  0  0
 19 23  1  0  0  0  0
 21 24  2  0  0  0  0
 23 20  1  6  0  0  0
 23 21  1  0  0  0  0
 23 25  1  0  0  0  0
 24 27  1  0  0  0  0
 25 28  1  1  0  0  0
 25 26  1  0  0  0  0
 26 31  1  1  0  0  0
 26 27  1  0  0  0  0
 27 22  2  0  0  0  0
 29 19  2  0  0  0  0
 29 28  1  0  0  0  0
 31 30  1  0  0  0  0
M  END
>  <MODEL>
7

>  <REMARK>
 VINA RESULT:      -7.1      4.146      6.155
  Name = 
  5 active torsions:
  status: ('A' for Active; 'I' for Inactive)
    1  A    between atoms: N_7  and  C_30
    2  A    between atoms: N_8  and  P_12
    3  A    between atoms: C_16  and  C_30
    4  A    between atoms: C_22  and  N_24
    5  A    between atoms: C_26  and  C_31
                            x       y       z     vdW  Elec       q    Type
                         _______ _______ _______ _____ _____    ______ ____

>  <TORSDO>
F 5

$$$$
=
 OpenBabel10222421463D

 31 35  0  0  1  0  0  0  0  0999 V2000
  189.1240  176.8950  138.5970 C   0  0  0  0  0  2  0  0  0  0  0  0
  186.6110  177.6060  135.8420 C   0  0  0  0  0  2  0  0  0  0  0  0
  183.6020  173.3380  136.8470 C   0  0  0  0  0  1  0  0  0  0  0  0
  186.7080  175.3760  137.2690 C   0  0  2  0  0  3  0  0  0  0  0  0
  187.3490  177.6460  137.1670 C   0  0  1  0  0  0  0  0  0  0  0  0
  188.5900  176.8520  137.2390 N   0  0  0  0  0  0  0  0  0  0  0  0
  185.8970  174.3290  136.6290 N   0  0  0  0  0  0  0  0  0  0  0  0
  184.7560  177.0110  137.5150 C   0  0  0  0  0  2  0  0  0  0  0  0
  187.1900  178.7780  137.9730 O   0  0  0  0  0  1  0  0  0  0  0  0
  184.5350  174.4790  137.2090 C   0  0  1  0  0  3  0  0  0  0  0  0
  183.8860  175.8670  136.9640 C   0  0  0  0  0  2  0  0  0  0  0  0
  186.1640  176.7510  137.0320 C   0  0  1  0  0  0  0  0  0  0  0  0
  188.1960  175.4550  136.9770 C   0  0  0  0  0  2  0  0  0  0  0  0
  187.5850  174.0060  134.5640 N   0  0  0  0  0  1  0  0  0  0  0  0
  185.8770  174.5060  134.8120 P   0  0  1  0  0  0  0  0  0  0  0  0
  185.2460  172.9250  134.4690 O   0  0  0  0  0  1  0  0  0  0  0  0
  190.6030  177.0890  138.5420 C   0  0  0  0  0  3  0  0  0  0  0  0
  191.3910  177.1960  139.6150 C   0  0  0  0  0  3  0  0  0  0  0  0
  191.8040  177.2700  141.9910 N   0  0  0  0  0  0  0  0  0  0  0  0
  191.6530  175.7270  143.8630 C   0  0  0  0  0  1  0  0  0  0  0  0
  191.3010  178.1460  144.2510 C   0  0  0  0  0  3  0  0  0  0  0  0
  188.1110  177.9200  145.8290 O   0  0  0  0  0  0  0  0  0  0  0  0
  191.1350  177.0230  143.2590 C   0  0  1  0  0  0  0  0  0  0  0  0
  190.2960  178.4630  145.0790 C   0  0  0  0  0  3  0  0  0  0  0  0
  189.7140  176.8550  142.8380 C   0  0  1  0  0  3  0  0  0  0  0  0
  188.6730  177.1350  143.6320 C   0  0  1  0  0  3  0  0  0  0  0  0
  188.9750  177.8180  144.9180 C   0  0  0  0  0  0  0  0  0  0  0  0
  189.6300  176.7740  141.4240 N   0  0  0  0  0  2  0  0  0  0  0  0
  190.9640  177.0830  141.0180 C   0  0  0  0  0  0  0  0  0  0  0  0
  186.4670  178.0540  142.7370 C   0  0  0  0  0  1  0  0  0  0  0  0
  187.3380  176.9620  143.1410 N   0  0  0  0  0  2  0  0  0  0  0  0
  2  5  1  0  0  0  0
  4 13  1  6  0  0  0
  5  6  1  0  0  0  0
  5  9  1  1  0  0  0
  6  1  1  0  0  0  0
  7 10  1  0  0  0  0
  7  4  1  0  0  0  0
 10  3  1  6  0  0  0
 11 10  1  0  0  0  0
 11  8  1  0  0  0  0
 12  2  1  6  0  0  0
 12  5  1  0  0  0  0
 12  4  1  0  0  0  0
 12  8  1  0  0  0  0
 13  6  1  0  0  0  0
 14 15  1  0  0  0  0
 15 16  1  6  0  0  0
 15  7  1  0  0  0  0
 17  1  1  0  0  0  0
 17 18  2  0  0  0  0
 18 29  1  0  0  0  0
 19 23  1  0  0  0  0
 21 24  2  0  0  0  0
 23 20  1  1  0  0  0
 23 21  1  0  0  0  0
 25 28  1  6  0  0  0
 25 23  1  0  0  0  0
 25 26  1  0  0  0  0
 26 31  1  6  0  0  0
 26 27  1  0  0  0  0
 27 24  1  0  0  0  0
 27 22  2  0  0  0  0
 29 28  1  0  0  0  0
 29 19  2  0  0  0  0
 30 31  1  0  0  0  0
M  END
>  <MODEL>
8

>  <REMARK>
 VINA RESULT:      -6.9      4.241      6.292
  Name = 
  5 active torsions:
  status: ('A' for Active; 'I' for Inactive)
    1  A    between atoms: N_7  and  C_30
    2  A    between atoms: N_8  and  P_12
    3  A    between atoms: C_16  and  C_30
    4  A    between atoms: C_22  and  N_24
    5  A    between atoms: C_26  and  C_31
                            x       y       z     vdW  Elec       q    Type
                         _______ _______ _______ _____ _____    ______ ____

>  <TORSDO>
F 5

$$$$
=
 OpenBabel10222421463D

 31 35  0  0  1  0  0  0  0  0999 V2000
  191.1880  176.4690  139.2060 C   0  0  0  0  0  2  0  0  0  0  0  0
  192.0450  174.9360  135.8410 C   0  0  0  0  0  2  0  0  0  0  0  0
  197.0750  173.7820  137.1260 C   0  0  0  0  0  1  0  0  0  0  0  0
  193.7960  175.4620  137.7590 C   0  0  2  0  0  3  0  0  0  0  0  0
  191.5160  175.1170  137.2520 C   0  0  1  0  0  0  0  0  0  0  0  0
  191.6290  176.4750  137.8150 N   0  0  0  0  0  0  0  0  0  0  0  0
  195.1650  175.4060  137.2250 N   0  0  0  0  0  0  0  0  0  0  0  0
  193.2360  173.0510  137.1140 C   0  0  0  0  0  2  0  0  0  0  0  0
  190.5030  174.2560  137.6880 O   0  0  0  0  0  1  0  0  0  0  0  0
  195.5980  173.9940  137.4060 C   0  0  1  0  0  3  0  0  0  0  0  0
  194.7080  172.9550  136.6730 C   0  0  0  0  0  2  0  0  0  0  0  0
  192.8680  174.5150  137.0640 C   0  0  1  0  0  0  0  0  0  0  0  0
  193.0690  176.7940  137.8230 C   0  0  0  0  0  2  0  0  0  0  0  0
  194.9810  177.6630  135.7800 N   0  0  0  0  0  1  0  0  0  0  0  0
  195.2270  175.9100  135.4720 P   0  0  1  0  0  0  0  0  0  0  0  0
  196.9540  176.0540  135.3710 O   0  0  0  0  0  1  0  0  0  0  0  0
  189.7710  176.9350  139.2800 C   0  0  0  0  0  3  0  0  0  0  0  0
  189.1630  177.3290  140.4010 C   0  0  0  0  0  3  0  0  0  0  0  0
  189.3570  178.2990  142.6010 N   0  0  0  0  0  0  0  0  0  0  0  0
  191.0590  179.4800  143.8710 C   0  0  0  0  0  1  0  0  0  0  0  0
  189.4010  178.0850  145.0670 C   0  0  0  0  0  3  0  0  0  0  0  0
  191.7040  176.0380  146.8640 O   0  0  0  0  0  0  0  0  0  0  0  0
  190.1900  178.2350  143.7910 C   0  0  1  0  0  0  0  0  0  0  0  0
  189.8840  177.3380  146.0700 C   0  0  0  0  0  3  0  0  0  0  0  0
  191.0400  177.0400  143.5160 C   0  0  1  0  0  3  0  0  0  0  0  0
  191.5660  176.2730  144.4790 C   0  0  1  0  0  3  0  0  0  0  0  0
  191.1120  176.5380  145.8710 C   0  0  0  0  0  0  0  0  0  0  0  0
  190.8630  176.6130  142.1750 N   0  0  0  0  0  2  0  0  0  0  0  0
  189.7810  177.4330  141.7310 C   0  0  0  0  0  0  0  0  0  0  0  0
  192.3570  173.8770  144.8620 C   0  0  0  0  0  1  0  0  0  0  0  0
  192.3570  175.1310  144.1270 N   0  0  0  0  0  2  0  0  0  0  0  0
  1 17  1  0  0  0  0
  2  5  1  0  0  0  0
  4 13  1  6  0  0  0
  5  9  1  1  0  0  0
  5  6  1  0  0  0  0
  6 13  1  0  0  0  0
  6  1  1  0  0  0  0
  7 10  1  0  0  0  0
  7  4  1  0  0  0  0
 10  3  1  6  0  0  0
 11  8  1  0  0  0  0
 11 10  1  0  0  0  0
 12  2  1  6  0  0  0
 12  8  1  0  0  0  0
 12  5  1  0  0  0  0
 12  4  1  0  0  0  0
 15 16  1  1  0  0  0
 15 14  1  0  0  0  0
 15  7  1  0  0  0  0
 17 18  2  0  0  0  0
 18 29  1  0  0  0  0
 19 23  1  0  0  0  0
 21 24  2  0  0  0  0
 23 20  1  1  0  0  0
 23 21  1  0  0  0  0
 25 28  1  6  0  0  0
 25 23  1  0  0  0  0
 25 26  1  0  0  0  0
 26 31  1  6  0  0  0
 26 27  1  0  0  0  0
 27 24  1  0  0  0  0
 27 22  2  0  0  0  0
 29 28  1  0  0  0  0
 29 19  2  0  0  0  0
 31 30  1  0  0  0  0
M  END
>  <MODEL>
9

>  <REMARK>
 VINA RESULT:      -6.8      1.373      2.326
  Name = 
  5 active torsions:
  status: ('A' for Active; 'I' for Inactive)
    1  A    between atoms: N_7  and  C_30
    2  A    between atoms: N_8  and  P_12
    3  A    between atoms: C_16  and  C_30
    4  A    between atoms: C_22  and  N_24
    5  A    between atoms: C_26  and  C_31
                            x       y       z     vdW  Elec       q    Type
                         _______ _______ _______ _____ _____    ______ ____

>  <TORSDO>
F 5

$$$$
