=
 OpenBabel10232410153D

 41 43  0  0  1  0  0  0  0  0999 V2000
  188.6430  178.1970  140.6890 C   0  0  0  0  0  3  0  0  0  0  0  0
  188.2900  178.3600  139.4140 C   0  0  0  0  0  3  0  0  0  0  0  0
  189.6380  177.1740  141.1240 C   0  0  1  0  0  3  0  0  0  0  0  0
  191.1690  177.2950  139.1860 C   0  0  0  0  0  3  0  0  0  0  0  0
  192.2180  177.6220  141.3320 C   0  0  0  0  0  1  0  0  0  0  0  0
  188.8660  177.6200  138.2710 C   0  0  0  0  0  3  0  0  0  0  0  0
  190.1000  177.1050  138.1780 C   0  0  0  0  0  0  0  0  0  0  0  0
  190.9980  177.4000  140.5030 C   0  0  0  0  0  0  0  0  0  0  0  0
  190.1110  175.5370  142.9990 C   0  0  0  0  0  1  0  0  0  0  0  0
  189.5980  176.9360  142.6500 C   0  0  2  0  0  3  0  0  0  0  0  0
  187.6140  175.9030  143.5370 C   0  0  0  0  0  1  0  0  0  0  0  0
  188.2540  177.1750  143.2010 N   0  0  0  0  0  0  0  0  0  0  0  0
  190.8810  177.1570  147.1930 C   0  0  0  0  0  1  0  0  0  0  0  0
  187.0650  177.9180  145.2550 C   0  0  2  0  0  3  0  0  0  0  0  0
  187.3400  178.1170  146.7440 C   0  0  0  0  0  2  0  0  0  0  0  0
  189.6380  176.9580  146.3470 C   0  0  1  0  0  3  0  0  0  0  0  0
  188.3390  178.0270  144.4020 C   0  0  1  0  0  3  0  0  0  0  0  0
  188.3960  177.1480  147.1790 C   0  0  0  0  0  0  0  0  0  0  0  0
  188.2300  176.4930  148.1960 O   0  0  0  0  0  0  0  0  0  0  0  0
  189.6790  177.9380  145.1720 C   0  0  0  0  0  2  0  0  0  0  0  0
  186.0490  178.9360  144.7620 C   0  0  0  0  0  2  0  0  0  0  0  0
  183.5650  178.9370  144.8870 C   0  0  0  0  0  1  0  0  0  0  0  0
  184.7810  178.2550  144.2800 C   0  0  1  0  0  3  0  0  0  0  0  0
  184.7240  178.3430  142.7910 C   0  0  0  0  0  3  0  0  0  0  0  0
  185.3940  179.2910  142.1370 C   0  0  0  0  0  2  0  0  0  0  0  0
  190.4780  176.4430  136.8960 C   0  0  0  0  0  2  0  0  0  0  0  0
  190.1460  174.9570  136.9270 C   0  0  2  0  0  3  0  0  0  0  0  0
  191.6460  173.1870  136.0110 O   0  0  0  0  0  0  0  0  0  0  0  0
  191.3900  174.1260  137.0010 C   0  0  0  0  0  0  0  0  0  0  0  0
  192.2020  174.2660  137.9540 O   0  0  0  0  0  1  0  0  0  0  0  0
  189.3180  174.5920  135.7050 C   0  0  0  0  0  2  0  0  0  0  0  0
  187.8650  174.7870  135.9810 C   0  0  0  0  0  0  0  0  0  0  0  0
  187.1330  173.9550  136.7400 N   0  0  0  0  0  2  0  0  0  0  0  0
  187.1010  175.8510  135.5630 C   0  0  0  0  0  0  0  0  0  0  0  0
  185.8250  175.6930  136.0640 C   0  0  0  0  0  3  0  0  0  0  0  0
  185.8980  174.5050  136.7810 C   0  0  0  0  0  0  0  0  0  0  0  0
  184.9090  172.7870  138.0770 O   0  0  0  0  0  0  0  0  0  0  0  0
  184.7730  173.9010  137.5070 C   0  0  0  0  0  0  0  0  0  0  0  0
  183.4590  174.5970  137.5770 C   0  0  0  0  0  1  0  0  0  0  0  0
  186.7430  178.1070  134.4950 C   0  0  0  0  0  1  0  0  0  0  0  0
  187.5650  176.9400  134.7620 N   0  0  0  0  0  2  0  0  0  0  0  0
  1  3  1  0  0  0  0
  2  1  2  0  0  0  0
  3 10  1  1  0  0  0
  4  8  2  0  0  0  0
  6  2  1  0  0  0  0
  7  6  2  0  0  0  0
  7  4  1  0  0  0  0
  8  3  1  0  0  0  0
  8  5  1  0  0  0  0
 10  9  1  6  0  0  0
 10 12  1  0  0  0  0
 12 11  1  0  0  0  0
 14 21  1  6  0  0  0
 14 15  1  0  0  0  0
 15 18  1  0  0  0  0
 16 18  1  0  0  0  0
 16 13  1  1  0  0  0
 17 12  1  6  0  0  0
 17 20  1  0  0  0  0
 17 14  1  0  0  0  0
 18 19  2  0  0  0  0
 20 16  1  0  0  0  0
 23 21  1  0  0  0  0
 23 22  1  1  0  0  0
 24 23  1  0  0  0  0
 25 24  2  0  0  0  0
 26 27  1  0  0  0  0
 26  7  1  0  0  0  0
 27 31  1  6  0  0  0
 27 29  1  0  0  0  0
 28 29  2  0  0  0  0
 29 30  1  0  0  0  0
 31 32  1  0  0  0  0
 32 33  1  0  0  0  0
 33 36  1  0  0  0  0
 34 32  2  0  0  0  0
 34 35  1  0  0  0  0
 35 36  2  0  0  0  0
 36 38  1  0  0  0  0
 38 39  1  0  0  0  0
 38 37  2  0  0  0  0
 40 41  1  0  0  0  0
 41 34  1  0  0  0  0
M  END
>  <MODEL>
1

>  <REMARK>
 VINA RESULT:      -7.6      0.000      0.000
  Name = 
  13 active torsions:
  status: ('A' for Active; 'I' for Inactive)
    1  A    between atoms: C_5  and  C_19
    2  A    between atoms: C_5  and  C_33
    3  A    between atoms: C_6  and  C_8
    4  A    between atoms: C_6  and  C_38
    5  A    between atoms: C_9  and  C_36
    6  A    between atoms: C_14  and  N_35
    7  A    between atoms: C_16  and  C_26
    8  A    between atoms: C_19  and  C_21
    9  A    between atoms: C_19  and  C_26
   10  A    between atoms: C_20  and  C_38
   11  A    between atoms: C_23  and  N_32
   12  A    between atoms: N_35  and  C_36
   13  A    between atoms: C_37  and  C_39
                            x       y       z     vdW  Elec       q    Type
                         _______ _______ _______ _____ _____    ______ ____

>  <TORSDO>
F 13

$$$$
=
 OpenBabel10232410153D

 41 43  0  0  1  0  0  0  0  0999 V2000
  188.3580  178.3380  140.7300 C   0  0  0  0  0  3  0  0  0  0  0  0
  187.8500  178.4580  139.5050 C   0  0  0  0  0  3  0  0  0  0  0  0
  189.3100  177.2490  141.1030 C   0  0  1  0  0  3  0  0  0  0  0  0
  190.5640  177.1060  138.9770 C   0  0  0  0  0  3  0  0  0  0  0  0
  191.9230  177.4550  140.9380 C   0  0  0  0  0  1  0  0  0  0  0  0
  188.1950  177.5990  138.3520 C   0  0  0  0  0  3  0  0  0  0  0  0
  189.3540  176.9610  138.1350 C   0  0  0  0  0  0  0  0  0  0  0  0
  190.5850  177.3050  140.2950 C   0  0  0  0  0  0  0  0  0  0  0  0
  190.1740  175.8040  142.9960 C   0  0  0  0  0  1  0  0  0  0  0  0
  189.4590  177.1080  142.6340 C   0  0  2  0  0  3  0  0  0  0  0  0
  187.6610  175.8950  143.6770 C   0  0  0  0  0  1  0  0  0  0  0  0
  188.1600  177.2230  143.3190 N   0  0  0  0  0  0  0  0  0  0  0  0
  190.9390  177.1230  147.2060 C   0  0  0  0  0  1  0  0  0  0  0  0
  187.0530  177.9300  145.4300 C   0  0  2  0  0  3  0  0  0  0  0  0
  187.3860  178.1010  146.9110 C   0  0  0  0  0  2  0  0  0  0  0  0
  189.6630  176.9430  146.4050 C   0  0  1  0  0  3  0  0  0  0  0  0
  188.2940  178.0520  144.5320 C   0  0  1  0  0  3  0  0  0  0  0  0
  188.4540  177.1210  147.2880 C   0  0  0  0  0  0  0  0  0  0  0  0
  188.3260  176.4480  148.2980 O   0  0  0  0  0  0  0  0  0  0  0  0
  189.6630  177.9440  145.2480 C   0  0  0  0  0  2  0  0  0  0  0  0
  186.0230  178.9600  144.9960 C   0  0  0  0  0  2  0  0  0  0  0  0
  183.5390  179.0620  144.9320 C   0  0  0  0  0  1  0  0  0  0  0  0
  184.7660  178.2900  144.4730 C   0  0  1  0  0  3  0  0  0  0  0  0
  184.8210  178.2610  142.9810 C   0  0  0  0  0  3  0  0  0  0  0  0
  185.2240  179.3270  142.2930 C   0  0  0  0  0  2  0  0  0  0  0  0
  189.4920  176.1910  136.8660 C   0  0  0  0  0  2  0  0  0  0  0  0
  188.6600  174.9150  136.9050 C   0  0  2  0  0  3  0  0  0  0  0  0
  189.1060  172.6500  135.9600 O   0  0  0  0  0  0  0  0  0  0  0  0
  189.5250  173.7010  136.7660 C   0  0  0  0  0  0  0  0  0  0  0  0
  190.6240  173.6200  137.3750 O   0  0  0  0  0  1  0  0  0  0  0  0
  187.6020  174.9600  135.8130 C   0  0  0  0  0  2  0  0  0  0  0  0
  186.2640  175.2670  136.3940 C   0  0  0  0  0  0  0  0  0  0  0  0
  185.7560  176.5080  136.4800 N   0  0  0  0  0  0  0  0  0  0  0  0
  185.3540  174.3450  136.8560 C   0  0  1  0  0  3  0  0  0  0  0  0
  184.2220  175.0190  137.2650 C   0  0  0  0  0  3  0  0  0  0  0  0
  184.5230  176.3510  137.0120 C   0  0  0  0  0  0  0  0  0  0  0  0
  183.9350  178.3540  138.1310 O   0  0  0  0  0  0  0  0  0  0  0  0
  183.6170  177.4750  137.2880 C   0  0  0  0  0  0  0  0  0  0  0  0
  182.3160  177.5890  136.5740 C   0  0  0  0  0  1  0  0  0  0  0  0
  184.4420  171.9940  136.8500 C   0  0  0  0  0  1  0  0  0  0  0  0
  185.5530  172.9300  136.8870 N   0  0  0  0  0  2  0  0  0  0  0  0
  1  3  1  0  0  0  0
  2  1  2  0  0  0  0
  3 10  1  1  0  0  0
  4  8  2  0  0  0  0
  6  2  1  0  0  0  0
  7  6  2  0  0  0  0
  7  4  1  0  0  0  0
  8  5  1  0  0  0  0
  8  3  1  0  0  0  0
 10  9  1  6  0  0  0
 10 12  1  0  0  0  0
 12 11  1  0  0  0  0
 14 21  1  6  0  0  0
 14 15  1  0  0  0  0
 15 18  1  0  0  0  0
 16 13  1  1  0  0  0
 16 18  1  0  0  0  0
 17 12  1  6  0  0  0
 17 20  1  0  0  0  0
 17 14  1  0  0  0  0
 18 19  2  0  0  0  0
 20 16  1  0  0  0  0
 23 22  1  6  0  0  0
 23 21  1  0  0  0  0
 24 23  1  0  0  0  0
 25 24  2  0  0  0  0
 26 27  1  0  0  0  0
 26  7  1  0  0  0  0
 27 31  1  6  0  0  0
 28 29  2  0  0  0  0
 29 27  1  0  0  0  0
 29 30  1  0  0  0  0
 31 32  1  0  0  0  0
 32 33  2  0  0  0  0
 32 34  1  0  0  0  0
 33 36  1  0  0  0  0
 34 41  1  6  0  0  0
 34 35  1  0  0  0  0
 36 35  2  0  0  0  0
 36 38  1  0  0  0  0
 38 37  2  0  0  0  0
 39 38  1  0  0  0  0
 40 41  1  0  0  0  0
M  END
>  <MODEL>
2

>  <REMARK>
 VINA RESULT:      -7.3      1.464      2.104
  Name = 
  13 active torsions:
  status: ('A' for Active; 'I' for Inactive)
    1  A    between atoms: C_5  and  C_19
    2  A    between atoms: C_5  and  C_33
    3  A    between atoms: C_6  and  C_8
    4  A    between atoms: C_6  and  C_38
    5  A    between atoms: C_9  and  C_36
    6  A    between atoms: C_14  and  N_35
    7  A    between atoms: C_16  and  C_26
    8  A    between atoms: C_19  and  C_21
    9  A    between atoms: C_19  and  C_26
   10  A    between atoms: C_20  and  C_38
   11  A    between atoms: C_23  and  N_32
   12  A    between atoms: N_35  and  C_36
   13  A    between atoms: C_37  and  C_39
                            x       y       z     vdW  Elec       q    Type
                         _______ _______ _______ _____ _____    ______ ____

>  <TORSDO>
F 13

$$$$
=
 OpenBabel10232410153D

 41 43  0  0  1  0  0  0  0  0999 V2000
  188.3080  178.1250  140.6740 C   0  0  0  0  0  3  0  0  0  0  0  0
  187.8250  178.1430  139.4320 C   0  0  0  0  0  3  0  0  0  0  0  0
  189.3160  177.1220  141.1300 C   0  0  1  0  0  3  0  0  0  0  0  0
  190.6310  176.9390  139.0440 C   0  0  0  0  0  3  0  0  0  0  0  0
  191.9140  177.4840  141.0110 C   0  0  0  0  0  1  0  0  0  0  0  0
  188.2520  177.2440  138.3400 C   0  0  0  0  0  3  0  0  0  0  0  0
  189.4540  176.6700  138.1860 C   0  0  0  0  0  0  0  0  0  0  0  0
  190.6060  177.2130  140.3480 C   0  0  0  0  0  0  0  0  0  0  0  0
  190.1060  175.7810  143.1290 C   0  0  0  0  0  1  0  0  0  0  0  0
  189.4340  177.0770  142.6700 C   0  0  2  0  0  3  0  0  0  0  0  0
  187.5410  175.9780  143.6680 C   0  0  0  0  0  1  0  0  0  0  0  0
  188.1270  177.2720  143.3210 N   0  0  0  0  0  0  0  0  0  0  0  0
  190.8630  177.0730  147.2340 C   0  0  0  0  0  1  0  0  0  0  0  0
  187.0260  178.0190  145.4210 C   0  0  2  0  0  3  0  0  0  0  0  0
  187.3510  178.1780  146.9050 C   0  0  0  0  0  2  0  0  0  0  0  0
  189.5890  176.9400  146.4210 C   0  0  1  0  0  3  0  0  0  0  0  0
  188.2800  178.0970  144.5340 C   0  0  1  0  0  3  0  0  0  0  0  0
  188.3800  177.1610  147.2920 C   0  0  0  0  0  0  0  0  0  0  0  0
  188.2170  176.4930  148.3010 O   0  0  0  0  0  0  0  0  0  0  0  0
  189.6370  177.9400  145.2630 C   0  0  0  0  0  2  0  0  0  0  0  0
  186.0380  179.0860  144.9770 C   0  0  0  0  0  2  0  0  0  0  0  0
  183.5590  178.9400  144.8470 C   0  0  0  0  0  1  0  0  0  0  0  0
  184.8680  178.4700  144.2320 C   0  0  1  0  0  3  0  0  0  0  0  0
  184.9360  178.8880  142.8000 C   0  0  0  0  0  3  0  0  0  0  0  0
  184.3660  178.1520  141.8470 C   0  0  0  0  0  2  0  0  0  0  0  0
  189.6720  175.8390  136.9670 C   0  0  0  0  0  2  0  0  0  0  0  0
  189.8150  176.7110  135.7260 C   0  0  2  0  0  3  0  0  0  0  0  0
  187.9660  175.6700  134.4150 O   0  0  0  0  0  0  0  0  0  0  0  0
  188.5200  176.8100  134.9820 C   0  0  0  0  0  0  0  0  0  0  0  0
  187.9300  177.9170  134.8610 O   0  0  0  0  0  1  0  0  0  0  0  0
  190.9160  176.1560  134.8340 C   0  0  0  0  0  2  0  0  0  0  0  0
  191.8300  175.2770  135.6190 C   0  0  0  0  0  0  0  0  0  0  0  0
  192.7440  175.7400  136.4890 N   0  0  0  0  0  2  0  0  0  0  0  0
  191.8280  173.9020  135.6130 C   0  0  0  0  0  0  0  0  0  0  0  0
  192.7840  173.4630  136.5060 C   0  0  0  0  0  3  0  0  0  0  0  0
  193.3210  174.6380  137.0170 C   0  0  0  0  0  0  0  0  0  0  0  0
  194.6010  175.7530  138.6690 O   0  0  0  0  0  0  0  0  0  0  0  0
  194.3950  174.6950  138.0190 C   0  0  0  0  0  0  0  0  0  0  0  0
  195.2510  173.5050  138.2770 C   0  0  0  0  0  1  0  0  0  0  0  0
  189.6740  172.6260  135.3130 C   0  0  0  0  0  1  0  0  0  0  0  0
  190.9660  173.0790  134.8260 N   0  0  0  0  0  2  0  0  0  0  0  0
  1  3  1  0  0  0  0
  2  1  2  0  0  0  0
  3 10  1  1  0  0  0
  4  8  2  0  0  0  0
  6  2  1  0  0  0  0
  7  6  2  0  0  0  0
  7  4  1  0  0  0  0
  8  5  1  0  0  0  0
  8  3  1  0  0  0  0
 10  9  1  6  0  0  0
 10 12  1  0  0  0  0
 12 11  1  0  0  0  0
 14 21  1  6  0  0  0
 14 15  1  0  0  0  0
 15 18  1  0  0  0  0
 16 13  1  1  0  0  0
 16 18  1  0  0  0  0
 17 12  1  6  0  0  0
 17 20  1  0  0  0  0
 17 14  1  0  0  0  0
 18 19  2  0  0  0  0
 20 16  1  0  0  0  0
 23 22  1  1  0  0  0
 23 21  1  0  0  0  0
 24 23  1  0  0  0  0
 25 24  2  0  0  0  0
 26  7  1  0  0  0  0
 27 31  1  6  0  0  0
 27 26  1  0  0  0  0
 28 29  2  0  0  0  0
 29 27  1  0  0  0  0
 30 29  1  0  0  0  0
 31 32  1  0  0  0  0
 32 33  1  0  0  0  0
 33 36  1  0  0  0  0
 34 32  2  0  0  0  0
 34 35  1  0  0  0  0
 35 36  2  0  0  0  0
 36 38  1  0  0  0  0
 38 39  1  0  0  0  0
 38 37  2  0  0  0  0
 41 40  1  0  0  0  0
 41 34  1  0  0  0  0
M  END
>  <MODEL>
3

>  <REMARK>
 VINA RESULT:      -7.0      2.275      4.099
  Name = 
  13 active torsions:
  status: ('A' for Active; 'I' for Inactive)
    1  A    between atoms: C_5  and  C_19
    2  A    between atoms: C_5  and  C_33
    3  A    between atoms: C_6  and  C_8
    4  A    between atoms: C_6  and  C_38
    5  A    between atoms: C_9  and  C_36
    6  A    between atoms: C_14  and  N_35
    7  A    between atoms: C_16  and  C_26
    8  A    between atoms: C_19  and  C_21
    9  A    between atoms: C_19  and  C_26
   10  A    between atoms: C_20  and  C_38
   11  A    between atoms: C_23  and  N_32
   12  A    between atoms: N_35  and  C_36
   13  A    between atoms: C_37  and  C_39
                            x       y       z     vdW  Elec       q    Type
                         _______ _______ _______ _____ _____    ______ ____

>  <TORSDO>
F 13

$$$$
=
 OpenBabel10232410153D

 41 43  0  0  1  0  0  0  0  0999 V2000
  186.5460  178.9410  141.2480 C   0  0  0  0  0  3  0  0  0  0  0  0
  185.3190  179.0810  140.7470 C   0  0  0  0  0  3  0  0  0  0  0  0
  187.5460  177.9920  140.6740 C   0  0  1  0  0  3  0  0  0  0  0  0
  186.9580  178.2310  138.2840 C   0  0  0  0  0  3  0  0  0  0  0  0
  189.2780  178.6280  138.8050 C   0  0  0  0  0  1  0  0  0  0  0  0
  184.8070  178.3890  139.5460 C   0  0  0  0  0  3  0  0  0  0  0  0
  185.5160  177.9660  138.4900 C   0  0  0  0  0  0  0  0  0  0  0  0
  187.8850  178.3200  139.2380 C   0  0  0  0  0  0  0  0  0  0  0  0
  189.8640  177.0020  140.9240 C   0  0  0  0  0  1  0  0  0  0  0  0
  188.7320  177.7480  141.6330 C   0  0  2  0  0  3  0  0  0  0  0  0
  188.9800  175.7570  142.9610 C   0  0  0  0  0  1  0  0  0  0  0  0
  188.3050  177.0510  142.8580 N   0  0  0  0  0  0  0  0  0  0  0  0
  191.7140  177.0390  146.2080 C   0  0  0  0  0  1  0  0  0  0  0  0
  187.5480  177.6810  145.1410 C   0  0  2  0  0  3  0  0  0  0  0  0
  188.1230  177.8510  146.5460 C   0  0  0  0  0  2  0  0  0  0  0  0
  190.3280  176.8090  145.6340 C   0  0  1  0  0  3  0  0  0  0  0  0
  188.6090  177.8720  144.0450 C   0  0  1  0  0  3  0  0  0  0  0  0
  189.2830  176.9190  146.7150 C   0  0  0  0  0  0  0  0  0  0  0  0
  189.3610  176.2290  147.7190 O   0  0  0  0  0  0  0  0  0  0  0  0
  190.0840  177.8210  144.5130 C   0  0  0  0  0  2  0  0  0  0  0  0
  186.4140  178.6660  144.9100 C   0  0  0  0  0  2  0  0  0  0  0  0
  184.6840  178.4130  146.6790 C   0  0  0  0  0  1  0  0  0  0  0  0
  185.0720  178.0460  145.2550 C   0  0  1  0  0  3  0  0  0  0  0  0
  184.0450  178.5570  144.3000 C   0  0  0  0  0  3  0  0  0  0  0  0
  183.9210  179.8620  144.0660 C   0  0  0  0  0  2  0  0  0  0  0  0
  184.7680  177.3370  137.3630 C   0  0  0  0  0  2  0  0  0  0  0  0
  185.7220  176.7410  136.3360 C   0  0  2  0  0  3  0  0  0  0  0  0
  186.5730  178.0600  134.3980 O   0  0  0  0  0  1  0  0  0  0  0  0
  185.5260  177.3660  134.9890 C   0  0  0  0  0  0  0  0  0  0  0  0
  184.4220  177.2720  134.3910 O   0  0  0  0  0  0  0  0  0  0  0  0
  185.5290  175.2340  136.2710 C   0  0  0  0  0  2  0  0  0  0  0  0
  186.8480  174.5380  136.2640 C   0  0  0  0  0  0  0  0  0  0  0  0
  187.9530  175.0310  136.8480 N   0  0  0  0  0  2  0  0  0  0  0  0
  187.1020  173.2970  135.7290 C   0  0  0  0  0  0  0  0  0  0  0  0
  188.4240  172.9830  135.9680 C   0  0  0  0  0  3  0  0  0  0  0  0
  188.9040  174.0880  136.6600 C   0  0  0  0  0  0  0  0  0  0  0  0
  190.5280  174.8910  138.1850 O   0  0  0  0  0  0  0  0  0  0  0  0
  190.2850  174.2330  137.1390 C   0  0  0  0  0  0  0  0  0  0  0  0
  191.4130  173.6060  136.3970 C   0  0  0  0  0  1  0  0  0  0  0  0
  186.0190  171.0540  135.3380 C   0  0  0  0  0  1  0  0  0  0  0  0
  186.1470  172.4730  135.0580 N   0  0  0  0  0  2  0  0  0  0  0  0
  2  1  2  0  0  0  0
  3  1  1  0  0  0  0
  3 10  1  1  0  0  0
  4  7  1  0  0  0  0
  4  8  2  0  0  0  0
  5  8  1  0  0  0  0
  6  2  1  0  0  0  0
  7  6  2  0  0  0  0
  8  3  1  0  0  0  0
 10  9  1  6  0  0  0
 10 12  1  0  0  0  0
 12 11  1  0  0  0  0
 14 21  1  6  0  0  0
 14 15  1  0  0  0  0
 15 18  1  0  0  0  0
 16 13  1  1  0  0  0
 16 18  1  0  0  0  0
 17 12  1  6  0  0  0
 17 20  1  0  0  0  0
 17 14  1  0  0  0  0
 18 19  2  0  0  0  0
 20 16  1  0  0  0  0
 21 23  1  0  0  0  0
 23 22  1  1  0  0  0
 24 23  1  0  0  0  0
 25 24  2  0  0  0  0
 26  7  1  0  0  0  0
 27 31  1  6  0  0  0
 27 26  1  0  0  0  0
 28 29  1  0  0  0  0
 29 27  1  0  0  0  0
 30 29  2  0  0  0  0
 32 31  1  0  0  0  0
 32 33  1  0  0  0  0
 34 35  1  0  0  0  0
 34 32  2  0  0  0  0
 35 36  2  0  0  0  0
 36 33  1  0  0  0  0
 36 38  1  0  0  0  0
 38 37  2  0  0  0  0
 39 38  1  0  0  0  0
 41 40  1  0  0  0  0
 41 34  1  0  0  0  0
M  END
>  <MODEL>
4

>  <REMARK>
 VINA RESULT:      -6.6      2.016      3.940
  Name = 
  13 active torsions:
  status: ('A' for Active; 'I' for Inactive)
    1  A    between atoms: C_5  and  C_19
    2  A    between atoms: C_5  and  C_33
    3  A    between atoms: C_6  and  C_8
    4  A    between atoms: C_6  and  C_38
    5  A    between atoms: C_9  and  C_36
    6  A    between atoms: C_14  and  N_35
    7  A    between atoms: C_16  and  C_26
    8  A    between atoms: C_19  and  C_21
    9  A    between atoms: C_19  and  C_26
   10  A    between atoms: C_20  and  C_38
   11  A    between atoms: C_23  and  N_32
   12  A    between atoms: N_35  and  C_36
   13  A    between atoms: C_37  and  C_39
                            x       y       z     vdW  Elec       q    Type
                         _______ _______ _______ _____ _____    ______ ____

>  <TORSDO>
F 13

$$$$
=
 OpenBabel10232410153D

 41 43  0  0  1  0  0  0  0  0999 V2000
  189.8780  177.0980  137.6490 C   0  0  0  0  0  3  0  0  0  0  0  0
  191.0380  177.1490  138.3020 C   0  0  0  0  0  3  0  0  0  0  0  0
  188.6060  176.6670  138.3010 C   0  0  1  0  0  3  0  0  0  0  0  0
  188.9850  177.6470  140.5400 C   0  0  0  0  0  3  0  0  0  0  0  0
  186.9240  178.3060  139.4770 C   0  0  0  0  0  1  0  0  0  0  0  0
  191.2190  176.8610  139.7400 C   0  0  0  0  0  3  0  0  0  0  0  0
  190.3160  177.0230  140.7190 C   0  0  0  0  0  0  0  0  0  0  0  0
  188.2200  177.5690  139.4510 C   0  0  0  0  0  0  0  0  0  0  0  0
  188.1150  175.8980  135.9380 C   0  0  0  0  0  1  0  0  0  0  0  0
  187.5040  176.3430  137.2690 C   0  0  2  0  0  3  0  0  0  0  0  0
  186.9940  178.2900  135.9500 C   0  0  0  0  0  1  0  0  0  0  0  0
  186.5770  177.4730  137.0900 N   0  0  0  0  0  0  0  0  0  0  0  0
  182.2180  178.8810  138.4530 C   0  0  0  0  0  1  0  0  0  0  0  0
  184.9800  175.6350  137.5910 C   0  0  2  0  0  3  0  0  0  0  0  0
  183.5330  175.4500  138.0460 C   0  0  0  0  0  2  0  0  0  0  0  0
  183.4670  178.0190  138.4640 C   0  0  1  0  0  3  0  0  0  0  0  0
  185.2040  176.9790  136.8790 C   0  0  1  0  0  3  0  0  0  0  0  0
  183.1370  176.6140  138.9000 C   0  0  0  0  0  0  0  0  0  0  0  0
  182.5710  176.4170  139.9630 O   0  0  0  0  0  0  0  0  0  0  0  0
  184.0920  178.0400  137.0670 C   0  0  0  0  0  2  0  0  0  0  0  0
  185.3920  174.5060  136.6600 C   0  0  0  0  0  2  0  0  0  0  0  0
  184.5140  172.1800  136.7570 C   0  0  0  0  0  1  0  0  0  0  0  0
  185.4590  173.1830  137.4020 C   0  0  1  0  0  3  0  0  0  0  0  0
  186.8600  172.6710  137.3470 C   0  0  0  0  0  3  0  0  0  0  0  0
  187.3570  172.1620  136.2210 C   0  0  0  0  0  2  0  0  0  0  0  0
  190.7460  176.7140  142.1130 C   0  0  0  0  0  2  0  0  0  0  0  0
  189.9360  177.5120  143.1260 C   0  0  2  0  0  3  0  0  0  0  0  0
  191.6070  177.6450  144.9730 O   0  0  0  0  0  1  0  0  0  0  0  0
  190.8290  178.3040  144.0310 C   0  0  0  0  0  0  0  0  0  0  0  0
  190.8770  179.5600  143.9480 O   0  0  0  0  0  0  0  0  0  0  0  0
  189.0470  176.5710  143.9250 C   0  0  0  0  0  2  0  0  0  0  0  0
  187.7840  177.2570  144.3230 C   0  0  0  0  0  0  0  0  0  0  0  0
  186.7410  177.4360  143.4950 N   0  0  0  0  0  0  0  0  0  0  0  0
  187.4870  177.7370  145.5770 C   0  0  1  0  0  3  0  0  0  0  0  0
  186.2080  178.2540  145.5530 C   0  0  0  0  0  3  0  0  0  0  0  0
  185.7940  178.0450  144.2430 C   0  0  0  0  0  0  0  0  0  0  0  0
  183.5370  178.7140  144.5020 O   0  0  0  0  0  0  0  0  0  0  0  0
  184.4790  178.4340  143.7150 C   0  0  0  0  0  0  0  0  0  0  0  0
  184.2450  178.5050  142.2470 C   0  0  0  0  0  1  0  0  0  0  0  0
  187.8500  177.6540  148.0710 C   0  0  0  0  0  1  0  0  0  0  0  0
  188.3570  177.6880  146.7100 N   0  0  0  0  0  2  0  0  0  0  0  0
  1  3  1  0  0  0  0
  1  2  2  0  0  0  0
  2  6  1  0  0  0  0
  3 10  1  6  0  0  0
  3  8  1  0  0  0  0
  4  7  1  0  0  0  0
  6  7  2  0  0  0  0
  7 26  1  0  0  0  0
  8  5  1  0  0  0  0
  8  4  2  0  0  0  0
 10  9  1  6  0  0  0
 11 12  1  0  0  0  0
 12 10  1  0  0  0  0
 14 21  1  6  0  0  0
 14 15  1  0  0  0  0
 15 18  1  0  0  0  0
 16 13  1  6  0  0  0
 16 18  1  0  0  0  0
 17 20  1  0  0  0  0
 17 12  1  1  0  0  0
 17 14  1  0  0  0  0
 18 19  2  0  0  0  0
 20 16  1  0  0  0  0
 21 23  1  0  0  0  0
 23 22  1  6  0  0  0
 24 23  1  0  0  0  0
 25 24  2  0  0  0  0
 27 26  1  6  0  0  0
 27 31  1  0  0  0  0
 27 29  1  0  0  0  0
 29 28  1  0  0  0  0
 30 29  2  0  0  0  0
 31 32  1  0  0  0  0
 32 34  1  0  0  0  0
 33 36  1  0  0  0  0
 33 32  2  0  0  0  0
 34 41  1  1  0  0  0
 35 34  1  0  0  0  0
 36 35  2  0  0  0  0
 38 36  1  0  0  0  0
 38 37  2  0  0  0  0
 39 38  1  0  0  0  0
 41 40  1  0  0  0  0
M  END
>  <MODEL>
5

>  <REMARK>
 VINA RESULT:      -6.4      2.709      8.234
  Name = 
  13 active torsions:
  status: ('A' for Active; 'I' for Inactive)
    1  A    between atoms: C_5  and  C_19
    2  A    between atoms: C_5  and  C_33
    3  A    between atoms: C_6  and  C_8
    4  A    between atoms: C_6  and  C_38
    5  A    between atoms: C_9  and  C_36
    6  A    between atoms: C_14  and  N_35
    7  A    between atoms: C_16  and  C_26
    8  A    between atoms: C_19  and  C_21
    9  A    between atoms: C_19  and  C_26
   10  A    between atoms: C_20  and  C_38
   11  A    between atoms: C_23  and  N_32
   12  A    between atoms: N_35  and  C_36
   13  A    between atoms: C_37  and  C_39
                            x       y       z     vdW  Elec       q    Type
                         _______ _______ _______ _____ _____    ______ ____

>  <TORSDO>
F 13

$$$$
=
 OpenBabel10232410153D

 41 43  0  0  1  0  0  0  0  0999 V2000
  183.7020  178.2410  141.0800 C   0  0  0  0  0  3  0  0  0  0  0  0
  184.4870  178.0540  142.1400 C   0  0  0  0  0  3  0  0  0  0  0  0
  184.1270  179.0450  139.8960 C   0  0  1  0  0  3  0  0  0  0  0  0
  186.5170  178.4130  139.8550 C   0  0  0  0  0  3  0  0  0  0  0  0
  185.3310  178.0420  137.7880 C   0  0  0  0  0  1  0  0  0  0  0  0
  185.8760  178.5420  142.2670 C   0  0  0  0  0  3  0  0  0  0  0  0
  186.7550  178.7540  141.2760 C   0  0  0  0  0  0  0  0  0  0  0  0
  185.3460  178.4630  139.2190 C   0  0  0  0  0  0  0  0  0  0  0  0
  182.8040  180.9340  138.8470 C   0  0  0  0  0  1  0  0  0  0  0  0
  182.9340  179.4160  138.9870 C   0  0  2  0  0  3  0  0  0  0  0  0
  180.7280  179.8450  139.8470 C   0  0  0  0  0  1  0  0  0  0  0  0
  181.6800  178.8040  139.4600 N   0  0  0  0  0  0  0  0  0  0  0  0
  182.5810  174.4430  137.7260 C   0  0  0  0  0  1  0  0  0  0  0  0
  181.3490  178.5500  137.0090 C   0  0  2  0  0  3  0  0  0  0  0  0
  181.4670  177.4760  135.9300 C   0  0  0  0  0  2  0  0  0  0  0  0
  182.5720  175.9600  137.7360 C   0  0  1  0  0  3  0  0  0  0  0  0
  181.0960  177.9560  138.4040 C   0  0  1  0  0  3  0  0  0  0  0  0
  182.5280  176.4980  136.3280 C   0  0  0  0  0  0  0  0  0  0  0  0
  183.3750  176.1620  135.5150 O   0  0  0  0  0  0  0  0  0  0  0  0
  181.3730  176.4410  138.5560 C   0  0  0  0  0  2  0  0  0  0  0  0
  180.2280  179.5200  136.6720 C   0  0  0  0  0  2  0  0  0  0  0  0
  180.0210  180.5850  134.4340 C   0  0  0  0  0  1  0  0  0  0  0  0
  180.7260  180.6430  135.7810 C   0  0  1  0  0  3  0  0  0  0  0  0
  180.4430  181.9480  136.4480 C   0  0  0  0  0  3  0  0  0  0  0  0
  180.2970  183.0620  135.7320 C   0  0  0  0  0  2  0  0  0  0  0  0
  188.1270  179.2000  141.6530 C   0  0  0  0  0  2  0  0  0  0  0  0
  188.9090  178.0730  142.3130 C   0  0  2  0  0  3  0  0  0  0  0  0
  189.9880  175.9310  141.6290 O   0  0  0  0  0  1  0  0  0  0  0  0
  189.5940  177.2180  141.2910 C   0  0  0  0  0  0  0  0  0  0  0  0
  189.8190  177.6570  140.1320 O   0  0  0  0  0  0  0  0  0  0  0  0
  187.9760  177.2430  143.1810 C   0  0  0  0  0  2  0  0  0  0  0  0
  188.4540  177.2270  144.5940 C   0  0  0  0  0  0  0  0  0  0  0  0
  189.6990  176.8740  144.9560 N   0  0  0  0  0  0  0  0  0  0  0  0
  187.7300  177.6210  145.6950 C   0  0  0  0  0  0  0  0  0  0  0  0
  188.5360  177.5080  146.8080 C   0  0  0  0  0  3  0  0  0  0  0  0
  189.7400  177.0410  146.2970 C   0  0  0  0  0  0  0  0  0  0  0  0
  191.0750  177.2900  148.2370 O   0  0  0  0  0  0  0  0  0  0  0  0
  190.9320  176.7540  147.1070 C   0  0  0  0  0  0  0  0  0  0  0  0
  191.9830  175.8290  146.6030 C   0  0  0  0  0  1  0  0  0  0  0  0
  185.7390  178.6530  146.8470 C   0  0  0  0  0  1  0  0  0  0  0  0
  186.3780  178.0850  145.6730 N   0  0  0  0  0  0  0  0  0  0  0  0
  1  2  2  0  0  0  0
  2  6  1  0  0  0  0
  3 10  1  6  0  0  0
  3  1  1  0  0  0  0
  4  7  1  0  0  0  0
  5  8  1  0  0  0  0
  7 26  1  0  0  0  0
  7  6  2  0  0  0  0
  8  4  2  0  0  0  0
  8  3  1  0  0  0  0
 10  9  1  1  0  0  0
 10 12  1  0  0  0  0
 12 11  1  0  0  0  0
 14 21  1  6  0  0  0
 14 17  1  0  0  0  0
 15 18  1  0  0  0  0
 15 14  1  0  0  0  0
 16 13  1  6  0  0  0
 16 20  1  0  0  0  0
 17 20  1  0  0  0  0
 17 12  1  1  0  0  0
 18 16  1  0  0  0  0
 19 18  2  0  0  0  0
 23 22  1  6  0  0  0
 23 24  1  0  0  0  0
 23 21  1  0  0  0  0
 25 24  2  0  0  0  0
 27 26  1  6  0  0  0
 27 31  1  0  0  0  0
 29 28  1  0  0  0  0
 29 27  1  0  0  0  0
 30 29  2  0  0  0  0
 31 32  1  0  0  0  0
 32 33  2  0  0  0  0
 32 34  1  0  0  0  0
 33 36  1  0  0  0  0
 34 35  1  0  0  0  0
 36 35  2  0  0  0  0
 36 38  1  0  0  0  0
 38 37  2  0  0  0  0
 39 38  1  0  0  0  0
 41 34  2  0  0  0  0
 41 40  1  0  0  0  0
M  END
>  <MODEL>
6

>  <REMARK>
 VINA RESULT:      -6.0      3.790      9.343
  Name = 
  13 active torsions:
  status: ('A' for Active; 'I' for Inactive)
    1  A    between atoms: C_5  and  C_19
    2  A    between atoms: C_5  and  C_33
    3  A    between atoms: C_6  and  C_8
    4  A    between atoms: C_6  and  C_38
    5  A    between atoms: C_9  and  C_36
    6  A    between atoms: C_14  and  N_35
    7  A    between atoms: C_16  and  C_26
    8  A    between atoms: C_19  and  C_21
    9  A    between atoms: C_19  and  C_26
   10  A    between atoms: C_20  and  C_38
   11  A    between atoms: C_23  and  N_32
   12  A    between atoms: N_35  and  C_36
   13  A    between atoms: C_37  and  C_39
                            x       y       z     vdW  Elec       q    Type
                         _______ _______ _______ _____ _____    ______ ____

>  <TORSDO>
F 13

$$$$
=
 OpenBabel10232410153D

 41 43  0  0  1  0  0  0  0  0999 V2000
  188.1210  178.7750  137.6340 C   0  0  0  0  0  3  0  0  0  0  0  0
  189.3640  178.7440  138.1130 C   0  0  0  0  0  3  0  0  0  0  0  0
  187.0100  177.9730  138.2270 C   0  0  1  0  0  3  0  0  0  0  0  0
  187.6670  178.1290  140.6060 C   0  0  0  0  0  3  0  0  0  0  0  0
  185.4150  178.8420  140.1240 C   0  0  0  0  0  1  0  0  0  0  0  0
  189.7970  177.9880  139.3060 C   0  0  0  0  0  3  0  0  0  0  0  0
  189.0550  177.6670  140.3760 C   0  0  0  0  0  0  0  0  0  0  0  0
  186.7450  178.3440  139.6680 C   0  0  0  0  0  0  0  0  0  0  0  0
  184.5220  177.5220  138.0690 C   0  0  0  0  0  1  0  0  0  0  0  0
  185.7850  177.8950  137.2890 C   0  0  2  0  0  3  0  0  0  0  0  0
  187.1160  177.4700  135.3300 C   0  0  0  0  0  1  0  0  0  0  0  0
  186.0210  176.9740  136.1640 N   0  0  0  0  0  0  0  0  0  0  0  0
  190.0400  174.6500  137.2960 C   0  0  0  0  0  1  0  0  0  0  0  0
  186.0320  174.5490  135.6150 C   0  0  2  0  0  3  0  0  0  0  0  0
  186.9620  173.3420  135.7220 C   0  0  0  0  0  2  0  0  0  0  0  0
  188.8290  175.0030  136.4520 C   0  0  1  0  0  3  0  0  0  0  0  0
  186.3440  175.6260  136.6670 C   0  0  1  0  0  3  0  0  0  0  0  0
  188.3820  173.8110  135.6450 C   0  0  0  0  0  0  0  0  0  0  0  0
  189.1660  173.2410  134.9030 O   0  0  0  0  0  0  0  0  0  0  0  0
  187.7160  175.5050  137.3740 C   0  0  0  0  0  2  0  0  0  0  0  0
  184.5820  174.1170  135.7640 C   0  0  0  0  0  2  0  0  0  0  0  0
  183.1780  174.2390  137.8130 C   0  0  0  0  0  1  0  0  0  0  0  0
  184.3290  173.5130  137.1330 C   0  0  1  0  0  3  0  0  0  0  0  0
  183.9930  172.0680  136.9670 C   0  0  0  0  0  3  0  0  0  0  0  0
  182.7260  171.6580  136.9670 C   0  0  0  0  0  2  0  0  0  0  0  0
  189.7290  176.9410  141.4910 C   0  0  0  0  0  2  0  0  0  0  0  0
  189.4810  177.6320  142.8250 C   0  0  2  0  0  3  0  0  0  0  0  0
  190.6960  179.2430  144.2920 O   0  0  0  0  0  1  0  0  0  0  0  0
  190.7520  178.1880  143.3910 C   0  0  0  0  0  0  0  0  0  0  0  0
  191.8680  177.7110  143.0540 O   0  0  0  0  0  0  0  0  0  0  0  0
  188.8330  176.6560  143.7950 C   0  0  0  0  0  2  0  0  0  0  0  0
  187.7600  177.3340  144.5780 C   0  0  0  0  0  0  0  0  0  0  0  0
  186.5590  177.6590  144.0710 N   0  0  0  0  0  0  0  0  0  0  0  0
  187.8190  177.6580  145.9140 C   0  0  0  0  0  0  0  0  0  0  0  0
  186.6130  178.2230  146.2770 C   0  0  0  0  0  3  0  0  0  0  0  0
  185.8730  178.2020  145.1010 C   0  0  0  0  0  0  0  0  0  0  0  0
  183.7650  178.8120  145.9920 O   0  0  0  0  0  0  0  0  0  0  0  0
  184.4990  178.7070  144.9750 C   0  0  0  0  0  0  0  0  0  0  0  0
  183.9590  179.1020  143.6460 C   0  0  0  0  0  1  0  0  0  0  0  0
  188.9510  177.8720  148.1560 C   0  0  0  0  0  1  0  0  0  0  0  0
  188.9370  177.4280  146.7730 N   0  0  0  0  0  0  0  0  0  0  0  0
  1  2  2  0  0  0  0
  1  3  1  0  0  0  0
  2  6  1  0  0  0  0
  3 10  1  6  0  0  0
  3  8  1  0  0  0  0
  6  7  2  0  0  0  0
  7  4  1  0  0  0  0
  7 26  1  0  0  0  0
  8  5  1  0  0  0  0
  8  4  2  0  0  0  0
 10  9  1  1  0  0  0
 11 12  1  0  0  0  0
 12 10  1  0  0  0  0
 14 15  1  0  0  0  0
 14 21  1  1  0  0  0
 14 17  1  0  0  0  0
 16 13  1  1  0  0  0
 16 20  1  0  0  0  0
 17 12  1  6  0  0  0
 17 20  1  0  0  0  0
 18 15  1  0  0  0  0
 18 16  1  0  0  0  0
 19 18  2  0  0  0  0
 21 23  1  0  0  0  0
 23 22  1  6  0  0  0
 24 23  1  0  0  0  0
 25 24  2  0  0  0  0
 27 26  1  6  0  0  0
 27 29  1  0  0  0  0
 27 31  1  0  0  0  0
 29 28  1  0  0  0  0
 30 29  2  0  0  0  0
 31 32  1  0  0  0  0
 32 34  1  0  0  0  0
 33 32  2  0  0  0  0
 33 36  1  0  0  0  0
 34 35  1  0  0  0  0
 34 41  2  0  0  0  0
 36 35  2  0  0  0  0
 38 36  1  0  0  0  0
 38 37  2  0  0  0  0
 39 38  1  0  0  0  0
 41 40  1  0  0  0  0
M  END
>  <MODEL>
7

>  <REMARK>
 VINA RESULT:      -6.0      2.215      8.641
  Name = 
  13 active torsions:
  status: ('A' for Active; 'I' for Inactive)
    1  A    between atoms: C_5  and  C_19
    2  A    between atoms: C_5  and  C_33
    3  A    between atoms: C_6  and  C_8
    4  A    between atoms: C_6  and  C_38
    5  A    between atoms: C_9  and  C_36
    6  A    between atoms: C_14  and  N_35
    7  A    between atoms: C_16  and  C_26
    8  A    between atoms: C_19  and  C_21
    9  A    between atoms: C_19  and  C_26
   10  A    between atoms: C_20  and  C_38
   11  A    between atoms: C_23  and  N_32
   12  A    between atoms: N_35  and  C_36
   13  A    between atoms: C_37  and  C_39
                            x       y       z     vdW  Elec       q    Type
                         _______ _______ _______ _____ _____    ______ ____

>  <TORSDO>
F 13

$$$$
=
 OpenBabel10232410153D

 41 43  0  0  1  0  0  0  0  0999 V2000
  185.8850  179.1460  140.9200 C   0  0  0  0  0  3  0  0  0  0  0  0
  184.5730  179.1150  140.6920 C   0  0  0  0  0  3  0  0  0  0  0  0
  186.8340  178.1810  140.2910 C   0  0  1  0  0  3  0  0  0  0  0  0
  185.7380  177.9630  138.0860 C   0  0  0  0  0  3  0  0  0  0  0  0
  188.0630  178.5980  138.0070 C   0  0  0  0  0  1  0  0  0  0  0  0
  183.8940  178.1930  139.7570 C   0  0  0  0  0  3  0  0  0  0  0  0
  184.4060  177.6410  138.6470 C   0  0  0  0  0  0  0  0  0  0  0  0
  186.8300  178.2770  138.7830 C   0  0  0  0  0  0  0  0  0  0  0  0
  189.3370  177.9400  139.9770 C   0  0  0  0  0  1  0  0  0  0  0  0
  188.2140  178.1870  140.9870 C   0  0  2  0  0  3  0  0  0  0  0  0
  189.3690  176.2860  141.9060 C   0  0  0  0  0  1  0  0  0  0  0  0
  188.2640  177.2250  142.1010 N   0  0  0  0  0  0  0  0  0  0  0  0
  191.9510  179.1300  144.4710 C   0  0  0  0  0  1  0  0  0  0  0  0
  188.1590  177.0050  144.5750 C   0  0  2  0  0  3  0  0  0  0  0  0
  188.9810  177.3810  145.8070 C   0  0  0  0  0  2  0  0  0  0  0  0
  190.8710  178.1070  144.1700 C   0  0  1  0  0  3  0  0  0  0  0  0
  188.4290  177.9360  143.3830 C   0  0  1  0  0  3  0  0  0  0  0  0
  190.4310  177.4160  145.4350 C   0  0  0  0  0  0  0  0  0  0  0  0
  191.2490  176.8550  146.1470 O   0  0  0  0  0  0  0  0  0  0  0  0
  189.7010  178.8140  143.4820 C   0  0  0  0  0  2  0  0  0  0  0  0
  186.6740  177.0330  144.8990 C   0  0  0  0  0  2  0  0  0  0  0  0
  184.7470  178.3910  144.1040 C   0  0  0  0  0  1  0  0  0  0  0  0
  186.1130  178.4380  144.7720 C   0  0  1  0  0  3  0  0  0  0  0  0
  185.9920  179.0330  146.1360 C   0  0  0  0  0  3  0  0  0  0  0  0
  185.3390  178.3930  147.1040 C   0  0  0  0  0  2  0  0  0  0  0  0
  183.5080  176.7780  137.8270 C   0  0  0  0  0  2  0  0  0  0  0  0
  183.7700  176.9710  136.3390 C   0  0  2  0  0  3  0  0  0  0  0  0
  181.8660  178.5810  136.4110 O   0  0  0  0  0  1  0  0  0  0  0  0
  182.6330  177.6860  135.6770 C   0  0  0  0  0  0  0  0  0  0  0  0
  182.3640  177.4810  134.4630 O   0  0  0  0  0  0  0  0  0  0  0  0
  184.0200  175.6210  135.6840 C   0  0  0  0  0  2  0  0  0  0  0  0
  185.3480  175.0790  136.0940 C   0  0  0  0  0  0  0  0  0  0  0  0
  186.5200  175.6050  135.7010 N   0  0  0  0  0  0  0  0  0  0  0  0
  185.5590  174.0320  136.9610 C   0  0  1  0  0  3  0  0  0  0  0  0
  186.9200  173.8710  137.1230 C   0  0  0  0  0  3  0  0  0  0  0  0
  187.4670  174.8660  136.3220 C   0  0  0  0  0  0  0  0  0  0  0  0
  189.4280  175.0700  135.0110 O   0  0  0  0  0  0  0  0  0  0  0  0
  188.9080  175.1010  136.1570 C   0  0  0  0  0  0  0  0  0  0  0  0
  189.7690  175.3800  137.3380 C   0  0  0  0  0  1  0  0  0  0  0  0
  184.0070  172.0460  136.9990 C   0  0  0  0  0  1  0  0  0  0  0  0
  184.5360  173.2610  137.5930 N   0  0  0  0  0  2  0  0  0  0  0  0
  2  1  2  0  0  0  0
  3  1  1  0  0  0  0
  3 10  1  1  0  0  0
  4  7  1  0  0  0  0
  4  8  2  0  0  0  0
  5  8  1  0  0  0  0
  6  2  1  0  0  0  0
  7  6  2  0  0  0  0
  8  3  1  0  0  0  0
 10  9  1  6  0  0  0
 10 12  1  0  0  0  0
 11 12  1  0  0  0  0
 14 21  1  1  0  0  0
 14 15  1  0  0  0  0
 16 13  1  1  0  0  0
 16 18  1  0  0  0  0
 17 12  1  6  0  0  0
 17 20  1  0  0  0  0
 17 14  1  0  0  0  0
 18 15  1  0  0  0  0
 18 19  2  0  0  0  0
 20 16  1  0  0  0  0
 23 22  1  1  0  0  0
 23 21  1  0  0  0  0
 23 24  1  0  0  0  0
 24 25  2  0  0  0  0
 26  7  1  0  0  0  0
 27 31  1  6  0  0  0
 27 26  1  0  0  0  0
 29 27  1  0  0  0  0
 29 28  1  0  0  0  0
 30 29  2  0  0  0  0
 31 32  1  0  0  0  0
 32 34  1  0  0  0  0
 33 32  2  0  0  0  0
 33 36  1  0  0  0  0
 34 35  1  0  0  0  0
 34 41  1  1  0  0  0
 36 35  2  0  0  0  0
 37 38  2  0  0  0  0
 38 36  1  0  0  0  0
 38 39  1  0  0  0  0
 40 41  1  0  0  0  0
M  END
>  <MODEL>
8

>  <REMARK>
 VINA RESULT:      -5.9      2.350      4.856
  Name = 
  13 active torsions:
  status: ('A' for Active; 'I' for Inactive)
    1  A    between atoms: C_5  and  C_19
    2  A    between atoms: C_5  and  C_33
    3  A    between atoms: C_6  and  C_8
    4  A    between atoms: C_6  and  C_38
    5  A    between atoms: C_9  and  C_36
    6  A    between atoms: C_14  and  N_35
    7  A    between atoms: C_16  and  C_26
    8  A    between atoms: C_19  and  C_21
    9  A    between atoms: C_19  and  C_26
   10  A    between atoms: C_20  and  C_38
   11  A    between atoms: C_23  and  N_32
   12  A    between atoms: N_35  and  C_36
   13  A    between atoms: C_37  and  C_39
                            x       y       z     vdW  Elec       q    Type
                         _______ _______ _______ _____ _____    ______ ____

>  <TORSDO>
F 13

$$$$
=
 OpenBabel10232410153D

 41 43  0  0  1  0  0  0  0  0999 V2000
  185.6250  178.7020  141.4890 C   0  0  0  0  0  3  0  0  0  0  0  0
  186.7460  178.4250  142.1540 C   0  0  0  0  0  3  0  0  0  0  0  0
  184.2820  178.2430  141.9510 C   0  0  1  0  0  3  0  0  0  0  0  0
  184.6300  178.4620  144.3890 C   0  0  0  0  0  3  0  0  0  0  0  0
  182.7080  179.6360  143.5270 C   0  0  0  0  0  1  0  0  0  0  0  0
  186.8150  177.7040  143.4420 C   0  0  0  0  0  3  0  0  0  0  0  0
  185.8790  177.6670  144.4020 C   0  0  0  0  0  0  0  0  0  0  0  0
  183.9240  178.7990  143.3100 C   0  0  0  0  0  0  0  0  0  0  0  0
  181.8060  178.4200  141.4420 C   0  0  0  0  0  1  0  0  0  0  0  0
  183.2130  178.3670  140.8420 C   0  0  2  0  0  3  0  0  0  0  0  0
  182.2130  176.3640  139.9610 C   0  0  0  0  0  1  0  0  0  0  0  0
  183.3380  177.2910  139.8440 N   0  0  0  0  0  0  0  0  0  0  0  0
  180.6980  176.8230  135.8880 C   0  0  0  0  0  1  0  0  0  0  0  0
  184.6100  177.3580  137.7090 C   0  0  2  0  0  3  0  0  0  0  0  0
  184.3550  177.2660  136.2060 C   0  0  0  0  0  2  0  0  0  0  0  0
  181.9020  176.6160  136.7880 C   0  0  1  0  0  3  0  0  0  0  0  0
  183.3810  177.8600  138.4840 C   0  0  1  0  0  3  0  0  0  0  0  0
  183.1490  176.4110  135.9660 C   0  0  0  0  0  0  0  0  0  0  0  0
  183.1920  175.5300  135.1230 O   0  0  0  0  0  0  0  0  0  0  0  0
  182.0360  177.8230  137.7190 C   0  0  0  0  0  2  0  0  0  0  0  0
  185.7850  178.2800  137.9920 C   0  0  0  0  0  2  0  0  0  0  0  0
  187.6270  178.4370  136.3270 C   0  0  0  0  0  1  0  0  0  0  0  0
  187.0900  177.6630  137.5210 C   0  0  1  0  0  3  0  0  0  0  0  0
  188.0750  177.7080  138.6420 C   0  0  0  0  0  3  0  0  0  0  0  0
  188.9690  178.6910  138.7250 C   0  0  0  0  0  2  0  0  0  0  0  0
  186.1970  176.9110  145.6480 C   0  0  0  0  0  2  0  0  0  0  0  0
  187.3600  177.5480  146.3950 C   0  0  2  0  0  3  0  0  0  0  0  0
  185.6160  179.0630  147.3360 O   0  0  0  0  0  0  0  0  0  0  0  0
  186.8740  178.4870  147.4560 C   0  0  0  0  0  0  0  0  0  0  0  0
  187.5950  178.7620  148.4510 O   0  0  0  0  0  1  0  0  0  0  0  0
  188.2720  178.2630  145.4100 C   0  0  0  0  0  2  0  0  0  0  0  0
  189.6390  177.6660  145.4350 C   0  0  0  0  0  0  0  0  0  0  0  0
  190.1170  176.9420  146.4610 N   0  0  0  0  0  2  0  0  0  0  0  0
  190.5590  177.7160  144.4140 C   0  0  0  0  0  0  0  0  0  0  0  0
  191.6760  177.0050  144.8020 C   0  0  0  0  0  3  0  0  0  0  0  0
  191.3510  176.5500  146.0740 C   0  0  0  0  0  0  0  0  0  0  0  0
  192.7300  174.6660  146.4710 O   0  0  0  0  0  0  0  0  0  0  0  0
  192.2370  175.7350  146.9170 C   0  0  0  0  0  0  0  0  0  0  0  0
  192.5630  176.1620  148.3050 C   0  0  0  0  0  1  0  0  0  0  0  0
  190.3130  177.6530  141.9060 C   0  0  0  0  0  1  0  0  0  0  0  0
  190.3720  178.3790  143.1630 N   0  0  0  0  0  2  0  0  0  0  0  0
  1  3  1  0  0  0  0
  1  2  2  0  0  0  0
  2  6  1  0  0  0  0
  3 10  1  6  0  0  0
  3  8  1  0  0  0  0
  4  7  1  0  0  0  0
  6  7  2  0  0  0  0
  7 26  1  0  0  0  0
  8  5  1  0  0  0  0
  8  4  2  0  0  0  0
 10  9  1  1  0  0  0
 12 11  1  0  0  0  0
 12 10  1  0  0  0  0
 14 21  1  6  0  0  0
 14 17  1  0  0  0  0
 15 14  1  0  0  0  0
 16 13  1  6  0  0  0
 16 20  1  0  0  0  0
 17 12  1  1  0  0  0
 18 15  1  0  0  0  0
 18 16  1  0  0  0  0
 19 18  2  0  0  0  0
 20 17  1  0  0  0  0
 23 22  1  6  0  0  0
 23 21  1  0  0  0  0
 23 24  1  0  0  0  0
 24 25  2  0  0  0  0
 26 27  1  0  0  0  0
 27 31  1  6  0  0  0
 27 29  1  0  0  0  0
 28 29  2  0  0  0  0
 29 30  1  0  0  0  0
 31 32  1  0  0  0  0
 32 33  1  0  0  0  0
 34 35  1  0  0  0  0
 34 32  2  0  0  0  0
 35 36  2  0  0  0  0
 36 33  1  0  0  0  0
 36 38  1  0  0  0  0
 37 38  2  0  0  0  0
 38 39  1  0  0  0  0
 40 41  1  0  0  0  0
 41 34  1  0  0  0  0
M  END
>  <MODEL>
9

>  <REMARK>
 VINA RESULT:      -5.9      3.254      9.732
  Name = 
  13 active torsions:
  status: ('A' for Active; 'I' for Inactive)
    1  A    between atoms: C_5  and  C_19
    2  A    between atoms: C_5  and  C_33
    3  A    between atoms: C_6  and  C_8
    4  A    between atoms: C_6  and  C_38
    5  A    between atoms: C_9  and  C_36
    6  A    between atoms: C_14  and  N_35
    7  A    between atoms: C_16  and  C_26
    8  A    between atoms: C_19  and  C_21
    9  A    between atoms: C_19  and  C_26
   10  A    between atoms: C_20  and  C_38
   11  A    between atoms: C_23  and  N_32
   12  A    between atoms: N_35  and  C_36
   13  A    between atoms: C_37  and  C_39
                            x       y       z     vdW  Elec       q    Type
                         _______ _______ _______ _____ _____    ______ ____

>  <TORSDO>
F 13

$$$$
