=
 OpenBabel10232411223D

 37 40  0  0  1  0  0  0  0  0999 V2000
  187.3180  178.0700  146.5990 C   0  0  0  0  0  3  0  0  0  0  0  0
  189.7010  177.1440  145.5600 C   0  0  0  0  0  0  0  0  0  0  0  0
  186.2990  178.1900  144.2770 C   0  0  0  0  0  0  0  0  0  0  0  0
  186.5290  178.2270  142.9550 C   0  0  0  0  0  3  0  0  0  0  0  0
  188.0430  178.0890  141.1080 C   0  0  0  0  0  0  0  0  0  0  0  0
  187.4330  177.8610  145.1990 C   0  0  0  0  0  0  0  0  0  0  0  0
  188.1770  178.0520  148.8800 C   0  0  0  0  0  1  0  0  0  0  0  0
  189.5230  177.3690  146.9510 C   0  0  0  0  0  0  0  0  0  0  0  0
  187.8370  177.8900  142.3800 C   0  0  0  0  0  0  0  0  0  0  0  0
  188.8460  177.1320  143.1920 C   0  0  1  0  0  3  0  0  0  0  0  0
  190.6360  177.0690  147.6360 N   0  0  0  0  0  0  0  0  0  0  0  0
  190.9860  176.6820  145.3980 C   0  0  0  0  0  3  0  0  0  0  0  0
  188.3510  177.8200  147.4570 N   0  0  0  0  0  0  0  0  0  0  0  0
  188.6660  177.3920  144.6640 C   0  0  0  0  0  0  0  0  0  0  0  0
  191.5210  176.6530  146.6930 C   0  0  0  0  0  3  0  0  0  0  0  0
  188.2410  178.2950  139.8380 C   0  0  0  0  0  3  0  0  0  0  0  0
  183.8880  178.5550  143.9440 C   0  0  0  0  0  3  0  0  0  0  0  0
  184.7170  178.7680  146.1290 O   0  0  0  0  0  1  0  0  0  0  0  0
  184.9300  178.5130  144.7790 C   0  0  0  0  0  0  0  0  0  0  0  0
  182.5000  178.8720  144.3960 C   0  0  0  0  0  2  0  0  0  0  0  0
  180.4090  178.7000  143.7300 C   0  0  0  0  0  1  0  0  0  0  0  0
  181.6740  179.0820  143.2930 O   0  0  0  0  0  0  0  0  0  0  0  0
  188.7200  175.7640  142.9380 O   0  0  0  0  0  0  0  0  0  0  0  0
  189.9840  175.3350  142.7210 N   0  0  0  0  0  1  0  0  0  0  0  0
  188.0650  177.1850  138.8650 C   0  0  0  0  0  2  0  0  0  0  0  0
  189.3370  176.9580  138.1180 C   0  0  0  0  0  0  0  0  0  0  0  0
  190.7860  176.9520  136.4760 N   0  0  0  0  0  0  0  0  0  0  0  0
  190.7920  176.2150  139.9720 O   0  0  0  0  0  1  0  0  0  0  0  0
  190.5370  176.5440  138.6480 C   0  0  0  0  0  0  0  0  0  0  0  0
  189.5270  177.2060  136.8080 N   0  0  0  0  0  0  0  0  0  0  0  0
  191.4290  176.5430  137.5900 C   0  0  0  0  0  0  0  0  0  0  0  0
  192.8530  176.1750  137.6220 C   0  0  0  0  0  0  0  0  0  0  0  0
  193.6690  176.8920  138.2590 O   0  0  0  0  0  0  0  0  0  0  0  0
  193.3560  174.9640  136.9140 C   0  0  0  0  0  1  0  0  0  0  0  0
  188.5230  177.6850  135.8650 C   0  0  0  0  0  2  0  0  0  0  0  0
  187.5470  175.4700  135.2520 C   0  0  0  0  0  1  0  0  0  0  0  0
  188.3090  176.6790  134.7460 C   0  0  0  0  0  2  0  0  0  0  0  0
  1 13  1  0  0  0  0
  2  8  1  0  0  0  0
  3 19  1  0  0  0  0
  3  6  1  0  0  0  0
  4  3  2  0  0  0  0
  5  9  2  0  0  0  0
  6  1  2  0  0  0  0
  8 13  1  0  0  0  0
  8 11  2  0  0  0  0
  9  4  1  0  0  0  0
  9 10  1  0  0  0  0
 10 23  1  1  0  0  0
 10 14  1  0  0  0  0
 12  2  1  0  0  0  0
 12 15  2  0  0  0  0
 13  7  1  0  0  0  0
 14  6  1  0  0  0  0
 14  2  2  0  0  0  0
 15 11  1  0  0  0  0
 16  5  2  0  0  0  0
 17 20  1  0  0  0  0
 17 19  2  0  0  0  0
 19 18  1  0  0  0  0
 22 21  1  0  0  0  0
 22 20  1  0  0  0  0
 24 23  1  0  0  0  0
 25 16  1  0  0  0  0
 26 29  2  0  0  0  0
 26 25  1  0  0  0  0
 27 30  1  0  0  0  0
 27 31  2  0  0  0  0
 29 28  1  0  0  0  0
 30 26  1  0  0  0  0
 31 32  1  0  0  0  0
 31 29  1  0  0  0  0
 32 33  2  0  0  0  0
 34 32  1  0  0  0  0
 35 30  1  0  0  0  0
 37 36  1  0  0  0  0
 37 35  1  0  0  0  0
M  END
>  <MODEL>
1

>  <REMARK>
 VINA RESULT:      -9.6      0.000      0.000
  Name = 
  9 active torsions:
  status: ('A' for Active; 'I' for Inactive)
    1  A    between atoms: C_3  and  C_27
    2  A    between atoms: C_4  and  C_13
    3  A    between atoms: C_4  and  C_37
    4  A    between atoms: C_5  and  N_25
    5  A    between atoms: C_5  and  C_33
    6  A    between atoms: C_6  and  C_18
    7  A    between atoms: O_7  and  C_29
    8  A    between atoms: C_12  and  C_26
    9  A    between atoms: O_21  and  C_27
                            x       y       z     vdW  Elec       q    Type
                         _______ _______ _______ _____ _____    ______ ____

>  <TORSDO>
F 9

$$$$
=
 OpenBabel10232411223D

 37 40  0  0  1  0  0  0  0  0999 V2000
  187.6460  177.9150  144.8960 C   0  0  0  0  0  3  0  0  0  0  0  0
  186.1550  178.0870  142.5800 C   0  0  0  0  0  0  0  0  0  0  0  0
  189.7640  177.5090  143.5570 C   0  0  0  0  0  0  0  0  0  0  0  0
  190.2890  177.1430  142.3770 C   0  0  0  0  0  3  0  0  0  0  0  0
  190.0100  176.5680  140.0720 C   0  0  0  0  0  0  0  0  0  0  0  0
  188.2950  177.7890  143.6390 C   0  0  0  0  0  0  0  0  0  0  0  0
  185.6900  178.2460  146.3120 C   0  0  0  0  0  1  0  0  0  0  0  0
  185.5640  178.2080  143.8660 C   0  0  0  0  0  0  0  0  0  0  0  0
  189.4830  177.0740  141.1520 C   0  0  0  0  0  0  0  0  0  0  0  0
  188.1530  177.7650  141.0830 C   0  0  1  0  0  3  0  0  0  0  0  0
  184.2430  178.4150  143.7750 N   0  0  0  0  0  0  0  0  0  0  0  0
  185.1380  178.2310  141.6650 C   0  0  0  0  0  3  0  0  0  0  0  0
  186.3000  178.1260  145.0000 N   0  0  0  0  0  0  0  0  0  0  0  0
  187.5230  177.8700  142.4460 C   0  0  0  0  0  0  0  0  0  0  0  0
  183.9870  178.4270  142.4400 C   0  0  0  0  0  3  0  0  0  0  0  0
  190.5440  176.0570  139.0000 C   0  0  0  0  0  3  0  0  0  0  0  0
  190.4270  176.8400  145.8310 C   0  0  0  0  0  3  0  0  0  0  0  0
  191.7590  178.4400  144.7490 O   0  0  0  0  0  1  0  0  0  0  0  0
  190.6600  177.5890  144.7490 C   0  0  0  0  0  0  0  0  0  0  0  0
  191.2920  176.8820  147.0480 C   0  0  0  0  0  2  0  0  0  0  0  0
  192.7440  175.6880  148.1940 C   0  0  0  0  0  1  0  0  0  0  0  0
  192.3770  176.0210  146.8940 O   0  0  0  0  0  0  0  0  0  0  0  0
  188.3170  179.0430  140.5410 O   0  0  0  0  0  0  0  0  0  0  0  0
  188.1190  178.8830  139.2130 N   0  0  0  0  0  1  0  0  0  0  0  0
  191.1540  176.9440  137.9750 C   0  0  0  0  0  2  0  0  0  0  0  0
  192.1850  176.1920  137.2010 C   0  0  0  0  0  0  0  0  0  0  0  0
  193.1530  175.1470  135.5390 N   0  0  0  0  0  0  0  0  0  0  0  0
  194.0720  176.3010  138.7920 O   0  0  0  0  0  1  0  0  0  0  0  0
  193.4800  175.9420  137.5890 C   0  0  0  0  0  0  0  0  0  0  0  0
  192.0260  175.7090  135.9540 N   0  0  0  0  0  0  0  0  0  0  0  0
  194.0650  175.2760  136.5260 C   0  0  0  0  0  0  0  0  0  0  0  0
  195.4460  174.7800  136.4320 C   0  0  0  0  0  0  0  0  0  0  0  0
  196.4060  175.5940  136.4620 O   0  0  0  0  0  0  0  0  0  0  0  0
  195.7380  173.3250  136.3030 C   0  0  0  0  0  1  0  0  0  0  0  0
  190.8120  175.7770  135.1490 C   0  0  0  0  0  2  0  0  0  0  0  0
  188.6610  174.7710  135.9210 C   0  0  0  0  0  1  0  0  0  0  0  0
  190.0060  174.4950  135.2790 C   0  0  0  0  0  2  0  0  0  0  0  0
  1 13  1  0  0  0  0
  2  8  1  0  0  0  0
  3  6  1  0  0  0  0
  3 19  1  0  0  0  0
  4  3  2  0  0  0  0
  5  9  2  0  0  0  0
  6  1  2  0  0  0  0
  8 13  1  0  0  0  0
  9  4  1  0  0  0  0
 10 23  1  1  0  0  0
 10  9  1  0  0  0  0
 10 14  1  0  0  0  0
 11  8  2  0  0  0  0
 12 15  2  0  0  0  0
 12  2  1  0  0  0  0
 13  7  1  0  0  0  0
 14  2  2  0  0  0  0
 14  6  1  0  0  0  0
 15 11  1  0  0  0  0
 16  5  2  0  0  0  0
 17 20  1  0  0  0  0
 19 18  1  0  0  0  0
 19 17  2  0  0  0  0
 22 20  1  0  0  0  0
 22 21  1  0  0  0  0
 24 23  1  0  0  0  0
 25 16  1  0  0  0  0
 26 29  2  0  0  0  0
 26 25  1  0  0  0  0
 27 30  1  0  0  0  0
 27 31  2  0  0  0  0
 29 28  1  0  0  0  0
 30 26  1  0  0  0  0
 31 29  1  0  0  0  0
 32 33  2  0  0  0  0
 32 31  1  0  0  0  0
 34 32  1  0  0  0  0
 35 37  1  0  0  0  0
 35 30  1  0  0  0  0
 37 36  1  0  0  0  0
M  END
>  <MODEL>
2

>  <REMARK>
 VINA RESULT:      -8.5      2.737      5.289
  Name = 
  9 active torsions:
  status: ('A' for Active; 'I' for Inactive)
    1  A    between atoms: C_3  and  C_27
    2  A    between atoms: C_4  and  C_13
    3  A    between atoms: C_4  and  C_37
    4  A    between atoms: C_5  and  N_25
    5  A    between atoms: C_5  and  C_33
    6  A    between atoms: C_6  and  C_18
    7  A    between atoms: O_7  and  C_29
    8  A    between atoms: C_12  and  C_26
    9  A    between atoms: O_21  and  C_27
                            x       y       z     vdW  Elec       q    Type
                         _______ _______ _______ _____ _____    ______ ____

>  <TORSDO>
F 9

$$$$
=
 OpenBabel10232411223D

 37 40  0  0  1  0  0  0  0  0999 V2000
  187.1320  178.1260  146.0900 C   0  0  0  0  0  3  0  0  0  0  0  0
  189.7040  177.2030  145.7020 C   0  0  0  0  0  0  0  0  0  0  0  0
  186.6550  177.9790  143.6000 C   0  0  0  0  0  0  0  0  0  0  0  0
  187.1730  177.8970  142.3650 C   0  0  0  0  0  3  0  0  0  0  0  0
  189.0630  177.6440  140.9210 C   0  0  0  0  0  0  0  0  0  0  0  0
  187.5600  177.7880  144.7780 C   0  0  0  0  0  0  0  0  0  0  0  0
  187.4610  178.3640  148.4930 C   0  0  0  0  0  1  0  0  0  0  0  0
  189.2160  177.5530  146.9880 C   0  0  0  0  0  0  0  0  0  0  0  0
  188.5820  177.5600  142.1300 C   0  0  0  0  0  0  0  0  0  0  0  0
  189.3990  176.9270  143.2170 C   0  0  1  0  0  3  0  0  0  0  0  0
  190.1530  177.3670  147.9290 N   0  0  0  0  0  0  0  0  0  0  0  0
  191.0010  176.7800  145.8740 C   0  0  0  0  0  3  0  0  0  0  0  0
  187.9520  178.0020  147.1750 N   0  0  0  0  0  0  0  0  0  0  0  0
  188.8900  177.3200  144.5790 C   0  0  0  0  0  0  0  0  0  0  0  0
  191.2340  176.8990  147.2510 C   0  0  0  0  0  3  0  0  0  0  0  0
  189.5350  177.7340  139.7110 C   0  0  0  0  0  3  0  0  0  0  0  0
  184.4390  178.5310  142.6830 C   0  0  0  0  0  3  0  0  0  0  0  0
  184.6190  178.3320  145.0140 O   0  0  0  0  0  1  0  0  0  0  0  0
  185.2020  178.2920  143.7520 C   0  0  0  0  0  0  0  0  0  0  0  0
  182.9820  178.8490  142.7820 C   0  0  0  0  0  2  0  0  0  0  0  0
  181.0060  178.8540  141.8110 C   0  0  0  0  0  1  0  0  0  0  0  0
  182.3360  178.5070  141.5950 O   0  0  0  0  0  0  0  0  0  0  0  0
  189.3580  175.5360  143.0850 O   0  0  0  0  0  0  0  0  0  0  0  0
  190.6400  175.1740  142.8530 N   0  0  0  0  0  1  0  0  0  0  0  0
  189.6010  176.5290  138.8430 C   0  0  0  0  0  2  0  0  0  0  0  0
  189.0300  176.8390  137.4990 C   0  0  0  0  0  0  0  0  0  0  0  0
  188.8550  176.9830  135.3220 N   0  0  0  0  0  0  0  0  0  0  0  0
  186.7500  177.5280  138.1560 O   0  0  0  0  0  1  0  0  0  0  0  0
  187.7500  177.2630  137.2310 C   0  0  0  0  0  0  0  0  0  0  0  0
  189.6650  176.6690  136.3240 N   0  0  0  0  0  0  0  0  0  0  0  0
  187.6700  177.3520  135.8520 C   0  0  0  0  0  0  0  0  0  0  0  0
  186.5090  177.7660  135.0490 C   0  0  0  0  0  0  0  0  0  0  0  0
  186.5760  178.8090  134.3460 O   0  0  0  0  0  0  0  0  0  0  0  0
  185.2480  176.9730  135.0450 C   0  0  0  0  0  1  0  0  0  0  0  0
  191.0360  176.2080  136.1410 C   0  0  0  0  0  2  0  0  0  0  0  0
  192.4420  174.2140  136.6730 C   0  0  0  0  0  1  0  0  0  0  0  0
  191.1010  174.6900  136.1490 C   0  0  0  0  0  2  0  0  0  0  0  0
  1 13  1  0  0  0  0
  2 12  1  0  0  0  0
  2  8  1  0  0  0  0
  3 19  1  0  0  0  0
  3  6  1  0  0  0  0
  4  3  2  0  0  0  0
  5  9  2  0  0  0  0
  6  1  2  0  0  0  0
  8 13  1  0  0  0  0
  8 11  2  0  0  0  0
  9  4  1  0  0  0  0
  9 10  1  0  0  0  0
 10 23  1  6  0  0  0
 10 14  1  0  0  0  0
 12 15  2  0  0  0  0
 13  7  1  0  0  0  0
 14  6  1  0  0  0  0
 14  2  2  0  0  0  0
 15 11  1  0  0  0  0
 16  5  2  0  0  0  0
 17 20  1  0  0  0  0
 17 19  2  0  0  0  0
 19 18  1  0  0  0  0
 22 21  1  0  0  0  0
 22 20  1  0  0  0  0
 24 23  1  0  0  0  0
 25 16  1  0  0  0  0
 26 25  1  0  0  0  0
 27 31  2  0  0  0  0
 27 30  1  0  0  0  0
 29 26  2  0  0  0  0
 29 28  1  0  0  0  0
 30 26  1  0  0  0  0
 31 29  1  0  0  0  0
 32 31  1  0  0  0  0
 33 32  2  0  0  0  0
 34 32  1  0  0  0  0
 35 37  1  0  0  0  0
 35 30  1  0  0  0  0
 37 36  1  0  0  0  0
M  END
>  <MODEL>
3

>  <REMARK>
 VINA RESULT:      -8.5      1.879      2.963
  Name = 
  9 active torsions:
  status: ('A' for Active; 'I' for Inactive)
    1  A    between atoms: C_3  and  C_27
    2  A    between atoms: C_4  and  C_13
    3  A    between atoms: C_4  and  C_37
    4  A    between atoms: C_5  and  N_25
    5  A    between atoms: C_5  and  C_33
    6  A    between atoms: C_6  and  C_18
    7  A    between atoms: O_7  and  C_29
    8  A    between atoms: C_12  and  C_26
    9  A    between atoms: O_21  and  C_27
                            x       y       z     vdW  Elec       q    Type
                         _______ _______ _______ _____ _____    ______ ____

>  <TORSDO>
F 9

$$$$
=
 OpenBabel10232411223D

 37 40  0  0  1  0  0  0  0  0999 V2000
  187.7660  177.9370  145.6580 C   0  0  0  0  0  3  0  0  0  0  0  0
  190.3220  176.8990  145.5660 C   0  0  0  0  0  0  0  0  0  0  0  0
  187.5130  177.6600  143.1470 C   0  0  0  0  0  0  0  0  0  0  0  0
  188.1380  177.4860  141.9730 C   0  0  0  0  0  3  0  0  0  0  0  0
  190.1400  177.0770  140.7290 C   0  0  0  0  0  0  0  0  0  0  0  0
  188.2980  177.5060  144.4140 C   0  0  0  0  0  0  0  0  0  0  0  0
  187.8840  178.3060  148.0650 C   0  0  0  0  0  1  0  0  0  0  0  0
  189.7330  177.3430  146.7790 C   0  0  0  0  0  0  0  0  0  0  0  0
  189.5470  177.0840  141.8900 C   0  0  0  0  0  0  0  0  0  0  0  0
  190.2330  176.4860  143.0830 C   0  0  1  0  0  3  0  0  0  0  0  0
  190.5720  177.1780  147.8120 N   0  0  0  0  0  0  0  0  0  0  0  0
  191.5780  176.4390  145.8820 C   0  0  0  0  0  3  0  0  0  0  0  0
  188.4780  177.8490  146.8210 N   0  0  0  0  0  0  0  0  0  0  0  0
  189.6190  176.9780  144.3670 C   0  0  0  0  0  0  0  0  0  0  0  0
  191.6890  176.6310  147.2660 C   0  0  0  0  0  3  0  0  0  0  0  0
  190.7240  177.0780  139.5650 C   0  0  0  0  0  3  0  0  0  0  0  0
  185.4510  178.3770  142.0100 C   0  0  0  0  0  3  0  0  0  0  0  0
  185.3360  178.0280  144.3280 O   0  0  0  0  0  1  0  0  0  0  0  0
  186.0680  178.0360  143.1450 C   0  0  0  0  0  0  0  0  0  0  0  0
  184.0080  178.7600  141.9540 C   0  0  0  0  0  2  0  0  0  0  0  0
  183.2890  177.6210  140.2130 C   0  0  0  0  0  1  0  0  0  0  0  0
  183.6040  178.9110  140.6290 O   0  0  0  0  0  0  0  0  0  0  0  0
  190.1460  175.0930  143.0250 O   0  0  0  0  0  0  0  0  0  0  0  0
  191.4000  174.6570  143.2860 N   0  0  0  0  0  1  0  0  0  0  0  0
  190.8180  175.8210  138.7760 C   0  0  0  0  0  2  0  0  0  0  0  0
  191.6980  176.0320  137.5890 C   0  0  0  0  0  0  0  0  0  0  0  0
  192.3050  176.3900  135.5160 N   0  0  0  0  0  0  0  0  0  0  0  0
  193.8920  176.2090  138.7110 O   0  0  0  0  0  1  0  0  0  0  0  0
  193.0600  176.2200  137.6000 C   0  0  0  0  0  0  0  0  0  0  0  0
  191.2740  176.1520  136.3160 N   0  0  0  0  0  0  0  0  0  0  0  0
  193.4160  176.4360  136.2810 C   0  0  0  0  0  0  0  0  0  0  0  0
  194.7640  176.6880  135.7480 C   0  0  0  0  0  0  0  0  0  0  0  0
  195.1610  177.8730  135.5900 O   0  0  0  0  0  0  0  0  0  0  0  0
  195.6770  175.5670  135.3900 C   0  0  0  0  0  1  0  0  0  0  0  0
  189.8960  176.0460  135.8500 C   0  0  0  0  0  2  0  0  0  0  0  0
  188.8170  178.1840  136.5540 C   0  0  0  0  0  1  0  0  0  0  0  0
  189.3770  177.3960  135.3860 C   0  0  0  0  0  2  0  0  0  0  0  0
  1 13  1  0  0  0  0
  2 12  1  0  0  0  0
  2  8  1  0  0  0  0
  3  6  1  0  0  0  0
  4  3  2  0  0  0  0
  5  9  2  0  0  0  0
  6  1  2  0  0  0  0
  8 13  1  0  0  0  0
  8 11  2  0  0  0  0
  9  4  1  0  0  0  0
  9 10  1  0  0  0  0
 10 23  1  6  0  0  0
 10 14  1  0  0  0  0
 12 15  2  0  0  0  0
 13  7  1  0  0  0  0
 14  6  1  0  0  0  0
 14  2  2  0  0  0  0
 15 11  1  0  0  0  0
 16  5  2  0  0  0  0
 17 19  2  0  0  0  0
 19  3  1  0  0  0  0
 19 18  1  0  0  0  0
 20 17  1  0  0  0  0
 21 22  1  0  0  0  0
 22 20  1  0  0  0  0
 23 24  1  0  0  0  0
 25 16  1  0  0  0  0
 26 29  2  0  0  0  0
 26 25  1  0  0  0  0
 27 31  2  0  0  0  0
 27 30  1  0  0  0  0
 29 28  1  0  0  0  0
 30 26  1  0  0  0  0
 31 29  1  0  0  0  0
 32 31  1  0  0  0  0
 33 32  2  0  0  0  0
 34 32  1  0  0  0  0
 35 30  1  0  0  0  0
 37 35  1  0  0  0  0
 37 36  1  0  0  0  0
M  END
>  <MODEL>
4

>  <REMARK>
 VINA RESULT:      -8.5      1.705      2.240
  Name = 
  9 active torsions:
  status: ('A' for Active; 'I' for Inactive)
    1  A    between atoms: C_3  and  C_27
    2  A    between atoms: C_4  and  C_13
    3  A    between atoms: C_4  and  C_37
    4  A    between atoms: C_5  and  N_25
    5  A    between atoms: C_5  and  C_33
    6  A    between atoms: C_6  and  C_18
    7  A    between atoms: O_7  and  C_29
    8  A    between atoms: C_12  and  C_26
    9  A    between atoms: O_21  and  C_27
                            x       y       z     vdW  Elec       q    Type
                         _______ _______ _______ _____ _____    ______ ____

>  <TORSDO>
F 9

$$$$
=
 OpenBabel10232411223D

 37 40  0  0  1  0  0  0  0  0999 V2000
  187.2010  178.0860  146.4920 C   0  0  0  0  0  3  0  0  0  0  0  0
  189.6760  177.2580  145.5940 C   0  0  0  0  0  0  0  0  0  0  0  0
  186.3230  178.1940  144.1120 C   0  0  0  0  0  0  0  0  0  0  0  0
  186.6320  178.2530  142.8070 C   0  0  0  0  0  3  0  0  0  0  0  0
  188.2610  178.1890  141.0570 C   0  0  0  0  0  0  0  0  0  0  0  0
  187.4090  177.8970  145.1000 C   0  0  0  0  0  0  0  0  0  0  0  0
  187.9180  178.0750  148.8210 C   0  0  0  0  0  1  0  0  0  0  0  0
  189.4050  177.4610  146.9730 C   0  0  0  0  0  0  0  0  0  0  0  0
  187.9840  177.9690  142.3110 C   0  0  0  0  0  0  0  0  0  0  0  0
  188.9680  177.2400  143.1780 C   0  0  1  0  0  3  0  0  0  0  0  0
  190.4830  177.1940  147.7230 N   0  0  0  0  0  0  0  0  0  0  0  0
  190.9840  176.8430  145.5080 C   0  0  0  0  0  3  0  0  0  0  0  0
  188.1880  177.8650  147.4100 N   0  0  0  0  0  0  0  0  0  0  0  0
  188.6890  177.4770  144.6380 C   0  0  0  0  0  0  0  0  0  0  0  0
  191.4390  176.8210  146.8330 C   0  0  0  0  0  3  0  0  0  0  0  0
  188.5280  178.4150  139.8030 C   0  0  0  0  0  3  0  0  0  0  0  0
  183.9200  178.4380  143.6400 C   0  0  0  0  0  3  0  0  0  0  0  0
  184.6160  178.7340  145.8620 O   0  0  0  0  0  1  0  0  0  0  0  0
  184.9150  178.4630  144.5310 C   0  0  0  0  0  0  0  0  0  0  0  0
  182.4950  178.6990  144.0090 C   0  0  0  0  0  2  0  0  0  0  0  0
  180.4790  179.2830  143.3450 C   0  0  0  0  0  1  0  0  0  0  0  0
  181.7920  179.1660  142.9000 O   0  0  0  0  0  0  0  0  0  0  0  0
  188.9080  175.8700  142.9050 O   0  0  0  0  0  0  0  0  0  0  0  0
  190.1800  175.5220  142.6050 N   0  0  0  0  0  1  0  0  0  0  0  0
  188.4530  177.3100  138.8120 C   0  0  0  0  0  2  0  0  0  0  0  0
  187.0960  177.2760  138.1910 C   0  0  0  0  0  0  0  0  0  0  0  0
  185.4190  176.6210  136.9450 N   0  0  0  0  0  0  0  0  0  0  0  0
  185.9750  179.0280  139.5250 O   0  0  0  0  0  1  0  0  0  0  0  0
  186.0120  178.0430  138.5480 C   0  0  0  0  0  0  0  0  0  0  0  0
  186.6990  176.4210  137.2290 N   0  0  0  0  0  0  0  0  0  0  0  0
  184.9720  177.6140  137.7420 C   0  0  0  0  0  0  0  0  0  0  0  0
  183.5890  178.1150  137.7240 C   0  0  0  0  0  0  0  0  0  0  0  0
  183.2000  178.9080  138.6220 O   0  0  0  0  0  0  0  0  0  0  0  0
  182.6310  177.7050  136.6590 C   0  0  0  0  0  1  0  0  0  0  0  0
  187.5250  175.4110  136.5760 C   0  0  0  0  0  2  0  0  0  0  0  0
  189.0900  176.6960  135.1160 C   0  0  0  0  0  1  0  0  0  0  0  0
  187.8520  175.8220  135.1500 C   0  0  0  0  0  2  0  0  0  0  0  0
  1 13  1  0  0  0  0
  2  8  1  0  0  0  0
  3 19  1  0  0  0  0
  3  6  1  0  0  0  0
  4  3  2  0  0  0  0
  5  9  2  0  0  0  0
  6  1  2  0  0  0  0
  8 13  1  0  0  0  0
  8 11  2  0  0  0  0
  9  4  1  0  0  0  0
  9 10  1  0  0  0  0
 10 23  1  1  0  0  0
 10 14  1  0  0  0  0
 12  2  1  0  0  0  0
 12 15  2  0  0  0  0
 13  7  1  0  0  0  0
 14  6  1  0  0  0  0
 14  2  2  0  0  0  0
 15 11  1  0  0  0  0
 16  5  2  0  0  0  0
 17 20  1  0  0  0  0
 17 19  2  0  0  0  0
 19 18  1  0  0  0  0
 22 21  1  0  0  0  0
 22 20  1  0  0  0  0
 24 23  1  0  0  0  0
 25 16  1  0  0  0  0
 26 29  2  0  0  0  0
 26 25  1  0  0  0  0
 27 30  1  0  0  0  0
 27 31  2  0  0  0  0
 29 28  1  0  0  0  0
 30 26  1  0  0  0  0
 31 29  1  0  0  0  0
 32 31  1  0  0  0  0
 32 33  2  0  0  0  0
 34 32  1  0  0  0  0
 35 30  1  0  0  0  0
 36 37  1  0  0  0  0
 37 35  1  0  0  0  0
M  END
>  <MODEL>
5

>  <REMARK>
 VINA RESULT:      -8.4      2.051      3.600
  Name = 
  9 active torsions:
  status: ('A' for Active; 'I' for Inactive)
    1  A    between atoms: C_3  and  C_27
    2  A    between atoms: C_4  and  C_13
    3  A    between atoms: C_4  and  C_37
    4  A    between atoms: C_5  and  N_25
    5  A    between atoms: C_5  and  C_33
    6  A    between atoms: C_6  and  C_18
    7  A    between atoms: O_7  and  C_29
    8  A    between atoms: C_12  and  C_26
    9  A    between atoms: O_21  and  C_27
                            x       y       z     vdW  Elec       q    Type
                         _______ _______ _______ _____ _____    ______ ____

>  <TORSDO>
F 9

$$$$
=
 OpenBabel10232411223D

 37 40  0  0  1  0  0  0  0  0999 V2000
  186.1720  178.6140  144.5030 C   0  0  0  0  0  3  0  0  0  0  0  0
  188.5810  177.5280  145.3010 C   0  0  0  0  0  0  0  0  0  0  0  0
  186.7600  178.2430  142.0620 C   0  0  0  0  0  0  0  0  0  0  0  0
  187.7350  178.0110  141.1690 C   0  0  0  0  0  3  0  0  0  0  0  0
  190.0240  177.5200  140.6770 C   0  0  0  0  0  0  0  0  0  0  0  0
  187.0740  178.1250  143.5210 C   0  0  0  0  0  0  0  0  0  0  0  0
  185.4930  179.0750  146.7980 C   0  0  0  0  0  1  0  0  0  0  0  0
  187.6360  178.0300  146.2340 C   0  0  0  0  0  0  0  0  0  0  0  0
  189.0790  177.5820  141.5730 C   0  0  0  0  0  0  0  0  0  0  0  0
  189.3110  177.0200  142.9450 C   0  0  1  0  0  3  0  0  0  0  0  0
  188.0770  177.8920  147.4920 N   0  0  0  0  0  0  0  0  0  0  0  0
  189.6460  177.0600  146.0330 C   0  0  0  0  0  3  0  0  0  0  0  0
  186.4530  178.5590  145.8390 N   0  0  0  0  0  0  0  0  0  0  0  0
  188.3200  177.5730  143.9350 C   0  0  0  0  0  0  0  0  0  0  0  0
  189.2960  177.3040  147.3680 C   0  0  0  0  0  3  0  0  0  0  0  0
  190.9620  177.4640  139.7750 C   0  0  0  0  0  3  0  0  0  0  0  0
  184.3050  178.0710  142.0530 C   0  0  0  0  0  3  0  0  0  0  0  0
  185.2800  179.6270  140.5920 O   0  0  0  0  0  1  0  0  0  0  0  0
  185.4100  178.6430  141.5660 C   0  0  0  0  0  0  0  0  0  0  0  0
  182.9320  178.4370  141.5910 C   0  0  0  0  0  2  0  0  0  0  0  0
  183.0130  178.8000  143.7600 C   0  0  0  0  0  1  0  0  0  0  0  0
  182.2020  178.9820  142.6450 O   0  0  0  0  0  0  0  0  0  0  0  0
  189.2070  175.6270  142.9050 O   0  0  0  0  0  0  0  0  0  0  0  0
  190.4780  175.1830  143.0350 N   0  0  0  0  0  1  0  0  0  0  0  0
  191.2760  176.1760  139.1030 C   0  0  0  0  0  2  0  0  0  0  0  0
  190.8370  176.2280  137.6770 C   0  0  0  0  0  0  0  0  0  0  0  0
  190.9370  176.1760  135.4910 N   0  0  0  0  0  0  0  0  0  0  0  0
  188.3870  176.3030  137.9890 O   0  0  0  0  0  1  0  0  0  0  0  0
  189.5410  176.2640  137.2190 C   0  0  0  0  0  0  0  0  0  0  0  0
  191.6530  176.1630  136.6070 N   0  0  0  0  0  0  0  0  0  0  0  0
  189.6340  176.2380  135.8390 C   0  0  0  0  0  0  0  0  0  0  0  0
  188.5300  176.2610  134.8670 C   0  0  0  0  0  0  0  0  0  0  0  0
  188.0790  177.3650  134.4620 O   0  0  0  0  0  0  0  0  0  0  0  0
  187.9300  175.0010  134.3460 C   0  0  0  0  0  1  0  0  0  0  0  0
  193.1080  176.0880  136.6340 C   0  0  0  0  0  2  0  0  0  0  0  0
  195.0530  174.5280  136.7740 C   0  0  0  0  0  1  0  0  0  0  0  0
  193.5700  174.6970  137.0370 C   0  0  0  0  0  2  0  0  0  0  0  0
  1 13  1  0  0  0  0
  2 12  1  0  0  0  0
  2  8  1  0  0  0  0
  3  6  1  0  0  0  0
  4  9  1  0  0  0  0
  4  3  2  0  0  0  0
  5  9  2  0  0  0  0
  6 14  1  0  0  0  0
  6  1  2  0  0  0  0
  8 11  2  0  0  0  0
  9 10  1  0  0  0  0
 10 23  1  6  0  0  0
 10 14  1  0  0  0  0
 12 15  2  0  0  0  0
 13  8  1  0  0  0  0
 13  7  1  0  0  0  0
 14  2  2  0  0  0  0
 15 11  1  0  0  0  0
 16  5  2  0  0  0  0
 18 19  1  0  0  0  0
 19 17  2  0  0  0  0
 19  3  1  0  0  0  0
 20 17  1  0  0  0  0
 20 22  1  0  0  0  0
 22 21  1  0  0  0  0
 23 24  1  0  0  0  0
 25 16  1  0  0  0  0
 26 25  1  0  0  0  0
 27 31  2  0  0  0  0
 27 30  1  0  0  0  0
 29 26  2  0  0  0  0
 29 28  1  0  0  0  0
 30 35  1  0  0  0  0
 30 26  1  0  0  0  0
 31 29  1  0  0  0  0
 32 31  1  0  0  0  0
 33 32  2  0  0  0  0
 34 32  1  0  0  0  0
 35 37  1  0  0  0  0
 36 37  1  0  0  0  0
M  END
>  <MODEL>
6

>  <REMARK>
 VINA RESULT:      -8.3      1.824      3.319
  Name = 
  9 active torsions:
  status: ('A' for Active; 'I' for Inactive)
    1  A    between atoms: C_3  and  C_27
    2  A    between atoms: C_4  and  C_13
    3  A    between atoms: C_4  and  C_37
    4  A    between atoms: C_5  and  N_25
    5  A    between atoms: C_5  and  C_33
    6  A    between atoms: C_6  and  C_18
    7  A    between atoms: O_7  and  C_29
    8  A    between atoms: C_12  and  C_26
    9  A    between atoms: O_21  and  C_27
                            x       y       z     vdW  Elec       q    Type
                         _______ _______ _______ _____ _____    ______ ____

>  <TORSDO>
F 9

$$$$
=
 OpenBabel10232411223D

 37 40  0  0  1  0  0  0  0  0999 V2000
  182.4120  178.5910  144.0200 C   0  0  0  0  0  3  0  0  0  0  0  0
  182.3260  178.5500  141.2620 C   0  0  0  0  0  0  0  0  0  0  0  0
  184.9500  178.5560  143.9870 C   0  0  0  0  0  0  0  0  0  0  0  0
  186.0560  178.2960  143.2720 C   0  0  0  0  0  3  0  0  0  0  0  0
  187.0970  177.7150  141.1990 C   0  0  0  0  0  0  0  0  0  0  0  0
  183.6280  178.5910  143.2860 C   0  0  0  0  0  0  0  0  0  0  0  0
  179.9820  178.5790  144.2060 C   0  0  0  0  0  1  0  0  0  0  0  0
  181.1460  178.5550  142.0510 C   0  0  0  0  0  0  0  0  0  0  0  0
  186.0200  178.1130  141.8170 C   0  0  0  0  0  0  0  0  0  0  0  0
  184.8330  178.5790  141.0260 C   0  0  1  0  0  3  0  0  0  0  0  0
  180.0490  178.5440  141.2820 N   0  0  0  0  0  0  0  0  0  0  0  0
  181.9210  178.5380  139.9480 C   0  0  0  0  0  3  0  0  0  0  0  0
  181.1930  178.5780  143.4040 N   0  0  0  0  0  0  0  0  0  0  0  0
  183.5810  178.5610  141.8630 C   0  0  0  0  0  0  0  0  0  0  0  0
  180.5210  178.5330  140.0080 C   0  0  0  0  0  3  0  0  0  0  0  0
  188.1770  177.3140  140.5910 C   0  0  0  0  0  3  0  0  0  0  0  0
  186.2560  178.6190  146.0730 C   0  0  0  0  0  3  0  0  0  0  0  0
  183.9690  179.1220  146.2200 O   0  0  0  0  0  1  0  0  0  0  0  0
  185.0780  178.7640  145.4610 C   0  0  0  0  0  0  0  0  0  0  0  0
  186.4360  178.8160  147.5430 C   0  0  0  0  0  2  0  0  0  0  0  0
  188.2530  177.7360  146.9270 C   0  0  0  0  0  1  0  0  0  0  0  0
  187.4250  177.9600  148.0230 O   0  0  0  0  0  0  0  0  0  0  0  0
  185.0630  179.8740  140.5540 O   0  0  0  0  0  0  0  0  0  0  0  0
  184.7960  179.8110  139.2300 N   0  0  0  0  0  1  0  0  0  0  0  0
  189.0900  178.3030  139.9610 C   0  0  0  0  0  2  0  0  0  0  0  0
  189.9500  177.6260  138.9460 C   0  0  0  0  0  0  0  0  0  0  0  0
  190.6280  176.8460  137.0160 N   0  0  0  0  0  0  0  0  0  0  0  0
  191.9790  177.2330  140.3000 O   0  0  0  0  0  1  0  0  0  0  0  0
  191.2380  177.1800  139.1280 C   0  0  0  0  0  0  0  0  0  0  0  0
  189.6180  177.4190  137.6570 N   0  0  0  0  0  0  0  0  0  0  0  0
  191.6370  176.6880  137.8980 C   0  0  0  0  0  0  0  0  0  0  0  0
  192.9360  176.0900  137.5530 C   0  0  0  0  0  0  0  0  0  0  0  0
  193.9170  176.8360  137.2900 O   0  0  0  0  0  0  0  0  0  0  0  0
  193.1220  174.6120  137.5090 C   0  0  0  0  0  1  0  0  0  0  0  0
  188.3500  177.7620  137.0250 C   0  0  0  0  0  2  0  0  0  0  0  0
  185.9520  177.0760  137.1480 C   0  0  0  0  0  1  0  0  0  0  0  0
  187.3850  176.5890  137.0780 C   0  0  0  0  0  2  0  0  0  0  0  0
  2 14  2  0  0  0  0
  2  8  1  0  0  0  0
  3 19  1  0  0  0  0
  4  3  2  0  0  0  0
  5  9  2  0  0  0  0
  6  3  1  0  0  0  0
  6  1  2  0  0  0  0
  8 13  1  0  0  0  0
  9  4  1  0  0  0  0
 10 23  1  1  0  0  0
 10  9  1  0  0  0  0
 10 14  1  0  0  0  0
 11  8  2  0  0  0  0
 12 15  2  0  0  0  0
 12  2  1  0  0  0  0
 13  1  1  0  0  0  0
 13  7  1  0  0  0  0
 14  6  1  0  0  0  0
 15 11  1  0  0  0  0
 16  5  2  0  0  0  0
 17 20  1  0  0  0  0
 19 17  2  0  0  0  0
 19 18  1  0  0  0  0
 20 22  1  0  0  0  0
 21 22  1  0  0  0  0
 24 23  1  0  0  0  0
 25 16  1  0  0  0  0
 26 29  2  0  0  0  0
 26 25  1  0  0  0  0
 27 30  1  0  0  0  0
 27 31  2  0  0  0  0
 29 28  1  0  0  0  0
 30 26  1  0  0  0  0
 31 29  1  0  0  0  0
 32 31  1  0  0  0  0
 33 32  2  0  0  0  0
 34 32  1  0  0  0  0
 35 37  1  0  0  0  0
 35 30  1  0  0  0  0
 37 36  1  0  0  0  0
M  END
>  <MODEL>
7

>  <REMARK>
 VINA RESULT:      -8.2      2.987      5.629
  Name = 
  9 active torsions:
  status: ('A' for Active; 'I' for Inactive)
    1  A    between atoms: C_3  and  C_27
    2  A    between atoms: C_4  and  C_13
    3  A    between atoms: C_4  and  C_37
    4  A    between atoms: C_5  and  N_25
    5  A    between atoms: C_5  and  C_33
    6  A    between atoms: C_6  and  C_18
    7  A    between atoms: O_7  and  C_29
    8  A    between atoms: C_12  and  C_26
    9  A    between atoms: O_21  and  C_27
                            x       y       z     vdW  Elec       q    Type
                         _______ _______ _______ _____ _____    ______ ____

>  <TORSDO>
F 9

$$$$
=
 OpenBabel10232411223D

 37 40  0  0  1  0  0  0  0  0999 V2000
  186.5430  178.5810  142.7730 C   0  0  0  0  0  3  0  0  0  0  0  0
  186.0020  178.6460  140.0670 C   0  0  0  0  0  0  0  0  0  0  0  0
  188.9270  177.8310  142.3250 C   0  0  0  0  0  0  0  0  0  0  0  0
  189.7830  177.2910  141.4430 C   0  0  0  0  0  3  0  0  0  0  0  0
  190.2640  176.5000  139.2380 C   0  0  0  0  0  0  0  0  0  0  0  0
  187.5730  178.2590  141.8490 C   0  0  0  0  0  0  0  0  0  0  0  0
  184.2730  179.2500  143.3550 C   0  0  0  0  0  1  0  0  0  0  0  0
  185.0170  178.9610  141.0390 C   0  0  0  0  0  0  0  0  0  0  0  0
  189.4600  177.1680  140.0160 C   0  0  0  0  0  0  0  0  0  0  0  0
  188.3420  177.9730  139.4230 C   0  0  1  0  0  3  0  0  0  0  0  0
  183.8510  179.2830  140.4610 N   0  0  0  0  0  0  0  0  0  0  0  0
  185.4020  178.7880  138.8380 C   0  0  0  0  0  3  0  0  0  0  0  0
  185.2870  178.9310  142.3660 N   0  0  0  0  0  0  0  0  0  0  0  0
  187.2890  178.2850  140.4540 C   0  0  0  0  0  0  0  0  0  0  0  0
  184.0870  179.1770  139.1270 C   0  0  0  0  0  3  0  0  0  0  0  0
  191.0720  175.8280  138.4680 C   0  0  0  0  0  3  0  0  0  0  0  0
  188.7830  177.1920  144.6970 C   0  0  0  0  0  3  0  0  0  0  0  0
  190.3380  178.8530  144.1220 O   0  0  0  0  0  1  0  0  0  0  0  0
  189.3460  177.9510  143.7530 C   0  0  0  0  0  0  0  0  0  0  0  0
  189.1670  177.2740  146.1390 C   0  0  0  0  0  2  0  0  0  0  0  0
  188.6020  177.8500  148.1870 C   0  0  0  0  0  1  0  0  0  0  0  0
  188.1080  177.7850  146.8880 O   0  0  0  0  0  0  0  0  0  0  0  0
  188.8500  179.1630  138.8960 O   0  0  0  0  0  0  0  0  0  0  0  0
  188.6490  179.0630  137.5620 N   0  0  0  0  0  1  0  0  0  0  0  0
  192.1140  176.5370  137.6790 C   0  0  0  0  0  2  0  0  0  0  0  0
  193.2150  175.5920  137.3290 C   0  0  0  0  0  0  0  0  0  0  0  0
  194.4590  174.2270  136.1530 N   0  0  0  0  0  0  0  0  0  0  0  0
  194.6060  175.7890  139.3620 O   0  0  0  0  0  1  0  0  0  0  0  0
  194.3190  175.2990  138.0960 C   0  0  0  0  0  0  0  0  0  0  0  0
  193.3390  174.9370  136.1590 N   0  0  0  0  0  0  0  0  0  0  0  0
  195.0810  174.4320  137.3330 C   0  0  0  0  0  0  0  0  0  0  0  0
  196.3660  173.8160  137.6960 C   0  0  0  0  0  0  0  0  0  0  0  0
  196.3830  172.7880  138.4250 O   0  0  0  0  0  0  0  0  0  0  0  0
  197.6590  174.3810  137.2180 C   0  0  0  0  0  1  0  0  0  0  0  0
  192.4020  174.9790  135.0420 C   0  0  0  0  0  2  0  0  0  0  0  0
  190.8710  173.1700  135.8280 C   0  0  0  0  0  1  0  0  0  0  0  0
  191.8480  173.5950  134.7490 C   0  0  0  0  0  2  0  0  0  0  0  0
  2 14  2  0  0  0  0
  2  8  1  0  0  0  0
  3 19  1  0  0  0  0
  4  3  2  0  0  0  0
  5  9  2  0  0  0  0
  6  3  1  0  0  0  0
  6  1  2  0  0  0  0
  8 13  1  0  0  0  0
  9  4  1  0  0  0  0
 10 23  1  1  0  0  0
 10  9  1  0  0  0  0
 10 14  1  0  0  0  0
 11  8  2  0  0  0  0
 12 15  2  0  0  0  0
 12  2  1  0  0  0  0
 13  1  1  0  0  0  0
 13  7  1  0  0  0  0
 14  6  1  0  0  0  0
 15 11  1  0  0  0  0
 16  5  2  0  0  0  0
 17 20  1  0  0  0  0
 19 18  1  0  0  0  0
 19 17  2  0  0  0  0
 20 22  1  0  0  0  0
 22 21  1  0  0  0  0
 24 23  1  0  0  0  0
 25 16  1  0  0  0  0
 26 25  1  0  0  0  0
 26 29  2  0  0  0  0
 27 30  1  0  0  0  0
 27 31  2  0  0  0  0
 29 28  1  0  0  0  0
 30 26  1  0  0  0  0
 31 32  1  0  0  0  0
 31 29  1  0  0  0  0
 32 33  2  0  0  0  0
 34 32  1  0  0  0  0
 35 30  1  0  0  0  0
 37 35  1  0  0  0  0
 37 36  1  0  0  0  0
M  END
>  <MODEL>
8

>  <REMARK>
 VINA RESULT:      -8.2      3.072      5.709
  Name = 
  9 active torsions:
  status: ('A' for Active; 'I' for Inactive)
    1  A    between atoms: C_3  and  C_27
    2  A    between atoms: C_4  and  C_13
    3  A    between atoms: C_4  and  C_37
    4  A    between atoms: C_5  and  N_25
    5  A    between atoms: C_5  and  C_33
    6  A    between atoms: C_6  and  C_18
    7  A    between atoms: O_7  and  C_29
    8  A    between atoms: C_12  and  C_26
    9  A    between atoms: O_21  and  C_27
                            x       y       z     vdW  Elec       q    Type
                         _______ _______ _______ _____ _____    ______ ____

>  <TORSDO>
F 9

$$$$
=
 OpenBabel10232411223D

 37 40  0  0  1  0  0  0  0  0999 V2000
  189.9710  176.7140  136.4490 C   0  0  0  0  0  3  0  0  0  0  0  0
  192.2240  176.1010  137.9200 C   0  0  0  0  0  0  0  0  0  0  0  0
  188.7040  177.3320  138.5600 C   0  0  0  0  0  0  0  0  0  0  0  0
  188.6410  177.2310  139.8970 C   0  0  0  0  0  3  0  0  0  0  0  0
  189.6070  176.5380  141.9720 C   0  0  0  0  0  0  0  0  0  0  0  0
  189.9480  176.8820  137.8590 C   0  0  0  0  0  0  0  0  0  0  0  0
  191.0440  176.1080  134.3460 C   0  0  0  0  0  1  0  0  0  0  0  0
  192.1860  175.9580  136.5080 C   0  0  0  0  0  0  0  0  0  0  0  0
  189.7760  176.7580  140.6990 C   0  0  0  0  0  0  0  0  0  0  0  0
  191.1570  176.7330  140.1120 C   0  0  1  0  0  3  0  0  0  0  0  0
  193.3570  175.5090  136.0350 N   0  0  0  0  0  0  0  0  0  0  0  0
  193.4840  175.7230  138.3200 C   0  0  0  0  0  3  0  0  0  0  0  0
  191.0790  176.2620  135.7900 N   0  0  0  0  0  0  0  0  0  0  0  0
  191.1100  176.5580  138.6170 C   0  0  0  0  0  0  0  0  0  0  0  0
  194.1420  175.3670  137.1350 C   0  0  0  0  0  3  0  0  0  0  0  0
  189.4270  176.3180  143.2430 C   0  0  0  0  0  3  0  0  0  0  0  0
  186.4350  177.0940  137.6360 C   0  0  0  0  0  3  0  0  0  0  0  0
  187.5150  179.1530  137.3200 O   0  0  0  0  0  1  0  0  0  0  0  0
  187.5170  177.8560  137.8210 C   0  0  0  0  0  0  0  0  0  0  0  0
  185.2230  177.5710  136.9050 C   0  0  0  0  0  2  0  0  0  0  0  0
  183.9000  178.6570  138.2890 C   0  0  0  0  0  1  0  0  0  0  0  0
  184.0900  177.4100  137.7010 O   0  0  0  0  0  0  0  0  0  0  0  0
  191.8210  177.9220  140.4240 O   0  0  0  0  0  0  0  0  0  0  0  0
  192.7400  177.5690  141.3520 N   0  0  0  0  0  1  0  0  0  0  0  0
  189.7790  177.3640  144.2400 C   0  0  0  0  0  2  0  0  0  0  0  0
  188.6200  177.6120  145.1460 C   0  0  0  0  0  0  0  0  0  0  0  0
  187.4870  177.9920  146.9810 N   0  0  0  0  0  0  0  0  0  0  0  0
  186.8240  177.8960  143.4720 O   0  0  0  0  0  1  0  0  0  0  0  0
  187.3220  177.8640  144.7670 C   0  0  0  0  0  0  0  0  0  0  0  0
  188.6850  177.7080  146.4880 N   0  0  0  0  0  0  0  0  0  0  0  0
  186.6290  178.0920  145.9430 C   0  0  0  0  0  0  0  0  0  0  0  0
  185.2000  178.4060  146.0930 C   0  0  0  0  0  0  0  0  0  0  0  0
  184.6150  178.1500  147.1780 O   0  0  0  0  0  0  0  0  0  0  0  0
  184.4230  179.0260  144.9830 C   0  0  0  0  0  1  0  0  0  0  0  0
  189.8770  177.5360  147.3090 C   0  0  0  0  0  2  0  0  0  0  0  0
  191.9350  176.1300  147.4690 C   0  0  0  0  0  1  0  0  0  0  0  0
  190.4570  176.1420  147.1330 C   0  0  0  0  0  2  0  0  0  0  0  0
  1  6  2  0  0  0  0
  2 12  1  0  0  0  0
  2 14  2  0  0  0  0
  3  4  2  0  0  0  0
  4  9  1  0  0  0  0
  5 16  2  0  0  0  0
  6  3  1  0  0  0  0
  6 14  1  0  0  0  0
  7 13  1  0  0  0  0
  8  2  1  0  0  0  0
  9  5  2  0  0  0  0
 10 23  1  6  0  0  0
 10  9  1  0  0  0  0
 11  8  2  0  0  0  0
 11 15  1  0  0  0  0
 13  1  1  0  0  0  0
 13  8  1  0  0  0  0
 14 10  1  0  0  0  0
 15 12  2  0  0  0  0
 16 25  1  0  0  0  0
 17 19  2  0  0  0  0
 18 19  1  0  0  0  0
 19  3  1  0  0  0  0
 20 17  1  0  0  0  0
 20 22  1  0  0  0  0
 22 21  1  0  0  0  0
 23 24  1  0  0  0  0
 25 26  1  0  0  0  0
 26 30  1  0  0  0  0
 28 29  1  0  0  0  0
 29 26  2  0  0  0  0
 29 31  1  0  0  0  0
 30 27  1  0  0  0  0
 30 35  1  0  0  0  0
 31 32  1  0  0  0  0
 31 27  2  0  0  0  0
 32 33  2  0  0  0  0
 34 32  1  0  0  0  0
 37 35  1  0  0  0  0
 37 36  1  0  0  0  0
M  END
>  <MODEL>
9

>  <REMARK>
 VINA RESULT:      -8.1      2.215      8.909
  Name = 
  9 active torsions:
  status: ('A' for Active; 'I' for Inactive)
    1  A    between atoms: C_3  and  C_27
    2  A    between atoms: C_4  and  C_13
    3  A    between atoms: C_4  and  C_37
    4  A    between atoms: C_5  and  N_25
    5  A    between atoms: C_5  and  C_33
    6  A    between atoms: C_6  and  C_18
    7  A    between atoms: O_7  and  C_29
    8  A    between atoms: C_12  and  C_26
    9  A    between atoms: O_21  and  C_27
                            x       y       z     vdW  Elec       q    Type
                         _______ _______ _______ _____ _____    ______ ____

>  <TORSDO>
F 9

$$$$
