=
 OpenBabel10232409523D

 59 67  0  0  1  0  0  0  0  0999 V2000
  191.2040  174.6030  143.8850 C   0  0  0  0  0  1  0  0  0  0  0  0
  190.8880  176.0010  143.3810 C   0  0  2  0  0  0  0  0  0  0  0  0
  190.5620  175.9230  141.8810 C   0  0  1  0  0  3  0  0  0  0  0  0
  191.9830  176.8170  143.6780 O   0  0  0  0  0  1  0  0  0  0  0  0
  188.4620  176.0810  143.1390 C   0  0  0  0  0  2  0  0  0  0  0  0
  189.6070  176.4880  144.0580 C   0  0  2  0  0  3  0  0  0  0  0  0
  189.0880  175.5090  141.8760 C   0  0  0  0  0  2  0  0  0  0  0  0
  190.7260  177.0850  139.5080 C   0  0  1  0  0  3  0  0  0  0  0  0
  189.6630  177.8580  140.2760 C   0  0  0  0  0  2  0  0  0  0  0  0
  190.8200  177.2200  141.0320 C   0  0  1  0  0  0  0  0  0  0  0  0
  190.5130  175.2220  137.8190 C   0  0  0  0  0  0  0  0  0  0  0  0
  191.3400  175.9300  136.8920 N   0  0  0  0  0  2  0  0  0  0  0  0
  190.1930  175.7980  139.0850 N   0  0  0  0  0  2  0  0  0  0  0  0
  190.0660  174.0830  137.5300 O   0  0  0  0  0  0  0  0  0  0  0  0
  191.6610  175.3930  135.5760 C   0  0  0  0  0  2  0  0  0  0  0  0
  193.1140  175.6730  135.2160 C   0  0  0  0  0  2  0  0  0  0  0  0
  195.6560  175.5360  136.1760 O   0  0  0  0  0  0  0  0  0  0  0  0
  193.9080  176.5300  137.8290 O   0  0  0  0  0  1  0  0  0  0  0  0
  194.2240  175.3800  136.6300 P   0  0  1  0  0  0  0  0  0  0  0  0
  193.9620  173.6910  137.3020 C   0  0  1  0  0  3  0  0  0  0  0  0
  195.7530  174.1200  139.0760 C   0  0  0  0  0  1  0  0  0  0  0  0
  196.1610  172.6980  137.1090 N   0  0  0  0  0  0  0  0  0  0  0  0
  196.1530  172.1700  134.7360 C   0  0  0  0  0  1  0  0  0  0  0  0
  193.7240  172.5400  135.9310 S   0  0  0  0  0  0  0  0  0  0  0  0
  195.1610  173.1450  138.0660 C   0  0  2  0  0  3  0  0  0  0  0  0
  195.4520  171.9670  136.0640 C   0  0  2  0  0  3  0  0  0  0  0  0
  196.9480  171.7980  137.7470 O   0  0  0  0  0  1  0  0  0  0  0  0
  191.9620  178.1320  141.3690 C   0  0  0  0  0  0  0  0  0  0  0  0
  191.8130  179.0490  142.2200 O   0  0  0  0  0  1  0  0  0  0  0  0
  193.2000  177.9370  140.7740 O   0  0  0  0  0  0  0  0  0  0  0  0
  189.5800  178.3020  144.2770 S   0  0  0  0  0  0  0  0  0  0  0  0
  185.8530  178.1570  147.0240 C   0  0  0  0  0  3  0  0  0  0  0  0
  188.2470  178.1150  146.7140 C   0  0  0  0  0  0  0  0  0  0  0  0
  188.1260  178.2560  145.3290 C   0  0  0  0  0  0  0  0  0  0  0  0
  189.4410  178.0030  147.6080 C   0  0  1  0  0  3  0  0  0  0  0  0
  185.6980  178.2780  145.6350 C   0  0  0  0  0  3  0  0  0  0  0  0
  186.8250  178.3250  144.7820 C   0  0  0  0  0  0  0  0  0  0  0  0
  187.5380  177.9650  148.8760 N   0  0  0  0  0  0  0  0  0  0  0  0
  188.8090  177.9210  148.9350 N   0  0  0  0  0  0  0  0  0  0  0  0
  187.1480  178.0850  147.5250 C   0  0  0  0  0  0  0  0  0  0  0  0
  190.2020  176.7140  147.3270 C   0  0  0  0  0  3  0  0  0  0  0  0
  191.4890  176.6850  148.1340 C   0  0  0  0  0  2  0  0  0  0  0  0
  191.5270  177.0470  146.6660 C   0  0  0  0  0  2  0  0  0  0  0  0
  186.6510  178.4600  143.3660 N   0  0  0  0  0  2  0  0  0  0  0  0
  185.5000  177.9940  142.7130 N   0  0  0  0  0  2  0  0  0  0  0  0
  185.0500  179.0560  141.8320 C   0  0  0  0  0  2  0  0  0  0  0  0
  182.2950  179.3240  143.1560 Cl  0  0  0  0  0  0  0  0  0  0  0  0
  183.8730  178.5570  141.0090 C   0  0  2  0  0  3  0  0  0  0  0  0
  182.1340  179.0050  139.4270 C   0  0  2  0  0  3  0  0  0  0  0  0
  181.2270  178.0840  140.7190 S   0  0  0  0  0  0  0  0  0  0  0  0
  183.4220  179.5730  139.9860 C   0  0  0  0  0  2  0  0  0  0  0  0
  182.6570  178.1580  141.8410 C   0  0  2  0  0  3  0  0  0  0  0  0
  180.0580  179.4020  137.8160 C   0  0  1  0  0  3  0  0  0  0  0  0
  181.2700  179.8940  137.0200 C   0  0  1  0  0  3  0  0  0  0  0  0
  180.2550  178.0120  137.2360 C   0  0  0  0  0  2  0  0  0  0  0  0
  181.2810  179.9540  138.5450 C   0  0  2  0  0  0  0  0  0  0  0  0
  181.4530  178.4970  136.4540 C   0  0  0  0  0  2  0  0  0  0  0  0
  180.6010  182.0350  138.0140 C   0  0  0  0  0  1  0  0  0  0  0  0
  181.0210  181.2260  139.0790 O   0  0  0  0  0  0  0  0  0  0  0  0
  2  4  1  0  0  0  0
  2  1  1  1  0  0  0
  2  6  1  0  0  0  0
  3  7  1  1  0  0  0
  3  2  1  0  0  0  0
  5  6  1  0  0  0  0
  6 31  1  6  0  0  0
  7  5  1  0  0  0  0
  8 13  1  1  0  0  0
  8  9  1  0  0  0  0
  8 10  1  0  0  0  0
  9 10  1  0  0  0  0
 10 28  1  1  0  0  0
 10  3  1  0  0  0  0
 11 13  1  0  0  0  0
 12 11  1  0  0  0  0
 14 11  2  0  0  0  0
 15 12  1  0  0  0  0
 16 15  1  0  0  0  0
 16 19  1  0  0  0  0
 19 17  2  6  0  0  0
 19 18  1  0  0  0  0
 20 19  1  6  0  0  0
 20 25  1  0  0  0  0
 22 27  1  0  0  0  0
 22 25  1  0  0  0  0
 24 26  1  0  0  0  0
 24 20  1  0  0  0  0
 25 21  1  1  0  0  0
 26 23  1  6  0  0  0
 26 22  1  0  0  0  0
 28 29  1  0  0  0  0
 30 28  2  0  0  0  0
 31 34  1  0  0  0  0
 32 40  1  0  0  0  0
 33 40  2  0  0  0  0
 33 35  1  0  0  0  0
 34 33  1  0  0  0  0
 35 41  1  6  0  0  0
 35 39  1  0  0  0  0
 36 32  2  0  0  0  0
 37 34  2  0  0  0  0
 37 36  1  0  0  0  0
 38 39  2  0  0  0  0
 40 38  1  0  0  0  0
 41 42  1  0  0  0  0
 43 41  1  0  0  0  0
 43 42  1  0  0  0  0
 44 37  1  0  0  0  0
 45 44  1  0  0  0  0
 46 45  1  0  0  0  0
 48 46  1  1  0  0  0
 48 52  1  0  0  0  0
 49 51  1  1  0  0  0
 49 50  1  0  0  0  0
 50 52  1  0  0  0  0
 51 48  1  0  0  0  0
 52 47  1  1  0  0  0
 53 55  1  1  0  0  0
 53 56  1  0  0  0  0
 54 57  1  1  0  0  0
 54 53  1  0  0  0  0
 54 56  1  0  0  0  0
 56 59  1  1  0  0  0
 56 49  1  0  0  0  0
 57 55  1  0  0  0  0
 58 59  1  0  0  0  0
M  END
>  <MODEL>
1

>  <REMARK>
 VINA RESULT:      -5.0      0.000      0.000
  Name = 
  16 active torsions:
  status: ('A' for Active; 'I' for Inactive)
    1  A    between atoms: C_1  and  C_15
    2  A    between atoms: C_1  and  P_32
    3  A    between atoms: S_3  and  C_27
    4  A    between atoms: S_3  and  C_54
    5  A    between atoms: C_4  and  N_39
    6  A    between atoms: C_5  and  C_53
    7  A    between atoms: C_10  and  P_32
    8  A    between atoms: N_11  and  N_23
    9  A    between atoms: N_11  and  C_25
   10  A    between atoms: C_13  and  C_25
   11  A    between atoms: C_15  and  N_36
   12  A    between atoms: O_16  and  C_40
   13  A    between atoms: C_19  and  C_28
   14  A    between atoms: C_20  and  C_40
   15  A    between atoms: N_23  and  C_31
   16  A    between atoms: C_43  and  C_53
                            x       y       z     vdW  Elec       q    Type
                         _______ _______ _______ _____ _____    ______ ____

>  <TORSDO>
F 16

$$$$
=
 OpenBabel10232409523D

 59 67  0  0  1  0  0  0  0  0999 V2000
  190.9990  174.5360  143.7930 C   0  0  0  0  0  1  0  0  0  0  0  0
  190.7660  175.9610  143.3190 C   0  0  2  0  0  0  0  0  0  0  0  0
  190.4750  175.9370  141.8100 C   0  0  1  0  0  3  0  0  0  0  0  0
  191.8910  176.7130  143.6650 O   0  0  0  0  0  1  0  0  0  0  0  0
  188.3530  176.1670  143.0200 C   0  0  0  0  0  2  0  0  0  0  0  0
  189.4930  176.4930  143.9770 C   0  0  2  0  0  3  0  0  0  0  0  0
  188.9820  175.5970  141.7580 C   0  0  0  0  0  2  0  0  0  0  0  0
  190.6920  177.1680  139.4770 C   0  0  1  0  0  3  0  0  0  0  0  0
  189.7010  177.9910  140.2900 C   0  0  0  0  0  2  0  0  0  0  0  0
  190.8180  177.2410  141.0030 C   0  0  1  0  0  0  0  0  0  0  0  0
  190.3450  175.3670  137.7440 C   0  0  0  0  0  0  0  0  0  0  0  0
  191.2440  176.0200  136.8440 N   0  0  0  0  0  2  0  0  0  0  0  0
  190.0560  175.9410  139.0180 N   0  0  0  0  0  2  0  0  0  0  0  0
  189.8070  174.2770  137.4240 O   0  0  0  0  0  0  0  0  0  0  0  0
  191.5380  175.4850  135.5210 C   0  0  0  0  0  2  0  0  0  0  0  0
  193.0340  175.5320  135.2370 C   0  0  0  0  0  2  0  0  0  0  0  0
  192.8810  173.1710  136.5800 O   0  0  0  0  0  1  0  0  0  0  0  0
  194.6690  173.2480  134.6890 O   0  0  0  0  0  0  0  0  0  0  0  0
  193.8950  174.0870  135.9360 P   0  0  1  0  0  0  0  0  0  0  0  0
  195.1300  174.6280  137.1830 C   0  0  1  0  0  3  0  0  0  0  0  0
  196.5850  175.6010  135.3190 C   0  0  0  0  0  1  0  0  0  0  0  0
  197.1420  173.4920  136.4590 N   0  0  0  0  0  0  0  0  0  0  0  0
  196.6770  171.2680  137.3210 C   0  0  0  0  0  1  0  0  0  0  0  0
  195.2980  173.3440  138.4420 S   0  0  0  0  0  0  0  0  0  0  0  0
  196.5320  174.8040  136.6150 C   0  0  2  0  0  3  0  0  0  0  0  0
  196.8350  172.7350  137.6680 C   0  0  2  0  0  3  0  0  0  0  0  0
  198.4840  173.6760  136.4460 O   0  0  0  0  0  1  0  0  0  0  0  0
  192.0300  178.0520  141.3520 C   0  0  0  0  0  0  0  0  0  0  0  0
  191.9700  178.9310  142.2510 O   0  0  0  0  0  1  0  0  0  0  0  0
  193.2360  177.8020  140.7110 O   0  0  0  0  0  0  0  0  0  0  0  0
  189.5490  178.3000  144.2440 S   0  0  0  0  0  0  0  0  0  0  0  0
  186.1270  178.1880  147.3630 C   0  0  0  0  0  3  0  0  0  0  0  0
  188.4700  178.0610  146.7990 C   0  0  0  0  0  0  0  0  0  0  0  0
  188.2120  178.2680  145.4420 C   0  0  0  0  0  0  0  0  0  0  0  0
  189.7450  177.8600  147.5570 C   0  0  1  0  0  3  0  0  0  0  0  0
  185.8330  178.3770  146.0050 C   0  0  0  0  0  3  0  0  0  0  0  0
  186.8660  178.4150  145.0390 C   0  0  0  0  0  0  0  0  0  0  0  0
  187.9850  177.8440  149.0170 N   0  0  0  0  0  0  0  0  0  0  0  0
  189.2520  177.7460  148.9390 N   0  0  0  0  0  0  0  0  0  0  0  0
  187.4620  178.0400  147.7210 C   0  0  0  0  0  0  0  0  0  0  0  0
  190.4120  176.5540  147.1460 C   0  0  0  0  0  3  0  0  0  0  0  0
  191.6290  176.2970  148.0180 C   0  0  0  0  0  2  0  0  0  0  0  0
  191.8060  176.8460  146.6200 C   0  0  0  0  0  2  0  0  0  0  0  0
  186.5510  178.6200  143.6560 N   0  0  0  0  0  2  0  0  0  0  0  0
  185.2990  179.1020  143.2450 N   0  0  0  0  0  2  0  0  0  0  0  0
  184.6240  178.0090  142.5690 C   0  0  0  0  0  2  0  0  0  0  0  0
  186.3410  178.4640  140.0670 Cl  0  0  0  0  0  0  0  0  0  0  0  0
  183.8870  178.5520  141.3550 C   0  0  2  0  0  3  0  0  0  0  0  0
  182.6820  178.1430  139.3290 C   0  0  2  0  0  3  0  0  0  0  0  0
  183.8750  179.4210  138.7950 S   0  0  0  0  0  0  0  0  0  0  0  0
  183.1610  177.4670  140.5950 C   0  0  0  0  0  2  0  0  0  0  0  0
  184.7810  179.2980  140.3670 C   0  0  2  0  0  3  0  0  0  0  0  0
  181.7330  177.8200  136.8670 C   0  0  1  0  0  3  0  0  0  0  0  0
  180.6710  177.2010  137.7790 C   0  0  1  0  0  3  0  0  0  0  0  0
  181.0270  179.1610  136.9750 C   0  0  0  0  0  2  0  0  0  0  0  0
  182.1350  177.2170  138.2110 C   0  0  2  0  0  0  0  0  0  0  0  0
  179.9820  178.5500  137.8780 C   0  0  0  0  0  2  0  0  0  0  0  0
  182.3880  175.4750  136.8040 C   0  0  0  0  0  1  0  0  0  0  0  0
  182.8060  175.9960  138.0360 O   0  0  0  0  0  0  0  0  0  0  0  0
  2  4  1  0  0  0  0
  2  1  1  1  0  0  0
  2  6  1  0  0  0  0
  3  7  1  1  0  0  0
  3  2  1  0  0  0  0
  5  6  1  0  0  0  0
  6 31  1  6  0  0  0
  7  5  1  0  0  0  0
  8 13  1  1  0  0  0
  8  9  1  0  0  0  0
  8 10  1  0  0  0  0
  9 10  1  0  0  0  0
 10 28  1  1  0  0  0
 10  3  1  0  0  0  0
 11 13  1  0  0  0  0
 12 11  1  0  0  0  0
 14 11  2  0  0  0  0
 15 12  1  0  0  0  0
 16 15  1  0  0  0  0
 16 19  1  0  0  0  0
 19 18  2  6  0  0  0
 19 17  1  0  0  0  0
 20 19  1  6  0  0  0
 20 24  1  0  0  0  0
 22 25  1  0  0  0  0
 22 26  1  0  0  0  0
 25 21  1  6  0  0  0
 25 20  1  0  0  0  0
 26 23  1  6  0  0  0
 26 24  1  0  0  0  0
 27 22  1  0  0  0  0
 28 29  1  0  0  0  0
 30 28  2  0  0  0  0
 31 34  1  0  0  0  0
 32 40  1  0  0  0  0
 33 35  1  0  0  0  0
 33 40  2  0  0  0  0
 34 33  1  0  0  0  0
 35 41  1  6  0  0  0
 35 39  1  0  0  0  0
 36 32  2  0  0  0  0
 37 34  2  0  0  0  0
 37 36  1  0  0  0  0
 39 38  2  0  0  0  0
 40 38  1  0  0  0  0
 41 42  1  0  0  0  0
 43 41  1  0  0  0  0
 43 42  1  0  0  0  0
 44 37  1  0  0  0  0
 45 44  1  0  0  0  0
 46 45  1  0  0  0  0
 48 46  1  1  0  0  0
 49 51  1  1  0  0  0
 50 49  1  0  0  0  0
 50 52  1  0  0  0  0
 51 48  1  0  0  0  0
 52 47  1  6  0  0  0
 52 48  1  0  0  0  0
 53 55  1  1  0  0  0
 53 54  1  0  0  0  0
 53 56  1  0  0  0  0
 54 57  1  1  0  0  0
 54 56  1  0  0  0  0
 55 57  1  0  0  0  0
 56 59  1  6  0  0  0
 56 49  1  0  0  0  0
 58 59  1  0  0  0  0
M  END
>  <MODEL>
2

>  <REMARK>
 VINA RESULT:      -4.8      1.679      2.107
  Name = 
  16 active torsions:
  status: ('A' for Active; 'I' for Inactive)
    1  A    between atoms: C_1  and  C_15
    2  A    between atoms: C_1  and  P_32
    3  A    between atoms: S_3  and  C_27
    4  A    between atoms: S_3  and  C_54
    5  A    between atoms: C_4  and  N_39
    6  A    between atoms: C_5  and  C_53
    7  A    between atoms: C_10  and  P_32
    8  A    between atoms: N_11  and  N_23
    9  A    between atoms: N_11  and  C_25
   10  A    between atoms: C_13  and  C_25
   11  A    between atoms: C_15  and  N_36
   12  A    between atoms: O_16  and  C_40
   13  A    between atoms: C_19  and  C_28
   14  A    between atoms: C_20  and  C_40
   15  A    between atoms: N_23  and  C_31
   16  A    between atoms: C_43  and  C_53
                            x       y       z     vdW  Elec       q    Type
                         _______ _______ _______ _____ _____    ______ ____

>  <TORSDO>
F 16

$$$$
=
 OpenBabel10232409523D

 59 67  0  0  1  0  0  0  0  0999 V2000
  187.3200  180.6460  141.9780 C   0  0  0  0  0  1  0  0  0  0  0  0
  186.4640  179.4640  142.4050 C   0  0  2  0  0  0  0  0  0  0  0  0
  185.2540  179.3670  141.4620 C   0  0  1  0  0  3  0  0  0  0  0  0
  186.1210  179.6510  143.7460 O   0  0  0  0  0  1  0  0  0  0  0  0
  186.9220  177.7020  140.7810 C   0  0  0  0  0  2  0  0  0  0  0  0
  187.2620  178.1790  142.1870 C   0  0  2  0  0  3  0  0  0  0  0  0
  185.8240  178.6140  140.2560 C   0  0  0  0  0  2  0  0  0  0  0  0
  182.7100  178.7020  141.1530 C   0  0  1  0  0  3  0  0  0  0  0  0
  183.4540  177.3960  141.3990 C   0  0  0  0  0  2  0  0  0  0  0  0
  183.9620  178.6810  142.0380 C   0  0  1  0  0  0  0  0  0  0  0  0
  182.3040  178.6440  138.6640 C   0  0  0  0  0  0  0  0  0  0  0  0
  181.3690  177.5730  138.8130 N   0  0  0  0  0  2  0  0  0  0  0  0
  182.9770  179.1770  139.8030 N   0  0  0  0  0  2  0  0  0  0  0  0
  182.5360  179.1310  137.5280 O   0  0  0  0  0  0  0  0  0  0  0  0
  180.6880  176.9770  137.6720 C   0  0  0  0  0  2  0  0  0  0  0  0
  181.6910  176.4850  136.6370 C   0  0  0  0  0  2  0  0  0  0  0  0
  183.2330  175.2370  138.4980 O   0  0  0  0  0  1  0  0  0  0  0  0
  181.3800  173.7530  137.4290 O   0  0  0  0  0  0  0  0  0  0  0  0
  182.5330  174.9670  137.1870 P   0  0  1  0  0  0  0  0  0  0  0  0
  183.7530  174.4250  135.9260 C   0  0  1  0  0  3  0  0  0  0  0  0
  184.6250  172.6400  137.5370 C   0  0  0  0  0  1  0  0  0  0  0  0
  185.8640  174.7160  137.0740 N   0  0  0  0  0  0  0  0  0  0  0  0
  186.1160  177.1220  136.8410 C   0  0  0  0  0  1  0  0  0  0  0  0
  184.4250  175.8780  135.0920 S   0  0  0  0  0  0  0  0  0  0  0  0
  184.9660  173.7180  136.5160 C   0  0  2  0  0  3  0  0  0  0  0  0
  185.9400  175.8070  136.1080 C   0  0  2  0  0  3  0  0  0  0  0  0
  187.0970  174.1570  137.1260 O   0  0  0  0  0  1  0  0  0  0  0  0
  183.5550  178.9080  143.4630 C   0  0  0  0  0  0  0  0  0  0  0  0
  183.5510  177.9530  144.2830 O   0  0  0  0  0  1  0  0  0  0  0  0
  183.2220  180.1860  143.8910 O   0  0  0  0  0  0  0  0  0  0  0  0
  186.8170  176.8710  143.3850 S   0  0  0  0  0  0  0  0  0  0  0  0
  190.8730  177.1450  145.6050 C   0  0  0  0  0  3  0  0  0  0  0  0
  188.4590  177.1800  145.6110 C   0  0  0  0  0  0  0  0  0  0  0  0
  188.3970  176.9670  144.2320 C   0  0  0  0  0  0  0  0  0  0  0  0
  187.3930  177.3430  146.6480 C   0  0  1  0  0  3  0  0  0  0  0  0
  190.8450  176.9510  144.2160 C   0  0  0  0  0  3  0  0  0  0  0  0
  189.6150  176.8630  143.5220 C   0  0  0  0  0  0  0  0  0  0  0  0
  189.4470  177.4410  147.6510 N   0  0  0  0  0  0  0  0  0  0  0  0
  188.1940  177.4920  147.8740 N   0  0  0  0  0  0  0  0  0  0  0  0
  189.6550  177.2480  146.2680 C   0  0  0  0  0  0  0  0  0  0  0  0
  186.5980  178.6190  146.4020 C   0  0  0  0  0  3  0  0  0  0  0  0
  186.1840  179.2350  147.7270 C   0  0  0  0  0  2  0  0  0  0  0  0
  185.1840  178.4370  146.9210 C   0  0  0  0  0  2  0  0  0  0  0  0
  189.6020  176.6530  142.1050 N   0  0  0  0  0  2  0  0  0  0  0  0
  190.7770  176.6910  141.3400 N   0  0  0  0  0  2  0  0  0  0  0  0
  190.4270  177.2650  140.0520 C   0  0  0  0  0  2  0  0  0  0  0  0
  189.5690  178.0900  137.2240 Cl  0  0  0  0  0  0  0  0  0  0  0  0
  190.6570  176.2270  138.9650 C   0  0  2  0  0  3  0  0  0  0  0  0
  192.0730  175.3050  137.2710 C   0  0  2  0  0  3  0  0  0  0  0  0
  190.4770  175.4270  136.3890 S   0  0  0  0  0  0  0  0  0  0  0  0
  192.0860  176.2230  138.4740 C   0  0  0  0  0  2  0  0  0  0  0  0
  189.7450  176.3840  137.7520 C   0  0  2  0  0  3  0  0  0  0  0  0
  193.8970  173.9860  135.8560 C   0  0  1  0  0  3  0  0  0  0  0  0
  194.7050  174.8140  136.8580 C   0  0  1  0  0  3  0  0  0  0  0  0
  193.8380  172.8480  136.8600 C   0  0  0  0  0  2  0  0  0  0  0  0
  193.3420  175.3090  136.3790 C   0  0  2  0  0  0  0  0  0  0  0  0
  194.6320  173.6670  137.8500 C   0  0  0  0  0  2  0  0  0  0  0  0
  194.6930  176.8490  135.4390 C   0  0  0  0  0  1  0  0  0  0  0  0
  193.4010  176.3070  135.3930 O   0  0  0  0  0  0  0  0  0  0  0  0
  2  1  1  6  0  0  0
  2  4  1  0  0  0  0
  3  7  1  6  0  0  0
  3 10  1  0  0  0  0
  3  2  1  0  0  0  0
  5  6  1  0  0  0  0
  6  2  1  0  0  0  0
  6 31  1  1  0  0  0
  7  5  1  0  0  0  0
  8 13  1  6  0  0  0
  8  9  1  0  0  0  0
  8 10  1  0  0  0  0
  9 10  1  0  0  0  0
 10 28  1  1  0  0  0
 11 12  1  0  0  0  0
 11 13  1  0  0  0  0
 14 11  2  0  0  0  0
 15 12  1  0  0  0  0
 16 19  1  0  0  0  0
 16 15  1  0  0  0  0
 19 18  2  1  0  0  0
 19 17  1  0  0  0  0
 20 25  1  0  0  0  0
 20 19  1  1  0  0  0
 22 27  1  0  0  0  0
 24 20  1  0  0  0  0
 24 26  1  0  0  0  0
 25 22  1  0  0  0  0
 25 21  1  1  0  0  0
 26 23  1  1  0  0  0
 26 22  1  0  0  0  0
 28 30  2  0  0  0  0
 28 29  1  0  0  0  0
 31 34  1  0  0  0  0
 32 40  1  0  0  0  0
 33 40  2  0  0  0  0
 33 35  1  0  0  0  0
 34 33  1  0  0  0  0
 35 41  1  6  0  0  0
 35 39  1  0  0  0  0
 36 32  2  0  0  0  0
 37 36  1  0  0  0  0
 37 34  2  0  0  0  0
 38 39  2  0  0  0  0
 40 38  1  0  0  0  0
 41 43  1  0  0  0  0
 41 42  1  0  0  0  0
 43 42  1  0  0  0  0
 44 37  1  0  0  0  0
 45 44  1  0  0  0  0
 46 45  1  0  0  0  0
 48 46  1  1  0  0  0
 49 51  1  1  0  0  0
 50 49  1  0  0  0  0
 50 52  1  0  0  0  0
 51 48  1  0  0  0  0
 52 47  1  6  0  0  0
 52 48  1  0  0  0  0
 53 56  1  0  0  0  0
 53 54  1  0  0  0  0
 53 55  1  1  0  0  0
 54 57  1  1  0  0  0
 55 57  1  0  0  0  0
 56 59  1  6  0  0  0
 56 54  1  0  0  0  0
 56 49  1  0  0  0  0
 59 58  1  0  0  0  0
M  END
>  <MODEL>
3

>  <REMARK>
 VINA RESULT:      -4.6      3.791      9.049
  Name = 
  16 active torsions:
  status: ('A' for Active; 'I' for Inactive)
    1  A    between atoms: C_1  and  C_15
    2  A    between atoms: C_1  and  P_32
    3  A    between atoms: S_3  and  C_27
    4  A    between atoms: S_3  and  C_54
    5  A    between atoms: C_4  and  N_39
    6  A    between atoms: C_5  and  C_53
    7  A    between atoms: C_10  and  P_32
    8  A    between atoms: N_11  and  N_23
    9  A    between atoms: N_11  and  C_25
   10  A    between atoms: C_13  and  C_25
   11  A    between atoms: C_15  and  N_36
   12  A    between atoms: O_16  and  C_40
   13  A    between atoms: C_19  and  C_28
   14  A    between atoms: C_20  and  C_40
   15  A    between atoms: N_23  and  C_31
   16  A    between atoms: C_43  and  C_53
                            x       y       z     vdW  Elec       q    Type
                         _______ _______ _______ _____ _____    ______ ____

>  <TORSDO>
F 16

$$$$
=
 OpenBabel10232409523D

 59 67  0  0  1  0  0  0  0  0999 V2000
  188.4070  175.7560  138.4280 C   0  0  0  0  0  1  0  0  0  0  0  0
  189.1300  176.6240  139.4460 C   0  0  2  0  0  0  0  0  0  0  0  0
  190.5680  176.8630  138.9580 C   0  0  1  0  0  3  0  0  0  0  0  0
  189.0530  175.9800  140.6830 O   0  0  0  0  0  1  0  0  0  0  0  0
  189.2240  178.8530  138.4590 C   0  0  0  0  0  2  0  0  0  0  0  0
  188.4680  178.0010  139.4710 C   0  0  2  0  0  3  0  0  0  0  0  0
  190.4030  178.0240  137.9730 C   0  0  0  0  0  2  0  0  0  0  0  0
  193.0800  176.6950  139.7750 C   0  0  1  0  0  3  0  0  0  0  0  0
  192.7420  178.1800  139.7710 C   0  0  0  0  0  2  0  0  0  0  0  0
  191.6480  177.1620  140.0600 C   0  0  1  0  0  0  0  0  0  0  0  0
  194.3070  175.3230  138.0490 C   0  0  0  0  0  0  0  0  0  0  0  0
  195.2530  174.8850  139.0280 N   0  0  0  0  0  2  0  0  0  0  0  0
  193.2630  176.2270  138.4080 N   0  0  0  0  0  2  0  0  0  0  0  0
  194.3820  174.9100  136.8640 O   0  0  0  0  0  0  0  0  0  0  0  0
  196.3540  173.9920  138.6940 C   0  0  0  0  0  2  0  0  0  0  0  0
  195.8400  172.7260  138.0200 C   0  0  0  0  0  2  0  0  0  0  0  0
  197.1490  173.3770  135.7260 O   0  0  0  0  0  0  0  0  0  0  0  0
  198.4180  171.7240  137.2860 O   0  0  0  0  0  1  0  0  0  0  0  0
  196.9260  172.2060  136.6530 P   0  0  1  0  0  0  0  0  0  0  0  0
  196.1620  170.8140  135.7310 C   0  0  1  0  0  3  0  0  0  0  0  0
  193.8420  171.6050  136.4570 C   0  0  0  0  0  1  0  0  0  0  0  0
  194.9380  169.6430  137.4600 N   0  0  0  0  0  0  0  0  0  0  0  0
  196.7750  168.4450  138.5080 C   0  0  0  0  0  1  0  0  0  0  0  0
  197.1720  169.3340  135.9550 S   0  0  0  0  0  0  0  0  0  0  0  0
  194.7820  170.4260  136.2440 C   0  0  2  0  0  3  0  0  0  0  0  0
  196.0200  168.6940  137.2180 C   0  0  2  0  0  3  0  0  0  0  0  0
  193.8070  168.9120  137.6100 O   0  0  0  0  0  1  0  0  0  0  0  0
  191.3390  176.9270  141.5070 C   0  0  0  0  0  0  0  0  0  0  0  0
  190.8860  175.8150  141.8890 O   0  0  0  0  0  0  0  0  0  0  0  0
  191.5940  177.9240  142.4390 O   0  0  0  0  0  1  0  0  0  0  0  0
  188.5720  178.7950  141.1140 S   0  0  0  0  0  0  0  0  0  0  0  0
  184.0510  178.2740  141.9760 C   0  0  0  0  0  3  0  0  0  0  0  0
  186.3370  178.4370  142.7340 C   0  0  0  0  0  0  0  0  0  0  0  0
  186.8160  178.6030  141.4320 C   0  0  0  0  0  0  0  0  0  0  0  0
  187.0310  178.4020  144.0590 C   0  0  1  0  0  3  0  0  0  0  0  0
  184.5020  178.4170  140.6560 C   0  0  0  0  0  3  0  0  0  0  0  0
  185.8790  178.5790  140.3740 C   0  0  0  0  0  0  0  0  0  0  0  0
  184.7770  178.1740  144.3780 N   0  0  0  0  0  0  0  0  0  0  0  0
  185.8970  178.2340  144.9820 N   0  0  0  0  0  0  0  0  0  0  0  0
  185.0030  178.2960  142.9890 C   0  0  0  0  0  0  0  0  0  0  0  0
  187.9460  177.1870  144.1520 C   0  0  0  0  0  3  0  0  0  0  0  0
  188.4200  177.0040  145.5830 C   0  0  0  0  0  2  0  0  0  0  0  0
  189.3370  177.6360  144.5600 C   0  0  0  0  0  2  0  0  0  0  0  0
  186.3240  178.7350  139.0210 N   0  0  0  0  0  2  0  0  0  0  0  0
  185.4370  178.6590  137.9370 N   0  0  0  0  0  2  0  0  0  0  0  0
  186.1270  177.9520  136.8720 C   0  0  0  0  0  2  0  0  0  0  0  0
  187.3820  175.9500  134.9140 Cl  0  0  0  0  0  0  0  0  0  0  0  0
  185.1580  176.9920  136.2010 C   0  0  2  0  0  3  0  0  0  0  0  0
  184.0270  174.8830  136.1950 C   0  0  2  0  0  3  0  0  0  0  0  0
  184.6490  174.9710  134.4790 S   0  0  0  0  0  0  0  0  0  0  0  0
  184.8060  175.8220  137.0900 C   0  0  0  0  0  2  0  0  0  0  0  0
  185.6550  176.4360  134.8700 C   0  0  2  0  0  3  0  0  0  0  0  0
  184.7540  172.8330  137.7230 C   0  0  1  0  0  3  0  0  0  0  0  0
  184.5670  172.2320  136.3270 C   0  0  1  0  0  3  0  0  0  0  0  0
  186.2090  173.1160  137.3930 C   0  0  0  0  0  2  0  0  0  0  0  0
  183.7600  173.4580  136.7470 C   0  0  2  0  0  0  0  0  0  0  0  0
  186.0230  172.5280  136.0150 C   0  0  0  0  0  2  0  0  0  0  0  0
  182.2420  171.8040  136.9460 C   0  0  0  0  0  1  0  0  0  0  0  0
  182.4360  173.1810  137.1260 O   0  0  0  0  0  0  0  0  0  0  0  0
  2  1  1  6  0  0  0
  2  6  1  0  0  0  0
  2  4  1  0  0  0  0
  3  7  1  6  0  0  0
  3  2  1  0  0  0  0
  3 10  1  0  0  0  0
  5  6  1  0  0  0  0
  6 31  1  1  0  0  0
  7  5  1  0  0  0  0
  8 13  1  6  0  0  0
  8 10  1  0  0  0  0
  9  8  1  0  0  0  0
  9 10  1  0  0  0  0
 10 28  1  1  0  0  0
 11 13  1  0  0  0  0
 11 12  1  0  0  0  0
 14 11  2  0  0  0  0
 15 12  1  0  0  0  0
 16 15  1  0  0  0  0
 19 17  2  6  0  0  0
 19 18  1  0  0  0  0
 19 16  1  0  0  0  0
 20 24  1  0  0  0  0
 20 25  1  0  0  0  0
 20 19  1  1  0  0  0
 22 27  1  0  0  0  0
 24 26  1  0  0  0  0
 25 21  1  1  0  0  0
 25 22  1  0  0  0  0
 26 22  1  0  0  0  0
 26 23  1  1  0  0  0
 28 29  2  0  0  0  0
 28 30  1  0  0  0  0
 31 34  1  0  0  0  0
 32 40  1  0  0  0  0
 33 40  2  0  0  0  0
 33 35  1  0  0  0  0
 34 33  1  0  0  0  0
 35 41  1  6  0  0  0
 35 39  1  0  0  0  0
 36 32  2  0  0  0  0
 37 36  1  0  0  0  0
 37 34  2  0  0  0  0
 38 39  2  0  0  0  0
 40 38  1  0  0  0  0
 41 43  1  0  0  0  0
 41 42  1  0  0  0  0
 43 42  1  0  0  0  0
 44 37  1  0  0  0  0
 45 44  1  0  0  0  0
 46 45  1  0  0  0  0
 48 46  1  1  0  0  0
 48 51  1  0  0  0  0
 49 56  1  0  0  0  0
 49 51  1  1  0  0  0
 50 52  1  0  0  0  0
 50 49  1  0  0  0  0
 52 47  1  1  0  0  0
 52 48  1  0  0  0  0
 53 55  1  6  0  0  0
 54 57  1  6  0  0  0
 54 56  1  0  0  0  0
 54 53  1  0  0  0  0
 56 59  1  1  0  0  0
 56 53  1  0  0  0  0
 57 55  1  0  0  0  0
 58 59  1  0  0  0  0
M  END
>  <MODEL>
4

>  <REMARK>
 VINA RESULT:      -4.5      3.686      5.282
  Name = 
  16 active torsions:
  status: ('A' for Active; 'I' for Inactive)
    1  A    between atoms: C_1  and  C_15
    2  A    between atoms: C_1  and  P_32
    3  A    between atoms: S_3  and  C_27
    4  A    between atoms: S_3  and  C_54
    5  A    between atoms: C_4  and  N_39
    6  A    between atoms: C_5  and  C_53
    7  A    between atoms: C_10  and  P_32
    8  A    between atoms: N_11  and  N_23
    9  A    between atoms: N_11  and  C_25
   10  A    between atoms: C_13  and  C_25
   11  A    between atoms: C_15  and  N_36
   12  A    between atoms: O_16  and  C_40
   13  A    between atoms: C_19  and  C_28
   14  A    between atoms: C_20  and  C_40
   15  A    between atoms: N_23  and  C_31
   16  A    between atoms: C_43  and  C_53
                            x       y       z     vdW  Elec       q    Type
                         _______ _______ _______ _____ _____    ______ ____

>  <TORSDO>
F 16

$$$$
=
 OpenBabel10232409523D

 59 67  0  0  1  0  0  0  0  0999 V2000
  190.5090  174.4750  143.3470 C   0  0  0  0  0  1  0  0  0  0  0  0
  190.4240  175.9550  143.0110 C   0  0  2  0  0  0  0  0  0  0  0  0
  190.1890  176.1040  141.4990 C   0  0  1  0  0  3  0  0  0  0  0  0
  191.6000  176.5600  143.4620 O   0  0  0  0  0  1  0  0  0  0  0  0
  188.0540  176.4160  142.6670 C   0  0  0  0  0  2  0  0  0  0  0  0
  189.1820  176.5380  143.6830 C   0  0  2  0  0  3  0  0  0  0  0  0
  188.6750  175.9130  141.3720 C   0  0  0  0  0  2  0  0  0  0  0  0
  190.4960  177.5750  139.3200 C   0  0  1  0  0  3  0  0  0  0  0  0
  189.6520  178.4130  140.2710 C   0  0  0  0  0  2  0  0  0  0  0  0
  190.6800  177.4420  140.8360 C   0  0  1  0  0  0  0  0  0  0  0  0
  189.9650  175.9430  137.4700 C   0  0  0  0  0  0  0  0  0  0  0  0
  191.0350  176.4560  136.6720 N   0  0  0  0  0  2  0  0  0  0  0  0
  189.6860  176.5070  138.7510 N   0  0  0  0  0  2  0  0  0  0  0  0
  189.2640  174.9860  137.0540 O   0  0  0  0  0  0  0  0  0  0  0  0
  191.3290  175.9320  135.3450 C   0  0  0  0  0  2  0  0  0  0  0  0
  192.7750  175.4600  135.2560 C   0  0  0  0  0  2  0  0  0  0  0  0
  192.8210  173.8890  137.4770 O   0  0  0  0  0  1  0  0  0  0  0  0
  191.7900  172.7750  135.3610 O   0  0  0  0  0  0  0  0  0  0  0  0
  192.9850  173.8010  135.9780 P   0  0  1  0  0  0  0  0  0  0  0  0
  194.6470  173.1370  135.5680 C   0  0  1  0  0  3  0  0  0  0  0  0
  193.8690  170.7900  136.2190 C   0  0  0  0  0  1  0  0  0  0  0  0
  195.3460  172.1350  137.6580 N   0  0  0  0  0  0  0  0  0  0  0  0
  196.0200  174.1390  138.8560 C   0  0  0  0  0  1  0  0  0  0  0  0
  195.9040  174.3050  136.1310 S   0  0  0  0  0  0  0  0  0  0  0  0
  194.9770  171.8340  136.2830 C   0  0  2  0  0  3  0  0  0  0  0  0
  196.2310  173.2940  137.6160 C   0  0  2  0  0  3  0  0  0  0  0  0
  196.0890  171.0950  138.1070 O   0  0  0  0  0  1  0  0  0  0  0  0
  192.0000  178.0380  141.2200 C   0  0  0  0  0  0  0  0  0  0  0  0
  192.0780  178.8420  142.1870 O   0  0  0  0  0  1  0  0  0  0  0  0
  193.1500  177.6700  140.5340 O   0  0  0  0  0  0  0  0  0  0  0  0
  189.3930  178.2980  144.1300 S   0  0  0  0  0  0  0  0  0  0  0  0
  185.7590  178.2600  147.0030 C   0  0  0  0  0  3  0  0  0  0  0  0
  188.1370  178.1240  146.6090 C   0  0  0  0  0  0  0  0  0  0  0  0
  187.9750  178.2940  145.2310 C   0  0  0  0  0  0  0  0  0  0  0  0
  189.3550  177.9470  147.4590 C   0  0  1  0  0  3  0  0  0  0  0  0
  185.5620  178.4120  145.6230 C   0  0  0  0  0  3  0  0  0  0  0  0
  186.6600  178.4270  144.7310 C   0  0  0  0  0  0  0  0  0  0  0  0
  187.4970  177.9660  148.7920 N   0  0  0  0  0  0  0  0  0  0  0  0
  188.7670  177.8680  148.8060 N   0  0  0  0  0  0  0  0  0  0  0  0
  187.0670  178.1260  147.4570 C   0  0  0  0  0  0  0  0  0  0  0  0
  190.0510  176.6320  147.1310 C   0  0  0  0  0  3  0  0  0  0  0  0
  191.3710  176.5440  147.8770 C   0  0  0  0  0  2  0  0  0  0  0  0
  191.3560  176.9210  146.4120 C   0  0  0  0  0  2  0  0  0  0  0  0
  186.4430  178.5940  143.3250 N   0  0  0  0  0  2  0  0  0  0  0  0
  185.1590  178.7740  142.7900 N   0  0  0  0  0  2  0  0  0  0  0  0
  185.3260  179.3560  141.4700 C   0  0  0  0  0  2  0  0  0  0  0  0
  183.3050  180.3300  139.3760 Cl  0  0  0  0  0  0  0  0  0  0  0  0
  184.9220  178.3340  140.4190 C   0  0  2  0  0  3  0  0  0  0  0  0
  185.2790  177.3450  138.2700 C   0  0  2  0  0  3  0  0  0  0  0  0
  183.4730  177.6250  138.2490 S   0  0  0  0  0  0  0  0  0  0  0  0
  185.9400  178.2240  139.3090 C   0  0  0  0  0  2  0  0  0  0  0  0
  183.5610  178.6020  139.7820 C   0  0  2  0  0  3  0  0  0  0  0  0
  185.1980  176.7050  135.6910 C   0  0  1  0  0  3  0  0  0  0  0  0
  186.4160  175.9580  136.2410 C   0  0  1  0  0  3  0  0  0  0  0  0
  184.3260  175.5070  136.0260 C   0  0  0  0  0  2  0  0  0  0  0  0
  185.9690  177.2690  136.8830 C   0  0  2  0  0  0  0  0  0  0  0  0
  185.5280  174.7720  136.5720 C   0  0  0  0  0  2  0  0  0  0  0  0
  187.3970  178.0480  135.3230 C   0  0  0  0  0  1  0  0  0  0  0  0
  186.7300  178.3880  136.5090 O   0  0  0  0  0  0  0  0  0  0  0  0
  2  1  1  1  0  0  0
  2  4  1  0  0  0  0
  2  6  1  0  0  0  0
  3  7  1  1  0  0  0
  3  2  1  0  0  0  0
  5  6  1  0  0  0  0
  6 31  1  6  0  0  0
  7  5  1  0  0  0  0
  8 13  1  1  0  0  0
  8  9  1  0  0  0  0
  8 10  1  0  0  0  0
  9 10  1  0  0  0  0
 10 28  1  1  0  0  0
 10  3  1  0  0  0  0
 11 13  1  0  0  0  0
 12 11  1  0  0  0  0
 14 11  2  0  0  0  0
 15 12  1  0  0  0  0
 16 15  1  0  0  0  0
 16 19  1  0  0  0  0
 19 18  2  6  0  0  0
 19 17  1  0  0  0  0
 20 19  1  1  0  0  0
 20 24  1  0  0  0  0
 20 25  1  0  0  0  0
 22 27  1  0  0  0  0
 24 26  1  0  0  0  0
 25 21  1  1  0  0  0
 25 22  1  0  0  0  0
 26 22  1  0  0  0  0
 26 23  1  1  0  0  0
 28 29  1  0  0  0  0
 30 28  2  0  0  0  0
 31 34  1  0  0  0  0
 32 40  1  0  0  0  0
 33 40  2  0  0  0  0
 33 35  1  0  0  0  0
 34 33  1  0  0  0  0
 35 41  1  6  0  0  0
 35 39  1  0  0  0  0
 36 32  2  0  0  0  0
 37 34  2  0  0  0  0
 37 36  1  0  0  0  0
 38 39  2  0  0  0  0
 40 38  1  0  0  0  0
 41 42  1  0  0  0  0
 43 41  1  0  0  0  0
 43 42  1  0  0  0  0
 44 37  1  0  0  0  0
 45 44  1  0  0  0  0
 46 45  1  0  0  0  0
 48 46  1  1  0  0  0
 49 51  1  1  0  0  0
 50 49  1  0  0  0  0
 50 52  1  0  0  0  0
 51 48  1  0  0  0  0
 52 47  1  6  0  0  0
 52 48  1  0  0  0  0
 53 55  1  1  0  0  0
 53 54  1  0  0  0  0
 53 56  1  0  0  0  0
 54 57  1  1  0  0  0
 54 56  1  0  0  0  0
 55 57  1  0  0  0  0
 56 59  1  6  0  0  0
 56 49  1  0  0  0  0
 58 59  1  0  0  0  0
M  END
>  <MODEL>
5

>  <REMARK>
 VINA RESULT:      -4.2      2.085      2.795
  Name = 
  16 active torsions:
  status: ('A' for Active; 'I' for Inactive)
    1  A    between atoms: C_1  and  C_15
    2  A    between atoms: C_1  and  P_32
    3  A    between atoms: S_3  and  C_27
    4  A    between atoms: S_3  and  C_54
    5  A    between atoms: C_4  and  N_39
    6  A    between atoms: C_5  and  C_53
    7  A    between atoms: C_10  and  P_32
    8  A    between atoms: N_11  and  N_23
    9  A    between atoms: N_11  and  C_25
   10  A    between atoms: C_13  and  C_25
   11  A    between atoms: C_15  and  N_36
   12  A    between atoms: O_16  and  C_40
   13  A    between atoms: C_19  and  C_28
   14  A    between atoms: C_20  and  C_40
   15  A    between atoms: N_23  and  C_31
   16  A    between atoms: C_43  and  C_53
                            x       y       z     vdW  Elec       q    Type
                         _______ _______ _______ _____ _____    ______ ____

>  <TORSDO>
F 16

$$$$
=
 OpenBabel10232409523D

 59 67  0  0  1  0  0  0  0  0999 V2000
  187.5870  176.1000  145.5290 C   0  0  0  0  0  1  0  0  0  0  0  0
  188.2230  177.1800  144.6690 C   0  0  2  0  0  0  0  0  0  0  0  0
  189.5780  176.6680  144.1560 C   0  0  1  0  0  3  0  0  0  0  0  0
  188.3140  178.3400  145.4420 O   0  0  0  0  0  1  0  0  0  0  0  0
  187.9190  176.4460  142.3620 C   0  0  0  0  0  2  0  0  0  0  0  0
  187.3600  177.3840  143.4240 C   0  0  2  0  0  3  0  0  0  0  0  0
  189.1840  175.8270  142.9380 C   0  0  0  0  0  2  0  0  0  0  0  0
  191.1900  177.7690  142.3680 C   0  0  1  0  0  3  0  0  0  0  0  0
  190.2900  178.8930  142.8630 C   0  0  0  0  0  2  0  0  0  0  0  0
  190.6580  177.7550  143.8060 C   0  0  1  0  0  0  0  0  0  0  0  0
  190.8900  176.5910  140.1570 C   0  0  0  0  0  0  0  0  0  0  0  0
  192.0810  177.1920  139.6430 N   0  0  0  0  0  2  0  0  0  0  0  0
  190.4420  176.8930  141.4770 N   0  0  0  0  0  2  0  0  0  0  0  0
  190.2300  175.7840  139.4530 O   0  0  0  0  0  0  0  0  0  0  0  0
  192.5530  176.9360  138.2880 C   0  0  0  0  0  2  0  0  0  0  0  0
  193.0560  175.5050  138.1500 C   0  0  0  0  0  2  0  0  0  0  0  0
  193.5550  174.3860  135.7220 O   0  0  0  0  0  0  0  0  0  0  0  0
  194.3940  176.8350  135.9970 O   0  0  0  0  0  1  0  0  0  0  0  0
  194.1790  175.3250  136.7270 P   0  0  1  0  0  0  0  0  0  0  0  0
  195.8010  174.6630  137.2790 C   0  0  1  0  0  3  0  0  0  0  0  0
  196.7140  174.9220  134.9040 C   0  0  0  0  0  1  0  0  0  0  0  0
  196.0990  172.7330  135.8480 N   0  0  0  0  0  0  0  0  0  0  0  0
  194.6380  171.1620  136.9880 C   0  0  0  0  0  1  0  0  0  0  0  0
  195.5220  173.3050  138.4350 S   0  0  0  0  0  0  0  0  0  0  0  0
  196.6260  174.0540  136.1530 C   0  0  2  0  0  3  0  0  0  0  0  0
  195.8400  172.0750  137.1240 C   0  0  2  0  0  3  0  0  0  0  0  0
  197.0940  172.0370  135.2460 O   0  0  0  0  0  1  0  0  0  0  0  0
  191.7930  178.0270  144.7460 C   0  0  0  0  0  0  0  0  0  0  0  0
  192.6240  178.9390  144.4930 O   0  0  0  0  0  0  0  0  0  0  0  0
  191.9050  177.2990  145.9230 O   0  0  0  0  0  1  0  0  0  0  0  0
  187.4300  179.1010  142.8000 S   0  0  0  0  0  0  0  0  0  0  0  0
  183.3220  178.7550  140.6890 C   0  0  0  0  0  3  0  0  0  0  0  0
  184.6510  179.1650  142.6620 C   0  0  0  0  0  0  0  0  0  0  0  0
  185.8470  178.9720  141.9650 C   0  0  0  0  0  0  0  0  0  0  0  0
  184.3700  179.5120  144.0900 C   0  0  1  0  0  3  0  0  0  0  0  0
  184.5030  178.5340  139.9660 C   0  0  0  0  0  3  0  0  0  0  0  0
  185.7670  178.6370  140.5940 C   0  0  0  0  0  0  0  0  0  0  0  0
  182.3950  179.3400  142.9490 N   0  0  0  0  0  0  0  0  0  0  0  0
  182.8990  179.5860  144.0920 N   0  0  0  0  0  0  0  0  0  0  0  0
  183.4400  179.0760  142.0370 C   0  0  0  0  0  0  0  0  0  0  0  0
  184.8230  178.3880  145.0130 C   0  0  0  0  0  3  0  0  0  0  0  0
  184.0170  178.4190  146.3010 C   0  0  0  0  0  2  0  0  0  0  0  0
  185.4190  178.9840  146.2750 C   0  0  0  0  0  2  0  0  0  0  0  0
  186.9660  178.4200  139.8410 N   0  0  0  0  0  2  0  0  0  0  0  0
  187.0230  178.6510  138.4580 N   0  0  0  0  0  2  0  0  0  0  0  0
  185.7760  178.1660  137.8940 C   0  0  0  0  0  2  0  0  0  0  0  0
  186.7470  178.6090  135.0170 Cl  0  0  0  0  0  0  0  0  0  0  0  0
  186.0500  176.9050  137.0900 C   0  0  2  0  0  3  0  0  0  0  0  0
  187.5880  175.2190  136.3710 C   0  0  2  0  0  3  0  0  0  0  0  0
  186.7880  175.6820  134.7940 S   0  0  0  0  0  0  0  0  0  0  0  0
  187.4050  176.3130  137.4010 C   0  0  0  0  0  2  0  0  0  0  0  0
  185.9590  177.0980  135.5790 C   0  0  2  0  0  3  0  0  0  0  0  0
  189.2190  173.3600  135.3950 C   0  0  1  0  0  3  0  0  0  0  0  0
  189.4030  173.2830  136.9130 C   0  0  1  0  0  3  0  0  0  0  0  0
  188.0970  172.3410  135.4910 C   0  0  0  0  0  2  0  0  0  0  0  0
  189.0070  174.6030  136.2560 C   0  0  2  0  0  0  0  0  0  0  0  0
  188.2770  172.2680  136.9890 C   0  0  0  0  0  2  0  0  0  0  0  0
  190.3160  175.6090  134.7220 C   0  0  0  0  0  1  0  0  0  0  0  0
  190.0650  175.5140  136.0980 O   0  0  0  0  0  0  0  0  0  0  0  0
  2  4  1  0  0  0  0
  2  1  1  1  0  0  0
  3  7  1  6  0  0  0
  3  2  1  0  0  0  0
  5  7  1  0  0  0  0
  5  6  1  0  0  0  0
  6 31  1  6  0  0  0
  6  2  1  0  0  0  0
  8 13  1  6  0  0  0
  8  9  1  0  0  0  0
  8 10  1  0  0  0  0
  9 10  1  0  0  0  0
 10  3  1  0  0  0  0
 10 28  1  1  0  0  0
 11 13  1  0  0  0  0
 12 11  1  0  0  0  0
 14 11  2  0  0  0  0
 15 12  1  0  0  0  0
 16 15  1  0  0  0  0
 18 19  1  0  0  0  0
 19 17  2  6  0  0  0
 19 16  1  0  0  0  0
 20 19  1  6  0  0  0
 20 24  1  0  0  0  0
 22 25  1  0  0  0  0
 22 26  1  0  0  0  0
 25 21  1  6  0  0  0
 25 20  1  0  0  0  0
 26 23  1  6  0  0  0
 26 24  1  0  0  0  0
 27 22  1  0  0  0  0
 28 30  1  0  0  0  0
 29 28  2  0  0  0  0
 32 40  1  0  0  0  0
 33 35  1  0  0  0  0
 34 33  1  0  0  0  0
 34 31  1  0  0  0  0
 35 39  1  0  0  0  0
 35 41  1  1  0  0  0
 36 37  1  0  0  0  0
 36 32  2  0  0  0  0
 37 34  2  0  0  0  0
 38 39  2  0  0  0  0
 40 33  2  0  0  0  0
 40 38  1  0  0  0  0
 41 43  1  0  0  0  0
 41 42  1  0  0  0  0
 43 42  1  0  0  0  0
 44 37  1  0  0  0  0
 45 44  1  0  0  0  0
 46 45  1  0  0  0  0
 48 51  1  0  0  0  0
 48 46  1  1  0  0  0
 49 51  1  1  0  0  0
 50 52  1  0  0  0  0
 50 49  1  0  0  0  0
 52 47  1  1  0  0  0
 52 48  1  0  0  0  0
 53 55  1  1  0  0  0
 53 56  1  0  0  0  0
 53 54  1  0  0  0  0
 54 57  1  1  0  0  0
 55 57  1  0  0  0  0
 56 59  1  6  0  0  0
 56 49  1  0  0  0  0
 56 54  1  0  0  0  0
 58 59  1  0  0  0  0
M  END
>  <MODEL>
6

>  <REMARK>
 VINA RESULT:      -4.2      3.381      5.684
  Name = 
  16 active torsions:
  status: ('A' for Active; 'I' for Inactive)
    1  A    between atoms: C_1  and  C_15
    2  A    between atoms: C_1  and  P_32
    3  A    between atoms: S_3  and  C_27
    4  A    between atoms: S_3  and  C_54
    5  A    between atoms: C_4  and  N_39
    6  A    between atoms: C_5  and  C_53
    7  A    between atoms: C_10  and  P_32
    8  A    between atoms: N_11  and  N_23
    9  A    between atoms: N_11  and  C_25
   10  A    between atoms: C_13  and  C_25
   11  A    between atoms: C_15  and  N_36
   12  A    between atoms: O_16  and  C_40
   13  A    between atoms: C_19  and  C_28
   14  A    between atoms: C_20  and  C_40
   15  A    between atoms: N_23  and  C_31
   16  A    between atoms: C_43  and  C_53
                            x       y       z     vdW  Elec       q    Type
                         _______ _______ _______ _____ _____    ______ ____

>  <TORSDO>
F 16

$$$$
=
 OpenBabel10232409523D

 59 67  0  0  1  0  0  0  0  0999 V2000
  188.1580  174.8000  142.8900 C   0  0  0  0  0  1  0  0  0  0  0  0
  188.7040  176.2180  142.9300 C   0  0  2  0  0  0  0  0  0  0  0  0
  189.9140  176.3080  141.9860 C   0  0  1  0  0  3  0  0  0  0  0  0
  189.0030  176.5200  144.2610 O   0  0  0  0  0  1  0  0  0  0  0  0
  187.9580  177.2680  140.8580 C   0  0  0  0  0  2  0  0  0  0  0  0
  187.6530  177.1620  142.3470 C   0  0  2  0  0  3  0  0  0  0  0  0
  189.2600  176.5180  140.6170 C   0  0  0  0  0  2  0  0  0  0  0  0
  191.9190  177.8310  141.1720 C   0  0  1  0  0  3  0  0  0  0  0  0
  190.8500  178.7890  141.6810 C   0  0  0  0  0  2  0  0  0  0  0  0
  190.9850  177.4100  142.3120 C   0  0  1  0  0  0  0  0  0  0  0  0
  192.4540  176.6660  138.9990 C   0  0  0  0  0  0  0  0  0  0  0  0
  193.8420  176.6070  139.3400 N   0  0  0  0  0  2  0  0  0  0  0  0
  191.5210  177.2870  139.8820 N   0  0  0  0  0  2  0  0  0  0  0  0
  192.0430  176.1640  137.9220 O   0  0  0  0  0  0  0  0  0  0  0  0
  194.8310  176.0140  138.4510 C   0  0  0  0  0  2  0  0  0  0  0  0
  195.3910  174.7270  139.0430 C   0  0  0  0  0  2  0  0  0  0  0  0
  195.0060  172.0410  138.8470 O   0  0  0  0  0  1  0  0  0  0  0  0
  193.4790  173.4860  137.3120 O   0  0  0  0  0  0  0  0  0  0  0  0
  195.0140  173.2870  137.9930 P   0  0  1  0  0  0  0  0  0  0  0  0
  196.2700  173.1250  136.6630 C   0  0  1  0  0  3  0  0  0  0  0  0
  197.9920  174.2950  138.1470 C   0  0  0  0  0  1  0  0  0  0  0  0
  196.9020  175.4260  136.2510 N   0  0  0  0  0  0  0  0  0  0  0  0
  195.0050  176.1260  134.9040 C   0  0  0  0  0  1  0  0  0  0  0  0
  195.4830  173.4410  135.0680 S   0  0  0  0  0  0  0  0  0  0  0  0
  197.3910  174.1510  136.7550 C   0  0  2  0  0  3  0  0  0  0  0  0
  196.1490  175.1410  135.0350 C   0  0  2  0  0  3  0  0  0  0  0  0
  197.9860  176.1480  135.8770 O   0  0  0  0  0  1  0  0  0  0  0  0
  191.7710  177.3500  143.5870 C   0  0  0  0  0  0  0  0  0  0  0  0
  192.1590  176.2410  144.0430 O   0  0  0  0  0  0  0  0  0  0  0  0
  192.1110  178.5230  144.2460 O   0  0  0  0  0  1  0  0  0  0  0  0
  187.7260  178.8310  143.0890 S   0  0  0  0  0  0  0  0  0  0  0  0
  183.2440  178.7940  144.2560 C   0  0  0  0  0  3  0  0  0  0  0  0
  185.5810  178.7890  144.8620 C   0  0  0  0  0  0  0  0  0  0  0  0
  185.9850  178.8260  143.5250 C   0  0  0  0  0  0  0  0  0  0  0  0
  186.3550  178.7720  146.1410 C   0  0  1  0  0  3  0  0  0  0  0  0
  183.6170  178.8100  142.9040 C   0  0  0  0  0  3  0  0  0  0  0  0
  184.9820  178.8230  142.5290 C   0  0  0  0  0  0  0  0  0  0  0  0
  184.1160  178.7790  146.6100 N   0  0  0  0  0  0  0  0  0  0  0  0
  185.2740  178.7710  147.1410 N   0  0  0  0  0  0  0  0  0  0  0  0
  184.2590  178.7910  145.2060 C   0  0  0  0  0  0  0  0  0  0  0  0
  187.1610  177.4850  146.2630 C   0  0  0  0  0  3  0  0  0  0  0  0
  187.7210  177.3550  147.6690 C   0  0  0  0  0  2  0  0  0  0  0  0
  188.6130  177.8260  146.5430 C   0  0  0  0  0  2  0  0  0  0  0  0
  185.3480  178.8510  141.1450 N   0  0  0  0  0  2  0  0  0  0  0  0
  184.7680  179.7560  140.2430 N   0  0  0  0  0  2  0  0  0  0  0  0
  183.8630  178.9950  139.4000 C   0  0  0  0  0  2  0  0  0  0  0  0
  182.7490  177.8820  136.7670 Cl  0  0  0  0  0  0  0  0  0  0  0  0
  184.6040  177.7980  138.8250 C   0  0  2  0  0  3  0  0  0  0  0  0
  186.3180  176.9350  137.3960 C   0  0  2  0  0  3  0  0  0  0  0  0
  184.8940  175.8860  136.9360 S   0  0  0  0  0  0  0  0  0  0  0  0
  185.8450  178.2070  138.0670 C   0  0  0  0  0  2  0  0  0  0  0  0
  183.7570  176.9270  137.9020 C   0  0  2  0  0  3  0  0  0  0  0  0
  187.7850  175.8910  135.4400 C   0  0  1  0  0  3  0  0  0  0  0  0
  188.8040  176.4460  136.4390 C   0  0  1  0  0  3  0  0  0  0  0  0
  187.8030  174.5630  136.1770 C   0  0  0  0  0  2  0  0  0  0  0  0
  187.4240  177.0870  136.3190 C   0  0  2  0  0  0  0  0  0  0  0  0
  188.8050  175.1120  137.1640 C   0  0  0  0  0  2  0  0  0  0  0  0
  186.7410  177.9820  134.3660 C   0  0  0  0  0  1  0  0  0  0  0  0
  187.3980  178.2750  135.5700 O   0  0  0  0  0  0  0  0  0  0  0  0
  2  1  1  6  0  0  0
  2  4  1  0  0  0  0
  3  7  1  6  0  0  0
  3 10  1  0  0  0  0
  3  2  1  0  0  0  0
  5  6  1  0  0  0  0
  6  2  1  0  0  0  0
  6 31  1  1  0  0  0
  7  5  1  0  0  0  0
  8 13  1  6  0  0  0
  8  9  1  0  0  0  0
  8 10  1  0  0  0  0
  9 10  1  0  0  0  0
 10 28  1  1  0  0  0
 11 12  1  0  0  0  0
 11 13  1  0  0  0  0
 14 11  2  0  0  0  0
 15 16  1  0  0  0  0
 15 12  1  0  0  0  0
 19 18  2  6  0  0  0
 19 17  1  0  0  0  0
 19 16  1  0  0  0  0
 20 25  1  0  0  0  0
 20 19  1  1  0  0  0
 22 25  1  0  0  0  0
 24 20  1  0  0  0  0
 25 21  1  1  0  0  0
 26 23  1  1  0  0  0
 26 24  1  0  0  0  0
 26 22  1  0  0  0  0
 27 22  1  0  0  0  0
 28 29  2  0  0  0  0
 28 30  1  0  0  0  0
 31 34  1  0  0  0  0
 32 40  1  0  0  0  0
 33 40  2  0  0  0  0
 33 35  1  0  0  0  0
 34 33  1  0  0  0  0
 35 41  1  6  0  0  0
 35 39  1  0  0  0  0
 36 32  2  0  0  0  0
 37 36  1  0  0  0  0
 37 34  2  0  0  0  0
 38 39  2  0  0  0  0
 40 38  1  0  0  0  0
 41 43  1  0  0  0  0
 41 42  1  0  0  0  0
 43 42  1  0  0  0  0
 44 37  1  0  0  0  0
 45 44  1  0  0  0  0
 46 45  1  0  0  0  0
 48 46  1  6  0  0  0
 49 51  1  6  0  0  0
 50 49  1  0  0  0  0
 50 52  1  0  0  0  0
 51 48  1  0  0  0  0
 52 47  1  6  0  0  0
 52 48  1  0  0  0  0
 53 55  1  1  0  0  0
 53 56  1  0  0  0  0
 53 54  1  0  0  0  0
 54 57  1  1  0  0  0
 55 57  1  0  0  0  0
 56 59  1  6  0  0  0
 56 54  1  0  0  0  0
 56 49  1  0  0  0  0
 58 59  1  0  0  0  0
M  END
>  <MODEL>
7

>  <REMARK>
 VINA RESULT:      -4.1      2.726      4.231
  Name = 
  16 active torsions:
  status: ('A' for Active; 'I' for Inactive)
    1  A    between atoms: C_1  and  C_15
    2  A    between atoms: C_1  and  P_32
    3  A    between atoms: S_3  and  C_27
    4  A    between atoms: S_3  and  C_54
    5  A    between atoms: C_4  and  N_39
    6  A    between atoms: C_5  and  C_53
    7  A    between atoms: C_10  and  P_32
    8  A    between atoms: N_11  and  N_23
    9  A    between atoms: N_11  and  C_25
   10  A    between atoms: C_13  and  C_25
   11  A    between atoms: C_15  and  N_36
   12  A    between atoms: O_16  and  C_40
   13  A    between atoms: C_19  and  C_28
   14  A    between atoms: C_20  and  C_40
   15  A    between atoms: N_23  and  C_31
   16  A    between atoms: C_43  and  C_53
                            x       y       z     vdW  Elec       q    Type
                         _______ _______ _______ _____ _____    ______ ____

>  <TORSDO>
F 16

$$$$
=
 OpenBabel10232409523D

 59 67  0  0  1  0  0  0  0  0999 V2000
  190.8180  174.9750  144.2000 C   0  0  0  0  0  1  0  0  0  0  0  0
  190.5570  176.2970  143.4960 C   0  0  2  0  0  0  0  0  0  0  0  0
  190.5750  176.0580  141.9770 C   0  0  1  0  0  3  0  0  0  0  0  0
  191.5200  177.2090  143.9350 O   0  0  0  0  0  1  0  0  0  0  0  0
  188.2440  176.1870  142.7300 C   0  0  0  0  0  2  0  0  0  0  0  0
  189.1370  176.7540  143.8260 C   0  0  2  0  0  3  0  0  0  0  0  0
  189.1590  175.5450  141.6990 C   0  0  0  0  0  2  0  0  0  0  0  0
  190.9430  177.0630  139.5560 C   0  0  1  0  0  3  0  0  0  0  0  0
  189.8800  177.9350  140.2110 C   0  0  0  0  0  2  0  0  0  0  0  0
  190.9540  177.2860  141.0730 C   0  0  1  0  0  0  0  0  0  0  0  0
  190.5960  175.1950  137.8960 C   0  0  0  0  0  0  0  0  0  0  0  0
  191.3730  175.8860  136.9140 N   0  0  0  0  0  2  0  0  0  0  0  0
  190.3650  175.7810  139.1760 N   0  0  0  0  0  2  0  0  0  0  0  0
  190.1160  174.0600  137.6430 O   0  0  0  0  0  0  0  0  0  0  0  0
  191.6020  175.3370  135.5840 C   0  0  0  0  0  2  0  0  0  0  0  0
  192.8960  175.8770  134.9900 C   0  0  0  0  0  2  0  0  0  0  0  0
  194.7950  174.0370  134.3490 O   0  0  0  0  0  0  0  0  0  0  0  0
  195.5930  175.9320  135.9480 O   0  0  0  0  0  1  0  0  0  0  0  0
  194.3350  174.8890  135.5090 P   0  0  1  0  0  0  0  0  0  0  0  0
  193.8890  173.8180  136.9330 C   0  0  1  0  0  3  0  0  0  0  0  0
  194.2580  175.7840  138.5260 C   0  0  0  0  0  1  0  0  0  0  0  0
  195.8690  173.9340  138.3220 N   0  0  0  0  0  0  0  0  0  0  0  0
  197.2970  172.3850  137.1110 C   0  0  0  0  0  1  0  0  0  0  0  0
  194.6050  172.1790  136.6860 S   0  0  0  0  0  0  0  0  0  0  0  0
  194.4620  174.2980  138.2600 C   0  0  2  0  0  3  0  0  0  0  0  0
  195.9750  172.5650  137.8300 C   0  0  2  0  0  3  0  0  0  0  0  0
  196.2150  173.9050  139.6310 O   0  0  0  0  0  1  0  0  0  0  0  0
  192.1220  178.1570  141.4270 C   0  0  0  0  0  0  0  0  0  0  0  0
  193.2120  178.0400  140.8080 O   0  0  0  0  0  0  0  0  0  0  0  0
  191.9870  179.1260  142.4110 O   0  0  0  0  0  1  0  0  0  0  0  0
  188.9770  178.5750  143.8430 S   0  0  0  0  0  0  0  0  0  0  0  0
  184.3640  178.4090  144.2230 C   0  0  0  0  0  3  0  0  0  0  0  0
  186.5610  178.4720  145.2210 C   0  0  0  0  0  0  0  0  0  0  0  0
  187.1880  178.5190  143.9730 C   0  0  0  0  0  0  0  0  0  0  0  0
  187.1040  178.4790  146.6150 C   0  0  1  0  0  3  0  0  0  0  0  0
  184.9640  178.4340  142.9550 C   0  0  0  0  0  3  0  0  0  0  0  0
  186.3710  178.4870  142.8200 C   0  0  0  0  0  0  0  0  0  0  0  0
  184.8190  178.4200  146.6920 N   0  0  0  0  0  0  0  0  0  0  0  0
  185.8680  178.4470  147.4140 N   0  0  0  0  0  0  0  0  0  0  0  0
  185.2000  178.4350  145.3330 C   0  0  0  0  0  0  0  0  0  0  0  0
  187.9130  177.2150  146.8810 C   0  0  0  0  0  3  0  0  0  0  0  0
  188.2650  177.1260  148.3550 C   0  0  0  0  0  2  0  0  0  0  0  0
  189.3010  177.6000  147.3610 C   0  0  0  0  0  2  0  0  0  0  0  0
  186.9690  178.5240  141.5190 N   0  0  0  0  0  2  0  0  0  0  0  0
  186.2180  178.8030  140.3670 N   0  0  0  0  0  2  0  0  0  0  0  0
  186.8560  178.1050  139.2650 C   0  0  0  0  0  2  0  0  0  0  0  0
  187.0820  175.6760  137.4030 Cl  0  0  0  0  0  0  0  0  0  0  0  0
  185.9210  178.1050  138.0660 C   0  0  2  0  0  3  0  0  0  0  0  0
  183.8200  177.4920  137.0990 C   0  0  2  0  0  3  0  0  0  0  0  0
  184.9910  176.9660  135.7970 S   0  0  0  0  0  0  0  0  0  0  0  0
  184.5320  177.6330  138.4270 C   0  0  0  0  0  2  0  0  0  0  0  0
  186.4130  177.2600  136.8930 C   0  0  2  0  0  3  0  0  0  0  0  0
  181.3060  177.2880  136.2580 C   0  0  1  0  0  3  0  0  0  0  0  0
  181.2050  177.3310  137.7850 C   0  0  1  0  0  3  0  0  0  0  0  0
  181.2080  178.8040  136.2200 C   0  0  0  0  0  2  0  0  0  0  0  0
  182.4530  176.7590  137.1170 C   0  0  2  0  0  0  0  0  0  0  0  0
  181.1120  178.8450  137.7270 C   0  0  0  0  0  2  0  0  0  0  0  0
  181.3140  174.8940  137.6650 C   0  0  0  0  0  1  0  0  0  0  0  0
  182.5030  175.3560  137.0840 O   0  0  0  0  0  0  0  0  0  0  0  0
  2  6  1  0  0  0  0
  2  4  1  0  0  0  0
  2  1  1  1  0  0  0
  3  7  1  6  0  0  0
  3  2  1  0  0  0  0
  5  6  1  0  0  0  0
  6 31  1  6  0  0  0
  7  5  1  0  0  0  0
  8 13  1  1  0  0  0
  8  9  1  0  0  0  0
  8 10  1  0  0  0  0
  9 10  1  0  0  0  0
 10 28  1  1  0  0  0
 10  3  1  0  0  0  0
 11 13  1  0  0  0  0
 12 11  1  0  0  0  0
 14 11  2  0  0  0  0
 15 12  1  0  0  0  0
 16 19  1  0  0  0  0
 16 15  1  0  0  0  0
 19 17  2  6  0  0  0
 19 18  1  0  0  0  0
 20 19  1  6  0  0  0
 20 25  1  0  0  0  0
 22 27  1  0  0  0  0
 24 20  1  0  0  0  0
 24 26  1  0  0  0  0
 25 22  1  0  0  0  0
 25 21  1  6  0  0  0
 26 23  1  6  0  0  0
 26 22  1  0  0  0  0
 28 30  1  0  0  0  0
 29 28  2  0  0  0  0
 31 34  1  0  0  0  0
 32 40  1  0  0  0  0
 33 40  2  0  0  0  0
 33 35  1  0  0  0  0
 34 33  1  0  0  0  0
 35 41  1  6  0  0  0
 35 39  1  0  0  0  0
 36 32  2  0  0  0  0
 37 36  1  0  0  0  0
 37 34  2  0  0  0  0
 38 39  2  0  0  0  0
 40 38  1  0  0  0  0
 41 43  1  0  0  0  0
 41 42  1  0  0  0  0
 43 42  1  0  0  0  0
 44 37  1  0  0  0  0
 45 44  1  0  0  0  0
 46 45  1  0  0  0  0
 48 51  1  0  0  0  0
 48 46  1  1  0  0  0
 49 56  1  0  0  0  0
 49 51  1  1  0  0  0
 50 52  1  0  0  0  0
 50 49  1  0  0  0  0
 52 47  1  1  0  0  0
 52 48  1  0  0  0  0
 53 55  1  1  0  0  0
 53 56  1  0  0  0  0
 53 54  1  0  0  0  0
 54 57  1  1  0  0  0
 55 57  1  0  0  0  0
 56 59  1  1  0  0  0
 56 54  1  0  0  0  0
 59 58  1  0  0  0  0
M  END
>  <MODEL>
8

>  <REMARK>
 VINA RESULT:      -4.1      2.279      2.841
  Name = 
  16 active torsions:
  status: ('A' for Active; 'I' for Inactive)
    1  A    between atoms: C_1  and  C_15
    2  A    between atoms: C_1  and  P_32
    3  A    between atoms: S_3  and  C_27
    4  A    between atoms: S_3  and  C_54
    5  A    between atoms: C_4  and  N_39
    6  A    between atoms: C_5  and  C_53
    7  A    between atoms: C_10  and  P_32
    8  A    between atoms: N_11  and  N_23
    9  A    between atoms: N_11  and  C_25
   10  A    between atoms: C_13  and  C_25
   11  A    between atoms: C_15  and  N_36
   12  A    between atoms: O_16  and  C_40
   13  A    between atoms: C_19  and  C_28
   14  A    between atoms: C_20  and  C_40
   15  A    between atoms: N_23  and  C_31
   16  A    between atoms: C_43  and  C_53
                            x       y       z     vdW  Elec       q    Type
                         _______ _______ _______ _____ _____    ______ ____

>  <TORSDO>
F 16

$$$$
=
 OpenBabel10232409523D

 59 67  0  0  1  0  0  0  0  0999 V2000
  186.7120  175.4130  144.1230 C   0  0  0  0  0  1  0  0  0  0  0  0
  187.2520  176.7360  143.6060 C   0  0  2  0  0  0  0  0  0  0  0  0
  186.0700  177.6050  143.1460 C   0  0  1  0  0  3  0  0  0  0  0  0
  188.1720  176.4520  142.5940 O   0  0  0  0  0  1  0  0  0  0  0  0
  186.7930  178.3640  145.3640 C   0  0  0  0  0  2  0  0  0  0  0  0
  187.8910  177.4910  144.7710 C   0  0  2  0  0  3  0  0  0  0  0  0
  185.5810  178.2310  144.4550 C   0  0  0  0  0  2  0  0  0  0  0  0
  185.1890  179.1650  141.1980 C   0  0  1  0  0  3  0  0  0  0  0  0
  185.8310  180.0970  142.2170 C   0  0  0  0  0  2  0  0  0  0  0  0
  186.3730  178.6840  142.0440 C   0  0  1  0  0  0  0  0  0  0  0  0
  182.8130  178.4020  140.8290 C   0  0  0  0  0  0  0  0  0  0  0  0
  182.9320  178.6170  139.4200 N   0  0  0  0  0  2  0  0  0  0  0  0
  183.9050  178.6950  141.6980 N   0  0  0  0  0  2  0  0  0  0  0  0
  181.7460  177.9470  141.3140 O   0  0  0  0  0  0  0  0  0  0  0  0
  181.8290  178.3650  138.5040 C   0  0  0  0  0  2  0  0  0  0  0  0
  182.3350  177.7700  137.1960 C   0  0  0  0  0  2  0  0  0  0  0  0
  184.8630  177.1270  137.9670 O   0  0  0  0  0  0  0  0  0  0  0  0
  183.0260  175.4270  138.6860 O   0  0  0  0  0  1  0  0  0  0  0  0
  183.5860  176.4790  137.4860 P   0  0  1  0  0  0  0  0  0  0  0  0
  183.9040  175.5440  135.9380 C   0  0  1  0  0  3  0  0  0  0  0  0
  185.3090  173.8550  137.2460 C   0  0  0  0  0  1  0  0  0  0  0  0
  186.3200  175.5660  135.7930 N   0  0  0  0  0  0  0  0  0  0  0  0
  186.6490  177.8220  134.9510 C   0  0  0  0  0  1  0  0  0  0  0  0
  184.1780  176.7120  134.5880 S   0  0  0  0  0  0  0  0  0  0  0  0
  185.1690  174.6980  135.9850 C   0  0  2  0  0  3  0  0  0  0  0  0
  185.9850  176.4810  134.7070 C   0  0  2  0  0  3  0  0  0  0  0  0
  187.3350  174.7880  135.3460 O   0  0  0  0  0  1  0  0  0  0  0  0
  187.5780  178.5500  141.1630 C   0  0  0  0  0  0  0  0  0  0  0  0
  188.6210  179.2120  141.4060 O   0  0  0  0  0  1  0  0  0  0  0  0
  187.5590  177.6590  140.0980 O   0  0  0  0  0  0  0  0  0  0  0  0
  189.2760  178.5570  144.2350 S   0  0  0  0  0  0  0  0  0  0  0  0
  192.4400  175.2520  144.9580 C   0  0  0  0  0  3  0  0  0  0  0  0
  190.6310  176.6470  145.7400 C   0  0  0  0  0  0  0  0  0  0  0  0
  190.5020  177.2720  144.4960 C   0  0  0  0  0  0  0  0  0  0  0  0
  189.8860  176.8130  147.0260 C   0  0  1  0  0  3  0  0  0  0  0  0
  192.3490  175.8750  143.7050 C   0  0  0  0  0  3  0  0  0  0  0  0
  191.3880  176.8850  143.4660 C   0  0  0  0  0  0  0  0  0  0  0  0
  191.4660  175.1780  147.2720 N   0  0  0  0  0  0  0  0  0  0  0  0
  190.5400  175.8070  147.8790 N   0  0  0  0  0  0  0  0  0  0  0  0
  191.5560  175.6640  145.9490 C   0  0  0  0  0  0  0  0  0  0  0  0
  190.1220  178.2020  147.6060 C   0  0  0  0  0  3  0  0  0  0  0  0
  189.8070  178.2040  149.0920 C   0  0  0  0  0  2  0  0  0  0  0  0
  188.8060  178.7670  148.1080 C   0  0  0  0  0  2  0  0  0  0  0  0
  191.2990  177.5040  142.1770 N   0  0  0  0  0  2  0  0  0  0  0  0
  190.6240  176.8960  141.1080 N   0  0  0  0  0  2  0  0  0  0  0  0
  191.2730  177.3400  139.8870 C   0  0  0  0  0  2  0  0  0  0  0  0
  189.7320  177.5560  137.2430 Cl  0  0  0  0  0  0  0  0  0  0  0  0
  191.4190  176.1580  138.9410 C   0  0  2  0  0  3  0  0  0  0  0  0
  192.5670  175.1110  137.1220 C   0  0  2  0  0  3  0  0  0  0  0  0
  190.8210  174.9020  136.6230 S   0  0  0  0  0  0  0  0  0  0  0  0
  192.6980  176.2220  138.1410 C   0  0  0  0  0  2  0  0  0  0  0  0
  190.2600  175.9990  137.9610 C   0  0  2  0  0  3  0  0  0  0  0  0
  193.7590  173.8410  135.1130 C   0  0  1  0  0  3  0  0  0  0  0  0
  194.9030  174.2910  136.0250 C   0  0  1  0  0  3  0  0  0  0  0  0
  193.6640  172.5410  135.8930 C   0  0  0  0  0  2  0  0  0  0  0  0
  193.6070  175.0950  135.9710 C   0  0  2  0  0  0  0  0  0  0  0  0
  194.7910  172.9880  136.7940 C   0  0  0  0  0  2  0  0  0  0  0  0
  194.9660  176.7800  135.3460 C   0  0  0  0  0  1  0  0  0  0  0  0
  193.6750  176.2570  135.1850 O   0  0  0  0  0  0  0  0  0  0  0  0
  2  1  1  1  0  0  0
  2  6  1  0  0  0  0
  3  2  1  0  0  0  0
  3  7  1  1  0  0  0
  4  2  1  0  0  0  0
  6 31  1  6  0  0  0
  6  5  1  0  0  0  0
  7  5  1  0  0  0  0
  8 13  1  1  0  0  0
  8 10  1  0  0  0  0
  8  9  1  0  0  0  0
 10 28  1  6  0  0  0
 10  9  1  0  0  0  0
 10  3  1  0  0  0  0
 11 14  2  0  0  0  0
 11 13  1  0  0  0  0
 12 11  1  0  0  0  0
 15 12  1  0  0  0  0
 16 19  1  0  0  0  0
 16 15  1  0  0  0  0
 19 17  2  1  0  0  0
 19 18  1  0  0  0  0
 20 25  1  0  0  0  0
 20 19  1  1  0  0  0
 22 25  1  0  0  0  0
 24 26  1  0  0  0  0
 24 20  1  0  0  0  0
 25 21  1  1  0  0  0
 26 23  1  1  0  0  0
 26 22  1  0  0  0  0
 27 22  1  0  0  0  0
 28 29  1  0  0  0  0
 30 28  2  0  0  0  0
 31 34  1  0  0  0  0
 32 40  1  0  0  0  0
 33 40  2  0  0  0  0
 33 35  1  0  0  0  0
 34 33  1  0  0  0  0
 35 41  1  1  0  0  0
 35 39  1  0  0  0  0
 36 32  2  0  0  0  0
 37 36  1  0  0  0  0
 37 34  2  0  0  0  0
 38 39  2  0  0  0  0
 40 38  1  0  0  0  0
 41 43  1  0  0  0  0
 41 42  1  0  0  0  0
 43 42  1  0  0  0  0
 44 37  1  0  0  0  0
 45 44  1  0  0  0  0
 46 45  1  0  0  0  0
 48 46  1  6  0  0  0
 49 51  1  6  0  0  0
 50 49  1  0  0  0  0
 50 52  1  0  0  0  0
 51 48  1  0  0  0  0
 52 47  1  6  0  0  0
 52 48  1  0  0  0  0
 53 55  1  1  0  0  0
 53 56  1  0  0  0  0
 53 54  1  0  0  0  0
 54 57  1  1  0  0  0
 55 57  1  0  0  0  0
 56 59  1  6  0  0  0
 56 54  1  0  0  0  0
 56 49  1  0  0  0  0
 59 58  1  0  0  0  0
M  END
>  <MODEL>
9

>  <REMARK>
 VINA RESULT:      -4.1      3.502      8.705
  Name = 
  16 active torsions:
  status: ('A' for Active; 'I' for Inactive)
    1  A    between atoms: C_1  and  C_15
    2  A    between atoms: C_1  and  P_32
    3  A    between atoms: S_3  and  C_27
    4  A    between atoms: S_3  and  C_54
    5  A    between atoms: C_4  and  N_39
    6  A    between atoms: C_5  and  C_53
    7  A    between atoms: C_10  and  P_32
    8  A    between atoms: N_11  and  N_23
    9  A    between atoms: N_11  and  C_25
   10  A    between atoms: C_13  and  C_25
   11  A    between atoms: C_15  and  N_36
   12  A    between atoms: O_16  and  C_40
   13  A    between atoms: C_19  and  C_28
   14  A    between atoms: C_20  and  C_40
   15  A    between atoms: N_23  and  C_31
   16  A    between atoms: C_43  and  C_53
                            x       y       z     vdW  Elec       q    Type
                         _______ _______ _______ _____ _____    ______ ____

>  <TORSDO>
F 16

$$$$
