=
 OpenBabel10232408523D

 51 53  0  0  1  0  0  0  0  0999 V2000
  187.4650  174.8330  135.9640 C   0  0  0  0  0  0  0  0  0  0  0  0
  188.5780  176.3810  134.5560 O   0  0  0  0  0  0  0  0  0  0  0  0
  187.5480  176.1050  135.2280 C   0  0  0  0  0  0  0  0  0  0  0  0
  184.0050  175.1870  137.4630 N   0  0  0  0  0  2  0  0  0  0  0  0
  186.3930  177.0700  135.2370 C   0  0  1  0  0  3  0  0  0  0  0  0
  186.3010  174.5300  136.6860 C   0  0  0  0  0  0  0  0  0  0  0  0
  188.5310  173.9200  135.9430 C   0  0  0  0  0  3  0  0  0  0  0  0
  188.4350  172.7100  136.6350 C   0  0  0  0  0  3  0  0  0  0  0  0
  187.2740  172.4050  137.3520 C   0  0  0  0  0  3  0  0  0  0  0  0
  185.2580  176.6130  136.0550 N   0  0  0  0  0  0  0  0  0  0  0  0
  185.1830  175.4900  136.7090 C   0  0  0  0  0  0  0  0  0  0  0  0
  186.2120  173.3130  137.3790 C   0  0  0  0  0  3  0  0  0  0  0  0
  182.8510  176.0670  137.4940 C   0  0  0  0  0  2  0  0  0  0  0  0
  181.8140  175.5300  138.4580 C   0  0  0  0  0  2  0  0  0  0  0  0
  180.8400  176.5030  138.7000 O   0  0  0  0  0  0  0  0  0  0  0  0
  180.6670  176.5020  140.0870 C   0  0  0  0  0  2  0  0  0  0  0  0
  180.9150  177.8930  140.6550 C   0  0  0  0  0  2  0  0  0  0  0  0
  182.5620  179.3590  139.3940 C   0  0  0  0  0  0  0  0  0  0  0  0
  183.3730  177.7920  141.0600 C   0  0  0  0  0  3  0  0  0  0  0  0
  184.9370  179.1990  139.8610 C   0  0  0  0  0  3  0  0  0  0  0  0
  184.6850  178.2080  140.8140 C   0  0  0  0  0  3  0  0  0  0  0  0
  183.8780  179.7740  139.1550 C   0  0  0  0  0  3  0  0  0  0  0  0
  182.3060  178.3600  140.3560 C   0  0  0  0  0  0  0  0  0  0  0  0
  181.4540  180.0160  138.6410 C   0  0  0  0  0  2  0  0  0  0  0  0
  181.8700  181.2660  138.1830 O   0  0  0  0  0  0  0  0  0  0  0  0
  180.9880  183.3360  137.4080 C   0  0  0  0  0  1  0  0  0  0  0  0
  180.7040  182.0240  138.1110 C   0  0  0  0  0  2  0  0  0  0  0  0
  186.8550  178.4450  135.7020 C   0  0  0  0  0  2  0  0  0  0  0  0
  188.1260  178.2390  138.0410 C   0  0  0  0  0  0  0  0  0  0  0  0
  187.5500  178.3510  136.9890 C   0  0  0  0  0  0  0  0  0  0  0  0
  188.8470  178.0660  139.3110 C   0  0  0  0  0  2  0  0  0  0  0  0
  189.6980  176.7960  139.3230 C   0  0  2  0  0  3  0  0  0  0  0  0
  189.8210  177.2210  142.9020 C   0  0  0  0  0  3  0  0  0  0  0  0
  190.6540  176.8000  140.4720 C   0  0  0  0  0  3  0  0  0  0  0  0
  190.2310  177.0140  141.6840 C   0  0  0  0  0  0  0  0  0  0  0  0
  190.8000  177.2360  144.0230 C   0  0  0  0  0  2  0  0  0  0  0  0
  190.2740  178.0600  145.1870 C   0  0  0  0  0  2  0  0  0  0  0  0
  190.1210  177.2000  146.4390 C   0  0  0  0  0  2  0  0  0  0  0  0
  188.8440  177.5140  147.2230 C   0  0  0  0  0  0  0  0  0  0  0  0
  189.1750  178.3810  148.4250 C   0  0  0  0  0  1  0  0  0  0  0  0
  188.2610  176.2140  147.7440 C   0  0  0  0  0  1  0  0  0  0  0  0
  187.8170  178.2530  146.3570 C   0  0  0  0  0  2  0  0  0  0  0  0
  186.4030  178.2340  146.9370 C   0  0  1  0  0  3  0  0  0  0  0  0
  186.0290  179.6240  147.4170 C   0  0  0  0  0  1  0  0  0  0  0  0
  185.4120  177.7970  145.8740 C   0  0  0  0  0  2  0  0  0  0  0  0
  183.7480  178.9920  144.4900 C   0  0  0  0  0  1  0  0  0  0  0  0
  185.2100  178.9050  144.8580 C   0  0  0  0  0  2  0  0  0  0  0  0
  190.4350  176.6130  138.0000 C   0  0  0  0  0  2  0  0  0  0  0  0
  191.6850  175.7640  138.1740 C   0  0  1  0  0  3  0  0  0  0  0  0
  191.4160  174.4450  137.8000 O   0  0  0  0  0  1  0  0  0  0  0  0
  192.7950  176.3190  137.3050 C   0  0  0  0  0  1  0  0  0  0  0  0
  1  6  1  0  0  0  0
  2  3  2  0  0  0  0
  3  5  1  0  0  0  0
  3  1  1  0  0  0  0
  4 13  1  0  0  0  0
  5 28  1  1  0  0  0
  5 10  1  0  0  0  0
  6 11  1  0  0  0  0
  6 12  2  0  0  0  0
  7  1  2  0  0  0  0
  7  8  1  0  0  0  0
  8  9  2  0  0  0  0
  9 12  1  0  0  0  0
 10 11  2  0  0  0  0
 11  4  1  0  0  0  0
 13 14  1  0  0  0  0
 14 15  1  0  0  0  0
 15 16  1  0  0  0  0
 16 17  1  0  0  0  0
 18 23  1  0  0  0  0
 20 21  2  0  0  0  0
 21 19  1  0  0  0  0
 22 18  2  0  0  0  0
 22 20  1  0  0  0  0
 23 17  1  0  0  0  0
 23 19  2  0  0  0  0
 24 18  1  0  0  0  0
 25 24  1  0  0  0  0
 26 27  1  0  0  0  0
 27 25  1  0  0  0  0
 28 30  1  0  0  0  0
 29 31  1  0  0  0  0
 30 29  3  0  0  0  0
 31 32  1  0  0  0  0
 32 48  1  6  0  0  0
 32 34  1  0  0  0  0
 33 36  1  0  0  0  0
 34 35  2  0  0  0  0
 35 33  2  0  0  0  0
 36 37  1  0  0  0  0
 37 38  1  0  0  0  0
 38 39  1  0  0  0  0
 39 41  1  0  0  0  0
 39 40  1  0  0  0  0
 42 43  1  0  0  0  0
 42 39  1  0  0  0  0
 43 44  1  6  0  0  0
 45 43  1  0  0  0  0
 46 47  1  0  0  0  0
 47 45  1  0  0  0  0
 48 49  1  0  0  0  0
 49 51  1  6  0  0  0
 50 49  1  0  0  0  0
M  END
>  <MODEL>
1

>  <REMARK>
 VINA RESULT:      -6.5      0.000      0.000
  Name = 
  24 active torsions:
  status: ('A' for Active; 'I' for Inactive)
    1  A    between atoms: C_1  and  C_45
    2  A    between atoms: C_1  and  C_46
    3  A    between atoms: C_2  and  C_14
    4  A    between atoms: C_2  and  C_46
    5  A    between atoms: C_5  and  O_8
    6  A    between atoms: C_5  and  C_24
    7  A    between atoms: O_8  and  C_44
    8  A    between atoms: C_9  and  C_23
    9  A    between atoms: C_9  and  C_35
   10  A    between atoms: C_9  and  C_47
   11  A    between atoms: C_11  and  C_23
   12  A    between atoms: O_12  and  C_29
   13  A    between atoms: O_12  and  C_51
   14  A    between atoms: C_14  and  C_36
   15  A    between atoms: N_16  and  C_24
   16  A    between atoms: C_17  and  C_18
   17  A    between atoms: C_17  and  C_40
   18  A    between atoms: C_19  and  C_34
   19  A    between atoms: C_19  and  C_36
   20  A    between atoms: C_22  and  C_47
   21  A    between atoms: C_26  and  C_29
   22  A    between atoms: C_43  and  C_45
   23  A    between atoms: C_44  and  C_48
   24  A    between atoms: C_48  and  C_49
                            x       y       z     vdW  Elec       q    Type
                         _______ _______ _______ _____ _____    ______ ____

>  <TORSDO>
F 24

$$$$
=
 OpenBabel10232408523D

 51 53  0  0  1  0  0  0  0  0999 V2000
  184.3560  178.8230  141.9030 C   0  0  0  0  0  0  0  0  0  0  0  0
  186.5220  178.7690  140.9420 O   0  0  0  0  0  0  0  0  0  0  0  0
  185.2940  178.5190  140.8100 C   0  0  0  0  0  0  0  0  0  0  0  0
  181.1310  177.6080  140.3330 N   0  0  0  0  0  2  0  0  0  0  0  0
  184.8060  177.8730  139.5410 C   0  0  1  0  0  3  0  0  0  0  0  0
  182.9960  178.5140  141.7490 C   0  0  0  0  0  0  0  0  0  0  0  0
  184.8080  179.4070  143.0970 C   0  0  0  0  0  3  0  0  0  0  0  0
  183.9100  179.6780  144.1320 C   0  0  0  0  0  3  0  0  0  0  0  0
  182.5560  179.3680  143.9810 C   0  0  0  0  0  3  0  0  0  0  0  0
  183.3540  177.6330  139.5310 N   0  0  0  0  0  0  0  0  0  0  0  0
  182.5220  177.9030  140.4940 C   0  0  0  0  0  0  0  0  0  0  0  0
  182.1000  178.7900  142.7930 C   0  0  0  0  0  3  0  0  0  0  0  0
  180.6030  176.9680  139.1420 C   0  0  0  0  0  2  0  0  0  0  0  0
  180.8320  175.4720  139.2110 C   0  0  0  0  0  2  0  0  0  0  0  0
  180.0740  174.8290  138.2280 O   0  0  0  0  0  0  0  0  0  0  0  0
  180.8690  174.8650  137.0790 C   0  0  0  0  0  2  0  0  0  0  0  0
  182.2760  174.3710  137.3890 C   0  0  0  0  0  2  0  0  0  0  0  0
  183.7570  172.3620  136.9220 C   0  0  0  0  0  0  0  0  0  0  0  0
  181.4290  172.3290  136.2360 C   0  0  0  0  0  3  0  0  0  0  0  0
  182.8450  170.4130  135.8020 C   0  0  0  0  0  3  0  0  0  0  0  0
  181.6000  171.0420  135.7170 C   0  0  0  0  0  3  0  0  0  0  0  0
  183.9190  171.0710  136.4050 C   0  0  0  0  0  3  0  0  0  0  0  0
  182.5010  172.9970  136.8390 C   0  0  0  0  0  0  0  0  0  0  0  0
  184.9200  173.0210  137.5850 C   0  0  0  0  0  2  0  0  0  0  0  0
  185.3810  174.0720  136.7920 O   0  0  0  0  0  0  0  0  0  0  0  0
  187.4110  172.8510  137.0160 C   0  0  0  0  0  1  0  0  0  0  0  0
  186.4440  173.5320  136.0700 C   0  0  0  0  0  2  0  0  0  0  0  0
  185.2090  178.7080  138.3330 C   0  0  0  0  0  2  0  0  0  0  0  0
  187.1490  177.4750  136.9740 C   0  0  0  0  0  0  0  0  0  0  0  0
  186.2680  178.0410  137.5710 C   0  0  0  0  0  0  0  0  0  0  0  0
  188.2270  176.7570  136.2780 C   0  0  0  0  0  2  0  0  0  0  0  0
  189.2760  176.2110  137.2480 C   0  0  2  0  0  3  0  0  0  0  0  0
  190.1530  176.6810  140.7140 C   0  0  0  0  0  3  0  0  0  0  0  0
  189.7130  177.2620  138.2150 C   0  0  0  0  0  3  0  0  0  0  0  0
  189.9290  176.9660  139.4640 C   0  0  0  0  0  0  0  0  0  0  0  0
  190.5710  177.7540  141.6560 C   0  0  0  0  0  2  0  0  0  0  0  0
  191.7040  177.2760  142.5500 C   0  0  0  0  0  2  0  0  0  0  0  0
  191.2100  176.2310  143.5470 C   0  0  0  0  0  2  0  0  0  0  0  0
  190.9760  176.8090  144.9460 C   0  0  0  0  0  0  0  0  0  0  0  0
  191.2260  178.3070  144.9340 C   0  0  0  0  0  1  0  0  0  0  0  0
  191.9740  176.1850  145.9020 C   0  0  0  0  0  1  0  0  0  0  0  0
  189.5420  176.5580  145.4280 C   0  0  0  0  0  2  0  0  0  0  0  0
  188.6130  177.7560  145.2280 C   0  0  1  0  0  3  0  0  0  0  0  0
  187.7360  177.5230  144.0120 C   0  0  0  0  0  1  0  0  0  0  0  0
  187.7270  177.9330  146.4470 C   0  0  0  0  0  2  0  0  0  0  0  0
  185.3680  178.5020  146.9190 C   0  0  0  0  0  1  0  0  0  0  0  0
  186.2840  177.6270  146.0970 C   0  0  0  0  0  2  0  0  0  0  0  0
  190.4700  175.6270  136.4980 C   0  0  0  0  0  2  0  0  0  0  0  0
  191.0400  174.4170  137.2210 C   0  0  1  0  0  3  0  0  0  0  0  0
  191.0050  173.3040  136.3780 O   0  0  0  0  0  1  0  0  0  0  0  0
  192.4730  174.7000  137.6230 C   0  0  0  0  0  1  0  0  0  0  0  0
  1  7  1  0  0  0  0
  3  2  2  0  0  0  0
  3  1  1  0  0  0  0
  4 11  1  0  0  0  0
  5 28  1  6  0  0  0
  5  3  1  0  0  0  0
  6  1  2  0  0  0  0
  6 12  1  0  0  0  0
  7  8  2  0  0  0  0
  9  8  1  0  0  0  0
 10  5  1  0  0  0  0
 10 11  2  0  0  0  0
 11  6  1  0  0  0  0
 12  9  2  0  0  0  0
 13 14  1  0  0  0  0
 13  4  1  0  0  0  0
 15 14  1  0  0  0  0
 16 17  1  0  0  0  0
 16 15  1  0  0  0  0
 18 24  1  0  0  0  0
 19 23  2  0  0  0  0
 20 22  1  0  0  0  0
 21 20  2  0  0  0  0
 21 19  1  0  0  0  0
 22 18  2  0  0  0  0
 23 18  1  0  0  0  0
 23 17  1  0  0  0  0
 25 24  1  0  0  0  0
 27 25  1  0  0  0  0
 27 26  1  0  0  0  0
 29 30  3  0  0  0  0
 30 28  1  0  0  0  0
 31 29  1  0  0  0  0
 32 31  1  6  0  0  0
 32 34  1  0  0  0  0
 33 36  1  0  0  0  0
 34 35  2  0  0  0  0
 35 33  2  0  0  0  0
 36 37  1  0  0  0  0
 37 38  1  0  0  0  0
 38 39  1  0  0  0  0
 39 42  1  0  0  0  0
 39 41  1  0  0  0  0
 40 39  1  0  0  0  0
 43 44  1  6  0  0  0
 43 42  1  0  0  0  0
 43 45  1  0  0  0  0
 47 45  1  0  0  0  0
 47 46  1  0  0  0  0
 48 49  1  0  0  0  0
 48 32  1  0  0  0  0
 49 51  1  6  0  0  0
 50 49  1  0  0  0  0
M  END
>  <MODEL>
2

>  <REMARK>
 VINA RESULT:      -6.4      2.263      5.856
  Name = 
  24 active torsions:
  status: ('A' for Active; 'I' for Inactive)
    1  A    between atoms: C_1  and  C_45
    2  A    between atoms: C_1  and  C_46
    3  A    between atoms: C_2  and  C_14
    4  A    between atoms: C_2  and  C_46
    5  A    between atoms: C_5  and  O_8
    6  A    between atoms: C_5  and  C_24
    7  A    between atoms: O_8  and  C_44
    8  A    between atoms: C_9  and  C_23
    9  A    between atoms: C_9  and  C_35
   10  A    between atoms: C_9  and  C_47
   11  A    between atoms: C_11  and  C_23
   12  A    between atoms: O_12  and  C_29
   13  A    between atoms: O_12  and  C_51
   14  A    between atoms: C_14  and  C_36
   15  A    between atoms: N_16  and  C_24
   16  A    between atoms: C_17  and  C_18
   17  A    between atoms: C_17  and  C_40
   18  A    between atoms: C_19  and  C_34
   19  A    between atoms: C_19  and  C_36
   20  A    between atoms: C_22  and  C_47
   21  A    between atoms: C_26  and  C_29
   22  A    between atoms: C_43  and  C_45
   23  A    between atoms: C_44  and  C_48
   24  A    between atoms: C_48  and  C_49
                            x       y       z     vdW  Elec       q    Type
                         _______ _______ _______ _____ _____    ______ ____

>  <TORSDO>
F 24

$$$$
=
 OpenBabel10232408523D

 51 53  0  0  1  0  0  0  0  0999 V2000
  181.9620  178.7570  141.6710 C   0  0  0  0  0  0  0  0  0  0  0  0
  180.4420  178.8490  139.8550 O   0  0  0  0  0  0  0  0  0  0  0  0
  181.6410  178.7660  140.2340 C   0  0  0  0  0  0  0  0  0  0  0  0
  185.7370  178.5290  141.4790 N   0  0  0  0  0  2  0  0  0  0  0  0
  182.7380  178.7150  139.2050 C   0  0  1  0  0  3  0  0  0  0  0  0
  183.3030  178.6900  142.0760 C   0  0  0  0  0  0  0  0  0  0  0  0
  180.9450  178.8240  142.6350 C   0  0  0  0  0  3  0  0  0  0  0  0
  181.2630  178.8280  143.9960 C   0  0  0  0  0  3  0  0  0  0  0  0
  182.6000  178.7650  144.4000 C   0  0  0  0  0  3  0  0  0  0  0  0
  184.0840  178.6280  139.7930 N   0  0  0  0  0  0  0  0  0  0  0  0
  184.3720  178.6180  141.0620 C   0  0  0  0  0  0  0  0  0  0  0  0
  183.6160  178.6940  143.4440 C   0  0  0  0  0  3  0  0  0  0  0  0
  186.8400  178.4980  140.5360 C   0  0  0  0  0  2  0  0  0  0  0  0
  188.1510  178.7210  141.2600 C   0  0  0  0  0  2  0  0  0  0  0  0
  188.7100  177.4920  141.6220 O   0  0  0  0  0  0  0  0  0  0  0  0
  189.2570  177.7060  142.8910 C   0  0  0  0  0  2  0  0  0  0  0  0
  188.8200  176.6090  143.8510 C   0  0  0  0  0  2  0  0  0  0  0  0
  188.8360  177.5240  146.2200 C   0  0  0  0  0  0  0  0  0  0  0  0
  186.7450  177.3880  144.9950 C   0  0  0  0  0  3  0  0  0  0  0  0
  186.7700  178.2680  147.2520 C   0  0  0  0  0  3  0  0  0  0  0  0
  186.0670  177.9280  146.0930 C   0  0  0  0  0  3  0  0  0  0  0  0
  188.1510  178.0690  147.3130 C   0  0  0  0  0  3  0  0  0  0  0  0
  188.1280  177.1820  145.0500 C   0  0  0  0  0  0  0  0  0  0  0  0
  190.3160  177.3520  146.3130 C   0  0  0  0  0  2  0  0  0  0  0  0
  190.6120  176.1940  147.0300 O   0  0  0  0  0  0  0  0  0  0  0  0
  192.6660  175.6920  148.1230 C   0  0  0  0  0  1  0  0  0  0  0  0
  191.9710  175.9760  146.8080 C   0  0  0  0  0  2  0  0  0  0  0  0
  182.5090  177.5570  138.2430 C   0  0  0  0  0  2  0  0  0  0  0  0
  184.6660  177.1300  136.7300 C   0  0  0  0  0  0  0  0  0  0  0  0
  183.7020  177.3160  137.4280 C   0  0  0  0  0  0  0  0  0  0  0  0
  185.8260  176.9290  135.8480 C   0  0  0  0  0  2  0  0  0  0  0  0
  186.3940  175.5130  135.9560 C   0  0  2  0  0  3  0  0  0  0  0  0
  189.7530  175.9010  137.2110 C   0  0  0  0  0  3  0  0  0  0  0  0
  187.8220  175.4720  135.5190 C   0  0  0  0  0  3  0  0  0  0  0  0
  188.7830  175.6900  136.3690 C   0  0  0  0  0  0  0  0  0  0  0  0
  191.1640  175.8690  136.7400 C   0  0  0  0  0  2  0  0  0  0  0  0
  191.9010  174.6740  137.3230 C   0  0  0  0  0  2  0  0  0  0  0  0
  192.8740  174.0840  136.3070 C   0  0  0  0  0  2  0  0  0  0  0  0
  194.3400  174.3530  136.6620 C   0  0  0  0  0  0  0  0  0  0  0  0
  194.4790  174.5520  138.1610 C   0  0  0  0  0  1  0  0  0  0  0  0
  194.7750  175.6400  135.9870 C   0  0  0  0  0  1  0  0  0  0  0  0
  195.2460  173.1920  136.2380 C   0  0  0  0  0  2  0  0  0  0  0  0
  196.4970  173.0450  137.1050 C   0  0  1  0  0  3  0  0  0  0  0  0
  196.5760  171.6320  137.6500 C   0  0  0  0  0  1  0  0  0  0  0  0
  197.7370  173.3240  136.2780 C   0  0  0  0  0  2  0  0  0  0  0  0
  199.6760  173.8290  137.7260 C   0  0  0  0  0  1  0  0  0  0  0  0
  198.5550  174.4320  136.9130 C   0  0  0  0  0  2  0  0  0  0  0  0
  185.5510  174.5170  135.1660 C   0  0  0  0  0  2  0  0  0  0  0  0
  184.8050  173.5670  136.0890 C   0  0  1  0  0  3  0  0  0  0  0  0
  184.7410  172.2980  135.5100 O   0  0  0  0  0  1  0  0  0  0  0  0
  185.5320  173.4800  137.4150 C   0  0  0  0  0  1  0  0  0  0  0  0
  1  6  2  0  0  0  0
  1  7  1  0  0  0  0
  2  3  2  0  0  0  0
  3  1  1  0  0  0  0
  5 28  1  6  0  0  0
  5 10  1  0  0  0  0
  5  3  1  0  0  0  0
  6 12  1  0  0  0  0
  7  8  2  0  0  0  0
  8  9  1  0  0  0  0
 10 11  2  0  0  0  0
 11  4  1  0  0  0  0
 11  6  1  0  0  0  0
 12  9  2  0  0  0  0
 13 14  1  0  0  0  0
 13  4  1  0  0  0  0
 14 15  1  0  0  0  0
 15 16  1  0  0  0  0
 16 17  1  0  0  0  0
 17 23  1  0  0  0  0
 18 24  1  0  0  0  0
 18 22  1  0  0  0  0
 19 23  1  0  0  0  0
 19 21  2  0  0  0  0
 20 22  2  0  0  0  0
 21 20  1  0  0  0  0
 23 18  2  0  0  0  0
 24 25  1  0  0  0  0
 27 25  1  0  0  0  0
 27 26  1  0  0  0  0
 29 30  3  0  0  0  0
 30 28  1  0  0  0  0
 31 32  1  0  0  0  0
 31 29  1  0  0  0  0
 32 48  1  6  0  0  0
 34 32  1  0  0  0  0
 34 35  2  0  0  0  0
 35 33  2  0  0  0  0
 36 33  1  0  0  0  0
 36 37  1  0  0  0  0
 38 39  1  0  0  0  0
 38 37  1  0  0  0  0
 39 40  1  0  0  0  0
 41 39  1  0  0  0  0
 42 39  1  0  0  0  0
 42 43  1  0  0  0  0
 43 44  1  6  0  0  0
 45 47  1  0  0  0  0
 45 43  1  0  0  0  0
 47 46  1  0  0  0  0
 48 49  1  0  0  0  0
 49 51  1  1  0  0  0
 50 49  1  0  0  0  0
M  END
>  <MODEL>
3

>  <REMARK>
 VINA RESULT:      -6.2      3.186      9.982
  Name = 
  24 active torsions:
  status: ('A' for Active; 'I' for Inactive)
    1  A    between atoms: C_1  and  C_45
    2  A    between atoms: C_1  and  C_46
    3  A    between atoms: C_2  and  C_14
    4  A    between atoms: C_2  and  C_46
    5  A    between atoms: C_5  and  O_8
    6  A    between atoms: C_5  and  C_24
    7  A    between atoms: O_8  and  C_44
    8  A    between atoms: C_9  and  C_23
    9  A    between atoms: C_9  and  C_35
   10  A    between atoms: C_9  and  C_47
   11  A    between atoms: C_11  and  C_23
   12  A    between atoms: O_12  and  C_29
   13  A    between atoms: O_12  and  C_51
   14  A    between atoms: C_14  and  C_36
   15  A    between atoms: N_16  and  C_24
   16  A    between atoms: C_17  and  C_18
   17  A    between atoms: C_17  and  C_40
   18  A    between atoms: C_19  and  C_34
   19  A    between atoms: C_19  and  C_36
   20  A    between atoms: C_22  and  C_47
   21  A    between atoms: C_26  and  C_29
   22  A    between atoms: C_43  and  C_45
   23  A    between atoms: C_44  and  C_48
   24  A    between atoms: C_48  and  C_49
                            x       y       z     vdW  Elec       q    Type
                         _______ _______ _______ _____ _____    ______ ____

>  <TORSDO>
F 24

$$$$
=
 OpenBabel10232408523D

 51 53  0  0  1  0  0  0  0  0999 V2000
  192.2730  174.0670  136.3690 C   0  0  0  0  0  0  0  0  0  0  0  0
  190.6430  172.6010  135.4690 O   0  0  0  0  0  0  0  0  0  0  0  0
  190.9010  173.5440  136.2640 C   0  0  0  0  0  0  0  0  0  0  0  0
  191.7420  176.7230  139.0150 N   0  0  0  0  0  2  0  0  0  0  0  0
  189.8020  174.1010  137.1280 C   0  0  1  0  0  3  0  0  0  0  0  0
  192.5480  175.1000  137.2770 C   0  0  0  0  0  0  0  0  0  0  0  0
  193.3060  173.5380  135.5800 C   0  0  0  0  0  3  0  0  0  0  0  0
  194.6070  174.0340  135.6980 C   0  0  0  0  0  3  0  0  0  0  0  0
  194.8830  175.0610  136.6060 C   0  0  0  0  0  3  0  0  0  0  0  0
  190.2500  175.1900  138.0110 N   0  0  0  0  0  0  0  0  0  0  0  0
  191.4620  175.6560  138.1040 C   0  0  0  0  0  0  0  0  0  0  0  0
  193.8570  175.5940  137.3910 C   0  0  0  0  0  3  0  0  0  0  0  0
  190.7300  177.2880  139.8900 C   0  0  0  0  0  2  0  0  0  0  0  0
  190.9380  176.8010  141.3080 C   0  0  0  0  0  2  0  0  0  0  0  0
  189.7900  176.1420  141.7570 O   0  0  0  0  0  0  0  0  0  0  0  0
  189.8680  176.1930  143.1520 C   0  0  0  0  0  2  0  0  0  0  0  0
  189.3960  177.5470  143.6630 C   0  0  0  0  0  2  0  0  0  0  0  0
  187.7600  177.6540  145.6030 C   0  0  0  0  0  0  0  0  0  0  0  0
  190.1170  177.2680  146.0340 C   0  0  0  0  0  3  0  0  0  0  0  0
  188.5490  177.3620  147.8780 C   0  0  0  0  0  3  0  0  0  0  0  0
  189.8560  177.2040  147.4060 C   0  0  0  0  0  3  0  0  0  0  0  0
  187.5050  177.5840  146.9780 C   0  0  0  0  0  3  0  0  0  0  0  0
  189.0770  177.4930  145.1250 C   0  0  0  0  0  0  0  0  0  0  0  0
  186.6140  177.8640  144.6700 C   0  0  0  0  0  2  0  0  0  0  0  0
  185.4140  177.8260  145.3800 O   0  0  0  0  0  0  0  0  0  0  0  0
  183.5930  178.8830  144.2720 C   0  0  0  0  0  1  0  0  0  0  0  0
  184.8200  179.0640  145.1410 C   0  0  0  0  0  2  0  0  0  0  0  0
  188.6370  174.5690  136.2670 C   0  0  0  0  0  2  0  0  0  0  0  0
  186.6370  172.8020  136.3490 C   0  0  0  0  0  0  0  0  0  0  0  0
  187.5300  173.6100  136.3250 C   0  0  0  0  0  0  0  0  0  0  0  0
  185.5720  171.7870  136.3580 C   0  0  0  0  0  2  0  0  0  0  0  0
  184.2390  172.3460  135.8580 C   0  0  2  0  0  3  0  0  0  0  0  0
  183.1790  175.1820  137.8180 C   0  0  0  0  0  3  0  0  0  0  0  0
  183.3500  172.7160  137.0000 C   0  0  0  0  0  3  0  0  0  0  0  0
  183.2710  173.9500  137.4060 C   0  0  0  0  0  0  0  0  0  0  0  0
  182.2970  175.5150  138.9690 C   0  0  0  0  0  2  0  0  0  0  0  0
  182.0920  177.0180  139.0740 C   0  0  0  0  0  2  0  0  0  0  0  0
  182.9900  177.7610  138.0880 C   0  0  0  0  0  2  0  0  0  0  0  0
  183.9530  178.7320  138.7780 C   0  0  0  0  0  0  0  0  0  0  0  0
  184.2760  178.2340  140.1750 C   0  0  0  0  0  1  0  0  0  0  0  0
  183.2670  180.0780  138.9190 C   0  0  0  0  0  1  0  0  0  0  0  0
  185.2630  178.8780  137.9970 C   0  0  0  0  0  2  0  0  0  0  0  0
  185.9050  177.5410  137.6250 C   0  0  1  0  0  3  0  0  0  0  0  0
  185.8940  177.3720  136.1170 C   0  0  0  0  0  1  0  0  0  0  0  0
  187.3400  177.5010  138.1140 C   0  0  0  0  0  2  0  0  0  0  0  0
  188.8850  179.2530  137.3050 C   0  0  0  0  0  1  0  0  0  0  0  0
  188.2870  177.9000  136.9990 C   0  0  0  0  0  2  0  0  0  0  0  0
  183.5450  171.3630  134.9210 C   0  0  0  0  0  2  0  0  0  0  0  0
  182.8200  170.2750  135.6970 C   0  0  1  0  0  3  0  0  0  0  0  0
  181.5580  170.0580  135.1410 O   0  0  0  0  0  1  0  0  0  0  0  0
  183.6250  168.9920  135.6350 C   0  0  0  0  0  1  0  0  0  0  0  0
  1  6  1  0  0  0  0
  2  3  2  0  0  0  0
  3  1  1  0  0  0  0
  3  5  1  0  0  0  0
  4 13  1  0  0  0  0
  5 28  1  6  0  0  0
  5 10  1  0  0  0  0
  6 12  2  0  0  0  0
  6 11  1  0  0  0  0
  7  8  1  0  0  0  0
  7  1  2  0  0  0  0
  8  9  2  0  0  0  0
  9 12  1  0  0  0  0
 10 11  2  0  0  0  0
 11  4  1  0  0  0  0
 13 14  1  0  0  0  0
 14 15  1  0  0  0  0
 15 16  1  0  0  0  0
 16 17  1  0  0  0  0
 17 23  1  0  0  0  0
 18 22  1  0  0  0  0
 19 21  2  0  0  0  0
 21 20  1  0  0  0  0
 22 20  2  0  0  0  0
 23 18  2  0  0  0  0
 23 19  1  0  0  0  0
 24 25  1  0  0  0  0
 24 18  1  0  0  0  0
 26 27  1  0  0  0  0
 27 25  1  0  0  0  0
 28 30  1  0  0  0  0
 29 31  1  0  0  0  0
 30 29  3  0  0  0  0
 32 48  1  6  0  0  0
 32 31  1  0  0  0  0
 32 34  1  0  0  0  0
 33 36  1  0  0  0  0
 34 35  2  0  0  0  0
 35 33  2  0  0  0  0
 36 37  1  0  0  0  0
 38 39  1  0  0  0  0
 38 37  1  0  0  0  0
 39 41  1  0  0  0  0
 39 40  1  0  0  0  0
 42 39  1  0  0  0  0
 43 44  1  6  0  0  0
 43 42  1  0  0  0  0
 43 45  1  0  0  0  0
 47 46  1  0  0  0  0
 47 45  1  0  0  0  0
 48 49  1  0  0  0  0
 49 51  1  6  0  0  0
 50 49  1  0  0  0  0
M  END
>  <MODEL>
4

>  <REMARK>
 VINA RESULT:      -6.1      2.840      8.462
  Name = 
  24 active torsions:
  status: ('A' for Active; 'I' for Inactive)
    1  A    between atoms: C_1  and  C_45
    2  A    between atoms: C_1  and  C_46
    3  A    between atoms: C_2  and  C_14
    4  A    between atoms: C_2  and  C_46
    5  A    between atoms: C_5  and  O_8
    6  A    between atoms: C_5  and  C_24
    7  A    between atoms: O_8  and  C_44
    8  A    between atoms: C_9  and  C_23
    9  A    between atoms: C_9  and  C_35
   10  A    between atoms: C_9  and  C_47
   11  A    between atoms: C_11  and  C_23
   12  A    between atoms: O_12  and  C_29
   13  A    between atoms: O_12  and  C_51
   14  A    between atoms: C_14  and  C_36
   15  A    between atoms: N_16  and  C_24
   16  A    between atoms: C_17  and  C_18
   17  A    between atoms: C_17  and  C_40
   18  A    between atoms: C_19  and  C_34
   19  A    between atoms: C_19  and  C_36
   20  A    between atoms: C_22  and  C_47
   21  A    between atoms: C_26  and  C_29
   22  A    between atoms: C_43  and  C_45
   23  A    between atoms: C_44  and  C_48
   24  A    between atoms: C_48  and  C_49
                            x       y       z     vdW  Elec       q    Type
                         _______ _______ _______ _____ _____    ______ ____

>  <TORSDO>
F 24

$$$$
=
 OpenBabel10232408523D

 51 53  0  0  1  0  0  0  0  0999 V2000
  191.2750  176.7070  138.1850 C   0  0  0  0  0  0  0  0  0  0  0  0
  191.5160  177.4280  140.4300 O   0  0  0  0  0  0  0  0  0  0  0  0
  190.8040  177.4090  139.3890 C   0  0  0  0  0  0  0  0  0  0  0  0
  188.3700  177.4120  135.8600 N   0  0  0  0  0  2  0  0  0  0  0  0
  189.4900  178.1430  139.3830 C   0  0  1  0  0  3  0  0  0  0  0  0
  190.4820  176.7180  137.0280 C   0  0  0  0  0  0  0  0  0  0  0  0
  192.5090  176.0380  138.1790 C   0  0  0  0  0  3  0  0  0  0  0  0
  192.9510  175.3860  137.0250 C   0  0  0  0  0  3  0  0  0  0  0  0
  192.1630  175.3990  135.8700 C   0  0  0  0  0  3  0  0  0  0  0  0
  188.7730  178.0420  138.1020 N   0  0  0  0  0  0  0  0  0  0  0  0
  189.1860  177.4200  137.0350 C   0  0  0  0  0  0  0  0  0  0  0  0
  190.9320  176.0610  135.8720 C   0  0  0  0  0  3  0  0  0  0  0  0
  187.1040  178.1180  135.7840 C   0  0  0  0  0  2  0  0  0  0  0  0
  186.0710  177.2590  135.0840 C   0  0  0  0  0  2  0  0  0  0  0  0
  186.6520  176.0550  134.6760 O   0  0  0  0  0  0  0  0  0  0  0  0
  185.6490  175.0960  134.8500 C   0  0  0  0  0  2  0  0  0  0  0  0
  185.8450  174.3540  136.1650 C   0  0  0  0  0  2  0  0  0  0  0  0
  183.8920  172.8960  136.8800 C   0  0  0  0  0  0  0  0  0  0  0  0
  185.6190  171.9780  135.4420 C   0  0  0  0  0  3  0  0  0  0  0  0
  183.7480  170.5970  136.1210 C   0  0  0  0  0  3  0  0  0  0  0  0
  184.9460  170.7520  135.4180 C   0  0  0  0  0  3  0  0  0  0  0  0
  183.2220  171.6670  136.8470 C   0  0  0  0  0  3  0  0  0  0  0  0
  185.1000  173.0540  136.1700 C   0  0  0  0  0  0  0  0  0  0  0  0
  183.2840  174.0250  137.6440 C   0  0  0  0  0  2  0  0  0  0  0  0
  182.9410  175.0560  136.7700 O   0  0  0  0  0  0  0  0  0  0  0  0
  180.6660  174.7090  137.3740 C   0  0  0  0  0  1  0  0  0  0  0  0
  181.6950  174.6910  136.2630 C   0  0  0  0  0  2  0  0  0  0  0  0
  188.6050  177.6540  140.5210 C   0  0  0  0  0  2  0  0  0  0  0  0
  186.1580  178.7020  140.3030 C   0  0  0  0  0  0  0  0  0  0  0  0
  187.2630  178.2350  140.4200 C   0  0  0  0  0  0  0  0  0  0  0  0
  184.8050  179.2500  140.1240 C   0  0  0  0  0  2  0  0  0  0  0  0
  183.8710  178.8650  141.2730 C   0  0  2  0  0  3  0  0  0  0  0  0
  183.6190  178.9030  144.8700 C   0  0  0  0  0  3  0  0  0  0  0  0
  184.6450  178.5320  142.5060 C   0  0  0  0  0  3  0  0  0  0  0  0
  184.1270  178.7230  143.6850 C   0  0  0  0  0  0  0  0  0  0  0  0
  184.4220  178.5780  146.0800 C   0  0  0  0  0  2  0  0  0  0  0  0
  185.8920  178.8900  145.8510 C   0  0  0  0  0  2  0  0  0  0  0  0
  186.6610  178.8900  147.1700 C   0  0  0  0  0  2  0  0  0  0  0  0
  187.8990  177.9890  147.1350 C   0  0  0  0  0  0  0  0  0  0  0  0
  187.4780  176.5310  147.1750 C   0  0  0  0  0  1  0  0  0  0  0  0
  188.7320  178.2590  148.3730 C   0  0  0  0  0  1  0  0  0  0  0  0
  188.7310  178.2220  145.8680 C   0  0  0  0  0  2  0  0  0  0  0  0
  188.8490  176.9830  144.9790 C   0  0  1  0  0  3  0  0  0  0  0  0
  187.6260  176.8770  144.0890 C   0  0  0  0  0  1  0  0  0  0  0  0
  190.0860  177.0880  144.1070 C   0  0  0  0  0  2  0  0  0  0  0  0
  191.8370  178.8300  143.9970 C   0  0  0  0  0  1  0  0  0  0  0  0
  191.2090  177.7660  144.8660 C   0  0  0  0  0  2  0  0  0  0  0  0
  182.9530  177.7130  140.8750 C   0  0  0  0  0  2  0  0  0  0  0  0
  181.5410  178.2010  140.5950 C   0  0  1  0  0  3  0  0  0  0  0  0
  180.8740  177.2780  139.7870 O   0  0  0  0  0  1  0  0  0  0  0  0
  180.7940  178.3570  141.9040 C   0  0  0  0  0  1  0  0  0  0  0  0
  1  3  1  0  0  0  0
  3  2  2  0  0  0  0
  4 11  1  0  0  0  0
  5  3  1  0  0  0  0
  5 28  1  1  0  0  0
  6 11  1  0  0  0  0
  6  1  2  0  0  0  0
  7  1  1  0  0  0  0
  8  7  2  0  0  0  0
  9 12  2  0  0  0  0
  9  8  1  0  0  0  0
 10  5  1  0  0  0  0
 11 10  2  0  0  0  0
 12  6  1  0  0  0  0
 13  4  1  0  0  0  0
 14 13  1  0  0  0  0
 15 16  1  0  0  0  0
 15 14  1  0  0  0  0
 16 17  1  0  0  0  0
 17 23  1  0  0  0  0
 18 24  1  0  0  0  0
 19 23  1  0  0  0  0
 20 22  2  0  0  0  0
 21 19  2  0  0  0  0
 21 20  1  0  0  0  0
 22 18  1  0  0  0  0
 23 18  2  0  0  0  0
 25 24  1  0  0  0  0
 27 25  1  0  0  0  0
 27 26  1  0  0  0  0
 29 30  3  0  0  0  0
 30 28  1  0  0  0  0
 31 29  1  0  0  0  0
 32 31  1  6  0  0  0
 32 34  1  0  0  0  0
 33 36  1  0  0  0  0
 34 35  2  0  0  0  0
 35 33  2  0  0  0  0
 37 36  1  0  0  0  0
 37 38  1  0  0  0  0
 39 38  1  0  0  0  0
 39 40  1  0  0  0  0
 39 41  1  0  0  0  0
 42 39  1  0  0  0  0
 43 44  1  6  0  0  0
 43 42  1  0  0  0  0
 45 47  1  0  0  0  0
 45 43  1  0  0  0  0
 46 47  1  0  0  0  0
 48 32  1  0  0  0  0
 49 48  1  0  0  0  0
 49 51  1  1  0  0  0
 50 49  1  0  0  0  0
M  END
>  <MODEL>
5

>  <REMARK>
 VINA RESULT:      -6.1      2.115      6.504
  Name = 
  24 active torsions:
  status: ('A' for Active; 'I' for Inactive)
    1  A    between atoms: C_1  and  C_45
    2  A    between atoms: C_1  and  C_46
    3  A    between atoms: C_2  and  C_14
    4  A    between atoms: C_2  and  C_46
    5  A    between atoms: C_5  and  O_8
    6  A    between atoms: C_5  and  C_24
    7  A    between atoms: O_8  and  C_44
    8  A    between atoms: C_9  and  C_23
    9  A    between atoms: C_9  and  C_35
   10  A    between atoms: C_9  and  C_47
   11  A    between atoms: C_11  and  C_23
   12  A    between atoms: O_12  and  C_29
   13  A    between atoms: O_12  and  C_51
   14  A    between atoms: C_14  and  C_36
   15  A    between atoms: N_16  and  C_24
   16  A    between atoms: C_17  and  C_18
   17  A    between atoms: C_17  and  C_40
   18  A    between atoms: C_19  and  C_34
   19  A    between atoms: C_19  and  C_36
   20  A    between atoms: C_22  and  C_47
   21  A    between atoms: C_26  and  C_29
   22  A    between atoms: C_43  and  C_45
   23  A    between atoms: C_44  and  C_48
   24  A    between atoms: C_48  and  C_49
                            x       y       z     vdW  Elec       q    Type
                         _______ _______ _______ _____ _____    ______ ____

>  <TORSDO>
F 24

$$$$
=
 OpenBabel10232408523D

 51 53  0  0  1  0  0  0  0  0999 V2000
  191.2500  176.6000  138.1480 C   0  0  0  0  0  0  0  0  0  0  0  0
  191.7280  177.4300  140.3160 O   0  0  0  0  0  0  0  0  0  0  0  0
  190.9270  177.3960  139.3430 C   0  0  0  0  0  0  0  0  0  0  0  0
  188.1920  177.3440  136.0410 N   0  0  0  0  0  2  0  0  0  0  0  0
  189.6590  178.2040  139.4040 C   0  0  1  0  0  3  0  0  0  0  0  0
  190.3590  176.5930  137.0650 C   0  0  0  0  0  0  0  0  0  0  0  0
  192.4400  175.8590  138.0780 C   0  0  0  0  0  3  0  0  0  0  0  0
  192.7420  175.1190  136.9320 C   0  0  0  0  0  3  0  0  0  0  0  0
  191.8560  175.1140  135.8500 C   0  0  0  0  0  3  0  0  0  0  0  0
  188.8260  178.0740  138.1980 N   0  0  0  0  0  0  0  0  0  0  0  0
  189.1080  177.3700  137.1400 C   0  0  0  0  0  0  0  0  0  0  0  0
  190.6680  175.8460  135.9170 C   0  0  0  0  0  3  0  0  0  0  0  0
  186.9640  178.1180  136.0310 C   0  0  0  0  0  2  0  0  0  0  0  0
  185.7770  177.2070  135.7980 C   0  0  0  0  0  2  0  0  0  0  0  0
  186.1870  175.8720  135.8410 O   0  0  0  0  0  0  0  0  0  0  0  0
  185.0040  175.1360  135.9610 C   0  0  0  0  0  2  0  0  0  0  0  0
  185.1180  174.1260  137.0940 C   0  0  0  0  0  2  0  0  0  0  0  0
  185.2490  171.7800  136.1310 C   0  0  0  0  0  0  0  0  0  0  0  0
  183.1320  172.6240  136.9650 C   0  0  0  0  0  3  0  0  0  0  0  0
  183.2670  170.3840  136.0540 C   0  0  0  0  0  3  0  0  0  0  0  0
  182.5180  171.4120  136.6330 C   0  0  0  0  0  3  0  0  0  0  0  0
  184.6290  170.5670  135.8060 C   0  0  0  0  0  3  0  0  0  0  0  0
  184.4950  172.8170  136.7180 C   0  0  0  0  0  0  0  0  0  0  0  0
  186.7130  171.9280  135.8780 C   0  0  0  0  0  2  0  0  0  0  0  0
  186.9370  172.1460  134.5190 O   0  0  0  0  0  0  0  0  0  0  0  0
  188.6530  170.4980  134.4890 C   0  0  0  0  0  1  0  0  0  0  0  0
  188.3090  171.9660  134.3530 C   0  0  0  0  0  2  0  0  0  0  0  0
  188.8530  177.8330  140.6420 C   0  0  0  0  0  2  0  0  0  0  0  0
  186.3120  178.5990  140.3500 C   0  0  0  0  0  0  0  0  0  0  0  0
  187.4580  178.2610  140.4990 C   0  0  0  0  0  0  0  0  0  0  0  0
  184.9090  178.9840  140.1340 C   0  0  0  0  0  2  0  0  0  0  0  0
  184.0820  178.8930  141.4180 C   0  0  2  0  0  3  0  0  0  0  0  0
  183.9570  178.4990  145.0000 C   0  0  0  0  0  3  0  0  0  0  0  0
  184.9640  178.8230  142.6210 C   0  0  0  0  0  3  0  0  0  0  0  0
  184.4540  178.6640  143.8080 C   0  0  0  0  0  0  0  0  0  0  0  0
  184.8610  178.4500  146.1810 C   0  0  0  0  0  2  0  0  0  0  0  0
  186.2440  178.9710  145.8240 C   0  0  0  0  0  2  0  0  0  0  0  0
  187.2370  178.7000  146.9500 C   0  0  0  0  0  2  0  0  0  0  0  0
  188.1550  177.5090  146.6590 C   0  0  0  0  0  0  0  0  0  0  0  0
  187.6320  176.7350  145.4610 C   0  0  0  0  0  1  0  0  0  0  0  0
  188.1310  176.5740  147.8530 C   0  0  0  0  0  1  0  0  0  0  0  0
  189.5890  177.9600  146.3600 C   0  0  0  0  0  2  0  0  0  0  0  0
  190.0460  177.6370  144.9370 C   0  0  1  0  0  3  0  0  0  0  0  0
  190.1610  178.9190  144.1350 C   0  0  0  0  0  1  0  0  0  0  0  0
  191.4010  176.9540  144.9710 C   0  0  0  0  0  2  0  0  0  0  0  0
  192.3420  175.1850  146.4190 C   0  0  0  0  0  1  0  0  0  0  0  0
  191.7660  176.5810  146.3950 C   0  0  0  0  0  2  0  0  0  0  0  0
  183.1220  177.7080  141.3730 C   0  0  0  0  0  2  0  0  0  0  0  0
  181.6840  178.1670  141.1890 C   0  0  1  0  0  3  0  0  0  0  0  0
  181.5450  179.4810  141.6420 O   0  0  0  0  0  1  0  0  0  0  0  0
  181.3190  178.1000  139.7190 C   0  0  0  0  0  1  0  0  0  0  0  0
  1  3  1  0  0  0  0
  3  5  1  0  0  0  0
  3  2  2  0  0  0  0
  4 11  1  0  0  0  0
  5 28  1  1  0  0  0
  6 11  1  0  0  0  0
  6  1  2  0  0  0  0
  7  1  1  0  0  0  0
  8  7  2  0  0  0  0
  9 12  2  0  0  0  0
  9  8  1  0  0  0  0
 10  5  1  0  0  0  0
 11 10  2  0  0  0  0
 12  6  1  0  0  0  0
 13  4  1  0  0  0  0
 14 15  1  0  0  0  0
 14 13  1  0  0  0  0
 15 16  1  0  0  0  0
 16 17  1  0  0  0  0
 18 23  1  0  0  0  0
 20 21  2  0  0  0  0
 21 19  1  0  0  0  0
 22 20  1  0  0  0  0
 22 18  2  0  0  0  0
 23 19  2  0  0  0  0
 23 17  1  0  0  0  0
 24 18  1  0  0  0  0
 25 24  1  0  0  0  0
 27 26  1  0  0  0  0
 27 25  1  0  0  0  0
 29 30  3  0  0  0  0
 30 28  1  0  0  0  0
 31 29  1  0  0  0  0
 32 31  1  6  0  0  0
 32 34  1  0  0  0  0
 33 36  1  0  0  0  0
 34 35  2  0  0  0  0
 35 33  2  0  0  0  0
 37 36  1  0  0  0  0
 37 38  1  0  0  0  0
 39 38  1  0  0  0  0
 39 41  1  0  0  0  0
 40 39  1  0  0  0  0
 42 39  1  0  0  0  0
 43 44  1  6  0  0  0
 43 45  1  0  0  0  0
 43 42  1  0  0  0  0
 45 47  1  0  0  0  0
 47 46  1  0  0  0  0
 48 32  1  0  0  0  0
 49 51  1  6  0  0  0
 49 48  1  0  0  0  0
 49 50  1  0  0  0  0
M  END
>  <MODEL>
6

>  <REMARK>
 VINA RESULT:      -5.9      2.158      7.061
  Name = 
  24 active torsions:
  status: ('A' for Active; 'I' for Inactive)
    1  A    between atoms: C_1  and  C_45
    2  A    between atoms: C_1  and  C_46
    3  A    between atoms: C_2  and  C_14
    4  A    between atoms: C_2  and  C_46
    5  A    between atoms: C_5  and  O_8
    6  A    between atoms: C_5  and  C_24
    7  A    between atoms: O_8  and  C_44
    8  A    between atoms: C_9  and  C_23
    9  A    between atoms: C_9  and  C_35
   10  A    between atoms: C_9  and  C_47
   11  A    between atoms: C_11  and  C_23
   12  A    between atoms: O_12  and  C_29
   13  A    between atoms: O_12  and  C_51
   14  A    between atoms: C_14  and  C_36
   15  A    between atoms: N_16  and  C_24
   16  A    between atoms: C_17  and  C_18
   17  A    between atoms: C_17  and  C_40
   18  A    between atoms: C_19  and  C_34
   19  A    between atoms: C_19  and  C_36
   20  A    between atoms: C_22  and  C_47
   21  A    between atoms: C_26  and  C_29
   22  A    between atoms: C_43  and  C_45
   23  A    between atoms: C_44  and  C_48
   24  A    between atoms: C_48  and  C_49
                            x       y       z     vdW  Elec       q    Type
                         _______ _______ _______ _____ _____    ______ ____

>  <TORSDO>
F 24

$$$$
=
 OpenBabel10232408523D

 51 53  0  0  1  0  0  0  0  0999 V2000
  183.1100  178.7670  142.2740 C   0  0  0  0  0  0  0  0  0  0  0  0
  181.3120  178.8260  140.7310 O   0  0  0  0  0  0  0  0  0  0  0  0
  182.5570  178.7460  140.9110 C   0  0  0  0  0  0  0  0  0  0  0  0
  186.8020  178.5160  141.4700 N   0  0  0  0  0  2  0  0  0  0  0  0
  183.4700  178.6650  139.7170 C   0  0  1  0  0  3  0  0  0  0  0  0
  184.4990  178.7030  142.4550 C   0  0  0  0  0  0  0  0  0  0  0  0
  182.2650  178.8620  143.3910 C   0  0  0  0  0  3  0  0  0  0  0  0
  182.8030  178.8960  144.6810 C   0  0  0  0  0  3  0  0  0  0  0  0
  184.1870  178.8350  144.8610 C   0  0  0  0  0  3  0  0  0  0  0  0
  184.8940  178.5840  140.0770 N   0  0  0  0  0  0  0  0  0  0  0  0
  185.3860  178.6020  141.2820 C   0  0  0  0  0  0  0  0  0  0  0  0
  185.0330  178.7370  143.7530 C   0  0  0  0  0  3  0  0  0  0  0  0
  187.7350  178.4570  140.3590 C   0  0  0  0  0  2  0  0  0  0  0  0
  189.1550  178.3700  140.8770 C   0  0  0  0  0  2  0  0  0  0  0  0
  189.2410  177.3860  141.8660 O   0  0  0  0  0  0  0  0  0  0  0  0
  189.7560  178.0450  142.9860 C   0  0  0  0  0  2  0  0  0  0  0  0
  189.0820  177.5420  144.2550 C   0  0  0  0  0  2  0  0  0  0  0  0
  190.0160  177.2360  146.5970 C   0  0  0  0  0  0  0  0  0  0  0  0
  191.1090  176.1630  144.7140 C   0  0  0  0  0  3  0  0  0  0  0  0
  191.9880  175.8670  146.9510 C   0  0  0  0  0  3  0  0  0  0  0  0
  192.0590  175.6110  145.5790 C   0  0  0  0  0  3  0  0  0  0  0  0
  190.9680  176.6750  147.4580 C   0  0  0  0  0  3  0  0  0  0  0  0
  190.0850  176.9760  145.2130 C   0  0  0  0  0  0  0  0  0  0  0  0
  188.9250  178.0700  147.1800 C   0  0  0  0  0  2  0  0  0  0  0  0
  188.7660  177.7640  148.5310 O   0  0  0  0  0  0  0  0  0  0  0  0
  186.6320  178.2520  147.5980 C   0  0  0  0  0  1  0  0  0  0  0  0
  187.4860  178.2140  148.8480 C   0  0  0  0  0  2  0  0  0  0  0  0
  183.0840  177.4870  138.8330 C   0  0  0  0  0  2  0  0  0  0  0  0
  184.9110  177.1150  136.9230 C   0  0  0  0  0  0  0  0  0  0  0  0
  184.0920  177.2660  137.7930 C   0  0  0  0  0  0  0  0  0  0  0  0
  185.9070  176.9710  135.8500 C   0  0  0  0  0  2  0  0  0  0  0  0
  186.8440  175.7860  136.0870 C   0  0  2  0  0  3  0  0  0  0  0  0
  189.8910  176.0020  138.0040 C   0  0  0  0  0  3  0  0  0  0  0  0
  188.2750  176.2000  135.9730 C   0  0  0  0  0  3  0  0  0  0  0  0
  189.0770  176.1020  136.9930 C   0  0  0  0  0  0  0  0  0  0  0  0
  191.3060  176.4400  137.8630 C   0  0  0  0  0  2  0  0  0  0  0  0
  191.9680  175.7510  136.6800 C   0  0  0  0  0  2  0  0  0  0  0  0
  192.8840  174.6240  137.1480 C   0  0  0  0  0  2  0  0  0  0  0  0
  194.0010  174.3130  136.1470 C   0  0  0  0  0  0  0  0  0  0  0  0
  193.4480  174.3310  134.7330 C   0  0  0  0  0  1  0  0  0  0  0  0
  194.5210  172.9140  136.4180 C   0  0  0  0  0  1  0  0  0  0  0  0
  195.1410  175.3340  136.2380 C   0  0  0  0  0  2  0  0  0  0  0  0
  196.5200  174.7360  135.9570 C   0  0  1  0  0  3  0  0  0  0  0  0
  197.2870  175.6440  135.0140 C   0  0  0  0  0  1  0  0  0  0  0  0
  197.3000  174.6010  137.2520 C   0  0  0  0  0  2  0  0  0  0  0  0
  198.0600  172.7060  135.8580 C   0  0  0  0  0  1  0  0  0  0  0  0
  198.1590  173.3530  137.2200 C   0  0  0  0  0  2  0  0  0  0  0  0
  186.5300  174.6350  135.1360 C   0  0  0  0  0  2  0  0  0  0  0  0
  186.6560  173.2900  135.8340 C   0  0  1  0  0  3  0  0  0  0  0  0
  187.9790  172.8470  135.7730 O   0  0  0  0  0  1  0  0  0  0  0  0
  186.2390  173.4350  137.2830 C   0  0  0  0  0  1  0  0  0  0  0  0
  1  6  2  0  0  0  0
  1  7  1  0  0  0  0
  2  3  2  0  0  0  0
  3  1  1  0  0  0  0
  5 28  1  1  0  0  0
  5 10  1  0  0  0  0
  5  3  1  0  0  0  0
  6 12  1  0  0  0  0
  7  8  2  0  0  0  0
  8  9  1  0  0  0  0
 10 11  2  0  0  0  0
 11  4  1  0  0  0  0
 11  6  1  0  0  0  0
 12  9  2  0  0  0  0
 13 14  1  0  0  0  0
 13  4  1  0  0  0  0
 14 15  1  0  0  0  0
 15 16  1  0  0  0  0
 16 17  1  0  0  0  0
 17 23  1  0  0  0  0
 18 24  1  0  0  0  0
 18 22  1  0  0  0  0
 19 23  1  0  0  0  0
 19 21  2  0  0  0  0
 20 22  2  0  0  0  0
 21 20  1  0  0  0  0
 23 18  2  0  0  0  0
 24 25  1  0  0  0  0
 25 27  1  0  0  0  0
 26 27  1  0  0  0  0
 29 30  3  0  0  0  0
 30 28  1  0  0  0  0
 31 32  1  0  0  0  0
 31 29  1  0  0  0  0
 32 48  1  6  0  0  0
 34 32  1  0  0  0  0
 34 35  2  0  0  0  0
 35 33  2  0  0  0  0
 36 33  1  0  0  0  0
 37 38  1  0  0  0  0
 37 36  1  0  0  0  0
 39 42  1  0  0  0  0
 39 41  1  0  0  0  0
 39 38  1  0  0  0  0
 40 39  1  0  0  0  0
 43 44  1  6  0  0  0
 43 42  1  0  0  0  0
 43 45  1  0  0  0  0
 46 47  1  0  0  0  0
 47 45  1  0  0  0  0
 48 49  1  0  0  0  0
 49 51  1  1  0  0  0
 50 49  1  0  0  0  0
M  END
>  <MODEL>
7

>  <REMARK>
 VINA RESULT:      -5.8      3.127      9.915
  Name = 
  24 active torsions:
  status: ('A' for Active; 'I' for Inactive)
    1  A    between atoms: C_1  and  C_45
    2  A    between atoms: C_1  and  C_46
    3  A    between atoms: C_2  and  C_14
    4  A    between atoms: C_2  and  C_46
    5  A    between atoms: C_5  and  O_8
    6  A    between atoms: C_5  and  C_24
    7  A    between atoms: O_8  and  C_44
    8  A    between atoms: C_9  and  C_23
    9  A    between atoms: C_9  and  C_35
   10  A    between atoms: C_9  and  C_47
   11  A    between atoms: C_11  and  C_23
   12  A    between atoms: O_12  and  C_29
   13  A    between atoms: O_12  and  C_51
   14  A    between atoms: C_14  and  C_36
   15  A    between atoms: N_16  and  C_24
   16  A    between atoms: C_17  and  C_18
   17  A    between atoms: C_17  and  C_40
   18  A    between atoms: C_19  and  C_34
   19  A    between atoms: C_19  and  C_36
   20  A    between atoms: C_22  and  C_47
   21  A    between atoms: C_26  and  C_29
   22  A    between atoms: C_43  and  C_45
   23  A    between atoms: C_44  and  C_48
   24  A    between atoms: C_48  and  C_49
                            x       y       z     vdW  Elec       q    Type
                         _______ _______ _______ _____ _____    ______ ____

>  <TORSDO>
F 24

$$$$
=
 OpenBabel10232408523D

 51 53  0  0  1  0  0  0  0  0999 V2000
  187.6920  177.7320  137.0550 C   0  0  0  0  0  0  0  0  0  0  0  0
  186.1340  177.9510  138.8270 O   0  0  0  0  0  0  0  0  0  0  0  0
  187.3230  177.7190  138.4790 C   0  0  0  0  0  0  0  0  0  0  0  0
  191.3710  176.8780  137.3400 N   0  0  0  0  0  2  0  0  0  0  0  0
  188.3480  177.3920  139.5320 C   0  0  1  0  0  3  0  0  0  0  0  0
  189.0140  177.4460  136.6830 C   0  0  0  0  0  0  0  0  0  0  0  0
  186.7360  178.0170  136.0670 C   0  0  0  0  0  3  0  0  0  0  0  0
  187.0950  178.0130  134.7170 C   0  0  0  0  0  3  0  0  0  0  0  0
  188.4120  177.7250  134.3460 C   0  0  0  0  0  3  0  0  0  0  0  0
  189.6890  177.1360  138.9800 N   0  0  0  0  0  0  0  0  0  0  0  0
  190.0190  177.1500  137.7210 C   0  0  0  0  0  0  0  0  0  0  0  0
  189.3690  177.4450  135.3250 C   0  0  0  0  0  3  0  0  0  0  0  0
  192.4000  176.5370  138.3050 C   0  0  0  0  0  2  0  0  0  0  0  0
  193.3310  175.4930  137.7250 C   0  0  0  0  0  2  0  0  0  0  0  0
  193.1170  175.3770  136.3490 O   0  0  0  0  0  0  0  0  0  0  0  0
  194.3400  174.9430  135.8300 C   0  0  0  0  0  2  0  0  0  0  0  0
  195.1280  174.1840  136.8890 C   0  0  0  0  0  2  0  0  0  0  0  0
  196.5440  172.4850  135.6410 C   0  0  0  0  0  0  0  0  0  0  0  0
  194.5690  171.7540  136.8470 C   0  0  0  0  0  3  0  0  0  0  0  0
  195.9300  170.1380  135.6630 C   0  0  0  0  0  3  0  0  0  0  0  0
  194.8180  170.4340  136.4570 C   0  0  0  0  0  3  0  0  0  0  0  0
  196.7910  171.1600  135.2580 C   0  0  0  0  0  3  0  0  0  0  0  0
  195.4250  172.7850  136.4440 C   0  0  0  0  0  0  0  0  0  0  0  0
  197.5030  173.5460  135.2130 C   0  0  0  0  0  2  0  0  0  0  0  0
  198.8000  173.1850  135.5780 O   0  0  0  0  0  0  0  0  0  0  0  0
  199.6870  173.5800  137.7500 C   0  0  0  0  0  1  0  0  0  0  0  0
  199.2170  174.1920  136.4460 C   0  0  0  0  0  2  0  0  0  0  0  0
  188.4120  178.5020  140.5720 C   0  0  0  0  0  2  0  0  0  0  0  0
  186.6500  178.0380  142.5240 C   0  0  0  0  0  0  0  0  0  0  0  0
  187.4590  178.2510  141.6570 C   0  0  0  0  0  0  0  0  0  0  0  0
  185.6380  177.7600  143.5550 C   0  0  0  0  0  2  0  0  0  0  0  0
  184.8650  179.0170  143.9580 C   0  0  2  0  0  3  0  0  0  0  0  0
  186.4200  178.1100  147.0820 C   0  0  0  0  0  3  0  0  0  0  0  0
  185.4270  179.6160  145.2050 C   0  0  0  0  0  3  0  0  0  0  0  0
  185.9200  178.8570  146.1420 C   0  0  0  0  0  0  0  0  0  0  0  0
  186.9580  178.7370  148.3210 C   0  0  0  0  0  2  0  0  0  0  0  0
  188.2340  178.0420  148.7670 C   0  0  0  0  0  2  0  0  0  0  0  0
  189.3760  178.3190  147.7930 C   0  0  0  0  0  2  0  0  0  0  0  0
  189.7210  177.1080  146.9210 C   0  0  0  0  0  0  0  0  0  0  0  0
  189.1140  175.8520  147.5200 C   0  0  0  0  0  1  0  0  0  0  0  0
  191.2270  176.9290  146.9120 C   0  0  0  0  0  1  0  0  0  0  0  0
  189.1920  177.2720  145.4920 C   0  0  0  0  0  2  0  0  0  0  0  0
  190.2280  176.9430  144.4160 C   0  0  1  0  0  3  0  0  0  0  0  0
  189.6640  175.9040  143.4660 C   0  0  0  0  0  1  0  0  0  0  0  0
  190.5730  178.1940  143.6300 C   0  0  0  0  0  2  0  0  0  0  0  0
  191.9160  177.6660  141.6220 C   0  0  0  0  0  1  0  0  0  0  0  0
  191.9790  178.0920  143.0700 C   0  0  0  0  0  2  0  0  0  0  0  0
  183.3760  178.7230  144.1160 C   0  0  0  0  0  2  0  0  0  0  0  0
  182.5850  179.2100  142.9120 C   0  0  1  0  0  3  0  0  0  0  0  0
  182.8480  178.3920  141.8110 O   0  0  0  0  0  1  0  0  0  0  0  0
  181.1050  179.1640  143.2320 C   0  0  0  0  0  1  0  0  0  0  0  0
  1  3  1  0  0  0  0
  3  2  2  0  0  0  0
  3  5  1  0  0  0  0
  4 11  1  0  0  0  0
  4 13  1  0  0  0  0
  5 28  1  1  0  0  0
  6  1  1  0  0  0  0
  6 11  1  0  0  0  0
  7  1  2  0  0  0  0
  8  7  1  0  0  0  0
  9  8  2  0  0  0  0
  9 12  1  0  0  0  0
 10  5  1  0  0  0  0
 11 10  2  0  0  0  0
 12  6  2  0  0  0  0
 14 13  1  0  0  0  0
 15 14  1  0  0  0  0
 16 15  1  0  0  0  0
 16 17  1  0  0  0  0
 18 23  1  0  0  0  0
 20 21  2  0  0  0  0
 21 19  1  0  0  0  0
 22 18  2  0  0  0  0
 22 20  1  0  0  0  0
 23 19  2  0  0  0  0
 23 17  1  0  0  0  0
 24 25  1  0  0  0  0
 24 18  1  0  0  0  0
 25 27  1  0  0  0  0
 27 26  1  0  0  0  0
 28 30  1  0  0  0  0
 29 31  1  0  0  0  0
 30 29  3  0  0  0  0
 32 31  1  1  0  0  0
 32 48  1  0  0  0  0
 32 34  1  0  0  0  0
 33 36  1  0  0  0  0
 34 35  2  0  0  0  0
 35 33  2  0  0  0  0
 36 37  1  0  0  0  0
 38 37  1  0  0  0  0
 39 40  1  0  0  0  0
 39 38  1  0  0  0  0
 41 39  1  0  0  0  0
 42 39  1  0  0  0  0
 43 44  1  6  0  0  0
 43 42  1  0  0  0  0
 45 43  1  0  0  0  0
 46 47  1  0  0  0  0
 47 45  1  0  0  0  0
 49 51  1  1  0  0  0
 49 48  1  0  0  0  0
 50 49  1  0  0  0  0
M  END
>  <MODEL>
8

>  <REMARK>
 VINA RESULT:      -5.7      3.476      9.953
  Name = 
  24 active torsions:
  status: ('A' for Active; 'I' for Inactive)
    1  A    between atoms: C_1  and  C_45
    2  A    between atoms: C_1  and  C_46
    3  A    between atoms: C_2  and  C_14
    4  A    between atoms: C_2  and  C_46
    5  A    between atoms: C_5  and  O_8
    6  A    between atoms: C_5  and  C_24
    7  A    between atoms: O_8  and  C_44
    8  A    between atoms: C_9  and  C_23
    9  A    between atoms: C_9  and  C_35
   10  A    between atoms: C_9  and  C_47
   11  A    between atoms: C_11  and  C_23
   12  A    between atoms: O_12  and  C_29
   13  A    between atoms: O_12  and  C_51
   14  A    between atoms: C_14  and  C_36
   15  A    between atoms: N_16  and  C_24
   16  A    between atoms: C_17  and  C_18
   17  A    between atoms: C_17  and  C_40
   18  A    between atoms: C_19  and  C_34
   19  A    between atoms: C_19  and  C_36
   20  A    between atoms: C_22  and  C_47
   21  A    between atoms: C_26  and  C_29
   22  A    between atoms: C_43  and  C_45
   23  A    between atoms: C_44  and  C_48
   24  A    between atoms: C_48  and  C_49
                            x       y       z     vdW  Elec       q    Type
                         _______ _______ _______ _____ _____    ______ ____

>  <TORSDO>
F 24

$$$$
=
 OpenBabel10232408523D

 51 53  0  0  1  0  0  0  0  0999 V2000
  185.7890  178.1110  138.7770 C   0  0  0  0  0  0  0  0  0  0  0  0
  188.1350  177.8330  138.5870 O   0  0  0  0  0  0  0  0  0  0  0  0
  186.9980  177.6590  138.0710 C   0  0  0  0  0  0  0  0  0  0  0  0
  183.1510  177.0050  136.2950 N   0  0  0  0  0  2  0  0  0  0  0  0
  186.8920  176.9540  136.7460 C   0  0  1  0  0  3  0  0  0  0  0  0
  184.5300  177.8860  138.2000 C   0  0  0  0  0  0  0  0  0  0  0  0
  185.8810  178.7520  140.0220 C   0  0  0  0  0  3  0  0  0  0  0  0
  184.7240  179.1640  140.6900 C   0  0  0  0  0  3  0  0  0  0  0  0
  183.4690  178.9370  140.1160 C   0  0  0  0  0  3  0  0  0  0  0  0
  185.5060  176.8150  136.2700 N   0  0  0  0  0  0  0  0  0  0  0  0
  184.4340  177.2150  136.8910 C   0  0  0  0  0  0  0  0  0  0  0  0
  183.3730  178.3030  138.8750 C   0  0  0  0  0  3  0  0  0  0  0  0
  182.9810  176.3130  135.0310 C   0  0  0  0  0  2  0  0  0  0  0  0
  182.5800  174.8730  135.2750 C   0  0  0  0  0  2  0  0  0  0  0  0
  182.5550  174.6140  136.6490 O   0  0  0  0  0  0  0  0  0  0  0  0
  182.9090  173.2660  136.7660 C   0  0  0  0  0  2  0  0  0  0  0  0
  184.2950  173.0270  136.1820 C   0  0  0  0  0  2  0  0  0  0  0  0
  185.5260  171.1890  134.9340 C   0  0  0  0  0  0  0  0  0  0  0  0
  183.5700  170.6420  136.2630 C   0  0  0  0  0  3  0  0  0  0  0  0
  184.7550  168.8940  135.0770 C   0  0  0  0  0  3  0  0  0  0  0  0
  183.7090  169.2950  135.9130 C   0  0  0  0  0  3  0  0  0  0  0  0
  185.6610  169.8380  134.5920 C   0  0  0  0  0  3  0  0  0  0  0  0
  184.4720  171.5960  135.7780 C   0  0  0  0  0  0  0  0  0  0  0  0
  186.5310  172.1650  134.4180 C   0  0  0  0  0  2  0  0  0  0  0  0
  187.7000  172.0820  135.1740 O   0  0  0  0  0  0  0  0  0  0  0  0
  188.5590  173.3920  136.9660 C   0  0  0  0  0  1  0  0  0  0  0  0
  187.9560  173.3910  135.5760 C   0  0  0  0  0  2  0  0  0  0  0  0
  187.7380  177.6630  135.6980 C   0  0  0  0  0  2  0  0  0  0  0  0
  190.1510  176.5310  135.5390 C   0  0  0  0  0  0  0  0  0  0  0  0
  189.0610  177.0410  135.5910 C   0  0  0  0  0  0  0  0  0  0  0  0
  191.4800  175.9000  135.5160 C   0  0  0  0  0  2  0  0  0  0  0  0
  191.7790  175.1410  136.8100 C   0  0  2  0  0  3  0  0  0  0  0  0
  192.4970  177.2300  139.6600 C   0  0  0  0  0  3  0  0  0  0  0  0
  191.1210  175.7940  137.9810 C   0  0  0  0  0  3  0  0  0  0  0  0
  191.8150  176.5090  138.8190 C   0  0  0  0  0  0  0  0  0  0  0  0
  191.8140  177.8540  140.8260 C   0  0  0  0  0  2  0  0  0  0  0  0
  191.9560  176.9830  142.0630 C   0  0  0  0  0  2  0  0  0  0  0  0
  190.5890  176.6160  142.6330 C   0  0  0  0  0  2  0  0  0  0  0  0
  190.3930  177.1040  144.0710 C   0  0  0  0  0  0  0  0  0  0  0  0
  190.4790  178.6190  144.1180 C   0  0  0  0  0  1  0  0  0  0  0  0
  191.5180  176.5550  144.9280 C   0  0  0  0  0  1  0  0  0  0  0  0
  189.0330  176.6750  144.6330 C   0  0  0  0  0  2  0  0  0  0  0  0
  188.0500  177.8340  144.8030 C   0  0  1  0  0  3  0  0  0  0  0  0
  186.8720  177.6440  143.8660 C   0  0  0  0  0  1  0  0  0  0  0  0
  187.5410  177.8770  146.2310 C   0  0  0  0  0  2  0  0  0  0  0  0
  188.2330  178.0130  148.6010 C   0  0  0  0  0  1  0  0  0  0  0  0
  188.6850  177.6620  147.2030 C   0  0  0  0  0  2  0  0  0  0  0  0
  193.2820  175.0040  137.0340 C   0  0  0  0  0  2  0  0  0  0  0  0
  194.0710  175.5820  135.8700 C   0  0  1  0  0  3  0  0  0  0  0  0
  194.8250  176.6740  136.3060 O   0  0  0  0  0  1  0  0  0  0  0  0
  194.9970  174.5200  135.3130 C   0  0  0  0  0  1  0  0  0  0  0  0
  1  7  1  0  0  0  0
  3  2  2  0  0  0  0
  3  1  1  0  0  0  0
  4 11  1  0  0  0  0
  5 28  1  6  0  0  0
  5  3  1  0  0  0  0
  6  1  2  0  0  0  0
  6 12  1  0  0  0  0
  7  8  2  0  0  0  0
  9  8  1  0  0  0  0
 10  5  1  0  0  0  0
 10 11  2  0  0  0  0
 11  6  1  0  0  0  0
 12  9  2  0  0  0  0
 13 14  1  0  0  0  0
 13  4  1  0  0  0  0
 14 15  1  0  0  0  0
 15 16  1  0  0  0  0
 17 16  1  0  0  0  0
 18 23  1  0  0  0  0
 20 21  2  0  0  0  0
 21 19  1  0  0  0  0
 22 18  2  0  0  0  0
 22 20  1  0  0  0  0
 23 17  1  0  0  0  0
 23 19  2  0  0  0  0
 24 18  1  0  0  0  0
 24 25  1  0  0  0  0
 25 27  1  0  0  0  0
 27 26  1  0  0  0  0
 29 30  3  0  0  0  0
 30 28  1  0  0  0  0
 31 29  1  0  0  0  0
 32 31  1  6  0  0  0
 32 48  1  0  0  0  0
 32 34  1  0  0  0  0
 33 36  1  0  0  0  0
 34 35  2  0  0  0  0
 35 33  2  0  0  0  0
 36 37  1  0  0  0  0
 37 38  1  0  0  0  0
 38 39  1  0  0  0  0
 39 40  1  0  0  0  0
 39 42  1  0  0  0  0
 39 41  1  0  0  0  0
 42 43  1  0  0  0  0
 43 44  1  6  0  0  0
 43 45  1  0  0  0  0
 45 47  1  0  0  0  0
 47 46  1  0  0  0  0
 49 51  1  1  0  0  0
 49 50  1  0  0  0  0
 49 48  1  0  0  0  0
M  END
>  <MODEL>
9

>  <REMARK>
 VINA RESULT:      -5.6      2.403      6.043
  Name = 
  24 active torsions:
  status: ('A' for Active; 'I' for Inactive)
    1  A    between atoms: C_1  and  C_45
    2  A    between atoms: C_1  and  C_46
    3  A    between atoms: C_2  and  C_14
    4  A    between atoms: C_2  and  C_46
    5  A    between atoms: C_5  and  O_8
    6  A    between atoms: C_5  and  C_24
    7  A    between atoms: O_8  and  C_44
    8  A    between atoms: C_9  and  C_23
    9  A    between atoms: C_9  and  C_35
   10  A    between atoms: C_9  and  C_47
   11  A    between atoms: C_11  and  C_23
   12  A    between atoms: O_12  and  C_29
   13  A    between atoms: O_12  and  C_51
   14  A    between atoms: C_14  and  C_36
   15  A    between atoms: N_16  and  C_24
   16  A    between atoms: C_17  and  C_18
   17  A    between atoms: C_17  and  C_40
   18  A    between atoms: C_19  and  C_34
   19  A    between atoms: C_19  and  C_36
   20  A    between atoms: C_22  and  C_47
   21  A    between atoms: C_26  and  C_29
   22  A    between atoms: C_43  and  C_45
   23  A    between atoms: C_44  and  C_48
   24  A    between atoms: C_48  and  C_49
                            x       y       z     vdW  Elec       q    Type
                         _______ _______ _______ _____ _____    ______ ____

>  <TORSDO>
F 24

$$$$
