=
 OpenBabel10232409203D

 30 32  0  0  1  0  0  0  0  0999 V2000
  188.7050  177.6340  144.7810 C   0  0  0  0  0  0  0  0  0  0  0  0
  188.4840  177.9850  148.5040 C   0  0  0  0  0  1  0  0  0  0  0  0
  188.7980  177.7200  147.0690 C   0  0  0  0  0  0  0  0  0  0  0  0
  187.8820  178.0790  145.9470 C   0  0  2  0  0  3  0  0  0  0  0  0
  189.9190  177.1660  146.6070 C   0  0  0  0  0  0  0  0  0  0  0  0
  189.8670  177.1140  145.1520 C   0  0  0  0  0  3  0  0  0  0  0  0
  191.6940  177.4650  148.1680 O   0  0  0  0  0  0  0  0  0  0  0  0
  191.4830  175.3300  147.3000 N   0  0  0  0  0  1  0  0  0  0  0  0
  191.0690  176.6880  147.4000 C   0  0  0  0  0  0  0  0  0  0  0  0
  188.2990  177.8040  143.4200 N   0  0  0  0  0  2  0  0  0  0  0  0
  189.2050  178.2850  142.3860 C   0  0  0  0  0  2  0  0  0  0  0  0
  189.5710  177.1510  141.4490 C   0  0  0  0  0  2  0  0  0  0  0  0
  191.0280  177.2670  141.0350 C   0  0  0  0  0  2  0  0  0  0  0  0
  191.1910  176.9690  139.5550 C   0  0  0  0  0  2  0  0  0  0  0  0
  189.8360  176.7000  138.9210 C   0  0  0  0  0  2  0  0  0  0  0  0
  189.6610  177.5390  137.6650 C   0  0  0  0  0  2  0  0  0  0  0  0
  187.7060  178.4820  138.8000 O   0  0  0  0  0  0  0  0  0  0  0  0
  188.7450  178.6400  137.9140 N   0  0  0  0  0  0  0  0  0  0  0  0
  188.9660  179.7600  137.4140 O   0  0  0  0  0  0  0  0  0  0  0  0
  186.5990  177.2630  146.0450 C   0  0  0  0  0  2  0  0  0  0  0  0
  185.7690  179.2950  147.1800 N   0  0  0  0  0  2  0  0  0  0  0  0
  185.7150  179.4730  145.7220 C   0  0  2  0  0  3  0  0  0  0  0  0
  184.5930  178.6580  145.1190 C   0  0  2  0  0  3  0  0  0  0  0  0
  185.4000  178.1660  146.3160 C   0  0  1  0  0  0  0  0  0  0  0  0
  185.0420  178.0920  143.7760 C   0  0  0  0  0  2  0  0  0  0  0  0
  184.1750  178.6220  142.6870 C   0  0  0  0  0  0  0  0  0  0  0  0
  182.9280  178.6760  142.8590 O   0  0  0  0  0  0  0  0  0  0  0  0
  184.7700  179.1090  141.4350 C   0  0  0  0  0  0  0  0  0  0  0  0
  184.1210  179.0440  140.3570 O   0  0  0  0  0  0  0  0  0  0  0  0
  186.0520  179.6450  141.4310 O   0  0  0  0  0  1  0  0  0  0  0  0
  1  6  2  0  0  0  0
  1  4  1  0  0  0  0
  3  2  1  0  0  0  0
  4 20  1  1  0  0  0
  4  3  1  0  0  0  0
  5  3  2  0  0  0  0
  5  9  1  0  0  0  0
  6  5  1  0  0  0  0
  8  9  1  0  0  0  0
  9  7  2  0  0  0  0
 10  1  1  0  0  0  0
 11 10  1  0  0  0  0
 12 11  1  0  0  0  0
 13 12  1  0  0  0  0
 14 13  1  0  0  0  0
 15 14  1  0  0  0  0
 16 18  1  0  0  0  0
 16 15  1  0  0  0  0
 18 17  2  0  0  0  0
 19 18  2  0  0  0  0
 22 24  1  0  0  0  0
 22 21  1  1  0  0  0
 23 25  1  6  0  0  0
 23 22  1  0  0  0  0
 23 24  1  0  0  0  0
 24 20  1  6  0  0  0
 24 21  1  0  0  0  0
 26 27  2  0  0  0  0
 26 25  1  0  0  0  0
 28 26  1  0  0  0  0
 29 28  2  0  0  0  0
 30 28  1  0  0  0  0
M  END
>  <MODEL>
1

>  <REMARK>
 VINA RESULT:      -7.7      0.000      0.000
  Name = 
  14 active torsions:
  status: ('A' for Active; 'I' for Inactive)
    1  A    between atoms: C_2  and  N_8
    2  A    between atoms: C_2  and  C_10
    3  A    between atoms: C_4  and  N_8
    4  A    between atoms: C_5  and  C_22
    5  A    between atoms: C_10  and  C_12
    6  A    between atoms: C_11  and  C_15
    7  A    between atoms: C_11  and  C_22
    8  A    between atoms: C_12  and  C_28
    9  A    between atoms: N_13  and  C_18
   10  A    between atoms: C_18  and  C_25
   11  A    between atoms: C_21  and  C_24
   12  A    between atoms: C_23  and  C_24
   13  A    between atoms: C_25  and  C_28
   14  A    between atoms: C_27  and  C_29
                            x       y       z     vdW  Elec       q    Type
                         _______ _______ _______ _____ _____    ______ ____

>  <TORSDO>
F 14

$$$$
=
 OpenBabel10232409203D

 30 32  0  0  1  0  0  0  0  0999 V2000
  188.6670  177.7420  144.5910 C   0  0  0  0  0  0  0  0  0  0  0  0
  188.7280  177.8500  148.3360 C   0  0  0  0  0  1  0  0  0  0  0  0
  188.9360  177.6860  146.8670 C   0  0  0  0  0  0  0  0  0  0  0  0
  187.9270  178.0880  145.8430 C   0  0  2  0  0  3  0  0  0  0  0  0
  190.0310  177.1950  146.2860 C   0  0  0  0  0  0  0  0  0  0  0  0
  189.8670  177.2330  144.8390 C   0  0  0  0  0  3  0  0  0  0  0  0
  191.6480  177.2140  148.0360 O   0  0  0  0  0  0  0  0  0  0  0  0
  191.9930  175.6330  146.3800 N   0  0  0  0  0  1  0  0  0  0  0  0
  191.2500  176.7020  146.9560 C   0  0  0  0  0  0  0  0  0  0  0  0
  188.1530  177.9860  143.2800 N   0  0  0  0  0  2  0  0  0  0  0  0
  188.4870  177.1460  142.1380 C   0  0  0  0  0  2  0  0  0  0  0  0
  189.1410  177.9810  141.0540 C   0  0  0  0  0  2  0  0  0  0  0  0
  188.6650  177.5250  139.6850 C   0  0  0  0  0  2  0  0  0  0  0  0
  189.7870  177.6240  138.6670 C   0  0  0  0  0  2  0  0  0  0  0  0
  190.8700  176.6030  138.9760 C   0  0  0  0  0  2  0  0  0  0  0  0
  191.7510  176.3780  137.7580 C   0  0  0  0  0  2  0  0  0  0  0  0
  194.1230  176.3720  137.1520 O   0  0  0  0  0  0  0  0  0  0  0  0
  193.1500  176.5720  138.1010 N   0  0  0  0  0  0  0  0  0  0  0  0
  193.4600  177.0270  139.2190 O   0  0  0  0  0  0  0  0  0  0  0  0
  186.6760  177.2290  145.9850 C   0  0  0  0  0  2  0  0  0  0  0  0
  185.8410  179.2140  147.1980 N   0  0  0  0  0  2  0  0  0  0  0  0
  185.7070  179.4140  145.7490 C   0  0  2  0  0  3  0  0  0  0  0  0
  184.5810  178.5730  145.1890 C   0  0  2  0  0  3  0  0  0  0  0  0
  185.4640  178.0880  146.3340 C   0  0  1  0  0  0  0  0  0  0  0  0
  184.9790  178.0450  143.8150 C   0  0  0  0  0  2  0  0  0  0  0  0
  184.0780  178.6150  142.7730 C   0  0  0  0  0  0  0  0  0  0  0  0
  182.9310  179.0200  143.1010 O   0  0  0  0  0  0  0  0  0  0  0  0
  184.5340  178.7330  141.3820 C   0  0  0  0  0  0  0  0  0  0  0  0
  183.9710  178.0690  140.4710 O   0  0  0  0  0  0  0  0  0  0  0  0
  185.5870  179.5800  141.0610 O   0  0  0  0  0  1  0  0  0  0  0  0
  1  6  2  0  0  0  0
  1  4  1  0  0  0  0
  3  2  1  0  0  0  0
  4 20  1  1  0  0  0
  4  3  1  0  0  0  0
  5  3  2  0  0  0  0
  5  9  1  0  0  0  0
  6  5  1  0  0  0  0
  8  9  1  0  0  0  0
  9  7  2  0  0  0  0
 10  1  1  0  0  0  0
 11 10  1  0  0  0  0
 12 11  1  0  0  0  0
 13 12  1  0  0  0  0
 14 15  1  0  0  0  0
 14 13  1  0  0  0  0
 16 18  1  0  0  0  0
 16 15  1  0  0  0  0
 17 18  2  0  0  0  0
 18 19  2  0  0  0  0
 22 24  1  0  0  0  0
 22 21  1  1  0  0  0
 23 25  1  6  0  0  0
 23 22  1  0  0  0  0
 23 24  1  0  0  0  0
 24 20  1  6  0  0  0
 24 21  1  0  0  0  0
 26 27  2  0  0  0  0
 26 25  1  0  0  0  0
 28 26  1  0  0  0  0
 29 28  2  0  0  0  0
 30 28  1  0  0  0  0
M  END
>  <MODEL>
2

>  <REMARK>
 VINA RESULT:      -7.4      1.892      2.059
  Name = 
  14 active torsions:
  status: ('A' for Active; 'I' for Inactive)
    1  A    between atoms: C_2  and  N_8
    2  A    between atoms: C_2  and  C_10
    3  A    between atoms: C_4  and  N_8
    4  A    between atoms: C_5  and  C_22
    5  A    between atoms: C_10  and  C_12
    6  A    between atoms: C_11  and  C_15
    7  A    between atoms: C_11  and  C_22
    8  A    between atoms: C_12  and  C_28
    9  A    between atoms: N_13  and  C_18
   10  A    between atoms: C_18  and  C_25
   11  A    between atoms: C_21  and  C_24
   12  A    between atoms: C_23  and  C_24
   13  A    between atoms: C_25  and  C_28
   14  A    between atoms: C_27  and  C_29
                            x       y       z     vdW  Elec       q    Type
                         _______ _______ _______ _____ _____    ______ ____

>  <TORSDO>
F 14

$$$$
=
 OpenBabel10232409203D

 30 32  0  0  1  0  0  0  0  0999 V2000
  187.6550  178.2590  141.2010 C   0  0  0  0  0  0  0  0  0  0  0  0
  186.7870  177.1640  144.6770 C   0  0  0  0  0  1  0  0  0  0  0  0
  186.9050  177.7330  143.3020 C   0  0  0  0  0  0  0  0  0  0  0  0
  188.0940  177.5220  142.4250 C   0  0  2  0  0  3  0  0  0  0  0  0
  185.9810  178.4650  142.6800 C   0  0  0  0  0  0  0  0  0  0  0  0
  186.4510  178.7980  141.3410 C   0  0  0  0  0  3  0  0  0  0  0  0
  183.6060  178.3290  142.8100 O   0  0  0  0  0  0  0  0  0  0  0  0
  184.5890  179.9100  144.1860 N   0  0  0  0  0  1  0  0  0  0  0  0
  184.6670  178.8780  143.2090 C   0  0  0  0  0  0  0  0  0  0  0  0
  188.4290  178.3240  140.0010 N   0  0  0  0  0  2  0  0  0  0  0  0
  189.1970  177.1930  139.4990 C   0  0  0  0  0  2  0  0  0  0  0  0
  189.9090  177.5770  138.2170 C   0  0  0  0  0  2  0  0  0  0  0  0
  189.1150  178.6380  137.4750 C   0  0  0  0  0  2  0  0  0  0  0  0
  188.6810  178.1280  136.1130 C   0  0  0  0  0  2  0  0  0  0  0  0
  187.1670  178.1920  135.9840 C   0  0  0  0  0  2  0  0  0  0  0  0
  186.5160  177.1070  136.8260 C   0  0  0  0  0  2  0  0  0  0  0  0
  185.6240  178.9720  138.1380 O   0  0  0  0  0  0  0  0  0  0  0  0
  185.4970  177.6780  137.6910 N   0  0  0  0  0  0  0  0  0  0  0  0
  184.4560  177.0380  137.9360 O   0  0  0  0  0  0  0  0  0  0  0  0
  189.3190  178.1860  143.0440 C   0  0  0  0  0  2  0  0  0  0  0  0
  191.5470  177.5110  142.2140 N   0  0  0  0  0  2  0  0  0  0  0  0
  191.6430  177.9630  143.6090 C   0  0  2  0  0  3  0  0  0  0  0  0
  191.0510  176.9380  144.5510 C   0  0  2  0  0  3  0  0  0  0  0  0
  190.4720  177.1950  143.1630 C   0  0  1  0  0  0  0  0  0  0  0  0
  190.3220  177.6520  145.6830 C   0  0  0  0  0  2  0  0  0  0  0  0
  190.3730  176.8240  146.9210 C   0  0  0  0  0  0  0  0  0  0  0  0
  189.2970  176.4480  147.4580 O   0  0  0  0  0  0  0  0  0  0  0  0
  191.6650  176.4230  147.4930 C   0  0  0  0  0  0  0  0  0  0  0  0
  192.2480  177.1650  148.3270 O   0  0  0  0  0  1  0  0  0  0  0  0
  192.2520  175.2200  147.1180 O   0  0  0  0  0  0  0  0  0  0  0  0
  1  6  2  0  0  0  0
  1  4  1  0  0  0  0
  3  2  1  0  0  0  0
  4 20  1  1  0  0  0
  4  3  1  0  0  0  0
  5  9  1  0  0  0  0
  5  3  2  0  0  0  0
  6  5  1  0  0  0  0
  7  9  2  0  0  0  0
  9  8  1  0  0  0  0
 10  1  1  0  0  0  0
 11 10  1  0  0  0  0
 12 11  1  0  0  0  0
 13 12  1  0  0  0  0
 14 13  1  0  0  0  0
 15 14  1  0  0  0  0
 15 16  1  0  0  0  0
 16 18  1  0  0  0  0
 18 19  2  0  0  0  0
 18 17  2  0  0  0  0
 21 24  1  0  0  0  0
 22 21  1  6  0  0  0
 22 23  1  0  0  0  0
 23 25  1  1  0  0  0
 24 20  1  6  0  0  0
 24 22  1  0  0  0  0
 24 23  1  0  0  0  0
 25 26  1  0  0  0  0
 26 27  2  0  0  0  0
 26 28  1  0  0  0  0
 28 29  1  0  0  0  0
 30 28  2  0  0  0  0
M  END
>  <MODEL>
3

>  <REMARK>
 VINA RESULT:      -7.2      2.230      6.269
  Name = 
  14 active torsions:
  status: ('A' for Active; 'I' for Inactive)
    1  A    between atoms: C_2  and  N_8
    2  A    between atoms: C_2  and  C_10
    3  A    between atoms: C_4  and  N_8
    4  A    between atoms: C_5  and  C_22
    5  A    between atoms: C_10  and  C_12
    6  A    between atoms: C_11  and  C_15
    7  A    between atoms: C_11  and  C_22
    8  A    between atoms: C_12  and  C_28
    9  A    between atoms: N_13  and  C_18
   10  A    between atoms: C_18  and  C_25
   11  A    between atoms: C_21  and  C_24
   12  A    between atoms: C_23  and  C_24
   13  A    between atoms: C_25  and  C_28
   14  A    between atoms: C_27  and  C_29
                            x       y       z     vdW  Elec       q    Type
                         _______ _______ _______ _____ _____    ______ ____

>  <TORSDO>
F 14

$$$$
=
 OpenBabel10232409203D

 30 32  0  0  1  0  0  0  0  0999 V2000
  185.7360  178.8910  142.0700 C   0  0  0  0  0  0  0  0  0  0  0  0
  186.9010  176.8820  145.0100 C   0  0  0  0  0  1  0  0  0  0  0  0
  186.2980  177.8180  144.0160 C   0  0  0  0  0  0  0  0  0  0  0  0
  186.6400  177.8080  142.5630 C   0  0  2  0  0  3  0  0  0  0  0  0
  185.3790  178.7480  144.2800 C   0  0  0  0  0  0  0  0  0  0  0  0
  185.0140  179.4290  143.0450 C   0  0  0  0  0  3  0  0  0  0  0  0
  183.5300  179.0160  145.7580 O   0  0  0  0  0  0  0  0  0  0  0  0
  185.6130  179.4100  146.6880 N   0  0  0  0  0  1  0  0  0  0  0  0
  184.7770  179.0580  145.5910 C   0  0  0  0  0  0  0  0  0  0  0  0
  185.6280  179.2610  140.6930 N   0  0  0  0  0  2  0  0  0  0  0  0
  184.5410  178.8030  139.8400 C   0  0  0  0  0  2  0  0  0  0  0  0
  185.0040  178.7370  138.3980 C   0  0  0  0  0  2  0  0  0  0  0  0
  184.9410  177.3060  137.8940 C   0  0  0  0  0  2  0  0  0  0  0  0
  186.2170  176.9390  137.1590 C   0  0  0  0  0  2  0  0  0  0  0  0
  186.7360  178.1350  136.3770 C   0  0  0  0  0  2  0  0  0  0  0  0
  188.1520  177.8760  135.8880 C   0  0  0  0  0  2  0  0  0  0  0  0
  188.9450  179.5860  137.4510 O   0  0  0  0  0  0  0  0  0  0  0  0
  189.1200  178.3580  136.8590 N   0  0  0  0  0  0  0  0  0  0  0  0
  190.0460  177.6140  137.2370 O   0  0  0  0  0  0  0  0  0  0  0  0
  188.1020  178.1970  142.3730 C   0  0  0  0  0  2  0  0  0  0  0  0
  189.2680  177.2180  140.4270 N   0  0  0  0  0  2  0  0  0  0  0  0
  190.2360  177.5490  141.4820 C   0  0  2  0  0  3  0  0  0  0  0  0
  190.1330  176.5750  142.6340 C   0  0  2  0  0  3  0  0  0  0  0  0
  188.9120  177.0210  141.8380 C   0  0  1  0  0  0  0  0  0  0  0  0
  190.3400  177.3210  143.9480 C   0  0  0  0  0  2  0  0  0  0  0  0
  191.2090  176.5200  144.8540 C   0  0  0  0  0  0  0  0  0  0  0  0
  191.9860  175.6570  144.3640 O   0  0  0  0  0  0  0  0  0  0  0  0
  191.1860  176.7540  146.3040 C   0  0  0  0  0  0  0  0  0  0  0  0
  192.2080  176.5180  147.0020 O   0  0  0  0  0  1  0  0  0  0  0  0
  190.0360  177.2380  146.9160 O   0  0  0  0  0  0  0  0  0  0  0  0
  1  4  1  0  0  0  0
  1  6  2  0  0  0  0
  3  5  2  0  0  0  0
  3  2  1  0  0  0  0
  4 20  1  1  0  0  0
  4  3  1  0  0  0  0
  5  9  1  0  0  0  0
  6  5  1  0  0  0  0
  9  7  2  0  0  0  0
  9  8  1  0  0  0  0
 10  1  1  0  0  0  0
 11 10  1  0  0  0  0
 12 11  1  0  0  0  0
 13 12  1  0  0  0  0
 14 13  1  0  0  0  0
 15 14  1  0  0  0  0
 16 15  1  0  0  0  0
 16 18  1  0  0  0  0
 18 19  2  0  0  0  0
 18 17  2  0  0  0  0
 21 24  1  0  0  0  0
 22 21  1  6  0  0  0
 22 24  1  0  0  0  0
 22 23  1  0  0  0  0
 23 25  1  1  0  0  0
 24 20  1  1  0  0  0
 24 23  1  0  0  0  0
 25 26  1  0  0  0  0
 26 28  1  0  0  0  0
 27 26  2  0  0  0  0
 28 30  2  0  0  0  0
 28 29  1  0  0  0  0
M  END
>  <MODEL>
4

>  <REMARK>
 VINA RESULT:      -7.2      2.545      6.067
  Name = 
  14 active torsions:
  status: ('A' for Active; 'I' for Inactive)
    1  A    between atoms: C_2  and  N_8
    2  A    between atoms: C_2  and  C_10
    3  A    between atoms: C_4  and  N_8
    4  A    between atoms: C_5  and  C_22
    5  A    between atoms: C_10  and  C_12
    6  A    between atoms: C_11  and  C_15
    7  A    between atoms: C_11  and  C_22
    8  A    between atoms: C_12  and  C_28
    9  A    between atoms: N_13  and  C_18
   10  A    between atoms: C_18  and  C_25
   11  A    between atoms: C_21  and  C_24
   12  A    between atoms: C_23  and  C_24
   13  A    between atoms: C_25  and  C_28
   14  A    between atoms: C_27  and  C_29
                            x       y       z     vdW  Elec       q    Type
                         _______ _______ _______ _____ _____    ______ ____

>  <TORSDO>
F 14

$$$$
=
 OpenBabel10232409203D

 30 32  0  0  1  0  0  0  0  0999 V2000
  187.7590  177.4300  143.8630 C   0  0  0  0  0  0  0  0  0  0  0  0
  191.2130  176.0730  143.3460 C   0  0  0  0  0  1  0  0  0  0  0  0
  189.9190  176.6660  143.7970 C   0  0  1  0  0  3  0  0  0  0  0  0
  188.7450  176.8610  142.8950 C   0  0  2  0  0  3  0  0  0  0  0  0
  189.6350  177.0660  145.0370 C   0  0  0  0  0  0  0  0  0  0  0  0
  188.2610  177.5480  145.0860 C   0  0  0  0  0  3  0  0  0  0  0  0
  191.7480  177.3160  146.1090 O   0  0  0  0  0  0  0  0  0  0  0  0
  190.0090  176.6510  147.4830 N   0  0  0  0  0  1  0  0  0  0  0  0
  190.5280  177.0240  146.2120 C   0  0  0  0  0  0  0  0  0  0  0  0
  186.4110  177.7560  143.5150 N   0  0  0  0  0  0  0  0  0  0  0  0
  185.4720  178.3330  144.4660 C   0  0  0  0  0  2  0  0  0  0  0  0
  184.6290  179.3930  143.7860 C   0  0  0  0  0  2  0  0  0  0  0  0
  183.1540  179.0640  143.9380 C   0  0  0  0  0  2  0  0  0  0  0  0
  182.5300  178.7610  142.5880 C   0  0  0  0  0  2  0  0  0  0  0  0
  183.5960  178.7550  141.5050 C   0  0  0  0  0  2  0  0  0  0  0  0
  182.9610  178.5810  140.1340 C   0  0  0  0  0  2  0  0  0  0  0  0
  182.3350  180.3650  138.5780 O   0  0  0  0  0  0  0  0  0  0  0  0
  183.3160  179.6920  139.2660 N   0  0  0  0  0  0  0  0  0  0  0  0
  184.4910  180.1060  139.2320 O   0  0  0  0  0  0  0  0  0  0  0  0
  189.0880  177.8780  141.8140 C   0  0  0  0  0  2  0  0  0  0  0  0
  187.4770  178.4890  140.0410 N   0  0  0  0  0  2  0  0  0  0  0  0
  188.8470  178.5200  139.5110 C   0  0  2  0  0  3  0  0  0  0  0  0
  189.3890  177.1190  139.3320 C   0  0  2  0  0  3  0  0  0  0  0  0
  188.4560  177.4870  140.4810 C   0  0  1  0  0  0  0  0  0  0  0  0
  190.8680  177.0970  139.6980 C   0  0  0  0  0  2  0  0  0  0  0  0
  191.6630  176.5490  138.5630 C   0  0  0  0  0  0  0  0  0  0  0  0
  191.0700  175.9710  137.6140 O   0  0  0  0  0  0  0  0  0  0  0  0
  193.1230  176.7080  138.5340 C   0  0  0  0  0  0  0  0  0  0  0  0
  193.7460  177.0440  139.5770 O   0  0  0  0  0  1  0  0  0  0  0  0
  193.8270  176.4890  137.3570 O   0  0  0  0  0  0  0  0  0  0  0  0
  1  6  1  0  0  0  0
  3  2  1  1  0  0  0
  3  5  1  0  0  0  0
  4 20  1  6  0  0  0
  4  3  1  0  0  0  0
  4  1  1  0  0  0  0
  5  6  2  0  0  0  0
  5  9  1  0  0  0  0
  7  9  2  0  0  0  0
  9  8  1  0  0  0  0
 10  1  2  0  0  0  0
 10 11  1  0  0  0  0
 12 13  1  0  0  0  0
 12 11  1  0  0  0  0
 14 13  1  0  0  0  0
 15 14  1  0  0  0  0
 16 15  1  0  0  0  0
 17 18  2  0  0  0  0
 18 16  1  0  0  0  0
 19 18  2  0  0  0  0
 21 24  1  0  0  0  0
 22 21  1  6  0  0  0
 22 24  1  0  0  0  0
 23 22  1  0  0  0  0
 23 25  1  1  0  0  0
 23 24  1  0  0  0  0
 24 20  1  1  0  0  0
 26 25  1  0  0  0  0
 27 26  2  0  0  0  0
 28 26  1  0  0  0  0
 28 29  1  0  0  0  0
 30 28  2  0  0  0  0
M  END
>  <MODEL>
5

>  <REMARK>
 VINA RESULT:      -7.1      2.528      6.369
  Name = 
  14 active torsions:
  status: ('A' for Active; 'I' for Inactive)
    1  A    between atoms: C_2  and  N_8
    2  A    between atoms: C_2  and  C_10
    3  A    between atoms: C_4  and  N_8
    4  A    between atoms: C_5  and  C_22
    5  A    between atoms: C_10  and  C_12
    6  A    between atoms: C_11  and  C_15
    7  A    between atoms: C_11  and  C_22
    8  A    between atoms: C_12  and  C_28
    9  A    between atoms: N_13  and  C_18
   10  A    between atoms: C_18  and  C_25
   11  A    between atoms: C_21  and  C_24
   12  A    between atoms: C_23  and  C_24
   13  A    between atoms: C_25  and  C_28
   14  A    between atoms: C_27  and  C_29
                            x       y       z     vdW  Elec       q    Type
                         _______ _______ _______ _____ _____    ______ ____

>  <TORSDO>
F 14

$$$$
=
 OpenBabel10232409203D

 30 32  0  0  1  0  0  0  0  0999 V2000
  187.9860  177.2770  144.5580 C   0  0  0  0  0  0  0  0  0  0  0  0
  191.0300  176.8430  146.6980 C   0  0  0  0  0  1  0  0  0  0  0  0
  189.7030  177.1020  146.0670 C   0  0  0  0  0  0  0  0  0  0  0  0
  189.4390  176.9310  144.6070 C   0  0  2  0  0  3  0  0  0  0  0  0
  188.5970  177.4840  146.7060 C   0  0  0  0  0  0  0  0  0  0  0  0
  187.5020  177.5930  145.7520 C   0  0  0  0  0  3  0  0  0  0  0  0
  187.5620  177.1620  148.8280 O   0  0  0  0  0  0  0  0  0  0  0  0
  189.3200  178.6680  148.7970 N   0  0  0  0  0  1  0  0  0  0  0  0
  188.4500  177.7450  148.1520 C   0  0  0  0  0  0  0  0  0  0  0  0
  187.2030  177.2200  143.3640 N   0  0  0  0  0  2  0  0  0  0  0  0
  186.3990  178.3410  142.8980 C   0  0  0  0  0  2  0  0  0  0  0  0
  184.9530  177.9130  142.7400 C   0  0  0  0  0  2  0  0  0  0  0  0
  184.0260  179.0490  143.1360 C   0  0  0  0  0  2  0  0  0  0  0  0
  182.6490  178.8550  142.5250 C   0  0  0  0  0  2  0  0  0  0  0  0
  182.7610  178.1230  141.1970 C   0  0  0  0  0  2  0  0  0  0  0  0
  182.3600  179.0370  140.0510 C   0  0  0  0  0  2  0  0  0  0  0  0
  184.5280  180.0030  139.4480 O   0  0  0  0  0  0  0  0  0  0  0  0
  183.4650  179.1970  139.1200 N   0  0  0  0  0  0  0  0  0  0  0  0
  183.5030  178.5180  138.0750 O   0  0  0  0  0  0  0  0  0  0  0  0
  190.2610  177.9390  143.8120 C   0  0  0  0  0  2  0  0  0  0  0  0
  191.6550  175.9200  143.5130 N   0  0  0  0  0  2  0  0  0  0  0  0
  190.6650  176.0160  142.4310 C   0  0  2  0  0  3  0  0  0  0  0  0
  191.0330  177.1130  141.4570 C   0  0  2  0  0  3  0  0  0  0  0  0
  191.3040  177.2320  142.9530 C   0  0  1  0  0  0  0  0  0  0  0  0
  189.7670  177.8180  140.9840 C   0  0  0  0  0  2  0  0  0  0  0  0
  189.7140  177.8210  139.4950 C   0  0  0  0  0  0  0  0  0  0  0  0
  190.5690  177.1620  138.8450 O   0  0  0  0  0  0  0  0  0  0  0  0
  188.6560  178.5570  138.7910 C   0  0  0  0  0  0  0  0  0  0  0  0
  187.4450  178.3590  139.0790 O   0  0  0  0  0  1  0  0  0  0  0  0
  188.9830  179.4790  137.8050 O   0  0  0  0  0  0  0  0  0  0  0  0
  1  4  1  0  0  0  0
  1  6  2  0  0  0  0
  3  2  1  0  0  0  0
  3  5  2  0  0  0  0
  4 20  1  6  0  0  0
  4  3  1  0  0  0  0
  5  9  1  0  0  0  0
  6  5  1  0  0  0  0
  9  8  1  0  0  0  0
  9  7  2  0  0  0  0
 10  1  1  0  0  0  0
 11 10  1  0  0  0  0
 12 11  1  0  0  0  0
 12 13  1  0  0  0  0
 14 13  1  0  0  0  0
 15 14  1  0  0  0  0
 16 15  1  0  0  0  0
 18 17  2  0  0  0  0
 18 16  1  0  0  0  0
 19 18  2  0  0  0  0
 22 24  1  0  0  0  0
 22 21  1  6  0  0  0
 23 25  1  1  0  0  0
 23 22  1  0  0  0  0
 23 24  1  0  0  0  0
 24 21  1  0  0  0  0
 24 20  1  1  0  0  0
 26 25  1  0  0  0  0
 27 26  2  0  0  0  0
 28 29  1  0  0  0  0
 28 26  1  0  0  0  0
 30 28  2  0  0  0  0
M  END
>  <MODEL>
6

>  <REMARK>
 VINA RESULT:      -7.0      2.159      5.402
  Name = 
  14 active torsions:
  status: ('A' for Active; 'I' for Inactive)
    1  A    between atoms: C_2  and  N_8
    2  A    between atoms: C_2  and  C_10
    3  A    between atoms: C_4  and  N_8
    4  A    between atoms: C_5  and  C_22
    5  A    between atoms: C_10  and  C_12
    6  A    between atoms: C_11  and  C_15
    7  A    between atoms: C_11  and  C_22
    8  A    between atoms: C_12  and  C_28
    9  A    between atoms: N_13  and  C_18
   10  A    between atoms: C_18  and  C_25
   11  A    between atoms: C_21  and  C_24
   12  A    between atoms: C_23  and  C_24
   13  A    between atoms: C_25  and  C_28
   14  A    between atoms: C_27  and  C_29
                            x       y       z     vdW  Elec       q    Type
                         _______ _______ _______ _____ _____    ______ ____

>  <TORSDO>
F 14

$$$$
=
 OpenBabel10232409203D

 30 32  0  0  1  0  0  0  0  0999 V2000
  187.6830  178.3610  141.0830 C   0  0  0  0  0  0  0  0  0  0  0  0
  186.8510  177.0820  144.5050 C   0  0  0  0  0  1  0  0  0  0  0  0
  186.9530  177.7190  143.1590 C   0  0  0  0  0  0  0  0  0  0  0  0
  188.1420  177.5740  142.2680 C   0  0  2  0  0  3  0  0  0  0  0  0
  186.0120  178.4620  142.5760 C   0  0  0  0  0  0  0  0  0  0  0  0
  186.4690  178.8680  141.2530 C   0  0  0  0  0  3  0  0  0  0  0  0
  183.6440  178.2450  142.7350 O   0  0  0  0  0  0  0  0  0  0  0  0
  184.5930  179.8350  144.1240 N   0  0  0  0  0  1  0  0  0  0  0  0
  184.6920  178.8220  143.1290 C   0  0  0  0  0  0  0  0  0  0  0  0
  188.4500  178.5000  139.8850 N   0  0  0  0  0  2  0  0  0  0  0  0
  187.9760  178.0310  138.5910 C   0  0  0  0  0  2  0  0  0  0  0  0
  188.7670  176.8110  138.1590 C   0  0  0  0  0  2  0  0  0  0  0  0
  190.0300  176.6850  138.9940 C   0  0  0  0  0  2  0  0  0  0  0  0
  191.2640  176.7280  138.1110 C   0  0  0  0  0  2  0  0  0  0  0  0
  191.8340  175.3300  137.9350 C   0  0  0  0  0  2  0  0  0  0  0  0
  191.6350  174.8500  136.5070 C   0  0  0  0  0  2  0  0  0  0  0  0
  189.9410  173.6760  135.1840 O   0  0  0  0  0  0  0  0  0  0  0  0
  190.4570  174.0020  136.4150 N   0  0  0  0  0  0  0  0  0  0  0  0
  189.9830  173.4810  137.4430 O   0  0  0  0  0  0  0  0  0  0  0  0
  189.3560  178.2320  142.9150 C   0  0  0  0  0  2  0  0  0  0  0  0
  191.5900  177.5670  142.0940 N   0  0  0  0  0  2  0  0  0  0  0  0
  191.6760  178.0090  143.4920 C   0  0  2  0  0  3  0  0  0  0  0  0
  191.0810  176.9760  144.4230 C   0  0  2  0  0  3  0  0  0  0  0  0
  190.5100  177.2420  143.0340 C   0  0  1  0  0  0  0  0  0  0  0  0
  190.3430  177.6810  145.5560 C   0  0  0  0  0  2  0  0  0  0  0  0
  190.3690  176.8350  146.7820 C   0  0  0  0  0  0  0  0  0  0  0  0
  189.2830  176.4740  147.3080 O   0  0  0  0  0  0  0  0  0  0  0  0
  191.6490  176.3980  147.3550 C   0  0  0  0  0  0  0  0  0  0  0  0
  192.1910  175.3320  146.9580 O   0  0  0  0  0  0  0  0  0  0  0  0
  192.2710  177.1570  148.3380 O   0  0  0  0  0  1  0  0  0  0  0  0
  1  6  2  0  0  0  0
  1  4  1  0  0  0  0
  3  2  1  0  0  0  0
  4 20  1  1  0  0  0
  4  3  1  0  0  0  0
  5  9  1  0  0  0  0
  5  3  2  0  0  0  0
  6  5  1  0  0  0  0
  7  9  2  0  0  0  0
  9  8  1  0  0  0  0
 10  1  1  0  0  0  0
 11 10  1  0  0  0  0
 12 11  1  0  0  0  0
 12 13  1  0  0  0  0
 14 13  1  0  0  0  0
 15 14  1  0  0  0  0
 16 15  1  0  0  0  0
 17 18  2  0  0  0  0
 18 16  1  0  0  0  0
 18 19  2  0  0  0  0
 21 24  1  0  0  0  0
 22 21  1  6  0  0  0
 22 23  1  0  0  0  0
 23 25  1  1  0  0  0
 24 20  1  6  0  0  0
 24 22  1  0  0  0  0
 24 23  1  0  0  0  0
 25 26  1  0  0  0  0
 26 27  2  0  0  0  0
 26 28  1  0  0  0  0
 28 30  1  0  0  0  0
 29 28  2  0  0  0  0
M  END
>  <MODEL>
7

>  <REMARK>
 VINA RESULT:      -6.9      2.621      6.348
  Name = 
  14 active torsions:
  status: ('A' for Active; 'I' for Inactive)
    1  A    between atoms: C_2  and  N_8
    2  A    between atoms: C_2  and  C_10
    3  A    between atoms: C_4  and  N_8
    4  A    between atoms: C_5  and  C_22
    5  A    between atoms: C_10  and  C_12
    6  A    between atoms: C_11  and  C_15
    7  A    between atoms: C_11  and  C_22
    8  A    between atoms: C_12  and  C_28
    9  A    between atoms: N_13  and  C_18
   10  A    between atoms: C_18  and  C_25
   11  A    between atoms: C_21  and  C_24
   12  A    between atoms: C_23  and  C_24
   13  A    between atoms: C_25  and  C_28
   14  A    between atoms: C_27  and  C_29
                            x       y       z     vdW  Elec       q    Type
                         _______ _______ _______ _____ _____    ______ ____

>  <TORSDO>
F 14

$$$$
=
 OpenBabel10232409203D

 30 32  0  0  1  0  0  0  0  0999 V2000
  187.1370  178.4190  141.5410 C   0  0  0  0  0  0  0  0  0  0  0  0
  186.9130  176.9440  144.9780 C   0  0  0  0  0  1  0  0  0  0  0  0
  186.7880  177.6680  143.6780 C   0  0  0  0  0  0  0  0  0  0  0  0
  187.7720  177.5330  142.5640 C   0  0  2  0  0  3  0  0  0  0  0  0
  185.7950  178.4890  143.3370 C   0  0  0  0  0  0  0  0  0  0  0  0
  186.0090  178.9650  141.9770 C   0  0  0  0  0  3  0  0  0  0  0  0
  184.7780  179.4720  145.2540 O   0  0  0  0  0  0  0  0  0  0  0  0
  183.3150  178.5490  143.7160 N   0  0  0  0  0  1  0  0  0  0  0  0
  184.6290  178.8680  144.1600 C   0  0  0  0  0  0  0  0  0  0  0  0
  187.6640  178.6070  140.2250 N   0  0  0  0  0  2  0  0  0  0  0  0
  188.3500  177.5490  139.4970 C   0  0  0  0  0  2  0  0  0  0  0  0
  189.6760  178.0600  138.9670 C   0  0  0  0  0  2  0  0  0  0  0  0
  190.0920  177.2620  137.7430 C   0  0  0  0  0  2  0  0  0  0  0  0
  190.9740  176.0920  138.1400 C   0  0  0  0  0  2  0  0  0  0  0  0
  192.4120  176.5530  138.3140 C   0  0  0  0  0  2  0  0  0  0  0  0
  193.3270  175.8170  137.3480 C   0  0  0  0  0  2  0  0  0  0  0  0
  194.3080  173.6080  137.7380 O   0  0  0  0  0  0  0  0  0  0  0  0
  194.2290  174.9380  138.0740 N   0  0  0  0  0  0  0  0  0  0  0  0
  195.0110  175.4100  138.9220 O   0  0  0  0  0  0  0  0  0  0  0  0
  189.1230  178.0910  142.9960 C   0  0  0  0  0  2  0  0  0  0  0  0
  191.1340  177.1050  141.9510 N   0  0  0  0  0  2  0  0  0  0  0  0
  191.4660  177.6460  143.2770 C   0  0  2  0  0  3  0  0  0  0  0  0
  190.9060  176.7680  144.3740 C   0  0  2  0  0  3  0  0  0  0  0  0
  190.1730  176.9850  143.0550 C   0  0  1  0  0  0  0  0  0  0  0  0
  190.4170  177.6440  145.5220 C   0  0  0  0  0  2  0  0  0  0  0  0
  190.4750  176.8820  146.8020 C   0  0  0  0  0  0  0  0  0  0  0  0
  189.4110  176.6590  147.4380 O   0  0  0  0  0  0  0  0  0  0  0  0
  191.7560  176.3680  147.3010 C   0  0  0  0  0  0  0  0  0  0  0  0
  192.3190  176.9140  148.2880 O   0  0  0  0  0  1  0  0  0  0  0  0
  192.3570  175.2740  146.6900 O   0  0  0  0  0  0  0  0  0  0  0  0
  1  6  2  0  0  0  0
  1  4  1  0  0  0  0
  3  2  1  0  0  0  0
  4 20  1  1  0  0  0
  4  3  1  0  0  0  0
  5  3  2  0  0  0  0
  5  9  1  0  0  0  0
  6  5  1  0  0  0  0
  8  9  1  0  0  0  0
  9  7  2  0  0  0  0
 10  1  1  0  0  0  0
 11 10  1  0  0  0  0
 12 11  1  0  0  0  0
 13 14  1  0  0  0  0
 13 12  1  0  0  0  0
 14 15  1  0  0  0  0
 16 18  1  0  0  0  0
 16 15  1  0  0  0  0
 17 18  2  0  0  0  0
 18 19  2  0  0  0  0
 21 24  1  0  0  0  0
 22 21  1  6  0  0  0
 22 23  1  0  0  0  0
 23 25  1  1  0  0  0
 24 20  1  6  0  0  0
 24 22  1  0  0  0  0
 24 23  1  0  0  0  0
 25 26  1  0  0  0  0
 26 28  1  0  0  0  0
 26 27  2  0  0  0  0
 28 29  1  0  0  0  0
 30 28  2  0  0  0  0
M  END
>  <MODEL>
8

>  <REMARK>
 VINA RESULT:      -6.9      3.045      6.395
  Name = 
  14 active torsions:
  status: ('A' for Active; 'I' for Inactive)
    1  A    between atoms: C_2  and  N_8
    2  A    between atoms: C_2  and  C_10
    3  A    between atoms: C_4  and  N_8
    4  A    between atoms: C_5  and  C_22
    5  A    between atoms: C_10  and  C_12
    6  A    between atoms: C_11  and  C_15
    7  A    between atoms: C_11  and  C_22
    8  A    between atoms: C_12  and  C_28
    9  A    between atoms: N_13  and  C_18
   10  A    between atoms: C_18  and  C_25
   11  A    between atoms: C_21  and  C_24
   12  A    between atoms: C_23  and  C_24
   13  A    between atoms: C_25  and  C_28
   14  A    between atoms: C_27  and  C_29
                            x       y       z     vdW  Elec       q    Type
                         _______ _______ _______ _____ _____    ______ ____

>  <TORSDO>
F 14

$$$$
=
 OpenBabel10232409203D

 30 32  0  0  1  0  0  0  0  0999 V2000
  184.9080  178.6710  143.2570 C   0  0  0  0  0  0  0  0  0  0  0  0
  184.3580  179.4780  139.6400 C   0  0  0  0  0  1  0  0  0  0  0  0
  184.3220  179.0900  141.0810 C   0  0  0  0  0  0  0  0  0  0  0  0
  185.5270  179.0880  141.9630 C   0  0  2  0  0  3  0  0  0  0  0  0
  183.2350  178.7270  141.7630 C   0  0  0  0  0  0  0  0  0  0  0  0
  183.6010  178.4640  143.1490 C   0  0  0  0  0  3  0  0  0  0  0  0
  181.0040  179.5140  141.4840 O   0  0  0  0  0  0  0  0  0  0  0  0
  181.4770  177.4860  140.4740 N   0  0  0  0  0  1  0  0  0  0  0  0
  181.8560  178.6180  141.2490 C   0  0  0  0  0  0  0  0  0  0  0  0
  185.6390  178.5610  144.4810 N   0  0  0  0  0  2  0  0  0  0  0  0
  185.1860  179.1720  145.7230 C   0  0  0  0  0  2  0  0  0  0  0  0
  185.6990  178.3790  146.9090 C   0  0  0  0  0  2  0  0  0  0  0  0
  187.1430  177.9660  146.6760 C   0  0  0  0  0  2  0  0  0  0  0  0
  187.8700  177.7910  147.9970 C   0  0  0  0  0  2  0  0  0  0  0  0
  189.3560  177.5800  147.7560 C   0  0  0  0  0  2  0  0  0  0  0  0
  189.6160  177.2550  146.2940 C   0  0  0  0  0  2  0  0  0  0  0  0
  191.5240  176.8820  144.8060 O   0  0  0  0  0  0  0  0  0  0  0  0
  191.0230  176.9580  146.0830 N   0  0  0  0  0  0  0  0  0  0  0  0
  191.7980  176.8850  147.0570 O   0  0  0  0  0  0  0  0  0  0  0  0
  186.5210  178.0400  141.4770 C   0  0  0  0  0  2  0  0  0  0  0  0
  188.7060  177.9980  142.6320 N   0  0  0  0  0  2  0  0  0  0  0  0
  188.8390  177.4420  141.2790 C   0  0  2  0  0  3  0  0  0  0  0  0
  188.7670  178.5340  140.2350 C   0  0  2  0  0  3  0  0  0  0  0  0
  187.9460  178.5830  141.5200 C   0  0  1  0  0  0  0  0  0  0  0  0
  188.0060  178.0220  139.0170 C   0  0  0  0  0  2  0  0  0  0  0  0
  188.7330  178.3960  137.7720 C   0  0  0  0  0  0  0  0  0  0  0  0
  188.9680  179.6110  137.5340 O   0  0  0  0  0  0  0  0  0  0  0  0
  189.2000  177.3590  136.8440 C   0  0  0  0  0  0  0  0  0  0  0  0
  189.3880  177.6320  135.6280 O   0  0  0  0  0  0  0  0  0  0  0  0
  189.4380  176.0680  137.3000 O   0  0  0  0  0  1  0  0  0  0  0  0
  1 10  1  0  0  0  0
  2  3  1  0  0  0  0
  3  5  2  0  0  0  0
  3  4  1  0  0  0  0
  4 20  1  6  0  0  0
  4  1  1  0  0  0  0
  5  6  1  0  0  0  0
  6  1  2  0  0  0  0
  8  9  1  0  0  0  0
  9  7  2  0  0  0  0
  9  5  1  0  0  0  0
 10 11  1  0  0  0  0
 11 12  1  0  0  0  0
 13 12  1  0  0  0  0
 13 14  1  0  0  0  0
 15 14  1  0  0  0  0
 16 15  1  0  0  0  0
 17 18  2  0  0  0  0
 18 16  1  0  0  0  0
 18 19  2  0  0  0  0
 22 24  1  0  0  0  0
 22 21  1  1  0  0  0
 23 25  1  6  0  0  0
 23 22  1  0  0  0  0
 23 24  1  0  0  0  0
 24 20  1  6  0  0  0
 24 21  1  0  0  0  0
 26 25  1  0  0  0  0
 27 26  2  0  0  0  0
 28 30  1  0  0  0  0
 28 26  1  0  0  0  0
 29 28  2  0  0  0  0
M  END
>  <MODEL>
9

>  <REMARK>
 VINA RESULT:      -6.7      2.193      7.731
  Name = 
  14 active torsions:
  status: ('A' for Active; 'I' for Inactive)
    1  A    between atoms: C_2  and  N_8
    2  A    between atoms: C_2  and  C_10
    3  A    between atoms: C_4  and  N_8
    4  A    between atoms: C_5  and  C_22
    5  A    between atoms: C_10  and  C_12
    6  A    between atoms: C_11  and  C_15
    7  A    between atoms: C_11  and  C_22
    8  A    between atoms: C_12  and  C_28
    9  A    between atoms: N_13  and  C_18
   10  A    between atoms: C_18  and  C_25
   11  A    between atoms: C_21  and  C_24
   12  A    between atoms: C_23  and  C_24
   13  A    between atoms: C_25  and  C_28
   14  A    between atoms: C_27  and  C_29
                            x       y       z     vdW  Elec       q    Type
                         _______ _______ _______ _____ _____    ______ ____

>  <TORSDO>
F 14

$$$$
