=
 OpenBabel10222421323D

 34 35  0  0  1  0  0  0  0  0999 V2000
  184.5590  179.0550  140.8410 C   0  0  2  0  0  3  0  0  0  0  0  0
  185.6110  178.4050  138.6480 C   0  0  0  0  0  1  0  0  0  0  0  0
  185.6430  178.2160  140.1560 C   0  0  1  0  0  3  0  0  0  0  0  0
  188.1390  177.8550  140.0510 N   0  0  0  0  0  2  0  0  0  0  0  0
  187.1850  179.2080  141.7060 O   0  0  0  0  0  0  0  0  0  0  0  0
  187.0190  178.4650  140.7000 C   0  0  0  0  0  0  0  0  0  0  0  0
  189.4450  177.7030  140.6210 C   0  0  0  0  0  0  0  0  0  0  0  0
  190.4440  177.7190  139.8520 O   0  0  0  0  0  0  0  0  0  0  0  0
  191.1930  177.7310  144.8640 C   0  0  0  0  0  2  0  0  0  0  0  0
  189.6420  177.4650  142.0690 C   0  0  1  0  0  3  0  0  0  0  0  0
  191.6270  176.3930  144.2630 C   0  0  0  0  0  3  0  0  0  0  0  0
  190.9030  178.7860  143.8280 C   0  0  0  0  0  2  0  0  0  0  0  0
  189.6250  176.0810  142.6740 C   0  0  0  0  0  2  0  0  0  0  0  0
  190.9520  175.6850  143.3210 C   0  0  0  0  0  3  0  0  0  0  0  0
  190.2060  178.3400  142.8370 C   0  0  0  0  0  2  0  0  0  0  0  0
  183.9880  178.3520  141.9840 N   0  0  0  0  0  2  0  0  0  0  0  0
  182.6180  178.6440  143.8890 C   0  0  0  0  0  2  0  0  0  0  0  0
  183.7120  179.0010  143.2290 C   0  0  0  0  0  0  0  0  0  0  0  0
  184.7440  179.8500  143.8630 C   0  0  0  0  0  3  0  0  0  0  0  0
  185.5320  179.5510  144.9050 C   0  0  0  0  0  3  0  0  0  0  0  0
  184.7330  178.3330  146.8670 C   0  0  0  0  0  2  0  0  0  0  0  0
  185.4820  178.3530  145.7640 C   0  0  0  0  0  0  0  0  0  0  0  0
  186.7590  176.9830  144.1190 C   0  0  0  0  0  1  0  0  0  0  0  0
  187.8850  177.8090  146.1840 C   0  0  0  0  0  1  0  0  0  0  0  0
  186.5710  177.3390  145.5840 C   0  0  0  0  0  3  0  0  0  0  0  0
  183.2460  179.5130  139.6650 S   0  0  0  0  0  0  0  0  0  0  0  0
  182.1090  178.2170  140.2610 C   0  0  1  0  0  3  0  0  0  0  0  0
  180.8240  178.8460  140.7940 C   0  0  0  0  0  1  0  0  0  0  0  0
  181.8660  177.2020  139.2260 N   0  0  0  0  0  0  0  0  0  0  0  0
  183.1040  175.5870  138.0500 C   0  0  0  0  0  2  0  0  0  0  0  0
  183.5020  177.0940  136.2090 N   0  0  0  0  0  1  0  0  0  0  0  0
  182.1810  177.7470  138.0150 O   0  0  0  0  0  0  0  0  0  0  0  0
  182.7220  176.0360  139.4210 C   0  0  0  0  0  2  0  0  0  0  0  0
  182.5210  176.6680  137.1870 C   0  0  2  0  0  3  0  0  0  0  0  0
  1 26  1  6  0  0  0
  1 16  1  0  0  0  0
  3  2  1  6  0  0  0
  3  6  1  0  0  0  0
  3  1  1  0  0  0  0
  4  7  1  0  0  0  0
  4  6  1  0  0  0  0
  6  5  2  0  0  0  0
  8  7  2  0  0  0  0
 10  7  1  6  0  0  0
 10 13  1  0  0  0  0
 10 15  1  0  0  0  0
 11  9  1  0  0  0  0
 12  9  1  0  0  0  0
 13 14  1  0  0  0  0
 14 11  2  0  0  0  0
 15 12  1  0  0  0  0
 16 18  1  0  0  0  0
 18 19  1  0  0  0  0
 18 17  2  0  0  0  0
 19 20  2  0  0  0  0
 20 22  1  0  0  0  0
 22 21  2  0  0  0  0
 23 25  1  0  0  0  0
 25 22  1  0  0  0  0
 25 24  1  0  0  0  0
 26 27  1  0  0  0  0
 27 28  1  6  0  0  0
 29 33  1  0  0  0  0
 29 27  1  0  0  0  0
 30 33  1  0  0  0  0
 32 29  1  0  0  0  0
 34 31  1  6  0  0  0
 34 32  1  0  0  0  0
 34 30  1  0  0  0  0
M  END
>  <MODEL>
1

>  <REMARK>
 VINA RESULT:      -7.2      0.000      0.000
  Name = 
  11 active torsions:
  status: ('A' for Active; 'I' for Inactive)
    1  A    between atoms: N_1  and  C_11
    2  A    between atoms: C_3  and  C_32
    3  A    between atoms: C_4  and  C_23
    4  A    between atoms: C_11  and  S_28
    5  A    between atoms: N_16  and  C_31
    6  A    between atoms: N_16  and  C_32
    7  A    between atoms: C_19  and  C_20
    8  A    between atoms: C_20  and  C_31
    9  A    between atoms: S_28  and  C_31
   10  A    between atoms: C_30  and  C_34
   11  A    between atoms: C_33  and  C_34
                            x       y       z     vdW  Elec       q    Type
                         _______ _______ _______ _____ _____    ______ ____

>  <TORSDO>
F 11

$$$$
=
 OpenBabel10222421323D

 34 35  0  0  1  0  0  0  0  0999 V2000
  188.1160  178.4080  139.5310 C   0  0  2  0  0  3  0  0  0  0  0  0
  190.2170  177.0620  139.8620 C   0  0  0  0  0  1  0  0  0  0  0  0
  188.8370  177.3850  140.4150 C   0  0  1  0  0  3  0  0  0  0  0  0
  190.0700  178.5130  142.3060 N   0  0  0  0  0  2  0  0  0  0  0  0
  187.9790  177.5200  142.6520 O   0  0  0  0  0  0  0  0  0  0  0  0
  188.9180  177.7950  141.8550 C   0  0  0  0  0  0  0  0  0  0  0  0
  190.4650  178.6740  143.6740 C   0  0  0  0  0  0  0  0  0  0  0  0
  191.0740  179.7260  144.0060 O   0  0  0  0  0  0  0  0  0  0  0  0
  189.6000  176.5020  147.6240 C   0  0  0  0  0  2  0  0  0  0  0  0
  190.2330  177.6140  144.6820 C   0  0  1  0  0  3  0  0  0  0  0  0
  191.1220  176.4680  147.4750 C   0  0  0  0  0  3  0  0  0  0  0  0
  188.9500  177.6340  146.8690 C   0  0  0  0  0  2  0  0  0  0  0  0
  191.2020  176.4760  144.9020 C   0  0  0  0  0  2  0  0  0  0  0  0
  191.8100  176.4580  146.3030 C   0  0  0  0  0  3  0  0  0  0  0  0
  189.4220  177.7790  145.6760 C   0  0  0  0  0  2  0  0  0  0  0  0
  186.7520  177.9840  139.2360 N   0  0  0  0  0  2  0  0  0  0  0  0
  185.6680  179.1140  141.0070 C   0  0  0  0  0  2  0  0  0  0  0  0
  185.6040  178.6570  139.7630 C   0  0  0  0  0  0  0  0  0  0  0  0
  184.4940  179.0400  138.8640 C   0  0  0  0  0  3  0  0  0  0  0  0
  183.2030  178.6900  138.9520 C   0  0  0  0  0  3  0  0  0  0  0  0
  182.6730  176.4180  139.6770 C   0  0  0  0  0  2  0  0  0  0  0  0
  182.5860  177.7310  139.8880 C   0  0  0  0  0  0  0  0  0  0  0  0
  182.1800  178.7280  142.1370 C   0  0  0  0  0  1  0  0  0  0  0  0
  180.7510  179.3980  140.2060 C   0  0  0  0  0  1  0  0  0  0  0  0
  181.5530  178.2690  140.8310 C   0  0  0  0  0  3  0  0  0  0  0  0
  189.0320  178.7000  137.9840 S   0  0  0  0  0  0  0  0  0  0  0  0
  187.9470  177.6060  137.0070 C   0  0  1  0  0  3  0  0  0  0  0  0
  187.1170  178.4270  136.0240 C   0  0  0  0  0  1  0  0  0  0  0  0
  188.7140  176.5340  136.3580 N   0  0  0  0  0  0  0  0  0  0  0  0
  189.9500  174.6420  137.0040 C   0  0  0  0  0  2  0  0  0  0  0  0
  192.0240  175.8730  136.9940 N   0  0  0  0  0  1  0  0  0  0  0  0
  190.0300  176.8980  136.3530 O   0  0  0  0  0  0  0  0  0  0  0  0
  188.6050  175.2830  137.1020 C   0  0  0  0  0  2  0  0  0  0  0  0
  190.7580  175.6990  136.3100 C   0  0  2  0  0  3  0  0  0  0  0  0
  1 26  1  6  0  0  0
  1  3  1  0  0  0  0
  3  2  1  6  0  0  0
  3  6  1  0  0  0  0
  4  7  1  0  0  0  0
  6  4  1  0  0  0  0
  6  5  2  0  0  0  0
  7  8  2  0  0  0  0
 10  7  1  1  0  0  0
 10 13  1  0  0  0  0
 10 15  1  0  0  0  0
 11  9  1  0  0  0  0
 12  9  1  0  0  0  0
 13 14  1  0  0  0  0
 14 11  2  0  0  0  0
 15 12  1  0  0  0  0
 16  1  1  0  0  0  0
 16 18  1  0  0  0  0
 18 17  2  0  0  0  0
 19 20  2  0  0  0  0
 19 18  1  0  0  0  0
 20 22  1  0  0  0  0
 21 22  2  0  0  0  0
 22 25  1  0  0  0  0
 24 25  1  0  0  0  0
 25 23  1  0  0  0  0
 27 28  1  6  0  0  0
 27 26  1  0  0  0  0
 29 27  1  0  0  0  0
 29 33  1  0  0  0  0
 30 33  1  0  0  0  0
 32 29  1  0  0  0  0
 34 32  1  0  0  0  0
 34 31  1  1  0  0  0
 34 30  1  0  0  0  0
M  END
>  <MODEL>
2

>  <REMARK>
 VINA RESULT:      -6.6      2.887      5.575
  Name = 
  11 active torsions:
  status: ('A' for Active; 'I' for Inactive)
    1  A    between atoms: N_1  and  C_11
    2  A    between atoms: C_3  and  C_32
    3  A    between atoms: C_4  and  C_23
    4  A    between atoms: C_11  and  S_28
    5  A    between atoms: N_16  and  C_31
    6  A    between atoms: N_16  and  C_32
    7  A    between atoms: C_19  and  C_20
    8  A    between atoms: C_20  and  C_31
    9  A    between atoms: S_28  and  C_31
   10  A    between atoms: C_30  and  C_34
   11  A    between atoms: C_33  and  C_34
                            x       y       z     vdW  Elec       q    Type
                         _______ _______ _______ _____ _____    ______ ____

>  <TORSDO>
F 11

$$$$
=
 OpenBabel10222421323D

 34 35  0  0  1  0  0  0  0  0999 V2000
  188.1850  178.3030  139.4730 C   0  0  2  0  0  3  0  0  0  0  0  0
  190.3880  177.1420  139.8420 C   0  0  0  0  0  1  0  0  0  0  0  0
  188.9780  177.3490  140.3730 C   0  0  1  0  0  3  0  0  0  0  0  0
  190.1290  178.5110  142.2950 N   0  0  0  0  0  2  0  0  0  0  0  0
  188.0410  177.4910  142.5780 O   0  0  0  0  0  0  0  0  0  0  0  0
  189.0030  177.7730  141.8120 C   0  0  0  0  0  0  0  0  0  0  0  0
  190.4730  178.6890  143.6750 C   0  0  0  0  0  0  0  0  0  0  0  0
  191.0550  179.7530  144.0190 O   0  0  0  0  0  0  0  0  0  0  0  0
  189.4880  176.5390  147.6080 C   0  0  0  0  0  2  0  0  0  0  0  0
  190.2220  177.6350  144.6840 C   0  0  1  0  0  3  0  0  0  0  0  0
  191.0150  176.5370  147.5240 C   0  0  0  0  0  3  0  0  0  0  0  0
  188.8460  177.6480  146.8140 C   0  0  0  0  0  2  0  0  0  0  0  0
  191.2040  176.5210  144.9570 C   0  0  0  0  0  2  0  0  0  0  0  0
  191.7520  176.5300  146.3830 C   0  0  0  0  0  3  0  0  0  0  0  0
  189.3660  177.7920  145.6410 C   0  0  0  0  0  2  0  0  0  0  0  0
  186.8050  177.8570  139.3150 N   0  0  0  0  0  2  0  0  0  0  0  0
  185.7210  178.9350  141.1180 C   0  0  0  0  0  2  0  0  0  0  0  0
  185.6940  178.5920  139.8370 C   0  0  0  0  0  0  0  0  0  0  0  0
  184.6830  179.1560  138.9160 C   0  0  0  0  0  3  0  0  0  0  0  0
  183.6470  178.5260  138.3430 C   0  0  0  0  0  3  0  0  0  0  0  0
  182.7360  176.5440  139.4430 C   0  0  0  0  0  2  0  0  0  0  0  0
  183.3290  177.0860  138.3800 C   0  0  0  0  0  0  0  0  0  0  0  0
  183.8460  174.7380  137.7230 C   0  0  0  0  0  1  0  0  0  0  0  0
  183.5760  176.4860  135.9660 C   0  0  0  0  0  1  0  0  0  0  0  0
  184.0310  176.2080  137.3890 C   0  0  0  0  0  3  0  0  0  0  0  0
  188.9790  178.4780  137.8430 S   0  0  0  0  0  0  0  0  0  0  0  0
  187.6950  177.5020  136.9910 C   0  0  1  0  0  3  0  0  0  0  0  0
  186.9400  178.3780  135.9950 C   0  0  0  0  0  1  0  0  0  0  0  0
  188.2620  176.2920  136.3780 N   0  0  0  0  0  0  0  0  0  0  0  0
  188.6050  174.0420  136.9650 C   0  0  0  0  0  2  0  0  0  0  0  0
  190.8530  174.4830  137.7210 N   0  0  0  0  0  1  0  0  0  0  0  0
  189.5610  176.1810  136.7820 O   0  0  0  0  0  0  0  0  0  0  0  0
  187.5560  175.0950  136.8250 C   0  0  0  0  0  2  0  0  0  0  0  0
  189.8670  174.8140  136.7110 C   0  0  2  0  0  3  0  0  0  0  0  0
  1 26  1  6  0  0  0
  1  3  1  0  0  0  0
  3  2  1  6  0  0  0
  3  6  1  0  0  0  0
  4  7  1  0  0  0  0
  6  4  1  0  0  0  0
  6  5  2  0  0  0  0
  7  8  2  0  0  0  0
 10  7  1  1  0  0  0
 10 13  1  0  0  0  0
 10 15  1  0  0  0  0
 11  9  1  0  0  0  0
 12  9  1  0  0  0  0
 13 14  1  0  0  0  0
 14 11  2  0  0  0  0
 15 12  1  0  0  0  0
 16  1  1  0  0  0  0
 16 18  1  0  0  0  0
 18 17  2  0  0  0  0
 19 18  1  0  0  0  0
 20 22  1  0  0  0  0
 20 19  2  0  0  0  0
 22 21  2  0  0  0  0
 24 25  1  0  0  0  0
 25 23  1  0  0  0  0
 25 22  1  0  0  0  0
 27 28  1  6  0  0  0
 27 26  1  0  0  0  0
 29 32  1  0  0  0  0
 29 33  1  0  0  0  0
 29 27  1  0  0  0  0
 33 30  1  0  0  0  0
 34 32  1  0  0  0  0
 34 30  1  0  0  0  0
 34 31  1  1  0  0  0
M  END
>  <MODEL>
3

>  <REMARK>
 VINA RESULT:      -6.6      3.001      5.715
  Name = 
  11 active torsions:
  status: ('A' for Active; 'I' for Inactive)
    1  A    between atoms: N_1  and  C_11
    2  A    between atoms: C_3  and  C_32
    3  A    between atoms: C_4  and  C_23
    4  A    between atoms: C_11  and  S_28
    5  A    between atoms: N_16  and  C_31
    6  A    between atoms: N_16  and  C_32
    7  A    between atoms: C_19  and  C_20
    8  A    between atoms: C_20  and  C_31
    9  A    between atoms: S_28  and  C_31
   10  A    between atoms: C_30  and  C_34
   11  A    between atoms: C_33  and  C_34
                            x       y       z     vdW  Elec       q    Type
                         _______ _______ _______ _____ _____    ______ ____

>  <TORSDO>
F 11

$$$$
=
 OpenBabel10222421323D

 34 35  0  0  1  0  0  0  0  0999 V2000
  188.2490  177.7300  138.5080 C   0  0  2  0  0  3  0  0  0  0  0  0
  187.1330  177.9690  136.2640 C   0  0  0  0  0  1  0  0  0  0  0  0
  187.1510  178.4410  137.7090 C   0  0  1  0  0  3  0  0  0  0  0  0
  184.9840  179.4940  138.4630 N   0  0  0  0  0  2  0  0  0  0  0  0
  185.3630  177.1980  138.7210 O   0  0  0  0  0  0  0  0  0  0  0  0
  185.7910  178.3190  138.3310 C   0  0  0  0  0  0  0  0  0  0  0  0
  183.8430  179.6240  139.3190 C   0  0  0  0  0  0  0  0  0  0  0  0
  182.9070  180.3890  138.9640 O   0  0  0  0  0  0  0  0  0  0  0  0
  182.6450  178.4750  143.5980 C   0  0  0  0  0  2  0  0  0  0  0  0
  183.7690  178.9370  140.6290 C   0  0  1  0  0  3  0  0  0  0  0  0
  183.9180  179.3080  143.7500 C   0  0  0  0  0  3  0  0  0  0  0  0
  181.8910  178.7620  142.3240 C   0  0  0  0  0  2  0  0  0  0  0  0
  184.9860  178.6950  141.4890 C   0  0  0  0  0  2  0  0  0  0  0  0
  184.9250  179.4020  142.8420 C   0  0  0  0  0  3  0  0  0  0  0  0
  182.6620  178.8420  141.2920 C   0  0  0  0  0  2  0  0  0  0  0  0
  188.6200  178.4930  139.6940 N   0  0  0  0  0  2  0  0  0  0  0  0
  188.1020  177.4710  141.7620 C   0  0  0  0  0  2  0  0  0  0  0  0
  189.0390  177.8700  140.9120 C   0  0  0  0  0  0  0  0  0  0  0  0
  190.4520  177.4670  141.0880 C   0  0  0  0  0  3  0  0  0  0  0  0
  191.1780  177.4760  142.2140 C   0  0  0  0  0  3  0  0  0  0  0  0
  191.1270  179.2530  143.8910 C   0  0  0  0  0  2  0  0  0  0  0  0
  190.7950  178.0130  143.5340 C   0  0  0  0  0  0  0  0  0  0  0  0
  191.5080  176.7660  145.5720 C   0  0  0  0  0  1  0  0  0  0  0  0
  189.1260  177.4550  145.3100 C   0  0  0  0  0  1  0  0  0  0  0  0
  190.3860  177.0200  144.5800 C   0  0  0  0  0  3  0  0  0  0  0  0
  189.7160  177.4230  137.4730 S   0  0  0  0  0  0  0  0  0  0  0  0
  189.8220  175.6660  137.9530 C   0  0  1  0  0  3  0  0  0  0  0  0
  189.2230  174.7840  136.8610 C   0  0  0  0  0  1  0  0  0  0  0  0
  191.1980  175.2900  138.3060 N   0  0  0  0  0  0  0  0  0  0  0  0
  193.3690  175.6640  137.4870 C   0  0  0  0  0  2  0  0  0  0  0  0
  193.3410  173.6190  136.2070 N   0  0  0  0  0  1  0  0  0  0  0  0
  191.5390  174.1920  137.5720 O   0  0  0  0  0  0  0  0  0  0  0  0
  192.1370  176.3550  137.9720 C   0  0  0  0  0  2  0  0  0  0  0  0
  192.9380  174.2260  137.4600 C   0  0  2  0  0  3  0  0  0  0  0  0
  1 26  1  6  0  0  0
  1 16  1  0  0  0  0
  3  2  1  6  0  0  0
  3  6  1  0  0  0  0
  3  1  1  0  0  0  0
  4  7  1  0  0  0  0
  6  4  1  0  0  0  0
  6  5  2  0  0  0  0
  8  7  2  0  0  0  0
  9 11  1  0  0  0  0
 10  7  1  1  0  0  0
 10 15  1  0  0  0  0
 10 13  1  0  0  0  0
 12  9  1  0  0  0  0
 13 14  1  0  0  0  0
 14 11  2  0  0  0  0
 15 12  1  0  0  0  0
 16 18  1  0  0  0  0
 18 19  1  0  0  0  0
 18 17  2  0  0  0  0
 19 20  2  0  0  0  0
 20 22  1  0  0  0  0
 22 21  2  0  0  0  0
 22 25  1  0  0  0  0
 25 24  1  0  0  0  0
 25 23  1  0  0  0  0
 26 27  1  0  0  0  0
 27 28  1  6  0  0  0
 27 29  1  0  0  0  0
 30 33  1  0  0  0  0
 32 29  1  0  0  0  0
 33 29  1  0  0  0  0
 34 31  1  6  0  0  0
 34 30  1  0  0  0  0
 34 32  1  0  0  0  0
M  END
>  <MODEL>
4

>  <REMARK>
 VINA RESULT:      -6.5      3.146      7.140
  Name = 
  11 active torsions:
  status: ('A' for Active; 'I' for Inactive)
    1  A    between atoms: N_1  and  C_11
    2  A    between atoms: C_3  and  C_32
    3  A    between atoms: C_4  and  C_23
    4  A    between atoms: C_11  and  S_28
    5  A    between atoms: N_16  and  C_31
    6  A    between atoms: N_16  and  C_32
    7  A    between atoms: C_19  and  C_20
    8  A    between atoms: C_20  and  C_31
    9  A    between atoms: S_28  and  C_31
   10  A    between atoms: C_30  and  C_34
   11  A    between atoms: C_33  and  C_34
                            x       y       z     vdW  Elec       q    Type
                         _______ _______ _______ _____ _____    ______ ____

>  <TORSDO>
F 11

$$$$
=
 OpenBabel10222421323D

 34 35  0  0  1  0  0  0  0  0999 V2000
  187.2500  178.1080  140.3500 C   0  0  2  0  0  3  0  0  0  0  0  0
  184.9920  179.0060  139.6920 C   0  0  0  0  0  1  0  0  0  0  0  0
  186.0470  178.9520  140.7850 C   0  0  1  0  0  3  0  0  0  0  0  0
  184.8670  179.4890  142.9500 N   0  0  0  0  0  2  0  0  0  0  0  0
  185.4530  177.2880  142.4100 O   0  0  0  0  0  0  0  0  0  0  0  0
  185.4500  178.5080  142.0880 C   0  0  0  0  0  0  0  0  0  0  0  0
  184.5740  179.3020  144.3410 C   0  0  0  0  0  0  0  0  0  0  0  0
  183.5950  179.9200  144.8390 O   0  0  0  0  0  0  0  0  0  0  0  0
  187.4670  177.9240  147.6250 C   0  0  0  0  0  2  0  0  0  0  0  0
  185.4250  178.4580  145.2100 C   0  0  1  0  0  3  0  0  0  0  0  0
  188.3230  178.0410  146.3640 C   0  0  0  0  0  3  0  0  0  0  0  0
  186.2310  178.7850  147.5920 C   0  0  0  0  0  2  0  0  0  0  0  0
  186.4680  177.5160  144.6570 C   0  0  0  0  0  2  0  0  0  0  0  0
  187.8920  177.8650  145.0870 C   0  0  0  0  0  3  0  0  0  0  0  0
  185.6110  178.7310  146.4610 C   0  0  0  0  0  2  0  0  0  0  0  0
  188.4300  178.4130  141.1520 N   0  0  0  0  0  2  0  0  0  0  0  0
  188.7130  176.2870  142.1460 C   0  0  0  0  0  2  0  0  0  0  0  0
  189.2800  177.3960  141.6890 C   0  0  0  0  0  0  0  0  0  0  0  0
  190.7450  177.4840  141.5050 C   0  0  0  0  0  3  0  0  0  0  0  0
  191.6890  177.6080  142.4490 C   0  0  0  0  0  3  0  0  0  0  0  0
  191.8760  178.9570  144.4770 C   0  0  0  0  0  2  0  0  0  0  0  0
  191.5000  177.8180  143.8970 C   0  0  0  0  0  0  0  0  0  0  0  0
  191.9810  175.3890  144.1840 C   0  0  0  0  0  1  0  0  0  0  0  0
  191.6300  176.8280  146.1890 C   0  0  0  0  0  1  0  0  0  0  0  0
  191.2500  176.6010  144.7350 C   0  0  0  0  0  3  0  0  0  0  0  0
  187.6140  178.3490  138.5810 S   0  0  0  0  0  0  0  0  0  0  0  0
  188.2830  176.6640  138.3770 C   0  0  1  0  0  3  0  0  0  0  0  0
  187.4920  175.9080  137.3130 C   0  0  0  0  0  1  0  0  0  0  0  0
  189.7270  176.6920  138.1100 N   0  0  0  0  0  0  0  0  0  0  0  0
  191.1890  176.0710  136.3780 C   0  0  0  0  0  2  0  0  0  0  0  0
  191.6070  173.9140  137.3750 N   0  0  0  0  0  1  0  0  0  0  0  0
  190.2440  175.4740  138.4440 O   0  0  0  0  0  0  0  0  0  0  0  0
  189.9980  176.9130  136.6930 C   0  0  0  0  0  2  0  0  0  0  0  0
  191.3970  175.3200  137.6610 C   0  0  2  0  0  3  0  0  0  0  0  0
  1 26  1  6  0  0  0
  1  3  1  0  0  0  0
  1 16  1  0  0  0  0
  3  2  1  6  0  0  0
  3  6  1  0  0  0  0
  4  7  1  0  0  0  0
  6  5  2  0  0  0  0
  6  4  1  0  0  0  0
  7  8  2  0  0  0  0
 10  7  1  6  0  0  0
 10 15  1  0  0  0  0
 11  9  1  0  0  0  0
 12  9  1  0  0  0  0
 13 14  1  0  0  0  0
 13 10  1  0  0  0  0
 14 11  2  0  0  0  0
 15 12  1  0  0  0  0
 16 18  1  0  0  0  0
 18 17  2  0  0  0  0
 19 18  1  0  0  0  0
 19 20  2  0  0  0  0
 20 22  1  0  0  0  0
 22 21  2  0  0  0  0
 22 25  1  0  0  0  0
 23 25  1  0  0  0  0
 25 24  1  0  0  0  0
 27 28  1  6  0  0  0
 27 26  1  0  0  0  0
 29 27  1  0  0  0  0
 29 32  1  0  0  0  0
 30 33  1  0  0  0  0
 30 34  1  0  0  0  0
 33 29  1  0  0  0  0
 34 31  1  6  0  0  0
 34 32  1  0  0  0  0
M  END
>  <MODEL>
5

>  <REMARK>
 VINA RESULT:      -6.3      2.687      6.057
  Name = 
  11 active torsions:
  status: ('A' for Active; 'I' for Inactive)
    1  A    between atoms: N_1  and  C_11
    2  A    between atoms: C_3  and  C_32
    3  A    between atoms: C_4  and  C_23
    4  A    between atoms: C_11  and  S_28
    5  A    between atoms: N_16  and  C_31
    6  A    between atoms: N_16  and  C_32
    7  A    between atoms: C_19  and  C_20
    8  A    between atoms: C_20  and  C_31
    9  A    between atoms: S_28  and  C_31
   10  A    between atoms: C_30  and  C_34
   11  A    between atoms: C_33  and  C_34
                            x       y       z     vdW  Elec       q    Type
                         _______ _______ _______ _____ _____    ______ ____

>  <TORSDO>
F 11

$$$$
=
 OpenBabel10222421323D

 34 35  0  0  1  0  0  0  0  0999 V2000
  184.5120  178.5430  141.9620 C   0  0  2  0  0  3  0  0  0  0  0  0
  183.7370  179.6510  144.0860 C   0  0  0  0  0  1  0  0  0  0  0  0
  184.9410  179.1490  143.3030 C   0  0  1  0  0  3  0  0  0  0  0  0
  186.1710  178.6370  145.4460 N   0  0  0  0  0  2  0  0  0  0  0  0
  186.1110  177.0900  143.6900 O   0  0  0  0  0  0  0  0  0  0  0  0
  185.7750  178.2210  144.1350 C   0  0  0  0  0  0  0  0  0  0  0  0
  187.2240  178.0480  146.2190 C   0  0  0  0  0  0  0  0  0  0  0  0
  187.1230  178.0500  147.4760 O   0  0  0  0  0  0  0  0  0  0  0  0
  191.5770  176.8230  145.4360 C   0  0  0  0  0  2  0  0  0  0  0  0
  188.4450  177.5010  145.5850 C   0  0  1  0  0  3  0  0  0  0  0  0
  191.3900  178.1380  144.6780 C   0  0  0  0  0  3  0  0  0  0  0  0
  190.6160  176.6530  146.5850 C   0  0  0  0  0  2  0  0  0  0  0  0
  188.8760  177.8820  144.1890 C   0  0  0  0  0  2  0  0  0  0  0  0
  190.2270  178.5930  144.1420 C   0  0  0  0  0  3  0  0  0  0  0  0
  189.4050  176.9830  146.2800 C   0  0  0  0  0  2  0  0  0  0  0  0
  185.1480  179.2300  140.8430 N   0  0  0  0  0  2  0  0  0  0  0  0
  187.3900  178.4810  140.8120 C   0  0  0  0  0  2  0  0  0  0  0  0
  186.2660  178.6830  140.1380 C   0  0  0  0  0  0  0  0  0  0  0  0
  186.0840  178.1340  138.7760 C   0  0  0  0  0  3  0  0  0  0  0  0
  187.0280  177.8540  137.8660 C   0  0  0  0  0  3  0  0  0  0  0  0
  188.9670  179.2880  137.4720 C   0  0  0  0  0  2  0  0  0  0  0  0
  188.4720  178.1430  137.9420 C   0  0  0  0  0  0  0  0  0  0  0  0
  190.1180  176.5720  136.9230 C   0  0  0  0  0  1  0  0  0  0  0  0
  190.3810  177.2730  139.3010 C   0  0  0  0  0  1  0  0  0  0  0  0
  189.3870  176.9820  138.1900 C   0  0  0  0  0  3  0  0  0  0  0  0
  182.7010  178.5800  141.7750 S   0  0  0  0  0  0  0  0  0  0  0  0
  182.7640  178.1220  140.0100 C   0  0  1  0  0  3  0  0  0  0  0  0
  182.8280  176.6050  139.8610 C   0  0  0  0  0  1  0  0  0  0  0  0
  181.6550  178.7290  139.2610 N   0  0  0  0  0  0  0  0  0  0  0  0
  181.3440  179.8660  137.2280 C   0  0  0  0  0  2  0  0  0  0  0  0
  181.5530  182.0210  138.2920 N   0  0  0  0  0  1  0  0  0  0  0  0
  181.6240  180.0610  139.5530 O   0  0  0  0  0  0  0  0  0  0  0  0
  181.8560  178.5960  137.8220 C   0  0  0  0  0  2  0  0  0  0  0  0
  181.0230  180.6810  138.4470 C   0  0  2  0  0  3  0  0  0  0  0  0
  1 16  1  6  0  0  0
  1  3  1  0  0  0  0
  3  2  1  1  0  0  0
  3  6  1  0  0  0  0
  4  7  1  0  0  0  0
  5  6  2  0  0  0  0
  6  4  1  0  0  0  0
  7  8  2  0  0  0  0
  9 12  1  0  0  0  0
 10  7  1  1  0  0  0
 10 15  1  0  0  0  0
 11  9  1  0  0  0  0
 13 10  1  0  0  0  0
 14 13  1  0  0  0  0
 14 11  2  0  0  0  0
 15 12  1  0  0  0  0
 18 17  2  0  0  0  0
 18 16  1  0  0  0  0
 19 18  1  0  0  0  0
 20 22  1  0  0  0  0
 20 19  2  0  0  0  0
 21 22  2  0  0  0  0
 22 25  1  0  0  0  0
 23 25  1  0  0  0  0
 25 24  1  0  0  0  0
 26  1  1  0  0  0  0
 27 28  1  1  0  0  0
 27 26  1  0  0  0  0
 29 32  1  0  0  0  0
 29 27  1  0  0  0  0
 30 33  1  0  0  0  0
 30 34  1  0  0  0  0
 33 29  1  0  0  0  0
 34 31  1  6  0  0  0
 34 32  1  0  0  0  0
M  END
>  <MODEL>
6

>  <REMARK>
 VINA RESULT:      -6.3      2.431      5.074
  Name = 
  11 active torsions:
  status: ('A' for Active; 'I' for Inactive)
    1  A    between atoms: N_1  and  C_11
    2  A    between atoms: C_3  and  C_32
    3  A    between atoms: C_4  and  C_23
    4  A    between atoms: C_11  and  S_28
    5  A    between atoms: N_16  and  C_31
    6  A    between atoms: N_16  and  C_32
    7  A    between atoms: C_19  and  C_20
    8  A    between atoms: C_20  and  C_31
    9  A    between atoms: S_28  and  C_31
   10  A    between atoms: C_30  and  C_34
   11  A    between atoms: C_33  and  C_34
                            x       y       z     vdW  Elec       q    Type
                         _______ _______ _______ _____ _____    ______ ____

>  <TORSDO>
F 11

$$$$
=
 OpenBabel10222421323D

 34 35  0  0  1  0  0  0  0  0999 V2000
  187.1180  178.4780  141.5090 C   0  0  2  0  0  3  0  0  0  0  0  0
  186.0130  178.4810  139.2470 C   0  0  0  0  0  1  0  0  0  0  0  0
  187.0740  177.8300  140.1220 C   0  0  1  0  0  3  0  0  0  0  0  0
  188.4410  177.7660  138.0010 N   0  0  0  0  0  2  0  0  0  0  0  0
  189.4740  177.8540  140.0990 O   0  0  0  0  0  0  0  0  0  0  0  0
  188.4050  177.8140  139.4300 C   0  0  0  0  0  0  0  0  0  0  0  0
  189.5810  177.4040  137.2110 C   0  0  0  0  0  0  0  0  0  0  0  0
  189.7160  177.9270  136.0730 O   0  0  0  0  0  0  0  0  0  0  0  0
  193.4170  174.9380  137.7230 C   0  0  0  0  0  2  0  0  0  0  0  0
  190.5580  176.3910  137.6720 C   0  0  1  0  0  3  0  0  0  0  0  0
  192.5430  174.1230  136.7700 C   0  0  0  0  0  3  0  0  0  0  0  0
  193.0930  176.4100  137.7200 C   0  0  0  0  0  2  0  0  0  0  0  0
  190.2600  174.9100  137.6600 C   0  0  0  0  0  2  0  0  0  0  0  0
  191.1850  174.1120  136.7440 C   0  0  0  0  0  3  0  0  0  0  0  0
  191.8240  176.6450  137.7480 C   0  0  0  0  0  2  0  0  0  0  0  0
  187.1430  177.4710  142.5640 N   0  0  0  0  0  2  0  0  0  0  0  0
  188.8200  175.8420  142.9190 C   0  0  0  0  0  2  0  0  0  0  0  0
  188.3540  177.0520  143.2010 C   0  0  0  0  0  0  0  0  0  0  0  0
  189.1750  178.0330  143.9450 C   0  0  0  0  0  3  0  0  0  0  0  0
  189.2790  178.1820  145.2730 C   0  0  0  0  0  3  0  0  0  0  0  0
  187.1720  177.5470  146.3340 C   0  0  0  0  0  2  0  0  0  0  0  0
  188.5040  177.4980  146.3250 C   0  0  0  0  0  0  0  0  0  0  0  0
  190.7010  176.7850  147.2640 C   0  0  0  0  0  1  0  0  0  0  0  0
  189.1470  178.1590  148.6480 C   0  0  0  0  0  1  0  0  0  0  0  0
  189.2440  177.0980  147.5650 C   0  0  0  0  0  3  0  0  0  0  0  0
  185.7080  179.6060  141.7510 S   0  0  0  0  0  0  0  0  0  0  0  0
  184.9890  178.5960  143.0890 C   0  0  1  0  0  3  0  0  0  0  0  0
  185.0220  179.3640  144.4060 C   0  0  0  0  0  1  0  0  0  0  0  0
  183.6440  178.1190  142.7340 N   0  0  0  0  0  0  0  0  0  0  0  0
  181.9210  178.7160  141.2510 C   0  0  0  0  0  2  0  0  0  0  0  0
  180.8030  180.0360  142.9320 N   0  0  0  0  0  1  0  0  0  0  0  0
  182.7360  178.8400  143.4520 O   0  0  0  0  0  0  0  0  0  0  0  0
  183.3640  178.3380  141.3190 C   0  0  0  0  0  2  0  0  0  0  0  0
  181.5500  178.8160  142.7020 C   0  0  2  0  0  3  0  0  0  0  0  0
  1 26  1  1  0  0  0
  1 16  1  0  0  0  0
  3  2  1  6  0  0  0
  3  1  1  0  0  0  0
  4  6  1  0  0  0  0
  6  5  2  0  0  0  0
  6  3  1  0  0  0  0
  7  4  1  0  0  0  0
  8  7  2  0  0  0  0
 10  7  1  6  0  0  0
 10 15  1  0  0  0  0
 11  9  1  0  0  0  0
 12  9  1  0  0  0  0
 12 15  1  0  0  0  0
 13 10  1  0  0  0  0
 14 11  2  0  0  0  0
 14 13  1  0  0  0  0
 16 18  1  0  0  0  0
 17 18  2  0  0  0  0
 18 19  1  0  0  0  0
 19 20  2  0  0  0  0
 20 22  1  0  0  0  0
 22 21  2  0  0  0  0
 22 25  1  0  0  0  0
 23 25  1  0  0  0  0
 25 24  1  0  0  0  0
 26 27  1  0  0  0  0
 27 28  1  1  0  0  0
 29 27  1  0  0  0  0
 29 32  1  0  0  0  0
 30 33  1  0  0  0  0
 30 34  1  0  0  0  0
 33 29  1  0  0  0  0
 34 31  1  6  0  0  0
 34 32  1  0  0  0  0
M  END
>  <MODEL>
7

>  <REMARK>
 VINA RESULT:      -6.3      2.953      4.761
  Name = 
  11 active torsions:
  status: ('A' for Active; 'I' for Inactive)
    1  A    between atoms: N_1  and  C_11
    2  A    between atoms: C_3  and  C_32
    3  A    between atoms: C_4  and  C_23
    4  A    between atoms: C_11  and  S_28
    5  A    between atoms: N_16  and  C_31
    6  A    between atoms: N_16  and  C_32
    7  A    between atoms: C_19  and  C_20
    8  A    between atoms: C_20  and  C_31
    9  A    between atoms: S_28  and  C_31
   10  A    between atoms: C_30  and  C_34
   11  A    between atoms: C_33  and  C_34
                            x       y       z     vdW  Elec       q    Type
                         _______ _______ _______ _____ _____    ______ ____

>  <TORSDO>
F 11

$$$$
=
 OpenBabel10222421323D

 34 35  0  0  1  0  0  0  0  0999 V2000
  189.9730  177.3090  140.3010 C   0  0  2  0  0  3  0  0  0  0  0  0
  188.4980  178.6670  138.7790 C   0  0  0  0  0  1  0  0  0  0  0  0
  188.8950  178.3940  140.2210 C   0  0  1  0  0  3  0  0  0  0  0  0
  186.4360  178.6880  140.7080 N   0  0  0  0  0  2  0  0  0  0  0  0
  187.7780  177.3280  142.0600 O   0  0  0  0  0  0  0  0  0  0  0  0
  187.6890  178.0960  141.0630 C   0  0  0  0  0  0  0  0  0  0  0  0
  185.2950  178.7920  141.5690 C   0  0  0  0  0  0  0  0  0  0  0  0
  184.1460  178.7640  141.0520 O   0  0  0  0  0  0  0  0  0  0  0  0
  185.6340  178.0310  146.0810 C   0  0  0  0  0  2  0  0  0  0  0  0
  185.4350  178.9960  143.0280 C   0  0  1  0  0  3  0  0  0  0  0  0
  184.1710  178.4100  145.8500 C   0  0  0  0  0  3  0  0  0  0  0  0
  186.3080  177.4700  144.8560 C   0  0  0  0  0  2  0  0  0  0  0  0
  184.5430  179.9330  143.8080 C   0  0  0  0  0  2  0  0  0  0  0  0
  183.7030  179.2270  144.8710 C   0  0  0  0  0  3  0  0  0  0  0  0
  186.0420  178.1390  143.7840 C   0  0  0  0  0  2  0  0  0  0  0  0
  190.8670  177.5310  141.4320 N   0  0  0  0  0  0  0  0  0  0  0  0
  190.0920  175.6160  142.5830 C   0  0  0  0  0  1  0  0  0  0  0  0
  190.8520  176.7040  142.6000 C   0  0  0  0  0  0  0  0  0  0  0  0
  191.8400  176.9290  143.6770 C   0  0  0  0  0  3  0  0  0  0  0  0
  191.6050  177.1610  144.9760 C   0  0  0  0  0  3  0  0  0  0  0  0
  189.4850  178.3500  145.2280 C   0  0  0  0  0  2  0  0  0  0  0  0
  190.3040  177.3810  145.6360 C   0  0  0  0  0  0  0  0  0  0  0  0
  191.3810  176.8580  147.8240 C   0  0  0  0  0  1  0  0  0  0  0  0
  188.9460  177.3860  147.7350 C   0  0  0  0  0  1  0  0  0  0  0  0
  190.1150  176.7640  146.9890 C   0  0  0  0  0  3  0  0  0  0  0  0
  190.9300  177.2210  138.7530 S   0  0  0  0  0  0  0  0  0  0  0  0
  190.4440  175.4940  138.4220 C   0  0  1  0  0  3  0  0  0  0  0  0
  189.3530  175.4480  137.3560 C   0  0  0  0  0  1  0  0  0  0  0  0
  191.6110  174.6660  138.0880 N   0  0  0  0  0  0  0  0  0  0  0  0
  193.2810  174.5970  136.4360 C   0  0  0  0  0  2  0  0  0  0  0  0
  192.0250  173.0330  135.0960 N   0  0  0  0  0  1  0  0  0  0  0  0
  191.2210  173.7360  137.1680 O   0  0  0  0  0  0  0  0  0  0  0  0
  192.6710  175.4670  137.4850 C   0  0  0  0  0  2  0  0  0  0  0  0
  192.3800  173.3970  136.4530 C   0  0  2  0  0  3  0  0  0  0  0  0
  1 26  1  6  0  0  0
  1 16  1  0  0  0  0
  3  2  1  6  0  0  0
  3  1  1  0  0  0  0
  3  6  1  0  0  0  0
  4  6  1  0  0  0  0
  4  7  1  0  0  0  0
  6  5  2  0  0  0  0
  8  7  2  0  0  0  0
 10  7  1  6  0  0  0
 10 15  1  0  0  0  0
 10 13  1  0  0  0  0
 11  9  1  0  0  0  0
 12  9  1  0  0  0  0
 13 14  1  0  0  0  0
 14 11  2  0  0  0  0
 15 12  1  0  0  0  0
 16 18  2  0  0  0  0
 17 18  1  0  0  0  0
 18 19  1  0  0  0  0
 19 20  2  0  0  0  0
 20 22  1  0  0  0  0
 21 22  2  0  0  0  0
 22 25  1  0  0  0  0
 25 24  1  0  0  0  0
 25 23  1  0  0  0  0
 27 28  1  6  0  0  0
 27 26  1  0  0  0  0
 29 27  1  0  0  0  0
 30 34  1  0  0  0  0
 30 33  1  0  0  0  0
 32 29  1  0  0  0  0
 33 29  1  0  0  0  0
 34 31  1  6  0  0  0
 34 32  1  0  0  0  0
M  END
>  <MODEL>
8

>  <REMARK>
 VINA RESULT:      -6.3      3.380      6.897
  Name = 
  11 active torsions:
  status: ('A' for Active; 'I' for Inactive)
    1  A    between atoms: N_1  and  C_11
    2  A    between atoms: C_3  and  C_32
    3  A    between atoms: C_4  and  C_23
    4  A    between atoms: C_11  and  S_28
    5  A    between atoms: N_16  and  C_31
    6  A    between atoms: N_16  and  C_32
    7  A    between atoms: C_19  and  C_20
    8  A    between atoms: C_20  and  C_31
    9  A    between atoms: S_28  and  C_31
   10  A    between atoms: C_30  and  C_34
   11  A    between atoms: C_33  and  C_34
                            x       y       z     vdW  Elec       q    Type
                         _______ _______ _______ _____ _____    ______ ____

>  <TORSDO>
F 11

$$$$
=
 OpenBabel10222421323D

 34 35  0  0  1  0  0  0  0  0999 V2000
  184.7860  178.0960  138.7870 C   0  0  2  0  0  3  0  0  0  0  0  0
  182.9230  179.5570  139.6450 C   0  0  0  0  0  1  0  0  0  0  0  0
  184.3370  179.0570  139.8940 C   0  0  1  0  0  3  0  0  0  0  0  0
  183.5130  178.8500  142.2710 N   0  0  0  0  0  2  0  0  0  0  0  0
  185.3970  177.6680  141.5400 O   0  0  0  0  0  0  0  0  0  0  0  0
  184.4680  178.4780  141.2720 C   0  0  0  0  0  0  0  0  0  0  0  0
  183.6810  178.6760  143.6830 C   0  0  0  0  0  0  0  0  0  0  0  0
  182.6580  178.4730  144.3910 O   0  0  0  0  0  0  0  0  0  0  0  0
  187.7010  177.6470  145.6420 C   0  0  0  0  0  2  0  0  0  0  0  0
  185.0060  178.7930  144.3320 C   0  0  1  0  0  3  0  0  0  0  0  0
  186.7540  177.9410  146.8060 C   0  0  0  0  0  3  0  0  0  0  0  0
  186.9890  177.2130  144.3870 C   0  0  0  0  0  2  0  0  0  0  0  0
  185.2320  179.6150  145.5780 C   0  0  0  0  0  2  0  0  0  0  0  0
  185.6920  178.7880  146.7770 C   0  0  0  0  0  3  0  0  0  0  0  0
  185.9490  177.9310  144.1240 C   0  0  0  0  0  2  0  0  0  0  0  0
  185.9140  178.6390  138.0400 N   0  0  0  0  0  2  0  0  0  0  0  0
  186.9920  176.6650  137.3110 C   0  0  0  0  0  2  0  0  0  0  0  0
  187.1110  177.8920  137.8010 C   0  0  0  0  0  0  0  0  0  0  0  0
  188.4270  178.5660  137.8640 C   0  0  0  0  0  3  0  0  0  0  0  0
  189.2990  178.5790  138.8820 C   0  0  0  0  0  3  0  0  0  0  0  0
  188.2990  178.6380  141.1100 C   0  0  0  0  0  2  0  0  0  0  0  0
  189.1120  178.0380  140.2410 C   0  0  0  0  0  0  0  0  0  0  0  0
  191.4820  177.2840  140.0650 C   0  0  0  0  0  1  0  0  0  0  0  0
  190.2810  177.1020  142.2420 C   0  0  0  0  0  1  0  0  0  0  0  0
  190.1350  177.0580  140.7310 C   0  0  0  0  0  3  0  0  0  0  0  0
  183.4100  177.7120  137.6570 S   0  0  0  0  0  0  0  0  0  0  0  0
  183.3160  175.9690  138.1890 C   0  0  1  0  0  3  0  0  0  0  0  0
  182.2430  175.8020  139.2610 C   0  0  0  0  0  1  0  0  0  0  0  0
  183.1290  175.0700  137.0420 N   0  0  0  0  0  0  0  0  0  0  0  0
  181.8060  173.2070  136.4880 C   0  0  0  0  0  2  0  0  0  0  0  0
  183.5260  171.6620  137.1770 N   0  0  0  0  0  1  0  0  0  0  0  0
  183.9000  173.9620  137.2410 O   0  0  0  0  0  0  0  0  0  0  0  0
  181.7410  174.6290  136.9380 C   0  0  0  0  0  2  0  0  0  0  0  0
  183.2810  172.9300  136.5200 C   0  0  2  0  0  3  0  0  0  0  0  0
  1 26  1  6  0  0  0
  1  3  1  0  0  0  0
  3  2  1  6  0  0  0
  3  6  1  0  0  0  0
  4  7  1  0  0  0  0
  6  5  2  0  0  0  0
  6  4  1  0  0  0  0
  7  8  2  0  0  0  0
  9 11  1  0  0  0  0
 10  7  1  1  0  0  0
 10 13  1  0  0  0  0
 12  9  1  0  0  0  0
 13 14  1  0  0  0  0
 14 11  2  0  0  0  0
 15 10  1  0  0  0  0
 15 12  1  0  0  0  0
 16  1  1  0  0  0  0
 17 18  2  0  0  0  0
 18 19  1  0  0  0  0
 18 16  1  0  0  0  0
 19 20  2  0  0  0  0
 20 22  1  0  0  0  0
 22 25  1  0  0  0  0
 22 21  2  0  0  0  0
 23 25  1  0  0  0  0
 25 24  1  0  0  0  0
 26 27  1  0  0  0  0
 27 28  1  1  0  0  0
 29 32  1  0  0  0  0
 29 27  1  0  0  0  0
 30 34  1  0  0  0  0
 30 33  1  0  0  0  0
 33 29  1  0  0  0  0
 34 31  1  1  0  0  0
 34 32  1  0  0  0  0
M  END
>  <MODEL>
9

>  <REMARK>
 VINA RESULT:      -6.2      2.243      5.218
  Name = 
  11 active torsions:
  status: ('A' for Active; 'I' for Inactive)
    1  A    between atoms: N_1  and  C_11
    2  A    between atoms: C_3  and  C_32
    3  A    between atoms: C_4  and  C_23
    4  A    between atoms: C_11  and  S_28
    5  A    between atoms: N_16  and  C_31
    6  A    between atoms: N_16  and  C_32
    7  A    between atoms: C_19  and  C_20
    8  A    between atoms: C_20  and  C_31
    9  A    between atoms: S_28  and  C_31
   10  A    between atoms: C_30  and  C_34
   11  A    between atoms: C_33  and  C_34
                            x       y       z     vdW  Elec       q    Type
                         _______ _______ _______ _____ _____    ______ ____

>  <TORSDO>
F 11

$$$$
