=
 OpenBabel10232412223D

 38 42  0  0  1  0  0  0  0  0999 V2000
  188.6750  177.5350  136.9710 O   0  0  0  0  0  0  0  0  0  0  0  0
  190.6790  176.6780  137.4530 C   0  0  0  0  0  0  0  0  0  0  0  0
  192.2050  175.8200  135.8320 C   0  0  0  0  0  3  0  0  0  0  0  0
  188.0010  178.0730  139.2490 C   0  0  0  0  0  3  0  0  0  0  0  0
  190.0380  176.7270  135.1230 C   0  0  0  0  0  3  0  0  0  0  0  0
  189.7670  176.9880  136.4640 C   0  0  0  0  0  0  0  0  0  0  0  0
  191.2770  176.1340  134.8120 C   0  0  0  0  0  3  0  0  0  0  0  0
  190.5180  177.0060  139.8960 N   0  0  0  0  0  0  0  0  0  0  0  0
  190.0800  177.0710  138.6190 C   0  0  0  0  0  0  0  0  0  0  0  0
  188.8600  177.5870  138.2770 C   0  0  0  0  0  0  0  0  0  0  0  0
  189.7240  177.4820  140.9090 C   0  0  0  0  0  0  0  0  0  0  0  0
  188.4310  178.0260  140.5910 C   0  0  0  0  0  0  0  0  0  0  0  0
  191.9110  176.0930  137.1800 C   0  0  0  0  0  3  0  0  0  0  0  0
  190.4340  178.5180  143.1000 C   0  0  0  0  0  3  0  0  0  0  0  0
  190.2470  177.3840  142.2960 C   0  0  0  0  0  0  0  0  0  0  0  0
  190.6210  176.1290  142.8030 C   0  0  0  0  0  3  0  0  0  0  0  0
  191.1460  176.0090  144.0930 C   0  0  0  0  0  3  0  0  0  0  0  0
  191.3150  177.1410  144.8930 C   0  0  0  0  0  0  0  0  0  0  0  0
  190.9590  178.4000  144.3890 C   0  0  0  0  0  3  0  0  0  0  0  0
  191.8520  176.9940  146.2090 N   0  0  0  0  0  2  0  0  0  0  0  0
  191.0470  176.5850  147.3490 C   0  0  0  0  0  2  0  0  0  0  0  0
  189.6410  176.6130  146.9830 N   0  0  0  0  0  2  0  0  0  0  0  0
  189.2300  178.6490  148.0510 O   0  0  0  0  0  0  0  0  0  0  0  0
  188.7870  177.6950  147.3530 C   0  0  0  0  0  0  0  0  0  0  0  0
  187.2020  177.9990  145.4370 C   0  0  2  0  0  3  0  0  0  0  0  0
  184.8200  178.0560  146.0530 N   0  0  0  0  0  2  0  0  0  0  0  0
  185.0530  178.6620  147.3700 C   0  0  0  0  0  2  0  0  0  0  0  0
  185.8140  178.5630  145.1100 C   0  0  0  0  0  2  0  0  0  0  0  0
  187.4510  176.7520  144.6090 C   0  0  0  0  0  1  0  0  0  0  0  0
  187.3540  177.6710  146.9320 C   0  0  2  0  0  3  0  0  0  0  0  0
  186.5280  178.6160  147.8050 C   0  0  0  0  0  2  0  0  0  0  0  0
  187.4790  178.5170  141.6370 C   0  0  0  0  0  2  0  0  0  0  0  0
  185.6500  179.8190  140.8500 O   0  0  0  0  0  1  0  0  0  0  0  0
  186.0480  178.5100  141.1200 C   0  0  2  0  0  3  0  0  0  0  0  0
  185.1620  177.9300  142.1180 N   0  0  0  0  0  2  0  0  0  0  0  0
  183.8510  178.2370  141.7320 N   0  0  0  0  0  2  0  0  0  0  0  0
  182.1710  179.0860  143.4650 N   0  0  0  0  0  0  0  0  0  0  0  0
  182.9320  178.7010  142.6800 C   0  0  0  0  0  0  0  0  0  0  0  0
  1 10  1  0  0  0  0
  2  9  1  0  0  0  0
  3 13  1  0  0  0  0
  4 12  1  0  0  0  0
  5  6  2  0  0  0  0
  6  1  1  0  0  0  0
  6  2  1  0  0  0  0
  7  5  1  0  0  0  0
  7  3  2  0  0  0  0
  8 11  1  0  0  0  0
  9  8  2  0  0  0  0
 10  9  1  0  0  0  0
 10  4  2  0  0  0  0
 11 15  1  0  0  0  0
 12 11  2  0  0  0  0
 12 32  1  0  0  0  0
 13  2  2  0  0  0  0
 14 19  1  0  0  0  0
 15 16  1  0  0  0  0
 15 14  2  0  0  0  0
 16 17  2  0  0  0  0
 17 18  1  0  0  0  0
 18 20  1  0  0  0  0
 19 18  2  0  0  0  0
 20 21  1  0  0  0  0
 22 21  1  0  0  0  0
 22 24  1  0  0  0  0
 24 23  2  0  0  0  0
 25 29  1  6  0  0  0
 25 30  1  0  0  0  0
 26 27  1  0  0  0  0
 27 31  1  0  0  0  0
 28 25  1  0  0  0  0
 28 26  1  0  0  0  0
 30 24  1  1  0  0  0
 30 31  1  0  0  0  0
 34 33  1  1  0  0  0
 34 32  1  0  0  0  0
 34 35  1  0  0  0  0
 36 35  1  0  0  0  0
 36 38  1  0  0  0  0
 38 37  3  0  0  0  0
M  END
>  <MODEL>
1

>  <REMARK>
 VINA RESULT:      -8.5      0.000      0.000
  Name = 
  10 active torsions:
  status: ('A' for Active; 'I' for Inactive)
    1  A    between atoms: C_8  and  C_32
    2  A    between atoms: C_18  and  N_25
    3  A    between atoms: C_18  and  C_28
    4  A    between atoms: C_20  and  N_23
    5  A    between atoms: N_21  and  C_22
    6  A    between atoms: N_21  and  N_25
    7  A    between atoms: N_23  and  C_24
    8  A    between atoms: C_24  and  N_27
    9  A    between atoms: C_28  and  C_33
   10  A    between atoms: C_31  and  C_38
                            x       y       z     vdW  Elec       q    Type
                         _______ _______ _______ _____ _____    ______ ____

>  <TORSDO>
F 10

$$$$
=
 OpenBabel10232412223D

 38 42  0  0  1  0  0  0  0  0999 V2000
  186.0990  178.2190  145.1760 O   0  0  0  0  0  0  0  0  0  0  0  0
  185.0740  178.4160  143.2030 C   0  0  0  0  0  0  0  0  0  0  0  0
  182.7540  178.9010  142.9310 C   0  0  0  0  0  3  0  0  0  0  0  0
  188.3320  177.7390  144.3310 C   0  0  0  0  0  3  0  0  0  0  0  0
  183.7170  178.7200  145.1800 C   0  0  0  0  0  3  0  0  0  0  0  0
  184.9440  178.4560  144.5780 C   0  0  0  0  0  0  0  0  0  0  0  0
  182.6120  178.9450  144.3370 C   0  0  0  0  0  3  0  0  0  0  0  0
  187.0800  177.9830  141.8280 N   0  0  0  0  0  0  0  0  0  0  0  0
  186.3950  178.1370  142.9840 C   0  0  0  0  0  0  0  0  0  0  0  0
  186.9820  178.0250  144.2140 C   0  0  0  0  0  0  0  0  0  0  0  0
  188.4240  177.7120  141.8680 C   0  0  0  0  0  0  0  0  0  0  0  0
  189.0760  177.5780  143.1430 C   0  0  0  0  0  0  0  0  0  0  0  0
  184.0040  178.6340  142.3420 C   0  0  0  0  0  3  0  0  0  0  0  0
  188.7560  178.2630  139.4250 C   0  0  0  0  0  3  0  0  0  0  0  0
  189.1310  177.5470  140.5720 C   0  0  0  0  0  0  0  0  0  0  0  0
  190.1680  176.6060  140.4690 C   0  0  0  0  0  3  0  0  0  0  0  0
  190.8320  176.4060  139.2550 C   0  0  0  0  0  3  0  0  0  0  0  0
  190.4620  177.1340  138.1220 C   0  0  0  0  0  0  0  0  0  0  0  0
  189.4160  178.0640  138.2120 C   0  0  0  0  0  3  0  0  0  0  0  0
  191.1550  176.9140  136.8920 N   0  0  0  0  0  2  0  0  0  0  0  0
  191.1080  175.6480  136.1760 C   0  0  0  0  0  2  0  0  0  0  0  0
  189.7240  175.2940  135.9090 N   0  0  0  0  0  2  0  0  0  0  0  0
  189.7400  173.4540  137.3460 O   0  0  0  0  0  0  0  0  0  0  0  0
  189.0920  174.1870  136.5490 C   0  0  0  0  0  0  0  0  0  0  0  0
  186.7130  174.6050  137.2160 C   0  0  2  0  0  3  0  0  0  0  0  0
  185.0510  173.1730  136.1010 N   0  0  0  0  0  2  0  0  0  0  0  0
  185.9520  172.0210  135.9760 C   0  0  0  0  0  2  0  0  0  0  0  0
  185.3610  173.8920  137.3350 C   0  0  0  0  0  2  0  0  0  0  0  0
  186.4950  176.0350  136.7590 C   0  0  0  0  0  1  0  0  0  0  0  0
  187.6610  173.8850  136.2420 C   0  0  2  0  0  3  0  0  0  0  0  0
  187.4270  172.3750  136.2350 C   0  0  0  0  0  2  0  0  0  0  0  0
  190.5250  177.2310  143.2800 C   0  0  0  0  0  2  0  0  0  0  0  0
  191.9840  178.7920  144.3270 O   0  0  0  0  0  1  0  0  0  0  0  0
  191.0910  177.7540  144.5930 C   0  0  2  0  0  3  0  0  0  0  0  0
  191.7850  176.6860  145.2950 N   0  0  0  0  0  2  0  0  0  0  0  0
  191.6010  176.9060  146.6650 N   0  0  0  0  0  2  0  0  0  0  0  0
  189.2400  176.9180  147.6540 N   0  0  0  0  0  0  0  0  0  0  0  0
  190.3090  176.9130  147.2070 C   0  0  0  0  0  0  0  0  0  0  0  0
  2  6  2  0  0  0  0
  3  7  1  0  0  0  0
  6  1  1  0  0  0  0
  6  5  1  0  0  0  0
  7  5  2  0  0  0  0
  8 11  2  0  0  0  0
  8  9  1  0  0  0  0
  9  2  1  0  0  0  0
  9 10  2  0  0  0  0
 10  4  1  0  0  0  0
 10  1  1  0  0  0  0
 11 12  1  0  0  0  0
 12 32  1  0  0  0  0
 12  4  2  0  0  0  0
 13  3  2  0  0  0  0
 13  2  1  0  0  0  0
 14 15  1  0  0  0  0
 15 11  1  0  0  0  0
 16 15  2  0  0  0  0
 17 16  1  0  0  0  0
 18 19  1  0  0  0  0
 18 17  2  0  0  0  0
 19 14  2  0  0  0  0
 20 18  1  0  0  0  0
 21 20  1  0  0  0  0
 22 21  1  0  0  0  0
 22 24  1  0  0  0  0
 24 23  2  0  0  0  0
 25 29  1  6  0  0  0
 25 28  1  0  0  0  0
 26 28  1  0  0  0  0
 27 26  1  0  0  0  0
 27 31  1  0  0  0  0
 30 24  1  1  0  0  0
 30 25  1  0  0  0  0
 31 30  1  0  0  0  0
 32 34  1  0  0  0  0
 34 33  1  6  0  0  0
 34 35  1  0  0  0  0
 35 36  1  0  0  0  0
 36 38  1  0  0  0  0
 38 37  3  0  0  0  0
M  END
>  <MODEL>
2

>  <REMARK>
 VINA RESULT:      -8.2      2.919      8.720
  Name = 
  10 active torsions:
  status: ('A' for Active; 'I' for Inactive)
    1  A    between atoms: C_8  and  C_32
    2  A    between atoms: C_18  and  N_25
    3  A    between atoms: C_18  and  C_28
    4  A    between atoms: C_20  and  N_23
    5  A    between atoms: N_21  and  C_22
    6  A    between atoms: N_21  and  N_25
    7  A    between atoms: N_23  and  C_24
    8  A    between atoms: C_24  and  N_27
    9  A    between atoms: C_28  and  C_33
   10  A    between atoms: C_31  and  C_38
                            x       y       z     vdW  Elec       q    Type
                         _______ _______ _______ _____ _____    ______ ____

>  <TORSDO>
F 10

$$$$
=
 OpenBabel10232412223D

 38 42  0  0  1  0  0  0  0  0999 V2000
  183.1670  178.8300  145.0970 O   0  0  0  0  0  0  0  0  0  0  0  0
  183.0930  178.6270  142.8750 C   0  0  0  0  0  0  0  0  0  0  0  0
  181.1190  178.8890  141.5620 C   0  0  0  0  0  3  0  0  0  0  0  0
  185.5450  178.3860  145.3800 C   0  0  0  0  0  3  0  0  0  0  0  0
  181.0180  179.1460  144.0000 C   0  0  0  0  0  3  0  0  0  0  0  0
  182.3840  178.8800  144.0330 C   0  0  0  0  0  0  0  0  0  0  0  0
  180.3840  179.1490  142.7420 C   0  0  0  0  0  3  0  0  0  0  0  0
  185.4950  178.1280  142.5830 N   0  0  0  0  0  0  0  0  0  0  0  0
  184.3790  178.4160  143.2910 C   0  0  0  0  0  0  0  0  0  0  0  0
  184.3780  178.5480  144.6520 C   0  0  0  0  0  0  0  0  0  0  0  0
  186.6890  177.9670  143.2380 C   0  0  0  0  0  0  0  0  0  0  0  0
  186.7280  178.0910  144.6700 C   0  0  0  0  0  0  0  0  0  0  0  0
  182.4990  178.6230  141.6180 C   0  0  0  0  0  3  0  0  0  0  0  0
  188.7740  176.6200  142.7670 C   0  0  0  0  0  3  0  0  0  0  0  0
  187.8850  177.6470  142.4160 C   0  0  0  0  0  0  0  0  0  0  0  0
  188.1720  178.4290  141.2860 C   0  0  0  0  0  3  0  0  0  0  0  0
  189.3070  178.1730  140.5110 C   0  0  0  0  0  3  0  0  0  0  0  0
  190.1790  177.1390  140.8590 C   0  0  0  0  0  0  0  0  0  0  0  0
  189.9080  176.3630  141.9950 C   0  0  0  0  0  3  0  0  0  0  0  0
  191.3320  176.8940  140.0510 N   0  0  0  0  0  2  0  0  0  0  0  0
  191.2740  176.1700  138.7910 C   0  0  0  0  0  2  0  0  0  0  0  0
  189.8940  176.0860  138.3450 N   0  0  0  0  0  2  0  0  0  0  0  0
  190.3720  176.8210  136.1800 O   0  0  0  0  0  0  0  0  0  0  0  0
  189.5120  176.4100  137.0080 C   0  0  0  0  0  0  0  0  0  0  0  0
  187.2190  177.3890  137.2510 C   0  0  2  0  0  3  0  0  0  0  0  0
  185.3970  176.0200  136.3210 N   0  0  0  0  0  2  0  0  0  0  0  0
  186.0600  174.7390  136.5950 C   0  0  0  0  0  2  0  0  0  0  0  0
  185.7470  176.9750  137.3710 C   0  0  0  0  0  2  0  0  0  0  0  0
  187.3230  178.6640  136.4350 C   0  0  0  0  0  1  0  0  0  0  0  0
  188.0780  176.2870  136.6080 C   0  0  2  0  0  3  0  0  0  0  0  0
  187.5510  174.8910  136.9420 C   0  0  0  0  0  2  0  0  0  0  0  0
  187.9760  177.8790  145.4690 C   0  0  0  0  0  2  0  0  0  0  0  0
  187.4760  178.5720  147.6890 O   0  0  0  0  0  1  0  0  0  0  0  0
  187.6480  177.4420  146.8890 C   0  0  2  0  0  3  0  0  0  0  0  0
  188.7320  176.6320  147.4220 N   0  0  0  0  0  2  0  0  0  0  0  0
  189.8880  176.9710  146.7100 N   0  0  0  0  0  2  0  0  0  0  0  0
  192.1890  176.2990  147.6060 N   0  0  0  0  0  0  0  0  0  0  0  0
  191.1470  176.6030  147.2000 C   0  0  0  0  0  0  0  0  0  0  0  0
  2  9  1  0  0  0  0
  2  6  2  0  0  0  0
  3 13  2  0  0  0  0
  3  7  1  0  0  0  0
  5  6  1  0  0  0  0
  6  1  1  0  0  0  0
  7  5  2  0  0  0  0
  8 11  1  0  0  0  0
  8  9  2  0  0  0  0
  9 10  1  0  0  0  0
 10  1  1  0  0  0  0
 10  4  2  0  0  0  0
 11 12  2  0  0  0  0
 12  4  1  0  0  0  0
 12 32  1  0  0  0  0
 13  2  1  0  0  0  0
 15 14  1  0  0  0  0
 15 11  1  0  0  0  0
 16 15  2  0  0  0  0
 17 18  2  0  0  0  0
 17 16  1  0  0  0  0
 18 19  1  0  0  0  0
 19 14  2  0  0  0  0
 20 18  1  0  0  0  0
 21 20  1  0  0  0  0
 22 21  1  0  0  0  0
 23 24  2  0  0  0  0
 24 22  1  0  0  0  0
 25 29  1  6  0  0  0
 25 28  1  0  0  0  0
 26 27  1  0  0  0  0
 26 28  1  0  0  0  0
 27 31  1  0  0  0  0
 30 31  1  0  0  0  0
 30 24  1  1  0  0  0
 30 25  1  0  0  0  0
 32 34  1  0  0  0  0
 34 35  1  0  0  0  0
 34 33  1  1  0  0  0
 36 38  1  0  0  0  0
 36 35  1  0  0  0  0
 38 37  3  0  0  0  0
M  END
>  <MODEL>
3

>  <REMARK>
 VINA RESULT:      -8.1      2.119      8.565
  Name = 
  10 active torsions:
  status: ('A' for Active; 'I' for Inactive)
    1  A    between atoms: C_8  and  C_32
    2  A    between atoms: C_18  and  N_25
    3  A    between atoms: C_18  and  C_28
    4  A    between atoms: C_20  and  N_23
    5  A    between atoms: N_21  and  C_22
    6  A    between atoms: N_21  and  N_25
    7  A    between atoms: N_23  and  C_24
    8  A    between atoms: C_24  and  N_27
    9  A    between atoms: C_28  and  C_33
   10  A    between atoms: C_31  and  C_38
                            x       y       z     vdW  Elec       q    Type
                         _______ _______ _______ _____ _____    ______ ____

>  <TORSDO>
F 10

$$$$
=
 OpenBabel10232412223D

 38 42  0  0  1  0  0  0  0  0999 V2000
  188.1070  177.5060  145.9380 O   0  0  0  0  0  0  0  0  0  0  0  0
  190.0710  176.9540  145.0320 C   0  0  0  0  0  0  0  0  0  0  0  0
  191.9810  176.2520  146.2770 C   0  0  0  0  0  3  0  0  0  0  0  0
  186.9380  178.0390  143.8690 C   0  0  0  0  0  3  0  0  0  0  0  0
  189.8980  176.8230  147.4390 C   0  0  0  0  0  3  0  0  0  0  0  0
  189.3380  177.0970  146.1930 C   0  0  0  0  0  0  0  0  0  0  0  0
  191.2390  176.3950  147.4710 C   0  0  0  0  0  3  0  0  0  0  0  0
  189.3920  177.3480  142.6890 N   0  0  0  0  0  0  0  0  0  0  0  0
  189.2090  177.3030  144.0280 C   0  0  0  0  0  0  0  0  0  0  0  0
  188.0240  177.6330  144.6270 C   0  0  0  0  0  0  0  0  0  0  0  0
  188.3550  177.7280  141.8770 C   0  0  0  0  0  0  0  0  0  0  0  0
  187.0950  178.0900  142.4680 C   0  0  0  0  0  0  0  0  0  0  0  0
  191.3970  176.5330  145.0280 C   0  0  0  0  0  3  0  0  0  0  0  0
  187.5860  178.0400  139.4900 C   0  0  0  0  0  3  0  0  0  0  0  0
  188.6070  177.7650  140.4130 C   0  0  0  0  0  0  0  0  0  0  0  0
  189.8890  177.4610  139.9280 C   0  0  0  0  0  3  0  0  0  0  0  0
  190.1500  177.4570  138.5550 C   0  0  0  0  0  3  0  0  0  0  0  0
  189.1320  177.7470  137.6440 C   0  0  0  0  0  0  0  0  0  0  0  0
  187.8440  178.0360  138.1180 C   0  0  0  0  0  3  0  0  0  0  0  0
  189.4210  177.7370  136.2440 N   0  0  0  0  0  2  0  0  0  0  0  0
  189.6450  176.5120  135.4930 C   0  0  0  0  0  2  0  0  0  0  0  0
  188.4010  175.7660  135.4020 N   0  0  0  0  0  2  0  0  0  0  0  0
  189.0110  174.2220  137.0450 O   0  0  0  0  0  0  0  0  0  0  0  0
  188.1390  174.6340  136.2290 C   0  0  0  0  0  0  0  0  0  0  0  0
  185.9060  174.2210  137.2870 C   0  0  2  0  0  3  0  0  0  0  0  0
  184.5750  172.4290  136.2480 N   0  0  0  0  0  2  0  0  0  0  0  0
  185.7420  171.6360  135.8410 C   0  0  0  0  0  2  0  0  0  0  0  0
  184.8740  173.1080  137.5070 C   0  0  0  0  0  2  0  0  0  0  0  0
  185.1910  175.5390  137.0600 C   0  0  0  0  0  1  0  0  0  0  0  0
  186.8340  173.9190  136.0980 C   0  0  2  0  0  3  0  0  0  0  0  0
  187.0650  172.4180  135.9260 C   0  0  0  0  0  2  0  0  0  0  0  0
  185.9280  178.5670  141.6610 C   0  0  0  0  0  2  0  0  0  0  0  0
  183.7460  177.6680  141.3630 O   0  0  0  0  0  1  0  0  0  0  0  0
  184.6120  178.1870  142.3260 C   0  0  2  0  0  3  0  0  0  0  0  0
  184.0080  179.3590  142.9390 N   0  0  0  0  0  2  0  0  0  0  0  0
  183.2750  178.9120  144.0450 N   0  0  0  0  0  2  0  0  0  0  0  0
  184.3800  178.7850  146.3500 N   0  0  0  0  0  0  0  0  0  0  0  0
  183.8790  178.8420  145.3060 C   0  0  0  0  0  0  0  0  0  0  0  0
  1  6  1  0  0  0  0
  2  6  2  0  0  0  0
  3  7  1  0  0  0  0
  4 10  1  0  0  0  0
  5  7  2  0  0  0  0
  6  5  1  0  0  0  0
  8  9  1  0  0  0  0
  9 10  2  0  0  0  0
  9  2  1  0  0  0  0
 10  1  1  0  0  0  0
 11 12  1  0  0  0  0
 11  8  2  0  0  0  0
 12  4  2  0  0  0  0
 13  2  1  0  0  0  0
 13  3  2  0  0  0  0
 14 15  1  0  0  0  0
 15 11  1  0  0  0  0
 16 15  2  0  0  0  0
 17 16  1  0  0  0  0
 18 19  1  0  0  0  0
 18 17  2  0  0  0  0
 19 14  2  0  0  0  0
 20 18  1  0  0  0  0
 21 20  1  0  0  0  0
 22 21  1  0  0  0  0
 22 24  1  0  0  0  0
 24 23  2  0  0  0  0
 25 29  1  6  0  0  0
 25 28  1  0  0  0  0
 26 28  1  0  0  0  0
 27 31  1  0  0  0  0
 27 26  1  0  0  0  0
 30 24  1  1  0  0  0
 30 25  1  0  0  0  0
 31 30  1  0  0  0  0
 32 34  1  0  0  0  0
 32 12  1  0  0  0  0
 34 33  1  6  0  0  0
 34 35  1  0  0  0  0
 35 36  1  0  0  0  0
 36 38  1  0  0  0  0
 38 37  3  0  0  0  0
M  END
>  <MODEL>
4

>  <REMARK>
 VINA RESULT:      -8.0      3.039      8.221
  Name = 
  10 active torsions:
  status: ('A' for Active; 'I' for Inactive)
    1  A    between atoms: C_8  and  C_32
    2  A    between atoms: C_18  and  N_25
    3  A    between atoms: C_18  and  C_28
    4  A    between atoms: C_20  and  N_23
    5  A    between atoms: N_21  and  C_22
    6  A    between atoms: N_21  and  N_25
    7  A    between atoms: N_23  and  C_24
    8  A    between atoms: C_24  and  N_27
    9  A    between atoms: C_28  and  C_33
   10  A    between atoms: C_31  and  C_38
                            x       y       z     vdW  Elec       q    Type
                         _______ _______ _______ _____ _____    ______ ____

>  <TORSDO>
F 10

$$$$
=
 OpenBabel10232412223D

 38 42  0  0  1  0  0  0  0  0999 V2000
  186.0390  178.1330  145.2970 O   0  0  0  0  0  0  0  0  0  0  0  0
  185.0310  178.3920  143.3230 C   0  0  0  0  0  0  0  0  0  0  0  0
  182.7400  179.0020  143.0490 C   0  0  0  0  0  3  0  0  0  0  0  0
  188.2450  177.5370  144.4540 C   0  0  0  0  0  3  0  0  0  0  0  0
  183.6880  178.7610  145.2990 C   0  0  0  0  0  3  0  0  0  0  0  0
  184.9000  178.4340  144.6980 C   0  0  0  0  0  0  0  0  0  0  0  0
  182.5980  179.0480  144.4540 C   0  0  0  0  0  3  0  0  0  0  0  0
  187.0130  177.8570  141.9500 N   0  0  0  0  0  0  0  0  0  0  0  0
  186.3350  178.0430  143.1050 C   0  0  0  0  0  0  0  0  0  0  0  0
  186.9120  177.8960  144.3360 C   0  0  0  0  0  0  0  0  0  0  0  0
  188.3400  177.5130  141.9920 C   0  0  0  0  0  0  0  0  0  0  0  0
  188.9820  177.3410  143.2670 C   0  0  0  0  0  0  0  0  0  0  0  0
  183.9750  178.6700  142.4610 C   0  0  0  0  0  3  0  0  0  0  0  0
  190.3650  176.8610  140.6300 C   0  0  0  0  0  3  0  0  0  0  0  0
  189.0400  177.3150  140.6960 C   0  0  0  0  0  0  0  0  0  0  0  0
  188.3800  177.6450  139.5010 C   0  0  0  0  0  3  0  0  0  0  0  0
  189.0220  177.4990  138.2680 C   0  0  0  0  0  3  0  0  0  0  0  0
  190.3370  177.0320  138.2100 C   0  0  0  0  0  0  0  0  0  0  0  0
  191.0090  176.7160  139.3990 C   0  0  0  0  0  3  0  0  0  0  0  0
  190.9740  176.8900  136.9380 N   0  0  0  0  0  2  0  0  0  0  0  0
  191.7240  175.7030  136.5600 C   0  0  0  0  0  2  0  0  0  0  0  0
  193.1280  175.8950  136.8820 N   0  0  0  0  0  2  0  0  0  0  0  0
  193.4620  173.6710  137.5130 O   0  0  0  0  0  0  0  0  0  0  0  0
  193.9510  174.8220  137.3380 C   0  0  0  0  0  0  0  0  0  0  0  0
  196.2920  174.6780  136.4570 C   0  0  2  0  0  3  0  0  0  0  0  0
  198.0580  175.1120  138.1150 N   0  0  0  0  0  2  0  0  0  0  0  0
  197.2940  174.5740  139.2470 C   0  0  0  0  0  2  0  0  0  0  0  0
  197.7220  174.3590  136.9080 C   0  0  0  0  0  2  0  0  0  0  0  0
  196.3200  175.7900  135.4260 C   0  0  0  0  0  1  0  0  0  0  0  0
  195.3910  175.0820  137.6370 C   0  0  2  0  0  3  0  0  0  0  0  0
  195.8010  174.3770  138.9300 C   0  0  0  0  0  2  0  0  0  0  0  0
  190.4100  176.9160  143.4050 C   0  0  0  0  0  2  0  0  0  0  0  0
  191.9690  178.5100  144.2360 O   0  0  0  0  0  1  0  0  0  0  0  0
  191.0490  177.5400  144.6380 C   0  0  2  0  0  3  0  0  0  0  0  0
  191.7320  176.5180  145.4150 N   0  0  0  0  0  2  0  0  0  0  0  0
  191.6420  176.8960  146.7600 N   0  0  0  0  0  2  0  0  0  0  0  0
  189.3500  177.1380  147.8720 N   0  0  0  0  0  0  0  0  0  0  0  0
  190.3870  177.0280  147.3690 C   0  0  0  0  0  0  0  0  0  0  0  0
  2  6  2  0  0  0  0
  3  7  1  0  0  0  0
  6  1  1  0  0  0  0
  6  5  1  0  0  0  0
  7  5  2  0  0  0  0
  8 11  2  0  0  0  0
  8  9  1  0  0  0  0
  9  2  1  0  0  0  0
  9 10  2  0  0  0  0
 10  4  1  0  0  0  0
 10  1  1  0  0  0  0
 11 12  1  0  0  0  0
 12 32  1  0  0  0  0
 12  4  2  0  0  0  0
 13  3  2  0  0  0  0
 13  2  1  0  0  0  0
 14 15  1  0  0  0  0
 15 11  1  0  0  0  0
 16 15  2  0  0  0  0
 17 16  1  0  0  0  0
 18 17  2  0  0  0  0
 18 19  1  0  0  0  0
 19 14  2  0  0  0  0
 20 18  1  0  0  0  0
 21 22  1  0  0  0  0
 21 20  1  0  0  0  0
 22 24  1  0  0  0  0
 24 23  2  0  0  0  0
 25 29  1  6  0  0  0
 25 28  1  0  0  0  0
 25 30  1  0  0  0  0
 26 27  1  0  0  0  0
 28 26  1  0  0  0  0
 30 24  1  6  0  0  0
 30 31  1  0  0  0  0
 31 27  1  0  0  0  0
 32 34  1  0  0  0  0
 34 33  1  6  0  0  0
 34 35  1  0  0  0  0
 35 36  1  0  0  0  0
 36 38  1  0  0  0  0
 38 37  3  0  0  0  0
M  END
>  <MODEL>
5

>  <REMARK>
 VINA RESULT:      -8.0      3.035      9.580
  Name = 
  10 active torsions:
  status: ('A' for Active; 'I' for Inactive)
    1  A    between atoms: C_8  and  C_32
    2  A    between atoms: C_18  and  N_25
    3  A    between atoms: C_18  and  C_28
    4  A    between atoms: C_20  and  N_23
    5  A    between atoms: N_21  and  C_22
    6  A    between atoms: N_21  and  N_25
    7  A    between atoms: N_23  and  C_24
    8  A    between atoms: C_24  and  N_27
    9  A    between atoms: C_28  and  C_33
   10  A    between atoms: C_31  and  C_38
                            x       y       z     vdW  Elec       q    Type
                         _______ _______ _______ _____ _____    ______ ____

>  <TORSDO>
F 10

$$$$
=
 OpenBabel10232412223D

 38 42  0  0  1  0  0  0  0  0999 V2000
  184.0790  178.7910  146.1500 O   0  0  0  0  0  0  0  0  0  0  0  0
  185.9390  178.2370  145.0490 C   0  0  0  0  0  0  0  0  0  0  0  0
  188.0770  177.9530  146.0700 C   0  0  0  0  0  3  0  0  0  0  0  0
  182.5690  178.8090  144.2390 C   0  0  0  0  0  3  0  0  0  0  0  0
  186.1330  178.5660  147.4360 C   0  0  0  0  0  3  0  0  0  0  0  0
  185.3720  178.5430  146.2700 C   0  0  0  0  0  0  0  0  0  0  0  0
  187.5050  178.2660  147.3240 C   0  0  0  0  0  3  0  0  0  0  0  0
  184.8880  178.1060  142.8180 N   0  0  0  0  0  0  0  0  0  0  0  0
  184.9070  178.3100  144.1540 C   0  0  0  0  0  0  0  0  0  0  0  0
  183.7920  178.6510  144.8700 C   0  0  0  0  0  0  0  0  0  0  0  0
  183.7070  178.2330  142.1310 C   0  0  0  0  0  0  0  0  0  0  0  0
  182.5140  178.5970  142.8460 C   0  0  0  0  0  0  0  0  0  0  0  0
  187.2900  177.9350  144.9050 C   0  0  0  0  0  3  0  0  0  0  0  0
  183.1220  176.8890  140.0730 C   0  0  0  0  0  3  0  0  0  0  0  0
  183.7380  178.0030  140.6630 C   0  0  0  0  0  0  0  0  0  0  0  0
  184.4520  178.8910  139.8430 C   0  0  0  0  0  3  0  0  0  0  0  0
  184.5260  178.6850  138.4630 C   0  0  0  0  0  3  0  0  0  0  0  0
  183.8970  177.5820  137.8810 C   0  0  0  0  0  0  0  0  0  0  0  0
  183.1950  176.6810  138.6940 C   0  0  0  0  0  3  0  0  0  0  0  0
  183.9850  177.3910  136.4670 N   0  0  0  0  0  2  0  0  0  0  0  0
  185.2530  177.2880  135.7630 C   0  0  0  0  0  2  0  0  0  0  0  0
  186.2690  176.7770  136.6680 N   0  0  0  0  0  2  0  0  0  0  0  0
  187.7590  178.5270  136.2530 O   0  0  0  0  0  0  0  0  0  0  0  0
  187.5010  177.4630  136.8830 C   0  0  0  0  0  0  0  0  0  0  0  0
  189.0120  177.9610  138.8180 C   0  0  2  0  0  3  0  0  0  0  0  0
  190.5880  176.1630  139.4010 N   0  0  0  0  0  2  0  0  0  0  0  0
  190.7210  175.6710  138.0240 C   0  0  0  0  0  2  0  0  0  0  0  0
  190.3970  177.6110  139.3760 C   0  0  0  0  0  2  0  0  0  0  0  0
  188.0300  178.1250  139.9630 C   0  0  0  0  0  1  0  0  0  0  0  0
  188.4980  176.8930  137.8380 C   0  0  2  0  0  3  0  0  0  0  0  0
  189.6430  176.2250  137.0760 C   0  0  0  0  0  2  0  0  0  0  0  0
  181.1960  178.8090  142.1690 C   0  0  0  0  0  2  0  0  0  0  0  0
  179.9820  180.6630  143.0330 O   0  0  0  0  0  1  0  0  0  0  0  0
  180.8820  180.2920  142.0340 C   0  0  2  0  0  3  0  0  0  0  0  0
  180.2960  180.5600  140.7300 N   0  0  0  0  0  2  0  0  0  0  0  0
  180.6590  179.4990  139.8900 N   0  0  0  0  0  2  0  0  0  0  0  0
  181.1430  179.9330  137.4150 N   0  0  0  0  0  0  0  0  0  0  0  0
  180.9240  179.7360  138.5360 C   0  0  0  0  0  0  0  0  0  0  0  0
  1  6  1  0  0  0  0
  2  6  2  0  0  0  0
  3  7  1  0  0  0  0
  4 10  1  0  0  0  0
  6  5  1  0  0  0  0
  7  5  2  0  0  0  0
  8  9  1  0  0  0  0
  9 10  2  0  0  0  0
  9  2  1  0  0  0  0
 10  1  1  0  0  0  0
 11  8  2  0  0  0  0
 11 12  1  0  0  0  0
 12  4  2  0  0  0  0
 13  2  1  0  0  0  0
 13  3  2  0  0  0  0
 14 15  1  0  0  0  0
 15 11  1  0  0  0  0
 16 15  2  0  0  0  0
 17 16  1  0  0  0  0
 18 17  2  0  0  0  0
 18 19  1  0  0  0  0
 19 14  2  0  0  0  0
 20 18  1  0  0  0  0
 21 20  1  0  0  0  0
 21 22  1  0  0  0  0
 22 24  1  0  0  0  0
 23 24  2  0  0  0  0
 25 28  1  0  0  0  0
 25 29  1  1  0  0  0
 27 26  1  0  0  0  0
 28 26  1  0  0  0  0
 30 24  1  6  0  0  0
 30 25  1  0  0  0  0
 31 30  1  0  0  0  0
 31 27  1  0  0  0  0
 32 12  1  0  0  0  0
 34 32  1  0  0  0  0
 34 33  1  1  0  0  0
 35 34  1  0  0  0  0
 36 35  1  0  0  0  0
 37 38  3  0  0  0  0
 38 36  1  0  0  0  0
M  END
>  <MODEL>
6

>  <REMARK>
 VINA RESULT:      -7.9      2.915      9.001
  Name = 
  10 active torsions:
  status: ('A' for Active; 'I' for Inactive)
    1  A    between atoms: C_8  and  C_32
    2  A    between atoms: C_18  and  N_25
    3  A    between atoms: C_18  and  C_28
    4  A    between atoms: C_20  and  N_23
    5  A    between atoms: N_21  and  C_22
    6  A    between atoms: N_21  and  N_25
    7  A    between atoms: N_23  and  C_24
    8  A    between atoms: C_24  and  N_27
    9  A    between atoms: C_28  and  C_33
   10  A    between atoms: C_31  and  C_38
                            x       y       z     vdW  Elec       q    Type
                         _______ _______ _______ _____ _____    ______ ____

>  <TORSDO>
F 10

$$$$
=
 OpenBabel10232412223D

 38 42  0  0  1  0  0  0  0  0999 V2000
  187.3830  177.8200  145.7710 O   0  0  0  0  0  0  0  0  0  0  0  0
  189.4120  177.3540  144.9680 C   0  0  0  0  0  0  0  0  0  0  0  0
  191.2890  176.7530  146.3130 C   0  0  0  0  0  3  0  0  0  0  0  0
  186.2940  178.2800  143.6410 C   0  0  0  0  0  3  0  0  0  0  0  0
  189.1260  177.2350  147.3650 C   0  0  0  0  0  3  0  0  0  0  0  0
  188.6170  177.4720  146.0910 C   0  0  0  0  0  0  0  0  0  0  0  0
  190.4820  176.8710  147.4680 C   0  0  0  0  0  3  0  0  0  0  0  0
  188.8330  177.6950  142.5910 N   0  0  0  0  0  0  0  0  0  0  0  0
  188.5860  177.6530  143.9200 C   0  0  0  0  0  0  0  0  0  0  0  0
  187.3590  177.9320  144.4560 C   0  0  0  0  0  0  0  0  0  0  0  0
  187.8210  178.0190  141.7240 C   0  0  0  0  0  0  0  0  0  0  0  0
  186.5180  178.3260  142.2490 C   0  0  0  0  0  0  0  0  0  0  0  0
  190.7550  176.9960  145.0350 C   0  0  0  0  0  3  0  0  0  0  0  0
  187.1430  178.0350  139.2900 C   0  0  0  0  0  3  0  0  0  0  0  0
  188.1430  178.0560  140.2740 C   0  0  0  0  0  0  0  0  0  0  0  0
  189.4870  178.0530  139.8690 C   0  0  0  0  0  3  0  0  0  0  0  0
  189.8230  178.0550  138.5120 C   0  0  0  0  0  3  0  0  0  0  0  0
  188.8210  178.0500  137.5380 C   0  0  0  0  0  0  0  0  0  0  0  0
  187.4760  178.0370  137.9350 C   0  0  0  0  0  3  0  0  0  0  0  0
  189.1870  178.0540  136.1570 N   0  0  0  0  0  2  0  0  0  0  0  0
  189.4360  176.8350  135.4040 C   0  0  0  0  0  2  0  0  0  0  0  0
  190.6860  176.2390  135.8460 N   0  0  0  0  0  2  0  0  0  0  0  0
  189.6450  174.6540  137.2090 O   0  0  0  0  0  0  0  0  0  0  0  0
  190.7170  175.1290  136.7410 C   0  0  0  0  0  0  0  0  0  0  0  0
  193.1410  175.6220  137.1410 C   0  0  2  0  0  3  0  0  0  0  0  0
  194.5660  173.6430  137.4740 N   0  0  0  0  0  2  0  0  0  0  0  0
  193.7700  172.7750  136.5980 C   0  0  0  0  0  2  0  0  0  0  0  0
  194.5330  175.0080  136.9530 C   0  0  0  0  0  2  0  0  0  0  0  0
  193.1020  176.4070  138.4390 C   0  0  0  0  0  1  0  0  0  0  0  0
  192.0350  174.5530  137.1450 C   0  0  2  0  0  3  0  0  0  0  0  0
  192.3920  173.3650  136.2510 C   0  0  0  0  0  2  0  0  0  0  0  0
  185.3710  178.7410  141.3810 C   0  0  0  0  0  2  0  0  0  0  0  0
  183.5550  177.2880  140.8810 O   0  0  0  0  0  1  0  0  0  0  0  0
  184.0660  178.1290  141.8700 C   0  0  2  0  0  3  0  0  0  0  0  0
  183.1020  179.1790  142.1580 N   0  0  0  0  0  2  0  0  0  0  0  0
  182.4510  178.8240  143.3460 N   0  0  0  0  0  2  0  0  0  0  0  0
  183.6260  179.1400  145.5960 N   0  0  0  0  0  0  0  0  0  0  0  0
  183.0940  178.9970  144.5770 C   0  0  0  0  0  0  0  0  0  0  0  0
  1  6  1  0  0  0  0
  2 13  1  0  0  0  0
  2  6  2  0  0  0  0
  3  7  1  0  0  0  0
  4 10  1  0  0  0  0
  5  7  2  0  0  0  0
  6  5  1  0  0  0  0
  8  9  1  0  0  0  0
  9 10  2  0  0  0  0
  9  2  1  0  0  0  0
 10  1  1  0  0  0  0
 11 12  1  0  0  0  0
 11  8  2  0  0  0  0
 12  4  2  0  0  0  0
 13  3  2  0  0  0  0
 14 15  1  0  0  0  0
 15 11  1  0  0  0  0
 16 15  2  0  0  0  0
 17 16  1  0  0  0  0
 18 19  1  0  0  0  0
 18 17  2  0  0  0  0
 19 14  2  0  0  0  0
 20 18  1  0  0  0  0
 21 22  1  0  0  0  0
 21 20  1  0  0  0  0
 22 24  1  0  0  0  0
 24 23  2  0  0  0  0
 25 30  1  0  0  0  0
 25 29  1  1  0  0  0
 27 26  1  0  0  0  0
 28 25  1  0  0  0  0
 28 26  1  0  0  0  0
 30 24  1  6  0  0  0
 31 27  1  0  0  0  0
 31 30  1  0  0  0  0
 32 34  1  0  0  0  0
 32 12  1  0  0  0  0
 34 33  1  6  0  0  0
 34 35  1  0  0  0  0
 35 36  1  0  0  0  0
 36 38  1  0  0  0  0
 38 37  3  0  0  0  0
M  END
>  <MODEL>
7

>  <REMARK>
 VINA RESULT:      -7.7      2.153      8.561
  Name = 
  10 active torsions:
  status: ('A' for Active; 'I' for Inactive)
    1  A    between atoms: C_8  and  C_32
    2  A    between atoms: C_18  and  N_25
    3  A    between atoms: C_18  and  C_28
    4  A    between atoms: C_20  and  N_23
    5  A    between atoms: N_21  and  C_22
    6  A    between atoms: N_21  and  N_25
    7  A    between atoms: N_23  and  C_24
    8  A    between atoms: C_24  and  N_27
    9  A    between atoms: C_28  and  C_33
   10  A    between atoms: C_31  and  C_38
                            x       y       z     vdW  Elec       q    Type
                         _______ _______ _______ _____ _____    ______ ____

>  <TORSDO>
F 10

$$$$
=
 OpenBabel10232412223D

 38 42  0  0  1  0  0  0  0  0999 V2000
  191.5570  177.2450  142.8770 O   0  0  0  0  0  0  0  0  0  0  0  0
  189.3440  177.4430  143.0930 C   0  0  0  0  0  0  0  0  0  0  0  0
  188.2070  177.6650  145.1790 C   0  0  0  0  0  3  0  0  0  0  0  0
  191.6280  177.0890  140.4470 C   0  0  0  0  0  3  0  0  0  0  0  0
  190.6510  177.4570  145.1260 C   0  0  0  0  0  3  0  0  0  0  0  0
  190.5640  177.3800  143.7390 C   0  0  0  0  0  0  0  0  0  0  0  0
  189.4510  177.6020  145.8480 C   0  0  0  0  0  3  0  0  0  0  0  0
  188.8400  177.3400  140.6770 N   0  0  0  0  0  0  0  0  0  0  0  0
  189.6460  177.3380  141.7630 C   0  0  0  0  0  0  0  0  0  0  0  0
  191.0060  177.2190  141.6780 C   0  0  0  0  0  0  0  0  0  0  0  0
  189.3900  177.2280  139.4260 C   0  0  0  0  0  0  0  0  0  0  0  0
  190.8160  177.0940  139.2940 C   0  0  0  0  0  0  0  0  0  0  0  0
  188.1410  177.5860  143.7760 C   0  0  0  0  0  3  0  0  0  0  0  0
  187.9990  178.4230  137.6880 C   0  0  0  0  0  3  0  0  0  0  0  0
  188.4630  177.2310  138.2650 C   0  0  0  0  0  0  0  0  0  0  0  0
  187.9880  176.0100  137.7620 C   0  0  0  0  0  3  0  0  0  0  0  0
  187.0900  175.9810  136.6900 C   0  0  0  0  0  3  0  0  0  0  0  0
  186.6450  177.1710  136.1120 C   0  0  0  0  0  0  0  0  0  0  0  0
  187.1020  178.3960  136.6180 C   0  0  0  0  0  3  0  0  0  0  0  0
  185.7280  177.1180  135.0170 N   0  0  0  0  0  2  0  0  0  0  0  0
  184.3690  176.6160  135.1500 C   0  0  0  0  0  2  0  0  0  0  0  0
  183.7030  177.3080  136.2410 N   0  0  0  0  0  2  0  0  0  0  0  0
  183.7750  175.4660  137.6760 O   0  0  0  0  0  0  0  0  0  0  0  0
  183.4540  176.6740  137.4950 C   0  0  0  0  0  0  0  0  0  0  0  0
  183.7810  177.8930  139.6590 C   0  0  2  0  0  3  0  0  0  0  0  0
  181.7070  178.5220  140.8250 N   0  0  0  0  0  2  0  0  0  0  0  0
  180.9430  177.3650  140.3410 C   0  0  0  0  0  2  0  0  0  0  0  0
  183.1020  178.1300  141.0130 C   0  0  0  0  0  2  0  0  0  0  0  0
  184.4810  179.1630  139.2130 C   0  0  0  0  0  1  0  0  0  0  0  0
  182.7780  177.4450  138.5810 C   0  0  2  0  0  3  0  0  0  0  0  0
  181.6320  176.6280  139.1790 C   0  0  0  0  0  2  0  0  0  0  0  0
  191.4950  176.9140  137.9730 C   0  0  0  0  0  2  0  0  0  0  0  0
  193.7980  176.8780  137.3780 O   0  0  0  0  0  1  0  0  0  0  0  0
  192.8360  176.2130  138.1380 C   0  0  2  0  0  3  0  0  0  0  0  0
  192.7330  174.8330  137.6900 N   0  0  0  0  0  2  0  0  0  0  0  0
  194.0190  174.4250  137.3160 N   0  0  0  0  0  2  0  0  0  0  0  0
  195.3580  172.8550  138.8290 N   0  0  0  0  0  0  0  0  0  0  0  0
  194.7520  173.5660  138.1440 C   0  0  0  0  0  0  0  0  0  0  0  0
  1  6  1  0  0  0  0
  2  6  2  0  0  0  0
  2 13  1  0  0  0  0
  3  7  1  0  0  0  0
  4 10  1  0  0  0  0
  5  7  2  0  0  0  0
  6  5  1  0  0  0  0
  8  9  1  0  0  0  0
  9  2  1  0  0  0  0
 10  9  2  0  0  0  0
 10  1  1  0  0  0  0
 11  8  2  0  0  0  0
 12 11  1  0  0  0  0
 12  4  2  0  0  0  0
 13  3  2  0  0  0  0
 14 15  1  0  0  0  0
 15 11  1  0  0  0  0
 16 15  2  0  0  0  0
 17 16  1  0  0  0  0
 18 19  1  0  0  0  0
 18 17  2  0  0  0  0
 19 14  2  0  0  0  0
 20 21  1  0  0  0  0
 20 18  1  0  0  0  0
 21 22  1  0  0  0  0
 22 24  1  0  0  0  0
 24 23  2  0  0  0  0
 25 29  1  6  0  0  0
 25 28  1  0  0  0  0
 26 28  1  0  0  0  0
 27 26  1  0  0  0  0
 30 24  1  6  0  0  0
 30 31  1  0  0  0  0
 30 25  1  0  0  0  0
 31 27  1  0  0  0  0
 32 34  1  0  0  0  0
 32 12  1  0  0  0  0
 34 33  1  6  0  0  0
 35 34  1  0  0  0  0
 36 35  1  0  0  0  0
 36 38  1  0  0  0  0
 38 37  3  0  0  0  0
M  END
>  <MODEL>
8

>  <REMARK>
 VINA RESULT:      -7.7      3.415      8.784
  Name = 
  10 active torsions:
  status: ('A' for Active; 'I' for Inactive)
    1  A    between atoms: C_8  and  C_32
    2  A    between atoms: C_18  and  N_25
    3  A    between atoms: C_18  and  C_28
    4  A    between atoms: C_20  and  N_23
    5  A    between atoms: N_21  and  C_22
    6  A    between atoms: N_21  and  N_25
    7  A    between atoms: N_23  and  C_24
    8  A    between atoms: C_24  and  N_27
    9  A    between atoms: C_28  and  C_33
   10  A    between atoms: C_31  and  C_38
                            x       y       z     vdW  Elec       q    Type
                         _______ _______ _______ _____ _____    ______ ____

>  <TORSDO>
F 10

$$$$
=
 OpenBabel10232412223D

 38 42  0  0  1  0  0  0  0  0999 V2000
  187.4130  178.1250  137.6880 O   0  0  0  0  0  0  0  0  0  0  0  0
  186.3390  178.4160  139.6230 C   0  0  0  0  0  0  0  0  0  0  0  0
  184.0540  179.0760  139.8110 C   0  0  0  0  0  3  0  0  0  0  0  0
  189.5750  177.4900  138.6140 C   0  0  0  0  0  3  0  0  0  0  0  0
  185.0770  178.8040  137.5980 C   0  0  0  0  0  3  0  0  0  0  0  0
  186.2600  178.4540  138.2440 C   0  0  0  0  0  0  0  0  0  0  0  0
  183.9640  179.1180  138.4010 C   0  0  0  0  0  3  0  0  0  0  0  0
  188.2570  177.8410  141.0700 N   0  0  0  0  0  0  0  0  0  0  0  0
  187.6270  178.0380  139.8900 C   0  0  0  0  0  0  0  0  0  0  0  0
  188.2450  177.8720  138.6810 C   0  0  0  0  0  0  0  0  0  0  0  0
  189.5710  177.4490  141.0770 C   0  0  0  0  0  0  0  0  0  0  0  0
  190.2590  177.2710  139.8270 C   0  0  0  0  0  0  0  0  0  0  0  0
  185.2590  178.7190  140.4440 C   0  0  0  0  0  3  0  0  0  0  0  0
  190.5660  175.9750  142.8720 C   0  0  0  0  0  3  0  0  0  0  0  0
  190.2210  177.2500  142.3990 C   0  0  0  0  0  0  0  0  0  0  0  0
  190.4470  178.3600  143.2280 C   0  0  0  0  0  3  0  0  0  0  0  0
  191.0280  178.2010  144.4890 C   0  0  0  0  0  3  0  0  0  0  0  0
  191.3830  176.9300  144.9470 C   0  0  0  0  0  0  0  0  0  0  0  0
  191.1460  175.8140  144.1320 C   0  0  0  0  0  3  0  0  0  0  0  0
  191.9760  176.7920  146.2400 N   0  0  0  0  0  2  0  0  0  0  0  0
  191.2000  176.5090  147.4370 C   0  0  0  0  0  2  0  0  0  0  0  0
  189.7840  176.5410  147.1150 N   0  0  0  0  0  2  0  0  0  0  0  0
  189.4850  178.7260  147.8830 O   0  0  0  0  0  0  0  0  0  0  0  0
  188.9830  177.6980  147.3480 C   0  0  0  0  0  0  0  0  0  0  0  0
  187.3320  177.9360  145.4780 C   0  0  2  0  0  3  0  0  0  0  0  0
  184.9750  178.0450  146.1760 N   0  0  0  0  0  2  0  0  0  0  0  0
  185.2600  178.7050  147.4560 C   0  0  0  0  0  2  0  0  0  0  0  0
  185.9390  178.5000  145.1770 C   0  0  0  0  0  2  0  0  0  0  0  0
  187.5400  176.6520  144.6970 C   0  0  0  0  0  1  0  0  0  0  0  0
  187.5350  177.6710  146.9800 C   0  0  2  0  0  3  0  0  0  0  0  0
  186.7500  178.6610  147.8400 C   0  0  0  0  0  2  0  0  0  0  0  0
  191.7060  176.8970  139.7440 C   0  0  0  0  0  2  0  0  0  0  0  0
  191.9390  175.1870  138.1060 O   0  0  0  0  0  1  0  0  0  0  0  0
  192.1010  176.5570  138.3140 C   0  0  2  0  0  3  0  0  0  0  0  0
  193.4900  176.9210  138.0820 N   0  0  0  0  0  2  0  0  0  0  0  0
  194.0180  175.9820  137.1880 N   0  0  0  0  0  2  0  0  0  0  0  0
  194.4020  176.6180  134.7400 N   0  0  0  0  0  0  0  0  0  0  0  0
  194.2290  176.3300  135.8480 C   0  0  0  0  0  0  0  0  0  0  0  0
  1  6  1  0  0  0  0
  1 10  1  0  0  0  0
  2  9  1  0  0  0  0
  2 13  2  0  0  0  0
  3 13  1  0  0  0  0
  4 10  2  0  0  0  0
  4 12  1  0  0  0  0
  5  6  2  0  0  0  0
  5  7  1  0  0  0  0
  6  2  1  0  0  0  0
  7  3  2  0  0  0  0
  8 11  1  0  0  0  0
  9  8  2  0  0  0  0
 10  9  1  0  0  0  0
 11 15  1  0  0  0  0
 12 11  2  0  0  0  0
 14 19  1  0  0  0  0
 15 14  2  0  0  0  0
 15 16  1  0  0  0  0
 16 17  2  0  0  0  0
 17 18  1  0  0  0  0
 18 20  1  0  0  0  0
 19 18  2  0  0  0  0
 20 21  1  0  0  0  0
 22 24  1  0  0  0  0
 22 21  1  0  0  0  0
 24 23  2  0  0  0  0
 25 29  1  6  0  0  0
 25 30  1  0  0  0  0
 26 27  1  0  0  0  0
 27 31  1  0  0  0  0
 28 25  1  0  0  0  0
 28 26  1  0  0  0  0
 30 24  1  1  0  0  0
 30 31  1  0  0  0  0
 32 12  1  0  0  0  0
 34 33  1  1  0  0  0
 34 32  1  0  0  0  0
 35 34  1  0  0  0  0
 36 35  1  0  0  0  0
 37 38  3  0  0  0  0
 38 36  1  0  0  0  0
M  END
>  <MODEL>
9

>  <REMARK>
 VINA RESULT:      -7.6      2.005      5.449
  Name = 
  10 active torsions:
  status: ('A' for Active; 'I' for Inactive)
    1  A    between atoms: C_8  and  C_32
    2  A    between atoms: C_18  and  N_25
    3  A    between atoms: C_18  and  C_28
    4  A    between atoms: C_20  and  N_23
    5  A    between atoms: N_21  and  C_22
    6  A    between atoms: N_21  and  N_25
    7  A    between atoms: N_23  and  C_24
    8  A    between atoms: C_24  and  N_27
    9  A    between atoms: C_28  and  C_33
   10  A    between atoms: C_31  and  C_38
                            x       y       z     vdW  Elec       q    Type
                         _______ _______ _______ _____ _____    ______ ____

>  <TORSDO>
F 10

$$$$
