=
 OpenBabel10232409143D

 57 62  0  0  1  0  0  0  0  0999 V2000
  192.6030  177.5290  140.0040 S   0  0  0  0  0  1  0  0  0  0  0  0
  190.9300  176.7950  139.8880 C   0  0  1  0  0  0  0  0  0  0  0  0
  190.9620  175.6310  138.9240 C   0  0  0  0  0  3  0  0  0  0  0  0
  191.7460  175.6340  137.8440 C   0  0  0  0  0  3  0  0  0  0  0  0
  190.8070  174.6470  135.8210 C   0  0  0  0  0  1  0  0  0  0  0  0
  191.8170  174.4520  136.9390 C   0  0  1  0  0  3  0  0  0  0  0  0
  193.1470  174.3440  136.4280 O   0  0  0  0  0  0  0  0  0  0  0  0
  194.6910  172.6530  137.5370 C   0  0  1  0  0  3  0  0  0  0  0  0
  196.0170  172.9650  138.1620 C   0  0  1  0  0  3  0  0  0  0  0  0
  198.0050  173.9140  137.7790 C   0  0  0  0  0  3  0  0  0  0  0  0
  194.9880  174.9730  137.7860 N   0  0  0  0  0  0  0  0  0  0  0  0
  197.3280  174.8460  138.3590 N   0  0  0  0  0  0  0  0  0  0  0  0
  197.1910  172.7210  137.5850 C   0  0  0  0  0  2  0  0  0  0  0  0
  194.2630  174.0540  137.2230 C   0  0  0  0  0  0  0  0  0  0  0  0
  195.9890  174.3600  138.6510 C   0  0  2  0  0  3  0  0  0  0  0  0
  193.8200  171.0070  135.9130 C   0  0  0  0  0  2  0  0  0  0  0  0
  194.8030  171.8300  136.2810 C   0  0  0  0  0  3  0  0  0  0  0  0
  190.4550  176.3770  141.2150 N   0  0  0  0  0  2  0  0  0  0  0  0
  191.1700  177.0450  142.2990 C   0  0  0  0  0  2  0  0  0  0  0  0
  190.2560  178.0450  142.9780 C   0  0  0  0  0  2  0  0  0  0  0  0
  190.5890  178.1440  144.4540 C   0  0  0  0  0  2  0  0  0  0  0  0
  187.6340  176.7180  143.9480 C   0  0  0  0  0  1  0  0  0  0  0  0
  188.3850  177.0400  147.2400 N   0  0  0  0  0  2  0  0  0  0  0  0
  190.7250  176.8830  147.1530 O   0  0  0  0  0  0  0  0  0  0  0  0
  189.5200  177.5540  145.2460 N   0  0  0  0  0  0  0  0  0  0  0  0
  189.6300  177.1360  146.5870 C   0  0  0  0  0  0  0  0  0  0  0  0
  188.1060  177.7520  144.9590 C   0  0  2  0  0  3  0  0  0  0  0  0
  187.3750  177.5060  146.2960 C   0  0  2  0  0  3  0  0  0  0  0  0
  186.7930  178.8140  146.7900 C   0  0  0  0  0  2  0  0  0  0  0  0
  185.3540  178.6180  147.2220 C   0  0  0  0  0  2  0  0  0  0  0  0
  184.5270  178.1080  146.0540 C   0  0  0  0  0  2  0  0  0  0  0  0
  184.4900  179.1330  144.9260 C   0  0  0  0  0  2  0  0  0  0  0  0
  184.3160  178.4590  143.5730 C   0  0  0  0  0  2  0  0  0  0  0  0
  182.9530  178.7860  142.9880 C   0  0  0  0  0  2  0  0  0  0  0  0
  181.9380  178.9250  144.1020 C   0  0  0  0  0  1  0  0  0  0  0  0
  189.9500  177.8530  139.3670 C   0  0  0  0  0  2  0  0  0  0  0  0
  188.8030  177.2410  138.7040 N   0  0  0  0  0  2  0  0  0  0  0  0
  184.0400  178.7250  138.8510 C   0  0  2  0  0  3  0  0  0  0  0  0
  186.5410  177.7610  137.8560 C   0  0  2  0  0  3  0  0  0  0  0  0
  186.0160  178.9600  140.9000 C   0  0  0  0  0  2  0  0  0  0  0  0
  185.3220  178.2910  138.4720 C   0  0  0  0  0  0  0  0  0  0  0  0
  185.0930  178.7970  139.7790 C   0  0  0  0  0  0  0  0  0  0  0  0
  187.6650  178.1180  138.9040 C   0  0  1  0  0  3  0  0  0  0  0  0
  187.2630  178.1140  140.4510 C   0  0  0  0  0  2  0  0  0  0  0  0
  181.7900  178.0670  138.9340 C   0  0  0  0  0  2  0  0  0  0  0  0
  183.1470  177.6250  139.2350 N   0  0  1  0  0  0  0  0  0  0  0  0
  181.3090  177.3770  137.6790 C   0  0  2  0  0  3  0  0  0  0  0  0
  182.2350  176.2060  137.4870 C   0  0  0  0  0  2  0  0  0  0  0  0
  183.3910  176.4210  138.4380 C   0  0  0  0  0  2  0  0  0  0  0  0
  181.3920  178.3390  136.4960 C   0  0  0  0  0  2  0  0  0  0  0  0
  180.2390  179.3390  136.5010 C   0  0  0  0  0  2  0  0  0  0  0  0
  180.7480  180.7620  136.3560 C   0  0  0  0  0  2  0  0  0  0  0  0
  180.5970  181.4840  137.6580 C   0  0  0  0  0  3  0  0  0  0  0  0
  181.6660  181.7470  138.4090 C   0  0  0  0  0  2  0  0  0  0  0  0
  187.3600  179.5910  136.5250 O   0  0  0  0  0  1  0  0  0  0  0  0
  186.3600  177.8820  135.3620 O   0  0  0  0  0  0  0  0  0  0  0  0
  186.7930  178.4600  136.5510 C   0  0  0  0  0  0  0  0  0  0  0  0
  2  1  1  1  0  0  0
  2 18  1  0  0  0  0
  3  2  1  0  0  0  0
  4  3  2  0  0  0  0
  6  5  1  6  0  0  0
  6  4  1  0  0  0  0
  7  6  1  0  0  0  0
  7 14  1  0  0  0  0
  8 17  1  6  0  0  0
  8  9  1  0  0  0  0
  9 13  1  6  0  0  0
  9 15  1  0  0  0  0
 10 12  2  0  0  0  0
 12 15  1  0  0  0  0
 13 10  1  0  0  0  0
 14  8  1  0  0  0  0
 14 11  2  0  0  0  0
 15 11  1  6  0  0  0
 16 17  2  0  0  0  0
 18 19  1  0  0  0  0
 19 20  1  0  0  0  0
 20 21  1  0  0  0  0
 21 25  1  0  0  0  0
 25 26  1  0  0  0  0
 26 24  2  0  0  0  0
 26 23  1  0  0  0  0
 27 22  1  6  0  0  0
 27 25  1  0  0  0  0
 27 28  1  0  0  0  0
 28 29  1  1  0  0  0
 28 23  1  0  0  0  0
 29 30  1  0  0  0  0
 31 30  1  0  0  0  0
 32 31  1  0  0  0  0
 33 32  1  0  0  0  0
 34 33  1  0  0  0  0
 34 35  1  0  0  0  0
 36  2  1  0  0  0  0
 37 36  1  0  0  0  0
 38 41  1  6  0  0  0
 38 46  1  0  0  0  0
 38 42  1  0  0  0  0
 39 57  1  6  0  0  0
 39 41  1  0  0  0  0
 39 43  1  0  0  0  0
 41 42  2  0  0  0  0
 42 40  1  0  0  0  0
 43 37  1  1  0  0  0
 43 44  1  0  0  0  0
 44 40  1  0  0  0  0
 45 46  1  0  0  0  0
 46 49  1  6  0  0  0
 47 50  1  6  0  0  0
 47 45  1  0  0  0  0
 48 47  1  0  0  0  0
 48 49  1  0  0  0  0
 50 51  1  0  0  0  0
 52 51  1  0  0  0  0
 52 53  1  0  0  0  0
 53 54  2  0  0  0  0
 55 57  1  0  0  0  0
 56 57  2  0  0  0  0
M  END
>  <MODEL>
1

>  <REMARK>
 VINA RESULT:      -7.0      0.000      0.000
  Name = 
  25 active torsions:
  status: ('A' for Active; 'I' for Inactive)
    1  A    between atoms: C_1  and  N_15
    2  A    between atoms: C_1  and  C_54
    3  A    between atoms: C_2  and  N_34
    4  A    between atoms: C_3  and  C_14
    5  A    between atoms: C_3  and  C_50
    6  A    between atoms: C_4  and  C_56
    7  A    between atoms: C_8  and  C_26
    8  A    between atoms: C_8  and  C_46
    9  A    between atoms: C_12  and  C_14
   10  A    between atoms: N_15  and  C_49
   11  A    between atoms: C_16  and  C_55
   12  A    between atoms: N_21  and  C_32
   13  A    between atoms: C_24  and  C_33
   14  A    between atoms: C_24  and  C_50
   15  A    between atoms: C_30  and  C_36
   16  A    between atoms: C_30  and  C_46
   17  A    between atoms: C_31  and  O_44
   18  A    between atoms: C_31  and  C_52
   19  A    between atoms: C_32  and  C_54
   20  A    between atoms: C_33  and  C_41
   21  A    between atoms: C_38  and  N_43
   22  A    between atoms: C_38  and  C_49
   23  A    between atoms: C_39  and  O_44
   24  A    between atoms: C_42  and  N_43
   25  A    between atoms: C_47  and  C_49
                            x       y       z     vdW  Elec       q    Type
                         _______ _______ _______ _____ _____    ______ ____

>  <TORSDO>
F 25

$$$$
=
 OpenBabel10232409143D

 57 62  0  0  1  0  0  0  0  0999 V2000
  192.7960  177.8110  139.9010 S   0  0  0  0  0  1  0  0  0  0  0  0
  191.2660  176.8400  139.6460 C   0  0  1  0  0  0  0  0  0  0  0  0
  191.5290  175.7540  138.6260 C   0  0  0  0  0  3  0  0  0  0  0  0
  192.5940  175.7870  137.8240 C   0  0  0  0  0  3  0  0  0  0  0  0
  192.5920  175.1740  135.4620 C   0  0  0  0  0  1  0  0  0  0  0  0
  192.8770  174.6780  136.8700 C   0  0  1  0  0  3  0  0  0  0  0  0
  194.2410  174.2800  137.0180 O   0  0  0  0  0  0  0  0  0  0  0  0
  196.1640  172.6460  136.6880 C   0  0  1  0  0  3  0  0  0  0  0  0
  196.0380  171.1530  136.6430 C   0  0  1  0  0  3  0  0  0  0  0  0
  195.2650  169.3810  137.7640 C   0  0  0  0  0  3  0  0  0  0  0  0
  193.9130  171.9880  136.4990 N   0  0  0  0  0  0  0  0  0  0  0  0
  194.3210  169.6490  136.9280 N   0  0  0  0  0  0  0  0  0  0  0  0
  196.3500  170.3460  137.6530 C   0  0  0  0  0  2  0  0  0  0  0  0
  194.7050  172.9850  136.7530 C   0  0  0  0  0  0  0  0  0  0  0  0
  194.6920  170.8110  136.1360 C   0  0  2  0  0  3  0  0  0  0  0  0
  197.7590  174.1540  137.8240 C   0  0  0  0  0  2  0  0  0  0  0  0
  196.8870  173.1470  137.9100 C   0  0  0  0  0  3  0  0  0  0  0  0
  190.7940  176.2750  140.9180 N   0  0  0  0  0  2  0  0  0  0  0  0
  191.4670  176.8610  142.0730 C   0  0  0  0  0  2  0  0  0  0  0  0
  190.5780  177.9120  142.7070 C   0  0  0  0  0  2  0  0  0  0  0  0
  190.8690  178.0210  144.1920 C   0  0  0  0  0  2  0  0  0  0  0  0
  188.0270  176.4080  143.6080 C   0  0  0  0  0  1  0  0  0  0  0  0
  188.5330  177.0180  146.9060 N   0  0  0  0  0  2  0  0  0  0  0  0
  190.8780  176.9760  146.9850 O   0  0  0  0  0  0  0  0  0  0  0  0
  189.7770  177.4380  144.9560 N   0  0  0  0  0  0  0  0  0  0  0  0
  189.8140  177.1280  146.3310 C   0  0  0  0  0  0  0  0  0  0  0  0
  188.3780  177.5390  144.5630 C   0  0  2  0  0  3  0  0  0  0  0  0
  187.5700  177.3580  145.8650 C   0  0  2  0  0  3  0  0  0  0  0  0
  186.8950  178.6670  146.2160 C   0  0  0  0  0  2  0  0  0  0  0  0
  185.5850  178.4060  146.9310 C   0  0  0  0  0  2  0  0  0  0  0  0
  184.4190  178.6830  145.9970 C   0  0  0  0  0  2  0  0  0  0  0  0
  184.9050  178.8860  144.5670 C   0  0  0  0  0  2  0  0  0  0  0  0
  183.7390  178.9490  143.5920 C   0  0  0  0  0  2  0  0  0  0  0  0
  182.4260  178.7180  144.3180 C   0  0  0  0  0  2  0  0  0  0  0  0
  181.2680  179.0440  143.4000 C   0  0  0  0  0  1  0  0  0  0  0  0
  190.1610  177.7650  139.1210 C   0  0  0  0  0  2  0  0  0  0  0  0
  188.9030  177.0490  138.9420 N   0  0  0  0  0  2  0  0  0  0  0  0
  184.2870  178.9370  138.7370 C   0  0  2  0  0  3  0  0  0  0  0  0
  186.7750  177.7870  137.9240 C   0  0  2  0  0  3  0  0  0  0  0  0
  186.0880  178.9420  140.9530 C   0  0  0  0  0  2  0  0  0  0  0  0
  185.5560  178.4040  138.4540 C   0  0  0  0  0  0  0  0  0  0  0  0
  185.2570  178.8910  139.7530 C   0  0  0  0  0  0  0  0  0  0  0  0
  187.8290  178.0160  139.0760 C   0  0  1  0  0  3  0  0  0  0  0  0
  187.2950  178.0040  140.5820 C   0  0  0  0  0  2  0  0  0  0  0  0
  182.5020  178.3740  140.1510 C   0  0  0  0  0  2  0  0  0  0  0  0
  183.2740  177.9090  139.0050 N   0  0  1  0  0  0  0  0  0  0  0  0
  181.1610  178.8820  139.6740 C   0  0  2  0  0  3  0  0  0  0  0  0
  180.9880  178.3160  138.2900 C   0  0  0  0  0  2  0  0  0  0  0  0
  182.3370  177.7620  137.8890 C   0  0  0  0  0  2  0  0  0  0  0  0
  181.1690  180.4090  139.6430 C   0  0  0  0  0  2  0  0  0  0  0  0
  180.0140  180.9630  138.8140 C   0  0  0  0  0  2  0  0  0  0  0  0
  180.5120  181.9500  137.7740 C   0  0  0  0  0  2  0  0  0  0  0  0
  179.9830  181.5690  136.4260 C   0  0  0  0  0  3  0  0  0  0  0  0
  180.8200  181.3640  135.4090 C   0  0  0  0  0  2  0  0  0  0  0  0
  186.8830  178.0420  135.5340 O   0  0  0  0  0  0  0  0  0  0  0  0
  187.9810  179.6450  136.7580 O   0  0  0  0  0  1  0  0  0  0  0  0
  187.1980  178.4980  136.6710 C   0  0  0  0  0  0  0  0  0  0  0  0
  2  1  1  1  0  0  0
  2 18  1  0  0  0  0
  3  2  1  0  0  0  0
  4  3  2  0  0  0  0
  6  5  1  6  0  0  0
  6  7  1  0  0  0  0
  6  4  1  0  0  0  0
  8 14  1  0  0  0  0
  8 17  1  1  0  0  0
  9  8  1  0  0  0  0
  9 13  1  1  0  0  0
 11 14  2  0  0  0  0
 12 10  2  0  0  0  0
 13 10  1  0  0  0  0
 14  7  1  0  0  0  0
 15 11  1  1  0  0  0
 15  9  1  0  0  0  0
 15 12  1  0  0  0  0
 16 17  2  0  0  0  0
 18 19  1  0  0  0  0
 19 20  1  0  0  0  0
 20 21  1  0  0  0  0
 21 25  1  0  0  0  0
 25 26  1  0  0  0  0
 26 23  1  0  0  0  0
 26 24  2  0  0  0  0
 27 22  1  6  0  0  0
 27 25  1  0  0  0  0
 27 28  1  0  0  0  0
 28 29  1  1  0  0  0
 28 23  1  0  0  0  0
 29 30  1  0  0  0  0
 31 30  1  0  0  0  0
 32 31  1  0  0  0  0
 33 34  1  0  0  0  0
 33 32  1  0  0  0  0
 35 34  1  0  0  0  0
 36  2  1  0  0  0  0
 37 36  1  0  0  0  0
 38 41  1  6  0  0  0
 38 46  1  0  0  0  0
 38 42  1  0  0  0  0
 39 57  1  6  0  0  0
 39 41  1  0  0  0  0
 39 43  1  0  0  0  0
 41 42  2  0  0  0  0
 42 40  1  0  0  0  0
 43 37  1  1  0  0  0
 43 44  1  0  0  0  0
 44 40  1  0  0  0  0
 46 49  1  6  0  0  0
 46 45  1  0  0  0  0
 47 50  1  6  0  0  0
 47 45  1  0  0  0  0
 48 47  1  0  0  0  0
 49 48  1  0  0  0  0
 51 50  1  0  0  0  0
 52 51  1  0  0  0  0
 53 52  1  0  0  0  0
 54 53  2  0  0  0  0
 55 57  2  0  0  0  0
 57 56  1  0  0  0  0
M  END
>  <MODEL>
2

>  <REMARK>
 VINA RESULT:      -6.5      1.260      2.032
  Name = 
  25 active torsions:
  status: ('A' for Active; 'I' for Inactive)
    1  A    between atoms: C_1  and  N_15
    2  A    between atoms: C_1  and  C_54
    3  A    between atoms: C_2  and  N_34
    4  A    between atoms: C_3  and  C_14
    5  A    between atoms: C_3  and  C_50
    6  A    between atoms: C_4  and  C_56
    7  A    between atoms: C_8  and  C_26
    8  A    between atoms: C_8  and  C_46
    9  A    between atoms: C_12  and  C_14
   10  A    between atoms: N_15  and  C_49
   11  A    between atoms: C_16  and  C_55
   12  A    between atoms: N_21  and  C_32
   13  A    between atoms: C_24  and  C_33
   14  A    between atoms: C_24  and  C_50
   15  A    between atoms: C_30  and  C_36
   16  A    between atoms: C_30  and  C_46
   17  A    between atoms: C_31  and  O_44
   18  A    between atoms: C_31  and  C_52
   19  A    between atoms: C_32  and  C_54
   20  A    between atoms: C_33  and  C_41
   21  A    between atoms: C_38  and  N_43
   22  A    between atoms: C_38  and  C_49
   23  A    between atoms: C_39  and  O_44
   24  A    between atoms: C_42  and  N_43
   25  A    between atoms: C_47  and  C_49
                            x       y       z     vdW  Elec       q    Type
                         _______ _______ _______ _____ _____    ______ ____

>  <TORSDO>
F 25

$$$$
=
 OpenBabel10232409143D

 57 62  0  0  1  0  0  0  0  0999 V2000
  192.3640  177.5450  139.6280 S   0  0  0  0  0  1  0  0  0  0  0  0
  190.8550  176.6000  139.2040 C   0  0  1  0  0  0  0  0  0  0  0  0
  191.2270  175.4450  138.3010 C   0  0  0  0  0  3  0  0  0  0  0  0
  191.8940  175.6320  137.1610 C   0  0  0  0  0  3  0  0  0  0  0  0
  191.4580  174.4760  135.0570 C   0  0  0  0  0  1  0  0  0  0  0  0
  192.3120  174.4790  136.3140 C   0  0  1  0  0  3  0  0  0  0  0  0
  193.6990  174.6180  136.0020 O   0  0  0  0  0  0  0  0  0  0  0  0
  194.7620  172.7790  137.4030 C   0  0  1  0  0  3  0  0  0  0  0  0
  196.1560  172.8010  137.9540 C   0  0  1  0  0  3  0  0  0  0  0  0
  198.3060  173.0510  137.3930 C   0  0  0  0  0  3  0  0  0  0  0  0
  195.7180  174.9200  137.2120 N   0  0  0  0  0  0  0  0  0  0  0  0
  197.9550  174.2260  137.7910 N   0  0  0  0  0  0  0  0  0  0  0  0
  197.1780  172.1300  137.4300 C   0  0  0  0  0  2  0  0  0  0  0  0
  194.7320  174.1650  136.8340 C   0  0  0  0  0  0  0  0  0  0  0  0
  196.5520  174.2090  138.1730 C   0  0  2  0  0  3  0  0  0  0  0  0
  194.2260  170.4950  136.6270 C   0  0  0  0  0  2  0  0  0  0  0  0
  194.5640  171.7490  136.3230 C   0  0  0  0  0  3  0  0  0  0  0  0
  190.1790  176.1300  140.4220 N   0  0  0  0  0  2  0  0  0  0  0  0
  190.7210  176.7420  141.6320 C   0  0  0  0  0  2  0  0  0  0  0  0
  189.7330  177.7500  142.1840 C   0  0  0  0  0  2  0  0  0  0  0  0
  190.1630  178.2040  143.5670 C   0  0  0  0  0  2  0  0  0  0  0  0
  187.2730  176.5750  143.6970 C   0  0  0  0  0  1  0  0  0  0  0  0
  188.5680  177.1910  146.7700 N   0  0  0  0  0  2  0  0  0  0  0  0
  190.8610  177.1620  146.2720 O   0  0  0  0  0  0  0  0  0  0  0  0
  189.2940  177.6150  144.5750 N   0  0  0  0  0  0  0  0  0  0  0  0
  189.6690  177.3070  145.8990 C   0  0  0  0  0  0  0  0  0  0  0  0
  187.8410  177.7090  144.5360 C   0  0  2  0  0  3  0  0  0  0  0  0
  187.3770  177.5240  145.9970 C   0  0  2  0  0  3  0  0  0  0  0  0
  186.8010  178.8300  146.5020 C   0  0  0  0  0  2  0  0  0  0  0  0
  185.3660  178.6330  146.9460 C   0  0  0  0  0  2  0  0  0  0  0  0
  184.5160  178.1790  145.7720 C   0  0  0  0  0  2  0  0  0  0  0  0
  184.3980  179.2840  144.7280 C   0  0  0  0  0  2  0  0  0  0  0  0
  183.5400  178.8420  143.5520 C   0  0  0  0  0  2  0  0  0  0  0  0
  184.4030  178.2240  142.4670 C   0  0  0  0  0  2  0  0  0  0  0  0
  184.0700  178.8480  141.1290 C   0  0  0  0  0  1  0  0  0  0  0  0
  189.8740  177.5190  138.4670 C   0  0  0  0  0  2  0  0  0  0  0  0
  188.5050  177.0230  138.5550 N   0  0  0  0  0  2  0  0  0  0  0  0
  185.2900  176.1680  134.8340 C   0  0  2  0  0  3  0  0  0  0  0  0
  186.8300  175.7960  137.2130 C   0  0  2  0  0  3  0  0  0  0  0  0
  187.1880  178.2890  135.0600 C   0  0  0  0  0  2  0  0  0  0  0  0
  186.1190  176.0860  135.9660 C   0  0  0  0  0  0  0  0  0  0  0  0
  186.2650  177.1570  135.0470 C   0  0  0  0  0  0  0  0  0  0  0  0
  188.0240  176.8280  137.1990 C   0  0  1  0  0  3  0  0  0  0  0  0
  187.7650  178.2520  136.5230 C   0  0  0  0  0  2  0  0  0  0  0  0
  182.9880  175.8540  134.5040 C   0  0  0  0  0  2  0  0  0  0  0  0
  183.9680  176.7370  135.1250 N   0  0  1  0  0  0  0  0  0  0  0  0
  182.3280  175.0150  135.5730 C   0  0  2  0  0  3  0  0  0  0  0  0
  182.6230  175.7160  136.8720 C   0  0  0  0  0  2  0  0  0  0  0  0
  183.6830  176.7490  136.5620 C   0  0  0  0  0  2  0  0  0  0  0  0
  182.9200  173.6070  135.5650 C   0  0  0  0  0  2  0  0  0  0  0  0
  183.2140  173.1110  136.9770 C   0  0  0  0  0  2  0  0  0  0  0  0
  183.3100  171.5960  137.0150 C   0  0  0  0  0  2  0  0  0  0  0  0
  184.2140  171.1220  135.9200 C   0  0  0  0  0  3  0  0  0  0  0  0
  183.9520  169.9850  135.2770 C   0  0  0  0  0  2  0  0  0  0  0  0
  188.4540  174.1190  136.6320 O   0  0  0  0  0  0  0  0  0  0  0  0
  186.5860  173.3600  137.7310 O   0  0  0  0  0  1  0  0  0  0  0  0
  187.3480  174.3870  137.1850 C   0  0  0  0  0  0  0  0  0  0  0  0
  2  1  1  1  0  0  0
  2 18  1  0  0  0  0
  3  2  1  0  0  0  0
  4  3  2  0  0  0  0
  6  5  1  6  0  0  0
  6  4  1  0  0  0  0
  7  6  1  0  0  0  0
  7 14  1  0  0  0  0
  8 17  1  6  0  0  0
  8  9  1  0  0  0  0
  9 13  1  6  0  0  0
  9 15  1  0  0  0  0
 10 13  1  0  0  0  0
 10 12  2  0  0  0  0
 12 15  1  0  0  0  0
 14 11  2  0  0  0  0
 14  8  1  0  0  0  0
 15 11  1  6  0  0  0
 17 16  2  0  0  0  0
 18 19  1  0  0  0  0
 19 20  1  0  0  0  0
 20 21  1  0  0  0  0
 21 25  1  0  0  0  0
 25 26  1  0  0  0  0
 26 24  2  0  0  0  0
 26 23  1  0  0  0  0
 27 22  1  6  0  0  0
 27 25  1  0  0  0  0
 27 28  1  0  0  0  0
 28 29  1  1  0  0  0
 28 23  1  0  0  0  0
 29 30  1  0  0  0  0
 31 30  1  0  0  0  0
 32 31  1  0  0  0  0
 33 32  1  0  0  0  0
 34 33  1  0  0  0  0
 35 34  1  0  0  0  0
 36 37  1  0  0  0  0
 36  2  1  0  0  0  0
 38 42  1  6  0  0  0
 38 46  1  0  0  0  0
 38 41  1  0  0  0  0
 39 57  1  6  0  0  0
 40 44  1  0  0  0  0
 41 39  1  0  0  0  0
 42 40  1  0  0  0  0
 42 41  2  0  0  0  0
 43 39  1  0  0  0  0
 43 37  1  1  0  0  0
 44 43  1  0  0  0  0
 45 47  1  0  0  0  0
 46 45  1  6  0  0  0
 46 49  1  0  0  0  0
 47 50  1  1  0  0  0
 47 48  1  0  0  0  0
 49 48  1  0  0  0  0
 50 51  1  0  0  0  0
 51 52  1  0  0  0  0
 53 52  1  0  0  0  0
 54 53  2  0  0  0  0
 55 57  2  0  0  0  0
 57 56  1  0  0  0  0
M  END
>  <MODEL>
3

>  <REMARK>
 VINA RESULT:      -6.2      2.186      3.585
  Name = 
  25 active torsions:
  status: ('A' for Active; 'I' for Inactive)
    1  A    between atoms: C_1  and  N_15
    2  A    between atoms: C_1  and  C_54
    3  A    between atoms: C_2  and  N_34
    4  A    between atoms: C_3  and  C_14
    5  A    between atoms: C_3  and  C_50
    6  A    between atoms: C_4  and  C_56
    7  A    between atoms: C_8  and  C_26
    8  A    between atoms: C_8  and  C_46
    9  A    between atoms: C_12  and  C_14
   10  A    between atoms: N_15  and  C_49
   11  A    between atoms: C_16  and  C_55
   12  A    between atoms: N_21  and  C_32
   13  A    between atoms: C_24  and  C_33
   14  A    between atoms: C_24  and  C_50
   15  A    between atoms: C_30  and  C_36
   16  A    between atoms: C_30  and  C_46
   17  A    between atoms: C_31  and  O_44
   18  A    between atoms: C_31  and  C_52
   19  A    between atoms: C_32  and  C_54
   20  A    between atoms: C_33  and  C_41
   21  A    between atoms: C_38  and  N_43
   22  A    between atoms: C_38  and  C_49
   23  A    between atoms: C_39  and  O_44
   24  A    between atoms: C_42  and  N_43
   25  A    between atoms: C_47  and  C_49
                            x       y       z     vdW  Elec       q    Type
                         _______ _______ _______ _____ _____    ______ ____

>  <TORSDO>
F 25

$$$$
=
 OpenBabel10232409143D

 57 62  0  0  1  0  0  0  0  0999 V2000
  189.7050  178.0850  137.5710 S   0  0  0  0  0  1  0  0  0  0  0  0
  190.0110  176.2890  137.7520 C   0  0  1  0  0  0  0  0  0  0  0  0
  190.9890  175.8410  136.6890 C   0  0  0  0  0  3  0  0  0  0  0  0
  192.2720  176.2050  136.7170 C   0  0  0  0  0  3  0  0  0  0  0  0
  194.4500  176.6180  135.6990 C   0  0  0  0  0  1  0  0  0  0  0  0
  193.2390  175.7010  135.7000 C   0  0  1  0  0  3  0  0  0  0  0  0
  193.6000  174.3600  136.0330 O   0  0  0  0  0  0  0  0  0  0  0  0
  195.6200  172.9770  136.7260 C   0  0  1  0  0  3  0  0  0  0  0  0
  196.5000  173.2540  137.9080 C   0  0  1  0  0  3  0  0  0  0  0  0
  197.7570  174.8260  138.8820 C   0  0  0  0  0  3  0  0  0  0  0  0
  194.6540  174.5830  138.1470 N   0  0  0  0  0  0  0  0  0  0  0  0
  196.6270  174.9140  139.4970 N   0  0  0  0  0  0  0  0  0  0  0  0
  197.7010  173.8220  137.8280 C   0  0  0  0  0  2  0  0  0  0  0  0
  194.5850  174.0320  136.9740 C   0  0  0  0  0  0  0  0  0  0  0  0
  195.6970  173.9430  138.9400 C   0  0  2  0  0  3  0  0  0  0  0  0
  196.4360  172.2010  134.5270 C   0  0  0  0  0  2  0  0  0  0  0  0
  196.3080  173.1970  135.4050 C   0  0  0  0  0  3  0  0  0  0  0  0
  190.5110  175.9830  139.1010 N   0  0  0  0  0  2  0  0  0  0  0  0
  190.3410  177.1000  140.0260 C   0  0  0  0  0  2  0  0  0  0  0  0
  190.7130  176.6660  141.4290 C   0  0  0  0  0  2  0  0  0  0  0  0
  190.3650  177.7550  142.4260 C   0  0  0  0  0  2  0  0  0  0  0  0
  187.4660  176.5910  143.5490 C   0  0  0  0  0  1  0  0  0  0  0  0
  189.9030  176.5300  145.9070 N   0  0  0  0  0  2  0  0  0  0  0  0
  191.7920  176.2230  144.5490 O   0  0  0  0  0  0  0  0  0  0  0  0
  189.8330  177.1630  143.6440 N   0  0  0  0  0  0  0  0  0  0  0  0
  190.6010  176.6050  144.6860 C   0  0  0  0  0  0  0  0  0  0  0  0
  188.5200  177.4840  144.1860 C   0  0  2  0  0  3  0  0  0  0  0  0
  188.6030  177.1560  145.6910 C   0  0  2  0  0  3  0  0  0  0  0  0
  188.5300  178.4440  146.4840 C   0  0  0  0  0  2  0  0  0  0  0  0
  187.0890  178.8910  146.6260 C   0  0  0  0  0  2  0  0  0  0  0  0
  186.1570  177.7070  146.4370 C   0  0  0  0  0  2  0  0  0  0  0  0
  184.7280  178.1760  146.1870 C   0  0  0  0  0  2  0  0  0  0  0  0
  184.6770  179.2360  145.0970 C   0  0  0  0  0  2  0  0  0  0  0  0
  183.5310  178.9590  144.1400 C   0  0  0  0  0  2  0  0  0  0  0  0
  184.0640  178.3310  142.8710 C   0  0  0  0  0  1  0  0  0  0  0  0
  188.6910  175.5300  137.5740 C   0  0  0  0  0  2  0  0  0  0  0  0
  188.3920  175.2990  136.1650 N   0  0  0  0  0  2  0  0  0  0  0  0
  183.6300  176.2170  137.3480 C   0  0  2  0  0  3  0  0  0  0  0  0
  186.1800  174.9310  137.2040 C   0  0  2  0  0  3  0  0  0  0  0  0
  185.2540  177.5710  135.4270 C   0  0  0  0  0  2  0  0  0  0  0  0
  184.9110  175.6640  137.1800 C   0  0  0  0  0  0  0  0  0  0  0  0
  184.5160  176.8000  136.4260 C   0  0  0  0  0  0  0  0  0  0  0  0
  186.9710  175.5310  135.9780 C   0  0  1  0  0  3  0  0  0  0  0  0
  186.7320  177.0710  135.6240 C   0  0  0  0  0  2  0  0  0  0  0  0
  183.3200  178.4440  138.0170 C   0  0  0  0  0  2  0  0  0  0  0  0
  183.5290  177.0930  138.5220 N   0  0  1  0  0  0  0  0  0  0  0  0
  181.8710  178.8280  138.2080 C   0  0  2  0  0  3  0  0  0  0  0  0
  181.3280  177.8520  139.2180 C   0  0  0  0  0  2  0  0  0  0  0  0
  182.3680  176.7620  139.3520 C   0  0  0  0  0  2  0  0  0  0  0  0
  181.1260  178.7100  136.8800 C   0  0  0  0  0  2  0  0  0  0  0  0
  180.2050  179.9030  136.6410 C   0  0  0  0  0  2  0  0  0  0  0  0
  180.9230  181.2120  136.9210 C   0  0  0  0  0  2  0  0  0  0  0  0
  180.0420  182.3590  136.5370 C   0  0  0  0  0  3  0  0  0  0  0  0
  180.4940  183.6110  136.6180 C   0  0  0  0  0  2  0  0  0  0  0  0
  185.2350  173.0640  136.0170 O   0  0  0  0  0  0  0  0  0  0  0  0
  186.4010  172.5440  137.9260 O   0  0  0  0  0  1  0  0  0  0  0  0
  185.9210  173.4660  137.0010 C   0  0  0  0  0  0  0  0  0  0  0  0
  2  1  1  6  0  0  0
  2 18  1  0  0  0  0
  3  4  2  0  0  0  0
  3  2  1  0  0  0  0
  6  5  1  1  0  0  0
  6  7  1  0  0  0  0
  6  4  1  0  0  0  0
  7 14  1  0  0  0  0
  8 17  1  6  0  0  0
  8 14  1  0  0  0  0
  8  9  1  0  0  0  0
  9 13  1  6  0  0  0
  9 15  1  0  0  0  0
 10 12  2  0  0  0  0
 13 10  1  0  0  0  0
 14 11  2  0  0  0  0
 15 11  1  6  0  0  0
 15 12  1  0  0  0  0
 16 17  2  0  0  0  0
 18 19  1  0  0  0  0
 19 20  1  0  0  0  0
 20 21  1  0  0  0  0
 21 25  1  0  0  0  0
 24 26  2  0  0  0  0
 25 27  1  0  0  0  0
 25 26  1  0  0  0  0
 26 23  1  0  0  0  0
 27 22  1  6  0  0  0
 27 28  1  0  0  0  0
 28 23  1  0  0  0  0
 28 29  1  1  0  0  0
 29 30  1  0  0  0  0
 31 30  1  0  0  0  0
 32 31  1  0  0  0  0
 33 32  1  0  0  0  0
 34 33  1  0  0  0  0
 35 34  1  0  0  0  0
 36  2  1  0  0  0  0
 37 36  1  0  0  0  0
 38 42  1  6  0  0  0
 38 46  1  0  0  0  0
 39 57  1  6  0  0  0
 40 44  1  0  0  0  0
 40 42  1  0  0  0  0
 41 39  1  0  0  0  0
 41 38  1  0  0  0  0
 42 41  2  0  0  0  0
 43 37  1  1  0  0  0
 43 39  1  0  0  0  0
 44 43  1  0  0  0  0
 45 47  1  0  0  0  0
 46 45  1  6  0  0  0
 46 49  1  0  0  0  0
 47 50  1  6  0  0  0
 47 48  1  0  0  0  0
 48 49  1  0  0  0  0
 51 50  1  0  0  0  0
 51 52  1  0  0  0  0
 53 54  2  0  0  0  0
 53 52  1  0  0  0  0
 55 57  2  0  0  0  0
 57 56  1  0  0  0  0
M  END
>  <MODEL>
4

>  <REMARK>
 VINA RESULT:      -5.7      2.001      2.681
  Name = 
  25 active torsions:
  status: ('A' for Active; 'I' for Inactive)
    1  A    between atoms: C_1  and  N_15
    2  A    between atoms: C_1  and  C_54
    3  A    between atoms: C_2  and  N_34
    4  A    between atoms: C_3  and  C_14
    5  A    between atoms: C_3  and  C_50
    6  A    between atoms: C_4  and  C_56
    7  A    between atoms: C_8  and  C_26
    8  A    between atoms: C_8  and  C_46
    9  A    between atoms: C_12  and  C_14
   10  A    between atoms: N_15  and  C_49
   11  A    between atoms: C_16  and  C_55
   12  A    between atoms: N_21  and  C_32
   13  A    between atoms: C_24  and  C_33
   14  A    between atoms: C_24  and  C_50
   15  A    between atoms: C_30  and  C_36
   16  A    between atoms: C_30  and  C_46
   17  A    between atoms: C_31  and  O_44
   18  A    between atoms: C_31  and  C_52
   19  A    between atoms: C_32  and  C_54
   20  A    between atoms: C_33  and  C_41
   21  A    between atoms: C_38  and  N_43
   22  A    between atoms: C_38  and  C_49
   23  A    between atoms: C_39  and  O_44
   24  A    between atoms: C_42  and  N_43
   25  A    between atoms: C_47  and  C_49
                            x       y       z     vdW  Elec       q    Type
                         _______ _______ _______ _____ _____    ______ ____

>  <TORSDO>
F 25

$$$$
=
 OpenBabel10232409143D

 57 62  0  0  1  0  0  0  0  0999 V2000
  192.5640  177.5950  139.4770 S   0  0  0  0  0  1  0  0  0  0  0  0
  191.1330  176.4950  139.1740 C   0  0  1  0  0  0  0  0  0  0  0  0
  191.6070  175.2400  138.4750 C   0  0  0  0  0  3  0  0  0  0  0  0
  192.7240  175.2220  137.7460 C   0  0  0  0  0  3  0  0  0  0  0  0
  193.7640  174.2990  135.7420 C   0  0  0  0  0  1  0  0  0  0  0  0
  193.2150  173.9630  137.1180 C   0  0  1  0  0  3  0  0  0  0  0  0
  194.2210  173.3940  137.9570 O   0  0  0  0  0  0  0  0  0  0  0  0
  196.5350  172.4250  137.5270 C   0  0  1  0  0  3  0  0  0  0  0  0
  197.7460  173.2110  137.1250 C   0  0  1  0  0  3  0  0  0  0  0  0
  198.5240  174.6650  135.6160 C   0  0  0  0  0  3  0  0  0  0  0  0
  196.1710  174.7350  137.7800 N   0  0  0  0  0  0  0  0  0  0  0  0
  198.1660  175.4130  136.6040 N   0  0  0  0  0  0  0  0  0  0  0  0
  198.2240  173.2650  135.8840 C   0  0  0  0  0  2  0  0  0  0  0  0
  195.5960  173.5710  137.7500 C   0  0  0  0  0  0  0  0  0  0  0  0
  197.6160  174.5820  137.6640 C   0  0  2  0  0  3  0  0  0  0  0  0
  195.5780  170.2920  136.7250 C   0  0  0  0  0  2  0  0  0  0  0  0
  196.0260  171.5160  136.4400 C   0  0  0  0  0  3  0  0  0  0  0  0
  190.4470  176.1780  140.4350 N   0  0  0  0  0  2  0  0  0  0  0  0
  190.2070  177.3640  141.2530 C   0  0  0  0  0  2  0  0  0  0  0  0
  190.5640  177.0740  142.6960 C   0  0  0  0  0  2  0  0  0  0  0  0
  189.9810  178.1380  143.6060 C   0  0  0  0  0  2  0  0  0  0  0  0
  187.1360  176.4270  143.6570 C   0  0  0  0  0  1  0  0  0  0  0  0
  188.3290  177.0760  146.7650 N   0  0  0  0  0  2  0  0  0  0  0  0
  190.6350  177.1130  146.3300 O   0  0  0  0  0  0  0  0  0  0  0  0
  189.1030  177.5240  144.5910 N   0  0  0  0  0  0  0  0  0  0  0  0
  189.4500  177.2250  145.9240 C   0  0  0  0  0  0  0  0  0  0  0  0
  187.6490  177.5760  144.5130 C   0  0  2  0  0  3  0  0  0  0  0  0
  187.1510  177.3760  145.9600 C   0  0  2  0  0  3  0  0  0  0  0  0
  186.5250  178.6650  146.4500 C   0  0  0  0  0  2  0  0  0  0  0  0
  185.6290  179.2530  145.3790 C   0  0  0  0  0  2  0  0  0  0  0  0
  184.2630  178.5900  145.4220 C   0  0  0  0  0  2  0  0  0  0  0  0
  183.2330  179.4170  144.6610 C   0  0  0  0  0  2  0  0  0  0  0  0
  182.8230  178.7310  143.3660 C   0  0  0  0  0  2  0  0  0  0  0  0
  181.4150  179.1400  142.9720 C   0  0  0  0  0  2  0  0  0  0  0  0
  180.4160  178.5170  143.9230 C   0  0  0  0  0  1  0  0  0  0  0  0
  190.1210  177.2180  138.2760 C   0  0  0  0  0  2  0  0  0  0  0  0
  189.5650  176.3230  137.2670 N   0  0  0  0  0  2  0  0  0  0  0  0
  184.7750  177.7040  137.5210 C   0  0  2  0  0  3  0  0  0  0  0  0
  187.1190  176.0680  137.5190 C   0  0  2  0  0  3  0  0  0  0  0  0
  187.0150  179.2810  136.7160 C   0  0  0  0  0  2  0  0  0  0  0  0
  185.9900  177.0000  137.4690 C   0  0  0  0  0  0  0  0  0  0  0  0
  185.9450  178.3790  137.1340 C   0  0  0  0  0  0  0  0  0  0  0  0
  188.2920  176.8800  136.8450 C   0  0  1  0  0  3  0  0  0  0  0  0
  188.3140  178.4640  137.0580 C   0  0  0  0  0  2  0  0  0  0  0  0
  183.4180  179.1880  138.7290 C   0  0  0  0  0  2  0  0  0  0  0  0
  184.4110  178.1300  138.8780 N   0  0  1  0  0  0  0  0  0  0  0  0
  182.0500  178.6360  139.0570 C   0  0  2  0  0  3  0  0  0  0  0  0
  182.3050  177.3590  139.8120 C   0  0  0  0  0  2  0  0  0  0  0  0
  183.7750  177.0510  139.6380 C   0  0  0  0  0  2  0  0  0  0  0  0
  181.2800  178.3640  137.7660 C   0  0  0  0  0  2  0  0  0  0  0  0
  181.5680  179.4220  136.7050 C   0  0  0  0  0  2  0  0  0  0  0  0
  180.3950  179.5730  135.7520 C   0  0  0  0  0  2  0  0  0  0  0  0
  180.7100  178.8910  134.4570 C   0  0  0  0  0  3  0  0  0  0  0  0
  181.7940  178.1230  134.3470 C   0  0  0  0  0  2  0  0  0  0  0  0
  186.7480  174.8910  135.4530 O   0  0  0  0  0  0  0  0  0  0  0  0
  186.5040  173.6460  137.3670 O   0  0  0  0  0  1  0  0  0  0  0  0
  186.7970  174.8410  136.7160 C   0  0  0  0  0  0  0  0  0  0  0  0
  2  1  1  1  0  0  0
  2 18  1  0  0  0  0
  3  2  1  0  0  0  0
  4  3  2  0  0  0  0
  6  5  1  6  0  0  0
  6  4  1  0  0  0  0
  6  7  1  0  0  0  0
  8 17  1  6  0  0  0
  8 14  1  0  0  0  0
  9 13  1  6  0  0  0
  9  8  1  0  0  0  0
  9 15  1  0  0  0  0
 10 13  1  0  0  0  0
 10 12  2  0  0  0  0
 14 11  2  0  0  0  0
 14  7  1  0  0  0  0
 15 12  1  6  0  0  0
 15 11  1  0  0  0  0
 17 16  2  0  0  0  0
 18 19  1  0  0  0  0
 19 20  1  0  0  0  0
 20 21  1  0  0  0  0
 21 25  1  0  0  0  0
 25 26  1  0  0  0  0
 26 24  2  0  0  0  0
 26 23  1  0  0  0  0
 27 22  1  6  0  0  0
 27 25  1  0  0  0  0
 27 28  1  0  0  0  0
 28 29  1  1  0  0  0
 28 23  1  0  0  0  0
 30 31  1  0  0  0  0
 30 29  1  0  0  0  0
 32 31  1  0  0  0  0
 33 32  1  0  0  0  0
 34 33  1  0  0  0  0
 34 35  1  0  0  0  0
 36  2  1  0  0  0  0
 37 36  1  0  0  0  0
 38 42  1  6  0  0  0
 38 46  1  0  0  0  0
 39 57  1  6  0  0  0
 40 44  1  0  0  0  0
 40 42  1  0  0  0  0
 41 39  1  0  0  0  0
 41 38  1  0  0  0  0
 42 41  2  0  0  0  0
 43 44  1  0  0  0  0
 43 37  1  1  0  0  0
 43 39  1  0  0  0  0
 45 47  1  0  0  0  0
 46 45  1  6  0  0  0
 46 49  1  0  0  0  0
 47 50  1  6  0  0  0
 47 48  1  0  0  0  0
 49 48  1  0  0  0  0
 51 50  1  0  0  0  0
 52 51  1  0  0  0  0
 53 52  1  0  0  0  0
 54 53  2  0  0  0  0
 55 57  2  0  0  0  0
 57 56  1  0  0  0  0
M  END
>  <MODEL>
5

>  <REMARK>
 VINA RESULT:      -5.7      1.589      2.155
  Name = 
  25 active torsions:
  status: ('A' for Active; 'I' for Inactive)
    1  A    between atoms: C_1  and  N_15
    2  A    between atoms: C_1  and  C_54
    3  A    between atoms: C_2  and  N_34
    4  A    between atoms: C_3  and  C_14
    5  A    between atoms: C_3  and  C_50
    6  A    between atoms: C_4  and  C_56
    7  A    between atoms: C_8  and  C_26
    8  A    between atoms: C_8  and  C_46
    9  A    between atoms: C_12  and  C_14
   10  A    between atoms: N_15  and  C_49
   11  A    between atoms: C_16  and  C_55
   12  A    between atoms: N_21  and  C_32
   13  A    between atoms: C_24  and  C_33
   14  A    between atoms: C_24  and  C_50
   15  A    between atoms: C_30  and  C_36
   16  A    between atoms: C_30  and  C_46
   17  A    between atoms: C_31  and  O_44
   18  A    between atoms: C_31  and  C_52
   19  A    between atoms: C_32  and  C_54
   20  A    between atoms: C_33  and  C_41
   21  A    between atoms: C_38  and  N_43
   22  A    between atoms: C_38  and  C_49
   23  A    between atoms: C_39  and  O_44
   24  A    between atoms: C_42  and  N_43
   25  A    between atoms: C_47  and  C_49
                            x       y       z     vdW  Elec       q    Type
                         _______ _______ _______ _____ _____    ______ ____

>  <TORSDO>
F 25

$$$$
=
 OpenBabel10232409143D

 57 62  0  0  1  0  0  0  0  0999 V2000
  189.9690  176.1860  140.1600 S   0  0  0  0  0  1  0  0  0  0  0  0
  189.2560  177.8620  139.9800 C   0  0  1  0  0  0  0  0  0  0  0  0
  187.7680  177.8020  140.2470 C   0  0  0  0  0  3  0  0  0  0  0  0
  186.8840  178.3690  139.4240 C   0  0  0  0  0  3  0  0  0  0  0  0
  185.0920  178.9230  140.9830 C   0  0  0  0  0  1  0  0  0  0  0  0
  185.4190  178.2450  139.6630 C   0  0  1  0  0  3  0  0  0  0  0  0
  184.7220  178.8570  138.5760 O   0  0  0  0  0  0  0  0  0  0  0  0
  182.3690  178.0250  138.0790 C   0  0  1  0  0  3  0  0  0  0  0  0
  181.1000  178.6850  138.5290 C   0  0  1  0  0  3  0  0  0  0  0  0
  180.0100  179.4460  140.3260 C   0  0  0  0  0  3  0  0  0  0  0  0
  182.7850  180.1840  138.9180 N   0  0  0  0  0  0  0  0  0  0  0  0
  180.5800  180.4980  139.8470 N   0  0  0  0  0  0  0  0  0  0  0  0
  180.3600  178.2640  139.5500 C   0  0  0  0  0  2  0  0  0  0  0  0
  183.3370  179.0640  138.5600 C   0  0  0  0  0  0  0  0  0  0  0  0
  181.3500  180.1360  138.6660 C   0  0  2  0  0  3  0  0  0  0  0  0
  182.2050  175.5630  138.1970 C   0  0  0  0  0  2  0  0  0  0  0  0
  182.6230  176.7020  138.7510 C   0  0  0  0  0  3  0  0  0  0  0  0
  189.9240  178.8080  140.8860 N   0  0  0  0  0  2  0  0  0  0  0  0
  189.4660  178.6760  142.2670 C   0  0  0  0  0  2  0  0  0  0  0  0
  190.6030  178.1820  143.1390 C   0  0  0  0  0  2  0  0  0  0  0  0
  190.4880  178.7680  144.5340 C   0  0  0  0  0  2  0  0  0  0  0  0
  187.6960  176.9720  144.4740 C   0  0  0  0  0  1  0  0  0  0  0  0
  189.3420  176.7350  147.4300 N   0  0  0  0  0  2  0  0  0  0  0  0
  191.5550  177.0190  146.7010 O   0  0  0  0  0  0  0  0  0  0  0  0
  189.7730  177.8450  145.4030 N   0  0  0  0  0  0  0  0  0  0  0  0
  190.3210  177.1840  146.5210 C   0  0  0  0  0  0  0  0  0  0  0  0
  188.3240  177.8420  145.5530 C   0  0  2  0  0  3  0  0  0  0  0  0
  188.0530  177.1980  146.9290 C   0  0  2  0  0  3  0  0  0  0  0  0
  187.4990  178.2490  147.8670 C   0  0  0  0  0  2  0  0  0  0  0  0
  186.3810  179.0170  147.1930 C   0  0  0  0  0  2  0  0  0  0  0  0
  185.1300  178.1580  147.1230 C   0  0  0  0  0  2  0  0  0  0  0  0
  184.5780  178.1170  145.7030 C   0  0  0  0  0  2  0  0  0  0  0  0
  184.7960  179.4420  144.9870 C   0  0  0  0  0  2  0  0  0  0  0  0
  183.6940  179.6860  143.9720 C   0  0  0  0  0  2  0  0  0  0  0  0
  182.4920  178.8280  144.3050 C   0  0  0  0  0  1  0  0  0  0  0  0
  189.4910  178.3610  138.5490 C   0  0  0  0  0  2  0  0  0  0  0  0
  190.2480  177.3930  137.7620 N   0  0  0  0  0  2  0  0  0  0  0  0
  186.6180  175.1990  135.1300 C   0  0  2  0  0  3  0  0  0  0  0  0
  188.9300  175.5500  136.7750 C   0  0  2  0  0  3  0  0  0  0  0  0
  187.3000  177.9710  135.2070 C   0  0  0  0  0  2  0  0  0  0  0  0
  187.7540  175.4950  135.9030 C   0  0  0  0  0  0  0  0  0  0  0  0
  187.0490  176.5320  135.2370 C   0  0  0  0  0  0  0  0  0  0  0  0
  189.4350  177.0360  136.6130 C   0  0  1  0  0  3  0  0  0  0  0  0
  188.3350  178.1700  136.3740 C   0  0  0  0  0  2  0  0  0  0  0  0
  184.6410  173.9510  135.3130 C   0  0  0  0  0  2  0  0  0  0  0  0
  185.4000  175.0300  135.9320 N   0  0  1  0  0  0  0  0  0  0  0  0
  184.7840  172.7000  136.1490 C   0  0  2  0  0  3  0  0  0  0  0  0
  185.2840  173.1690  137.4890 C   0  0  0  0  0  2  0  0  0  0  0  0
  185.7030  174.6100  137.3020 C   0  0  0  0  0  2  0  0  0  0  0  0
  185.7850  171.7520  135.4920 C   0  0  0  0  0  2  0  0  0  0  0  0
  185.1000  170.5130  134.9230 C   0  0  0  0  0  2  0  0  0  0  0  0
  186.0600  169.3390  134.8580 C   0  0  0  0  0  2  0  0  0  0  0  0
  187.4570  169.8180  135.0970 C   0  0  0  0  0  3  0  0  0  0  0  0
  188.4090  168.9610  135.4640 C   0  0  0  0  0  2  0  0  0  0  0  0
  190.9620  174.9890  135.6150 O   0  0  0  0  0  0  0  0  0  0  0  0
  189.8150  173.2210  136.5270 O   0  0  0  0  0  1  0  0  0  0  0  0
  189.9680  174.5830  136.2840 C   0  0  0  0  0  0  0  0  0  0  0  0
  2  1  1  1  0  0  0
  2  3  1  0  0  0  0
  2 18  1  0  0  0  0
  4  6  1  0  0  0  0
  4  3  2  0  0  0  0
  6  5  1  1  0  0  0
  7  6  1  0  0  0  0
  8  9  1  0  0  0  0
  8 14  1  0  0  0  0
  8 17  1  1  0  0  0
  9 15  1  0  0  0  0
  9 13  1  1  0  0  0
 12 10  2  0  0  0  0
 13 10  1  0  0  0  0
 14  7  1  0  0  0  0
 14 11  2  0  0  0  0
 15 11  1  1  0  0  0
 15 12  1  0  0  0  0
 16 17  2  0  0  0  0
 18 19  1  0  0  0  0
 19 20  1  0  0  0  0
 20 21  1  0  0  0  0
 21 25  1  0  0  0  0
 25 27  1  0  0  0  0
 25 26  1  0  0  0  0
 26 24  2  0  0  0  0
 26 23  1  0  0  0  0
 27 22  1  6  0  0  0
 27 28  1  0  0  0  0
 28 23  1  0  0  0  0
 28 29  1  1  0  0  0
 30 29  1  0  0  0  0
 31 30  1  0  0  0  0
 32 31  1  0  0  0  0
 33 32  1  0  0  0  0
 34 35  1  0  0  0  0
 34 33  1  0  0  0  0
 36  2  1  0  0  0  0
 37 36  1  0  0  0  0
 38 42  1  6  0  0  0
 38 41  1  0  0  0  0
 38 46  1  0  0  0  0
 39 57  1  6  0  0  0
 40 42  1  0  0  0  0
 40 44  1  0  0  0  0
 41 39  1  0  0  0  0
 42 41  2  0  0  0  0
 43 39  1  0  0  0  0
 43 37  1  1  0  0  0
 44 43  1  0  0  0  0
 45 47  1  0  0  0  0
 46 45  1  6  0  0  0
 46 49  1  0  0  0  0
 47 50  1  6  0  0  0
 47 48  1  0  0  0  0
 49 48  1  0  0  0  0
 51 50  1  0  0  0  0
 52 51  1  0  0  0  0
 52 53  1  0  0  0  0
 53 54  2  0  0  0  0
 55 57  2  0  0  0  0
 57 56  1  0  0  0  0
M  END
>  <MODEL>
6

>  <REMARK>
 VINA RESULT:      -5.6      3.049      8.150
  Name = 
  25 active torsions:
  status: ('A' for Active; 'I' for Inactive)
    1  A    between atoms: C_1  and  N_15
    2  A    between atoms: C_1  and  C_54
    3  A    between atoms: C_2  and  N_34
    4  A    between atoms: C_3  and  C_14
    5  A    between atoms: C_3  and  C_50
    6  A    between atoms: C_4  and  C_56
    7  A    between atoms: C_8  and  C_26
    8  A    between atoms: C_8  and  C_46
    9  A    between atoms: C_12  and  C_14
   10  A    between atoms: N_15  and  C_49
   11  A    between atoms: C_16  and  C_55
   12  A    between atoms: N_21  and  C_32
   13  A    between atoms: C_24  and  C_33
   14  A    between atoms: C_24  and  C_50
   15  A    between atoms: C_30  and  C_36
   16  A    between atoms: C_30  and  C_46
   17  A    between atoms: C_31  and  O_44
   18  A    between atoms: C_31  and  C_52
   19  A    between atoms: C_32  and  C_54
   20  A    between atoms: C_33  and  C_41
   21  A    between atoms: C_38  and  N_43
   22  A    between atoms: C_38  and  C_49
   23  A    between atoms: C_39  and  O_44
   24  A    between atoms: C_42  and  N_43
   25  A    between atoms: C_47  and  C_49
                            x       y       z     vdW  Elec       q    Type
                         _______ _______ _______ _____ _____    ______ ____

>  <TORSDO>
F 25

$$$$
=
 OpenBabel10232409143D

 57 62  0  0  1  0  0  0  0  0999 V2000
  189.6770  178.5660  137.7630 S   0  0  0  0  0  1  0  0  0  0  0  0
  189.1830  176.9390  138.4430 C   0  0  1  0  0  0  0  0  0  0  0  0
  189.8220  176.7530  139.8020 C   0  0  0  0  0  3  0  0  0  0  0  0
  189.3360  177.3470  140.8930 C   0  0  0  0  0  3  0  0  0  0  0  0
  191.4400  177.2630  142.1230 C   0  0  0  0  0  1  0  0  0  0  0  0
  189.9340  177.1010  142.2360 C   0  0  1  0  0  3  0  0  0  0  0  0
  189.3770  178.0330  143.1650 O   0  0  0  0  0  0  0  0  0  0  0  0
  188.1890  177.0760  145.2020 C   0  0  1  0  0  3  0  0  0  0  0  0
  186.7690  177.3560  145.5920 C   0  0  1  0  0  3  0  0  0  0  0  0
  185.3160  178.9980  146.0270 C   0  0  0  0  0  3  0  0  0  0  0  0
  187.0260  178.1490  143.4610 N   0  0  0  0  0  0  0  0  0  0  0  0
  185.0920  178.7110  144.7900 N   0  0  0  0  0  0  0  0  0  0  0  0
  186.4120  178.1980  146.5570 C   0  0  0  0  0  2  0  0  0  0  0  0
  188.2010  177.7990  143.8890 C   0  0  0  0  0  0  0  0  0  0  0  0
  185.9960  177.6540  144.3670 C   0  0  2  0  0  3  0  0  0  0  0  0
  190.1350  176.9080  146.7160 C   0  0  0  0  0  2  0  0  0  0  0  0
  189.1970  177.6690  146.1510 C   0  0  0  0  0  3  0  0  0  0  0  0
  187.7190  176.8340  138.5220 N   0  0  0  0  0  2  0  0  0  0  0  0
  187.1790  175.8560  137.5820 C   0  0  0  0  0  2  0  0  0  0  0  0
  185.8020  176.2910  137.1230 C   0  0  0  0  0  2  0  0  0  0  0  0
  185.1100  175.1580  136.3890 C   0  0  0  0  0  2  0  0  0  0  0  0
  182.5950  177.1540  135.5450 C   0  0  0  0  0  1  0  0  0  0  0  0
  181.6280  174.6190  137.5800 N   0  0  0  0  0  2  0  0  0  0  0  0
  183.1690  172.9640  136.9500 O   0  0  0  0  0  0  0  0  0  0  0  0
  183.6720  175.2360  136.5960 N   0  0  0  0  0  0  0  0  0  0  0  0
  182.8480  174.1780  137.0310 C   0  0  0  0  0  0  0  0  0  0  0  0
  182.9660  176.4830  136.8590 C   0  0  2  0  0  3  0  0  0  0  0  0
  181.6690  176.0760  137.5910 C   0  0  2  0  0  3  0  0  0  0  0  0
  181.7340  176.5650  139.0220 C   0  0  0  0  0  2  0  0  0  0  0  0
  180.3380  176.6810  139.6010 C   0  0  0  0  0  2  0  0  0  0  0  0
  180.3900  177.3860  140.9450 C   0  0  0  0  0  2  0  0  0  0  0  0
  180.2820  178.8960  140.7710 C   0  0  0  0  0  2  0  0  0  0  0  0
  180.1290  179.2730  139.3050 C   0  0  0  0  0  2  0  0  0  0  0  0
  180.9110  180.5370  138.9970 C   0  0  0  0  0  2  0  0  0  0  0  0
  182.3260  180.1800  138.5990 C   0  0  0  0  0  1  0  0  0  0  0  0
  189.6690  175.8300  137.5030 C   0  0  0  0  0  2  0  0  0  0  0  0
  190.8270  175.1310  138.0510 N   0  0  0  0  0  2  0  0  0  0  0  0
  194.3620  172.5930  135.6060 C   0  0  2  0  0  3  0  0  0  0  0  0
  193.1060  174.4690  137.3610 C   0  0  2  0  0  3  0  0  0  0  0  0
  191.5430  172.5600  135.1480 C   0  0  0  0  0  2  0  0  0  0  0  0
  193.6340  173.4900  136.4070 C   0  0  0  0  0  0  0  0  0  0  0  0
  192.9650  172.6650  135.4650 C   0  0  0  0  0  0  0  0  0  0  0  0
  191.5940  174.6160  136.9320 C   0  0  1  0  0  3  0  0  0  0  0  0
  190.8620  173.3230  136.3430 C   0  0  0  0  0  2  0  0  0  0  0  0
  195.7230  170.6860  135.4930 C   0  0  0  0  0  2  0  0  0  0  0  0
  194.7020  171.3440  136.2990 N   0  0  1  0  0  0  0  0  0  0  0  0
  197.0690  170.8560  136.1590 C   0  0  2  0  0  3  0  0  0  0  0  0
  196.7650  171.2520  137.5790 C   0  0  0  0  0  2  0  0  0  0  0  0
  195.2920  171.5940  137.6160 C   0  0  0  0  0  2  0  0  0  0  0  0
  197.8640  171.9480  135.4460 C   0  0  0  0  0  2  0  0  0  0  0  0
  199.3550  171.6280  135.4110 C   0  0  0  0  0  2  0  0  0  0  0  0
  200.1880  172.8930  135.5180 C   0  0  0  0  0  2  0  0  0  0  0  0
  199.2980  174.0910  135.4120 C   0  0  0  0  0  3  0  0  0  0  0  0
  199.6700  175.1430  134.6820 C   0  0  0  0  0  2  0  0  0  0  0  0
  193.3170  176.8520  137.6180 O   0  0  0  0  0  1  0  0  0  0  0  0
  195.0560  175.8070  136.5420 O   0  0  0  0  0  0  0  0  0  0  0  0
  193.8300  175.7740  137.1990 C   0  0  0  0  0  0  0  0  0  0  0  0
  2  1  1  6  0  0  0
  2 18  1  0  0  0  0
  2  3  1  0  0  0  0
  3  4  2  0  0  0  0
  4  6  1  0  0  0  0
  6  5  1  6  0  0  0
  6  7  1  0  0  0  0
  7 14  1  0  0  0  0
  8  9  1  0  0  0  0
  8 17  1  1  0  0  0
  9 13  1  1  0  0  0
 10 13  1  0  0  0  0
 11 14  2  0  0  0  0
 12 10  2  0  0  0  0
 14  8  1  0  0  0  0
 15 11  1  6  0  0  0
 15 12  1  0  0  0  0
 15  9  1  0  0  0  0
 17 16  2  0  0  0  0
 19 18  1  0  0  0  0
 20 19  1  0  0  0  0
 21 25  1  0  0  0  0
 21 20  1  0  0  0  0
 23 28  1  0  0  0  0
 24 26  2  0  0  0  0
 25 27  1  0  0  0  0
 25 26  1  0  0  0  0
 26 23  1  0  0  0  0
 27 22  1  6  0  0  0
 27 28  1  0  0  0  0
 28 29  1  1  0  0  0
 29 30  1  0  0  0  0
 30 31  1  0  0  0  0
 32 31  1  0  0  0  0
 33 32  1  0  0  0  0
 34 33  1  0  0  0  0
 35 34  1  0  0  0  0
 36 37  1  0  0  0  0
 36  2  1  0  0  0  0
 38 42  1  6  0  0  0
 38 46  1  0  0  0  0
 38 41  1  0  0  0  0
 39 57  1  6  0  0  0
 40 42  1  0  0  0  0
 40 44  1  0  0  0  0
 41 39  1  0  0  0  0
 42 41  2  0  0  0  0
 43 39  1  0  0  0  0
 43 37  1  1  0  0  0
 44 43  1  0  0  0  0
 45 47  1  0  0  0  0
 46 45  1  6  0  0  0
 46 49  1  0  0  0  0
 47 50  1  6  0  0  0
 47 48  1  0  0  0  0
 48 49  1  0  0  0  0
 51 50  1  0  0  0  0
 51 52  1  0  0  0  0
 53 52  1  0  0  0  0
 54 53  2  0  0  0  0
 56 57  2  0  0  0  0
 57 55  1  0  0  0  0
M  END
>  <MODEL>
7

>  <REMARK>
 VINA RESULT:      -5.5      2.585     11.244
  Name = 
  25 active torsions:
  status: ('A' for Active; 'I' for Inactive)
    1  A    between atoms: C_1  and  N_15
    2  A    between atoms: C_1  and  C_54
    3  A    between atoms: C_2  and  N_34
    4  A    between atoms: C_3  and  C_14
    5  A    between atoms: C_3  and  C_50
    6  A    between atoms: C_4  and  C_56
    7  A    between atoms: C_8  and  C_26
    8  A    between atoms: C_8  and  C_46
    9  A    between atoms: C_12  and  C_14
   10  A    between atoms: N_15  and  C_49
   11  A    between atoms: C_16  and  C_55
   12  A    between atoms: N_21  and  C_32
   13  A    between atoms: C_24  and  C_33
   14  A    between atoms: C_24  and  C_50
   15  A    between atoms: C_30  and  C_36
   16  A    between atoms: C_30  and  C_46
   17  A    between atoms: C_31  and  O_44
   18  A    between atoms: C_31  and  C_52
   19  A    between atoms: C_32  and  C_54
   20  A    between atoms: C_33  and  C_41
   21  A    between atoms: C_38  and  N_43
   22  A    between atoms: C_38  and  C_49
   23  A    between atoms: C_39  and  O_44
   24  A    between atoms: C_42  and  N_43
   25  A    between atoms: C_47  and  C_49
                            x       y       z     vdW  Elec       q    Type
                         _______ _______ _______ _____ _____    ______ ____

>  <TORSDO>
F 25

$$$$
=
 OpenBabel10232409143D

 57 62  0  0  1  0  0  0  0  0999 V2000
  188.5860  177.3250  134.9780 S   0  0  0  0  0  1  0  0  0  0  0  0
  187.1620  176.5010  135.7790 C   0  0  1  0  0  0  0  0  0  0  0  0
  186.9820  175.1230  135.1800 C   0  0  0  0  0  3  0  0  0  0  0  0
  187.2810  174.0170  135.8620 C   0  0  0  0  0  3  0  0  0  0  0  0
  188.3530  171.9060  135.2710 C   0  0  0  0  0  1  0  0  0  0  0  0
  187.0360  172.6650  135.2850 C   0  0  1  0  0  3  0  0  0  0  0  0
  186.0570  171.9950  136.0820 O   0  0  0  0  0  0  0  0  0  0  0  0
  183.8050  171.1810  135.2200 C   0  0  1  0  0  3  0  0  0  0  0  0
  182.4720  171.7580  135.5910 C   0  0  1  0  0  3  0  0  0  0  0  0
  181.1590  172.2790  137.3240 C   0  0  0  0  0  3  0  0  0  0  0  0
  184.0500  173.2330  136.3440 N   0  0  0  0  0  0  0  0  0  0  0  0
  181.7440  173.3920  137.0380 N   0  0  0  0  0  0  0  0  0  0  0  0
  181.6350  171.2040  136.4630 C   0  0  0  0  0  2  0  0  0  0  0  0
  184.6760  172.1750  135.9270 C   0  0  0  0  0  0  0  0  0  0  0  0
  182.6550  173.1870  135.9220 C   0  0  2  0  0  3  0  0  0  0  0  0
  183.5990  168.7220  135.0890 C   0  0  0  0  0  2  0  0  0  0  0  0
  184.0250  169.7920  135.7610 C   0  0  0  0  0  3  0  0  0  0  0  0
  187.3570  176.4290  137.2350 N   0  0  0  0  0  2  0  0  0  0  0  0
  188.5030  177.2150  137.6830 C   0  0  0  0  0  2  0  0  0  0  0  0
  189.0040  176.6820  139.0100 C   0  0  0  0  0  2  0  0  0  0  0  0
  189.4080  177.8290  139.9180 C   0  0  0  0  0  2  0  0  0  0  0  0
  189.0820  175.8870  142.5910 C   0  0  0  0  0  1  0  0  0  0  0  0
  192.1810  177.2400  142.3260 N   0  0  0  0  0  2  0  0  0  0  0  0
  192.3610  177.4200  139.9930 O   0  0  0  0  0  0  0  0  0  0  0  0
  190.2380  177.3320  141.0050 N   0  0  0  0  0  0  0  0  0  0  0  0
  191.6470  177.3340  141.0250 C   0  0  0  0  0  0  0  0  0  0  0  0
  189.7760  177.2240  142.3830 C   0  0  2  0  0  3  0  0  0  0  0  0
  191.0530  177.2600  143.2500 C   0  0  2  0  0  3  0  0  0  0  0  0
  191.0770  178.5510  144.0410 C   0  0  0  0  0  2  0  0  0  0  0  0
  190.8400  178.2690  145.5110 C   0  0  0  0  0  2  0  0  0  0  0  0
  189.3610  178.0300  145.7620 C   0  0  0  0  0  2  0  0  0  0  0  0
  189.0540  178.0410  147.2550 C   0  0  0  0  0  2  0  0  0  0  0  0
  187.7580  177.3030  147.5570 C   0  0  0  0  0  2  0  0  0  0  0  0
  186.6990  177.6440  146.5240 C   0  0  0  0  0  2  0  0  0  0  0  0
  185.9700  178.9050  146.9350 C   0  0  0  0  0  1  0  0  0  0  0  0
  185.8940  177.3270  135.5310 C   0  0  0  0  0  2  0  0  0  0  0  0
  184.7390  176.7550  136.2160 N   0  0  0  0  0  2  0  0  0  0  0  0
  181.4220  179.0430  139.1630 C   0  0  2  0  0  3  0  0  0  0  0  0
  182.5420  177.6160  136.9520 C   0  0  2  0  0  3  0  0  0  0  0  0
  184.2680  179.0310  139.4030 C   0  0  0  0  0  2  0  0  0  0  0  0
  182.0890  178.3770  138.1200 C   0  0  0  0  0  0  0  0  0  0  0  0
  182.8260  178.9760  139.1750 C   0  0  0  0  0  0  0  0  0  0  0  0
  184.1070  177.8240  136.9680 C   0  0  1  0  0  3  0  0  0  0  0  0
  184.8220  177.9630  138.3890 C   0  0  0  0  0  2  0  0  0  0  0  0
  182.0420  177.6900  140.9760 C   0  0  0  0  0  2  0  0  0  0  0  0
  180.8970  178.1320  140.1880 N   0  0  1  0  0  0  0  0  0  0  0  0
  182.0370  178.4110  142.3040 C   0  0  2  0  0  3  0  0  0  0  0  0
  180.6450  178.9610  142.4570 C   0  0  0  0  0  2  0  0  0  0  0  0
  179.9820  178.8130  141.1060 C   0  0  0  0  0  2  0  0  0  0  0  0
  183.0700  179.5360  142.2840 C   0  0  0  0  0  2  0  0  0  0  0  0
  184.0590  179.4150  143.4400 C   0  0  0  0  0  2  0  0  0  0  0  0
  184.6970  178.0380  143.4720 C   0  0  0  0  0  2  0  0  0  0  0  0
  186.1330  178.1410  143.0610 C   0  0  0  0  0  3  0  0  0  0  0  0
  186.4720  178.8170  141.9640 C   0  0  0  0  0  2  0  0  0  0  0  0
  180.8180  178.7760  135.7400 O   0  0  0  0  0  1  0  0  0  0  0  0
  182.6090  178.0650  134.4910 O   0  0  0  0  0  0  0  0  0  0  0  0
  181.9430  178.1990  135.7050 C   0  0  0  0  0  0  0  0  0  0  0  0
  2  1  1  6  0  0  0
  2 18  1  0  0  0  0
  3  2  1  0  0  0  0
  3  4  2  0  0  0  0
  6  5  1  1  0  0  0
  6  4  1  0  0  0  0
  6  7  1  0  0  0  0
  8  9  1  0  0  0  0
  8 17  1  1  0  0  0
  8 14  1  0  0  0  0
  9 15  1  0  0  0  0
  9 13  1  1  0  0  0
 12 10  2  0  0  0  0
 13 10  1  0  0  0  0
 14  7  1  0  0  0  0
 14 11  2  0  0  0  0
 15 11  1  1  0  0  0
 15 12  1  0  0  0  0
 16 17  2  0  0  0  0
 18 19  1  0  0  0  0
 19 20  1  0  0  0  0
 20 21  1  0  0  0  0
 21 25  1  0  0  0  0
 23 28  1  0  0  0  0
 24 26  2  0  0  0  0
 25 26  1  0  0  0  0
 25 27  1  0  0  0  0
 26 23  1  0  0  0  0
 27 22  1  6  0  0  0
 27 28  1  0  0  0  0
 28 29  1  6  0  0  0
 29 30  1  0  0  0  0
 30 31  1  0  0  0  0
 31 32  1  0  0  0  0
 32 33  1  0  0  0  0
 34 35  1  0  0  0  0
 34 33  1  0  0  0  0
 36  2  1  0  0  0  0
 36 37  1  0  0  0  0
 38 41  1  6  0  0  0
 38 42  1  0  0  0  0
 38 46  1  0  0  0  0
 39 57  1  6  0  0  0
 39 43  1  0  0  0  0
 39 41  1  0  0  0  0
 41 42  2  0  0  0  0
 42 40  1  0  0  0  0
 43 37  1  1  0  0  0
 43 44  1  0  0  0  0
 44 40  1  0  0  0  0
 45 47  1  0  0  0  0
 46 45  1  1  0  0  0
 46 49  1  0  0  0  0
 47 50  1  6  0  0  0
 47 48  1  0  0  0  0
 49 48  1  0  0  0  0
 50 51  1  0  0  0  0
 51 52  1  0  0  0  0
 53 52  1  0  0  0  0
 54 53  2  0  0  0  0
 56 57  2  0  0  0  0
 57 55  1  0  0  0  0
M  END
>  <MODEL>
8

>  <REMARK>
 VINA RESULT:      -5.3      3.731      7.286
  Name = 
  25 active torsions:
  status: ('A' for Active; 'I' for Inactive)
    1  A    between atoms: C_1  and  N_15
    2  A    between atoms: C_1  and  C_54
    3  A    between atoms: C_2  and  N_34
    4  A    between atoms: C_3  and  C_14
    5  A    between atoms: C_3  and  C_50
    6  A    between atoms: C_4  and  C_56
    7  A    between atoms: C_8  and  C_26
    8  A    between atoms: C_8  and  C_46
    9  A    between atoms: C_12  and  C_14
   10  A    between atoms: N_15  and  C_49
   11  A    between atoms: C_16  and  C_55
   12  A    between atoms: N_21  and  C_32
   13  A    between atoms: C_24  and  C_33
   14  A    between atoms: C_24  and  C_50
   15  A    between atoms: C_30  and  C_36
   16  A    between atoms: C_30  and  C_46
   17  A    between atoms: C_31  and  O_44
   18  A    between atoms: C_31  and  C_52
   19  A    between atoms: C_32  and  C_54
   20  A    between atoms: C_33  and  C_41
   21  A    between atoms: C_38  and  N_43
   22  A    between atoms: C_38  and  C_49
   23  A    between atoms: C_39  and  O_44
   24  A    between atoms: C_42  and  N_43
   25  A    between atoms: C_47  and  C_49
                            x       y       z     vdW  Elec       q    Type
                         _______ _______ _______ _____ _____    ______ ____

>  <TORSDO>
F 25

$$$$
=
 OpenBabel10232409143D

 57 62  0  0  1  0  0  0  0  0999 V2000
  188.6770  175.8170  138.3110 S   0  0  0  0  0  1  0  0  0  0  0  0
  189.9960  177.0250  137.9190 C   0  0  1  0  0  0  0  0  0  0  0  0
  190.8940  176.4510  136.8460 C   0  0  0  0  0  3  0  0  0  0  0  0
  191.5200  175.2840  137.0040 C   0  0  0  0  0  3  0  0  0  0  0  0
  192.4840  175.7340  134.8090 C   0  0  0  0  0  1  0  0  0  0  0  0
  192.3490  174.6990  135.9130 C   0  0  1  0  0  3  0  0  0  0  0  0
  193.6240  174.3370  136.4470 O   0  0  0  0  0  0  0  0  0  0  0  0
  195.6110  172.7570  136.6340 C   0  0  1  0  0  3  0  0  0  0  0  0
  195.5350  171.2600  136.6260 C   0  0  1  0  0  3  0  0  0  0  0  0
  194.5710  169.5060  137.6210 C   0  0  0  0  0  3  0  0  0  0  0  0
  193.4790  172.0170  135.9690 N   0  0  0  0  0  0  0  0  0  0  0  0
  193.8350  169.7100  136.5820 N   0  0  0  0  0  0  0  0  0  0  0  0
  195.6290  170.5020  137.7160 C   0  0  0  0  0  2  0  0  0  0  0  0
  194.1680  173.0490  136.3510 C   0  0  0  0  0  0  0  0  0  0  0  0
  194.3490  170.8540  135.8440 C   0  0  2  0  0  3  0  0  0  0  0  0
  197.2470  173.8300  138.1420 C   0  0  0  0  0  2  0  0  0  0  0  0
  196.0250  173.3280  137.9640 C   0  0  0  0  0  3  0  0  0  0  0  0
  189.4140  178.3080  137.4990 N   0  0  0  0  0  2  0  0  0  0  0  0
  188.9850  178.2960  136.1040 C   0  0  0  0  0  2  0  0  0  0  0  0
  187.4910  178.5350  136.0240 C   0  0  0  0  0  2  0  0  0  0  0  0
  186.7870  177.2930  135.5080 C   0  0  0  0  0  2  0  0  0  0  0  0
  184.6030  174.8270  135.9220 C   0  0  0  0  0  1  0  0  0  0  0  0
  183.9090  177.5280  137.8530 N   0  0  0  0  0  2  0  0  0  0  0  0
  186.0760  178.3630  138.2000 O   0  0  0  0  0  0  0  0  0  0  0  0
  185.6240  177.0020  136.3320 N   0  0  0  0  0  0  0  0  0  0  0  0
  185.2690  177.6810  137.5160 C   0  0  0  0  0  0  0  0  0  0  0  0
  184.4300  176.3360  135.8290 C   0  0  2  0  0  3  0  0  0  0  0  0
  183.2890  176.7630  136.7780 C   0  0  2  0  0  3  0  0  0  0  0  0
  182.3240  177.6520  136.0230 C   0  0  0  0  0  2  0  0  0  0  0  0
  180.9060  177.4120  136.5000 C   0  0  0  0  0  2  0  0  0  0  0  0
  180.0910  178.6870  136.3700 C   0  0  0  0  0  2  0  0  0  0  0  0
  180.1090  179.4780  137.6730 C   0  0  0  0  0  2  0  0  0  0  0  0
  180.9870  180.7140  137.5560 C   0  0  0  0  0  2  0  0  0  0  0  0
  182.0230  180.7370  138.6660 C   0  0  0  0  0  2  0  0  0  0  0  0
  181.7170  179.6500  139.6740 C   0  0  0  0  0  1  0  0  0  0  0  0
  190.8260  177.2930  139.1800 C   0  0  0  0  0  2  0  0  0  0  0  0
  190.2960  176.5750  140.3340 N   0  0  0  0  0  2  0  0  0  0  0  0
  188.9670  178.5010  144.7430 C   0  0  2  0  0  3  0  0  0  0  0  0
  188.7990  177.4980  142.0710 C   0  0  2  0  0  3  0  0  0  0  0  0
  191.6060  178.0960  143.7290 C   0  0  0  0  0  2  0  0  0  0  0  0
  189.0130  178.0190  143.4240 C   0  0  0  0  0  0  0  0  0  0  0  0
  190.2140  178.2670  144.1390 C   0  0  0  0  0  0  0  0  0  0  0  0
  190.2470  177.5100  141.4430 C   0  0  1  0  0  3  0  0  0  0  0  0
  191.4800  177.2310  142.4210 C   0  0  0  0  0  2  0  0  0  0  0  0
  188.2330  178.1160  146.9370 C   0  0  0  0  0  2  0  0  0  0  0  0
  188.7190  177.4480  145.7360 N   0  0  1  0  0  0  0  0  0  0  0  0
  186.7410  177.9050  147.0530 C   0  0  2  0  0  3  0  0  0  0  0  0
  186.4270  176.7510  146.1400 C   0  0  0  0  0  2  0  0  0  0  0  0
  187.6660  176.5270  145.3030 C   0  0  0  0  0  2  0  0  0  0  0  0
  186.0050  179.1680  146.6100 C   0  0  0  0  0  2  0  0  0  0  0  0
  184.7710  178.8390  145.7750 C   0  0  0  0  0  2  0  0  0  0  0  0
  184.9360  179.3210  144.3440 C   0  0  0  0  0  2  0  0  0  0  0  0
  183.5910  179.4370  143.6960 C   0  0  0  0  0  3  0  0  0  0  0  0
  182.5410  178.7920  144.2050 C   0  0  0  0  0  2  0  0  0  0  0  0
  186.6340  178.3640  141.4780 O   0  0  0  0  0  1  0  0  0  0  0  0
  188.4190  179.3110  140.3880 O   0  0  0  0  0  0  0  0  0  0  0  0
  187.8870  178.4190  141.3130 C   0  0  0  0  0  0  0  0  0  0  0  0
  2  1  1  1  0  0  0
  2 36  1  0  0  0  0
  3  4  2  0  0  0  0
  3  2  1  0  0  0  0
  6  5  1  6  0  0  0
  6  7  1  0  0  0  0
  6  4  1  0  0  0  0
  8 17  1  1  0  0  0
  9  8  1  0  0  0  0
  9 13  1  1  0  0  0
 10 13  1  0  0  0  0
 11 14  2  0  0  0  0
 12 10  2  0  0  0  0
 14  7  1  0  0  0  0
 14  8  1  0  0  0  0
 15 11  1  1  0  0  0
 15 12  1  0  0  0  0
 15  9  1  0  0  0  0
 17 16  2  0  0  0  0
 18  2  1  0  0  0  0
 19 18  1  0  0  0  0
 20 19  1  0  0  0  0
 21 20  1  0  0  0  0
 21 25  1  0  0  0  0
 25 26  1  0  0  0  0
 26 23  1  0  0  0  0
 26 24  2  0  0  0  0
 27 22  1  1  0  0  0
 27 25  1  0  0  0  0
 27 28  1  0  0  0  0
 28 29  1  6  0  0  0
 28 23  1  0  0  0  0
 29 30  1  0  0  0  0
 31 30  1  0  0  0  0
 31 32  1  0  0  0  0
 33 32  1  0  0  0  0
 33 34  1  0  0  0  0
 34 35  1  0  0  0  0
 36 37  1  0  0  0  0
 38 41  1  6  0  0  0
 38 46  1  0  0  0  0
 39 57  1  6  0  0  0
 39 41  1  0  0  0  0
 40 42  1  0  0  0  0
 41 42  2  0  0  0  0
 42 38  1  0  0  0  0
 43 37  1  6  0  0  0
 43 39  1  0  0  0  0
 43 44  1  0  0  0  0
 44 40  1  0  0  0  0
 45 47  1  0  0  0  0
 46 49  1  6  0  0  0
 46 45  1  0  0  0  0
 47 50  1  6  0  0  0
 48 47  1  0  0  0  0
 49 48  1  0  0  0  0
 51 50  1  0  0  0  0
 52 51  1  0  0  0  0
 53 54  2  0  0  0  0
 53 52  1  0  0  0  0
 56 57  2  0  0  0  0
 57 55  1  0  0  0  0
M  END
>  <MODEL>
9

>  <REMARK>
 VINA RESULT:      -5.3      1.988      7.072
  Name = 
  25 active torsions:
  status: ('A' for Active; 'I' for Inactive)
    1  A    between atoms: C_1  and  N_15
    2  A    between atoms: C_1  and  C_54
    3  A    between atoms: C_2  and  N_34
    4  A    between atoms: C_3  and  C_14
    5  A    between atoms: C_3  and  C_50
    6  A    between atoms: C_4  and  C_56
    7  A    between atoms: C_8  and  C_26
    8  A    between atoms: C_8  and  C_46
    9  A    between atoms: C_12  and  C_14
   10  A    between atoms: N_15  and  C_49
   11  A    between atoms: C_16  and  C_55
   12  A    between atoms: N_21  and  C_32
   13  A    between atoms: C_24  and  C_33
   14  A    between atoms: C_24  and  C_50
   15  A    between atoms: C_30  and  C_36
   16  A    between atoms: C_30  and  C_46
   17  A    between atoms: C_31  and  O_44
   18  A    between atoms: C_31  and  C_52
   19  A    between atoms: C_32  and  C_54
   20  A    between atoms: C_33  and  C_41
   21  A    between atoms: C_38  and  N_43
   22  A    between atoms: C_38  and  C_49
   23  A    between atoms: C_39  and  O_44
   24  A    between atoms: C_42  and  N_43
   25  A    between atoms: C_47  and  C_49
                            x       y       z     vdW  Elec       q    Type
                         _______ _______ _______ _____ _____    ______ ____

>  <TORSDO>
F 25

$$$$
