=
 OpenBabel10232409263D

 52 56  0  0  1  0  0  0  0  0999 V2000
  184.8950  178.1530  138.6900 C   0  0  2  0  0  3  0  0  0  0  0  0
  186.1830  178.5540  139.0480 O   0  0  0  0  0  1  0  0  0  0  0  0
  184.9240  177.6220  137.3700 O   0  0  0  0  0  0  0  0  0  0  0  0
  183.7160  175.5540  137.8480 C   0  0  0  0  0  3  0  0  0  0  0  0
  183.4120  174.2310  137.5310 C   0  0  0  0  0  3  0  0  0  0  0  0
  184.6280  176.2850  137.0700 C   0  0  0  0  0  0  0  0  0  0  0  0
  185.2510  175.6680  135.9680 C   0  0  0  0  0  0  0  0  0  0  0  0
  185.4980  173.7070  134.5420 O   0  0  0  0  0  1  0  0  0  0  0  0
  184.0140  173.6240  136.4290 C   0  0  0  0  0  3  0  0  0  0  0  0
  184.9250  174.3330  135.6430 C   0  0  0  0  0  0  0  0  0  0  0  0
  186.2110  176.4760  135.1350 C   0  0  1  0  0  3  0  0  0  0  0  0
  185.6740  177.8630  134.8370 C   0  0  0  0  0  1  0  0  0  0  0  0
  187.5970  176.5540  135.7650 C   0  0  0  0  0  2  0  0  0  0  0  0
  190.9430  177.5730  138.4390 C   0  0  0  0  0  2  0  0  0  0  0  0
  191.8970  176.3940  138.4290 C   0  0  0  0  0  2  0  0  0  0  0  0
  191.7710  175.7590  137.0510 C   0  0  2  0  0  3  0  0  0  0  0  0
  189.0480  179.4780  137.4450 O   0  0  0  0  0  0  0  0  0  0  0  0
  187.9100  177.9240  136.1520 N   0  0  0  0  0  2  0  0  0  0  0  0
  190.0850  177.3980  137.2850 N   0  0  0  0  0  0  0  0  0  0  0  0
  190.5030  176.3120  136.4230 C   0  0  0  0  0  2  0  0  0  0  0  0
  189.0210  178.3100  136.9720 C   0  0  0  0  0  0  0  0  0  0  0  0
  191.7340  174.2400  137.1360 C   0  0  0  0  0  2  0  0  0  0  0  0
  190.4070  173.7700  137.1890 O   0  0  0  0  0  0  0  0  0  0  0  0
  191.4530  172.5800  135.3150 C   0  0  0  0  0  1  0  0  0  0  0  0
  190.2010  172.8440  136.1420 C   0  0  0  0  0  3  0  0  0  0  0  0
  188.9960  173.1800  135.2710 C   0  0  0  0  0  1  0  0  0  0  0  0
  183.9990  179.3020  138.7330 N   0  0  0  0  0  2  0  0  0  0  0  0
  181.6690  178.8390  137.8170 C   0  0  0  0  0  2  0  0  0  0  0  0
  181.6490  179.9740  138.8310 C   0  0  0  0  0  2  0  0  0  0  0  0
  182.6370  178.8420  138.9830 C   0  0  0  0  0  0  0  0  0  0  0  0
  182.3570  178.0080  140.2200 C   0  0  0  0  0  2  0  0  0  0  0  0
  181.7070  178.8460  141.3010 C   0  0  0  0  0  2  0  0  0  0  0  0
  182.5130  178.7150  142.5750 C   0  0  0  0  0  2  0  0  0  0  0  0
  183.9640  179.0510  142.3000 C   0  0  0  0  0  2  0  0  0  0  0  0
  184.8610  178.0110  142.9430 C   0  0  0  0  0  2  0  0  0  0  0  0
  186.1800  178.1590  145.0900 C   0  0  0  0  0  0  0  0  0  0  0  0
  190.4230  177.6350  144.4050 O   0  0  0  0  0  1  0  0  0  0  0  0
  189.4660  176.6110  144.4570 C   0  0  1  0  0  3  0  0  0  0  0  0
  185.0010  178.5160  147.1560 O   0  0  0  0  0  1  0  0  0  0  0  0
  189.5190  177.0290  147.4300 O   0  0  0  0  0  1  0  0  0  0  0  0
  187.3270  177.9860  147.3770 C   0  0  1  0  0  3  0  0  0  0  0  0
  186.2370  178.6660  146.5230 C   0  0  1  0  0  3  0  0  0  0  0  0
  185.0350  178.3110  144.3980 C   0  0  0  0  0  3  0  0  0  0  0  0
  188.6510  177.7740  146.6310 C   0  0  2  0  0  3  0  0  0  0  0  0
  187.5110  177.8490  144.4430 C   0  0  2  0  0  3  0  0  0  0  0  0
  187.5500  178.7360  148.5330 O   0  0  0  0  0  1  0  0  0  0  0  0
  187.4720  177.1800  143.2090 O   0  0  0  0  0  0  0  0  0  0  0  0
  188.3360  177.0020  145.3600 C   0  0  1  0  0  3  0  0  0  0  0  0
  188.7070  176.4890  143.1280 C   0  0  1  0  0  3  0  0  0  0  0  0
  190.3840  176.1440  141.4460 O   0  0  0  0  0  1  0  0  0  0  0  0
  189.4990  176.9040  141.9240 C   0  0  0  0  0  0  0  0  0  0  0  0
  189.2220  178.1120  141.3020 O   0  0  0  0  0  0  0  0  0  0  0  0
  1 27  1  0  0  0  0
  1  2  1  6  0  0  0
  3  1  1  0  0  0  0
  5  4  1  0  0  0  0
  6  3  1  0  0  0  0
  6  4  2  0  0  0  0
  7  6  1  0  0  0  0
  8 10  1  0  0  0  0
  9  5  2  0  0  0  0
 10  7  2  0  0  0  0
 10  9  1  0  0  0  0
 11 12  1  1  0  0  0
 11 13  1  0  0  0  0
 11  7  1  0  0  0  0
 13 18  1  0  0  0  0
 15 14  1  0  0  0  0
 16 22  1  1  0  0  0
 16 15  1  0  0  0  0
 18 21  1  0  0  0  0
 19 14  1  0  0  0  0
 20 16  1  0  0  0  0
 20 19  1  0  0  0  0
 21 19  1  0  0  0  0
 21 17  2  0  0  0  0
 22 23  1  0  0  0  0
 24 25  1  0  0  0  0
 25 23  1  0  0  0  0
 26 25  1  0  0  0  0
 27 30  1  0  0  0  0
 28 29  1  0  0  0  0
 28 30  1  0  0  0  0
 29 30  1  0  0  0  0
 30 31  1  0  0  0  0
 31 32  1  0  0  0  0
 32 33  1  0  0  0  0
 34 33  1  0  0  0  0
 34 35  1  0  0  0  0
 35 43  1  0  0  0  0
 36 42  1  0  0  0  0
 38 37  1  6  0  0  0
 38 48  1  0  0  0  0
 41 46  1  1  0  0  0
 42 39  1  1  0  0  0
 42 41  1  0  0  0  0
 43 36  2  0  0  0  0
 44 41  1  0  0  0  0
 44 40  1  1  0  0  0
 45 47  1  6  0  0  0
 45 36  1  0  0  0  0
 45 48  1  0  0  0  0
 48 44  1  0  0  0  0
 49 47  1  0  0  0  0
 49 38  1  0  0  0  0
 50 51  1  0  0  0  0
 51 49  1  0  0  0  0
 52 51  2  0  0  0  0
M  END
>  <MODEL>
1

>  <REMARK>
 VINA RESULT:      -7.7      0.000      0.000
  Name = 
  17 active torsions:
  status: ('A' for Active; 'I' for Inactive)
    1  A    between atoms: O_1  and  C_8
    2  A    between atoms: O_1  and  C_26
    3  A    between atoms: O_7  and  C_9
    4  A    between atoms: O_7  and  C_23
    5  A    between atoms: C_8  and  N_40
    6  A    between atoms: C_9  and  C_12
    7  A    between atoms: C_10  and  C_31
    8  A    between atoms: C_10  and  C_39
    9  A    between atoms: C_16  and  C_18
   10  A    between atoms: C_16  and  N_35
   11  A    between atoms: C_18  and  C_28
   12  A    between atoms: C_20  and  C_39
   13  A    between atoms: C_20  and  C_43
   14  A    between atoms: C_29  and  C_31
   15  A    between atoms: C_34  and  C_48
   16  A    between atoms: N_40  and  C_44
   17  A    between atoms: C_43  and  C_44
                            x       y       z     vdW  Elec       q    Type
                         _______ _______ _______ _____ _____    ______ ____

>  <TORSDO>
F 17

$$$$
=
 OpenBabel10232409263D

 52 56  0  0  1  0  0  0  0  0999 V2000
  184.7750  176.8180  137.4440 C   0  0  2  0  0  3  0  0  0  0  0  0
  185.6590  177.7550  137.9810 O   0  0  0  0  0  1  0  0  0  0  0  0
  185.4400  176.0840  136.4220 O   0  0  0  0  0  0  0  0  0  0  0  0
  184.2880  173.9470  136.6900 C   0  0  0  0  0  3  0  0  0  0  0  0
  184.2850  172.5560  136.5970 C   0  0  0  0  0  3  0  0  0  0  0  0
  185.4340  174.6840  136.3510 C   0  0  0  0  0  0  0  0  0  0  0  0
  186.5940  174.0080  135.9280 C   0  0  0  0  0  0  0  0  0  0  0  0
  187.6970  171.9050  135.3740 O   0  0  0  0  0  1  0  0  0  0  0  0
  185.4270  171.8850  136.1600 C   0  0  0  0  0  3  0  0  0  0  0  0
  186.5780  172.5990  135.8210 C   0  0  0  0  0  0  0  0  0  0  0  0
  187.8070  174.8180  135.5500 C   0  0  1  0  0  3  0  0  0  0  0  0
  187.4290  176.0980  134.8290 C   0  0  0  0  0  1  0  0  0  0  0  0
  188.6990  175.1130  136.7500 C   0  0  0  0  0  2  0  0  0  0  0  0
  191.9180  177.2200  138.8930 C   0  0  0  0  0  2  0  0  0  0  0  0
  193.1870  176.4120  138.6970 C   0  0  0  0  0  2  0  0  0  0  0  0
  193.0550  175.7400  137.3370 C   0  0  2  0  0  3  0  0  0  0  0  0
  189.3760  178.3860  138.2690 O   0  0  0  0  0  0  0  0  0  0  0  0
  188.6110  176.5190  137.1240 N   0  0  0  0  0  2  0  0  0  0  0  0
  190.9900  176.7510  137.8840 N   0  0  0  0  0  0  0  0  0  0  0  0
  191.5930  175.8390  136.9340 C   0  0  0  0  0  2  0  0  0  0  0  0
  189.6540  177.2620  137.7710 C   0  0  0  0  0  0  0  0  0  0  0  0
  193.5250  174.2930  137.3800 C   0  0  0  0  0  2  0  0  0  0  0  0
  194.5360  174.1200  138.3460 O   0  0  0  0  0  0  0  0  0  0  0  0
  195.7130  172.1600  137.4530 C   0  0  0  0  0  1  0  0  0  0  0  0
  195.7120  173.6630  137.7100 C   0  0  0  0  0  3  0  0  0  0  0  0
  196.9890  174.1300  138.3980 C   0  0  0  0  0  1  0  0  0  0  0  0
  183.6220  177.5070  136.8760 N   0  0  0  0  0  2  0  0  0  0  0  0
  181.3430  176.4000  136.6290 C   0  0  0  0  0  2  0  0  0  0  0  0
  181.2090  177.8410  137.1000 C   0  0  0  0  0  2  0  0  0  0  0  0
  182.4050  177.0180  137.5150 C   0  0  0  0  0  0  0  0  0  0  0  0
  182.4150  176.7490  139.0090 C   0  0  0  0  0  2  0  0  0  0  0  0
  181.5880  177.7790  139.7500 C   0  0  0  0  0  2  0  0  0  0  0  0
  182.2710  178.1060  141.0590 C   0  0  0  0  0  2  0  0  0  0  0  0
  183.6160  178.7490  140.7900 C   0  0  0  0  0  2  0  0  0  0  0  0
  184.6620  178.1500  141.7090 C   0  0  0  0  0  2  0  0  0  0  0  0
  185.3340  178.5150  144.1150 C   0  0  0  0  0  0  0  0  0  0  0  0
  189.5650  177.8230  144.7210 O   0  0  0  0  0  1  0  0  0  0  0  0
  188.5780  176.8330  144.6060 C   0  0  1  0  0  3  0  0  0  0  0  0
  183.6450  179.1330  145.7120 O   0  0  0  0  0  1  0  0  0  0  0  0
  187.8200  177.5890  147.4110 O   0  0  0  0  0  1  0  0  0  0  0  0
  185.7850  178.5810  146.6380 C   0  0  1  0  0  3  0  0  0  0  0  0
  185.0150  179.1820  145.4440 C   0  0  1  0  0  3  0  0  0  0  0  0
  184.4380  178.6110  143.1140 C   0  0  0  0  0  3  0  0  0  0  0  0
  187.2510  178.2560  146.3260 C   0  0  2  0  0  3  0  0  0  0  0  0
  186.7750  178.1030  143.9090 C   0  0  2  0  0  3  0  0  0  0  0  0
  185.7150  179.4540  147.7260 O   0  0  0  0  0  1  0  0  0  0  0  0
  187.0470  177.2980  142.7900 O   0  0  0  0  0  0  0  0  0  0  0  0
  187.2630  177.3490  145.1050 C   0  0  1  0  0  3  0  0  0  0  0  0
  188.2160  176.5760  143.1360 C   0  0  1  0  0  3  0  0  0  0  0  0
  190.2110  175.9520  141.9580 O   0  0  0  0  0  1  0  0  0  0  0  0
  189.3350  176.8310  142.1710 C   0  0  0  0  0  0  0  0  0  0  0  0
  189.3770  178.0280  141.4690 O   0  0  0  0  0  0  0  0  0  0  0  0
  1  2  1  6  0  0  0
  3  1  1  0  0  0  0
  5  4  1  0  0  0  0
  6  3  1  0  0  0  0
  6  4  2  0  0  0  0
  7  6  1  0  0  0  0
  8 10  1  0  0  0  0
  9  5  2  0  0  0  0
 10  7  2  0  0  0  0
 10  9  1  0  0  0  0
 11 12  1  1  0  0  0
 11  7  1  0  0  0  0
 11 13  1  0  0  0  0
 13 18  1  0  0  0  0
 15 14  1  0  0  0  0
 16 22  1  1  0  0  0
 16 15  1  0  0  0  0
 18 21  1  0  0  0  0
 19 14  1  0  0  0  0
 20 16  1  0  0  0  0
 20 19  1  0  0  0  0
 21 19  1  0  0  0  0
 21 17  2  0  0  0  0
 22 23  1  0  0  0  0
 24 25  1  0  0  0  0
 25 23  1  0  0  0  0
 25 26  1  0  0  0  0
 27  1  1  0  0  0  0
 27 30  1  0  0  0  0
 28 29  1  0  0  0  0
 28 30  1  0  0  0  0
 29 30  1  0  0  0  0
 30 31  1  0  0  0  0
 31 32  1  0  0  0  0
 32 33  1  0  0  0  0
 34 33  1  0  0  0  0
 34 35  1  0  0  0  0
 35 43  1  0  0  0  0
 36 42  1  0  0  0  0
 38 37  1  6  0  0  0
 38 48  1  0  0  0  0
 41 46  1  1  0  0  0
 42 39  1  1  0  0  0
 42 41  1  0  0  0  0
 43 36  2  0  0  0  0
 44 41  1  0  0  0  0
 44 40  1  1  0  0  0
 45 47  1  6  0  0  0
 45 36  1  0  0  0  0
 45 48  1  0  0  0  0
 47 49  1  0  0  0  0
 48 44  1  0  0  0  0
 49 38  1  0  0  0  0
 50 51  1  0  0  0  0
 51 49  1  0  0  0  0
 52 51  2  0  0  0  0
M  END
>  <MODEL>
2

>  <REMARK>
 VINA RESULT:      -7.1      1.885      2.403
  Name = 
  17 active torsions:
  status: ('A' for Active; 'I' for Inactive)
    1  A    between atoms: O_1  and  C_8
    2  A    between atoms: O_1  and  C_26
    3  A    between atoms: O_7  and  C_9
    4  A    between atoms: O_7  and  C_23
    5  A    between atoms: C_8  and  N_40
    6  A    between atoms: C_9  and  C_12
    7  A    between atoms: C_10  and  C_31
    8  A    between atoms: C_10  and  C_39
    9  A    between atoms: C_16  and  C_18
   10  A    between atoms: C_16  and  N_35
   11  A    between atoms: C_18  and  C_28
   12  A    between atoms: C_20  and  C_39
   13  A    between atoms: C_20  and  C_43
   14  A    between atoms: C_29  and  C_31
   15  A    between atoms: C_34  and  C_48
   16  A    between atoms: N_40  and  C_44
   17  A    between atoms: C_43  and  C_44
                            x       y       z     vdW  Elec       q    Type
                         _______ _______ _______ _____ _____    ______ ____

>  <TORSDO>
F 17

$$$$
=
 OpenBabel10232409263D

 52 56  0  0  1  0  0  0  0  0999 V2000
  187.9110  178.3280  138.8810 C   0  0  2  0  0  3  0  0  0  0  0  0
  188.9480  179.2610  138.8310 O   0  0  0  0  0  1  0  0  0  0  0  0
  187.1260  178.5670  140.0430 O   0  0  0  0  0  0  0  0  0  0  0  0
  185.0030  178.2610  138.8770 C   0  0  0  0  0  3  0  0  0  0  0  0
  183.6120  178.1760  138.9010 C   0  0  0  0  0  3  0  0  0  0  0  0
  185.7260  178.4980  140.0560 C   0  0  0  0  0  0  0  0  0  0  0  0
  185.0360  178.6650  141.2720 C   0  0  0  0  0  0  0  0  0  0  0  0
  182.9200  178.6870  142.4810 O   0  0  0  0  0  1  0  0  0  0  0  0
  182.9260  178.3220  140.1080 C   0  0  0  0  0  3  0  0  0  0  0  0
  183.6280  178.5600  141.2920 C   0  0  0  0  0  0  0  0  0  0  0  0
  185.8320  178.8990  142.5290 C   0  0  1  0  0  3  0  0  0  0  0  0
  185.5130  180.2420  143.1590 C   0  0  0  0  0  1  0  0  0  0  0  0
  185.6590  177.7710  143.5390 C   0  0  0  0  0  2  0  0  0  0  0  0
  187.7090  177.3320  147.4110 C   0  0  0  0  0  2  0  0  0  0  0  0
  189.1710  177.0580  147.1130 C   0  0  0  0  0  2  0  0  0  0  0  0
  189.4780  177.7730  145.8040 C   0  0  2  0  0  3  0  0  0  0  0  0
  185.0880  178.4480  147.1030 O   0  0  0  0  0  0  0  0  0  0  0  0
  185.1050  178.2780  144.7890 N   0  0  0  0  0  2  0  0  0  0  0  0
  187.1460  177.8580  146.1840 N   0  0  0  0  0  0  0  0  0  0  0  0
  188.1430  178.1200  145.1660 C   0  0  0  0  0  2  0  0  0  0  0  0
  185.7600  178.2100  146.0620 C   0  0  0  0  0  0  0  0  0  0  0  0
  190.3290  176.9120  144.8820 C   0  0  0  0  0  2  0  0  0  0  0  0
  190.6920  177.6230  143.7210 O   0  0  0  0  0  0  0  0  0  0  0  0
  191.1900  177.3600  141.3320 C   0  0  0  0  0  1  0  0  0  0  0  0
  190.5970  176.7640  142.6030 C   0  0  0  0  0  3  0  0  0  0  0  0
  189.1900  176.2190  142.3820 C   0  0  0  0  0  1  0  0  0  0  0  0
  188.4700  176.9830  138.9390 N   0  0  0  0  0  2  0  0  0  0  0  0
  187.5680  176.9050  136.5590 C   0  0  0  0  0  2  0  0  0  0  0  0
  187.4110  175.5600  137.2530 C   0  0  0  0  0  2  0  0  0  0  0  0
  188.5860  176.4500  137.5860 C   0  0  0  0  0  0  0  0  0  0  0  0
  189.9030  175.8350  137.1460 C   0  0  0  0  0  2  0  0  0  0  0  0
  191.0720  176.6900  137.5870 C   0  0  0  0  0  2  0  0  0  0  0  0
  192.3130  175.8270  137.6540 C   0  0  0  0  0  2  0  0  0  0  0  0
  191.9420  174.3780  137.4150 C   0  0  0  0  0  2  0  0  0  0  0  0
  192.7160  173.8400  136.2280 C   0  0  0  0  0  2  0  0  0  0  0  0
  195.2160  174.1880  136.1740 C   0  0  0  0  0  0  0  0  0  0  0  0
  197.3630  170.4430  136.5140 O   0  0  0  0  0  1  0  0  0  0  0  0
  196.7670  171.1480  137.5700 C   0  0  1  0  0  3  0  0  0  0  0  0
  196.0740  176.4260  135.9890 O   0  0  0  0  0  1  0  0  0  0  0  0
  199.1090  173.0120  137.3410 O   0  0  0  0  0  1  0  0  0  0  0  0
  197.7050  174.7340  136.4550 C   0  0  1  0  0  3  0  0  0  0  0  0
  196.3730  175.0820  135.7580 C   0  0  1  0  0  3  0  0  0  0  0  0
  193.9590  174.6450  136.0160 C   0  0  0  0  0  3  0  0  0  0  0  0
  197.9630  173.2270  136.5750 C   0  0  2  0  0  3  0  0  0  0  0  0
  195.5520  172.7300  136.3990 C   0  0  2  0  0  3  0  0  0  0  0  0
  198.7610  175.3430  135.7730 O   0  0  0  0  0  1  0  0  0  0  0  0
  194.5540  171.9370  136.9880 O   0  0  0  0  0  0  0  0  0  0  0  0
  196.7580  172.6160  137.2750 C   0  0  1  0  0  3  0  0  0  0  0  0
  195.2550  170.8860  137.6320 C   0  0  1  0  0  3  0  0  0  0  0  0
  195.1670  168.4900  137.7280 O   0  0  0  0  0  1  0  0  0  0  0  0
  194.8390  169.5410  137.1150 C   0  0  0  0  0  0  0  0  0  0  0  0
  194.0460  169.4550  135.9800 O   0  0  0  0  0  0  0  0  0  0  0  0
  1  2  1  1  0  0  0
  1 27  1  0  0  0  0
  1  3  1  0  0  0  0
  3  6  1  0  0  0  0
  4  5  2  0  0  0  0
  4  6  1  0  0  0  0
  5  9  1  0  0  0  0
  6  7  2  0  0  0  0
  7 10  1  0  0  0  0
  7 11  1  0  0  0  0
  9 10  2  0  0  0  0
 10  8  1  0  0  0  0
 11 12  1  1  0  0  0
 11 13  1  0  0  0  0
 13 18  1  0  0  0  0
 15 14  1  0  0  0  0
 16 22  1  6  0  0  0
 16 15  1  0  0  0  0
 18 21  1  0  0  0  0
 19 14  1  0  0  0  0
 20 16  1  0  0  0  0
 20 19  1  0  0  0  0
 21 19  1  0  0  0  0
 21 17  2  0  0  0  0
 23 22  1  0  0  0  0
 24 25  1  0  0  0  0
 25 23  1  0  0  0  0
 26 25  1  0  0  0  0
 28 29  1  0  0  0  0
 28 30  1  0  0  0  0
 29 30  1  0  0  0  0
 30 27  1  0  0  0  0
 31 30  1  0  0  0  0
 31 32  1  0  0  0  0
 32 33  1  0  0  0  0
 34 33  1  0  0  0  0
 35 34  1  0  0  0  0
 38 37  1  6  0  0  0
 38 49  1  0  0  0  0
 41 46  1  6  0  0  0
 41 44  1  0  0  0  0
 42 39  1  1  0  0  0
 42 36  1  0  0  0  0
 42 41  1  0  0  0  0
 43 36  2  0  0  0  0
 43 35  1  0  0  0  0
 44 48  1  0  0  0  0
 44 40  1  1  0  0  0
 45 36  1  1  0  0  0
 45 47  1  0  0  0  0
 45 48  1  0  0  0  0
 47 49  1  0  0  0  0
 48 38  1  0  0  0  0
 51 49  1  0  0  0  0
 51 50  1  0  0  0  0
 52 51  2  0  0  0  0
M  END
>  <MODEL>
3

>  <REMARK>
 VINA RESULT:      -6.9      3.889      9.953
  Name = 
  17 active torsions:
  status: ('A' for Active; 'I' for Inactive)
    1  A    between atoms: O_1  and  C_8
    2  A    between atoms: O_1  and  C_26
    3  A    between atoms: O_7  and  C_9
    4  A    between atoms: O_7  and  C_23
    5  A    between atoms: C_8  and  N_40
    6  A    between atoms: C_9  and  C_12
    7  A    between atoms: C_10  and  C_31
    8  A    between atoms: C_10  and  C_39
    9  A    between atoms: C_16  and  C_18
   10  A    between atoms: C_16  and  N_35
   11  A    between atoms: C_18  and  C_28
   12  A    between atoms: C_20  and  C_39
   13  A    between atoms: C_20  and  C_43
   14  A    between atoms: C_29  and  C_31
   15  A    between atoms: C_34  and  C_48
   16  A    between atoms: N_40  and  C_44
   17  A    between atoms: C_43  and  C_44
                            x       y       z     vdW  Elec       q    Type
                         _______ _______ _______ _____ _____    ______ ____

>  <TORSDO>
F 17

$$$$
=
 OpenBabel10232409263D

 52 56  0  0  1  0  0  0  0  0999 V2000
  183.1890  178.5950  139.8600 C   0  0  2  0  0  3  0  0  0  0  0  0
  183.1850  177.3180  140.4240 O   0  0  0  0  0  1  0  0  0  0  0  0
  182.9930  178.4820  138.4550 O   0  0  0  0  0  0  0  0  0  0  0  0
  181.7050  180.5370  138.1690 C   0  0  0  0  0  3  0  0  0  0  0  0
  180.7890  181.2980  137.4450 C   0  0  0  0  0  3  0  0  0  0  0  0
  182.0580  179.2470  137.7430 C   0  0  0  0  0  0  0  0  0  0  0  0
  181.4700  178.7140  136.5810 C   0  0  0  0  0  0  0  0  0  0  0  0
  179.9830  179.0130  134.6730 O   0  0  0  0  0  1  0  0  0  0  0  0
  180.2180  180.7800  136.2820 C   0  0  0  0  0  3  0  0  0  0  0  0
  180.5560  179.4980  135.8430 C   0  0  0  0  0  0  0  0  0  0  0  0
  181.8770  177.3360  136.1300 C   0  0  1  0  0  3  0  0  0  0  0  0
  183.2540  177.3330  135.4920 C   0  0  0  0  0  1  0  0  0  0  0  0
  181.7990  176.3140  137.2580 C   0  0  0  0  0  2  0  0  0  0  0  0
  183.7340  172.7730  135.4940 C   0  0  0  0  0  2  0  0  0  0  0  0
  185.2010  172.8290  135.8790 C   0  0  0  0  0  2  0  0  0  0  0  0
  185.2580  173.5300  137.2290 C   0  0  2  0  0  3  0  0  0  0  0  0
  180.8980  173.0920  135.7450 O   0  0  0  0  0  0  0  0  0  0  0  0
  181.0540  175.1350  136.8350 N   0  0  0  0  0  2  0  0  0  0  0  0
  183.0560  173.6910  136.3870 N   0  0  0  0  0  0  0  0  0  0  0  0
  183.9130  174.2070  137.4340 C   0  0  0  0  0  2  0  0  0  0  0  0
  181.6440  173.9380  136.3090 C   0  0  0  0  0  0  0  0  0  0  0  0
  186.4020  174.5330  137.2900 C   0  0  0  0  0  2  0  0  0  0  0  0
  186.0230  175.7650  136.7200 O   0  0  0  0  0  0  0  0  0  0  0  0
  188.4470  175.9920  137.0300 C   0  0  0  0  0  1  0  0  0  0  0  0
  187.1000  176.6730  136.8240 C   0  0  0  0  0  3  0  0  0  0  0  0
  186.8540  177.7830  137.8400 C   0  0  0  0  0  1  0  0  0  0  0  0
  184.4700  179.2390  140.1230 N   0  0  0  0  0  2  0  0  0  0  0  0
  186.1690  179.5180  141.9990 C   0  0  0  0  0  2  0  0  0  0  0  0
  185.7760  178.0590  141.8220 C   0  0  0  0  0  2  0  0  0  0  0  0
  184.7700  179.1510  141.5480 C   0  0  0  0  0  0  0  0  0  0  0  0
  183.6220  179.1240  142.5420 C   0  0  0  0  0  2  0  0  0  0  0  0
  183.9490  178.2320  143.7220 C   0  0  0  0  0  2  0  0  0  0  0  0
  183.8660  179.0490  144.9920 C   0  0  0  0  0  2  0  0  0  0  0  0
  185.2590  179.3160  145.5220 C   0  0  0  0  0  2  0  0  0  0  0  0
  186.1180  178.0780  145.3510 C   0  0  0  0  0  2  0  0  0  0  0  0
  188.4090  177.6690  146.3280 C   0  0  0  0  0  0  0  0  0  0  0  0
  191.4470  177.4350  143.2510 O   0  0  0  0  0  1  0  0  0  0  0  0
  190.5490  176.4160  143.5990 C   0  0  1  0  0  3  0  0  0  0  0  0
  188.6310  177.4330  148.7110 O   0  0  0  0  0  1  0  0  0  0  0  0
  192.2930  176.0190  146.0110 O   0  0  0  0  0  1  0  0  0  0  0  0
  190.5930  176.9110  147.4380 C   0  0  1  0  0  3  0  0  0  0  0  0
  189.3180  177.7730  147.5440 C   0  0  1  0  0  3  0  0  0  0  0  0
  187.1060  177.9790  146.4690 C   0  0  0  0  0  3  0  0  0  0  0  0
  191.2400  176.9340  146.0480 C   0  0  2  0  0  3  0  0  0  0  0  0
  189.1040  177.5720  144.9880 C   0  0  2  0  0  3  0  0  0  0  0  0
  191.5170  177.3260  148.3990 O   0  0  0  0  0  1  0  0  0  0  0  0
  188.2970  177.2600  143.8810 O   0  0  0  0  0  0  0  0  0  0  0  0
  190.1720  176.5260  145.0450 C   0  0  1  0  0  3  0  0  0  0  0  0
  189.1730  176.6410  142.9540 C   0  0  1  0  0  3  0  0  0  0  0  0
  189.2140  178.6400  141.6270 O   0  0  0  0  0  1  0  0  0  0  0  0
  189.2160  177.3800  141.6500 C   0  0  0  0  0  0  0  0  0  0  0  0
  189.3080  176.6710  140.4610 O   0  0  0  0  0  0  0  0  0  0  0  0
  1 27  1  0  0  0  0
  1  2  1  1  0  0  0
  3  1  1  0  0  0  0
  5  4  2  0  0  0  0
  6  4  1  0  0  0  0
  6  3  1  0  0  0  0
  7  6  2  0  0  0  0
  8 10  1  0  0  0  0
  9  5  1  0  0  0  0
 10  9  2  0  0  0  0
 10  7  1  0  0  0  0
 11 12  1  1  0  0  0
 11  7  1  0  0  0  0
 11 13  1  0  0  0  0
 14 15  1  0  0  0  0
 14 19  1  0  0  0  0
 15 16  1  0  0  0  0
 16 22  1  6  0  0  0
 16 20  1  0  0  0  0
 17 21  2  0  0  0  0
 18 13  1  0  0  0  0
 19 20  1  0  0  0  0
 21 19  1  0  0  0  0
 21 18  1  0  0  0  0
 23 25  1  0  0  0  0
 23 22  1  0  0  0  0
 25 24  1  0  0  0  0
 25 26  1  0  0  0  0
 27 30  1  0  0  0  0
 29 28  1  0  0  0  0
 30 29  1  0  0  0  0
 30 28  1  0  0  0  0
 30 31  1  0  0  0  0
 31 32  1  0  0  0  0
 32 33  1  0  0  0  0
 33 34  1  0  0  0  0
 35 34  1  0  0  0  0
 35 43  1  0  0  0  0
 36 43  2  0  0  0  0
 36 42  1  0  0  0  0
 38 37  1  6  0  0  0
 38 48  1  0  0  0  0
 41 42  1  0  0  0  0
 41 46  1  1  0  0  0
 42 39  1  1  0  0  0
 44 40  1  1  0  0  0
 44 41  1  0  0  0  0
 45 47  1  6  0  0  0
 45 48  1  0  0  0  0
 45 36  1  0  0  0  0
 48 44  1  0  0  0  0
 49 38  1  0  0  0  0
 49 47  1  0  0  0  0
 50 51  1  0  0  0  0
 51 49  1  0  0  0  0
 52 51  2  0  0  0  0
M  END
>  <MODEL>
4

>  <REMARK>
 VINA RESULT:      -6.9      2.503      5.008
  Name = 
  17 active torsions:
  status: ('A' for Active; 'I' for Inactive)
    1  A    between atoms: O_1  and  C_8
    2  A    between atoms: O_1  and  C_26
    3  A    between atoms: O_7  and  C_9
    4  A    between atoms: O_7  and  C_23
    5  A    between atoms: C_8  and  N_40
    6  A    between atoms: C_9  and  C_12
    7  A    between atoms: C_10  and  C_31
    8  A    between atoms: C_10  and  C_39
    9  A    between atoms: C_16  and  C_18
   10  A    between atoms: C_16  and  N_35
   11  A    between atoms: C_18  and  C_28
   12  A    between atoms: C_20  and  C_39
   13  A    between atoms: C_20  and  C_43
   14  A    between atoms: C_29  and  C_31
   15  A    between atoms: C_34  and  C_48
   16  A    between atoms: N_40  and  C_44
   17  A    between atoms: C_43  and  C_44
                            x       y       z     vdW  Elec       q    Type
                         _______ _______ _______ _____ _____    ______ ____

>  <TORSDO>
F 17

$$$$
=
 OpenBabel10232409263D

 52 56  0  0  1  0  0  0  0  0999 V2000
  189.3590  174.7450  137.3340 C   0  0  2  0  0  3  0  0  0  0  0  0
  189.7100  173.3940  137.3460 O   0  0  0  0  0  1  0  0  0  0  0  0
  188.0460  174.8780  136.8020 O   0  0  0  0  0  0  0  0  0  0  0  0
  187.5880  176.9480  138.0130 C   0  0  0  0  0  3  0  0  0  0  0  0
  186.7350  178.0090  138.3140 C   0  0  0  0  0  3  0  0  0  0  0  0
  187.1870  175.9380  137.1250 C   0  0  0  0  0  0  0  0  0  0  0  0
  185.9050  175.9920  136.5450 C   0  0  0  0  0  0  0  0  0  0  0  0
  183.7950  177.1780  136.2590 O   0  0  0  0  0  1  0  0  0  0  0  0
  185.4710  178.0750  137.7270 C   0  0  0  0  0  3  0  0  0  0  0  0
  185.0530  177.0790  136.8420 C   0  0  0  0  0  0  0  0  0  0  0  0
  185.5020  174.9080  135.5800 C   0  0  1  0  0  3  0  0  0  0  0  0
  186.5420  174.7020  134.4940 C   0  0  0  0  0  1  0  0  0  0  0  0
  185.1860  173.5950  136.2860 C   0  0  0  0  0  2  0  0  0  0  0  0
  181.4500  171.2650  136.3460 C   0  0  0  0  0  2  0  0  0  0  0  0
  180.4420  172.0600  137.1530 C   0  0  0  0  0  2  0  0  0  0  0  0
  180.7960  173.5270  136.9470 C   0  0  2  0  0  3  0  0  0  0  0  0
  183.6270  170.7590  134.5520 O   0  0  0  0  0  0  0  0  0  0  0  0
  184.8930  172.5460  135.3170 N   0  0  0  0  0  2  0  0  0  0  0  0
  182.5070  172.1960  136.0050 N   0  0  0  0  0  0  0  0  0  0  0  0
  182.1970  173.5650  136.3610 C   0  0  0  0  0  2  0  0  0  0  0  0
  183.6690  171.8010  135.2610 C   0  0  0  0  0  0  0  0  0  0  0  0
  180.7150  174.3100  138.2490 C   0  0  0  0  0  2  0  0  0  0  0  0
  181.7770  175.2310  138.3510 O   0  0  0  0  0  0  0  0  0  0  0  0
  180.3430  177.0190  139.2290 C   0  0  0  0  0  1  0  0  0  0  0  0
  181.5370  176.0960  139.4420 C   0  0  0  0  0  3  0  0  0  0  0  0
  182.7800  176.8570  139.8900 C   0  0  0  0  0  1  0  0  0  0  0  0
  190.2990  175.4830  136.5000 N   0  0  0  0  0  2  0  0  0  0  0  0
  192.7070  176.1790  136.9470 C   0  0  0  0  0  2  0  0  0  0  0  0
  192.2000  175.2260  138.0180 C   0  0  0  0  0  2  0  0  0  0  0  0
  191.2470  176.1900  137.3530 C   0  0  0  0  0  0  0  0  0  0  0  0
  190.7270  177.2320  138.3280 C   0  0  0  0  0  2  0  0  0  0  0  0
  190.9450  176.7900  139.7600 C   0  0  0  0  0  2  0  0  0  0  0  0
  189.8450  177.3670  140.6240 C   0  0  0  0  0  2  0  0  0  0  0  0
  190.2210  177.2380  142.0850 C   0  0  0  0  0  2  0  0  0  0  0  0
  189.1470  176.4660  142.8240 C   0  0  0  0  0  2  0  0  0  0  0  0
  187.0970  177.6780  143.6630 C   0  0  0  0  0  0  0  0  0  0  0  0
  187.5510  178.9360  147.7810 O   0  0  0  0  0  1  0  0  0  0  0  0
  187.2410  177.6390  147.3470 C   0  0  1  0  0  3  0  0  0  0  0  0
  185.2210  177.9500  142.1830 O   0  0  0  0  0  1  0  0  0  0  0  0
  184.4880  178.7190  146.8270 O   0  0  0  0  0  1  0  0  0  0  0  0
  184.8300  178.5690  144.4640 C   0  0  1  0  0  3  0  0  0  0  0  0
  185.8520  178.4770  143.3120 C   0  0  1  0  0  3  0  0  0  0  0  0
  187.8230  177.1420  142.6630 C   0  0  0  0  0  3  0  0  0  0  0  0
  185.4710  178.7950  145.8400 C   0  0  2  0  0  3  0  0  0  0  0  0
  187.6170  177.8450  145.0740 C   0  0  2  0  0  3  0  0  0  0  0  0
  183.9140  179.5880  144.1950 O   0  0  0  0  0  1  0  0  0  0  0  0
  188.6270  176.9600  145.4820 O   0  0  0  0  0  0  0  0  0  0  0  0
  186.4940  177.6900  146.0500 C   0  0  1  0  0  3  0  0  0  0  0  0
  188.5010  176.8870  146.8930 C   0  0  1  0  0  3  0  0  0  0  0  0
  190.8870  176.9940  147.1250 O   0  0  0  0  0  0  0  0  0  0  0  0
  189.7590  177.3140  147.5880 C   0  0  0  0  0  0  0  0  0  0  0  0
  189.6820  178.1110  148.7210 O   0  0  0  0  0  1  0  0  0  0  0  0
  1  2  1  6  0  0  0
  3  6  1  0  0  0  0
  3  1  1  0  0  0  0
  4  5  1  0  0  0  0
  6  4  2  0  0  0  0
  7 10  2  0  0  0  0
  7  6  1  0  0  0  0
  8 10  1  0  0  0  0
  9  5  2  0  0  0  0
 10  9  1  0  0  0  0
 11 12  1  6  0  0  0
 11 13  1  0  0  0  0
 11  7  1  0  0  0  0
 14 15  1  0  0  0  0
 16 15  1  0  0  0  0
 16 22  1  1  0  0  0
 17 21  2  0  0  0  0
 18 13  1  0  0  0  0
 19 14  1  0  0  0  0
 19 20  1  0  0  0  0
 20 16  1  0  0  0  0
 21 18  1  0  0  0  0
 21 19  1  0  0  0  0
 22 23  1  0  0  0  0
 23 25  1  0  0  0  0
 24 25  1  0  0  0  0
 25 26  1  0  0  0  0
 27  1  1  0  0  0  0
 27 30  1  0  0  0  0
 28 30  1  0  0  0  0
 28 29  1  0  0  0  0
 30 29  1  0  0  0  0
 30 31  1  0  0  0  0
 31 32  1  0  0  0  0
 32 33  1  0  0  0  0
 33 34  1  0  0  0  0
 34 35  1  0  0  0  0
 38 37  1  6  0  0  0
 41 46  1  6  0  0  0
 41 44  1  0  0  0  0
 42 39  1  6  0  0  0
 42 36  1  0  0  0  0
 42 41  1  0  0  0  0
 43 35  1  0  0  0  0
 43 36  2  0  0  0  0
 44 48  1  0  0  0  0
 44 40  1  1  0  0  0
 45 36  1  6  0  0  0
 45 47  1  0  0  0  0
 45 48  1  0  0  0  0
 47 49  1  0  0  0  0
 48 38  1  0  0  0  0
 49 38  1  0  0  0  0
 49 51  1  0  0  0  0
 50 51  2  0  0  0  0
 51 52  1  0  0  0  0
M  END
>  <MODEL>
5

>  <REMARK>
 VINA RESULT:      -6.6      2.360      7.030
  Name = 
  17 active torsions:
  status: ('A' for Active; 'I' for Inactive)
    1  A    between atoms: O_1  and  C_8
    2  A    between atoms: O_1  and  C_26
    3  A    between atoms: O_7  and  C_9
    4  A    between atoms: O_7  and  C_23
    5  A    between atoms: C_8  and  N_40
    6  A    between atoms: C_9  and  C_12
    7  A    between atoms: C_10  and  C_31
    8  A    between atoms: C_10  and  C_39
    9  A    between atoms: C_16  and  C_18
   10  A    between atoms: C_16  and  N_35
   11  A    between atoms: C_18  and  C_28
   12  A    between atoms: C_20  and  C_39
   13  A    between atoms: C_20  and  C_43
   14  A    between atoms: C_29  and  C_31
   15  A    between atoms: C_34  and  C_48
   16  A    between atoms: N_40  and  C_44
   17  A    between atoms: C_43  and  C_44
                            x       y       z     vdW  Elec       q    Type
                         _______ _______ _______ _____ _____    ______ ____

>  <TORSDO>
F 17

$$$$
=
 OpenBabel10232409263D

 52 56  0  0  1  0  0  0  0  0999 V2000
  187.7410  178.2810  138.8370 C   0  0  2  0  0  3  0  0  0  0  0  0
  188.8230  179.1560  138.7250 O   0  0  0  0  0  1  0  0  0  0  0  0
  186.9830  178.6260  139.9910 O   0  0  0  0  0  0  0  0  0  0  0  0
  184.8260  178.3560  138.8780 C   0  0  0  0  0  3  0  0  0  0  0  0
  183.4360  178.2750  138.9400 C   0  0  0  0  0  3  0  0  0  0  0  0
  185.5830  178.5620  140.0420 C   0  0  0  0  0  0  0  0  0  0  0  0
  184.9280  178.7020  141.2800 C   0  0  0  0  0  0  0  0  0  0  0  0
  182.8470  178.7030  142.5490 O   0  0  0  0  0  1  0  0  0  0  0  0
  182.7860  178.3950  140.1680 C   0  0  0  0  0  3  0  0  0  0  0  0
  183.5210  178.6020  141.3370 C   0  0  0  0  0  0  0  0  0  0  0  0
  185.7600  178.9030  142.5200 C   0  0  1  0  0  3  0  0  0  0  0  0
  185.6020  180.3020  143.0870 C   0  0  0  0  0  1  0  0  0  0  0  0
  185.4730  177.8500  143.5840 C   0  0  0  0  0  2  0  0  0  0  0  0
  187.4490  177.4110  147.4940 C   0  0  0  0  0  2  0  0  0  0  0  0
  188.8790  176.9820  147.2260 C   0  0  0  0  0  2  0  0  0  0  0  0
  189.2610  177.5970  145.8860 C   0  0  2  0  0  3  0  0  0  0  0  0
  184.9510  178.7590  147.1020 O   0  0  0  0  0  0  0  0  0  0  0  0
  184.9650  178.4710  144.8000 N   0  0  0  0  0  2  0  0  0  0  0  0
  186.9470  177.9260  146.2370 N   0  0  0  0  0  0  0  0  0  0  0  0
  187.9700  178.0380  145.2170 C   0  0  0  0  0  2  0  0  0  0  0  0
  185.6030  178.4050  146.0820 C   0  0  0  0  0  0  0  0  0  0  0  0
  190.0300  176.6120  145.0170 C   0  0  0  0  0  2  0  0  0  0  0  0
  189.4560  176.5160  143.7340 O   0  0  0  0  0  0  0  0  0  0  0  0
  191.6460  177.5660  143.3790 C   0  0  0  0  0  1  0  0  0  0  0  0
  190.2900  177.1750  142.8030 C   0  0  0  0  0  3  0  0  0  0  0  0
  189.6040  178.3420  142.1020 C   0  0  0  0  0  1  0  0  0  0  0  0
  188.2320  176.9150  138.9670 N   0  0  0  0  0  2  0  0  0  0  0  0
  187.3430  176.7640  136.5860 C   0  0  0  0  0  2  0  0  0  0  0  0
  187.1120  175.4660  137.3450 C   0  0  0  0  0  2  0  0  0  0  0  0
  188.3290  176.3090  137.6440 C   0  0  0  0  0  0  0  0  0  0  0  0
  189.6150  175.6060  137.2480 C   0  0  0  0  0  2  0  0  0  0  0  0
  190.6190  176.5910  136.6870 C   0  0  0  0  0  2  0  0  0  0  0  0
  191.9590  175.9020  136.5530 C   0  0  0  0  0  2  0  0  0  0  0  0
  192.9310  176.4720  137.5660 C   0  0  0  0  0  2  0  0  0  0  0  0
  193.8150  175.3650  138.1060 C   0  0  0  0  0  2  0  0  0  0  0  0
  194.6580  173.3340  136.8670 C   0  0  0  0  0  0  0  0  0  0  0  0
  198.8340  172.5590  137.7120 O   0  0  0  0  0  1  0  0  0  0  0  0
  198.3400  173.5310  136.8310 C   0  0  1  0  0  3  0  0  0  0  0  0
  193.1500  172.1480  135.4170 O   0  0  0  0  0  1  0  0  0  0  0  0
  197.8050  171.2390  134.9670 O   0  0  0  0  0  1  0  0  0  0  0  0
  195.4460  171.4760  135.2850 C   0  0  1  0  0  3  0  0  0  0  0  0
  194.3130  172.0220  136.1790 C   0  0  1  0  0  3  0  0  0  0  0  0
  193.6530  174.1280  137.2820 C   0  0  0  0  0  3  0  0  0  0  0  0
  196.8430  171.6240  135.9010 C   0  0  2  0  0  3  0  0  0  0  0  0
  196.0860  173.4750  137.3470 C   0  0  2  0  0  3  0  0  0  0  0  0
  195.1990  170.1340  134.9870 O   0  0  0  0  0  1  0  0  0  0  0  0
  196.4790  174.7490  137.7870 O   0  0  0  0  0  0  0  0  0  0  0  0
  197.0300  173.0920  136.2530 C   0  0  1  0  0  3  0  0  0  0  0  0
  197.8820  174.7880  137.5860 C   0  0  1  0  0  3  0  0  0  0  0  0
  199.8580  175.2850  138.8550 O   0  0  0  0  0  0  0  0  0  0  0  0
  198.6210  175.0420  138.8660 C   0  0  0  0  0  0  0  0  0  0  0  0
  197.9290  175.0580  140.0680 O   0  0  0  0  0  1  0  0  0  0  0  0
  1  2  1  1  0  0  0
  1 27  1  0  0  0  0
  1  3  1  0  0  0  0
  3  6  1  0  0  0  0
  4  5  2  0  0  0  0
  4  6  1  0  0  0  0
  5  9  1  0  0  0  0
  6  7  2  0  0  0  0
  7 10  1  0  0  0  0
  7 11  1  0  0  0  0
  9 10  2  0  0  0  0
 10  8  1  0  0  0  0
 11 12  1  1  0  0  0
 11 13  1  0  0  0  0
 13 18  1  0  0  0  0
 15 14  1  0  0  0  0
 16 22  1  6  0  0  0
 16 15  1  0  0  0  0
 18 21  1  0  0  0  0
 19 14  1  0  0  0  0
 20 16  1  0  0  0  0
 20 19  1  0  0  0  0
 21 19  1  0  0  0  0
 21 17  2  0  0  0  0
 23 22  1  0  0  0  0
 25 24  1  0  0  0  0
 25 23  1  0  0  0  0
 26 25  1  0  0  0  0
 28 29  1  0  0  0  0
 28 30  1  0  0  0  0
 29 30  1  0  0  0  0
 30 27  1  0  0  0  0
 31 30  1  0  0  0  0
 32 31  1  0  0  0  0
 33 32  1  0  0  0  0
 33 34  1  0  0  0  0
 34 35  1  0  0  0  0
 36 43  2  0  0  0  0
 38 49  1  0  0  0  0
 38 37  1  1  0  0  0
 41 46  1  1  0  0  0
 41 44  1  0  0  0  0
 41 42  1  0  0  0  0
 42 39  1  6  0  0  0
 42 36  1  0  0  0  0
 43 35  1  0  0  0  0
 44 40  1  6  0  0  0
 44 48  1  0  0  0  0
 45 36  1  6  0  0  0
 45 47  1  0  0  0  0
 48 38  1  0  0  0  0
 48 45  1  0  0  0  0
 49 47  1  0  0  0  0
 49 51  1  0  0  0  0
 50 51  2  0  0  0  0
 51 52  1  0  0  0  0
M  END
>  <MODEL>
6

>  <REMARK>
 VINA RESULT:      -6.6      3.993      9.995
  Name = 
  17 active torsions:
  status: ('A' for Active; 'I' for Inactive)
    1  A    between atoms: O_1  and  C_8
    2  A    between atoms: O_1  and  C_26
    3  A    between atoms: O_7  and  C_9
    4  A    between atoms: O_7  and  C_23
    5  A    between atoms: C_8  and  N_40
    6  A    between atoms: C_9  and  C_12
    7  A    between atoms: C_10  and  C_31
    8  A    between atoms: C_10  and  C_39
    9  A    between atoms: C_16  and  C_18
   10  A    between atoms: C_16  and  N_35
   11  A    between atoms: C_18  and  C_28
   12  A    between atoms: C_20  and  C_39
   13  A    between atoms: C_20  and  C_43
   14  A    between atoms: C_29  and  C_31
   15  A    between atoms: C_34  and  C_48
   16  A    between atoms: N_40  and  C_44
   17  A    between atoms: C_43  and  C_44
                            x       y       z     vdW  Elec       q    Type
                         _______ _______ _______ _____ _____    ______ ____

>  <TORSDO>
F 17

$$$$
=
 OpenBabel10232409263D

 52 56  0  0  1  0  0  0  0  0999 V2000
  189.4280  174.5950  137.2940 C   0  0  2  0  0  3  0  0  0  0  0  0
  189.4580  173.2010  137.3540 O   0  0  0  0  0  1  0  0  0  0  0  0
  188.2110  175.0070  136.6840 O   0  0  0  0  0  0  0  0  0  0  0  0
  187.9690  177.0350  138.0210 C   0  0  0  0  0  3  0  0  0  0  0  0
  187.1890  178.0960  138.4780 C   0  0  0  0  0  3  0  0  0  0  0  0
  187.4270  176.0660  137.1630 C   0  0  0  0  0  0  0  0  0  0  0  0
  186.0780  176.1610  136.7730 C   0  0  0  0  0  0  0  0  0  0  0  0
  183.9720  177.3880  136.8320 O   0  0  0  0  0  1  0  0  0  0  0  0
  185.8570  178.2030  138.0780 C   0  0  0  0  0  3  0  0  0  0  0  0
  185.2980  177.2480  137.2260 C   0  0  0  0  0  0  0  0  0  0  0  0
  185.5210  175.1220  135.8360 C   0  0  1  0  0  3  0  0  0  0  0  0
  186.5030  174.7690  134.7340 C   0  0  0  0  0  1  0  0  0  0  0  0
  185.0590  173.8700  136.5720 C   0  0  0  0  0  2  0  0  0  0  0  0
  180.9700  172.3640  137.2110 C   0  0  0  0  0  2  0  0  0  0  0  0
  180.2890  173.3180  138.1730 C   0  0  0  0  0  2  0  0  0  0  0  0
  180.9090  174.6860  137.9230 C   0  0  2  0  0  3  0  0  0  0  0  0
  182.6880  171.4900  135.0900 O   0  0  0  0  0  0  0  0  0  0  0  0
  184.4050  172.9440  135.6550 N   0  0  0  0  0  2  0  0  0  0  0  0
  182.1340  173.0680  136.7120 N   0  0  0  0  0  0  0  0  0  0  0  0
  182.1790  174.4570  137.1210 C   0  0  0  0  0  2  0  0  0  0  0  0
  183.0580  172.4720  135.7900 C   0  0  0  0  0  0  0  0  0  0  0  0
  181.1970  175.4170  139.2270 C   0  0  0  0  0  2  0  0  0  0  0  0
  180.2820  176.4690  139.4280 O   0  0  0  0  0  0  0  0  0  0  0  0
  180.6560  178.7130  140.3520 C   0  0  0  0  0  1  0  0  0  0  0  0
  180.9480  177.7030  139.2480 C   0  0  0  0  0  3  0  0  0  0  0  0
  180.7500  178.2950  137.8580 C   0  0  0  0  0  1  0  0  0  0  0  0
  190.5560  175.0720  136.5040 N   0  0  0  0  0  2  0  0  0  0  0  0
  192.9000  176.0280  136.7730 C   0  0  0  0  0  2  0  0  0  0  0  0
  192.8210  174.6030  137.3010 C   0  0  0  0  0  2  0  0  0  0  0  0
  191.6200  175.5130  137.3990 C   0  0  0  0  0  0  0  0  0  0  0  0
  191.2790  175.8460  138.8410 C   0  0  0  0  0  2  0  0  0  0  0  0
  191.3270  177.3410  139.0770 C   0  0  0  0  0  2  0  0  0  0  0  0
  191.1190  177.6120  140.5500 C   0  0  0  0  0  2  0  0  0  0  0  0
  190.2110  176.5540  141.1420 C   0  0  0  0  0  2  0  0  0  0  0  0
  188.9880  177.2110  141.7510 C   0  0  0  0  0  2  0  0  0  0  0  0
  188.0170  177.4240  144.0720 C   0  0  0  0  0  0  0  0  0  0  0  0
  183.8010  178.4070  143.9610 O   0  0  0  0  0  1  0  0  0  0  0  0
  184.8600  179.3040  143.7620 C   0  0  1  0  0  3  0  0  0  0  0  0
  189.4610  177.1120  145.9690 O   0  0  0  0  0  1  0  0  0  0  0  0
  185.2320  179.1680  146.7380 O   0  0  0  0  0  1  0  0  0  0  0  0
  187.2700  177.9450  146.4690 C   0  0  1  0  0  3  0  0  0  0  0  0
  188.1320  177.0600  145.5440 C   0  0  1  0  0  3  0  0  0  0  0  0
  189.0140  177.0690  143.2400 C   0  0  0  0  0  3  0  0  0  0  0  0
  185.8760  178.2510  145.9070 C   0  0  2  0  0  3  0  0  0  0  0  0
  186.6410  177.8370  143.5970 C   0  0  2  0  0  3  0  0  0  0  0  0
  187.1530  177.3360  147.7200 O   0  0  0  0  0  1  0  0  0  0  0  0
  186.5580  178.3810  142.3040 O   0  0  0  0  0  0  0  0  0  0  0  0
  186.0690  178.8600  144.5260 C   0  0  1  0  0  3  0  0  0  0  0  0
  185.4080  179.2100  142.3300 C   0  0  1  0  0  3  0  0  0  0  0  0
  184.0930  179.5540  140.3520 O   0  0  0  0  0  0  0  0  0  0  0  0
  184.3950  178.7890  141.3070 C   0  0  0  0  0  0  0  0  0  0  0  0
  183.8220  177.5280  141.3860 O   0  0  0  0  0  1  0  0  0  0  0  0
  1  2  1  6  0  0  0
  3  6  1  0  0  0  0
  3  1  1  0  0  0  0
  4  5  1  0  0  0  0
  6  4  2  0  0  0  0
  7  6  1  0  0  0  0
  7 10  2  0  0  0  0
  8 10  1  0  0  0  0
  9  5  2  0  0  0  0
 10  9  1  0  0  0  0
 11 12  1  6  0  0  0
 11 13  1  0  0  0  0
 11  7  1  0  0  0  0
 14 15  1  0  0  0  0
 16 15  1  0  0  0  0
 16 22  1  1  0  0  0
 17 21  2  0  0  0  0
 18 21  1  0  0  0  0
 18 13  1  0  0  0  0
 19 20  1  0  0  0  0
 19 14  1  0  0  0  0
 20 16  1  0  0  0  0
 21 19  1  0  0  0  0
 22 23  1  0  0  0  0
 25 23  1  0  0  0  0
 25 24  1  0  0  0  0
 26 25  1  0  0  0  0
 27  1  1  0  0  0  0
 27 30  1  0  0  0  0
 28 29  1  0  0  0  0
 28 30  1  0  0  0  0
 29 30  1  0  0  0  0
 30 31  1  0  0  0  0
 31 32  1  0  0  0  0
 32 33  1  0  0  0  0
 33 34  1  0  0  0  0
 34 35  1  0  0  0  0
 35 43  1  0  0  0  0
 36 42  1  0  0  0  0
 38 37  1  6  0  0  0
 38 48  1  0  0  0  0
 41 46  1  1  0  0  0
 42 39  1  1  0  0  0
 42 41  1  0  0  0  0
 43 36  2  0  0  0  0
 44 41  1  0  0  0  0
 44 40  1  1  0  0  0
 45 47  1  6  0  0  0
 45 36  1  0  0  0  0
 45 48  1  0  0  0  0
 47 49  1  0  0  0  0
 48 44  1  0  0  0  0
 49 38  1  0  0  0  0
 50 51  2  0  0  0  0
 51 52  1  0  0  0  0
 51 49  1  0  0  0  0
M  END
>  <MODEL>
7

>  <REMARK>
 VINA RESULT:      -6.5      2.279      7.244
  Name = 
  17 active torsions:
  status: ('A' for Active; 'I' for Inactive)
    1  A    between atoms: O_1  and  C_8
    2  A    between atoms: O_1  and  C_26
    3  A    between atoms: O_7  and  C_9
    4  A    between atoms: O_7  and  C_23
    5  A    between atoms: C_8  and  N_40
    6  A    between atoms: C_9  and  C_12
    7  A    between atoms: C_10  and  C_31
    8  A    between atoms: C_10  and  C_39
    9  A    between atoms: C_16  and  C_18
   10  A    between atoms: C_16  and  N_35
   11  A    between atoms: C_18  and  C_28
   12  A    between atoms: C_20  and  C_39
   13  A    between atoms: C_20  and  C_43
   14  A    between atoms: C_29  and  C_31
   15  A    between atoms: C_34  and  C_48
   16  A    between atoms: N_40  and  C_44
   17  A    between atoms: C_43  and  C_44
                            x       y       z     vdW  Elec       q    Type
                         _______ _______ _______ _____ _____    ______ ____

>  <TORSDO>
F 17

$$$$
=
 OpenBabel10232409263D

 52 56  0  0  1  0  0  0  0  0999 V2000
  186.5680  178.3320  138.1400 C   0  0  2  0  0  3  0  0  0  0  0  0
  186.1970  178.6500  139.4480 O   0  0  0  0  0  1  0  0  0  0  0  0
  185.4000  178.0230  137.3880 O   0  0  0  0  0  0  0  0  0  0  0  0
  183.7050  179.0410  138.8210 C   0  0  0  0  0  3  0  0  0  0  0  0
  182.4120  179.0530  139.3420 C   0  0  0  0  0  3  0  0  0  0  0  0
  184.1070  178.0320  137.9320 C   0  0  0  0  0  0  0  0  0  0  0  0
  183.2000  177.0170  137.5760 C   0  0  0  0  0  0  0  0  0  0  0  0
  180.9570  176.0770  137.7370 O   0  0  0  0  0  1  0  0  0  0  0  0
  181.5040  178.0590  138.9770 C   0  0  0  0  0  3  0  0  0  0  0  0
  181.8860  177.0460  138.0950 C   0  0  0  0  0  0  0  0  0  0  0  0
  183.6460  175.9550  136.6050 C   0  0  1  0  0  3  0  0  0  0  0  0
  184.4290  176.5420  135.4460 C   0  0  0  0  0  1  0  0  0  0  0  0
  184.4360  174.8440  137.2880 C   0  0  0  0  0  2  0  0  0  0  0  0
  185.1620  170.8820  135.5120 C   0  0  0  0  0  2  0  0  0  0  0  0
  186.6120  170.8530  135.0650 C   0  0  0  0  0  2  0  0  0  0  0  0
  187.3690  171.7620  136.0240 C   0  0  2  0  0  3  0  0  0  0  0  0
  182.8810  171.5220  137.1230 O   0  0  0  0  0  0  0  0  0  0  0  0
  183.5820  173.6920  137.5510 N   0  0  0  0  0  2  0  0  0  0  0  0
  185.0530  172.0000  136.4260 N   0  0  0  0  0  0  0  0  0  0  0  0
  186.3310  172.5950  136.7560 C   0  0  0  0  0  2  0  0  0  0  0  0
  183.8110  172.3710  137.0420 C   0  0  0  0  0  0  0  0  0  0  0  0
  188.3710  172.6400  135.2880 C   0  0  0  0  0  2  0  0  0  0  0  0
  187.9540  173.9860  135.2830 O   0  0  0  0  0  0  0  0  0  0  0  0
  190.2030  174.8630  135.7260 C   0  0  0  0  0  1  0  0  0  0  0  0
  189.0020  174.7940  134.7890 C   0  0  0  0  0  3  0  0  0  0  0  0
  188.5370  176.1770  134.3460 C   0  0  0  0  0  1  0  0  0  0  0  0
  187.4570  177.1770  138.1550 N   0  0  0  0  0  2  0  0  0  0  0  0
  189.1300  179.0950  138.2060 C   0  0  0  0  0  2  0  0  0  0  0  0
  189.4770  178.0880  137.1200 C   0  0  0  0  0  2  0  0  0  0  0  0
  188.8240  177.6240  138.3990 C   0  0  0  0  0  0  0  0  0  0  0  0
  189.7510  176.7450  139.2200 C   0  0  0  0  0  2  0  0  0  0  0  0
  190.8110  177.5760  139.9120 C   0  0  0  0  0  2  0  0  0  0  0  0
  190.6090  177.4840  141.4080 C   0  0  0  0  0  2  0  0  0  0  0  0
  189.9200  176.1790  141.7520 C   0  0  0  0  0  2  0  0  0  0  0  0
  189.1790  176.3230  143.0670 C   0  0  0  0  0  2  0  0  0  0  0  0
  187.1100  177.5730  143.7940 C   0  0  0  0  0  0  0  0  0  0  0  0
  187.4890  179.0880  147.8330 O   0  0  0  0  0  1  0  0  0  0  0  0
  187.1920  177.7650  147.4750 C   0  0  1  0  0  3  0  0  0  0  0  0
  185.2580  177.7420  142.2700 O   0  0  0  0  0  1  0  0  0  0  0  0
  184.4430  178.7950  146.8440 O   0  0  0  0  0  1  0  0  0  0  0  0
  184.8260  178.5000  144.5010 C   0  0  1  0  0  3  0  0  0  0  0  0
  185.8670  178.3420  143.3730 C   0  0  1  0  0  3  0  0  0  0  0  0
  187.8540  176.9810  142.8410 C   0  0  0  0  0  3  0  0  0  0  0  0
  185.4420  178.8150  145.8700 C   0  0  2  0  0  3  0  0  0  0  0  0
  187.6050  177.8310  145.2000 C   0  0  2  0  0  3  0  0  0  0  0  0
  183.9090  179.4940  144.1540 O   0  0  0  0  0  1  0  0  0  0  0  0
  188.6130  176.9790  145.6800 O   0  0  0  0  0  0  0  0  0  0  0  0
  186.4670  177.7300  146.1650 C   0  0  1  0  0  3  0  0  0  0  0  0
  188.4630  176.9940  147.0900 C   0  0  1  0  0  3  0  0  0  0  0  0
  189.6350  178.1700  148.8230 O   0  0  0  0  0  1  0  0  0  0  0  0
  189.7080  177.4710  147.7770 C   0  0  0  0  0  0  0  0  0  0  0  0
  190.9500  177.0980  147.2850 O   0  0  0  0  0  0  0  0  0  0  0  0
  1 27  1  0  0  0  0
  1  2  1  1  0  0  0
  3  6  1  0  0  0  0
  3  1  1  0  0  0  0
  4  5  1  0  0  0  0
  6  4  2  0  0  0  0
  7  6  1  0  0  0  0
  7 10  2  0  0  0  0
  8 10  1  0  0  0  0
  9  5  2  0  0  0  0
 10  9  1  0  0  0  0
 11 12  1  6  0  0  0
 11 13  1  0  0  0  0
 11  7  1  0  0  0  0
 13 18  1  0  0  0  0
 14 19  1  0  0  0  0
 15 14  1  0  0  0  0
 15 16  1  0  0  0  0
 16 22  1  6  0  0  0
 16 20  1  0  0  0  0
 19 20  1  0  0  0  0
 19 21  1  0  0  0  0
 21 17  2  0  0  0  0
 21 18  1  0  0  0  0
 23 22  1  0  0  0  0
 25 23  1  0  0  0  0
 25 24  1  0  0  0  0
 26 25  1  0  0  0  0
 27 30  1  0  0  0  0
 28 30  1  0  0  0  0
 29 28  1  0  0  0  0
 29 30  1  0  0  0  0
 30 31  1  0  0  0  0
 31 32  1  0  0  0  0
 32 33  1  0  0  0  0
 33 34  1  0  0  0  0
 34 35  1  0  0  0  0
 38 37  1  6  0  0  0
 41 46  1  6  0  0  0
 41 44  1  0  0  0  0
 42 39  1  6  0  0  0
 42 36  1  0  0  0  0
 42 41  1  0  0  0  0
 43 35  1  0  0  0  0
 43 36  2  0  0  0  0
 44 48  1  0  0  0  0
 44 40  1  1  0  0  0
 45 36  1  6  0  0  0
 45 47  1  0  0  0  0
 45 48  1  0  0  0  0
 47 49  1  0  0  0  0
 48 38  1  0  0  0  0
 49 38  1  0  0  0  0
 49 51  1  0  0  0  0
 51 50  1  0  0  0  0
 52 51  2  0  0  0  0
M  END
>  <MODEL>
8

>  <REMARK>
 VINA RESULT:      -6.4      2.129      5.383
  Name = 
  17 active torsions:
  status: ('A' for Active; 'I' for Inactive)
    1  A    between atoms: O_1  and  C_8
    2  A    between atoms: O_1  and  C_26
    3  A    between atoms: O_7  and  C_9
    4  A    between atoms: O_7  and  C_23
    5  A    between atoms: C_8  and  N_40
    6  A    between atoms: C_9  and  C_12
    7  A    between atoms: C_10  and  C_31
    8  A    between atoms: C_10  and  C_39
    9  A    between atoms: C_16  and  C_18
   10  A    between atoms: C_16  and  N_35
   11  A    between atoms: C_18  and  C_28
   12  A    between atoms: C_20  and  C_39
   13  A    between atoms: C_20  and  C_43
   14  A    between atoms: C_29  and  C_31
   15  A    between atoms: C_34  and  C_48
   16  A    between atoms: N_40  and  C_44
   17  A    between atoms: C_43  and  C_44
                            x       y       z     vdW  Elec       q    Type
                         _______ _______ _______ _____ _____    ______ ____

>  <TORSDO>
F 17

$$$$
=
 OpenBabel10232409263D

 52 56  0  0  1  0  0  0  0  0999 V2000
  190.7360  176.9140  141.5630 C   0  0  2  0  0  3  0  0  0  0  0  0
  190.2510  178.2190  141.4690 O   0  0  0  0  0  1  0  0  0  0  0  0
  190.2850  176.1680  140.4390 O   0  0  0  0  0  0  0  0  0  0  0  0
  188.7150  177.6590  139.3100 C   0  0  0  0  0  3  0  0  0  0  0  0
  188.2430  178.2590  138.1440 C   0  0  0  0  0  3  0  0  0  0  0  0
  189.7930  176.7610  139.2670 C   0  0  0  0  0  0  0  0  0  0  0  0
  190.3910  176.4520  138.0310 C   0  0  0  0  0  0  0  0  0  0  0  0
  190.5090  176.8190  135.6240 O   0  0  0  0  0  1  0  0  0  0  0  0
  188.8460  177.9700  136.9190 C   0  0  0  0  0  3  0  0  0  0  0  0
  189.9180  177.0770  136.8560 C   0  0  0  0  0  0  0  0  0  0  0  0
  191.5580  175.5010  138.0090 C   0  0  1  0  0  3  0  0  0  0  0  0
  191.2400  174.2330  137.2380 C   0  0  0  0  0  1  0  0  0  0  0  0
  192.8270  176.1570  137.4780 C   0  0  0  0  0  2  0  0  0  0  0  0
  195.7290  172.8740  137.9140 C   0  0  0  0  0  2  0  0  0  0  0  0
  195.7400  172.1110  136.6030 C   0  0  0  0  0  2  0  0  0  0  0  0
  195.4160  173.1290  135.5180 C   0  0  2  0  0  3  0  0  0  0  0  0
  195.5600  175.1120  139.6960 O   0  0  0  0  0  0  0  0  0  0  0  0
  193.8720  176.1550  138.4940 N   0  0  0  0  0  2  0  0  0  0  0  0
  195.0960  174.1450  137.6280 N   0  0  0  0  0  0  0  0  0  0  0  0
  194.8520  174.3550  136.2160 C   0  0  0  0  0  2  0  0  0  0  0  0
  194.8730  175.1390  138.6380 C   0  0  0  0  0  0  0  0  0  0  0  0
  194.4360  172.5670  134.4980 C   0  0  0  0  0  2  0  0  0  0  0  0
  193.1740  172.3410  135.0830 O   0  0  0  0  0  0  0  0  0  0  0  0
  191.1570  171.1390  134.3690 C   0  0  0  0  0  1  0  0  0  0  0  0
  192.6610  171.1100  134.6160 C   0  0  0  0  0  3  0  0  0  0  0  0
  193.0820  169.9210  135.4710 C   0  0  0  0  0  1  0  0  0  0  0  0
  190.2380  176.2980  142.7870 N   0  0  0  0  0  2  0  0  0  0  0  0
  191.8400  177.8890  143.9650 C   0  0  0  0  0  2  0  0  0  0  0  0
  191.5950  176.6380  144.7950 C   0  0  0  0  0  2  0  0  0  0  0  0
  190.4980  177.1870  143.9140 C   0  0  0  0  0  0  0  0  0  0  0  0
  189.3250  177.7050  144.7280 C   0  0  0  0  0  2  0  0  0  0  0  0
  188.1100  176.8200  144.5500 C   0  0  0  0  0  2  0  0  0  0  0  0
  186.9790  177.6470  143.9810 C   0  0  0  0  0  2  0  0  0  0  0  0
  187.0620  177.6560  142.4680 C   0  0  0  0  0  2  0  0  0  0  0  0
  186.2730  178.8280  141.9190 C   0  0  0  0  0  2  0  0  0  0  0  0
  183.7510  178.7800  142.0380 C   0  0  0  0  0  0  0  0  0  0  0  0
  182.0050  177.1900  138.4090 O   0  0  0  0  0  1  0  0  0  0  0  0
  182.5040  178.4890  138.5810 C   0  0  1  0  0  3  0  0  0  0  0  0
  182.6650  179.6040  144.0190 O   0  0  0  0  0  1  0  0  0  0  0  0
  179.9830  179.0040  140.1280 O   0  0  0  0  0  1  0  0  0  0  0  0
  181.2130  179.1190  142.1760 C   0  0  1  0  0  3  0  0  0  0  0  0
  182.5140  178.7540  142.9220 C   0  0  1  0  0  3  0  0  0  0  0  0
  184.9560  178.9360  142.6200 C   0  0  0  0  0  3  0  0  0  0  0  0
  181.1140  178.5040  140.7740 C   0  0  2  0  0  3  0  0  0  0  0  0
  183.5670  178.2750  140.6240 C   0  0  2  0  0  3  0  0  0  0  0  0
  180.1120  178.7320  142.9420 O   0  0  0  0  0  1  0  0  0  0  0  0
  184.6320  178.4890  139.7340 O   0  0  0  0  0  0  0  0  0  0  0  0
  182.3630  178.9150  140.0100 C   0  0  1  0  0  3  0  0  0  0  0  0
  184.0340  178.5210  138.4500 C   0  0  1  0  0  3  0  0  0  0  0  0
  184.4730  177.5570  136.2960 O   0  0  0  0  0  0  0  0  0  0  0  0
  184.5980  177.4650  137.5460 C   0  0  0  0  0  0  0  0  0  0  0  0
  185.3060  176.4030  138.0900 O   0  0  0  0  0  1  0  0  0  0  0  0
  1  2  1  6  0  0  0
  1 27  1  0  0  0  0
  3  1  1  0  0  0  0
  5  4  2  0  0  0  0
  6  4  1  0  0  0  0
  6  3  1  0  0  0  0
  7  6  2  0  0  0  0
  8 10  1  0  0  0  0
  9  5  1  0  0  0  0
 10  9  2  0  0  0  0
 10  7  1  0  0  0  0
 11 12  1  6  0  0  0
 11  7  1  0  0  0  0
 13 11  1  0  0  0  0
 13 18  1  0  0  0  0
 15 14  1  0  0  0  0
 16 22  1  6  0  0  0
 16 20  1  0  0  0  0
 16 15  1  0  0  0  0
 18 21  1  0  0  0  0
 19 14  1  0  0  0  0
 19 21  1  0  0  0  0
 20 19  1  0  0  0  0
 21 17  2  0  0  0  0
 22 23  1  0  0  0  0
 24 25  1  0  0  0  0
 25 23  1  0  0  0  0
 25 26  1  0  0  0  0
 27 30  1  0  0  0  0
 28 29  1  0  0  0  0
 30 28  1  0  0  0  0
 30 31  1  0  0  0  0
 30 29  1  0  0  0  0
 32 31  1  0  0  0  0
 33 32  1  0  0  0  0
 34 33  1  0  0  0  0
 35 34  1  0  0  0  0
 35 43  1  0  0  0  0
 36 43  2  0  0  0  0
 36 42  1  0  0  0  0
 38 37  1  1  0  0  0
 38 48  1  0  0  0  0
 41 42  1  0  0  0  0
 41 46  1  1  0  0  0
 42 39  1  1  0  0  0
 44 40  1  6  0  0  0
 44 41  1  0  0  0  0
 45 47  1  6  0  0  0
 45 36  1  0  0  0  0
 48 45  1  0  0  0  0
 48 44  1  0  0  0  0
 49 38  1  0  0  0  0
 49 47  1  0  0  0  0
 50 51  2  0  0  0  0
 51 52  1  0  0  0  0
 51 49  1  0  0  0  0
M  END
>  <MODEL>
9

>  <REMARK>
 VINA RESULT:      -6.4      2.901      6.823
  Name = 
  17 active torsions:
  status: ('A' for Active; 'I' for Inactive)
    1  A    between atoms: O_1  and  C_8
    2  A    between atoms: O_1  and  C_26
    3  A    between atoms: O_7  and  C_9
    4  A    between atoms: O_7  and  C_23
    5  A    between atoms: C_8  and  N_40
    6  A    between atoms: C_9  and  C_12
    7  A    between atoms: C_10  and  C_31
    8  A    between atoms: C_10  and  C_39
    9  A    between atoms: C_16  and  C_18
   10  A    between atoms: C_16  and  N_35
   11  A    between atoms: C_18  and  C_28
   12  A    between atoms: C_20  and  C_39
   13  A    between atoms: C_20  and  C_43
   14  A    between atoms: C_29  and  C_31
   15  A    between atoms: C_34  and  C_48
   16  A    between atoms: N_40  and  C_44
   17  A    between atoms: C_43  and  C_44
                            x       y       z     vdW  Elec       q    Type
                         _______ _______ _______ _____ _____    ______ ____

>  <TORSDO>
F 17

$$$$
