=
 OpenBabel10232408563D

 56 61  0  0  1  0  0  0  0  0999 V2000
  184.4780  178.8630  142.5010 C   0  0  2  0  0  3  0  0  0  0  0  0
  184.6260  179.5150  143.8620 C   0  0  0  0  0  2  0  0  0  0  0  0
  184.5250  178.4580  144.9470 C   0  0  0  0  0  2  0  0  0  0  0  0
  185.7040  177.6640  144.9820 O   0  0  0  0  0  0  0  0  0  0  0  0
  188.7440  178.0410  147.8530 C   0  0  0  0  0  3  0  0  0  0  0  0
  188.0010  177.4110  145.6420 C   0  0  0  0  0  3  0  0  0  0  0  0
  187.4410  178.4310  148.1790 C   0  0  0  0  0  3  0  0  0  0  0  0
  186.4200  178.3090  147.2340 C   0  0  0  0  0  3  0  0  0  0  0  0
  189.0400  177.5300  146.5760 C   0  0  0  0  0  0  0  0  0  0  0  0
  186.6970  177.7970  145.9560 C   0  0  0  0  0  0  0  0  0  0  0  0
  191.1790  176.5420  147.1840 C   0  0  0  0  0  2  0  0  0  0  0  0
  190.4140  177.0800  146.2330 C   0  0  0  0  0  0  0  0  0  0  0  0
  191.6520  178.1250  142.8490 N   0  0  2  0  0  0  0  0  0  0  0  0
  191.0060  178.4270  144.1430 C   0  0  2  0  0  3  0  0  0  0  0  0
  190.9300  177.1850  144.8880 N   0  0  0  0  0  0  0  0  0  0  0  0
  190.1980  178.3510  142.9290 C   0  0  0  0  0  2  0  0  0  0  0  0
  191.8820  176.6770  142.8210 C   0  0  0  0  0  2  0  0  0  0  0  0
  191.5890  176.1060  144.1920 C   0  0  0  0  0  2  0  0  0  0  0  0
  185.4200  179.5250  141.5120 C   0  0  0  0  0  2  0  0  0  0  0  0
  186.0790  178.5180  140.7590 O   0  0  0  0  0  0  0  0  0  0  0  0
  185.2400  179.1210  138.7150 O   0  0  0  0  0  0  0  0  0  0  0  0
  186.1750  178.5880  139.3650 C   0  0  0  0  0  0  0  0  0  0  0  0
  187.4140  178.1400  138.6490 C   0  0  2  0  0  3  0  0  0  0  0  0
  188.6090  178.3400  139.5770 C   0  0  0  0  0  1  0  0  0  0  0  0
  187.5680  178.8770  137.4660 O   0  0  0  0  0  0  0  0  0  0  0  0
  188.8660  178.6300  136.9970 C   0  0  0  0  0  2  0  0  0  0  0  0
  190.6600  175.9130  136.7790 C   0  0  1  0  0  3  0  0  0  0  0  0
  187.3950  173.9870  136.3910 C   0  0  2  0  0  3  0  0  0  0  0  0
  190.4970  173.6690  137.6380 O   0  0  0  0  0  1  0  0  0  0  0  0
  190.1940  176.8930  135.6770 C   0  0  0  0  0  2  0  0  0  0  0  0
  189.9520  174.5440  136.6920 C   0  0  1  0  0  3  0  0  0  0  0  0
  187.5670  176.6620  136.0270 C   0  0  0  0  0  2  0  0  0  0  0  0
  188.8180  177.5690  135.9080 C   0  0  1  0  0  3  0  0  0  0  0  0
  188.5040  174.7900  137.0220 C   0  0  1  0  0  3  0  0  0  0  0  0
  187.9310  175.2290  135.6890 C   0  0  1  0  0  3  0  0  0  0  0  0
  192.0420  175.7370  136.6790 O   0  0  0  0  0  0  0  0  0  0  0  0
  192.5730  176.4400  137.7610 C   0  0  0  0  0  1  0  0  0  0  0  0
  186.1040  174.2510  137.1520 C   0  0  0  0  0  2  0  0  0  0  0  0
  185.4400  172.9600  137.5900 C   0  0  0  0  0  2  0  0  0  0  0  0
  184.3050  172.6810  136.7290 N   0  0  0  0  0  2  0  0  0  0  0  0
  183.2340  173.5740  137.1370 C   0  0  0  0  0  2  0  0  0  0  0  0
  182.2160  173.6770  136.0190 C   0  0  0  0  0  2  0  0  0  0  0  0
  180.5630  173.4910  137.8790 O   0  0  0  0  0  1  0  0  0  0  0  0
  180.8600  173.9080  136.5880 C   0  0  0  0  0  0  0  0  0  0  0  0
  179.9840  174.4960  135.9000 O   0  0  0  0  0  0  0  0  0  0  0  0
  183.1270  178.9820  142.0560 O   0  0  0  0  0  0  0  0  0  0  0  0
  182.6570  178.3990  140.8750 C   0  0  0  0  0  0  0  0  0  0  0  0
  181.6590  177.2790  138.5090 C   0  0  0  0  0  3  0  0  0  0  0  0
  182.4530  176.5120  139.3650 C   0  0  0  0  0  3  0  0  0  0  0  0
  182.9490  177.0680  140.5450 C   0  0  0  0  0  3  0  0  0  0  0  0
  181.8690  179.1650  140.0110 C   0  0  0  0  0  3  0  0  0  0  0  0
  181.3630  178.6100  138.8240 C   0  0  0  0  0  0  0  0  0  0  0  0
  180.5510  179.3470  137.9570 O   0  0  0  0  0  0  0  0  0  0  0  0
  181.0100  179.8320  136.7040 C   0  0  0  0  0  2  0  0  0  0  0  0
  181.0220  182.0180  137.9150 C   0  0  0  0  0  1  0  0  0  0  0  0
  180.7410  181.3240  136.5940 C   0  0  0  0  0  2  0  0  0  0  0  0
  1 19  1  6  0  0  0
  1  2  1  0  0  0  0
  2  3  1  0  0  0  0
  3  4  1  0  0  0  0
  4 10  1  0  0  0  0
  5  7  1  0  0  0  0
  6 10  2  0  0  0  0
  6  9  1  0  0  0  0
  8  7  2  0  0  0  0
  9  5  2  0  0  0  0
 10  8  1  0  0  0  0
 12  9  1  0  0  0  0
 12 11  2  0  0  0  0
 13 17  1  1  0  0  0
 13 16  1  0  0  0  0
 13 14  1  0  0  0  0
 14 16  1  6  0  0  0
 14 15  1  0  0  0  0
 15 12  1  0  0  0  0
 17 18  1  0  0  0  0
 18 15  1  0  0  0  0
 20 19  1  0  0  0  0
 21 22  2  0  0  0  0
 22 20  1  0  0  0  0
 23 22  1  0  0  0  0
 23 24  1  1  0  0  0
 25 23  1  0  0  0  0
 26 25  1  0  0  0  0
 27 36  1  6  0  0  0
 28 34  1  0  0  0  0
 28 38  1  1  0  0  0
 30 33  1  0  0  0  0
 30 27  1  0  0  0  0
 31 27  1  0  0  0  0
 31 34  1  0  0  0  0
 31 29  1  1  0  0  0
 33 32  1  0  0  0  0
 33 26  1  1  0  0  0
 35 32  1  0  0  0  0
 35 28  1  0  0  0  0
 35 34  1  0  0  0  0
 36 37  1  0  0  0  0
 38 39  1  0  0  0  0
 40 41  1  0  0  0  0
 40 39  1  0  0  0  0
 42 44  1  0  0  0  0
 42 41  1  0  0  0  0
 44 43  1  0  0  0  0
 45 44  2  0  0  0  0
 46  1  1  0  0  0  0
 47 46  1  0  0  0  0
 48 52  2  0  0  0  0
 48 49  1  0  0  0  0
 49 50  2  0  0  0  0
 50 47  1  0  0  0  0
 51 47  2  0  0  0  0
 52 51  1  0  0  0  0
 53 52  1  0  0  0  0
 54 53  1  0  0  0  0
 56 54  1  0  0  0  0
 56 55  1  0  0  0  0
M  END
>  <MODEL>
1

>  <REMARK>
 VINA RESULT:      -6.9      0.000      0.000
  Name = 
  25 active torsions:
  status: ('A' for Active; 'I' for Inactive)
    1  A    between atoms: C_1  and  O_5
    2  A    between atoms: C_3  and  C_30
    3  A    between atoms: C_6  and  C_28
    4  A    between atoms: C_6  and  C_45
    5  A    between atoms: O_8  and  C_18
    6  A    between atoms: O_8  and  C_51
    7  A    between atoms: C_9  and  O_22
    8  A    between atoms: C_11  and  C_30
    9  A    between atoms: C_11  and  N_43
   10  A    between atoms: C_13  and  O_33
   11  A    between atoms: C_13  and  C_45
   12  A    between atoms: C_15  and  C_25
   13  A    between atoms: O_16  and  C_28
   14  A    between atoms: O_16  and  C_47
   15  A    between atoms: C_18  and  C_49
   16  A    between atoms: C_21  and  O_27
   17  A    between atoms: C_21  and  C_55
   18  A    between atoms: O_22  and  C_45
   19  A    between atoms: C_25  and  C_29
   20  A    between atoms: N_26  and  C_44
   21  A    between atoms: O_27  and  C_37
   22  A    between atoms: C_29  and  N_43
   23  A    between atoms: O_33  and  C_55
   24  A    between atoms: C_37  and  C_41
   25  A    between atoms: C_40  and  C_44
                            x       y       z     vdW  Elec       q    Type
                         _______ _______ _______ _____ _____    ______ ____

>  <TORSDO>
F 25

$$$$
=
 OpenBabel10232408563D

 56 61  0  0  1  0  0  0  0  0999 V2000
  185.2780  179.0240  141.4920 C   0  0  2  0  0  3  0  0  0  0  0  0
  186.5990  178.2810  141.5200 C   0  0  0  0  0  2  0  0  0  0  0  0
  187.3070  178.4500  140.1880 C   0  0  0  0  0  2  0  0  0  0  0  0
  186.3850  178.8410  139.1780 O   0  0  0  0  0  0  0  0  0  0  0  0
  186.3300  177.2250  135.3040 C   0  0  0  0  0  3  0  0  0  0  0  0
  185.4510  177.3390  137.5510 C   0  0  0  0  0  3  0  0  0  0  0  0
  187.2750  178.2050  135.6240 C   0  0  0  0  0  3  0  0  0  0  0  0
  187.3060  178.7490  136.9100 C   0  0  0  0  0  3  0  0  0  0  0  0
  185.4020  176.7840  136.2640 C   0  0  0  0  0  0  0  0  0  0  0  0
  186.3900  178.3170  137.8820 C   0  0  0  0  0  0  0  0  0  0  0  0
  183.3680  176.0100  135.1730 C   0  0  0  0  0  2  0  0  0  0  0  0
  184.4180  175.7170  135.9430 C   0  0  0  0  0  0  0  0  0  0  0  0
  185.6180  172.3750  137.1520 N   0  0  2  0  0  0  0  0  0  0  0  0
  185.8700  173.7100  136.5720 C   0  0  2  0  0  3  0  0  0  0  0  0
  184.5850  174.3660  136.4230 N   0  0  0  0  0  0  0  0  0  0  0  0
  185.9460  172.5240  135.7230 C   0  0  0  0  0  2  0  0  0  0  0  0
  184.1640  172.2340  137.2690 C   0  0  0  0  0  2  0  0  0  0  0  0
  183.5140  173.5690  136.9750 C   0  0  0  0  0  2  0  0  0  0  0  0
  184.9470  179.5310  142.8840 C   0  0  0  0  0  2  0  0  0  0  0  0
  184.7900  178.4210  143.7540 O   0  0  0  0  0  0  0  0  0  0  0  0
  183.8020  179.1060  145.7040 O   0  0  0  0  0  0  0  0  0  0  0  0
  184.7940  178.5720  145.1450 C   0  0  0  0  0  0  0  0  0  0  0  0
  185.9050  178.0130  145.9830 C   0  0  2  0  0  3  0  0  0  0  0  0
  186.0340  178.8600  147.2460 C   0  0  0  0  0  1  0  0  0  0  0  0
  187.1000  178.0200  145.2490 O   0  0  0  0  0  0  0  0  0  0  0  0
  188.0600  177.3570  146.0260 C   0  0  0  0  0  2  0  0  0  0  0  0
  190.9680  175.8790  146.1050 C   0  0  1  0  0  3  0  0  0  0  0  0
  191.6130  177.3250  142.6400 C   0  0  2  0  0  3  0  0  0  0  0  0
  192.3150  174.6450  144.5370 O   0  0  0  0  0  1  0  0  0  0  0  0
  190.5480  177.2840  146.5960 C   0  0  0  0  0  2  0  0  0  0  0  0
  191.8780  175.9340  144.8610 C   0  0  1  0  0  3  0  0  0  0  0  0
  189.6820  178.2690  144.2820 C   0  0  0  0  0  2  0  0  0  0  0  0
  189.4260  177.9800  145.7830 C   0  0  1  0  0  3  0  0  0  0  0  0
  191.0330  176.4670  143.7350 C   0  0  1  0  0  3  0  0  0  0  0  0
  191.1260  177.9680  143.9340 C   0  0  1  0  0  3  0  0  0  0  0  0
  191.6240  175.2110  147.1420 O   0  0  0  0  0  0  0  0  0  0  0  0
  192.4770  176.1630  147.7010 C   0  0  0  0  0  1  0  0  0  0  0  0
  190.5980  177.4320  141.5110 C   0  0  0  0  0  2  0  0  0  0  0  0
  191.1150  176.7990  140.2340 C   0  0  0  0  0  2  0  0  0  0  0  0
  190.5560  177.4940  139.0880 N   0  0  0  0  0  2  0  0  0  0  0  0
  189.6870  176.5520  138.4030 C   0  0  0  0  0  2  0  0  0  0  0  0
  190.5070  175.3680  137.9310 C   0  0  0  0  0  2  0  0  0  0  0  0
  189.5550  173.2920  136.9260 O   0  0  0  0  0  1  0  0  0  0  0  0
  189.7890  174.6580  136.8370 C   0  0  0  0  0  0  0  0  0  0  0  0
  189.3800  175.3010  135.8350 O   0  0  0  0  0  0  0  0  0  0  0  0
  184.2480  178.1550  141.0220 O   0  0  0  0  0  0  0  0  0  0  0  0
  183.0030  178.6140  140.5800 C   0  0  0  0  0  0  0  0  0  0  0  0
  180.5440  179.5910  139.6610 C   0  0  0  0  0  3  0  0  0  0  0  0
  180.5920  178.7740  140.7930 C   0  0  0  0  0  3  0  0  0  0  0  0
  181.8170  178.2880  141.2520 C   0  0  0  0  0  3  0  0  0  0  0  0
  182.9480  179.4260  139.4430 C   0  0  0  0  0  3  0  0  0  0  0  0
  181.7190  179.9220  138.9770 C   0  0  0  0  0  0  0  0  0  0  0  0
  181.6420  180.7580  137.8600 O   0  0  0  0  0  0  0  0  0  0  0  0
  180.7980  180.4780  136.7510 C   0  0  0  0  0  2  0  0  0  0  0  0
  180.7200  182.9650  136.9810 C   0  0  0  0  0  1  0  0  0  0  0  0
  180.3080  181.7760  136.1310 C   0  0  0  0  0  2  0  0  0  0  0  0
  1  2  1  1  0  0  0
  1 19  1  0  0  0  0
  3  2  1  0  0  0  0
  4  3  1  0  0  0  0
  5  7  2  0  0  0  0
  5  9  1  0  0  0  0
  6 10  1  0  0  0  0
  7  8  1  0  0  0  0
  8 10  2  0  0  0  0
  9  6  2  0  0  0  0
 10  4  1  0  0  0  0
 11 12  2  0  0  0  0
 12  9  1  0  0  0  0
 12 15  1  0  0  0  0
 13 16  1  6  0  0  0
 13 17  1  0  0  0  0
 14 16  1  6  0  0  0
 14 13  1  0  0  0  0
 15 14  1  0  0  0  0
 15 18  1  0  0  0  0
 18 17  1  0  0  0  0
 19 20  1  0  0  0  0
 20 22  1  0  0  0  0
 22 21  2  0  0  0  0
 22 23  1  0  0  0  0
 23 24  1  1  0  0  0
 25 23  1  0  0  0  0
 25 26  1  0  0  0  0
 27 30  1  0  0  0  0
 27 36  1  1  0  0  0
 28 38  1  6  0  0  0
 28 34  1  0  0  0  0
 28 35  1  0  0  0  0
 31 29  1  6  0  0  0
 31 27  1  0  0  0  0
 32 33  1  0  0  0  0
 33 26  1  6  0  0  0
 33 30  1  0  0  0  0
 34 35  1  0  0  0  0
 34 31  1  0  0  0  0
 35 32  1  0  0  0  0
 36 37  1  0  0  0  0
 39 38  1  0  0  0  0
 40 39  1  0  0  0  0
 41 40  1  0  0  0  0
 42 41  1  0  0  0  0
 44 43  1  0  0  0  0
 44 42  1  0  0  0  0
 45 44  2  0  0  0  0
 46  1  1  0  0  0  0
 47 46  1  0  0  0  0
 47 50  1  0  0  0  0
 48 49  1  0  0  0  0
 49 50  2  0  0  0  0
 51 47  2  0  0  0  0
 52 51  1  0  0  0  0
 52 48  2  0  0  0  0
 53 52  1  0  0  0  0
 54 53  1  0  0  0  0
 56 54  1  0  0  0  0
 56 55  1  0  0  0  0
M  END
>  <MODEL>
2

>  <REMARK>
 VINA RESULT:      -6.9      2.142      8.075
  Name = 
  25 active torsions:
  status: ('A' for Active; 'I' for Inactive)
    1  A    between atoms: C_1  and  O_5
    2  A    between atoms: C_3  and  C_30
    3  A    between atoms: C_6  and  C_28
    4  A    between atoms: C_6  and  C_45
    5  A    between atoms: O_8  and  C_18
    6  A    between atoms: O_8  and  C_51
    7  A    between atoms: C_9  and  O_22
    8  A    between atoms: C_11  and  C_30
    9  A    between atoms: C_11  and  N_43
   10  A    between atoms: C_13  and  O_33
   11  A    between atoms: C_13  and  C_45
   12  A    between atoms: C_15  and  C_25
   13  A    between atoms: O_16  and  C_28
   14  A    between atoms: O_16  and  C_47
   15  A    between atoms: C_18  and  C_49
   16  A    between atoms: C_21  and  O_27
   17  A    between atoms: C_21  and  C_55
   18  A    between atoms: O_22  and  C_45
   19  A    between atoms: C_25  and  C_29
   20  A    between atoms: N_26  and  C_44
   21  A    between atoms: O_27  and  C_37
   22  A    between atoms: C_29  and  N_43
   23  A    between atoms: O_33  and  C_55
   24  A    between atoms: C_37  and  C_41
   25  A    between atoms: C_40  and  C_44
                            x       y       z     vdW  Elec       q    Type
                         _______ _______ _______ _____ _____    ______ ____

>  <TORSDO>
F 25

$$$$
=
 OpenBabel10232408563D

 56 61  0  0  1  0  0  0  0  0999 V2000
  184.9830  179.0390  142.6670 C   0  0  2  0  0  3  0  0  0  0  0  0
  186.2160  178.2280  142.3190 C   0  0  0  0  0  2  0  0  0  0  0  0
  186.8260  178.7550  141.0320 C   0  0  0  0  0  2  0  0  0  0  0  0
  185.8080  179.1340  140.1150 O   0  0  0  0  0  0  0  0  0  0  0  0
  184.9750  176.9510  136.6270 C   0  0  0  0  0  3  0  0  0  0  0  0
  186.5530  177.9050  138.1880 C   0  0  0  0  0  3  0  0  0  0  0  0
  183.9170  177.4540  137.3900 C   0  0  0  0  0  3  0  0  0  0  0  0
  184.1790  178.1840  138.5510 C   0  0  0  0  0  3  0  0  0  0  0  0
  186.3080  177.1670  137.0210 C   0  0  0  0  0  0  0  0  0  0  0  0
  185.5040  178.4130  138.9570 C   0  0  0  0  0  0  0  0  0  0  0  0
  188.1470  177.5330  135.4690 C   0  0  0  0  0  2  0  0  0  0  0  0
  187.4400  176.6670  136.1980 C   0  0  0  0  0  0  0  0  0  0  0  0
  187.6540  172.9300  135.9460 N   0  0  2  0  0  0  0  0  0  0  0  0
  186.8780  174.1870  135.9390 C   0  0  2  0  0  3  0  0  0  0  0  0
  187.8080  175.2710  136.1890 N   0  0  0  0  0  0  0  0  0  0  0  0
  186.8030  173.2940  137.0930 C   0  0  0  0  0  2  0  0  0  0  0  0
  189.0360  173.2900  136.2780 C   0  0  0  0  0  2  0  0  0  0  0  0
  189.1710  174.7970  136.2530 C   0  0  0  0  0  2  0  0  0  0  0  0
  185.0970  179.5580  144.0880 C   0  0  0  0  0  2  0  0  0  0  0  0
  185.1160  178.4560  144.9820 O   0  0  0  0  0  0  0  0  0  0  0  0
  185.5750  179.2960  147.0630 O   0  0  0  0  0  0  0  0  0  0  0  0
  185.8740  178.4770  146.1570 C   0  0  0  0  0  0  0  0  0  0  0  0
  186.9610  177.4710  146.3980 C   0  0  2  0  0  3  0  0  0  0  0  0
  187.4150  177.5850  147.8510 C   0  0  0  0  0  1  0  0  0  0  0  0
  188.0280  177.7090  145.5190 O   0  0  0  0  0  0  0  0  0  0  0  0
  189.1380  178.0440  146.3060 C   0  0  0  0  0  2  0  0  0  0  0  0
  191.5750  175.9700  145.6680 C   0  0  1  0  0  3  0  0  0  0  0  0
  190.8820  176.5540  141.9670 C   0  0  2  0  0  3  0  0  0  0  0  0
  191.9490  174.1850  144.0960 O   0  0  0  0  0  1  0  0  0  0  0  0
  191.5980  177.5000  145.8880 C   0  0  0  0  0  2  0  0  0  0  0  0
  191.8710  175.5780  144.2050 C   0  0  1  0  0  3  0  0  0  0  0  0
  189.9760  178.2120  143.9030 C   0  0  0  0  0  2  0  0  0  0  0  0
  190.3440  178.2750  145.4080 C   0  0  1  0  0  3  0  0  0  0  0  0
  190.7090  176.0740  143.3860 C   0  0  1  0  0  3  0  0  0  0  0  0
  191.0810  177.5220  143.1280 C   0  0  1  0  0  3  0  0  0  0  0  0
  192.5100  175.3730  146.5160 O   0  0  0  0  0  0  0  0  0  0  0  0
  192.2320  175.8920  147.7810 C   0  0  0  0  0  1  0  0  0  0  0  0
  189.5090  176.6820  141.3220 C   0  0  0  0  0  2  0  0  0  0  0  0
  189.6140  176.9370  139.8320 C   0  0  0  0  0  2  0  0  0  0  0  0
  190.9280  177.4720  139.5220 N   0  0  0  0  0  2  0  0  0  0  0  0
  191.3460  176.8690  138.2680 C   0  0  0  0  0  2  0  0  0  0  0  0
  192.7780  176.3870  138.3980 C   0  0  0  0  0  2  0  0  0  0  0  0
  193.5430  174.1150  137.7090 O   0  0  0  0  0  1  0  0  0  0  0  0
  193.0670  175.3690  137.3510 C   0  0  0  0  0  0  0  0  0  0  0  0
  192.8650  175.6430  136.1380 O   0  0  0  0  0  0  0  0  0  0  0  0
  183.8190  178.2250  142.5270 O   0  0  0  0  0  0  0  0  0  0  0  0
  182.5340  178.7520  142.3640 C   0  0  0  0  0  0  0  0  0  0  0  0
  179.9830  179.8420  141.9760 C   0  0  0  0  0  3  0  0  0  0  0  0
  180.3960  179.4700  143.2570 C   0  0  0  0  0  3  0  0  0  0  0  0
  181.6670  178.9290  143.4510 C   0  0  0  0  0  3  0  0  0  0  0  0
  182.1120  179.1180  141.0820 C   0  0  0  0  0  3  0  0  0  0  0  0
  180.8350  179.6680  140.8790 C   0  0  0  0  0  0  0  0  0  0  0  0
  180.4010  180.0670  139.6120 O   0  0  0  0  0  0  0  0  0  0  0  0
  181.1460  179.8090  138.4310 C   0  0  0  0  0  2  0  0  0  0  0  0
  180.6590  180.5230  136.0860 C   0  0  0  0  0  1  0  0  0  0  0  0
  181.0380  180.9900  137.4800 C   0  0  0  0  0  2  0  0  0  0  0  0
  1  2  1  1  0  0  0
  1 19  1  0  0  0  0
  3  2  1  0  0  0  0
  4  3  1  0  0  0  0
  5  9  2  0  0  0  0
  5  7  1  0  0  0  0
  6 10  2  0  0  0  0
  7  8  2  0  0  0  0
  8 10  1  0  0  0  0
  9  6  1  0  0  0  0
 10  4  1  0  0  0  0
 11 12  2  0  0  0  0
 12  9  1  0  0  0  0
 13 17  1  1  0  0  0
 13 16  1  0  0  0  0
 14 13  1  0  0  0  0
 14 15  1  0  0  0  0
 14 16  1  1  0  0  0
 15 12  1  0  0  0  0
 15 18  1  0  0  0  0
 18 17  1  0  0  0  0
 19 20  1  0  0  0  0
 20 22  1  0  0  0  0
 22 23  1  0  0  0  0
 22 21  2  0  0  0  0
 23 24  1  1  0  0  0
 25 26  1  0  0  0  0
 25 23  1  0  0  0  0
 27 30  1  0  0  0  0
 27 36  1  1  0  0  0
 28 38  1  6  0  0  0
 28 35  1  0  0  0  0
 28 34  1  0  0  0  0
 31 29  1  1  0  0  0
 31 27  1  0  0  0  0
 32 33  1  0  0  0  0
 33 30  1  0  0  0  0
 33 26  1  1  0  0  0
 34 31  1  0  0  0  0
 35 34  1  0  0  0  0
 35 32  1  0  0  0  0
 36 37  1  0  0  0  0
 39 38  1  0  0  0  0
 40 39  1  0  0  0  0
 41 42  1  0  0  0  0
 41 40  1  0  0  0  0
 44 43  1  0  0  0  0
 44 42  1  0  0  0  0
 45 44  2  0  0  0  0
 46  1  1  0  0  0  0
 47 46  1  0  0  0  0
 47 50  1  0  0  0  0
 48 49  1  0  0  0  0
 49 50  2  0  0  0  0
 51 47  2  0  0  0  0
 52 51  1  0  0  0  0
 52 48  2  0  0  0  0
 53 52  1  0  0  0  0
 54 53  1  0  0  0  0
 55 56  1  0  0  0  0
 56 54  1  0  0  0  0
M  END
>  <MODEL>
3

>  <REMARK>
 VINA RESULT:      -6.9      2.304      7.936
  Name = 
  25 active torsions:
  status: ('A' for Active; 'I' for Inactive)
    1  A    between atoms: C_1  and  O_5
    2  A    between atoms: C_3  and  C_30
    3  A    between atoms: C_6  and  C_28
    4  A    between atoms: C_6  and  C_45
    5  A    between atoms: O_8  and  C_18
    6  A    between atoms: O_8  and  C_51
    7  A    between atoms: C_9  and  O_22
    8  A    between atoms: C_11  and  C_30
    9  A    between atoms: C_11  and  N_43
   10  A    between atoms: C_13  and  O_33
   11  A    between atoms: C_13  and  C_45
   12  A    between atoms: C_15  and  C_25
   13  A    between atoms: O_16  and  C_28
   14  A    between atoms: O_16  and  C_47
   15  A    between atoms: C_18  and  C_49
   16  A    between atoms: C_21  and  O_27
   17  A    between atoms: C_21  and  C_55
   18  A    between atoms: O_22  and  C_45
   19  A    between atoms: C_25  and  C_29
   20  A    between atoms: N_26  and  C_44
   21  A    between atoms: O_27  and  C_37
   22  A    between atoms: C_29  and  N_43
   23  A    between atoms: O_33  and  C_55
   24  A    between atoms: C_37  and  C_41
   25  A    between atoms: C_40  and  C_44
                            x       y       z     vdW  Elec       q    Type
                         _______ _______ _______ _____ _____    ______ ____

>  <TORSDO>
F 25

$$$$
=
 OpenBabel10232408563D

 56 61  0  0  1  0  0  0  0  0999 V2000
  185.0000  178.7910  142.9460 C   0  0  2  0  0  3  0  0  0  0  0  0
  186.2590  178.1480  142.3990 C   0  0  0  0  0  2  0  0  0  0  0  0
  186.7180  178.8980  141.1610 C   0  0  0  0  0  2  0  0  0  0  0  0
  185.6300  179.1030  140.2690 O   0  0  0  0  0  0  0  0  0  0  0  0
  185.1900  177.1800  136.5640 C   0  0  0  0  0  3  0  0  0  0  0  0
  184.2340  178.1630  138.5530 C   0  0  0  0  0  3  0  0  0  0  0  0
  186.4730  177.4720  137.0360 C   0  0  0  0  0  3  0  0  0  0  0  0
  186.6340  178.1100  138.2680 C   0  0  0  0  0  3  0  0  0  0  0  0
  184.0530  177.5270  137.3170 C   0  0  0  0  0  0  0  0  0  0  0  0
  185.5110  178.4600  139.0340 C   0  0  0  0  0  0  0  0  0  0  0  0
  181.8310  178.1730  136.5630 C   0  0  0  0  0  2  0  0  0  0  0  0
  182.6870  177.1880  136.8400 C   0  0  0  0  0  0  0  0  0  0  0  0
  181.5590  173.8400  135.5780 N   0  0  2  0  0  0  0  0  0  0  0  0
  181.8170  175.2810  135.3780 C   0  0  2  0  0  3  0  0  0  0  0  0
  182.2740  175.8180  136.6440 N   0  0  0  0  0  0  0  0  0  0  0  0
  180.4430  174.7970  135.4870 C   0  0  0  0  0  2  0  0  0  0  0  0
  181.8020  173.5620  136.9960 C   0  0  0  0  0  2  0  0  0  0  0  0
  182.4310  174.7800  137.6360 C   0  0  0  0  0  2  0  0  0  0  0  0
  185.0760  178.8550  144.4610 C   0  0  0  0  0  2  0  0  0  0  0  0
  185.9980  177.8770  144.9180 O   0  0  0  0  0  0  0  0  0  0  0  0
  185.7150  178.3810  147.1340 O   0  0  0  0  0  0  0  0  0  0  0  0
  186.4220  177.8340  146.2500 C   0  0  0  0  0  0  0  0  0  0  0  0
  187.6400  177.0570  146.6520 C   0  0  2  0  0  3  0  0  0  0  0  0
  188.1390  177.5940  147.9910 C   0  0  0  0  0  1  0  0  0  0  0  0
  188.6270  177.1800  145.6630 O   0  0  0  0  0  0  0  0  0  0  0  0
  189.0990  178.4990  145.7190 C   0  0  0  0  0  2  0  0  0  0  0  0
  191.4000  176.2200  145.3170 C   0  0  1  0  0  3  0  0  0  0  0  0
  191.0530  176.7670  141.5630 C   0  0  2  0  0  3  0  0  0  0  0  0
  191.7490  174.3730  143.8130 O   0  0  0  0  0  1  0  0  0  0  0  0
  191.5310  177.7480  145.5120 C   0  0  0  0  0  2  0  0  0  0  0  0
  191.7770  175.7700  143.8910 C   0  0  1  0  0  3  0  0  0  0  0  0
  190.1360  178.5390  143.3900 C   0  0  0  0  0  2  0  0  0  0  0  0
  190.3870  178.6100  144.9170 C   0  0  1  0  0  3  0  0  0  0  0  0
  190.7300  176.3380  142.9720 C   0  0  1  0  0  3  0  0  0  0  0  0
  191.2380  177.7440  142.7180 C   0  0  1  0  0  3  0  0  0  0  0  0
  192.2130  175.5700  146.2500 O   0  0  0  0  0  0  0  0  0  0  0  0
  191.8620  176.1240  147.4810 C   0  0  0  0  0  1  0  0  0  0  0  0
  189.7500  176.9900  140.8070 C   0  0  0  0  0  2  0  0  0  0  0  0
  189.8420  176.4900  139.3780 C   0  0  0  0  0  2  0  0  0  0  0  0
  191.1600  176.7840  138.8450 N   0  0  0  0  0  2  0  0  0  0  0  0
  191.5760  175.6220  138.0790 C   0  0  0  0  0  2  0  0  0  0  0  0
  190.3710  175.0290  137.3750 C   0  0  0  0  0  2  0  0  0  0  0  0
  190.8850  176.3370  135.3140 O   0  0  0  0  0  1  0  0  0  0  0  0
  190.5470  175.1240  135.9010 C   0  0  0  0  0  0  0  0  0  0  0  0
  190.4040  174.0980  135.1850 O   0  0  0  0  0  0  0  0  0  0  0  0
  183.8590  178.0380  142.5370 O   0  0  0  0  0  0  0  0  0  0  0  0
  182.5740  178.5840  142.4520 C   0  0  0  0  0  0  0  0  0  0  0  0
  180.0190  179.7090  142.2180 C   0  0  0  0  0  3  0  0  0  0  0  0
  180.5230  179.3740  143.4770 C   0  0  0  0  0  3  0  0  0  0  0  0
  181.7950  178.8150  143.5950 C   0  0  0  0  0  3  0  0  0  0  0  0
  182.0620  178.9150  141.1930 C   0  0  0  0  0  3  0  0  0  0  0  0
  180.7830  179.4820  141.0670 C   0  0  0  0  0  0  0  0  0  0  0  0
  180.2610  179.8460  139.8240 O   0  0  0  0  0  0  0  0  0  0  0  0
  180.2420  181.1900  139.3650 C   0  0  0  0  0  2  0  0  0  0  0  0
  181.2160  182.7710  137.6920 C   0  0  0  0  0  1  0  0  0  0  0  0
  181.3470  181.4060  138.3430 C   0  0  0  0  0  2  0  0  0  0  0  0
  1  2  1  1  0  0  0
  1 19  1  0  0  0  0
  3  2  1  0  0  0  0
  4  3  1  0  0  0  0
  5  7  2  0  0  0  0
  5  9  1  0  0  0  0
  6 10  1  0  0  0  0
  7  8  1  0  0  0  0
  8 10  2  0  0  0  0
  9  6  2  0  0  0  0
 10  4  1  0  0  0  0
 11 12  2  0  0  0  0
 12  9  1  0  0  0  0
 13 16  1  1  0  0  0
 13 17  1  0  0  0  0
 14 16  1  1  0  0  0
 14 13  1  0  0  0  0
 14 15  1  0  0  0  0
 15 12  1  0  0  0  0
 15 18  1  0  0  0  0
 17 18  1  0  0  0  0
 19 20  1  0  0  0  0
 20 22  1  0  0  0  0
 22 23  1  0  0  0  0
 22 21  2  0  0  0  0
 23 24  1  1  0  0  0
 25 26  1  0  0  0  0
 25 23  1  0  0  0  0
 27 30  1  0  0  0  0
 27 36  1  1  0  0  0
 28 38  1  6  0  0  0
 28 35  1  0  0  0  0
 28 34  1  0  0  0  0
 31 29  1  1  0  0  0
 31 27  1  0  0  0  0
 32 33  1  0  0  0  0
 33 30  1  0  0  0  0
 33 26  1  1  0  0  0
 34 31  1  0  0  0  0
 35 34  1  0  0  0  0
 35 32  1  0  0  0  0
 36 37  1  0  0  0  0
 39 38  1  0  0  0  0
 40 39  1  0  0  0  0
 41 40  1  0  0  0  0
 42 41  1  0  0  0  0
 43 44  1  0  0  0  0
 44 42  1  0  0  0  0
 45 44  2  0  0  0  0
 46  1  1  0  0  0  0
 47 46  1  0  0  0  0
 47 50  1  0  0  0  0
 48 49  1  0  0  0  0
 49 50  2  0  0  0  0
 51 47  2  0  0  0  0
 52 51  1  0  0  0  0
 52 48  2  0  0  0  0
 53 52  1  0  0  0  0
 54 53  1  0  0  0  0
 55 56  1  0  0  0  0
 56 54  1  0  0  0  0
M  END
>  <MODEL>
4

>  <REMARK>
 VINA RESULT:      -6.6      2.343      8.234
  Name = 
  25 active torsions:
  status: ('A' for Active; 'I' for Inactive)
    1  A    between atoms: C_1  and  O_5
    2  A    between atoms: C_3  and  C_30
    3  A    between atoms: C_6  and  C_28
    4  A    between atoms: C_6  and  C_45
    5  A    between atoms: O_8  and  C_18
    6  A    between atoms: O_8  and  C_51
    7  A    between atoms: C_9  and  O_22
    8  A    between atoms: C_11  and  C_30
    9  A    between atoms: C_11  and  N_43
   10  A    between atoms: C_13  and  O_33
   11  A    between atoms: C_13  and  C_45
   12  A    between atoms: C_15  and  C_25
   13  A    between atoms: O_16  and  C_28
   14  A    between atoms: O_16  and  C_47
   15  A    between atoms: C_18  and  C_49
   16  A    between atoms: C_21  and  O_27
   17  A    between atoms: C_21  and  C_55
   18  A    between atoms: O_22  and  C_45
   19  A    between atoms: C_25  and  C_29
   20  A    between atoms: N_26  and  C_44
   21  A    between atoms: O_27  and  C_37
   22  A    between atoms: C_29  and  N_43
   23  A    between atoms: O_33  and  C_55
   24  A    between atoms: C_37  and  C_41
   25  A    between atoms: C_40  and  C_44
                            x       y       z     vdW  Elec       q    Type
                         _______ _______ _______ _____ _____    ______ ____

>  <TORSDO>
F 25

$$$$
=
 OpenBabel10232408563D

 56 61  0  0  1  0  0  0  0  0999 V2000
  189.4070  177.2510  141.5580 C   0  0  2  0  0  3  0  0  0  0  0  0
  190.4130  176.6500  140.5960 C   0  0  0  0  0  2  0  0  0  0  0  0
  191.7710  177.2960  140.8100 C   0  0  0  0  0  2  0  0  0  0  0  0
  192.4090  177.5410  139.5630 O   0  0  0  0  0  0  0  0  0  0  0  0
  192.3540  174.8320  136.3560 C   0  0  0  0  0  3  0  0  0  0  0  0
  193.4030  175.7260  138.3400 C   0  0  0  0  0  3  0  0  0  0  0  0
  191.3120  175.7540  136.4920 C   0  0  0  0  0  3  0  0  0  0  0  0
  191.3190  176.6630  137.5530 C   0  0  0  0  0  3  0  0  0  0  0  0
  193.4110  174.8040  137.2840 C   0  0  0  0  0  0  0  0  0  0  0  0
  192.3690  176.6520  138.4850 C   0  0  0  0  0  0  0  0  0  0  0  0
  194.2840  172.5870  136.7880 C   0  0  0  0  0  2  0  0  0  0  0  0
  194.5410  173.8510  137.1280 C   0  0  0  0  0  0  0  0  0  0  0  0
  197.9630  175.3810  136.9650 N   0  0  2  0  0  0  0  0  0  0  0  0
  196.6230  175.1390  136.3920 C   0  0  2  0  0  3  0  0  0  0  0  0
  195.9120  174.2690  137.3080 N   0  0  0  0  0  0  0  0  0  0  0  0
  197.7860  174.4580  135.8300 C   0  0  0  0  0  2  0  0  0  0  0  0
  198.0480  174.5790  138.1890 C   0  0  0  0  0  2  0  0  0  0  0  0
  196.6800  174.0150  138.5040 C   0  0  0  0  0  2  0  0  0  0  0  0
  188.5570  178.2780  140.8330 C   0  0  0  0  0  2  0  0  0  0  0  0
  189.1610  178.5770  139.5830 O   0  0  0  0  0  0  0  0  0  0  0  0
  188.7630  179.4770  137.5150 O   0  0  0  0  0  0  0  0  0  0  0  0
  188.4090  178.6640  138.4070 C   0  0  0  0  0  0  0  0  0  0  0  0
  187.2620  177.7340  138.1480 C   0  0  2  0  0  3  0  0  0  0  0  0
  187.2940  177.3220  136.6780 C   0  0  0  0  0  1  0  0  0  0  0  0
  186.0540  178.3740  138.4630 O   0  0  0  0  0  0  0  0  0  0  0  0
  185.0670  177.8080  137.6450 C   0  0  0  0  0  2  0  0  0  0  0  0
  182.0060  178.9120  137.3930 C   0  0  1  0  0  3  0  0  0  0  0  0
  180.8830  175.2750  137.2360 C   0  0  2  0  0  3  0  0  0  0  0  0
  180.0670  178.3250  136.0930 O   0  0  0  0  0  1  0  0  0  0  0  0
  182.8480  178.5810  138.6470 C   0  0  0  0  0  2  0  0  0  0  0  0
  180.8560  177.9090  137.1700 C   0  0  1  0  0  3  0  0  0  0  0  0
  183.3230  176.0130  138.1390 C   0  0  0  0  0  2  0  0  0  0  0  0
  183.8660  177.4210  138.4950 C   0  0  1  0  0  3  0  0  0  0  0  0
  181.4990  176.5900  136.8310 C   0  0  1  0  0  3  0  0  0  0  0  0
  181.8080  176.0110  138.1980 C   0  0  1  0  0  3  0  0  0  0  0  0
  181.4890  180.2040  137.5180 O   0  0  0  0  0  0  0  0  0  0  0  0
  182.2070  180.7780  138.5680 C   0  0  0  0  0  1  0  0  0  0  0  0
  181.5850  174.1520  136.4860 C   0  0  0  0  0  2  0  0  0  0  0  0
  181.2400  172.7940  137.0640 C   0  0  0  0  0  2  0  0  0  0  0  0
  181.7440  171.7510  136.1880 N   0  0  0  0  0  2  0  0  0  0  0  0
  183.0580  172.1770  135.7340 C   0  0  0  0  0  2  0  0  0  0  0  0
  184.0940  171.7920  136.7720 C   0  0  0  0  0  2  0  0  0  0  0  0
  185.9610  172.8850  138.0140 O   0  0  0  0  0  1  0  0  0  0  0  0
  185.0740  172.8990  136.9450 C   0  0  0  0  0  0  0  0  0  0  0  0
  185.1070  173.8430  136.1120 O   0  0  0  0  0  0  0  0  0  0  0  0
  190.0930  177.8580  142.6530 O   0  0  0  0  0  0  0  0  0  0  0  0
  189.7460  177.6340  143.9890 C   0  0  0  0  0  0  0  0  0  0  0  0
  188.9910  177.2270  146.6560 C   0  0  0  0  0  3  0  0  0  0  0  0
  190.3390  177.1740  146.2960 C   0  0  0  0  0  3  0  0  0  0  0  0
  190.7170  177.3790  144.9690 C   0  0  0  0  0  3  0  0  0  0  0  0
  188.3970  177.6780  144.3540 C   0  0  0  0  0  3  0  0  0  0  0  0
  188.0100  177.4770  145.6890 C   0  0  0  0  0  0  0  0  0  0  0  0
  186.6710  177.5430  146.0830 O   0  0  0  0  0  0  0  0  0  0  0  0
  185.9620  178.7700  146.1850 C   0  0  0  0  0  2  0  0  0  0  0  0
  184.8770  179.1760  143.9710 C   0  0  0  0  0  1  0  0  0  0  0  0
  184.6670  178.6890  145.3930 C   0  0  0  0  0  2  0  0  0  0  0  0
  1  2  1  6  0  0  0
  1 46  1  0  0  0  0
  2  3  1  0  0  0  0
  4  3  1  0  0  0  0
  5  7  2  0  0  0  0
  5  9  1  0  0  0  0
  6 10  1  0  0  0  0
  7  8  1  0  0  0  0
  8 10  2  0  0  0  0
  9  6  2  0  0  0  0
 10  4  1  0  0  0  0
 11 12  2  0  0  0  0
 12  9  1  0  0  0  0
 12 15  1  0  0  0  0
 13 16  1  6  0  0  0
 13 17  1  0  0  0  0
 14 16  1  6  0  0  0
 14 13  1  0  0  0  0
 14 15  1  0  0  0  0
 15 18  1  0  0  0  0
 17 18  1  0  0  0  0
 19  1  1  0  0  0  0
 20 19  1  0  0  0  0
 21 22  2  0  0  0  0
 22 20  1  0  0  0  0
 23 24  1  6  0  0  0
 23 22  1  0  0  0  0
 23 25  1  0  0  0  0
 26 25  1  0  0  0  0
 27 36  1  1  0  0  0
 27 30  1  0  0  0  0
 28 38  1  6  0  0  0
 28 35  1  0  0  0  0
 31 29  1  6  0  0  0
 31 27  1  0  0  0  0
 32 35  1  0  0  0  0
 32 33  1  0  0  0  0
 33 26  1  6  0  0  0
 33 30  1  0  0  0  0
 34 31  1  0  0  0  0
 34 28  1  0  0  0  0
 34 35  1  0  0  0  0
 36 37  1  0  0  0  0
 38 39  1  0  0  0  0
 40 39  1  0  0  0  0
 41 40  1  0  0  0  0
 41 42  1  0  0  0  0
 42 44  1  0  0  0  0
 44 43  1  0  0  0  0
 45 44  2  0  0  0  0
 46 47  1  0  0  0  0
 47 51  2  0  0  0  0
 47 50  1  0  0  0  0
 49 48  1  0  0  0  0
 50 49  2  0  0  0  0
 51 52  1  0  0  0  0
 52 53  1  0  0  0  0
 52 48  2  0  0  0  0
 53 54  1  0  0  0  0
 55 56  1  0  0  0  0
 56 54  1  0  0  0  0
M  END
>  <MODEL>
5

>  <REMARK>
 VINA RESULT:      -6.4      2.893      8.144
  Name = 
  25 active torsions:
  status: ('A' for Active; 'I' for Inactive)
    1  A    between atoms: C_1  and  O_5
    2  A    between atoms: C_3  and  C_30
    3  A    between atoms: C_6  and  C_28
    4  A    between atoms: C_6  and  C_45
    5  A    between atoms: O_8  and  C_18
    6  A    between atoms: O_8  and  C_51
    7  A    between atoms: C_9  and  O_22
    8  A    between atoms: C_11  and  C_30
    9  A    between atoms: C_11  and  N_43
   10  A    between atoms: C_13  and  O_33
   11  A    between atoms: C_13  and  C_45
   12  A    between atoms: C_15  and  C_25
   13  A    between atoms: O_16  and  C_28
   14  A    between atoms: O_16  and  C_47
   15  A    between atoms: C_18  and  C_49
   16  A    between atoms: C_21  and  O_27
   17  A    between atoms: C_21  and  C_55
   18  A    between atoms: O_22  and  C_45
   19  A    between atoms: C_25  and  C_29
   20  A    between atoms: N_26  and  C_44
   21  A    between atoms: O_27  and  C_37
   22  A    between atoms: C_29  and  N_43
   23  A    between atoms: O_33  and  C_55
   24  A    between atoms: C_37  and  C_41
   25  A    between atoms: C_40  and  C_44
                            x       y       z     vdW  Elec       q    Type
                         _______ _______ _______ _____ _____    ______ ____

>  <TORSDO>
F 25

$$$$
=
 OpenBabel10232408563D

 56 61  0  0  1  0  0  0  0  0999 V2000
  190.0560  176.9600  140.5490 C   0  0  2  0  0  3  0  0  0  0  0  0
  191.0290  176.6920  139.4180 C   0  0  0  0  0  2  0  0  0  0  0  0
  192.3920  177.2560  139.7750 C   0  0  0  0  0  2  0  0  0  0  0  0
  193.3250  177.0050  138.7310 O   0  0  0  0  0  0  0  0  0  0  0  0
  192.9820  173.8570  135.9750 C   0  0  0  0  0  3  0  0  0  0  0  0
  194.2210  175.0380  137.6800 C   0  0  0  0  0  3  0  0  0  0  0  0
  191.9410  174.7820  136.0920 C   0  0  0  0  0  3  0  0  0  0  0  0
  192.0420  175.8360  137.0030 C   0  0  0  0  0  3  0  0  0  0  0  0
  194.1350  173.9720  136.7740 C   0  0  0  0  0  0  0  0  0  0  0  0
  193.1880  175.9680  137.8040 C   0  0  0  0  0  0  0  0  0  0  0  0
  194.9970  171.7220  136.4260 C   0  0  0  0  0  2  0  0  0  0  0  0
  195.2620  173.0130  136.6310 C   0  0  0  0  0  0  0  0  0  0  0  0
  198.8220  173.8350  137.4850 N   0  0  2  0  0  0  0  0  0  0  0  0
  197.4790  173.3460  137.8590 C   0  0  2  0  0  3  0  0  0  0  0  0
  196.6370  173.4520  136.6840 N   0  0  0  0  0  0  0  0  0  0  0  0
  197.9190  174.6660  138.3000 C   0  0  0  0  0  2  0  0  0  0  0  0
  198.7290  174.2960  136.0970 C   0  0  0  0  0  2  0  0  0  0  0  0
  197.3880  173.8860  135.5290 C   0  0  0  0  0  2  0  0  0  0  0  0
  188.8440  177.7020  140.0170 C   0  0  0  0  0  2  0  0  0  0  0  0
  189.2380  178.4880  138.9020 O   0  0  0  0  0  0  0  0  0  0  0  0
  188.2230  179.5480  137.1440 O   0  0  0  0  0  0  0  0  0  0  0  0
  188.5270  178.4610  137.6970 C   0  0  0  0  0  0  0  0  0  0  0  0
  188.2200  177.1660  137.0060 C   0  0  2  0  0  3  0  0  0  0  0  0
  189.0440  177.0940  135.7220 C   0  0  0  0  0  1  0  0  0  0  0  0
  186.8480  177.0930  136.7250 O   0  0  0  0  0  0  0  0  0  0  0  0
  186.1720  177.4970  137.8850 C   0  0  0  0  0  2  0  0  0  0  0  0
  183.4160  175.8620  137.2720 C   0  0  1  0  0  3  0  0  0  0  0  0
  181.7120  178.0980  139.8430 C   0  0  2  0  0  3  0  0  0  0  0  0
  181.6060  174.9820  138.5940 O   0  0  0  0  0  1  0  0  0  0  0  0
  184.0040  177.1190  136.5910 C   0  0  0  0  0  2  0  0  0  0  0  0
  182.1520  176.1720  138.1000 C   0  0  1  0  0  3  0  0  0  0  0  0
  184.0920  178.7170  138.7160 C   0  0  0  0  0  2  0  0  0  0  0  0
  184.8150  178.0720  137.5070 C   0  0  1  0  0  3  0  0  0  0  0  0
  182.5970  177.0290  139.2550 C   0  0  1  0  0  3  0  0  0  0  0  0
  182.6070  178.4200  138.6510 C   0  0  1  0  0  3  0  0  0  0  0  0
  183.1190  174.9090  136.2940 O   0  0  0  0  0  0  0  0  0  0  0  0
  184.1460  173.9690  136.3840 C   0  0  0  0  0  1  0  0  0  0  0  0
  182.3070  178.5550  141.1670 C   0  0  0  0  0  2  0  0  0  0  0  0
  181.2290  178.8280  142.1980 C   0  0  0  0  0  2  0  0  0  0  0  0
  181.7980  179.5720  143.3080 N   0  0  0  0  0  2  0  0  0  0  0  0
  182.8770  178.7650  143.8510 C   0  0  0  0  0  2  0  0  0  0  0  0
  184.1120  179.6280  144.0170 C   0  0  0  0  0  2  0  0  0  0  0  0
  185.9170  177.9650  143.5690 O   0  0  0  0  0  1  0  0  0  0  0  0
  185.2180  179.0980  143.1740 C   0  0  0  0  0  0  0  0  0  0  0  0
  185.5100  179.6700  142.0910 O   0  0  0  0  0  0  0  0  0  0  0  0
  190.7000  177.7260  141.5660 O   0  0  0  0  0  0  0  0  0  0  0  0
  190.7140  177.3500  142.9130 C   0  0  0  0  0  0  0  0  0  0  0  0
  190.7080  176.6610  145.6280 C   0  0  0  0  0  3  0  0  0  0  0  0
  191.6690  176.1200  144.7730 C   0  0  0  0  0  3  0  0  0  0  0  0
  191.6750  176.4640  143.4210 C   0  0  0  0  0  3  0  0  0  0  0  0
  189.7480  177.8820  143.7730 C   0  0  0  0  0  3  0  0  0  0  0  0
  189.7390  177.5440  145.1360 C   0  0  0  0  0  0  0  0  0  0  0  0
  188.8020  178.0840  146.0200 O   0  0  0  0  0  0  0  0  0  0  0  0
  188.9280  177.9760  147.4310 C   0  0  0  0  0  2  0  0  0  0  0  0
  186.5030  178.4450  147.0580 C   0  0  0  0  0  1  0  0  0  0  0  0
  187.5600  178.0820  148.0850 C   0  0  0  0  0  2  0  0  0  0  0  0
  1  2  1  6  0  0  0
  1 46  1  0  0  0  0
  2  3  1  0  0  0  0
  4  3  1  0  0  0  0
  5  7  2  0  0  0  0
  5  9  1  0  0  0  0
  6 10  1  0  0  0  0
  7  8  1  0  0  0  0
  8 10  2  0  0  0  0
  9  6  2  0  0  0  0
 10  4  1  0  0  0  0
 11 12  2  0  0  0  0
 12 15  1  0  0  0  0
 12  9  1  0  0  0  0
 13 17  1  6  0  0  0
 13 14  1  0  0  0  0
 13 16  1  0  0  0  0
 14 16  1  1  0  0  0
 15 14  1  0  0  0  0
 18 17  1  0  0  0  0
 18 15  1  0  0  0  0
 19  1  1  0  0  0  0
 20 19  1  0  0  0  0
 21 22  2  0  0  0  0
 22 20  1  0  0  0  0
 23 24  1  6  0  0  0
 23 22  1  0  0  0  0
 25 23  1  0  0  0  0
 25 26  1  0  0  0  0
 27 36  1  6  0  0  0
 27 31  1  0  0  0  0
 28 38  1  1  0  0  0
 30 27  1  0  0  0  0
 30 33  1  0  0  0  0
 31 29  1  1  0  0  0
 31 34  1  0  0  0  0
 33 26  1  1  0  0  0
 33 32  1  0  0  0  0
 34 28  1  0  0  0  0
 35 32  1  0  0  0  0
 35 34  1  0  0  0  0
 35 28  1  0  0  0  0
 36 37  1  0  0  0  0
 38 39  1  0  0  0  0
 39 40  1  0  0  0  0
 40 41  1  0  0  0  0
 41 42  1  0  0  0  0
 44 43  1  0  0  0  0
 44 42  1  0  0  0  0
 45 44  2  0  0  0  0
 46 47  1  0  0  0  0
 47 50  2  0  0  0  0
 47 51  1  0  0  0  0
 49 48  2  0  0  0  0
 50 49  1  0  0  0  0
 51 52  2  0  0  0  0
 52 48  1  0  0  0  0
 52 53  1  0  0  0  0
 53 54  1  0  0  0  0
 54 56  1  0  0  0  0
 55 56  1  0  0  0  0
M  END
>  <MODEL>
6

>  <REMARK>
 VINA RESULT:      -6.1      3.375      9.143
  Name = 
  25 active torsions:
  status: ('A' for Active; 'I' for Inactive)
    1  A    between atoms: C_1  and  O_5
    2  A    between atoms: C_3  and  C_30
    3  A    between atoms: C_6  and  C_28
    4  A    between atoms: C_6  and  C_45
    5  A    between atoms: O_8  and  C_18
    6  A    between atoms: O_8  and  C_51
    7  A    between atoms: C_9  and  O_22
    8  A    between atoms: C_11  and  C_30
    9  A    between atoms: C_11  and  N_43
   10  A    between atoms: C_13  and  O_33
   11  A    between atoms: C_13  and  C_45
   12  A    between atoms: C_15  and  C_25
   13  A    between atoms: O_16  and  C_28
   14  A    between atoms: O_16  and  C_47
   15  A    between atoms: C_18  and  C_49
   16  A    between atoms: C_21  and  O_27
   17  A    between atoms: C_21  and  C_55
   18  A    between atoms: O_22  and  C_45
   19  A    between atoms: C_25  and  C_29
   20  A    between atoms: N_26  and  C_44
   21  A    between atoms: O_27  and  C_37
   22  A    between atoms: C_29  and  N_43
   23  A    between atoms: O_33  and  C_55
   24  A    between atoms: C_37  and  C_41
   25  A    between atoms: C_40  and  C_44
                            x       y       z     vdW  Elec       q    Type
                         _______ _______ _______ _____ _____    ______ ____

>  <TORSDO>
F 25

$$$$
=
 OpenBabel10232408563D

 56 61  0  0  1  0  0  0  0  0999 V2000
  188.8900  177.4840  141.4850 C   0  0  2  0  0  3  0  0  0  0  0  0
  189.6880  176.9510  140.3110 C   0  0  0  0  0  2  0  0  0  0  0  0
  189.6660  177.9620  139.1790 C   0  0  0  0  0  2  0  0  0  0  0  0
  189.5040  177.3070  137.9270 O   0  0  0  0  0  0  0  0  0  0  0  0
  191.9020  174.0850  136.7040 C   0  0  0  0  0  3  0  0  0  0  0  0
  191.6430  176.4160  137.2860 C   0  0  0  0  0  3  0  0  0  0  0  0
  190.5390  173.8770  136.9340 C   0  0  0  0  0  3  0  0  0  0  0  0
  189.7290  174.9400  137.3390 C   0  0  0  0  0  3  0  0  0  0  0  0
  192.4710  175.3590  136.8830 C   0  0  0  0  0  0  0  0  0  0  0  0
  190.2800  176.2190  137.5180 C   0  0  0  0  0  0  0  0  0  0  0  0
  194.2760  176.7120  135.9670 C   0  0  0  0  0  2  0  0  0  0  0  0
  193.9120  175.5990  136.6060 C   0  0  0  0  0  0  0  0  0  0  0  0
  196.0980  173.1040  138.3600 N   0  0  2  0  0  0  0  0  0  0  0  0
  194.9460  174.0300  138.3380 C   0  0  2  0  0  3  0  0  0  0  0  0
  194.9290  174.6680  137.0370 N   0  0  0  0  0  0  0  0  0  0  0  0
  196.1540  174.3910  139.0750 C   0  0  0  0  0  2  0  0  0  0  0  0
  196.7940  173.2690  137.0800 C   0  0  0  0  0  2  0  0  0  0  0  0
  195.9480  174.1290  136.1670 C   0  0  0  0  0  2  0  0  0  0  0  0
  187.8000  178.4130  140.9820 C   0  0  0  0  0  2  0  0  0  0  0  0
  186.6520  178.2620  141.8030 O   0  0  0  0  0  0  0  0  0  0  0  0
  185.2460  179.5590  140.5430 O   0  0  0  0  0  0  0  0  0  0  0  0
  185.5440  179.1080  141.6780 C   0  0  0  0  0  0  0  0  0  0  0  0
  184.6510  179.3940  142.8480 C   0  0  2  0  0  3  0  0  0  0  0  0
  184.7830  178.2500  143.8500 C   0  0  0  0  0  1  0  0  0  0  0  0
  183.3250  179.5260  142.4090 O   0  0  0  0  0  0  0  0  0  0  0  0
  182.9680  178.3060  141.8180 C   0  0  0  0  0  2  0  0  0  0  0  0
  182.1520  179.5480  138.9130 C   0  0  1  0  0  3  0  0  0  0  0  0
  180.2840  176.2980  138.2330 C   0  0  2  0  0  3  0  0  0  0  0  0
  182.0130  178.7100  136.6610 O   0  0  0  0  0  1  0  0  0  0  0  0
  181.4370  179.6540  140.2800 C   0  0  0  0  0  2  0  0  0  0  0  0
  181.3780  178.6720  137.9060 C   0  0  1  0  0  3  0  0  0  0  0  0
  181.0330  177.0610  140.7180 C   0  0  0  0  0  2  0  0  0  0  0  0
  181.5760  178.4250  141.2160 C   0  0  1  0  0  3  0  0  0  0  0  0
  181.4210  177.2660  138.4410 C   0  0  1  0  0  3  0  0  0  0  0  0
  180.2660  177.2490  139.4240 C   0  0  1  0  0  3  0  0  0  0  0  0
  182.3250  180.8320  138.3880 O   0  0  0  0  0  0  0  0  0  0  0  0
  181.0530  181.4040  138.4120 C   0  0  0  0  0  1  0  0  0  0  0  0
  180.7570  174.8990  138.6040 C   0  0  0  0  0  2  0  0  0  0  0  0
  181.1030  174.0820  137.3740 C   0  0  0  0  0  2  0  0  0  0  0  0
  180.7560  172.6910  137.6020 N   0  0  0  0  0  2  0  0  0  0  0  0
  181.5190  171.9020  136.6490 C   0  0  0  0  0  2  0  0  0  0  0  0
  182.9910  171.9760  137.0030 C   0  0  0  0  0  2  0  0  0  0  0  0
  184.8090  171.4880  135.3670 O   0  0  0  0  0  0  0  0  0  0  0  0
  183.7640  171.0270  136.1570 C   0  0  0  0  0  0  0  0  0  0  0  0
  183.4800  169.8010  136.1700 O   0  0  0  0  0  1  0  0  0  0  0  0
  189.7590  178.1750  142.3810 O   0  0  0  0  0  0  0  0  0  0  0  0
  190.0540  177.7130  143.6680 C   0  0  0  0  0  0  0  0  0  0  0  0
  190.5830  176.8180  146.2690 C   0  0  0  0  0  3  0  0  0  0  0  0
  191.6340  177.0160  145.3710 C   0  0  0  0  0  3  0  0  0  0  0  0
  191.3720  177.4630  144.0760 C   0  0  0  0  0  3  0  0  0  0  0  0
  189.0050  177.5050  144.5680 C   0  0  0  0  0  3  0  0  0  0  0  0
  189.2620  177.0590  145.8750 C   0  0  0  0  0  0  0  0  0  0  0  0
  188.2330  176.8700  146.8020 O   0  0  0  0  0  0  0  0  0  0  0  0
  187.1010  177.7260  146.8740 C   0  0  0  0  0  2  0  0  0  0  0  0
  188.3310  178.2810  148.9770 C   0  0  0  0  0  1  0  0  0  0  0  0
  187.3010  178.7590  147.9710 C   0  0  0  0  0  2  0  0  0  0  0  0
  1  2  1  6  0  0  0
  1 46  1  0  0  0  0
  3  2  1  0  0  0  0
  4  3  1  0  0  0  0
  5  9  2  0  0  0  0
  5  7  1  0  0  0  0
  6 10  2  0  0  0  0
  7  8  2  0  0  0  0
  8 10  1  0  0  0  0
  9  6  1  0  0  0  0
 10  4  1  0  0  0  0
 11 12  2  0  0  0  0
 12  9  1  0  0  0  0
 12 15  1  0  0  0  0
 13 17  1  6  0  0  0
 13 16  1  0  0  0  0
 14 13  1  0  0  0  0
 14 16  1  1  0  0  0
 15 14  1  0  0  0  0
 18 15  1  0  0  0  0
 18 17  1  0  0  0  0
 19  1  1  0  0  0  0
 19 20  1  0  0  0  0
 21 22  2  0  0  0  0
 22 20  1  0  0  0  0
 22 23  1  0  0  0  0
 23 24  1  1  0  0  0
 25 23  1  0  0  0  0
 26 25  1  0  0  0  0
 27 36  1  6  0  0  0
 27 30  1  0  0  0  0
 28 34  1  0  0  0  0
 28 38  1  1  0  0  0
 28 35  1  0  0  0  0
 30 33  1  0  0  0  0
 31 29  1  6  0  0  0
 31 34  1  0  0  0  0
 31 27  1  0  0  0  0
 32 33  1  0  0  0  0
 33 26  1  6  0  0  0
 34 35  1  0  0  0  0
 35 32  1  0  0  0  0
 36 37  1  0  0  0  0
 39 40  1  0  0  0  0
 39 38  1  0  0  0  0
 41 42  1  0  0  0  0
 41 40  1  0  0  0  0
 43 44  2  0  0  0  0
 44 45  1  0  0  0  0
 44 42  1  0  0  0  0
 46 47  1  0  0  0  0
 47 50  2  0  0  0  0
 47 51  1  0  0  0  0
 49 48  2  0  0  0  0
 50 49  1  0  0  0  0
 51 52  2  0  0  0  0
 52 48  1  0  0  0  0
 52 53  1  0  0  0  0
 53 54  1  0  0  0  0
 54 56  1  0  0  0  0
 56 55  1  0  0  0  0
M  END
>  <MODEL>
7

>  <REMARK>
 VINA RESULT:      -6.0      2.645      8.682
  Name = 
  25 active torsions:
  status: ('A' for Active; 'I' for Inactive)
    1  A    between atoms: C_1  and  O_5
    2  A    between atoms: C_3  and  C_30
    3  A    between atoms: C_6  and  C_28
    4  A    between atoms: C_6  and  C_45
    5  A    between atoms: O_8  and  C_18
    6  A    between atoms: O_8  and  C_51
    7  A    between atoms: C_9  and  O_22
    8  A    between atoms: C_11  and  C_30
    9  A    between atoms: C_11  and  N_43
   10  A    between atoms: C_13  and  O_33
   11  A    between atoms: C_13  and  C_45
   12  A    between atoms: C_15  and  C_25
   13  A    between atoms: O_16  and  C_28
   14  A    between atoms: O_16  and  C_47
   15  A    between atoms: C_18  and  C_49
   16  A    between atoms: C_21  and  O_27
   17  A    between atoms: C_21  and  C_55
   18  A    between atoms: O_22  and  C_45
   19  A    between atoms: C_25  and  C_29
   20  A    between atoms: N_26  and  C_44
   21  A    between atoms: O_27  and  C_37
   22  A    between atoms: C_29  and  N_43
   23  A    between atoms: O_33  and  C_55
   24  A    between atoms: C_37  and  C_41
   25  A    between atoms: C_40  and  C_44
                            x       y       z     vdW  Elec       q    Type
                         _______ _______ _______ _____ _____    ______ ____

>  <TORSDO>
F 25

$$$$
=
 OpenBabel10232408563D

 56 61  0  0  1  0  0  0  0  0999 V2000
  185.0220  178.4730  142.1230 C   0  0  2  0  0  3  0  0  0  0  0  0
  184.8130  179.5160  143.2040 C   0  0  0  0  0  2  0  0  0  0  0  0
  184.4420  178.8310  144.5080 C   0  0  0  0  0  2  0  0  0  0  0  0
  185.3690  177.7960  144.8090 O   0  0  0  0  0  0  0  0  0  0  0  0
  188.6270  178.2460  147.4180 C   0  0  0  0  0  3  0  0  0  0  0  0
  187.7370  177.7830  145.2210 C   0  0  0  0  0  3  0  0  0  0  0  0
  187.3290  178.4140  147.9080 C   0  0  0  0  0  3  0  0  0  0  0  0
  186.2350  178.2650  147.0520 C   0  0  0  0  0  3  0  0  0  0  0  0
  188.8460  177.9330  146.0650 C   0  0  0  0  0  0  0  0  0  0  0  0
  186.4360  177.9480  145.6990 C   0  0  0  0  0  0  0  0  0  0  0  0
  190.6800  178.5050  144.5690 C   0  0  0  0  0  2  0  0  0  0  0  0
  190.2220  177.7160  145.5430 C   0  0  0  0  0  0  0  0  0  0  0  0
  192.0320  175.1540  147.6000 N   0  0  2  0  0  0  0  0  0  0  0  0
  191.0600  176.2590  147.4680 C   0  0  2  0  0  3  0  0  0  0  0  0
  191.0820  176.6910  146.0840 N   0  0  0  0  0  0  0  0  0  0  0  0
  192.3510  176.5010  148.1050 C   0  0  0  0  0  2  0  0  0  0  0  0
  192.6730  174.9990  146.2910 C   0  0  0  0  0  2  0  0  0  0  0  0
  191.9410  175.8540  145.2790 C   0  0  0  0  0  2  0  0  0  0  0  0
  185.5980  179.1310  140.8830 C   0  0  0  0  0  2  0  0  0  0  0  0
  187.0140  179.0590  140.9380 O   0  0  0  0  0  0  0  0  0  0  0  0
  187.5970  178.7150  138.7500 O   0  0  0  0  0  0  0  0  0  0  0  0
  187.7540  178.3930  139.9550 C   0  0  0  0  0  0  0  0  0  0  0  0
  188.8040  177.3870  140.3230 C   0  0  2  0  0  3  0  0  0  0  0  0
  188.8270  177.2430  141.8430 C   0  0  0  0  0  1  0  0  0  0  0  0
  190.0510  177.8070  139.8390 O   0  0  0  0  0  0  0  0  0  0  0  0
  190.6830  176.6760  139.3020 C   0  0  0  0  0  2  0  0  0  0  0  0
  192.3750  174.7690  137.2670 C   0  0  1  0  0  3  0  0  0  0  0  0
  189.3380  174.8080  134.9670 C   0  0  2  0  0  3  0  0  0  0  0  0
  191.8890  172.8390  135.9120 O   0  0  0  0  0  1  0  0  0  0  0  0
  192.3030  176.3100  137.3620 C   0  0  0  0  0  2  0  0  0  0  0  0
  191.6900  174.2210  135.9980 C   0  0  1  0  0  3  0  0  0  0  0  0
  189.6920  176.6100  136.9530 C   0  0  0  0  0  2  0  0  0  0  0  0
  190.9440  176.8990  137.8200 C   0  0  1  0  0  3  0  0  0  0  0  0
  190.2190  174.5000  136.1510 C   0  0  1  0  0  3  0  0  0  0  0  0
  190.1010  175.9310  135.6610 C   0  0  1  0  0  3  0  0  0  0  0  0
  193.7150  174.3730  137.2900 O   0  0  0  0  0  0  0  0  0  0  0  0
  194.2590  175.0090  138.4060 C   0  0  0  0  0  1  0  0  0  0  0  0
  187.8830  174.7270  135.4050 C   0  0  0  0  0  2  0  0  0  0  0  0
  187.6330  173.5240  136.2940 C   0  0  0  0  0  2  0  0  0  0  0  0
  186.6170  173.8510  137.2780 N   0  0  0  0  0  2  0  0  0  0  0  0
  185.6270  172.7880  137.2330 C   0  0  0  0  0  2  0  0  0  0  0  0
  184.2650  173.3580  137.5790 C   0  0  0  0  0  2  0  0  0  0  0  0
  183.9140  173.1860  135.1150 O   0  0  0  0  0  0  0  0  0  0  0  0
  183.3730  173.2970  136.3900 C   0  0  0  0  0  0  0  0  0  0  0  0
  182.1230  173.3310  136.5410 O   0  0  0  0  0  1  0  0  0  0  0  0
  183.7790  177.8420  141.8190 O   0  0  0  0  0  0  0  0  0  0  0  0
  182.6480  178.5460  141.3920 C   0  0  0  0  0  0  0  0  0  0  0  0
  180.4260  179.9920  140.4860 C   0  0  0  0  0  3  0  0  0  0  0  0
  180.4510  179.4940  141.7900 C   0  0  0  0  0  3  0  0  0  0  0  0
  181.5580  178.7750  142.2430 C   0  0  0  0  0  3  0  0  0  0  0  0
  182.6150  179.0400  140.0840 C   0  0  0  0  0  3  0  0  0  0  0  0
  181.5050  179.7680  139.6230 C   0  0  0  0  0  0  0  0  0  0  0  0
  181.4600  180.2950  138.3300 O   0  0  0  0  0  0  0  0  0  0  0  0
  180.4430  181.1910  137.9020 C   0  0  0  0  0  2  0  0  0  0  0  0
  180.5110  182.8240  136.0130 C   0  0  0  0  0  1  0  0  0  0  0  0
  181.0670  182.4750  137.3810 C   0  0  0  0  0  2  0  0  0  0  0  0
  1 19  1  6  0  0  0
  1  2  1  0  0  0  0
  2  3  1  0  0  0  0
  3  4  1  0  0  0  0
  4 10  1  0  0  0  0
  5  7  1  0  0  0  0
  6 10  2  0  0  0  0
  6  9  1  0  0  0  0
  8  7  2  0  0  0  0
  9  5  2  0  0  0  0
 10  8  1  0  0  0  0
 11 12  2  0  0  0  0
 12  9  1  0  0  0  0
 12 15  1  0  0  0  0
 13 17  1  6  0  0  0
 13 16  1  0  0  0  0
 14 13  1  0  0  0  0
 14 16  1  1  0  0  0
 15 14  1  0  0  0  0
 18 15  1  0  0  0  0
 18 17  1  0  0  0  0
 19 20  1  0  0  0  0
 21 22  2  0  0  0  0
 22 23  1  0  0  0  0
 22 20  1  0  0  0  0
 23 24  1  1  0  0  0
 25 23  1  0  0  0  0
 26 25  1  0  0  0  0
 27 36  1  6  0  0  0
 27 30  1  0  0  0  0
 28 38  1  1  0  0  0
 28 35  1  0  0  0  0
 28 34  1  0  0  0  0
 30 33  1  0  0  0  0
 31 29  1  1  0  0  0
 31 34  1  0  0  0  0
 31 27  1  0  0  0  0
 32 33  1  0  0  0  0
 33 26  1  1  0  0  0
 35 34  1  0  0  0  0
 35 32  1  0  0  0  0
 36 37  1  0  0  0  0
 38 39  1  0  0  0  0
 39 40  1  0  0  0  0
 41 40  1  0  0  0  0
 41 42  1  0  0  0  0
 43 44  2  0  0  0  0
 44 45  1  0  0  0  0
 44 42  1  0  0  0  0
 46  1  1  0  0  0  0
 47 46  1  0  0  0  0
 47 50  1  0  0  0  0
 48 49  1  0  0  0  0
 49 50  2  0  0  0  0
 51 47  2  0  0  0  0
 52 51  1  0  0  0  0
 52 48  2  0  0  0  0
 53 52  1  0  0  0  0
 54 53  1  0  0  0  0
 55 56  1  0  0  0  0
 56 54  1  0  0  0  0
M  END
>  <MODEL>
8

>  <REMARK>
 VINA RESULT:      -6.0      1.580      2.484
  Name = 
  25 active torsions:
  status: ('A' for Active; 'I' for Inactive)
    1  A    between atoms: C_1  and  O_5
    2  A    between atoms: C_3  and  C_30
    3  A    between atoms: C_6  and  C_28
    4  A    between atoms: C_6  and  C_45
    5  A    between atoms: O_8  and  C_18
    6  A    between atoms: O_8  and  C_51
    7  A    between atoms: C_9  and  O_22
    8  A    between atoms: C_11  and  C_30
    9  A    between atoms: C_11  and  N_43
   10  A    between atoms: C_13  and  O_33
   11  A    between atoms: C_13  and  C_45
   12  A    between atoms: C_15  and  C_25
   13  A    between atoms: O_16  and  C_28
   14  A    between atoms: O_16  and  C_47
   15  A    between atoms: C_18  and  C_49
   16  A    between atoms: C_21  and  O_27
   17  A    between atoms: C_21  and  C_55
   18  A    between atoms: O_22  and  C_45
   19  A    between atoms: C_25  and  C_29
   20  A    between atoms: N_26  and  C_44
   21  A    between atoms: O_27  and  C_37
   22  A    between atoms: C_29  and  N_43
   23  A    between atoms: O_33  and  C_55
   24  A    between atoms: C_37  and  C_41
   25  A    between atoms: C_40  and  C_44
                            x       y       z     vdW  Elec       q    Type
                         _______ _______ _______ _____ _____    ______ ____

>  <TORSDO>
F 25

$$$$
=
 OpenBabel10232408563D

 56 61  0  0  1  0  0  0  0  0999 V2000
  189.0560  177.4830  141.0500 C   0  0  2  0  0  3  0  0  0  0  0  0
  189.8720  177.0170  139.8600 C   0  0  0  0  0  2  0  0  0  0  0  0
  189.5660  177.8910  138.6570 C   0  0  0  0  0  2  0  0  0  0  0  0
  189.2900  177.0910  137.5150 O   0  0  0  0  0  0  0  0  0  0  0  0
  191.6560  173.8020  136.4160 C   0  0  0  0  0  3  0  0  0  0  0  0
  191.4360  176.1330  137.0130 C   0  0  0  0  0  3  0  0  0  0  0  0
  190.2740  173.6390  136.5460 C   0  0  0  0  0  3  0  0  0  0  0  0
  189.4740  174.7250  136.9090 C   0  0  0  0  0  3  0  0  0  0  0  0
  192.2540  175.0530  136.6530 C   0  0  0  0  0  0  0  0  0  0  0  0
  190.0550  175.9810  137.1450 C   0  0  0  0  0  0  0  0  0  0  0  0
  194.1580  176.2060  135.6670 C   0  0  0  0  0  2  0  0  0  0  0  0
  193.7190  175.2450  136.4820 C   0  0  0  0  0  0  0  0  0  0  0  0
  196.3520  172.8330  137.6310 N   0  0  2  0  0  0  0  0  0  0  0  0
  195.4460  173.3640  136.5920 C   0  0  2  0  0  3  0  0  0  0  0  0
  194.6750  174.4330  137.1960 N   0  0  0  0  0  0  0  0  0  0  0  0
  195.1470  172.0860  137.2310 C   0  0  0  0  0  2  0  0  0  0  0  0
  196.0450  173.5570  138.8670 C   0  0  0  0  0  2  0  0  0  0  0  0
  195.1060  174.7000  138.5490 C   0  0  0  0  0  2  0  0  0  0  0  0
  187.9450  178.4030  140.5780 C   0  0  0  0  0  2  0  0  0  0  0  0
  186.9440  178.4680  141.5830 O   0  0  0  0  0  0  0  0  0  0  0  0
  185.4650  179.5520  140.2100 O   0  0  0  0  0  0  0  0  0  0  0  0
  185.7160  179.0990  141.3560 C   0  0  0  0  0  0  0  0  0  0  0  0
  184.6600  179.1470  142.4200 C   0  0  2  0  0  3  0  0  0  0  0  0
  185.0250  178.1440  143.5110 C   0  0  0  0  0  1  0  0  0  0  0  0
  183.4100  178.8460  141.8590 O   0  0  0  0  0  0  0  0  0  0  0  0
  183.5650  177.6570  141.1330 C   0  0  0  0  0  2  0  0  0  0  0  0
  181.4210  179.3090  139.3110 C   0  0  1  0  0  3  0  0  0  0  0  0
  181.3860  176.3270  136.9410 C   0  0  2  0  0  3  0  0  0  0  0  0
  181.0820  179.6710  136.9550 O   0  0  0  0  0  1  0  0  0  0  0  0
  181.1900  178.3480  140.4990 C   0  0  0  0  0  2  0  0  0  0  0  0
  180.9530  178.7140  137.9670 C   0  0  1  0  0  3  0  0  0  0  0  0
  182.3230  176.1710  139.4740 C   0  0  0  0  0  2  0  0  0  0  0  0
  182.2060  177.1850  140.6400 C   0  0  1  0  0  3  0  0  0  0  0  0
  181.8670  177.5550  137.6710 C   0  0  1  0  0  3  0  0  0  0  0  0
  181.2300  176.4230  138.4540 C   0  0  1  0  0  3  0  0  0  0  0  0
  180.7480  180.5090  139.5570 O   0  0  0  0  0  0  0  0  0  0  0  0
  180.1310  180.3280  140.7950 C   0  0  0  0  0  1  0  0  0  0  0  0
  182.5940  175.4990  136.5250 C   0  0  0  0  0  2  0  0  0  0  0  0
  183.8320  176.3600  136.3650 C   0  0  0  0  0  2  0  0  0  0  0  0
  184.0960  176.5730  134.9540 N   0  0  0  0  0  2  0  0  0  0  0  0
  185.3810  175.9580  134.6650 C   0  0  0  0  0  2  0  0  0  0  0  0
  186.3880  176.3920  135.7120 C   0  0  0  0  0  2  0  0  0  0  0  0
  186.9010  178.4180  134.3490 O   0  0  0  0  0  0  0  0  0  0  0  0
  186.6480  177.8520  135.5920 C   0  0  0  0  0  0  0  0  0  0  0  0
  186.6230  178.5800  136.6190 O   0  0  0  0  0  1  0  0  0  0  0  0
  189.9030  178.1610  141.9760 O   0  0  0  0  0  0  0  0  0  0  0  0
  190.0890  177.7340  143.2950 C   0  0  0  0  0  0  0  0  0  0  0  0
  190.4000  176.9180  145.9570 C   0  0  0  0  0  3  0  0  0  0  0  0
  191.5080  176.9720  145.1090 C   0  0  0  0  0  3  0  0  0  0  0  0
  191.3540  177.3800  143.7840 C   0  0  0  0  0  3  0  0  0  0  0  0
  188.9810  177.6710  144.1470 C   0  0  0  0  0  3  0  0  0  0  0  0
  189.1290  177.2650  145.4840 C   0  0  0  0  0  0  0  0  0  0  0  0
  188.0430  177.2190  146.3610 O   0  0  0  0  0  0  0  0  0  0  0  0
  188.1850  176.9130  147.7410 C   0  0  0  0  0  2  0  0  0  0  0  0
  189.6700  178.4270  149.0610 C   0  0  0  0  0  1  0  0  0  0  0  0
  188.2590  178.1950  148.5530 C   0  0  0  0  0  2  0  0  0  0  0  0
  1  2  1  6  0  0  0
  1 46  1  0  0  0  0
  3  2  1  0  0  0  0
  4  3  1  0  0  0  0
  5  7  2  0  0  0  0
  5  9  1  0  0  0  0
  6 10  1  0  0  0  0
  7  8  1  0  0  0  0
  8 10  2  0  0  0  0
  9  6  2  0  0  0  0
 10  4  1  0  0  0  0
 11 12  2  0  0  0  0
 12  9  1  0  0  0  0
 12 15  1  0  0  0  0
 13 16  1  1  0  0  0
 13 17  1  0  0  0  0
 14 15  1  0  0  0  0
 14 16  1  1  0  0  0
 14 13  1  0  0  0  0
 15 18  1  0  0  0  0
 18 17  1  0  0  0  0
 19  1  1  0  0  0  0
 19 20  1  0  0  0  0
 21 22  2  0  0  0  0
 22 20  1  0  0  0  0
 22 23  1  0  0  0  0
 23 24  1  1  0  0  0
 25 23  1  0  0  0  0
 26 25  1  0  0  0  0
 27 36  1  1  0  0  0
 27 30  1  0  0  0  0
 28 38  1  1  0  0  0
 28 34  1  0  0  0  0
 28 35  1  0  0  0  0
 30 33  1  0  0  0  0
 31 29  1  6  0  0  0
 31 27  1  0  0  0  0
 32 33  1  0  0  0  0
 33 26  1  6  0  0  0
 34 31  1  0  0  0  0
 34 35  1  0  0  0  0
 35 32  1  0  0  0  0
 36 37  1  0  0  0  0
 39 38  1  0  0  0  0
 40 39  1  0  0  0  0
 41 40  1  0  0  0  0
 41 42  1  0  0  0  0
 43 44  2  0  0  0  0
 44 42  1  0  0  0  0
 44 45  1  0  0  0  0
 46 47  1  0  0  0  0
 47 50  2  0  0  0  0
 47 51  1  0  0  0  0
 49 48  2  0  0  0  0
 50 49  1  0  0  0  0
 51 52  2  0  0  0  0
 52 48  1  0  0  0  0
 52 53  1  0  0  0  0
 53 54  1  0  0  0  0
 54 56  1  0  0  0  0
 56 55  1  0  0  0  0
M  END
>  <MODEL>
9

>  <REMARK>
 VINA RESULT:      -5.8      2.624      8.920
  Name = 
  25 active torsions:
  status: ('A' for Active; 'I' for Inactive)
    1  A    between atoms: C_1  and  O_5
    2  A    between atoms: C_3  and  C_30
    3  A    between atoms: C_6  and  C_28
    4  A    between atoms: C_6  and  C_45
    5  A    between atoms: O_8  and  C_18
    6  A    between atoms: O_8  and  C_51
    7  A    between atoms: C_9  and  O_22
    8  A    between atoms: C_11  and  C_30
    9  A    between atoms: C_11  and  N_43
   10  A    between atoms: C_13  and  O_33
   11  A    between atoms: C_13  and  C_45
   12  A    between atoms: C_15  and  C_25
   13  A    between atoms: O_16  and  C_28
   14  A    between atoms: O_16  and  C_47
   15  A    between atoms: C_18  and  C_49
   16  A    between atoms: C_21  and  O_27
   17  A    between atoms: C_21  and  C_55
   18  A    between atoms: O_22  and  C_45
   19  A    between atoms: C_25  and  C_29
   20  A    between atoms: N_26  and  C_44
   21  A    between atoms: O_27  and  C_37
   22  A    between atoms: C_29  and  N_43
   23  A    between atoms: O_33  and  C_55
   24  A    between atoms: C_37  and  C_41
   25  A    between atoms: C_40  and  C_44
                            x       y       z     vdW  Elec       q    Type
                         _______ _______ _______ _____ _____    ______ ____

>  <TORSDO>
F 25

$$$$
