=
 OpenBabel10232411443D

 27 29  0  0  1  0  0  0  0  0999 V2000
  187.9060  178.0310  142.1810 C   0  0  1  0  0  3  0  0  0  0  0  0
  184.5720  178.3570  143.9430 C   0  0  0  0  0  3  0  0  0  0  0  0
  185.6050  178.5750  141.3940 N   0  0  0  0  0  0  0  0  0  0  0  0
  185.9310  178.1360  143.7190 C   0  0  0  0  0  3  0  0  0  0  0  0
  183.7290  178.6880  142.8750 C   0  0  0  0  0  0  0  0  0  0  0  0
  186.4370  178.2430  142.4220 C   0  0  0  0  0  0  0  0  0  0  0  0
  184.2790  178.7940  141.5920 C   0  0  0  0  0  3  0  0  0  0  0  0
  181.4790  179.3110  142.0340 O   0  0  0  0  0  0  0  0  0  0  0  0
  182.2930  178.9240  143.0920 C   0  0  0  0  0  0  0  0  0  0  0  0
  181.7880  178.7790  144.2380 O   0  0  0  0  0  1  0  0  0  0  0  0
  189.8000  177.9420  143.8730 C   0  0  0  0  0  0  0  0  0  0  0  0
  188.5810  177.4260  143.3290 N   0  0  0  0  0  2  0  0  0  0  0  0
  190.3610  178.9360  143.3360 O   0  0  0  0  0  0  0  0  0  0  0  0
  190.3990  176.8570  147.4390 C   0  0  0  0  0  3  0  0  0  0  0  0
  192.1370  175.5120  148.3530 F   0  0  0  0  0  0  0  0  0  0  0  0
  189.8190  177.4600  146.3210 C   0  0  0  0  0  3  0  0  0  0  0  0
  191.5630  176.1040  147.2790 C   0  0  0  0  0  0  0  0  0  0  0  0
  192.1210  175.9630  146.0460 N   0  0  0  0  0  0  0  0  0  0  0  0
  191.5710  176.5440  144.9460 C   0  0  0  0  0  3  0  0  0  0  0  0
  190.4020  177.3080  145.0590 C   0  0  0  0  0  0  0  0  0  0  0  0
  188.1720  177.3350  140.9780 O   0  0  0  0  0  0  0  0  0  0  0  0
  190.3110  177.3730  139.9350 C   0  0  0  0  0  2  0  0  0  0  0  0
  189.0150  178.1140  140.1650 C   0  0  1  0  0  3  0  0  0  0  0  0
  188.3940  178.2670  138.7920 C   0  0  0  0  0  2  0  0  0  0  0  0
  189.2010  178.0000  136.6160 C   0  0  0  0  0  1  0  0  0  0  0  0
  190.3940  177.1610  138.4410 C   0  0  0  0  0  2  0  0  0  0  0  0
  189.0570  177.3320  137.8970 N   0  0  0  0  0  0  0  0  0  0  0  0
  1 21  1  6  0  0  0
  1  6  1  0  0  0  0
  1 12  1  0  0  0  0
  3  7  2  0  0  0  0
  3  6  1  0  0  0  0
  4  2  1  0  0  0  0
  5  9  1  0  0  0  0
  5  2  2  0  0  0  0
  6  4  2  0  0  0  0
  7  5  1  0  0  0  0
  8  9  2  0  0  0  0
  9 10  1  0  0  0  0
 11 20  1  0  0  0  0
 12 11  1  0  0  0  0
 13 11  2  0  0  0  0
 16 14  2  0  0  0  0
 17 14  1  0  0  0  0
 17 15  1  0  0  0  0
 18 17  2  0  0  0  0
 19 20  2  0  0  0  0
 19 18  1  0  0  0  0
 20 16  1  0  0  0  0
 22 23  1  0  0  0  0
 23 21  1  1  0  0  0
 24 23  1  0  0  0  0
 25 27  1  0  0  0  0
 26 22  1  0  0  0  0
 27 26  1  0  0  0  0
 27 24  1  0  0  0  0
M  END
>  <MODEL>
1

>  <REMARK>
 VINA RESULT:      -8.0      0.000      0.000
  Name = 
  6 active torsions:
  status: ('A' for Active; 'I' for Inactive)
    1  A    between atoms: C_6  and  C_21
    2  A    between atoms: C_8  and  O_10
    3  A    between atoms: C_8  and  N_15
    4  A    between atoms: C_8  and  C_18
    5  A    between atoms: O_10  and  C_23
    6  A    between atoms: C_11  and  C_17
                            x       y       z     vdW  Elec       q    Type
                         _______ _______ _______ _____ _____    ______ ____

>  <TORSDO>
F 6

$$$$
=
 OpenBabel10232411443D

 27 29  0  0  1  0  0  0  0  0999 V2000
  189.9740  177.4860  141.5350 C   0  0  1  0  0  3  0  0  0  0  0  0
  189.1060  178.2160  137.9240 C   0  0  0  0  0  3  0  0  0  0  0  0
  190.4330  176.2960  139.3940 N   0  0  0  0  0  0  0  0  0  0  0  0
  189.1900  178.3340  139.3120 C   0  0  0  0  0  3  0  0  0  0  0  0
  189.6930  177.1240  137.2740 C   0  0  0  0  0  0  0  0  0  0  0  0
  189.8590  177.3490  140.0420 C   0  0  0  0  0  0  0  0  0  0  0  0
  190.3620  176.1650  138.0440 C   0  0  0  0  0  3  0  0  0  0  0  0
  190.6240  176.3290  135.1160 O   0  0  0  0  0  0  0  0  0  0  0  0
  189.6140  176.9840  135.8120 C   0  0  0  0  0  0  0  0  0  0  0  0
  188.6330  177.4550  135.1770 O   0  0  0  0  0  1  0  0  0  0  0  0
  187.8820  177.1250  142.9330 C   0  0  0  0  0  0  0  0  0  0  0  0
  188.7370  177.9660  142.1510 N   0  0  0  0  0  2  0  0  0  0  0  0
  188.1620  175.9040  143.0820 O   0  0  0  0  0  0  0  0  0  0  0  0
  185.4460  178.3730  145.5330 C   0  0  0  0  0  3  0  0  0  0  0  0
  183.2540  179.2620  145.2670 F   0  0  0  0  0  0  0  0  0  0  0  0
  186.5970  177.8420  144.9490 C   0  0  0  0  0  3  0  0  0  0  0  0
  184.3770  178.7450  144.7160 C   0  0  0  0  0  0  0  0  0  0  0  0
  184.4630  178.5890  143.3680 N   0  0  0  0  0  0  0  0  0  0  0  0
  185.5750  178.0730  142.7800 C   0  0  0  0  0  3  0  0  0  0  0  0
  186.6730  177.6870  143.5600 C   0  0  0  0  0  0  0  0  0  0  0  0
  190.4610  176.3140  142.1590 O   0  0  0  0  0  0  0  0  0  0  0  0
  191.4940  178.0570  143.4060 C   0  0  0  0  0  2  0  0  0  0  0  0
  191.5980  176.6300  142.9240 C   0  0  1  0  0  3  0  0  0  0  0  0
  191.6130  175.7850  144.1820 C   0  0  0  0  0  2  0  0  0  0  0  0
  191.9270  176.2660  146.4460 C   0  0  0  0  0  1  0  0  0  0  0  0
  191.4870  177.9740  144.9150 C   0  0  0  0  0  2  0  0  0  0  0  0
  191.1360  176.6110  145.2790 N   0  0  0  0  0  0  0  0  0  0  0  0
  1 12  1  1  0  0  0
  1 21  1  0  0  0  0
  2  4  1  0  0  0  0
  3  6  1  0  0  0  0
  4  6  2  0  0  0  0
  5  2  2  0  0  0  0
  5  7  1  0  0  0  0
  6  1  1  0  0  0  0
  7  3  2  0  0  0  0
  8  9  2  0  0  0  0
  9  5  1  0  0  0  0
 10  9  1  0  0  0  0
 11 13  2  0  0  0  0
 11 20  1  0  0  0  0
 12 11  1  0  0  0  0
 16 14  1  0  0  0  0
 17 15  1  0  0  0  0
 17 14  2  0  0  0  0
 18 17  1  0  0  0  0
 19 18  2  0  0  0  0
 19 20  1  0  0  0  0
 20 16  2  0  0  0  0
 22 26  1  0  0  0  0
 23 21  1  6  0  0  0
 23 22  1  0  0  0  0
 23 24  1  0  0  0  0
 24 27  1  0  0  0  0
 26 27  1  0  0  0  0
 27 25  1  0  0  0  0
M  END
>  <MODEL>
2

>  <REMARK>
 VINA RESULT:      -7.6      3.204      6.958
  Name = 
  6 active torsions:
  status: ('A' for Active; 'I' for Inactive)
    1  A    between atoms: C_6  and  C_21
    2  A    between atoms: C_8  and  O_10
    3  A    between atoms: C_8  and  N_15
    4  A    between atoms: C_8  and  C_18
    5  A    between atoms: O_10  and  C_23
    6  A    between atoms: C_11  and  C_17
                            x       y       z     vdW  Elec       q    Type
                         _______ _______ _______ _____ _____    ______ ____

>  <TORSDO>
F 6

$$$$
=
 OpenBabel10232411443D

 27 29  0  0  1  0  0  0  0  0999 V2000
  188.4420  177.7290  142.4380 C   0  0  1  0  0  3  0  0  0  0  0  0
  189.5640  177.2200  146.0170 C   0  0  0  0  0  3  0  0  0  0  0  0
  190.5880  176.9890  143.4660 N   0  0  0  0  0  0  0  0  0  0  0  0
  188.7690  177.5330  144.9140 C   0  0  0  0  0  3  0  0  0  0  0  0
  190.8840  176.7900  145.8330 C   0  0  0  0  0  0  0  0  0  0  0  0
  189.3050  177.4180  143.6300 C   0  0  0  0  0  0  0  0  0  0  0  0
  191.3780  176.6800  144.5280 C   0  0  0  0  0  3  0  0  0  0  0  0
  192.5260  175.3130  146.9620 O   0  0  0  0  0  0  0  0  0  0  0  0
  191.7370  176.4570  146.9840 C   0  0  0  0  0  0  0  0  0  0  0  0
  191.7610  177.2040  147.9980 O   0  0  0  0  0  1  0  0  0  0  0  0
  188.9900  177.8390  139.9590 C   0  0  0  0  0  0  0  0  0  0  0  0
  188.9560  177.1350  141.2040 N   0  0  0  0  0  2  0  0  0  0  0  0
  188.5280  179.0100  139.8830 O   0  0  0  0  0  0  0  0  0  0  0  0
  189.6560  176.9120  136.3600 C   0  0  0  0  0  3  0  0  0  0  0  0
  191.2000  175.3460  135.4490 F   0  0  0  0  0  0  0  0  0  0  0  0
  189.1090  177.5320  137.4850 C   0  0  0  0  0  3  0  0  0  0  0  0
  190.6580  175.9550  136.5300 C   0  0  0  0  0  0  0  0  0  0  0  0
  191.0900  175.6350  137.7790 N   0  0  0  0  0  0  0  0  0  0  0  0
  190.5690  176.2260  138.8870 C   0  0  0  0  0  3  0  0  0  0  0  0
  189.5620  177.1930  138.7650 C   0  0  0  0  0  0  0  0  0  0  0  0
  187.0780  177.4210  142.6500 O   0  0  0  0  0  0  0  0  0  0  0  0
  185.4160  178.5980  141.4200 C   0  0  0  0  0  2  0  0  0  0  0  0
  186.3230  178.6070  142.6270 C   0  0  1  0  0  3  0  0  0  0  0  0
  185.3950  178.6400  143.8240 C   0  0  0  0  0  2  0  0  0  0  0  0
  183.1170  179.0850  144.0880 C   0  0  0  0  0  1  0  0  0  0  0  0
  184.0100  178.6590  141.9720 C   0  0  0  0  0  2  0  0  0  0  0  0
  184.0680  178.2580  143.3680 N   0  0  0  0  0  0  0  0  0  0  0  0
  1 12  1  6  0  0  0
  1 21  1  0  0  0  0
  1  6  1  0  0  0  0
  3  6  2  0  0  0  0
  3  7  1  0  0  0  0
  4  2  2  0  0  0  0
  5  2  1  0  0  0  0
  5  9  1  0  0  0  0
  6  4  1  0  0  0  0
  7  5  2  0  0  0  0
  8  9  2  0  0  0  0
  9 10  1  0  0  0  0
 11 12  1  0  0  0  0
 13 11  2  0  0  0  0
 14 17  2  0  0  0  0
 14 16  1  0  0  0  0
 15 17  1  0  0  0  0
 16 20  2  0  0  0  0
 17 18  1  0  0  0  0
 18 19  2  0  0  0  0
 20 19  1  0  0  0  0
 20 11  1  0  0  0  0
 22 26  1  0  0  0  0
 22 23  1  0  0  0  0
 23 21  1  1  0  0  0
 23 24  1  0  0  0  0
 26 27  1  0  0  0  0
 27 24  1  0  0  0  0
 27 25  1  0  0  0  0
M  END
>  <MODEL>
3

>  <REMARK>
 VINA RESULT:      -7.6      3.307      7.584
  Name = 
  6 active torsions:
  status: ('A' for Active; 'I' for Inactive)
    1  A    between atoms: C_6  and  C_21
    2  A    between atoms: C_8  and  O_10
    3  A    between atoms: C_8  and  N_15
    4  A    between atoms: C_8  and  C_18
    5  A    between atoms: O_10  and  C_23
    6  A    between atoms: C_11  and  C_17
                            x       y       z     vdW  Elec       q    Type
                         _______ _______ _______ _____ _____    ______ ____

>  <TORSDO>
F 6

$$$$
=
 OpenBabel10232411443D

 27 29  0  0  1  0  0  0  0  0999 V2000
  187.7230  177.9070  143.1900 C   0  0  1  0  0  3  0  0  0  0  0  0
  189.0520  177.9130  139.6450 C   0  0  0  0  0  3  0  0  0  0  0  0
  189.7350  176.9010  142.1190 N   0  0  0  0  0  0  0  0  0  0  0  0
  188.2330  178.1540  140.7490 C   0  0  0  0  0  3  0  0  0  0  0  0
  190.2210  177.1570  139.7900 C   0  0  0  0  0  0  0  0  0  0  0  0
  188.5890  177.6280  141.9920 C   0  0  0  0  0  0  0  0  0  0  0  0
  190.5460  176.6570  141.0560 C   0  0  0  0  0  3  0  0  0  0  0  0
  192.4060  176.4730  138.8350 O   0  0  0  0  0  1  0  0  0  0  0  0
  191.0970  176.8930  138.6370 C   0  0  0  0  0  0  0  0  0  0  0  0
  190.6680  177.0450  137.4620 O   0  0  0  0  0  0  0  0  0  0  0  0
  185.3400  178.6820  143.6130 C   0  0  0  0  0  0  0  0  0  0  0  0
  186.2990  177.9360  142.8560 N   0  0  0  0  0  2  0  0  0  0  0  0
  185.7020  179.3200  144.6390 O   0  0  0  0  0  0  0  0  0  0  0  0
  181.5720  178.8950  143.7260 C   0  0  0  0  0  3  0  0  0  0  0  0
  179.9820  178.7410  141.9610 F   0  0  0  0  0  0  0  0  0  0  0  0
  182.9070  178.8810  144.1340 C   0  0  0  0  0  3  0  0  0  0  0  0
  181.2710  178.7290  142.3730 C   0  0  0  0  0  0  0  0  0  0  0  0
  182.2720  178.5550  141.4680 N   0  0  0  0  0  0  0  0  0  0  0  0
  183.5790  178.5370  141.8470 C   0  0  0  0  0  3  0  0  0  0  0  0
  183.9280  178.7010  143.1930 C   0  0  0  0  0  0  0  0  0  0  0  0
  187.9980  177.0500  144.2810 O   0  0  0  0  0  0  0  0  0  0  0  0
  187.7940  177.4800  146.6120 C   0  0  0  0  0  2  0  0  0  0  0  0
  188.5410  177.8000  145.3390 C   0  0  1  0  0  3  0  0  0  0  0  0
  189.9680  177.3600  145.5920 C   0  0  0  0  0  2  0  0  0  0  0  0
  191.1600  176.7750  147.5140 C   0  0  0  0  0  1  0  0  0  0  0  0
  188.8280  176.9020  147.5510 C   0  0  0  0  0  2  0  0  0  0  0  0
  189.9640  176.4780  146.7480 N   0  0  0  0  0  0  0  0  0  0  0  0
  1 12  1  6  0  0  0
  1 21  1  0  0  0  0
  2  5  2  0  0  0  0
  2  4  1  0  0  0  0
  4  6  2  0  0  0  0
  5  7  1  0  0  0  0
  6  3  1  0  0  0  0
  6  1  1  0  0  0  0
  7  3  2  0  0  0  0
  9  8  1  0  0  0  0
  9  5  1  0  0  0  0
 10  9  2  0  0  0  0
 11 13  2  0  0  0  0
 12 11  1  0  0  0  0
 14 16  1  0  0  0  0
 15 17  1  0  0  0  0
 17 14  2  0  0  0  0
 18 19  2  0  0  0  0
 18 17  1  0  0  0  0
 19 20  1  0  0  0  0
 20 11  1  0  0  0  0
 20 16  2  0  0  0  0
 22 26  1  0  0  0  0
 23 21  1  6  0  0  0
 23 24  1  0  0  0  0
 23 22  1  0  0  0  0
 24 27  1  0  0  0  0
 27 25  1  0  0  0  0
 27 26  1  0  0  0  0
M  END
>  <MODEL>
4

>  <REMARK>
 VINA RESULT:      -7.5      3.427      8.070
  Name = 
  6 active torsions:
  status: ('A' for Active; 'I' for Inactive)
    1  A    between atoms: C_6  and  C_21
    2  A    between atoms: C_8  and  O_10
    3  A    between atoms: C_8  and  N_15
    4  A    between atoms: C_8  and  C_18
    5  A    between atoms: O_10  and  C_23
    6  A    between atoms: C_11  and  C_17
                            x       y       z     vdW  Elec       q    Type
                         _______ _______ _______ _____ _____    ______ ____

>  <TORSDO>
F 6

$$$$
=
 OpenBabel10232411443D

 27 29  0  0  1  0  0  0  0  0999 V2000
  188.1430  177.7730  141.8540 C   0  0  1  0  0  3  0  0  0  0  0  0
  191.8800  177.4610  141.3380 C   0  0  0  0  0  3  0  0  0  0  0  0
  189.5590  177.3190  139.8540 N   0  0  0  0  0  0  0  0  0  0  0  0
  190.6440  177.6570  141.9550 C   0  0  0  0  0  3  0  0  0  0  0  0
  191.9470  177.1940  139.9650 C   0  0  0  0  0  0  0  0  0  0  0  0
  189.4790  177.5890  141.1880 C   0  0  0  0  0  0  0  0  0  0  0  0
  190.7540  177.1250  139.2360 C   0  0  0  0  0  3  0  0  0  0  0  0
  193.3070  176.8860  137.9140 O   0  0  0  0  0  0  0  0  0  0  0  0
  193.2410  176.9850  139.2980 C   0  0  0  0  0  0  0  0  0  0  0  0
  194.3010  176.8950  139.9750 O   0  0  0  0  0  1  0  0  0  0  0  0
  187.7240  177.1890  144.2910 C   0  0  0  0  0  0  0  0  0  0  0  0
  188.2640  178.0510  143.2840 N   0  0  0  0  0  2  0  0  0  0  0  0
  187.0780  176.1570  143.9590 O   0  0  0  0  0  0  0  0  0  0  0  0
  189.3500  177.6530  147.6660 C   0  0  0  0  0  3  0  0  0  0  0  0
  188.4150  178.4140  149.7180 F   0  0  0  0  0  0  0  0  0  0  0  0
  189.1750  177.3500  146.3150 C   0  0  0  0  0  3  0  0  0  0  0  0
  188.2610  178.1150  148.4070 C   0  0  0  0  0  0  0  0  0  0  0  0
  187.0470  178.2650  147.8130 N   0  0  0  0  0  0  0  0  0  0  0  0
  186.8570  177.9740  146.4980 C   0  0  0  0  0  3  0  0  0  0  0  0
  187.9210  177.5080  145.7150 C   0  0  0  0  0  0  0  0  0  0  0  0
  187.3250  178.7200  141.1930 O   0  0  0  0  0  0  0  0  0  0  0  0
  185.0550  178.3810  141.8230 C   0  0  0  0  0  2  0  0  0  0  0  0
  186.1260  178.1030  140.7950 C   0  0  1  0  0  3  0  0  0  0  0  0
  185.6270  178.7440  139.5160 C   0  0  0  0  0  2  0  0  0  0  0  0
  183.5560  179.5790  138.8300 C   0  0  0  0  0  1  0  0  0  0  0  0
  183.9760  179.1400  141.0860 C   0  0  0  0  0  2  0  0  0  0  0  0
  184.5660  179.6730  139.8690 N   0  0  0  0  0  0  0  0  0  0  0  0
  1 21  1  6  0  0  0
  1 12  1  0  0  0  0
  2  4  1  0  0  0  0
  3  6  1  0  0  0  0
  5  2  2  0  0  0  0
  6  1  1  0  0  0  0
  6  4  2  0  0  0  0
  7  3  2  0  0  0  0
  7  5  1  0  0  0  0
  8  9  2  0  0  0  0
  9  5  1  0  0  0  0
  9 10  1  0  0  0  0
 11 20  1  0  0  0  0
 12 11  1  0  0  0  0
 13 11  2  0  0  0  0
 14 17  1  0  0  0  0
 16 14  2  0  0  0  0
 17 15  1  0  0  0  0
 18 17  2  0  0  0  0
 19 18  1  0  0  0  0
 20 16  1  0  0  0  0
 20 19  2  0  0  0  0
 23 21  1  1  0  0  0
 23 22  1  0  0  0  0
 24 27  1  0  0  0  0
 24 23  1  0  0  0  0
 25 27  1  0  0  0  0
 26 22  1  0  0  0  0
 27 26  1  0  0  0  0
M  END
>  <MODEL>
5

>  <REMARK>
 VINA RESULT:      -7.3      2.819      6.184
  Name = 
  6 active torsions:
  status: ('A' for Active; 'I' for Inactive)
    1  A    between atoms: C_6  and  C_21
    2  A    between atoms: C_8  and  O_10
    3  A    between atoms: C_8  and  N_15
    4  A    between atoms: C_8  and  C_18
    5  A    between atoms: O_10  and  C_23
    6  A    between atoms: C_11  and  C_17
                            x       y       z     vdW  Elec       q    Type
                         _______ _______ _______ _____ _____    ______ ____

>  <TORSDO>
F 6

$$$$
=
 OpenBabel10232411443D

 27 29  0  0  1  0  0  0  0  0999 V2000
  188.0410  177.6790  142.2680 C   0  0  1  0  0  3  0  0  0  0  0  0
  189.3700  177.2100  145.7810 C   0  0  0  0  0  3  0  0  0  0  0  0
  190.2500  176.9700  143.1770 N   0  0  0  0  0  0  0  0  0  0  0  0
  188.5100  177.5060  144.7230 C   0  0  0  0  0  3  0  0  0  0  0  0
  190.6820  176.7920  145.5240 C   0  0  0  0  0  0  0  0  0  0  0  0
  188.9730  177.3860  143.4110 C   0  0  0  0  0  0  0  0  0  0  0  0
  191.1020  176.6760  144.1940 C   0  0  0  0  0  3  0  0  0  0  0  0
  191.6490  177.2880  147.7540 O   0  0  0  0  0  1  0  0  0  0  0  0
  191.6030  176.4760  146.6270 C   0  0  0  0  0  0  0  0  0  0  0  0
  192.3570  175.4690  146.5610 O   0  0  0  0  0  0  0  0  0  0  0  0
  185.6770  178.5350  141.8990 C   0  0  0  0  0  0  0  0  0  0  0  0
  186.6610  177.8840  142.7080 N   0  0  0  0  0  2  0  0  0  0  0  0
  185.9930  178.9980  140.7690 O   0  0  0  0  0  0  0  0  0  0  0  0
  182.7170  178.9190  144.2100 C   0  0  0  0  0  3  0  0  0  0  0  0
  180.3930  179.0320  143.7060 F   0  0  0  0  0  0  0  0  0  0  0  0
  184.0310  178.7960  143.7570 C   0  0  0  0  0  3  0  0  0  0  0  0
  181.6730  178.9130  143.2830 C   0  0  0  0  0  0  0  0  0  0  0  0
  181.9410  178.7880  141.9550 N   0  0  0  0  0  0  0  0  0  0  0  0
  183.2150  178.6660  141.4950 C   0  0  0  0  0  3  0  0  0  0  0  0
  184.2940  178.6680  142.3880 C   0  0  0  0  0  0  0  0  0  0  0  0
  188.4990  178.7310  141.4400 O   0  0  0  0  0  0  0  0  0  0  0  0
  188.6220  176.9000  139.9250 C   0  0  0  0  0  2  0  0  0  0  0  0
  189.2500  178.1960  140.3780 C   0  0  1  0  0  3  0  0  0  0  0  0
  189.1640  179.1210  139.1810 C   0  0  0  0  0  2  0  0  0  0  0  0
  188.7070  178.7880  136.9140 C   0  0  0  0  0  1  0  0  0  0  0  0
  188.2320  177.1230  138.4820 C   0  0  0  0  0  2  0  0  0  0  0  0
  188.1960  178.5580  138.2530 N   0  0  0  0  0  0  0  0  0  0  0  0
  1 21  1  1  0  0  0
  1 12  1  0  0  0  0
  1  6  1  0  0  0  0
  3  6  2  0  0  0  0
  3  7  1  0  0  0  0
  4  2  2  0  0  0  0
  5  2  1  0  0  0  0
  5  9  1  0  0  0  0
  6  4  1  0  0  0  0
  7  5  2  0  0  0  0
  9  8  1  0  0  0  0
 10  9  2  0  0  0  0
 11 20  1  0  0  0  0
 11 12  1  0  0  0  0
 13 11  2  0  0  0  0
 16 14  1  0  0  0  0
 17 15  1  0  0  0  0
 17 14  2  0  0  0  0
 18 17  1  0  0  0  0
 19 18  2  0  0  0  0
 19 20  1  0  0  0  0
 20 16  2  0  0  0  0
 22 23  1  0  0  0  0
 23 21  1  1  0  0  0
 24 23  1  0  0  0  0
 25 27  1  0  0  0  0
 26 22  1  0  0  0  0
 27 26  1  0  0  0  0
 27 24  1  0  0  0  0
M  END
>  <MODEL>
6

>  <REMARK>
 VINA RESULT:      -7.1      3.200      6.933
  Name = 
  6 active torsions:
  status: ('A' for Active; 'I' for Inactive)
    1  A    between atoms: C_6  and  C_21
    2  A    between atoms: C_8  and  O_10
    3  A    between atoms: C_8  and  N_15
    4  A    between atoms: C_8  and  C_18
    5  A    between atoms: O_10  and  C_23
    6  A    between atoms: C_11  and  C_17
                            x       y       z     vdW  Elec       q    Type
                         _______ _______ _______ _____ _____    ______ ____

>  <TORSDO>
F 6

$$$$
=
 OpenBabel10232411443D

 27 29  0  0  1  0  0  0  0  0999 V2000
  186.6420  177.6950  143.7880 C   0  0  1  0  0  3  0  0  0  0  0  0
  183.2020  178.8880  144.8260 C   0  0  0  0  0  3  0  0  0  0  0  0
  184.5090  178.0470  142.5470 N   0  0  0  0  0  0  0  0  0  0  0  0
  184.5440  178.5100  144.8900 C   0  0  0  0  0  3  0  0  0  0  0  0
  182.5160  178.8410  143.6060 C   0  0  0  0  0  0  0  0  0  0  0  0
  185.1880  178.0790  143.7280 C   0  0  0  0  0  0  0  0  0  0  0  0
  183.2030  178.4120  142.4650 C   0  0  0  0  0  3  0  0  0  0  0  0
  180.1180  178.4480  144.1060 O   0  0  0  0  0  1  0  0  0  0  0  0
  181.1010  179.2360  143.5210 C   0  0  0  0  0  0  0  0  0  0  0  0
  180.7680  180.2900  142.9160 O   0  0  0  0  0  0  0  0  0  0  0  0
  188.4110  177.0220  142.0930 C   0  0  0  0  0  0  0  0  0  0  0  0
  187.3150  177.8480  142.4990 N   0  0  0  0  0  2  0  0  0  0  0  0
  188.8630  176.1430  142.8770 O   0  0  0  0  0  0  0  0  0  0  0  0
  188.9910  178.2000  138.5540 C   0  0  0  0  0  3  0  0  0  0  0  0
  190.7460  177.6670  137.0370 F   0  0  0  0  0  0  0  0  0  0  0  0
  188.4130  178.0390  139.8140 C   0  0  0  0  0  3  0  0  0  0  0  0
  190.1730  177.5200  138.2540 C   0  0  0  0  0  0  0  0  0  0  0  0
  190.7470  176.7100  139.1830 N   0  0  0  0  0  0  0  0  0  0  0  0
  190.1990  176.5390  140.4160 C   0  0  0  0  0  3  0  0  0  0  0  0
  189.0140  177.2030  140.7610 C   0  0  0  0  0  0  0  0  0  0  0  0
  187.3390  178.3430  144.8350 O   0  0  0  0  0  0  0  0  0  0  0  0
  189.2070  177.3450  145.9190 C   0  0  0  0  0  2  0  0  0  0  0  0
  187.7020  177.3970  145.8090 C   0  0  1  0  0  3  0  0  0  0  0  0
  187.2190  177.8590  147.1680 C   0  0  0  0  0  2  0  0  0  0  0  0
  188.2300  178.0390  149.2660 C   0  0  0  0  0  1  0  0  0  0  0  0
  189.5220  177.7470  147.3420 C   0  0  0  0  0  2  0  0  0  0  0  0
  188.3540  178.4300  147.8740 N   0  0  0  0  0  0  0  0  0  0  0  0
  1 12  1  6  0  0  0
  1 21  1  0  0  0  0
  2  4  1  0  0  0  0
  3  6  1  0  0  0  0
  5  2  2  0  0  0  0
  6  1  1  0  0  0  0
  6  4  2  0  0  0  0
  7  3  2  0  0  0  0
  7  5  1  0  0  0  0
  9  5  1  0  0  0  0
  9  8  1  0  0  0  0
 10  9  2  0  0  0  0
 11 12  1  0  0  0  0
 11 13  2  0  0  0  0
 14 16  1  0  0  0  0
 15 17  1  0  0  0  0
 16 20  2  0  0  0  0
 17 14  2  0  0  0  0
 17 18  1  0  0  0  0
 18 19  2  0  0  0  0
 19 20  1  0  0  0  0
 20 11  1  0  0  0  0
 22 26  1  0  0  0  0
 23 21  1  6  0  0  0
 23 22  1  0  0  0  0
 23 24  1  0  0  0  0
 24 27  1  0  0  0  0
 26 27  1  0  0  0  0
 27 25  1  0  0  0  0
M  END
>  <MODEL>
7

>  <REMARK>
 VINA RESULT:      -7.1      2.893      6.070
  Name = 
  6 active torsions:
  status: ('A' for Active; 'I' for Inactive)
    1  A    between atoms: C_6  and  C_21
    2  A    between atoms: C_8  and  O_10
    3  A    between atoms: C_8  and  N_15
    4  A    between atoms: C_8  and  C_18
    5  A    between atoms: O_10  and  C_23
    6  A    between atoms: C_11  and  C_17
                            x       y       z     vdW  Elec       q    Type
                         _______ _______ _______ _____ _____    ______ ____

>  <TORSDO>
F 6

$$$$
=
 OpenBabel10232411443D

 27 29  0  0  1  0  0  0  0  0999 V2000
  188.5390  176.7150  142.8590 C   0  0  1  0  0  3  0  0  0  0  0  0
  191.6180  176.1460  144.9870 C   0  0  0  0  0  3  0  0  0  0  0  0
  189.0030  176.9700  145.2940 N   0  0  0  0  0  0  0  0  0  0  0  0
  190.7710  176.2090  143.8800 C   0  0  0  0  0  3  0  0  0  0  0  0
  191.1430  176.5000  146.2560 C   0  0  0  0  0  0  0  0  0  0  0  0
  189.4480  176.6210  144.0540 C   0  0  0  0  0  0  0  0  0  0  0  0
  189.8130  176.9160  146.3840 C   0  0  0  0  0  3  0  0  0  0  0  0
  192.9840  175.4420  147.5390 O   0  0  0  0  0  0  0  0  0  0  0  0
  192.0220  176.4390  147.4340 C   0  0  0  0  0  0  0  0  0  0  0  0
  191.9110  177.2890  148.3580 O   0  0  0  0  0  1  0  0  0  0  0  0
  186.4860  178.2120  142.8110 C   0  0  0  0  0  0  0  0  0  0  0  0
  187.1570  177.0180  143.2290 N   0  0  0  0  0  2  0  0  0  0  0  0
  187.1010  179.0750  142.1270 O   0  0  0  0  0  0  0  0  0  0  0  0
  183.3810  178.8410  144.8640 C   0  0  0  0  0  3  0  0  0  0  0  0
  181.1110  179.0420  144.1750 F   0  0  0  0  0  0  0  0  0  0  0  0
  184.7180  178.6360  144.5210 C   0  0  0  0  0  3  0  0  0  0  0  0
  182.4130  178.8420  143.8590 C   0  0  0  0  0  0  0  0  0  0  0  0
  182.7750  178.6430  142.5630 N   0  0  0  0  0  0  0  0  0  0  0  0
  184.0720  178.4400  142.2100 C   0  0  0  0  0  3  0  0  0  0  0  0
  185.0780  178.4330  143.1850 C   0  0  0  0  0  0  0  0  0  0  0  0
  189.0300  177.5900  141.8620 O   0  0  0  0  0  0  0  0  0  0  0  0
  188.6070  177.8500  139.5340 C   0  0  0  0  0  2  0  0  0  0  0  0
  189.0690  176.9160  140.6280 C   0  0  1  0  0  3  0  0  0  0  0  0
  190.5040  176.5760  140.2820 C   0  0  0  0  0  2  0  0  0  0  0  0
  191.8080  176.8410  138.3620 C   0  0  0  0  0  1  0  0  0  0  0  0
  189.7820  177.9800  138.5920 C   0  0  0  0  0  2  0  0  0  0  0  0
  190.9710  177.5520  139.3110 N   0  0  0  0  0  0  0  0  0  0  0  0
  1 21  1  6  0  0  0
  1 12  1  0  0  0  0
  1  6  1  0  0  0  0
  2  5  1  0  0  0  0
  3  7  1  0  0  0  0
  4  6  1  0  0  0  0
  4  2  2  0  0  0  0
  5  7  2  0  0  0  0
  5  9  1  0  0  0  0
  6  3  2  0  0  0  0
  9  8  2  0  0  0  0
  9 10  1  0  0  0  0
 11 20  1  0  0  0  0
 11 12  1  0  0  0  0
 13 11  2  0  0  0  0
 16 14  1  0  0  0  0
 17 15  1  0  0  0  0
 17 14  2  0  0  0  0
 18 17  1  0  0  0  0
 19 18  2  0  0  0  0
 19 20  1  0  0  0  0
 20 16  2  0  0  0  0
 22 23  1  0  0  0  0
 23 21  1  1  0  0  0
 24 23  1  0  0  0  0
 25 27  1  0  0  0  0
 26 27  1  0  0  0  0
 26 22  1  0  0  0  0
 27 24  1  0  0  0  0
M  END
>  <MODEL>
8

>  <REMARK>
 VINA RESULT:      -7.0      3.165      6.909
  Name = 
  6 active torsions:
  status: ('A' for Active; 'I' for Inactive)
    1  A    between atoms: C_6  and  C_21
    2  A    between atoms: C_8  and  O_10
    3  A    between atoms: C_8  and  N_15
    4  A    between atoms: C_8  and  C_18
    5  A    between atoms: O_10  and  C_23
    6  A    between atoms: C_11  and  C_17
                            x       y       z     vdW  Elec       q    Type
                         _______ _______ _______ _____ _____    ______ ____

>  <TORSDO>
F 6

$$$$
=
 OpenBabel10232411443D

 27 29  0  0  1  0  0  0  0  0999 V2000
  189.1510  178.0440  142.1830 C   0  0  1  0  0  3  0  0  0  0  0  0
  190.8920  176.5430  139.1750 C   0  0  0  0  0  3  0  0  0  0  0  0
  188.5000  177.7700  139.7930 N   0  0  0  0  0  0  0  0  0  0  0  0
  190.6450  176.9740  140.4790 C   0  0  0  0  0  3  0  0  0  0  0  0
  189.9280  176.7320  138.1770 C   0  0  0  0  0  0  0  0  0  0  0  0
  189.4320  177.6000  140.7730 C   0  0  0  0  0  0  0  0  0  0  0  0
  188.7220  177.3550  138.5180 C   0  0  0  0  0  3  0  0  0  0  0  0
  190.8690  175.1050  136.5570 O   0  0  0  0  0  1  0  0  0  0  0  0
  190.1720  176.2830  136.7980 C   0  0  0  0  0  0  0  0  0  0  0  0
  189.7520  176.9620  135.8220 O   0  0  0  0  0  0  0  0  0  0  0  0
  186.7900  177.6620  143.0430 C   0  0  0  0  0  0  0  0  0  0  0  0
  187.7640  178.4670  142.3710 N   0  0  0  0  0  2  0  0  0  0  0  0
  187.1040  176.5160  143.4680 O   0  0  0  0  0  0  0  0  0  0  0  0
  183.6950  179.0900  144.6650 C   0  0  0  0  0  3  0  0  0  0  0  0
  181.5670  179.5840  143.7190 F   0  0  0  0  0  0  0  0  0  0  0  0
  184.9950  178.6130  144.4930 C   0  0  0  0  0  3  0  0  0  0  0  0
  182.8310  179.1220  143.5690 C   0  0  0  0  0  0  0  0  0  0  0  0
  183.2570  178.6900  142.3520 N   0  0  0  0  0  0  0  0  0  0  0  0
  184.5190  178.2190  142.1650 C   0  0  0  0  0  3  0  0  0  0  0  0
  185.4220  178.1710  143.2350 C   0  0  0  0  0  0  0  0  0  0  0  0
  189.5550  177.0930  143.1490 O   0  0  0  0  0  0  0  0  0  0  0  0
  189.4500  178.0980  145.3040 C   0  0  0  0  0  2  0  0  0  0  0  0
  190.3310  177.7300  144.1340 C   0  0  1  0  0  3  0  0  0  0  0  0
  191.3440  176.7510  144.6910 C   0  0  0  0  0  2  0  0  0  0  0  0
  191.9840  176.1450  146.8550 C   0  0  0  0  0  1  0  0  0  0  0  0
  190.0120  177.3430  146.4860 C   0  0  0  0  0  2  0  0  0  0  0  0
  190.8420  176.2680  145.9670 N   0  0  0  0  0  0  0  0  0  0  0  0
  1 12  1  6  0  0  0
  1 21  1  0  0  0  0
  2  4  1  0  0  0  0
  3  6  1  0  0  0  0
  4  6  2  0  0  0  0
  5  7  1  0  0  0  0
  5  2  2  0  0  0  0
  6  1  1  0  0  0  0
  7  3  2  0  0  0  0
  8  9  1  0  0  0  0
  9  5  1  0  0  0  0
 10  9  2  0  0  0  0
 11 20  1  0  0  0  0
 11 13  2  0  0  0  0
 12 11  1  0  0  0  0
 16 14  1  0  0  0  0
 17 15  1  0  0  0  0
 17 14  2  0  0  0  0
 18 17  1  0  0  0  0
 19 18  2  0  0  0  0
 19 20  1  0  0  0  0
 20 16  2  0  0  0  0
 22 26  1  0  0  0  0
 23 21  1  6  0  0  0
 23 24  1  0  0  0  0
 23 22  1  0  0  0  0
 24 27  1  0  0  0  0
 27 26  1  0  0  0  0
 27 25  1  0  0  0  0
M  END
>  <MODEL>
9

>  <REMARK>
 VINA RESULT:      -6.8      3.141      7.468
  Name = 
  6 active torsions:
  status: ('A' for Active; 'I' for Inactive)
    1  A    between atoms: C_6  and  C_21
    2  A    between atoms: C_8  and  O_10
    3  A    between atoms: C_8  and  N_15
    4  A    between atoms: C_8  and  C_18
    5  A    between atoms: O_10  and  C_23
    6  A    between atoms: C_11  and  C_17
                            x       y       z     vdW  Elec       q    Type
                         _______ _______ _______ _____ _____    ______ ____

>  <TORSDO>
F 6

$$$$
