=
 OpenBabel10232410033D

 28 29  0  0  1  0  0  0  0  0999 V2000
  183.9120  178.5750  142.1380 C   0  0  0  0  0  3  0  0  0  0  0  0
  184.9720  178.6810  143.0520 C   0  0  0  0  0  0  0  0  0  0  0  0
  182.3220  179.0140  143.9070 C   0  0  0  0  0  3  0  0  0  0  0  0
  184.6980  178.9560  144.4020 C   0  0  0  0  0  0  0  0  0  0  0  0
  183.3710  179.1220  144.8220 C   0  0  0  0  0  3  0  0  0  0  0  0
  182.5900  178.7370  142.5640 C   0  0  0  0  0  0  0  0  0  0  0  0
  186.3260  178.5160  142.6200 N   0  0  0  0  0  2  0  0  0  0  0  0
  186.7540  178.7330  141.2450 C   0  0  0  0  0  2  0  0  0  0  0  0
  188.5930  177.1940  141.8410 C   0  0  0  0  0  1  0  0  0  0  0  0
  188.6300  178.3480  139.6580 C   0  0  0  0  0  1  0  0  0  0  0  0
  188.2440  178.4780  141.1180 C   0  0  0  0  0  3  0  0  0  0  0  0
  185.7730  179.0680  145.3390 N   0  0  0  0  0  2  0  0  0  0  0  0
  186.1280  178.0050  146.1820 N   0  0  0  0  0  2  0  0  0  0  0  0
  189.2480  177.0160  147.8830 N   0  0  0  0  0  0  0  0  0  0  0  0
  189.7170  177.1910  145.5480 C   0  0  0  0  0  3  0  0  0  0  0  0
  188.3890  177.5510  145.3160 C   0  0  0  0  0  3  0  0  0  0  0  0
  187.4930  177.6400  146.3870 C   0  0  0  0  0  0  0  0  0  0  0  0
  187.9490  177.3640  147.6770 C   0  0  0  0  0  3  0  0  0  0  0  0
  190.1390  176.9230  146.8570 C   0  0  0  0  0  0  0  0  0  0  0  0
  192.1470  177.0270  148.1160 O   0  0  0  0  0  1  0  0  0  0  0  0
  192.1790  175.6350  146.3000 O   0  0  0  0  0  0  0  0  0  0  0  0
  191.5310  176.5410  147.1310 C   0  0  0  0  0  0  0  0  0  0  0  0
  181.4730  178.6380  141.5830 C   0  0  0  0  0  2  0  0  0  0  0  0
  181.9910  178.2390  140.2070 C   0  0  1  0  0  3  0  0  0  0  0  0
  181.4440  177.0140  139.8220 O   0  0  0  0  0  1  0  0  0  0  0  0
  182.6490  180.1880  138.7520 N   0  0  0  0  0  1  0  0  0  0  0  0
  180.4670  179.3950  138.7710 O   0  0  0  0  0  0  0  0  0  0  0  0
  181.6450  179.2880  139.2050 C   0  0  0  0  0  0  0  0  0  0  0  0
  1  6  2  0  0  0  0
  1  2  1  0  0  0  0
  2  4  2  0  0  0  0
  3  5  2  0  0  0  0
  4  5  1  0  0  0  0
  4 12  1  0  0  0  0
  6  3  1  0  0  0  0
  7  2  1  0  0  0  0
  8  7  1  0  0  0  0
 10 11  1  0  0  0  0
 11  8  1  0  0  0  0
 11  9  1  0  0  0  0
 12 13  1  0  0  0  0
 13 17  1  0  0  0  0
 15 19  1  0  0  0  0
 16 15  2  0  0  0  0
 16 17  1  0  0  0  0
 17 18  2  0  0  0  0
 18 14  1  0  0  0  0
 19 22  1  0  0  0  0
 19 14  2  0  0  0  0
 21 22  2  0  0  0  0
 22 20  1  0  0  0  0
 23  6  1  0  0  0  0
 24 25  1  6  0  0  0
 24 23  1  0  0  0  0
 26 28  1  0  0  0  0
 27 28  2  0  0  0  0
 28 24  1  0  0  0  0
M  END
>  <MODEL>
1

>  <REMARK>
 VINA RESULT:      -7.5      0.000      0.000
  Name = 
  10 active torsions:
  status: ('A' for Active; 'I' for Inactive)
    1  A    between atoms: N_2  and  C_15
    2  A    between atoms: N_2  and  N_23
    3  A    between atoms: C_7  and  N_11
    4  A    between atoms: C_8  and  N_11
    5  A    between atoms: C_8  and  C_14
    6  A    between atoms: C_18  and  C_25
    7  A    between atoms: C_18  and  C_26
    8  A    between atoms: CA_19  and  C_22
    9  A    between atoms: N_23  and  C_24
   10  A    between atoms: C_26  and  C_28
                            x       y       z     vdW  Elec       q    Type
                         _______ _______ _______ _____ _____    ______ ____

>  <TORSDO>
F 10

$$$$
=
 OpenBabel10232410033D

 28 29  0  0  1  0  0  0  0  0999 V2000
  188.6520  177.3950  145.6860 C   0  0  0  0  0  3  0  0  0  0  0  0
  187.3280  177.6020  145.2670 C   0  0  0  0  0  0  0  0  0  0  0  0
  188.0590  178.0470  147.9380 C   0  0  0  0  0  3  0  0  0  0  0  0
  186.3670  178.0350  146.1960 C   0  0  0  0  0  0  0  0  0  0  0  0
  186.7400  178.2550  147.5300 C   0  0  0  0  0  3  0  0  0  0  0  0
  189.0180  177.6200  147.0160 C   0  0  0  0  0  0  0  0  0  0  0  0
  186.9490  177.3740  143.9060 N   0  0  0  0  0  2  0  0  0  0  0  0
  187.8520  176.8070  142.9140 C   0  0  0  0  0  2  0  0  0  0  0  0
  189.7810  177.3670  141.4740 C   0  0  0  0  0  1  0  0  0  0  0  0
  187.6070  178.4710  141.0820 C   0  0  0  0  0  1  0  0  0  0  0  0
  188.5390  177.9180  142.1420 C   0  0  0  0  0  3  0  0  0  0  0  0
  185.0160  178.2470  145.7780 N   0  0  0  0  0  2  0  0  0  0  0  0
  184.6690  179.2930  144.9120 N   0  0  0  0  0  2  0  0  0  0  0  0
  183.4030  178.6440  141.5090 N   0  0  0  0  0  0  0  0  0  0  0  0
  181.5160  178.9480  142.9400 C   0  0  0  0  0  3  0  0  0  0  0  0
  182.3770  179.1480  144.0190 C   0  0  0  0  0  3  0  0  0  0  0  0
  183.7620  179.0930  143.8270 C   0  0  0  0  0  0  0  0  0  0  0  0
  184.2590  178.8360  142.5490 C   0  0  0  0  0  3  0  0  0  0  0  0
  182.0520  178.6930  141.6710 C   0  0  0  0  0  0  0  0  0  0  0  0
  180.9470  177.3150  140.0870 O   0  0  0  0  0  1  0  0  0  0  0  0
  180.5710  179.5630  139.8870 O   0  0  0  0  0  0  0  0  0  0  0  0
  181.1690  178.4780  140.5160 C   0  0  0  0  0  0  0  0  0  0  0  0
  190.4230  177.3810  147.4530 C   0  0  0  0  0  2  0  0  0  0  0  0
  191.2260  176.7000  146.3530 C   0  0  1  0  0  3  0  0  0  0  0  0
  191.8930  177.6540  145.5810 O   0  0  0  0  0  1  0  0  0  0  0  0
  192.7220  175.9940  148.2530 N   0  0  0  0  0  1  0  0  0  0  0  0
  192.6020  174.7440  146.3000 O   0  0  0  0  0  0  0  0  0  0  0  0
  192.2090  175.7510  146.9490 C   0  0  0  0  0  0  0  0  0  0  0  0
  1  6  1  0  0  0  0
  2  1  2  0  0  0  0
  2  4  1  0  0  0  0
  4  5  2  0  0  0  0
  5  3  1  0  0  0  0
  6 23  1  0  0  0  0
  6  3  2  0  0  0  0
  7  2  1  0  0  0  0
  8  7  1  0  0  0  0
  9 11  1  0  0  0  0
 10 11  1  0  0  0  0
 11  8  1  0  0  0  0
 12  4  1  0  0  0  0
 13 12  1  0  0  0  0
 14 19  2  0  0  0  0
 14 18  1  0  0  0  0
 15 16  2  0  0  0  0
 17 16  1  0  0  0  0
 17 13  1  0  0  0  0
 18 17  2  0  0  0  0
 19 15  1  0  0  0  0
 20 22  1  0  0  0  0
 21 22  2  0  0  0  0
 22 19  1  0  0  0  0
 24 25  1  1  0  0  0
 24 28  1  0  0  0  0
 24 23  1  0  0  0  0
 27 28  2  0  0  0  0
 28 26  1  0  0  0  0
M  END
>  <MODEL>
2

>  <REMARK>
 VINA RESULT:      -7.2      1.434      8.671
  Name = 
  10 active torsions:
  status: ('A' for Active; 'I' for Inactive)
    1  A    between atoms: N_2  and  C_15
    2  A    between atoms: N_2  and  N_23
    3  A    between atoms: C_7  and  N_11
    4  A    between atoms: C_8  and  N_11
    5  A    between atoms: C_8  and  C_14
    6  A    between atoms: C_18  and  C_25
    7  A    between atoms: C_18  and  C_26
    8  A    between atoms: CA_19  and  C_22
    9  A    between atoms: N_23  and  C_24
   10  A    between atoms: C_26  and  C_28
                            x       y       z     vdW  Elec       q    Type
                         _______ _______ _______ _____ _____    ______ ____

>  <TORSDO>
F 10

$$$$
=
 OpenBabel10232410033D

 28 29  0  0  1  0  0  0  0  0999 V2000
  187.8200  177.6580  143.6360 C   0  0  0  0  0  3  0  0  0  0  0  0
  188.4700  177.9240  142.4210 C   0  0  0  0  0  0  0  0  0  0  0  0
  185.7280  178.4390  142.7090 C   0  0  0  0  0  3  0  0  0  0  0  0
  187.7370  178.4520  141.3440 C   0  0  0  0  0  0  0  0  0  0  0  0
  186.3660  178.7060  141.4960 C   0  0  0  0  0  3  0  0  0  0  0  0
  186.4550  177.9180  143.7820 C   0  0  0  0  0  0  0  0  0  0  0  0
  189.8680  177.6600  142.2670 N   0  0  0  0  0  2  0  0  0  0  0  0
  190.5670  176.6240  143.0140 C   0  0  0  0  0  2  0  0  0  0  0  0
  191.5140  178.7600  143.8180 C   0  0  0  0  0  1  0  0  0  0  0  0
  191.2480  176.8770  145.3930 C   0  0  0  0  0  1  0  0  0  0  0  0
  191.5710  177.2540  143.9610 C   0  0  0  0  0  3  0  0  0  0  0  0
  188.3910  178.7250  140.1020 N   0  0  0  0  0  2  0  0  0  0  0  0
  187.9070  178.2160  138.8880 N   0  0  0  0  0  2  0  0  0  0  0  0
  190.3040  175.5310  138.0830 N   0  0  0  0  0  0  0  0  0  0  0  0
  188.3310  175.1540  136.7930 C   0  0  0  0  0  3  0  0  0  0  0  0
  187.7530  176.2920  137.3570 C   0  0  0  0  0  3  0  0  0  0  0  0
  188.4700  177.0470  138.2930 C   0  0  0  0  0  0  0  0  0  0  0  0
  189.7580  176.6430  138.6460 C   0  0  0  0  0  3  0  0  0  0  0  0
  189.6260  174.7800  137.1710 C   0  0  0  0  0  0  0  0  0  0  0  0
  191.4790  173.3460  136.7930 O   0  0  0  0  0  1  0  0  0  0  0  0
  189.5090  172.7080  135.8190 O   0  0  0  0  0  0  0  0  0  0  0  0
  190.2590  173.5860  136.5930 C   0  0  0  0  0  0  0  0  0  0  0  0
  185.7720  177.6160  145.0720 C   0  0  0  0  0  2  0  0  0  0  0  0
  185.3660  178.8990  145.7850 C   0  0  1  0  0  3  0  0  0  0  0  0
  183.9890  178.9090  146.0150 O   0  0  0  0  0  1  0  0  0  0  0  0
  187.0890  178.0590  147.4200 N   0  0  0  0  0  1  0  0  0  0  0  0
  185.8320  179.9550  147.8800 O   0  0  0  0  0  0  0  0  0  0  0  0
  186.0980  179.0190  147.0790 C   0  0  0  0  0  0  0  0  0  0  0  0
  1  6  1  0  0  0  0
  2  1  2  0  0  0  0
  3  6  2  0  0  0  0
  4  5  2  0  0  0  0
  4  2  1  0  0  0  0
  5  3  1  0  0  0  0
  6 23  1  0  0  0  0
  7  2  1  0  0  0  0
  7  8  1  0  0  0  0
  8 11  1  0  0  0  0
  9 11  1  0  0  0  0
 11 10  1  0  0  0  0
 12  4  1  0  0  0  0
 13 12  1  0  0  0  0
 14 18  1  0  0  0  0
 15 19  1  0  0  0  0
 15 16  2  0  0  0  0
 16 17  1  0  0  0  0
 17 18  2  0  0  0  0
 17 13  1  0  0  0  0
 19 14  2  0  0  0  0
 21 22  2  0  0  0  0
 22 20  1  0  0  0  0
 22 19  1  0  0  0  0
 23 24  1  0  0  0  0
 24 25  1  1  0  0  0
 24 28  1  0  0  0  0
 28 26  1  0  0  0  0
 28 27  2  0  0  0  0
M  END
>  <MODEL>
3

>  <REMARK>
 VINA RESULT:      -7.2      4.287      7.580
  Name = 
  10 active torsions:
  status: ('A' for Active; 'I' for Inactive)
    1  A    between atoms: N_2  and  C_15
    2  A    between atoms: N_2  and  N_23
    3  A    between atoms: C_7  and  N_11
    4  A    between atoms: C_8  and  N_11
    5  A    between atoms: C_8  and  C_14
    6  A    between atoms: C_18  and  C_25
    7  A    between atoms: C_18  and  C_26
    8  A    between atoms: CA_19  and  C_22
    9  A    between atoms: N_23  and  C_24
   10  A    between atoms: C_26  and  C_28
                            x       y       z     vdW  Elec       q    Type
                         _______ _______ _______ _____ _____    ______ ____

>  <TORSDO>
F 10

$$$$
=
 OpenBabel10232410033D

 28 29  0  0  1  0  0  0  0  0999 V2000
  191.0700  176.6260  139.0510 C   0  0  0  0  0  3  0  0  0  0  0  0
  190.2540  177.3680  139.9190 C   0  0  0  0  0  0  0  0  0  0  0  0
  189.7390  177.3370  137.1610 C   0  0  0  0  0  3  0  0  0  0  0  0
  189.1730  178.0990  139.3970 C   0  0  0  0  0  0  0  0  0  0  0  0
  188.9220  178.0790  138.0180 C   0  0  0  0  0  3  0  0  0  0  0  0
  190.8120  176.6070  137.6780 C   0  0  0  0  0  0  0  0  0  0  0  0
  190.5140  177.3900  141.3260 N   0  0  0  0  0  2  0  0  0  0  0  0
  190.1810  176.2840  142.2120 C   0  0  0  0  0  2  0  0  0  0  0  0
  191.6510  176.0270  144.1830 C   0  0  0  0  0  1  0  0  0  0  0  0
  190.5550  178.1980  143.7560 C   0  0  0  0  0  1  0  0  0  0  0  0
  190.3970  176.6940  143.6570 C   0  0  0  0  0  3  0  0  0  0  0  0
  188.3370  178.8590  140.2740 N   0  0  0  0  0  2  0  0  0  0  0  0
  186.9940  178.5190  140.4890 N   0  0  0  0  0  2  0  0  0  0  0  0
  184.7310  179.4580  143.2460 N   0  0  0  0  0  0  0  0  0  0  0  0
  186.3360  177.9170  144.1150 C   0  0  0  0  0  3  0  0  0  0  0  0
  186.9290  177.8370  142.8550 C   0  0  0  0  0  3  0  0  0  0  0  0
  186.4090  178.5800  141.7900 C   0  0  0  0  0  0  0  0  0  0  0  0
  185.2960  179.3930  142.0100 C   0  0  0  0  0  3  0  0  0  0  0  0
  185.2200  178.7440  144.2990 C   0  0  0  0  0  0  0  0  0  0  0  0
  183.3480  179.1250  145.7070 O   0  0  0  0  0  0  0  0  0  0  0  0
  185.3160  178.6390  146.7710 O   0  0  0  0  0  1  0  0  0  0  0  0
  184.5740  178.8480  145.6140 C   0  0  0  0  0  0  0  0  0  0  0  0
  191.6960  175.8280  136.7640 C   0  0  0  0  0  2  0  0  0  0  0  0
  192.6480  174.9410  137.5540 C   0  0  1  0  0  3  0  0  0  0  0  0
  192.6340  173.6420  137.0430 O   0  0  0  0  0  1  0  0  0  0  0  0
  194.3660  176.4530  136.5000 N   0  0  0  0  0  1  0  0  0  0  0  0
  194.9110  175.1080  138.3120 O   0  0  0  0  0  0  0  0  0  0  0  0
  194.0320  175.4950  137.4960 C   0  0  0  0  0  0  0  0  0  0  0  0
  1  2  1  0  0  0  0
  2  7  1  0  0  0  0
  3  6  1  0  0  0  0
  3  5  2  0  0  0  0
  4  2  2  0  0  0  0
  4 12  1  0  0  0  0
  5  4  1  0  0  0  0
  6  1  2  0  0  0  0
  7  8  1  0  0  0  0
  8 11  1  0  0  0  0
 11 10  1  0  0  0  0
 11  9  1  0  0  0  0
 12 13  1  0  0  0  0
 13 17  1  0  0  0  0
 14 19  1  0  0  0  0
 15 19  2  0  0  0  0
 16 15  1  0  0  0  0
 17 18  1  0  0  0  0
 17 16  2  0  0  0  0
 18 14  2  0  0  0  0
 19 22  1  0  0  0  0
 22 20  2  0  0  0  0
 22 21  1  0  0  0  0
 23 24  1  0  0  0  0
 23  6  1  0  0  0  0
 24 25  1  6  0  0  0
 26 28  1  0  0  0  0
 28 24  1  0  0  0  0
 28 27  2  0  0  0  0
M  END
>  <MODEL>
4

>  <REMARK>
 VINA RESULT:      -7.1      4.495      8.280
  Name = 
  10 active torsions:
  status: ('A' for Active; 'I' for Inactive)
    1  A    between atoms: N_2  and  C_15
    2  A    between atoms: N_2  and  N_23
    3  A    between atoms: C_7  and  N_11
    4  A    between atoms: C_8  and  N_11
    5  A    between atoms: C_8  and  C_14
    6  A    between atoms: C_18  and  C_25
    7  A    between atoms: C_18  and  C_26
    8  A    between atoms: CA_19  and  C_22
    9  A    between atoms: N_23  and  C_24
   10  A    between atoms: C_26  and  C_28
                            x       y       z     vdW  Elec       q    Type
                         _______ _______ _______ _____ _____    ______ ____

>  <TORSDO>
F 10

$$$$
=
 OpenBabel10232410033D

 28 29  0  0  1  0  0  0  0  0999 V2000
  185.7490  178.4310  142.8260 C   0  0  0  0  0  3  0  0  0  0  0  0
  186.2860  178.6820  141.5540 C   0  0  0  0  0  0  0  0  0  0  0  0
  187.8770  177.5530  143.5700 C   0  0  0  0  0  3  0  0  0  0  0  0
  187.6300  178.3640  141.2940 C   0  0  0  0  0  0  0  0  0  0  0  0
  188.4190  177.8000  142.3070 C   0  0  0  0  0  3  0  0  0  0  0  0
  186.5400  177.8640  143.8300 C   0  0  0  0  0  0  0  0  0  0  0  0
  185.4800  179.2610  140.5230 N   0  0  0  0  0  2  0  0  0  0  0  0
  184.0320  179.1220  140.4750 C   0  0  0  0  0  2  0  0  0  0  0  0
  184.8320  178.1990  138.3270 C   0  0  0  0  0  1  0  0  0  0  0  0
  183.0760  177.0040  139.5870 C   0  0  0  0  0  1  0  0  0  0  0  0
  183.6230  178.3700  139.2220 C   0  0  0  0  0  3  0  0  0  0  0  0
  188.1860  178.6180  140.0010 N   0  0  0  0  0  2  0  0  0  0  0  0
  188.4460  177.5810  139.0950 N   0  0  0  0  0  2  0  0  0  0  0  0
  191.3280  176.4950  137.0650 N   0  0  0  0  0  0  0  0  0  0  0  0
  192.1160  176.9110  139.2810 C   0  0  0  0  0  3  0  0  0  0  0  0
  190.8220  177.2630  139.6660 C   0  0  0  0  0  3  0  0  0  0  0  0
  189.7810  177.2260  138.7320 C   0  0  0  0  0  0  0  0  0  0  0  0
  190.0600  176.8350  137.4220 C   0  0  0  0  0  3  0  0  0  0  0  0
  192.3580  176.5220  137.9570 C   0  0  0  0  0  0  0  0  0  0  0  0
  194.2140  176.6520  136.4840 O   0  0  0  0  0  0  0  0  0  0  0  0
  194.4460  175.2280  138.2610 O   0  0  0  0  0  1  0  0  0  0  0  0
  193.7100  176.1470  137.5230 C   0  0  0  0  0  0  0  0  0  0  0  0
  185.9630  177.6170  145.1830 C   0  0  0  0  0  2  0  0  0  0  0  0
  185.4880  178.9180  145.8170 C   0  0  1  0  0  3  0  0  0  0  0  0
  184.1030  178.8910  145.9920 O   0  0  0  0  0  1  0  0  0  0  0  0
  187.1220  178.1760  147.5860 N   0  0  0  0  0  1  0  0  0  0  0  0
  185.8790  180.1190  147.8480 O   0  0  0  0  0  0  0  0  0  0  0  0
  186.1630  179.1230  147.1310 C   0  0  0  0  0  0  0  0  0  0  0  0
  1  6  1  0  0  0  0
  2  1  2  0  0  0  0
  3  6  2  0  0  0  0
  4  2  1  0  0  0  0
  4  5  2  0  0  0  0
  5  3  1  0  0  0  0
  6 23  1  0  0  0  0
  7  2  1  0  0  0  0
  8  7  1  0  0  0  0
  9 11  1  0  0  0  0
 11 10  1  0  0  0  0
 11  8  1  0  0  0  0
 12  4  1  0  0  0  0
 13 12  1  0  0  0  0
 14 18  2  0  0  0  0
 14 19  1  0  0  0  0
 15 16  1  0  0  0  0
 17 13  1  0  0  0  0
 17 16  2  0  0  0  0
 18 17  1  0  0  0  0
 19 15  2  0  0  0  0
 20 22  2  0  0  0  0
 22 19  1  0  0  0  0
 22 21  1  0  0  0  0
 23 24  1  0  0  0  0
 24 25  1  1  0  0  0
 24 28  1  0  0  0  0
 28 26  1  0  0  0  0
 28 27  2  0  0  0  0
M  END
>  <MODEL>
5

>  <REMARK>
 VINA RESULT:      -7.1      4.208      7.306
  Name = 
  10 active torsions:
  status: ('A' for Active; 'I' for Inactive)
    1  A    between atoms: N_2  and  C_15
    2  A    between atoms: N_2  and  N_23
    3  A    between atoms: C_7  and  N_11
    4  A    between atoms: C_8  and  N_11
    5  A    between atoms: C_8  and  C_14
    6  A    between atoms: C_18  and  C_25
    7  A    between atoms: C_18  and  C_26
    8  A    between atoms: CA_19  and  C_22
    9  A    between atoms: N_23  and  C_24
   10  A    between atoms: C_26  and  C_28
                            x       y       z     vdW  Elec       q    Type
                         _______ _______ _______ _____ _____    ______ ____

>  <TORSDO>
F 10

$$$$
=
 OpenBabel10232410033D

 28 29  0  0  1  0  0  0  0  0999 V2000
  187.8660  176.7630  143.2740 C   0  0  0  0  0  3  0  0  0  0  0  0
  189.0310  176.6640  142.4970 C   0  0  0  0  0  0  0  0  0  0  0  0
  187.0060  178.4760  141.8000 C   0  0  0  0  0  3  0  0  0  0  0  0
  189.1780  177.4810  141.3630 C   0  0  0  0  0  0  0  0  0  0  0  0
  188.1610  178.3840  141.0210 C   0  0  0  0  0  3  0  0  0  0  0  0
  186.8580  177.6680  142.9300 C   0  0  0  0  0  0  0  0  0  0  0  0
  190.0650  175.7390  142.8470 N   0  0  0  0  0  2  0  0  0  0  0  0
  191.2900  176.1370  143.5250 C   0  0  0  0  0  2  0  0  0  0  0  0
  191.5530  176.8060  145.8900 C   0  0  0  0  0  1  0  0  0  0  0  0
  191.6250  178.5280  144.1220 C   0  0  0  0  0  1  0  0  0  0  0  0
  190.9910  177.2180  144.5460 C   0  0  0  0  0  3  0  0  0  0  0  0
  190.3610  177.3860  140.5650 N   0  0  0  0  0  0  0  0  0  0  0  0
  190.3000  177.2420  139.1720 N   0  0  0  0  0  0  0  0  0  0  0  0
  193.7540  176.3150  138.2710 N   0  0  0  0  0  0  0  0  0  0  0  0
  192.3410  175.7190  136.4400 C   0  0  0  0  0  3  0  0  0  0  0  0
  191.2370  176.2000  137.1460 C   0  0  0  0  0  3  0  0  0  0  0  0
  191.4090  176.7410  138.4250 C   0  0  0  0  0  0  0  0  0  0  0  0
  192.6900  176.7880  138.9750 C   0  0  0  0  0  3  0  0  0  0  0  0
  193.6130  175.7840  137.0240 C   0  0  0  0  0  0  0  0  0  0  0  0
  195.8240  175.9980  136.1920 O   0  0  0  0  0  1  0  0  0  0  0  0
  194.7760  174.0130  135.7440 O   0  0  0  0  0  0  0  0  0  0  0  0
  194.7920  175.2840  136.3050 C   0  0  0  0  0  0  0  0  0  0  0  0
  185.6180  177.7530  143.7530 C   0  0  0  0  0  2  0  0  0  0  0  0
  185.6510  178.9750  144.6610 C   0  0  1  0  0  3  0  0  0  0  0  0
  184.4530  179.6850  144.5580 O   0  0  0  0  0  1  0  0  0  0  0  0
  184.7920  178.5860  146.9980 N   0  0  0  0  0  1  0  0  0  0  0  0
  187.0170  178.1950  146.4630 O   0  0  0  0  0  0  0  0  0  0  0  0
  185.8740  178.5570  146.0750 C   0  0  0  0  0  0  0  0  0  0  0  0
  2  7  1  0  0  0  0
  2  1  2  0  0  0  0
  3  6  2  0  0  0  0
  4  2  1  0  0  0  0
  5  4  2  0  0  0  0
  5  3  1  0  0  0  0
  6  1  1  0  0  0  0
  6 23  1  0  0  0  0
  7  8  1  0  0  0  0
  8 11  1  0  0  0  0
 10 11  1  0  0  0  0
 11  9  1  0  0  0  0
 12  4  1  0  0  0  0
 13 12  2  0  0  0  0
 14 18  1  0  0  0  0
 15 19  1  0  0  0  0
 15 16  2  0  0  0  0
 16 17  1  0  0  0  0
 17 18  2  0  0  0  0
 17 13  1  0  0  0  0
 19 14  2  0  0  0  0
 20 22  1  0  0  0  0
 21 22  2  0  0  0  0
 22 19  1  0  0  0  0
 23 24  1  0  0  0  0
 24 25  1  1  0  0  0
 24 28  1  0  0  0  0
 28 27  2  0  0  0  0
 28 26  1  0  0  0  0
M  END
>  <MODEL>
6

>  <REMARK>
 VINA RESULT:      -7.0      4.896      7.829
  Name = 
  10 active torsions:
  status: ('A' for Active; 'I' for Inactive)
    1  A    between atoms: N_2  and  C_15
    2  A    between atoms: N_2  and  N_23
    3  A    between atoms: C_7  and  N_11
    4  A    between atoms: C_8  and  N_11
    5  A    between atoms: C_8  and  C_14
    6  A    between atoms: C_18  and  C_25
    7  A    between atoms: C_18  and  C_26
    8  A    between atoms: CA_19  and  C_22
    9  A    between atoms: N_23  and  C_24
   10  A    between atoms: C_26  and  C_28
                            x       y       z     vdW  Elec       q    Type
                         _______ _______ _______ _____ _____    ______ ____

>  <TORSDO>
F 10

$$$$
=
 OpenBabel10232410033D

 28 29  0  0  1  0  0  0  0  0999 V2000
  184.6510  178.9440  144.8410 C   0  0  0  0  0  3  0  0  0  0  0  0
  185.9420  178.4390  144.6210 C   0  0  0  0  0  0  0  0  0  0  0  0
  184.0800  178.5420  142.5250 C   0  0  0  0  0  3  0  0  0  0  0  0
  186.2990  177.9830  143.3400 C   0  0  0  0  0  0  0  0  0  0  0  0
  185.3630  178.0380  142.2980 C   0  0  0  0  0  3  0  0  0  0  0  0
  183.7240  178.9990  143.7960 C   0  0  0  0  0  0  0  0  0  0  0  0
  186.8940  178.3810  145.6870 N   0  0  0  0  0  2  0  0  0  0  0  0
  186.9150  177.3130  146.6770 C   0  0  0  0  0  2  0  0  0  0  0  0
  189.3280  177.6240  146.2430 C   0  0  0  0  0  1  0  0  0  0  0  0
  188.4330  178.0450  148.5060 C   0  0  0  0  0  1  0  0  0  0  0  0
  188.3060  177.1800  147.2680 C   0  0  0  0  0  3  0  0  0  0  0  0
  187.6110  177.4660  143.1080 N   0  0  0  0  0  2  0  0  0  0  0  0
  188.5910  178.2170  142.4430 N   0  0  0  0  0  2  0  0  0  0  0  0
  188.6660  178.1170  138.7560 N   0  0  0  0  0  0  0  0  0  0  0  0
  190.4760  176.7800  139.5560 C   0  0  0  0  0  3  0  0  0  0  0  0
  190.1020  177.0730  140.8680 C   0  0  0  0  0  3  0  0  0  0  0  0
  188.9980  177.8980  141.1120 C   0  0  0  0  0  0  0  0  0  0  0  0
  188.2870  178.4150  140.0280 C   0  0  0  0  0  3  0  0  0  0  0  0
  189.7370  177.3170  138.4940 C   0  0  0  0  0  0  0  0  0  0  0  0
  189.4660  177.5380  136.1470 O   0  0  0  0  0  0  0  0  0  0  0  0
  191.1760  176.1790  136.8310 O   0  0  0  0  0  1  0  0  0  0  0  0
  190.1080  177.0260  137.1020 C   0  0  0  0  0  0  0  0  0  0  0  0
  182.3500  179.5220  144.0450 C   0  0  0  0  0  2  0  0  0  0  0  0
  181.3170  178.7400  143.2440 C   0  0  1  0  0  3  0  0  0  0  0  0
  180.4210  178.1030  144.1040 O   0  0  0  0  0  1  0  0  0  0  0  0
  180.5650  179.3950  140.9300 N   0  0  0  0  0  1  0  0  0  0  0  0
  179.9820  180.6700  142.7800 O   0  0  0  0  0  0  0  0  0  0  0  0
  180.5790  179.6560  142.3280 C   0  0  0  0  0  0  0  0  0  0  0  0
  2  1  1  0  0  0  0
  2  7  1  0  0  0  0
  3  6  1  0  0  0  0
  4  2  2  0  0  0  0
  5  3  2  0  0  0  0
  5  4  1  0  0  0  0
  6 23  1  0  0  0  0
  6  1  2  0  0  0  0
  7  8  1  0  0  0  0
  8 11  1  0  0  0  0
  9 11  1  0  0  0  0
 11 10  1  0  0  0  0
 12  4  1  0  0  0  0
 13 12  1  0  0  0  0
 14 18  1  0  0  0  0
 15 16  2  0  0  0  0
 16 17  1  0  0  0  0
 17 13  1  0  0  0  0
 18 17  2  0  0  0  0
 19 14  2  0  0  0  0
 19 15  1  0  0  0  0
 20 22  2  0  0  0  0
 21 22  1  0  0  0  0
 22 19  1  0  0  0  0
 24 23  1  0  0  0  0
 24 25  1  1  0  0  0
 26 28  1  0  0  0  0
 28 27  2  0  0  0  0
 28 24  1  0  0  0  0
M  END
>  <MODEL>
7

>  <REMARK>
 VINA RESULT:      -7.0      3.437      5.892
  Name = 
  10 active torsions:
  status: ('A' for Active; 'I' for Inactive)
    1  A    between atoms: N_2  and  C_15
    2  A    between atoms: N_2  and  N_23
    3  A    between atoms: C_7  and  N_11
    4  A    between atoms: C_8  and  N_11
    5  A    between atoms: C_8  and  C_14
    6  A    between atoms: C_18  and  C_25
    7  A    between atoms: C_18  and  C_26
    8  A    between atoms: CA_19  and  C_22
    9  A    between atoms: N_23  and  C_24
   10  A    between atoms: C_26  and  C_28
                            x       y       z     vdW  Elec       q    Type
                         _______ _______ _______ _____ _____    ______ ____

>  <TORSDO>
F 10

$$$$
=
 OpenBabel10232410033D

 28 29  0  0  1  0  0  0  0  0999 V2000
  187.2060  177.9450  143.4990 C   0  0  0  0  0  3  0  0  0  0  0  0
  187.0030  178.4810  142.2180 C   0  0  0  0  0  0  0  0  0  0  0  0
  184.9040  178.4110  144.0780 C   0  0  0  0  0  3  0  0  0  0  0  0
  185.7380  178.9840  141.8700 C   0  0  0  0  0  0  0  0  0  0  0  0
  184.6940  178.9460  142.8050 C   0  0  0  0  0  3  0  0  0  0  0  0
  186.1620  177.9130  144.4280 C   0  0  0  0  0  0  0  0  0  0  0  0
  188.0690  178.5160  141.2640 N   0  0  0  0  0  2  0  0  0  0  0  0
  188.7520  177.3200  140.7920 C   0  0  0  0  0  2  0  0  0  0  0  0
  190.2970  176.1690  142.3410 C   0  0  0  0  0  1  0  0  0  0  0  0
  191.1520  177.0460  140.1970 C   0  0  0  0  0  1  0  0  0  0  0  0
  190.1710  177.2870  141.3270 C   0  0  0  0  0  3  0  0  0  0  0  0
  185.5220  179.5310  140.5660 N   0  0  0  0  0  2  0  0  0  0  0  0
  184.2950  179.3900  139.9030 N   0  0  0  0  0  2  0  0  0  0  0  0
  184.0810  176.5660  137.5390 N   0  0  0  0  0  0  0  0  0  0  0  0
  182.6050  176.1040  139.3580 C   0  0  0  0  0  3  0  0  0  0  0  0
  182.9700  177.3130  139.9510 C   0  0  0  0  0  3  0  0  0  0  0  0
  183.9010  178.1470  139.3210 C   0  0  0  0  0  0  0  0  0  0  0  0
  184.4500  177.7490  138.1020 C   0  0  0  0  0  3  0  0  0  0  0  0
  183.1770  175.7380  138.1330 C   0  0  0  0  0  0  0  0  0  0  0  0
  183.7020  173.6560  137.1220 O   0  0  0  0  0  0  0  0  0  0  0  0
  181.4740  174.1620  137.2690 O   0  0  0  0  0  1  0  0  0  0  0  0
  182.8120  174.4710  137.4850 C   0  0  0  0  0  0  0  0  0  0  0  0
  186.3850  177.3270  145.7800 C   0  0  0  0  0  2  0  0  0  0  0  0
  187.0060  178.3510  146.7210 C   0  0  1  0  0  3  0  0  0  0  0  0
  186.0110  178.9830  147.4700 O   0  0  0  0  0  1  0  0  0  0  0  0
  189.0420  176.9110  147.0830 N   0  0  0  0  0  1  0  0  0  0  0  0
  187.8640  177.7870  148.8820 O   0  0  0  0  0  0  0  0  0  0  0  0
  187.9820  177.6840  147.6310 C   0  0  0  0  0  0  0  0  0  0  0  0
  1  6  1  0  0  0  0
  2  1  2  0  0  0  0
  3  6  2  0  0  0  0
  4  2  1  0  0  0  0
  4  5  2  0  0  0  0
  5  3  1  0  0  0  0
  6 23  1  0  0  0  0
  7  2  1  0  0  0  0
  8  7  1  0  0  0  0
  8 11  1  0  0  0  0
 10 11  1  0  0  0  0
 11  9  1  0  0  0  0
 12  4  1  0  0  0  0
 13 12  1  0  0  0  0
 14 18  2  0  0  0  0
 14 19  1  0  0  0  0
 15 16  1  0  0  0  0
 17 13  1  0  0  0  0
 17 16  2  0  0  0  0
 18 17  1  0  0  0  0
 19 15  2  0  0  0  0
 20 22  2  0  0  0  0
 21 22  1  0  0  0  0
 22 19  1  0  0  0  0
 23 24  1  0  0  0  0
 24 25  1  1  0  0  0
 24 28  1  0  0  0  0
 26 28  1  0  0  0  0
 28 27  2  0  0  0  0
M  END
>  <MODEL>
8

>  <REMARK>
 VINA RESULT:      -6.8      2.802      8.218
  Name = 
  10 active torsions:
  status: ('A' for Active; 'I' for Inactive)
    1  A    between atoms: N_2  and  C_15
    2  A    between atoms: N_2  and  N_23
    3  A    between atoms: C_7  and  N_11
    4  A    between atoms: C_8  and  N_11
    5  A    between atoms: C_8  and  C_14
    6  A    between atoms: C_18  and  C_25
    7  A    between atoms: C_18  and  C_26
    8  A    between atoms: CA_19  and  C_22
    9  A    between atoms: N_23  and  C_24
   10  A    between atoms: C_26  and  C_28
                            x       y       z     vdW  Elec       q    Type
                         _______ _______ _______ _____ _____    ______ ____

>  <TORSDO>
F 10

$$$$
=
 OpenBabel10232410033D

 28 29  0  0  1  0  0  0  0  0999 V2000
  187.6600  177.4740  144.4490 C   0  0  0  0  0  3  0  0  0  0  0  0
  186.8310  178.0210  143.4580 C   0  0  0  0  0  0  0  0  0  0  0  0
  186.0590  178.0920  146.1540 C   0  0  0  0  0  3  0  0  0  0  0  0
  185.6070  178.6070  143.8240 C   0  0  0  0  0  0  0  0  0  0  0  0
  185.2280  178.6380  145.1740 C   0  0  0  0  0  3  0  0  0  0  0  0
  187.2780  177.5130  145.7930 C   0  0  0  0  0  0  0  0  0  0  0  0
  187.2180  177.9850  142.0810 N   0  0  0  0  0  2  0  0  0  0  0  0
  188.5310  178.4080  141.6130 C   0  0  0  0  0  2  0  0  0  0  0  0
  189.7880  177.5600  139.6620 C   0  0  0  0  0  1  0  0  0  0  0  0
  190.4720  176.8870  141.9370 C   0  0  0  0  0  1  0  0  0  0  0  0
  189.2880  177.2200  141.0510 C   0  0  0  0  0  3  0  0  0  0  0  0
  184.7550  179.1650  142.8200 N   0  0  0  0  0  2  0  0  0  0  0  0
  183.7320  178.4160  142.2230 N   0  0  0  0  0  2  0  0  0  0  0  0
  184.6160  178.5430  138.6440 N   0  0  0  0  0  0  0  0  0  0  0  0
  182.9510  176.8540  138.9220 C   0  0  0  0  0  3  0  0  0  0  0  0
  182.9160  177.1250  140.2900 C   0  0  0  0  0  3  0  0  0  0  0  0
  183.7440  178.1170  140.8270 C   0  0  0  0  0  0  0  0  0  0  0  0
  184.5970  178.8210  139.9760 C   0  0  0  0  0  3  0  0  0  0  0  0
  183.8190  177.5820  138.0980 C   0  0  0  0  0  0  0  0  0  0  0  0
  184.9230  176.8490  136.1300 O   0  0  0  0  0  1  0  0  0  0  0  0
  182.7740  177.5860  135.8540 O   0  0  0  0  0  0  0  0  0  0  0  0
  183.8780  177.3190  136.6540 C   0  0  0  0  0  0  0  0  0  0  0  0
  188.1590  176.9140  146.8360 C   0  0  0  0  0  2  0  0  0  0  0  0
  189.3750  177.7950  147.0920 C   0  0  1  0  0  3  0  0  0  0  0  0
  189.4190  178.1790  148.4340 O   0  0  0  0  0  1  0  0  0  0  0  0
  191.5970  176.7940  147.7320 N   0  0  0  0  0  1  0  0  0  0  0  0
  190.8300  176.6960  145.5430 O   0  0  0  0  0  0  0  0  0  0  0  0
  190.6230  177.0630  146.7310 C   0  0  0  0  0  0  0  0  0  0  0  0
  1  6  1  0  0  0  0
  2  4  1  0  0  0  0
  2  1  2  0  0  0  0
  4  5  2  0  0  0  0
  5  3  1  0  0  0  0
  6  3  2  0  0  0  0
  6 23  1  0  0  0  0
  7  2  1  0  0  0  0
  8  7  1  0  0  0  0
  9 11  1  0  0  0  0
 11  8  1  0  0  0  0
 11 10  1  0  0  0  0
 12  4  1  0  0  0  0
 13 12  1  0  0  0  0
 14 18  1  0  0  0  0
 15 16  2  0  0  0  0
 16 17  1  0  0  0  0
 17 13  1  0  0  0  0
 18 17  2  0  0  0  0
 19 14  2  0  0  0  0
 19 15  1  0  0  0  0
 20 22  1  0  0  0  0
 21 22  2  0  0  0  0
 22 19  1  0  0  0  0
 23 24  1  0  0  0  0
 24 25  1  1  0  0  0
 27 28  2  0  0  0  0
 28 24  1  0  0  0  0
 28 26  1  0  0  0  0
M  END
>  <MODEL>
9

>  <REMARK>
 VINA RESULT:      -6.8      2.201      8.418
  Name = 
  10 active torsions:
  status: ('A' for Active; 'I' for Inactive)
    1  A    between atoms: N_2  and  C_15
    2  A    between atoms: N_2  and  N_23
    3  A    between atoms: C_7  and  N_11
    4  A    between atoms: C_8  and  N_11
    5  A    between atoms: C_8  and  C_14
    6  A    between atoms: C_18  and  C_25
    7  A    between atoms: C_18  and  C_26
    8  A    between atoms: CA_19  and  C_22
    9  A    between atoms: N_23  and  C_24
   10  A    between atoms: C_26  and  C_28
                            x       y       z     vdW  Elec       q    Type
                         _______ _______ _______ _____ _____    ______ ____

>  <TORSDO>
F 10

$$$$
