=
 OpenBabel10232409323D

 70 77  0  0  1  0  0  0  0  0999 V2000
  195.2650  174.7340  136.0720 C   0  0  0  0  0  0  0  0  0  0  0  0
  186.2830  173.4480  135.6530 C   0  0  0  0  0  2  0  0  0  0  0  0
  185.1840  173.9010  136.5920 C   0  0  0  0  0  2  0  0  0  0  0  0
  182.9820  178.6440  140.8810 C   0  0  0  0  0  2  0  0  0  0  0  0
  191.7650  175.5640  135.4190 C   0  0  0  0  0  2  0  0  0  0  0  0
  190.7690  176.3370  136.2750 C   0  0  1  0  0  3  0  0  0  0  0  0
  187.7800  178.1250  140.1190 C   0  0  0  0  0  2  0  0  0  0  0  0
  185.7030  177.6840  141.2500 O   0  0  0  0  0  0  0  0  0  0  0  0
  193.2120  175.9100  135.7850 C   0  0  1  0  0  3  0  0  0  0  0  0
  181.5890  177.6740  137.1400 C   0  0  1  0  0  3  0  0  0  0  0  0
  182.3910  176.9480  136.0450 C   0  0  1  0  0  3  0  0  0  0  0  0
  192.4130  176.0820  138.2360 C   0  0  0  0  0  2  0  0  0  0  0  0
  194.8220  176.5160  137.7250 C   0  0  0  0  0  2  0  0  0  0  0  0
  193.3860  176.6010  137.1710 C   0  0  1  0  0  3  0  0  0  0  0  0
  187.5240  177.2260  138.9110 C   0  0  2  0  0  3  0  0  0  0  0  0
  188.7570  173.5680  135.5150 C   0  0  0  0  0  0  0  0  0  0  0  0
  182.0070  175.6000  135.9240 O   0  0  0  0  0  0  0  0  0  0  0  0
  189.3270  176.0670  135.9350 C   0  0  0  0  0  0  0  0  0  0  0  0
  187.5820  173.3560  136.4240 C   0  0  0  0  0  2  0  0  0  0  0  0
  183.3030  179.5030  139.7070 C   0  0  0  0  0  3  0  0  0  0  0  0
  187.0900  177.5890  141.3660 C   0  0  0  0  0  2  0  0  0  0  0  0
  189.8140  172.7580  135.5330 C   0  0  0  0  0  3  0  0  0  0  0  0
  183.9350  174.2000  135.7970 C   0  0  0  0  0  2  0  0  0  0  0  0
  194.0370  174.7260  135.6770 N   0  0  0  0  0  0  0  0  0  0  0  0
  188.7240  177.2210  137.9560 C   0  0  1  0  0  3  0  0  0  0  0  0
  185.3630  178.8760  141.8910 C   0  0  0  0  0  2  0  0  0  0  0  0
  195.8290  175.9700  136.7100 C   0  0  0  0  0  2  0  0  0  0  0  0
  189.9890  176.6860  138.6720 C   0  0  0  0  0  2  0  0  0  0  0  0
  182.7240  179.2730  138.5660 C   0  0  0  0  0  0  0  0  0  0  0  0
  188.4130  176.4570  136.7580 N   0  0  0  0  0  0  0  0  0  0  0  0
  182.1510  179.0290  137.4190 C   0  0  0  0  0  3  0  0  0  0  0  0
  190.9680  175.9550  137.7430 C   0  0  1  0  0  3  0  0  0  0  0  0
  182.9260  174.8850  136.6950 C   0  0  0  0  0  2  0  0  0  0  0  0
  183.8470  178.9580  142.1080 C   0  0  1  0  0  3  0  0  0  0  0  0
  188.8370  175.0640  134.5230 S   0  0  0  0  0  0  0  0  0  0  0  0
  196.2120  170.8110  134.4060 O   0  0  0  0  0  1  0  0  0  0  0  0
  196.5350  173.2080  134.5740 C   0  0  0  0  0  2  0  0  0  0  0  0
  197.1670  171.8270  134.3460 C   0  0  1  0  0  3  0  0  0  0  0  0
  198.1830  171.5070  136.7140 C   0  0  1  0  0  3  0  0  0  0  0  0
  199.4550  172.3400  134.8550 O   0  0  0  0  0  1  0  0  0  0  0  0
  198.4030  171.4880  135.1950 C   0  0  2  0  0  3  0  0  0  0  0  0
  196.9840  170.8770  137.0680 O   0  0  0  0  0  0  0  0  0  0  0  0
  196.1700  171.8990  137.5690 C   0  0  2  0  0  3  0  0  0  0  0  0
  199.3400  170.8230  137.4160 C   0  0  0  0  0  1  0  0  0  0  0  0
  195.2940  171.3540  138.6790 C   0  0  0  0  0  1  0  0  0  0  0  0
  195.3630  172.4140  136.5480 O   0  0  0  0  0  0  0  0  0  0  0  0
  196.0890  173.4880  136.0140 C   0  0  2  0  0  3  0  0  0  0  0  0
  182.7270  179.0780  134.9430 C   0  0  2  0  0  3  0  0  0  0  0  0
  183.8710  178.2990  134.4550 N   0  0  0  0  0  2  0  0  0  0  0  0
  182.5610  177.6770  134.6880 C   0  0  1  0  0  0  0  0  0  0  0  0
  181.4700  178.5960  134.3540 N   0  0  0  0  0  2  0  0  0  0  0  0
  179.9920  179.1310  136.6760 C   0  0  0  0  0  1  0  0  0  0  0  0
  180.2370  177.7630  136.7990 O   0  0  0  0  0  0  0  0  0  0  0  0
  186.2170  177.6130  138.2070 C   0  0  0  0  0  2  0  0  0  0  0  0
  186.3660  178.8720  137.3640 C   0  0  0  0  0  1  0  0  0  0  0  0
  188.7660  170.9810  136.7840 C   0  0  0  0  0  2  0  0  0  0  0  0
  189.8820  171.5560  136.3670 C   0  0  0  0  0  3  0  0  0  0  0  0
  183.4130  180.0940  142.8290 O   0  0  0  0  0  0  0  0  0  0  0  0
  184.3690  180.4230  143.8050 C   0  0  0  0  0  2  0  0  0  0  0  0
  184.3040  179.4490  144.9690 C   0  0  2  0  0  3  0  0  0  0  0  0
  185.6830  178.8300  145.1380 C   0  0  0  0  0  2  0  0  0  0  0  0
  185.8940  178.3440  146.5590 C   0  0  0  0  0  2  0  0  0  0  0  0
  187.1130  177.4440  146.5960 C   0  0  0  0  0  2  0  0  0  0  0  0
  188.9330  176.6130  145.3800 C   0  0  0  0  0  2  0  0  0  0  0  0
  187.6000  177.2180  145.2470 N   0  0  0  0  0  0  0  0  0  0  0  0
  188.8140  178.0360  145.1060 C   0  0  0  0  0  2  0  0  0  0  0  0
  183.2690  178.3740  144.6780 C   0  0  0  0  0  2  0  0  0  0  0  0
  181.8820  178.8350  145.0840 C   0  0  0  0  0  2  0  0  0  0  0  0
  181.1290  179.0980  143.9400 O   0  0  0  0  0  0  0  0  0  0  0  0
  180.0070  178.2810  144.0650 C   0  0  0  0  0  1  0  0  0  0  0  0
  1 27  1  0  0  0  0
  2 19  1  0  0  0  0
  2  3  1  0  0  0  0
  4 34  1  0  0  0  0
  6  5  1  6  0  0  0
  6 32  1  0  0  0  0
  7 21  1  0  0  0  0
  8 21  1  0  0  0  0
  8 26  1  0  0  0  0
  9  5  1  1  0  0  0
  9 14  1  0  0  0  0
 10 53  1  6  0  0  0
 10 31  1  0  0  0  0
 11 17  1  6  0  0  0
 11 10  1  0  0  0  0
 14 13  1  1  0  0  0
 14 12  1  0  0  0  0
 15 54  1  6  0  0  0
 15  7  1  0  0  0  0
 16 22  2  0  0  0  0
 16 19  1  0  0  0  0
 17 33  1  0  0  0  0
 18  6  1  0  0  0  0
 18 30  2  0  0  0  0
 20  4  1  0  0  0  0
 22 57  1  0  0  0  0
 23  3  1  0  0  0  0
 23 33  1  0  0  0  0
 24  9  1  0  0  0  0
 24  1  2  0  0  0  0
 25 28  1  1  0  0  0
 25 15  1  0  0  0  0
 26 34  1  0  0  0  0
 27 13  1  0  0  0  0
 29 20  2  0  0  0  0
 30 25  1  0  0  0  0
 31 29  2  0  0  0  0
 32 12  1  1  0  0  0
 32 28  1  0  0  0  0
 34 58  1  6  0  0  0
 35 16  1  0  0  0  0
 35 18  1  0  0  0  0
 37 47  1  0  0  0  0
 38 36  1  1  0  0  0
 38 37  1  0  0  0  0
 38 41  1  0  0  0  0
 39 42  1  0  0  0  0
 39 44  1  1  0  0  0
 41 40  1  1  0  0  0
 41 39  1  0  0  0  0
 42 43  1  0  0  0  0
 43 45  1  1  0  0  0
 46 43  1  0  0  0  0
 47  1  1  6  0  0  0
 47 46  1  0  0  0  0
 48 51  1  6  0  0  0
 49 50  1  0  0  0  0
 49 48  1  0  0  0  0
 50 51  1  6  0  0  0
 50 48  1  0  0  0  0
 50 11  1  0  0  0  0
 52 53  1  0  0  0  0
 55 54  1  0  0  0  0
 57 56  2  0  0  0  0
 58 59  1  0  0  0  0
 60 59  1  6  0  0  0
 60 61  1  0  0  0  0
 61 62  1  0  0  0  0
 62 63  1  0  0  0  0
 65 64  1  0  0  0  0
 65 63  1  0  0  0  0
 66 65  1  0  0  0  0
 66 64  1  0  0  0  0
 67 60  1  0  0  0  0
 67 68  1  0  0  0  0
 69 70  1  0  0  0  0
 69 68  1  0  0  0  0
M  END
>  <MODEL>
1

>  <REMARK>
 VINA RESULT:       2.5      0.000      0.000
  Name = 
  15 active torsions:
  status: ('A' for Active; 'I' for Inactive)
    1  A    between atoms: C_1  and  C_6
    2  A    between atoms: C_1  and  C_18
    3  A    between atoms: O_2  and  C_44
    4  A    between atoms: C_5  and  C_34
    5  A    between atoms: C_6  and  C_11
    6  A    between atoms: C_7  and  C_70
    7  A    between atoms: C_11  and  N_57
    8  A    between atoms: C_18  and  C_54
    9  A    between atoms: C_18  and  C_58
   10  A    between atoms: C_24  and  O_36
   11  A    between atoms: C_25  and  C_50
   12  A    between atoms: O_31  and  C_54
   13  A    between atoms: O_31  and  C_65
   14  A    between atoms: C_38  and  C_43
   15  A    between atoms: C_44  and  C_58
                            x       y       z     vdW  Elec       q    Type
                         _______ _______ _______ _____ _____    ______ ____

>  <TORSDO>
F 15

$$$$
