=
 OpenBabel10232411323D

 27 29  0  0  1  0  0  0  0  0999 V2000
  187.3500  178.3400  142.0610 C   0  0  1  0  0  3  0  0  0  0  0  0
  188.2860  177.2530  142.3080 N   0  0  0  0  0  2  0  0  0  0  0  0
  190.7270  177.1470  145.0600 C   0  0  0  0  0  0  0  0  0  0  0  0
  189.4170  177.3920  143.1690 C   0  0  0  0  0  0  0  0  0  0  0  0
  190.8170  178.2520  142.8280 S   0  0  0  0  0  0  0  0  0  0  0  0
  191.5900  177.9340  144.2910 C   0  0  0  0  0  3  0  0  0  0  0  0
  189.5100  176.8360  144.4310 C   0  0  0  0  0  3  0  0  0  0  0  0
  192.1160  175.9190  146.5230 O   0  0  0  0  0  0  0  0  0  0  0  0
  191.1070  176.6660  146.4070 C   0  0  0  0  0  0  0  0  0  0  0  0
  190.3750  177.0030  147.5950 N   0  0  0  0  0  2  0  0  0  0  0  0
  189.3510  178.0360  147.6940 C   0  0  0  0  0  2  0  0  0  0  0  0
  187.9800  177.4110  147.8950 C   0  0  0  0  0  2  0  0  0  0  0  0
  187.0100  177.9230  146.8490 C   0  0  0  0  0  1  0  0  0  0  0  0
  187.1900  178.5270  140.6270 N   0  0  0  0  0  2  0  0  0  0  0  0
  188.3990  178.9760  140.1380 O   0  0  0  0  0  0  0  0  0  0  0  0
  187.6370  179.2190  137.1840 O   0  0  0  0  0  0  0  0  0  0  0  0
  190.0100  177.6100  139.0820 N   0  0  0  0  0  0  0  0  0  0  0  0
  190.2830  177.2490  137.7190 C   0  0  0  0  0  0  0  0  0  0  0  0
  189.4820  177.7740  136.8410 N   0  0  0  0  0  0  0  0  0  0  0  0
  188.5990  178.5440  137.6340 C   0  0  0  0  0  0  0  0  0  0  0  0
  188.9900  178.3950  139.0160 C   0  0  0  0  0  0  0  0  0  0  0  0
  191.3980  176.3440  137.3360 C   0  0  0  0  0  1  0  0  0  0  0  0
  186.0040  178.0120  142.6860 C   0  0  0  0  0  2  0  0  0  0  0  0
  183.6780  178.7050  142.2140 C   0  0  0  0  0  2  0  0  0  0  0  0
  183.1310  179.0010  143.5310 N   0  0  0  0  0  2  0  0  0  0  0  0
  184.4420  179.4920  143.9280 C   0  0  0  0  0  2  0  0  0  0  0  0
  185.0570  179.1960  142.5810 C   0  0  0  0  0  3  0  0  0  0  0  0
  1  2  1  0  0  0  0
  1 23  1  6  0  0  0
  2  4  1  0  0  0  0
  3  9  1  0  0  0  0
  4  7  2  0  0  0  0
  5  4  1  0  0  0  0
  5  6  1  0  0  0  0
  6  3  2  0  0  0  0
  7  3  1  0  0  0  0
  9  8  2  0  0  0  0
  9 10  1  0  0  0  0
 10 11  1  0  0  0  0
 11 12  1  0  0  0  0
 13 12  1  0  0  0  0
 14  1  1  0  0  0  0
 15 14  1  0  0  0  0
 16 20  2  0  0  0  0
 18 17  1  0  0  0  0
 19 20  1  0  0  0  0
 19 18  2  0  0  0  0
 20 21  1  0  0  0  0
 21 17  2  0  0  0  0
 21 15  1  0  0  0  0
 22 18  1  0  0  0  0
 24 27  1  0  0  0  0
 24 25  1  0  0  0  0
 25 26  1  0  0  0  0
 27 23  1  0  0  0  0
 27 26  1  0  0  0  0
M  END
>  <MODEL>
1

>  <REMARK>
 VINA RESULT:      -7.2      0.000      0.000
  Name = 
  10 active torsions:
  status: ('A' for Active; 'I' for Inactive)
    1  A    between atoms: N_2  and  C_7
    2  A    between atoms: N_2  and  C_15
    3  A    between atoms: O_6  and  N_19
    4  A    between atoms: O_6  and  C_23
    5  A    between atoms: C_7  and  N_19
    6  A    between atoms: C_7  and  C_21
    7  A    between atoms: C_8  and  C_10
    8  A    between atoms: C_10  and  N_18
    9  A    between atoms: C_11  and  C_13
   10  A    between atoms: C_21  and  C_26
                            x       y       z     vdW  Elec       q    Type
                         _______ _______ _______ _____ _____    ______ ____

>  <TORSDO>
F 10

$$$$
=
 OpenBabel10232411323D

 27 29  0  0  1  0  0  0  0  0999 V2000
  189.1030  176.9910  142.7670 C   0  0  1  0  0  3  0  0  0  0  0  0
  187.8470  177.2390  142.0740 N   0  0  0  0  0  2  0  0  0  0  0  0
  185.2910  178.6840  144.2930 C   0  0  0  0  0  0  0  0  0  0  0  0
  186.7730  177.9710  142.6660 C   0  0  0  0  0  0  0  0  0  0  0  0
  185.7800  179.0720  141.8810 S   0  0  0  0  0  0  0  0  0  0  0  0
  184.8250  179.4450  143.2170 C   0  0  0  0  0  3  0  0  0  0  0  0
  186.3880  177.8600  143.9880 C   0  0  0  0  0  3  0  0  0  0  0  0
  183.4520  179.0320  145.7330 O   0  0  0  0  0  0  0  0  0  0  0  0
  184.6840  178.7860  145.6390 C   0  0  0  0  0  0  0  0  0  0  0  0
  185.4360  178.6240  146.8510 N   0  0  0  0  0  2  0  0  0  0  0  0
  186.7920  178.0970  146.9430 C   0  0  0  0  0  2  0  0  0  0  0  0
  187.5120  178.6820  148.1470 C   0  0  0  0  0  2  0  0  0  0  0  0
  188.7430  177.8620  148.4750 C   0  0  0  0  0  1  0  0  0  0  0  0
  189.9600  176.1570  141.9370 N   0  0  0  0  0  2  0  0  0  0  0  0
  190.5600  176.9840  141.0120 O   0  0  0  0  0  0  0  0  0  0  0  0
  189.0020  178.8770  139.1800 O   0  0  0  0  0  0  0  0  0  0  0  0
  190.6650  175.8790  138.9270 N   0  0  0  0  0  0  0  0  0  0  0  0
  190.1700  176.1680  137.6110 C   0  0  0  0  0  0  0  0  0  0  0  0
  189.5100  177.2810  137.5050 N   0  0  0  0  0  0  0  0  0  0  0  0
  189.5440  177.8000  138.8210 C   0  0  0  0  0  0  0  0  0  0  0  0
  190.2810  176.8750  139.6500 C   0  0  0  0  0  0  0  0  0  0  0  0
  190.3960  175.2640  136.4520 C   0  0  0  0  0  1  0  0  0  0  0  0
  189.8010  178.3100  143.0560 C   0  0  0  0  0  2  0  0  0  0  0  0
  189.9550  177.0760  145.1930 C   0  0  0  0  0  2  0  0  0  0  0  0
  191.3800  176.8160  145.3420 N   0  0  0  0  0  2  0  0  0  0  0  0
  191.6450  178.0990  144.7080 C   0  0  0  0  0  2  0  0  0  0  0  0
  190.1780  178.4100  144.5250 C   0  0  0  0  0  3  0  0  0  0  0  0
  1 23  1  6  0  0  0
  2  4  1  0  0  0  0
  2  1  1  0  0  0  0
  3  9  1  0  0  0  0
  4  7  2  0  0  0  0
  5  4  1  0  0  0  0
  5  6  1  0  0  0  0
  6  3  2  0  0  0  0
  7  3  1  0  0  0  0
  9  8  2  0  0  0  0
  9 10  1  0  0  0  0
 10 11  1  0  0  0  0
 11 12  1  0  0  0  0
 12 13  1  0  0  0  0
 14  1  1  0  0  0  0
 15 14  1  0  0  0  0
 17 21  2  0  0  0  0
 18 17  1  0  0  0  0
 19 18  2  0  0  0  0
 19 20  1  0  0  0  0
 20 16  2  0  0  0  0
 20 21  1  0  0  0  0
 21 15  1  0  0  0  0
 22 18  1  0  0  0  0
 23 27  1  0  0  0  0
 24 25  1  0  0  0  0
 26 25  1  0  0  0  0
 27 26  1  0  0  0  0
 27 24  1  0  0  0  0
M  END
>  <MODEL>
2

>  <REMARK>
 VINA RESULT:      -7.1      2.346      4.632
  Name = 
  10 active torsions:
  status: ('A' for Active; 'I' for Inactive)
    1  A    between atoms: N_2  and  C_7
    2  A    between atoms: N_2  and  C_15
    3  A    between atoms: O_6  and  N_19
    4  A    between atoms: O_6  and  C_23
    5  A    between atoms: C_7  and  N_19
    6  A    between atoms: C_7  and  C_21
    7  A    between atoms: C_8  and  C_10
    8  A    between atoms: C_10  and  N_18
    9  A    between atoms: C_11  and  C_13
   10  A    between atoms: C_21  and  C_26
                            x       y       z     vdW  Elec       q    Type
                         _______ _______ _______ _____ _____    ______ ____

>  <TORSDO>
F 10

$$$$
=
 OpenBabel10232411323D

 27 29  0  0  1  0  0  0  0  0999 V2000
  188.6450  177.7550  143.2070 C   0  0  1  0  0  3  0  0  0  0  0  0
  189.3270  176.8550  142.2880 N   0  0  0  0  0  2  0  0  0  0  0  0
  189.0890  178.0900  138.8290 C   0  0  0  0  0  0  0  0  0  0  0  0
  189.5120  177.1610  140.9060 C   0  0  0  0  0  0  0  0  0  0  0  0
  190.7460  176.5850  139.9240 S   0  0  0  0  0  0  0  0  0  0  0  0
  190.2490  177.3720  138.5210 C   0  0  0  0  0  3  0  0  0  0  0  0
  188.6770  177.9780  140.1690 C   0  0  0  0  0  3  0  0  0  0  0  0
  188.9810  179.9410  137.3670 O   0  0  0  0  0  0  0  0  0  0  0  0
  188.3960  178.9210  137.8190 C   0  0  0  0  0  0  0  0  0  0  0  0
  187.0790  178.6240  137.3310 N   0  0  0  0  0  2  0  0  0  0  0  0
  186.3590  177.3740  137.5430 C   0  0  0  0  0  2  0  0  0  0  0  0
  184.9010  177.6480  137.8730 C   0  0  0  0  0  2  0  0  0  0  0  0
  184.7950  178.6470  139.0070 C   0  0  0  0  0  1  0  0  0  0  0  0
  187.4280  177.1230  143.6940 N   0  0  0  0  0  2  0  0  0  0  0  0
  186.9430  177.9080  144.7180 O   0  0  0  0  0  0  0  0  0  0  0  0
  185.2870  178.9920  147.0530 O   0  0  0  0  0  0  0  0  0  0  0  0
  184.8410  178.2980  143.7150 N   0  0  0  0  0  0  0  0  0  0  0  0
  183.5820  178.8040  144.1850 C   0  0  0  0  0  0  0  0  0  0  0  0
  183.5560  179.1320  145.4410 N   0  0  0  0  0  0  0  0  0  0  0  0
  184.8710  178.8380  145.8760 C   0  0  0  0  0  0  0  0  0  0  0  0
  185.6120  178.3250  144.7470 C   0  0  0  0  0  0  0  0  0  0  0  0
  182.3940  178.9460  143.3030 C   0  0  0  0  0  1  0  0  0  0  0  0
  189.5550  178.0800  144.3790 C   0  0  0  0  0  2  0  0  0  0  0  0
  191.5870  176.8350  145.0360 C   0  0  0  0  0  2  0  0  0  0  0  0
  191.6580  177.0220  146.4780 N   0  0  0  0  0  2  0  0  0  0  0  0
  190.2040  176.9950  146.5180 C   0  0  0  0  0  2  0  0  0  0  0  0
  190.0790  176.8080  145.0250 C   0  0  0  0  0  3  0  0  0  0  0  0
  1 14  1  0  0  0  0
  1 23  1  1  0  0  0
  2  1  1  0  0  0  0
  3  7  1  0  0  0  0
  4  2  1  0  0  0  0
  5  4  1  0  0  0  0
  6  3  2  0  0  0  0
  6  5  1  0  0  0  0
  7  4  2  0  0  0  0
  8  9  2  0  0  0  0
  9  3  1  0  0  0  0
 10 11  1  0  0  0  0
 10  9  1  0  0  0  0
 11 12  1  0  0  0  0
 12 13  1  0  0  0  0
 14 15  1  0  0  0  0
 15 21  1  0  0  0  0
 17 18  1  0  0  0  0
 17 21  2  0  0  0  0
 18 19  2  0  0  0  0
 19 20  1  0  0  0  0
 20 16  2  0  0  0  0
 21 20  1  0  0  0  0
 22 18  1  0  0  0  0
 23 27  1  0  0  0  0
 24 25  1  0  0  0  0
 25 26  1  0  0  0  0
 27 24  1  0  0  0  0
 27 26  1  0  0  0  0
M  END
>  <MODEL>
3

>  <REMARK>
 VINA RESULT:      -7.1      2.523      7.741
  Name = 
  10 active torsions:
  status: ('A' for Active; 'I' for Inactive)
    1  A    between atoms: N_2  and  C_7
    2  A    between atoms: N_2  and  C_15
    3  A    between atoms: O_6  and  N_19
    4  A    between atoms: O_6  and  C_23
    5  A    between atoms: C_7  and  N_19
    6  A    between atoms: C_7  and  C_21
    7  A    between atoms: C_8  and  C_10
    8  A    between atoms: C_10  and  N_18
    9  A    between atoms: C_11  and  C_13
   10  A    between atoms: C_21  and  C_26
                            x       y       z     vdW  Elec       q    Type
                         _______ _______ _______ _____ _____    ______ ____

>  <TORSDO>
F 10

$$$$
=
 OpenBabel10232411323D

 27 29  0  0  1  0  0  0  0  0999 V2000
  188.6770  177.9150  141.6120 C   0  0  1  0  0  3  0  0  0  0  0  0
  187.2470  177.9300  141.3410 N   0  0  0  0  0  2  0  0  0  0  0  0
  185.3930  178.4060  144.4850 C   0  0  0  0  0  0  0  0  0  0  0  0
  186.2730  178.1690  142.3580 C   0  0  0  0  0  0  0  0  0  0  0  0
  184.6450  178.4910  142.1090 S   0  0  0  0  0  0  0  0  0  0  0  0
  184.2320  178.6260  143.7360 C   0  0  0  0  0  3  0  0  0  0  0  0
  186.5410  178.1550  143.7130 C   0  0  0  0  0  3  0  0  0  0  0  0
  184.3110  178.7420  146.5570 O   0  0  0  0  0  0  0  0  0  0  0  0
  185.3900  178.4740  145.9630 C   0  0  0  0  0  0  0  0  0  0  0  0
  186.5640  178.2560  146.7590 N   0  0  0  0  0  2  0  0  0  0  0  0
  187.8220  177.6980  146.2780 C   0  0  0  0  0  2  0  0  0  0  0  0
  188.6160  177.1010  147.4290 C   0  0  0  0  0  2  0  0  0  0  0  0
  188.7310  178.0980  148.5640 C   0  0  0  0  0  1  0  0  0  0  0  0
  189.0530  176.6250  142.1700 N   0  0  0  0  0  2  0  0  0  0  0  0
  190.4110  176.6630  142.4050 O   0  0  0  0  0  0  0  0  0  0  0  0
  190.9790  179.2430  143.9510 O   0  0  0  0  0  0  0  0  0  0  0  0
  191.2560  175.8540  144.4570 N   0  0  0  0  0  0  0  0  0  0  0  0
  191.7230  176.4730  145.6650 C   0  0  0  0  0  0  0  0  0  0  0  0
  191.6870  177.7710  145.6660 N   0  0  0  0  0  0  0  0  0  0  0  0
  191.1670  178.0780  144.3870 C   0  0  0  0  0  0  0  0  0  0  0  0
  190.9210  176.8360  143.6920 C   0  0  0  0  0  0  0  0  0  0  0  0
  192.2100  175.6900  146.8310 C   0  0  0  0  0  1  0  0  0  0  0  0
  189.4470  178.1580  140.3250 C   0  0  0  0  0  2  0  0  0  0  0  0
  189.0770  178.7040  137.9420 C   0  0  0  0  0  2  0  0  0  0  0  0
  189.5620  177.5260  137.2370 N   0  0  0  0  0  2  0  0  0  0  0  0
  189.0790  176.7090  138.3400 C   0  0  0  0  0  2  0  0  0  0  0  0
  188.5660  177.9010  139.1130 C   0  0  0  0  0  3  0  0  0  0  0  0
  1 23  1  6  0  0  0
  1 14  1  0  0  0  0
  2  1  1  0  0  0  0
  2  4  1  0  0  0  0
  3  9  1  0  0  0  0
  4  7  2  0  0  0  0
  5  4  1  0  0  0  0
  5  6  1  0  0  0  0
  6  3  2  0  0  0  0
  7  3  1  0  0  0  0
  9  8  2  0  0  0  0
  9 10  1  0  0  0  0
 11 10  1  0  0  0  0
 11 12  1  0  0  0  0
 12 13  1  0  0  0  0
 14 15  1  0  0  0  0
 15 21  1  0  0  0  0
 16 20  2  0  0  0  0
 17 18  1  0  0  0  0
 18 19  2  0  0  0  0
 18 22  1  0  0  0  0
 20 19  1  0  0  0  0
 21 20  1  0  0  0  0
 21 17  2  0  0  0  0
 24 27  1  0  0  0  0
 25 24  1  0  0  0  0
 25 26  1  0  0  0  0
 26 27  1  0  0  0  0
 27 23  1  0  0  0  0
M  END
>  <MODEL>
4

>  <REMARK>
 VINA RESULT:      -7.0      2.659      5.941
  Name = 
  10 active torsions:
  status: ('A' for Active; 'I' for Inactive)
    1  A    between atoms: N_2  and  C_7
    2  A    between atoms: N_2  and  C_15
    3  A    between atoms: O_6  and  N_19
    4  A    between atoms: O_6  and  C_23
    5  A    between atoms: C_7  and  N_19
    6  A    between atoms: C_7  and  C_21
    7  A    between atoms: C_8  and  C_10
    8  A    between atoms: C_10  and  N_18
    9  A    between atoms: C_11  and  C_13
   10  A    between atoms: C_21  and  C_26
                            x       y       z     vdW  Elec       q    Type
                         _______ _______ _______ _____ _____    ______ ____

>  <TORSDO>
F 10

$$$$
=
 OpenBabel10232411323D

 27 29  0  0  1  0  0  0  0  0999 V2000
  184.8530  178.9060  141.8190 C   0  0  1  0  0  3  0  0  0  0  0  0
  185.1910  177.8340  142.7440 N   0  0  0  0  0  2  0  0  0  0  0  0
  186.9390  177.9340  145.9810 C   0  0  0  0  0  0  0  0  0  0  0  0
  185.6260  178.0810  144.0820 C   0  0  0  0  0  0  0  0  0  0  0  0
  184.8490  179.0490  145.2100 S   0  0  0  0  0  0  0  0  0  0  0  0
  185.9510  178.8000  146.4590 C   0  0  0  0  0  3  0  0  0  0  0  0
  186.7630  177.5340  144.6450 C   0  0  0  0  0  3  0  0  0  0  0  0
  187.8560  176.9130  147.9030 O   0  0  0  0  0  0  0  0  0  0  0  0
  188.0840  177.5210  146.8230 C   0  0  0  0  0  0  0  0  0  0  0  0
  189.4510  177.7860  146.4710 N   0  0  0  0  0  2  0  0  0  0  0  0
  189.9160  178.2450  145.1680 C   0  0  0  0  0  2  0  0  0  0  0  0
  191.2810  177.6550  144.8510 C   0  0  0  0  0  2  0  0  0  0  0  0
  191.6060  176.5310  145.8140 C   0  0  0  0  0  1  0  0  0  0  0  0
  186.0730  179.5370  141.3380 N   0  0  0  0  0  2  0  0  0  0  0  0
  186.5130  178.8010  140.2580 O   0  0  0  0  0  0  0  0  0  0  0  0
  188.4240  178.8540  137.8680 O   0  0  0  0  0  0  0  0  0  0  0  0
  188.4740  177.8330  141.1500 N   0  0  0  0  0  0  0  0  0  0  0  0
  189.7780  177.5380  140.6250 C   0  0  0  0  0  0  0  0  0  0  0  0
  189.9550  177.8640  139.3810 N   0  0  0  0  0  0  0  0  0  0  0  0
  188.7050  178.4170  139.0140 C   0  0  0  0  0  0  0  0  0  0  0  0
  187.8350  178.3650  140.1660 C   0  0  0  0  0  0  0  0  0  0  0  0
  190.8480  176.9090  141.4420 C   0  0  0  0  0  1  0  0  0  0  0  0
  184.0720  178.3430  140.6430 C   0  0  0  0  0  2  0  0  0  0  0  0
  181.7940  178.7920  141.4920 C   0  0  0  0  0  2  0  0  0  0  0  0
  180.9390  178.5410  140.3400 N   0  0  0  0  0  2  0  0  0  0  0  0
  181.8510  177.4810  139.9370 C   0  0  0  0  0  2  0  0  0  0  0  0
  182.7730  177.7080  141.1120 C   0  0  0  0  0  3  0  0  0  0  0  0
  1 23  1  6  0  0  0
  1  2  1  0  0  0  0
  2  4  1  0  0  0  0
  3  6  2  0  0  0  0
  3  9  1  0  0  0  0
  4  7  2  0  0  0  0
  4  5  1  0  0  0  0
  5  6  1  0  0  0  0
  7  3  1  0  0  0  0
  9  8  2  0  0  0  0
 10  9  1  0  0  0  0
 11 10  1  0  0  0  0
 12 11  1  0  0  0  0
 12 13  1  0  0  0  0
 14  1  1  0  0  0  0
 15 14  1  0  0  0  0
 16 20  2  0  0  0  0
 18 17  1  0  0  0  0
 18 22  1  0  0  0  0
 19 18  2  0  0  0  0
 20 19  1  0  0  0  0
 20 21  1  0  0  0  0
 21 15  1  0  0  0  0
 21 17  2  0  0  0  0
 23 27  1  0  0  0  0
 25 24  1  0  0  0  0
 26 25  1  0  0  0  0
 26 27  1  0  0  0  0
 27 24  1  0  0  0  0
M  END
>  <MODEL>
5

>  <REMARK>
 VINA RESULT:      -6.9      2.300      3.526
  Name = 
  10 active torsions:
  status: ('A' for Active; 'I' for Inactive)
    1  A    between atoms: N_2  and  C_7
    2  A    between atoms: N_2  and  C_15
    3  A    between atoms: O_6  and  N_19
    4  A    between atoms: O_6  and  C_23
    5  A    between atoms: C_7  and  N_19
    6  A    between atoms: C_7  and  C_21
    7  A    between atoms: C_8  and  C_10
    8  A    between atoms: C_10  and  N_18
    9  A    between atoms: C_11  and  C_13
   10  A    between atoms: C_21  and  C_26
                            x       y       z     vdW  Elec       q    Type
                         _______ _______ _______ _____ _____    ______ ____

>  <TORSDO>
F 10

$$$$
=
 OpenBabel10232411323D

 27 29  0  0  1  0  0  0  0  0999 V2000
  185.1070  178.9170  142.1070 C   0  0  1  0  0  3  0  0  0  0  0  0
  185.7930  177.9020  142.8930 N   0  0  0  0  0  2  0  0  0  0  0  0
  187.2210  177.8400  146.2850 C   0  0  0  0  0  0  0  0  0  0  0  0
  186.0900  178.0720  144.2800 C   0  0  0  0  0  0  0  0  0  0  0  0
  185.1740  178.9410  145.3860 S   0  0  0  0  0  0  0  0  0  0  0  0
  186.1610  178.6430  146.7180 C   0  0  0  0  0  3  0  0  0  0  0  0
  187.1870  177.5240  144.9160 C   0  0  0  0  0  3  0  0  0  0  0  0
  187.9800  176.9950  148.3550 O   0  0  0  0  0  0  0  0  0  0  0  0
  188.2950  177.4060  147.2060 C   0  0  0  0  0  0  0  0  0  0  0  0
  189.6870  177.4390  146.8570 N   0  0  0  0  0  2  0  0  0  0  0  0
  190.2190  177.6420  145.5150 C   0  0  0  0  0  2  0  0  0  0  0  0
  191.4050  176.7240  145.2670 C   0  0  0  0  0  2  0  0  0  0  0  0
  191.9030  176.1420  146.5750 C   0  0  0  0  0  1  0  0  0  0  0  0
  185.8500  179.1670  140.8810 N   0  0  0  0  0  2  0  0  0  0  0  0
  187.1910  179.1270  141.2030 O   0  0  0  0  0  0  0  0  0  0  0  0
  189.1470  176.9220  142.0290 O   0  0  0  0  0  0  0  0  0  0  0  0
  188.2620  178.6050  139.1640 N   0  0  0  0  0  0  0  0  0  0  0  0
  189.2820  177.6710  138.7750 C   0  0  0  0  0  0  0  0  0  0  0  0
  189.7430  176.9300  139.7360 N   0  0  0  0  0  0  0  0  0  0  0  0
  189.0060  177.3690  140.8610 C   0  0  0  0  0  0  0  0  0  0  0  0
  188.1030  178.4110  140.4280 C   0  0  0  0  0  0  0  0  0  0  0  0
  189.7740  177.5580  137.3770 C   0  0  0  0  0  1  0  0  0  0  0  0
  183.7050  178.4410  141.7650 C   0  0  0  0  0  2  0  0  0  0  0  0
  182.6740  177.0790  139.9780 C   0  0  0  0  0  2  0  0  0  0  0  0
  181.5510  177.8890  139.5290 N   0  0  0  0  0  2  0  0  0  0  0  0
  182.3510  179.0780  139.7820 C   0  0  0  0  0  2  0  0  0  0  0  0
  183.5400  178.2810  140.2630 C   0  0  0  0  0  3  0  0  0  0  0  0
  1 23  1  6  0  0  0
  1  2  1  0  0  0  0
  2  4  1  0  0  0  0
  3  6  2  0  0  0  0
  3  9  1  0  0  0  0
  4  7  2  0  0  0  0
  4  5  1  0  0  0  0
  5  6  1  0  0  0  0
  7  3  1  0  0  0  0
  9  8  2  0  0  0  0
 10  9  1  0  0  0  0
 11 10  1  0  0  0  0
 12 11  1  0  0  0  0
 12 13  1  0  0  0  0
 14 15  1  0  0  0  0
 14  1  1  0  0  0  0
 17 21  2  0  0  0  0
 18 17  1  0  0  0  0
 18 19  2  0  0  0  0
 19 20  1  0  0  0  0
 20 16  2  0  0  0  0
 21 20  1  0  0  0  0
 21 15  1  0  0  0  0
 22 18  1  0  0  0  0
 24 27  1  0  0  0  0
 25 26  1  0  0  0  0
 25 24  1  0  0  0  0
 26 27  1  0  0  0  0
 27 23  1  0  0  0  0
M  END
>  <MODEL>
6

>  <REMARK>
 VINA RESULT:      -6.9      2.328      3.545
  Name = 
  10 active torsions:
  status: ('A' for Active; 'I' for Inactive)
    1  A    between atoms: N_2  and  C_7
    2  A    between atoms: N_2  and  C_15
    3  A    between atoms: O_6  and  N_19
    4  A    between atoms: O_6  and  C_23
    5  A    between atoms: C_7  and  N_19
    6  A    between atoms: C_7  and  C_21
    7  A    between atoms: C_8  and  C_10
    8  A    between atoms: C_10  and  N_18
    9  A    between atoms: C_11  and  C_13
   10  A    between atoms: C_21  and  C_26
                            x       y       z     vdW  Elec       q    Type
                         _______ _______ _______ _____ _____    ______ ____

>  <TORSDO>
F 10

$$$$
=
 OpenBabel10232411323D

 27 29  0  0  1  0  0  0  0  0999 V2000
  189.5140  177.5640  142.2170 C   0  0  1  0  0  3  0  0  0  0  0  0
  188.2270  176.9860  142.5760 N   0  0  0  0  0  2  0  0  0  0  0  0
  185.1660  178.6350  143.7800 C   0  0  0  0  0  0  0  0  0  0  0  0
  187.0500  177.7750  142.7490 C   0  0  0  0  0  0  0  0  0  0  0  0
  186.3870  178.8190  141.6160 S   0  0  0  0  0  0  0  0  0  0  0  0
  185.0810  179.3110  142.5580 C   0  0  0  0  0  3  0  0  0  0  0  0
  186.2730  177.7770  143.8920 C   0  0  0  0  0  3  0  0  0  0  0  0
  184.5930  179.0280  146.0370 O   0  0  0  0  0  0  0  0  0  0  0  0
  184.1780  178.8540  144.8600 C   0  0  0  0  0  0  0  0  0  0  0  0
  182.7600  178.8700  144.6340 N   0  0  0  0  0  2  0  0  0  0  0  0
  182.1110  178.9360  143.3300 C   0  0  0  0  0  2  0  0  0  0  0  0
  180.5990  178.9350  143.4860 C   0  0  0  0  0  2  0  0  0  0  0  0
  179.9870  180.0710  142.6910 C   0  0  0  0  0  1  0  0  0  0  0  0
  190.3480  177.6690  143.4050 N   0  0  0  0  0  2  0  0  0  0  0  0
  189.8750  176.7500  144.3180 O   0  0  0  0  0  0  0  0  0  0  0  0
  192.0910  176.5450  146.4190 O   0  0  0  0  0  0  0  0  0  0  0  0
  188.7750  177.4470  146.2890 N   0  0  0  0  0  0  0  0  0  0  0  0
  189.1760  177.6110  147.6580 C   0  0  0  0  0  0  0  0  0  0  0  0
  190.4170  177.3210  147.9060 N   0  0  0  0  0  0  0  0  0  0  0  0
  190.9130  176.9300  146.6390 C   0  0  0  0  0  0  0  0  0  0  0  0
  189.8360  177.0350  145.6830 C   0  0  0  0  0  0  0  0  0  0  0  0
  188.2440  178.0810  148.7160 C   0  0  0  0  0  1  0  0  0  0  0  0
  190.2030  176.6850  141.1860 C   0  0  0  0  0  2  0  0  0  0  0  0
  190.8520  176.4470  138.8130 C   0  0  0  0  0  2  0  0  0  0  0  0
  189.5800  176.3030  138.1180 N   0  0  0  0  0  2  0  0  0  0  0  0
  188.9880  177.2160  139.0850 C   0  0  0  0  0  2  0  0  0  0  0  0
  190.2830  177.3910  139.8430 C   0  0  0  0  0  3  0  0  0  0  0  0
  1 23  1  6  0  0  0
  1  2  1  0  0  0  0
  1 14  1  0  0  0  0
  2  4  1  0  0  0  0
  3  7  1  0  0  0  0
  3  9  1  0  0  0  0
  4  7  2  0  0  0  0
  5  6  1  0  0  0  0
  5  4  1  0  0  0  0
  6  3  2  0  0  0  0
  9  8  2  0  0  0  0
 10  9  1  0  0  0  0
 11 12  1  0  0  0  0
 11 10  1  0  0  0  0
 13 12  1  0  0  0  0
 14 15  1  0  0  0  0
 15 21  1  0  0  0  0
 16 20  2  0  0  0  0
 17 18  1  0  0  0  0
 18 19  2  0  0  0  0
 18 22  1  0  0  0  0
 20 19  1  0  0  0  0
 21 17  2  0  0  0  0
 21 20  1  0  0  0  0
 24 27  1  0  0  0  0
 25 24  1  0  0  0  0
 25 26  1  0  0  0  0
 26 27  1  0  0  0  0
 27 23  1  0  0  0  0
M  END
>  <MODEL>
7

>  <REMARK>
 VINA RESULT:      -6.9      2.405      7.465
  Name = 
  10 active torsions:
  status: ('A' for Active; 'I' for Inactive)
    1  A    between atoms: N_2  and  C_7
    2  A    between atoms: N_2  and  C_15
    3  A    between atoms: O_6  and  N_19
    4  A    between atoms: O_6  and  C_23
    5  A    between atoms: C_7  and  N_19
    6  A    between atoms: C_7  and  C_21
    7  A    between atoms: C_8  and  C_10
    8  A    between atoms: C_10  and  N_18
    9  A    between atoms: C_11  and  C_13
   10  A    between atoms: C_21  and  C_26
                            x       y       z     vdW  Elec       q    Type
                         _______ _______ _______ _____ _____    ______ ____

>  <TORSDO>
F 10

$$$$
=
 OpenBabel10232411323D

 27 29  0  0  1  0  0  0  0  0999 V2000
  185.3410  178.6310  141.2590 C   0  0  1  0  0  3  0  0  0  0  0  0
  186.6380  179.1840  140.8940 N   0  0  0  0  0  2  0  0  0  0  0  0
  189.5590  177.0670  141.6210 C   0  0  0  0  0  0  0  0  0  0  0  0
  187.8270  178.3950  140.8530 C   0  0  0  0  0  0  0  0  0  0  0  0
  188.7740  178.1080  139.4980 S   0  0  0  0  0  0  0  0  0  0  0  0
  189.9230  177.1520  140.2740 C   0  0  0  0  0  3  0  0  0  0  0  0
  188.3790  177.7590  141.9470 C   0  0  0  0  0  3  0  0  0  0  0  0
  190.1490  175.0350  142.6690 O   0  0  0  0  0  0  0  0  0  0  0  0
  190.3480  176.2760  142.5920 C   0  0  0  0  0  0  0  0  0  0  0  0
  191.3300  176.8590  143.4630 N   0  0  0  0  0  2  0  0  0  0  0  0
  191.8690  178.2080  143.3480 C   0  0  0  0  0  2  0  0  0  0  0  0
  191.0830  179.1740  144.2210 C   0  0  0  0  0  2  0  0  0  0  0  0
  190.1990  178.4110  145.1860 C   0  0  0  0  0  1  0  0  0  0  0  0
  184.9860  179.0730  142.5990 N   0  0  0  0  0  2  0  0  0  0  0  0
  185.2690  178.0330  143.4590 O   0  0  0  0  0  0  0  0  0  0  0  0
  183.3910  179.1620  145.5960 O   0  0  0  0  0  0  0  0  0  0  0  0
  186.6210  178.0000  145.3960 N   0  0  0  0  0  0  0  0  0  0  0  0
  186.4180  178.3720  146.7680 C   0  0  0  0  0  0  0  0  0  0  0  0
  185.2370  178.8340  147.0440 N   0  0  0  0  0  0  0  0  0  0  0  0
  184.5750  178.7850  145.7940 C   0  0  0  0  0  0  0  0  0  0  0  0
  185.4970  178.2540  144.8180 C   0  0  0  0  0  0  0  0  0  0  0  0
  187.4800  178.2370  147.8000 C   0  0  0  0  0  1  0  0  0  0  0  0
  184.2860  179.0980  140.2710 C   0  0  0  0  0  2  0  0  0  0  0  0
  181.8560  179.1810  139.8220 C   0  0  0  0  0  2  0  0  0  0  0  0
  181.6370  178.0820  138.8920 N   0  0  0  0  0  2  0  0  0  0  0  0
  182.6760  177.3340  139.5850 C   0  0  0  0  0  2  0  0  0  0  0  0
  182.9440  178.4490  140.5690 C   0  0  0  0  0  3  0  0  0  0  0  0
  1 23  1  6  0  0  0
  1 14  1  0  0  0  0
  2  1  1  0  0  0  0
  3  7  1  0  0  0  0
  3  9  1  0  0  0  0
  4  2  1  0  0  0  0
  4  7  2  0  0  0  0
  5  6  1  0  0  0  0
  5  4  1  0  0  0  0
  6  3  2  0  0  0  0
  9  8  2  0  0  0  0
  9 10  1  0  0  0  0
 11 10  1  0  0  0  0
 11 12  1  0  0  0  0
 12 13  1  0  0  0  0
 14 15  1  0  0  0  0
 15 21  1  0  0  0  0
 16 20  2  0  0  0  0
 17 18  1  0  0  0  0
 18 19  2  0  0  0  0
 18 22  1  0  0  0  0
 20 19  1  0  0  0  0
 21 17  2  0  0  0  0
 21 20  1  0  0  0  0
 23 27  1  0  0  0  0
 24 27  1  0  0  0  0
 25 26  1  0  0  0  0
 25 24  1  0  0  0  0
 26 27  1  0  0  0  0
M  END
>  <MODEL>
8

>  <REMARK>
 VINA RESULT:      -6.9      3.002      5.853
  Name = 
  10 active torsions:
  status: ('A' for Active; 'I' for Inactive)
    1  A    between atoms: N_2  and  C_7
    2  A    between atoms: N_2  and  C_15
    3  A    between atoms: O_6  and  N_19
    4  A    between atoms: O_6  and  C_23
    5  A    between atoms: C_7  and  N_19
    6  A    between atoms: C_7  and  C_21
    7  A    between atoms: C_8  and  C_10
    8  A    between atoms: C_10  and  N_18
    9  A    between atoms: C_11  and  C_13
   10  A    between atoms: C_21  and  C_26
                            x       y       z     vdW  Elec       q    Type
                         _______ _______ _______ _____ _____    ______ ____

>  <TORSDO>
F 10

$$$$
=
 OpenBabel10232411323D

 27 29  0  0  1  0  0  0  0  0999 V2000
  186.3170  178.6740  143.5150 C   0  0  1  0  0  3  0  0  0  0  0  0
  186.2890  177.7000  144.5970 N   0  0  0  0  0  2  0  0  0  0  0  0
  189.3710  177.2370  146.5540 C   0  0  0  0  0  0  0  0  0  0  0  0
  187.3000  177.6370  145.6030 C   0  0  0  0  0  0  0  0  0  0  0  0
  187.1090  178.0430  147.2200 S   0  0  0  0  0  0  0  0  0  0  0  0
  188.6880  177.6890  147.6870 C   0  0  0  0  0  3  0  0  0  0  0  0
  188.5950  177.2120  145.3820 C   0  0  0  0  0  3  0  0  0  0  0  0
  191.3280  176.6310  147.7280 O   0  0  0  0  0  0  0  0  0  0  0  0
  190.8010  176.8570  146.6060 C   0  0  0  0  0  0  0  0  0  0  0  0
  191.6230  176.7420  145.4360 N   0  0  0  0  0  2  0  0  0  0  0  0
  191.1410  176.7190  144.0600 C   0  0  0  0  0  2  0  0  0  0  0  0
  191.7010  177.8970  143.2790 C   0  0  0  0  0  2  0  0  0  0  0  0
  191.2990  179.2030  143.9350 C   0  0  0  0  0  1  0  0  0  0  0  0
  186.5850  177.9950  142.2570 N   0  0  0  0  0  2  0  0  0  0  0  0
  187.7370  178.5430  141.7350 O   0  0  0  0  0  0  0  0  0  0  0  0
  186.7820  178.5700  138.8260 O   0  0  0  0  0  0  0  0  0  0  0  0
  189.4680  177.3870  140.6180 N   0  0  0  0  0  0  0  0  0  0  0  0
  189.7130  177.0210  139.2510 C   0  0  0  0  0  0  0  0  0  0  0  0
  188.7960  177.3940  138.4100 N   0  0  0  0  0  0  0  0  0  0  0  0
  187.8560  178.0570  139.2350 C   0  0  0  0  0  0  0  0  0  0  0  0
  188.3420  178.0140  140.5940 C   0  0  0  0  0  0  0  0  0  0  0  0
  190.9250  176.2740  138.8260 C   0  0  0  0  0  1  0  0  0  0  0  0
  184.9810  179.3920  143.4340 C   0  0  0  0  0  2  0  0  0  0  0  0
  182.7310  178.8530  144.3040 C   0  0  0  0  0  2  0  0  0  0  0  0
  181.8410  179.1990  143.2040 N   0  0  0  0  0  2  0  0  0  0  0  0
  182.8740  178.7610  142.2770 C   0  0  0  0  0  2  0  0  0  0  0  0
  183.8350  178.3950  143.3840 C   0  0  0  0  0  3  0  0  0  0  0  0
  1 23  1  6  0  0  0
  1  2  1  0  0  0  0
  2  4  1  0  0  0  0
  3  9  1  0  0  0  0
  3  6  2  0  0  0  0
  4  5  1  0  0  0  0
  5  6  1  0  0  0  0
  7  4  2  0  0  0  0
  7  3  1  0  0  0  0
  9  8  2  0  0  0  0
 10  9  1  0  0  0  0
 11 10  1  0  0  0  0
 12 13  1  0  0  0  0
 12 11  1  0  0  0  0
 14  1  1  0  0  0  0
 15 14  1  0  0  0  0
 16 20  2  0  0  0  0
 18 17  1  0  0  0  0
 19 20  1  0  0  0  0
 19 18  2  0  0  0  0
 20 21  1  0  0  0  0
 21 17  2  0  0  0  0
 21 15  1  0  0  0  0
 22 18  1  0  0  0  0
 25 24  1  0  0  0  0
 26 25  1  0  0  0  0
 26 27  1  0  0  0  0
 27 23  1  0  0  0  0
 27 24  1  0  0  0  0
M  END
>  <MODEL>
9

>  <REMARK>
 VINA RESULT:      -6.7      1.880      2.855
  Name = 
  10 active torsions:
  status: ('A' for Active; 'I' for Inactive)
    1  A    between atoms: N_2  and  C_7
    2  A    between atoms: N_2  and  C_15
    3  A    between atoms: O_6  and  N_19
    4  A    between atoms: O_6  and  C_23
    5  A    between atoms: C_7  and  N_19
    6  A    between atoms: C_7  and  C_21
    7  A    between atoms: C_8  and  C_10
    8  A    between atoms: C_10  and  N_18
    9  A    between atoms: C_11  and  C_13
   10  A    between atoms: C_21  and  C_26
                            x       y       z     vdW  Elec       q    Type
                         _______ _______ _______ _____ _____    ______ ____

>  <TORSDO>
F 10

$$$$
