=
 OpenBabel10232408413D

 40 42  0  0  1  0  0  0  0  0999 V2000
  192.3810  177.6120  140.6570 C   0  0  0  0  0  3  0  0  0  0  0  0
  192.9970  177.0380  139.6240 C   0  0  0  0  0  3  0  0  0  0  0  0
  190.8760  177.5560  140.8350 C   0  0  1  0  0  3  0  0  0  0  0  0
  192.2100  176.4260  138.5500 C   0  0  0  0  0  0  0  0  0  0  0  0
  190.1560  177.2680  139.5280 C   0  0  0  0  0  3  0  0  0  0  0  0
  192.7870  175.7620  137.6490 O   0  0  0  0  0  0  0  0  0  0  0  0
  190.7600  176.6780  138.4850 C   0  0  0  0  0  0  0  0  0  0  0  0
  190.0830  176.4720  137.2380 N   0  0  0  0  0  2  0  0  0  0  0  0
  187.4770  173.8950  136.9240 C   0  0  0  0  0  0  0  0  0  0  0  0
  187.0800  172.4610  136.9340 C   0  0  0  0  0  1  0  0  0  0  0  0
  188.7660  174.3890  137.0440 C   0  0  0  0  0  0  0  0  0  0  0  0
  187.5920  176.4050  136.9010 C   0  0  0  0  0  0  0  0  0  0  0  0
  186.4170  175.1910  136.8350 S   0  0  0  0  0  0  0  0  0  0  0  0
  189.8810  173.5720  137.1850 O   0  0  0  0  0  1  0  0  0  0  0  0
  188.8410  175.7880  137.0220 C   0  0  0  0  0  0  0  0  0  0  0  0
  187.3080  177.8620  137.0800 C   0  0  0  0  0  2  0  0  0  0  0  0
  185.9900  178.0910  137.8050 C   0  0  0  0  0  2  0  0  0  0  0  0
  186.2310  178.5620  139.0970 O   0  0  0  0  0  0  0  0  0  0  0  0
  184.0730  179.5750  138.9400 C   0  0  0  0  0  1  0  0  0  0  0  0
  184.9710  178.6150  139.6990 C   0  0  2  0  0  3  0  0  0  0  0  0
  185.1020  179.0450  141.1550 C   0  0  0  0  0  2  0  0  0  0  0  0
  184.5520  178.0820  142.0040 O   0  0  0  0  0  0  0  0  0  0  0  0
  185.1860  178.2900  143.2310 C   0  0  0  0  0  2  0  0  0  0  0  0
  183.1640  179.4120  143.8470 O   0  0  0  0  0  1  0  0  0  0  0  0
  184.1640  178.5630  144.3240 C   0  0  2  0  0  3  0  0  0  0  0  0
  184.8270  179.1800  145.5400 C   0  0  0  0  0  1  0  0  0  0  0  0
  190.5180  176.5230  141.9210 C   0  0  2  0  0  3  0  0  0  0  0  0
  188.5310  175.8910  143.1160 O   0  0  0  0  0  0  0  0  0  0  0  0
  189.2060  176.8150  142.5890 C   0  0  0  0  0  0  0  0  0  0  0  0
  188.6830  178.1380  142.5520 N   0  0  0  0  0  1  0  0  0  0  0  0
  191.6100  176.4480  142.9860 C   0  0  0  0  0  2  0  0  0  0  0  0
  191.2310  177.2840  144.1940 C   0  0  0  0  0  2  0  0  0  0  0  0
  191.6230  176.5870  145.4070 N   0  0  0  0  0  2  0  0  0  0  0  0
  191.3410  176.1410  147.6670 O   0  0  0  0  0  0  0  0  0  0  0  0
  190.9500  176.7790  146.6530 C   0  0  0  0  0  0  0  0  0  0  0  0
  188.0840  178.0000  148.4780 C   0  0  0  0  0  2  0  0  0  0  0  0
  187.4250  177.6880  147.1510 C   0  0  0  0  0  2  0  0  0  0  0  0
  189.5670  178.1640  148.1960 C   0  0  0  0  0  2  0  0  0  0  0  0
  188.5070  177.0640  146.3030 C   0  0  0  0  0  2  0  0  0  0  0  0
  189.7900  177.7220  146.7600 C   0  0  0  0  0  3  0  0  0  0  0  0
  1  3  1  0  0  0  0
  2  1  2  0  0  0  0
  3 27  1  1  0  0  0
  4  2  1  0  0  0  0
  5  3  1  0  0  0  0
  6  4  2  0  0  0  0
  7  4  1  0  0  0  0
  7  5  2  0  0  0  0
  8  7  1  0  0  0  0
  9 10  1  0  0  0  0
  9 11  2  0  0  0  0
 11 14  1  0  0  0  0
 12 15  2  0  0  0  0
 12 16  1  0  0  0  0
 13 12  1  0  0  0  0
 13  9  1  0  0  0  0
 15 11  1  0  0  0  0
 15  8  1  0  0  0  0
 16 17  1  0  0  0  0
 17 18  1  0  0  0  0
 18 20  1  0  0  0  0
 20 19  1  6  0  0  0
 20 21  1  0  0  0  0
 21 22  1  0  0  0  0
 22 23  1  0  0  0  0
 23 25  1  0  0  0  0
 24 25  1  0  0  0  0
 25 26  1  1  0  0  0
 27 29  1  0  0  0  0
 27 31  1  1  0  0  0
 29 28  2  0  0  0  0
 30 29  1  0  0  0  0
 31 32  1  0  0  0  0
 32 33  1  0  0  0  0
 33 35  1  0  0  0  0
 35 40  1  0  0  0  0
 35 34  2  0  0  0  0
 37 36  1  0  0  0  0
 38 36  1  0  0  0  0
 39 40  1  0  0  0  0
 39 37  1  0  0  0  0
 40 38  1  0  0  0  0
M  END
>  <MODEL>
1

>  <REMARK>
 VINA RESULT:      -7.7      0.000      0.000
  Name = 
  16 active torsions:
  status: ('A' for Active; 'I' for Inactive)
    1  A    between atoms: C_3  and  C_19
    2  A    between atoms: O_4  and  C_8
    3  A    between atoms: O_4  and  C_35
    4  A    between atoms: C_7  and  C_8
    5  A    between atoms: C_7  and  C_33
    6  A    between atoms: N_9  and  C_27
    7  A    between atoms: C_10  and  O_16
    8  A    between atoms: C_10  and  C_35
    9  A    between atoms: C_12  and  C_19
   10  A    between atoms: C_12  and  C_27
   11  A    between atoms: O_16  and  C_38
   12  A    between atoms: C_18  and  C_19
   13  A    between atoms: C_21  and  C_38
   14  A    between atoms: C_29  and  C_30
   15  A    between atoms: C_32  and  N_34
   16  A    between atoms: N_34  and  C_40
                            x       y       z     vdW  Elec       q    Type
                         _______ _______ _______ _____ _____    ______ ____

>  <TORSDO>
F 16

$$$$
=
 OpenBabel10232408413D

 40 42  0  0  1  0  0  0  0  0999 V2000
  190.7050  175.3090  137.7930 C   0  0  0  0  0  3  0  0  0  0  0  0
  190.0130  174.2800  137.3050 C   0  0  0  0  0  3  0  0  0  0  0  0
  190.0780  176.6690  138.0260 C   0  0  1  0  0  3  0  0  0  0  0  0
  188.6300  174.4730  136.8600 C   0  0  0  0  0  0  0  0  0  0  0  0
  188.8200  176.8680  137.1970 C   0  0  0  0  0  3  0  0  0  0  0  0
  187.9310  173.4780  136.5320 O   0  0  0  0  0  0  0  0  0  0  0  0
  188.1050  175.8410  136.7110 C   0  0  0  0  0  0  0  0  0  0  0  0
  186.9570  176.0490  135.8770 N   0  0  0  0  0  2  0  0  0  0  0  0
  183.4870  174.9350  136.3780 C   0  0  0  0  0  0  0  0  0  0  0  0
  182.4100  173.9380  136.1340 C   0  0  0  0  0  1  0  0  0  0  0  0
  184.7620  174.9130  135.8350 C   0  0  0  0  0  0  0  0  0  0  0  0
  184.9420  176.8280  137.1610 C   0  0  0  0  0  0  0  0  0  0  0  0
  183.3780  176.2420  137.4220 S   0  0  0  0  0  0  0  0  0  0  0  0
  185.1960  173.9250  134.9580 O   0  0  0  0  0  1  0  0  0  0  0  0
  185.5770  175.9710  136.2580 C   0  0  0  0  0  0  0  0  0  0  0  0
  185.5990  177.9020  137.9690 C   0  0  0  0  0  2  0  0  0  0  0  0
  184.5810  178.8840  138.5290 C   0  0  0  0  0  2  0  0  0  0  0  0
  185.0510  179.4290  139.7250 O   0  0  0  0  0  0  0  0  0  0  0  0
  182.9440  178.7800  140.6460 C   0  0  0  0  0  1  0  0  0  0  0  0
  184.4550  178.6600  140.7280 C   0  0  2  0  0  3  0  0  0  0  0  0
  184.9510  179.1050  142.0980 C   0  0  0  0  0  2  0  0  0  0  0  0
  184.7560  178.0970  143.0440 O   0  0  0  0  0  0  0  0  0  0  0  0
  185.5220  178.4920  144.1440 C   0  0  0  0  0  2  0  0  0  0  0  0
  185.0020  178.7300  146.4670 O   0  0  0  0  0  1  0  0  0  0  0  0
  184.6490  179.1680  145.1910 C   0  0  2  0  0  3  0  0  0  0  0  0
  183.1820  178.8820  144.9350 C   0  0  0  0  0  1  0  0  0  0  0  0
  189.8050  176.8680  139.5290 C   0  0  2  0  0  3  0  0  0  0  0  0
  187.9840  177.9260  140.6850 O   0  0  0  0  0  0  0  0  0  0  0  0
  188.8790  178.0160  139.8050 C   0  0  0  0  0  0  0  0  0  0  0  0
  188.9640  179.1880  139.0030 N   0  0  0  0  0  1  0  0  0  0  0  0
  191.1070  177.0860  140.2970 C   0  0  0  0  0  2  0  0  0  0  0  0
  190.8700  176.9580  141.7900 C   0  0  0  0  0  2  0  0  0  0  0  0
  191.4650  178.0940  142.4730 N   0  0  0  0  0  2  0  0  0  0  0  0
  191.9130  179.2790  144.4180 O   0  0  0  0  0  0  0  0  0  0  0  0
  191.3730  178.2710  143.8880 C   0  0  0  0  0  0  0  0  0  0  0  0
  189.1210  177.5570  146.6190 C   0  0  0  0  0  2  0  0  0  0  0  0
  190.3140  176.7300  147.0510 C   0  0  0  0  0  2  0  0  0  0  0  0
  189.2650  177.7750  145.1230 C   0  0  0  0  0  2  0  0  0  0  0  0
  191.3900  177.0170  146.0310 C   0  0  0  0  0  2  0  0  0  0  0  0
  190.6470  177.2740  144.7390 C   0  0  0  0  0  3  0  0  0  0  0  0
  1  3  1  0  0  0  0
  2  1  2  0  0  0  0
  3 27  1  1  0  0  0
  4  2  1  0  0  0  0
  5  3  1  0  0  0  0
  6  4  2  0  0  0  0
  7  4  1  0  0  0  0
  7  5  2  0  0  0  0
  8 15  1  0  0  0  0
  8  7  1  0  0  0  0
  9 13  1  0  0  0  0
 10  9  1  0  0  0  0
 11 15  1  0  0  0  0
 11  9  2  0  0  0  0
 12 13  1  0  0  0  0
 12 16  1  0  0  0  0
 14 11  1  0  0  0  0
 15 12  2  0  0  0  0
 16 17  1  0  0  0  0
 17 18  1  0  0  0  0
 18 20  1  0  0  0  0
 20 19  1  1  0  0  0
 20 21  1  0  0  0  0
 21 22  1  0  0  0  0
 22 23  1  0  0  0  0
 23 25  1  0  0  0  0
 25 26  1  6  0  0  0
 25 24  1  0  0  0  0
 27 29  1  0  0  0  0
 27 31  1  1  0  0  0
 29 28  2  0  0  0  0
 30 29  1  0  0  0  0
 31 32  1  0  0  0  0
 32 33  1  0  0  0  0
 33 35  1  0  0  0  0
 35 34  2  0  0  0  0
 35 40  1  0  0  0  0
 36 37  1  0  0  0  0
 38 36  1  0  0  0  0
 39 37  1  0  0  0  0
 40 38  1  0  0  0  0
 40 39  1  0  0  0  0
M  END
>  <MODEL>
2

>  <REMARK>
 VINA RESULT:      -7.0      2.235      3.199
  Name = 
  16 active torsions:
  status: ('A' for Active; 'I' for Inactive)
    1  A    between atoms: C_3  and  C_19
    2  A    between atoms: O_4  and  C_8
    3  A    between atoms: O_4  and  C_35
    4  A    between atoms: C_7  and  C_8
    5  A    between atoms: C_7  and  C_33
    6  A    between atoms: N_9  and  C_27
    7  A    between atoms: C_10  and  O_16
    8  A    between atoms: C_10  and  C_35
    9  A    between atoms: C_12  and  C_19
   10  A    between atoms: C_12  and  C_27
   11  A    between atoms: O_16  and  C_38
   12  A    between atoms: C_18  and  C_19
   13  A    between atoms: C_21  and  C_38
   14  A    between atoms: C_29  and  C_30
   15  A    between atoms: C_32  and  N_34
   16  A    between atoms: N_34  and  C_40
                            x       y       z     vdW  Elec       q    Type
                         _______ _______ _______ _____ _____    ______ ____

>  <TORSDO>
F 16

$$$$
=
 OpenBabel10232408413D

 40 42  0  0  1  0  0  0  0  0999 V2000
  182.8120  178.8040  141.1940 C   0  0  0  0  0  3  0  0  0  0  0  0
  183.6240  178.4000  142.1700 C   0  0  0  0  0  3  0  0  0  0  0  0
  183.2900  178.9860  139.7670 C   0  0  1  0  0  3  0  0  0  0  0  0
  185.0560  178.2320  141.9090 C   0  0  0  0  0  0  0  0  0  0  0  0
  184.7960  179.1700  139.6880 C   0  0  0  0  0  3  0  0  0  0  0  0
  185.7990  177.7160  142.7860 O   0  0  0  0  0  0  0  0  0  0  0  0
  185.6270  178.7560  140.6560 C   0  0  0  0  0  0  0  0  0  0  0  0
  187.0400  178.9950  140.5940 N   0  0  0  0  0  2  0  0  0  0  0  0
  189.3270  177.4530  138.1600 C   0  0  0  0  0  0  0  0  0  0  0  0
  189.8170  177.3240  136.7610 C   0  0  0  0  0  1  0  0  0  0  0  0
  188.2600  178.2290  138.5850 C   0  0  0  0  0  0  0  0  0  0  0  0
  188.9500  177.3620  140.6420 C   0  0  0  0  0  0  0  0  0  0  0  0
  190.0270  176.7320  139.5010 S   0  0  0  0  0  0  0  0  0  0  0  0
  187.4890  178.9980  137.7210 O   0  0  0  0  0  1  0  0  0  0  0  0
  188.0360  178.1760  139.9670 C   0  0  0  0  0  0  0  0  0  0  0  0
  189.1290  177.2790  142.1250 C   0  0  0  0  0  2  0  0  0  0  0  0
  190.1460  176.2140  142.5070 C   0  0  0  0  0  2  0  0  0  0  0  0
  191.2900  176.8150  143.0380 O   0  0  0  0  0  0  0  0  0  0  0  0
  191.5910  178.9390  144.0870 C   0  0  0  0  0  1  0  0  0  0  0  0
  190.8210  177.6310  144.0690 C   0  0  2  0  0  3  0  0  0  0  0  0
  190.9520  176.9170  145.4080 C   0  0  0  0  0  2  0  0  0  0  0  0
  190.3720  177.6730  146.4290 O   0  0  0  0  0  0  0  0  0  0  0  0
  189.6710  176.7440  147.2020 C   0  0  0  0  0  2  0  0  0  0  0  0
  187.7620  177.9180  146.3630 O   0  0  0  0  0  1  0  0  0  0  0  0
  188.2550  177.2300  147.4720 C   0  0  2  0  0  3  0  0  0  0  0  0
  188.2180  178.1280  148.6930 C   0  0  0  0  0  1  0  0  0  0  0  0
  182.8160  177.8020  138.9030 C   0  0  2  0  0  3  0  0  0  0  0  0
  182.9030  177.8520  136.5020 O   0  0  0  0  0  0  0  0  0  0  0  0
  182.3210  178.2300  137.5530 C   0  0  0  0  0  0  0  0  0  0  0  0
  181.2310  179.1410  137.4660 N   0  0  0  0  0  1  0  0  0  0  0  0
  181.7130  177.0170  139.6090 C   0  0  0  0  0  2  0  0  0  0  0  0
  181.9960  175.5280  139.5420 C   0  0  0  0  0  2  0  0  0  0  0  0
  181.7030  175.0390  138.2060 N   0  0  0  0  0  2  0  0  0  0  0  0
  182.3800  174.0570  136.2150 O   0  0  0  0  0  0  0  0  0  0  0  0
  182.7030  174.4640  137.3640 C   0  0  0  0  0  0  0  0  0  0  0  0
  186.2340  174.3380  136.6190 C   0  0  0  0  0  2  0  0  0  0  0  0
  186.0920  173.0460  137.3960 C   0  0  0  0  0  2  0  0  0  0  0  0
  185.0550  175.2110  137.0130 C   0  0  0  0  0  2  0  0  0  0  0  0
  184.6180  172.9170  137.6940 C   0  0  0  0  0  2  0  0  0  0  0  0
  184.1200  174.3380  137.8330 C   0  0  0  0  0  3  0  0  0  0  0  0
  1  2  2  0  0  0  0
  3 27  1  6  0  0  0
  3  1  1  0  0  0  0
  4  2  1  0  0  0  0
  4  6  2  0  0  0  0
  5  3  1  0  0  0  0
  5  7  2  0  0  0  0
  7  4  1  0  0  0  0
  8  7  1  0  0  0  0
  9 11  2  0  0  0  0
  9 13  1  0  0  0  0
 10  9  1  0  0  0  0
 11 15  1  0  0  0  0
 12 16  1  0  0  0  0
 13 12  1  0  0  0  0
 14 11  1  0  0  0  0
 15  8  1  0  0  0  0
 15 12  2  0  0  0  0
 16 17  1  0  0  0  0
 17 18  1  0  0  0  0
 18 20  1  0  0  0  0
 20 19  1  1  0  0  0
 20 21  1  0  0  0  0
 21 22  1  0  0  0  0
 22 23  1  0  0  0  0
 23 25  1  0  0  0  0
 24 25  1  0  0  0  0
 25 26  1  1  0  0  0
 27 31  1  1  0  0  0
 28 29  2  0  0  0  0
 29 27  1  0  0  0  0
 30 29  1  0  0  0  0
 32 31  1  0  0  0  0
 33 32  1  0  0  0  0
 34 35  2  0  0  0  0
 35 40  1  0  0  0  0
 35 33  1  0  0  0  0
 36 38  1  0  0  0  0
 36 37  1  0  0  0  0
 37 39  1  0  0  0  0
 38 40  1  0  0  0  0
 39 40  1  0  0  0  0
M  END
>  <MODEL>
3

>  <REMARK>
 VINA RESULT:      -7.0      3.224      8.430
  Name = 
  16 active torsions:
  status: ('A' for Active; 'I' for Inactive)
    1  A    between atoms: C_3  and  C_19
    2  A    between atoms: O_4  and  C_8
    3  A    between atoms: O_4  and  C_35
    4  A    between atoms: C_7  and  C_8
    5  A    between atoms: C_7  and  C_33
    6  A    between atoms: N_9  and  C_27
    7  A    between atoms: C_10  and  O_16
    8  A    between atoms: C_10  and  C_35
    9  A    between atoms: C_12  and  C_19
   10  A    between atoms: C_12  and  C_27
   11  A    between atoms: O_16  and  C_38
   12  A    between atoms: C_18  and  C_19
   13  A    between atoms: C_21  and  C_38
   14  A    between atoms: C_29  and  C_30
   15  A    between atoms: C_32  and  N_34
   16  A    between atoms: N_34  and  C_40
                            x       y       z     vdW  Elec       q    Type
                         _______ _______ _______ _____ _____    ______ ____

>  <TORSDO>
F 16

$$$$
=
 OpenBabel10232408413D

 40 42  0  0  1  0  0  0  0  0999 V2000
  187.9600  177.3660  141.7340 C   0  0  0  0  0  3  0  0  0  0  0  0
  187.8970  178.1880  140.6870 C   0  0  0  0  0  3  0  0  0  0  0  0
  189.2430  176.6710  142.1430 C   0  0  1  0  0  3  0  0  0  0  0  0
  189.0640  178.3520  139.8150 C   0  0  0  0  0  0  0  0  0  0  0  0
  190.2390  176.5900  140.9980 C   0  0  0  0  0  3  0  0  0  0  0  0
  189.0550  179.2310  138.9120 O   0  0  0  0  0  0  0  0  0  0  0  0
  190.1970  177.4200  139.9440 C   0  0  0  0  0  0  0  0  0  0  0  0
  191.1060  177.2880  138.8420 N   0  0  0  0  0  2  0  0  0  0  0  0
  192.7230  174.3910  137.2530 C   0  0  0  0  0  0  0  0  0  0  0  0
  193.9470  173.5870  136.9900 C   0  0  0  0  0  1  0  0  0  0  0  0
  192.6620  175.5860  137.9530 C   0  0  0  0  0  0  0  0  0  0  0  0
  190.3950  175.3130  137.4600 C   0  0  0  0  0  0  0  0  0  0  0  0
  191.1660  173.9580  136.8070 S   0  0  0  0  0  0  0  0  0  0  0  0
  193.7810  176.2010  138.5030 O   0  0  0  0  0  1  0  0  0  0  0  0
  191.3690  176.1130  138.0640 C   0  0  0  0  0  0  0  0  0  0  0  0
  188.9140  175.4690  137.6010 C   0  0  0  0  0  2  0  0  0  0  0  0
  188.3030  176.1400  136.3800 C   0  0  0  0  0  2  0  0  0  0  0  0
  186.9200  175.9470  136.3710 O   0  0  0  0  0  0  0  0  0  0  0  0
  187.3590  178.0300  135.2880 C   0  0  0  0  0  1  0  0  0  0  0  0
  186.3830  177.2100  136.1120 C   0  0  2  0  0  3  0  0  0  0  0  0
  186.0600  177.9220  137.4190 C   0  0  0  0  0  2  0  0  0  0  0  0
  184.7040  177.7940  137.7280 O   0  0  0  0  0  0  0  0  0  0  0  0
  184.5700  178.3860  138.9860 C   0  0  0  0  0  2  0  0  0  0  0  0
  182.9650  176.8940  139.9460 O   0  0  0  0  0  1  0  0  0  0  0  0
  183.1560  178.2070  139.5160 C   0  0  2  0  0  3  0  0  0  0  0  0
  182.1340  178.5550  138.4520 C   0  0  0  0  0  1  0  0  0  0  0  0
  189.8480  177.3720  143.3740 C   0  0  2  0  0  3  0  0  0  0  0  0
  192.1720  177.9700  143.2570 O   0  0  0  0  0  0  0  0  0  0  0  0
  191.3130  177.0940  143.5390 C   0  0  0  0  0  0  0  0  0  0  0  0
  191.7350  175.7960  143.9420 N   0  0  0  0  0  1  0  0  0  0  0  0
  189.1170  176.9620  144.6500 C   0  0  0  0  0  2  0  0  0  0  0  0
  188.7860  178.1830  145.4870 C   0  0  0  0  0  2  0  0  0  0  0  0
  187.7210  177.8560  146.4200 N   0  0  0  0  0  2  0  0  0  0  0  0
  185.4720  177.8110  146.9910 O   0  0  0  0  0  0  0  0  0  0  0  0
  186.3460  178.1220  146.1380 C   0  0  0  0  0  0  0  0  0  0  0  0
  183.7480  179.3030  143.9270 C   0  0  0  0  0  2  0  0  0  0  0  0
  184.4770  178.3690  142.9840 C   0  0  0  0  0  2  0  0  0  0  0  0
  184.7310  179.6610  145.0270 C   0  0  0  0  0  2  0  0  0  0  0  0
  185.5520  177.7160  143.8200 C   0  0  0  0  0  2  0  0  0  0  0  0
  185.9390  178.7590  144.8440 C   0  0  0  0  0  3  0  0  0  0  0  0
  1  3  1  0  0  0  0
  2  1  2  0  0  0  0
  3 27  1  1  0  0  0
  4  7  1  0  0  0  0
  4  2  1  0  0  0  0
  5  3  1  0  0  0  0
  6  4  2  0  0  0  0
  7  5  2  0  0  0  0
  8  7  1  0  0  0  0
  9 11  2  0  0  0  0
 10  9  1  0  0  0  0
 11 15  1  0  0  0  0
 11 14  1  0  0  0  0
 12 16  1  0  0  0  0
 12 15  2  0  0  0  0
 13  9  1  0  0  0  0
 13 12  1  0  0  0  0
 15  8  1  0  0  0  0
 17 16  1  0  0  0  0
 18 17  1  0  0  0  0
 20 19  1  1  0  0  0
 20 18  1  0  0  0  0
 20 21  1  0  0  0  0
 21 22  1  0  0  0  0
 22 23  1  0  0  0  0
 23 25  1  0  0  0  0
 25 26  1  6  0  0  0
 25 24  1  0  0  0  0
 27 29  1  0  0  0  0
 27 31  1  1  0  0  0
 28 29  2  0  0  0  0
 29 30  1  0  0  0  0
 31 32  1  0  0  0  0
 32 33  1  0  0  0  0
 35 33  1  0  0  0  0
 35 34  2  0  0  0  0
 36 38  1  0  0  0  0
 37 39  1  0  0  0  0
 37 36  1  0  0  0  0
 39 40  1  0  0  0  0
 40 38  1  0  0  0  0
 40 35  1  0  0  0  0
M  END
>  <MODEL>
4

>  <REMARK>
 VINA RESULT:      -6.9      2.314      4.410
  Name = 
  16 active torsions:
  status: ('A' for Active; 'I' for Inactive)
    1  A    between atoms: C_3  and  C_19
    2  A    between atoms: O_4  and  C_8
    3  A    between atoms: O_4  and  C_35
    4  A    between atoms: C_7  and  C_8
    5  A    between atoms: C_7  and  C_33
    6  A    between atoms: N_9  and  C_27
    7  A    between atoms: C_10  and  O_16
    8  A    between atoms: C_10  and  C_35
    9  A    between atoms: C_12  and  C_19
   10  A    between atoms: C_12  and  C_27
   11  A    between atoms: O_16  and  C_38
   12  A    between atoms: C_18  and  C_19
   13  A    between atoms: C_21  and  C_38
   14  A    between atoms: C_29  and  C_30
   15  A    between atoms: C_32  and  N_34
   16  A    between atoms: N_34  and  C_40
                            x       y       z     vdW  Elec       q    Type
                         _______ _______ _______ _____ _____    ______ ____

>  <TORSDO>
F 16

$$$$
=
 OpenBabel10232408413D

 40 42  0  0  1  0  0  0  0  0999 V2000
  182.5010  178.8330  143.6040 C   0  0  0  0  0  3  0  0  0  0  0  0
  181.4600  179.3810  142.9770 C   0  0  0  0  0  3  0  0  0  0  0  0
  183.6760  178.2380  142.8540 C   0  0  1  0  0  3  0  0  0  0  0  0
  181.3690  179.3160  141.5160 C   0  0  0  0  0  0  0  0  0  0  0  0
  183.3160  177.8730  141.4240 C   0  0  0  0  0  3  0  0  0  0  0  0
  180.4640  179.9540  140.9140 O   0  0  0  0  0  0  0  0  0  0  0  0
  182.2800  178.4270  140.7750 C   0  0  0  0  0  0  0  0  0  0  0  0
  181.9170  178.0230  139.4470 N   0  0  0  0  0  2  0  0  0  0  0  0
  182.2900  174.8900  137.5570 C   0  0  0  0  0  0  0  0  0  0  0  0
  181.7030  173.6260  137.0360 C   0  0  0  0  0  1  0  0  0  0  0  0
  181.6570  175.8110  138.3760 C   0  0  0  0  0  0  0  0  0  0  0  0
  183.7130  176.8880  138.1040 C   0  0  0  0  0  0  0  0  0  0  0  0
  183.8180  175.4720  137.1860 S   0  0  0  0  0  0  0  0  0  0  0  0
  180.3530  175.6510  138.8320 O   0  0  0  0  0  1  0  0  0  0  0  0
  182.4470  176.9240  138.6950 C   0  0  0  0  0  0  0  0  0  0  0  0
  184.6950  178.0150  138.0530 C   0  0  0  0  0  2  0  0  0  0  0  0
  186.0940  177.5240  137.7180 C   0  0  0  0  0  2  0  0  0  0  0  0
  187.0380  178.4900  138.0740 O   0  0  0  0  0  0  0  0  0  0  0  0
  188.1120  176.4310  137.5110 C   0  0  0  0  0  1  0  0  0  0  0  0
  188.2720  177.9220  137.7470 C   0  0  2  0  0  3  0  0  0  0  0  0
  189.2810  178.1810  138.8590 C   0  0  0  0  0  2  0  0  0  0  0  0
  189.5090  177.0180  139.5980 O   0  0  0  0  0  0  0  0  0  0  0  0
  190.6120  177.3200  140.4000 C   0  0  0  0  0  2  0  0  0  0  0  0
  191.2150  178.0490  142.5980 O   0  0  0  0  0  1  0  0  0  0  0  0
  190.1970  177.4470  141.8580 C   0  0  2  0  0  3  0  0  0  0  0  0
  189.8660  176.0890  142.4440 C   0  0  0  0  0  1  0  0  0  0  0  0
  184.8740  179.2060  142.9090 C   0  0  2  0  0  3  0  0  0  0  0  0
  186.6610  177.6000  142.9520 O   0  0  0  0  0  0  0  0  0  0  0  0
  186.1390  178.5950  142.3830 C   0  0  0  0  0  0  0  0  0  0  0  0
  186.7970  179.1990  141.2750 N   0  0  0  0  0  1  0  0  0  0  0  0
  185.1160  179.6950  144.3350 C   0  0  0  0  0  2  0  0  0  0  0  0
  185.2160  178.5190  145.2890 C   0  0  0  0  0  2  0  0  0  0  0  0
  185.6170  178.9940  146.6030 N   0  0  0  0  0  2  0  0  0  0  0  0
  187.0760  178.9660  148.4080 O   0  0  0  0  0  0  0  0  0  0  0  0
  186.7840  178.5100  147.2690 C   0  0  0  0  0  0  0  0  0  0  0  0
  189.8920  176.6750  147.1850 C   0  0  0  0  0  2  0  0  0  0  0  0
  189.8840  177.2240  145.7740 C   0  0  0  0  0  2  0  0  0  0  0  0
  188.4530  176.7020  147.6680 C   0  0  0  0  0  2  0  0  0  0  0  0
  188.6640  178.1110  145.6960 C   0  0  0  0  0  2  0  0  0  0  0  0
  187.6580  177.4750  146.6300 C   0  0  0  0  0  3  0  0  0  0  0  0
  2  1  2  0  0  0  0
  3 27  1  6  0  0  0
  3  1  1  0  0  0  0
  4  2  1  0  0  0  0
  5  3  1  0  0  0  0
  6  4  2  0  0  0  0
  7  5  2  0  0  0  0
  7  4  1  0  0  0  0
  8  7  1  0  0  0  0
  9 11  2  0  0  0  0
 10  9  1  0  0  0  0
 11 15  1  0  0  0  0
 11 14  1  0  0  0  0
 12 15  2  0  0  0  0
 13  9  1  0  0  0  0
 13 12  1  0  0  0  0
 15  8  1  0  0  0  0
 16 12  1  0  0  0  0
 17 16  1  0  0  0  0
 17 18  1  0  0  0  0
 20 19  1  1  0  0  0
 20 18  1  0  0  0  0
 20 21  1  0  0  0  0
 21 22  1  0  0  0  0
 22 23  1  0  0  0  0
 23 25  1  0  0  0  0
 25 26  1  1  0  0  0
 25 24  1  0  0  0  0
 27 31  1  1  0  0  0
 29 27  1  0  0  0  0
 29 28  2  0  0  0  0
 30 29  1  0  0  0  0
 31 32  1  0  0  0  0
 32 33  1  0  0  0  0
 33 35  1  0  0  0  0
 35 34  2  0  0  0  0
 36 38  1  0  0  0  0
 37 36  1  0  0  0  0
 39 37  1  0  0  0  0
 39 40  1  0  0  0  0
 40 35  1  0  0  0  0
 40 38  1  0  0  0  0
M  END
>  <MODEL>
5

>  <REMARK>
 VINA RESULT:      -6.9      2.995      6.501
  Name = 
  16 active torsions:
  status: ('A' for Active; 'I' for Inactive)
    1  A    between atoms: C_3  and  C_19
    2  A    between atoms: O_4  and  C_8
    3  A    between atoms: O_4  and  C_35
    4  A    between atoms: C_7  and  C_8
    5  A    between atoms: C_7  and  C_33
    6  A    between atoms: N_9  and  C_27
    7  A    between atoms: C_10  and  O_16
    8  A    between atoms: C_10  and  C_35
    9  A    between atoms: C_12  and  C_19
   10  A    between atoms: C_12  and  C_27
   11  A    between atoms: O_16  and  C_38
   12  A    between atoms: C_18  and  C_19
   13  A    between atoms: C_21  and  C_38
   14  A    between atoms: C_29  and  C_30
   15  A    between atoms: C_32  and  N_34
   16  A    between atoms: N_34  and  C_40
                            x       y       z     vdW  Elec       q    Type
                         _______ _______ _______ _____ _____    ______ ____

>  <TORSDO>
F 16

$$$$
=
 OpenBabel10232408413D

 40 42  0  0  1  0  0  0  0  0999 V2000
  190.6840  176.8920  145.4260 C   0  0  0  0  0  3  0  0  0  0  0  0
  190.9000  176.0460  144.4190 C   0  0  0  0  0  3  0  0  0  0  0  0
  189.9070  178.1820  145.2470 C   0  0  1  0  0  3  0  0  0  0  0  0
  190.4870  176.4040  143.0600 C   0  0  0  0  0  0  0  0  0  0  0  0
  189.8770  178.6330  143.7960 C   0  0  0  0  0  3  0  0  0  0  0  0
  190.5610  175.5520  142.1350 O   0  0  0  0  0  0  0  0  0  0  0  0
  190.0780  177.7900  142.7720 C   0  0  0  0  0  0  0  0  0  0  0  0
  190.1090  178.2460  141.4120 N   0  0  0  0  0  2  0  0  0  0  0  0
  187.1970  178.0350  139.1740 C   0  0  0  0  0  0  0  0  0  0  0  0
  185.8010  178.4270  138.8430 C   0  0  0  0  0  1  0  0  0  0  0  0
  187.8980  178.3890  140.3170 C   0  0  0  0  0  0  0  0  0  0  0  0
  189.5500  177.1560  139.2170 C   0  0  0  0  0  0  0  0  0  0  0  0
  188.2140  177.1450  138.1820 S   0  0  0  0  0  0  0  0  0  0  0  0
  187.3540  179.1710  141.3290 O   0  0  0  0  0  1  0  0  0  0  0  0
  189.2080  177.8930  140.3540 C   0  0  0  0  0  0  0  0  0  0  0  0
  190.9250  176.6970  138.8450 C   0  0  0  0  0  2  0  0  0  0  0  0
  190.8800  175.5340  137.8660 C   0  0  0  0  0  2  0  0  0  0  0  0
  191.9610  174.6780  138.0910 O   0  0  0  0  0  0  0  0  0  0  0  0
  193.0240  175.4990  136.1160 C   0  0  0  0  0  1  0  0  0  0  0  0
  193.0760  175.3800  137.6280 C   0  0  2  0  0  3  0  0  0  0  0  0
  194.3570  174.6800  138.0650 C   0  0  0  0  0  2  0  0  0  0  0  0
  195.4370  175.0960  137.2830 O   0  0  0  0  0  0  0  0  0  0  0  0
  196.3030  174.0000  137.2660 C   0  0  0  0  0  2  0  0  0  0  0  0
  197.9720  175.4130  138.2390 O   0  0  0  0  0  1  0  0  0  0  0  0
  197.7530  174.4620  137.2420 C   0  0  2  0  0  3  0  0  0  0  0  0
  198.1100  175.0430  135.8880 C   0  0  0  0  0  1  0  0  0  0  0  0
  188.4880  178.0200  145.8220 C   0  0  2  0  0  3  0  0  0  0  0  0
  189.0850  176.5670  147.6410 O   0  0  0  0  0  0  0  0  0  0  0  0
  188.4900  177.6120  147.2660 C   0  0  0  0  0  0  0  0  0  0  0  0
  187.7400  178.3720  148.2070 N   0  0  0  0  0  1  0  0  0  0  0  0
  187.6850  176.9990  145.0200 C   0  0  0  0  0  2  0  0  0  0  0  0
  186.2070  177.3380  145.0590 C   0  0  0  0  0  2  0  0  0  0  0  0
  186.0360  178.7750  144.9370 N   0  0  0  0  0  2  0  0  0  0  0  0
  184.8460  180.6160  144.1730 O   0  0  0  0  0  0  0  0  0  0  0  0
  184.9350  179.3600  144.2390 C   0  0  0  0  0  0  0  0  0  0  0  0
  182.7690  178.6590  141.4370 C   0  0  0  0  0  2  0  0  0  0  0  0
  181.7420  178.6880  142.5490 C   0  0  0  0  0  2  0  0  0  0  0  0
  184.1120  178.3930  142.0940 C   0  0  0  0  0  2  0  0  0  0  0  0
  182.5080  179.0760  143.7910 C   0  0  0  0  0  2  0  0  0  0  0  0
  183.8920  178.4990  143.5940 C   0  0  0  0  0  3  0  0  0  0  0  0
  2  1  2  0  0  0  0
  3  1  1  0  0  0  0
  3 27  1  6  0  0  0
  4  2  1  0  0  0  0
  5  3  1  0  0  0  0
  6  4  2  0  0  0  0
  7  4  1  0  0  0  0
  7  5  2  0  0  0  0
  8  7  1  0  0  0  0
  9 11  2  0  0  0  0
 10  9  1  0  0  0  0
 11 15  1  0  0  0  0
 11 14  1  0  0  0  0
 12 15  2  0  0  0  0
 13  9  1  0  0  0  0
 13 12  1  0  0  0  0
 15  8  1  0  0  0  0
 16 12  1  0  0  0  0
 17 18  1  0  0  0  0
 17 16  1  0  0  0  0
 20 19  1  6  0  0  0
 20 21  1  0  0  0  0
 20 18  1  0  0  0  0
 22 21  1  0  0  0  0
 23 22  1  0  0  0  0
 25 26  1  6  0  0  0
 25 23  1  0  0  0  0
 25 24  1  0  0  0  0
 27 31  1  6  0  0  0
 27 29  1  0  0  0  0
 29 28  2  0  0  0  0
 29 30  1  0  0  0  0
 31 32  1  0  0  0  0
 33 32  1  0  0  0  0
 34 35  2  0  0  0  0
 35 33  1  0  0  0  0
 36 38  1  0  0  0  0
 36 37  1  0  0  0  0
 37 39  1  0  0  0  0
 38 40  1  0  0  0  0
 40 39  1  0  0  0  0
 40 35  1  0  0  0  0
M  END
>  <MODEL>
6

>  <REMARK>
 VINA RESULT:      -6.7      2.699      7.888
  Name = 
  16 active torsions:
  status: ('A' for Active; 'I' for Inactive)
    1  A    between atoms: C_3  and  C_19
    2  A    between atoms: O_4  and  C_8
    3  A    between atoms: O_4  and  C_35
    4  A    between atoms: C_7  and  C_8
    5  A    between atoms: C_7  and  C_33
    6  A    between atoms: N_9  and  C_27
    7  A    between atoms: C_10  and  O_16
    8  A    between atoms: C_10  and  C_35
    9  A    between atoms: C_12  and  C_19
   10  A    between atoms: C_12  and  C_27
   11  A    between atoms: O_16  and  C_38
   12  A    between atoms: C_18  and  C_19
   13  A    between atoms: C_21  and  C_38
   14  A    between atoms: C_29  and  C_30
   15  A    between atoms: C_32  and  N_34
   16  A    between atoms: N_34  and  C_40
                            x       y       z     vdW  Elec       q    Type
                         _______ _______ _______ _____ _____    ______ ____

>  <TORSDO>
F 16

$$$$
=
 OpenBabel10232408413D

 40 42  0  0  1  0  0  0  0  0999 V2000
  188.9890  178.8080  138.2820 C   0  0  0  0  0  3  0  0  0  0  0  0
  188.9220  178.9910  136.9630 C   0  0  0  0  0  3  0  0  0  0  0  0
  189.0750  177.4290  138.9040 C   0  0  1  0  0  3  0  0  0  0  0  0
  188.8070  177.8350  136.0690 C   0  0  0  0  0  0  0  0  0  0  0  0
  188.5650  176.3460  137.9680 C   0  0  0  0  0  3  0  0  0  0  0  0
  188.8870  177.9960  134.8220 O   0  0  0  0  0  0  0  0  0  0  0  0
  188.5050  176.5110  136.6370 C   0  0  0  0  0  0  0  0  0  0  0  0
  187.9620  175.5020  135.7750 N   0  0  0  0  0  2  0  0  0  0  0  0
  185.3210  172.9620  136.1010 C   0  0  0  0  0  0  0  0  0  0  0  0
  184.9120  171.5320  136.1470 C   0  0  0  0  0  1  0  0  0  0  0  0
  186.5990  173.4410  135.8620 C   0  0  0  0  0  0  0  0  0  0  0  0
  185.4820  175.4680  136.1870 C   0  0  0  0  0  0  0  0  0  0  0  0
  184.3120  174.2660  136.4030 S   0  0  0  0  0  0  0  0  0  0  0  0
  187.6870  172.6110  135.6200 O   0  0  0  0  0  1  0  0  0  0  0  0
  186.6960  174.8380  135.8980 C   0  0  0  0  0  0  0  0  0  0  0  0
  185.2960  176.9130  136.5250 C   0  0  0  0  0  2  0  0  0  0  0  0
  184.3650  177.0950  137.7130 C   0  0  0  0  0  2  0  0  0  0  0  0
  183.5340  178.1980  137.5040 O   0  0  0  0  0  0  0  0  0  0  0  0
  181.5950  178.6580  138.8220 C   0  0  0  0  0  1  0  0  0  0  0  0
  183.1110  178.5750  138.7810 C   0  0  2  0  0  3  0  0  0  0  0  0
  183.7290  179.9130  139.1670 C   0  0  0  0  0  2  0  0  0  0  0  0
  184.7990  179.7260  140.0450 O   0  0  0  0  0  0  0  0  0  0  0  0
  184.3250  178.8140  140.9900 C   0  0  0  0  0  2  0  0  0  0  0  0
  185.1800  179.2890  143.1750 O   0  0  0  0  0  1  0  0  0  0  0  0
  185.3930  178.5170  142.0320 C   0  0  2  0  0  3  0  0  0  0  0  0
  186.7780  178.7900  141.4780 C   0  0  0  0  0  1  0  0  0  0  0  0
  190.5200  177.1510  139.3610 C   0  0  2  0  0  3  0  0  0  0  0  0
  191.1480  174.9970  138.5010 O   0  0  0  0  0  0  0  0  0  0  0  0
  191.2630  176.2480  138.4210 C   0  0  0  0  0  0  0  0  0  0  0  0
  192.1700  176.8140  137.4820 N   0  0  0  0  0  1  0  0  0  0  0  0
  190.5430  176.5380  140.7590 C   0  0  0  0  0  2  0  0  0  0  0  0
  190.8890  177.5910  141.7950 C   0  0  0  0  0  2  0  0  0  0  0  0
  191.5290  176.9580  142.9350 N   0  0  0  0  0  2  0  0  0  0  0  0
  191.5860  176.4410  145.1970 O   0  0  0  0  0  0  0  0  0  0  0  0
  190.9790  177.0150  144.2520 C   0  0  0  0  0  0  0  0  0  0  0  0
  188.1160  177.6170  146.3680 C   0  0  0  0  0  2  0  0  0  0  0  0
  187.4080  177.2880  145.0700 C   0  0  0  0  0  2  0  0  0  0  0  0
  189.5250  178.0440  145.9950 C   0  0  0  0  0  2  0  0  0  0  0  0
  188.5020  176.9110  144.1010 C   0  0  0  0  0  2  0  0  0  0  0  0
  189.6960  177.7420  144.5160 C   0  0  0  0  0  3  0  0  0  0  0  0
  1  3  1  0  0  0  0
  2  1  2  0  0  0  0
  3 27  1  6  0  0  0
  4  7  1  0  0  0  0
  4  2  1  0  0  0  0
  5  3  1  0  0  0  0
  6  4  2  0  0  0  0
  7  5  2  0  0  0  0
  8 15  1  0  0  0  0
  8  7  1  0  0  0  0
  9 10  1  0  0  0  0
  9 13  1  0  0  0  0
 11 15  1  0  0  0  0
 11  9  2  0  0  0  0
 12 13  1  0  0  0  0
 12 16  1  0  0  0  0
 14 11  1  0  0  0  0
 15 12  2  0  0  0  0
 16 17  1  0  0  0  0
 18 17  1  0  0  0  0
 18 20  1  0  0  0  0
 20 19  1  6  0  0  0
 20 21  1  0  0  0  0
 21 22  1  0  0  0  0
 22 23  1  0  0  0  0
 23 25  1  0  0  0  0
 25 26  1  6  0  0  0
 25 24  1  0  0  0  0
 27 31  1  1  0  0  0
 29 28  2  0  0  0  0
 29 27  1  0  0  0  0
 30 29  1  0  0  0  0
 31 32  1  0  0  0  0
 32 33  1  0  0  0  0
 33 35  1  0  0  0  0
 35 40  1  0  0  0  0
 35 34  2  0  0  0  0
 37 36  1  0  0  0  0
 38 36  1  0  0  0  0
 39 40  1  0  0  0  0
 39 37  1  0  0  0  0
 40 38  1  0  0  0  0
M  END
>  <MODEL>
7

>  <REMARK>
 VINA RESULT:      -6.7      1.972      3.168
  Name = 
  16 active torsions:
  status: ('A' for Active; 'I' for Inactive)
    1  A    between atoms: C_3  and  C_19
    2  A    between atoms: O_4  and  C_8
    3  A    between atoms: O_4  and  C_35
    4  A    between atoms: C_7  and  C_8
    5  A    between atoms: C_7  and  C_33
    6  A    between atoms: N_9  and  C_27
    7  A    between atoms: C_10  and  O_16
    8  A    between atoms: C_10  and  C_35
    9  A    between atoms: C_12  and  C_19
   10  A    between atoms: C_12  and  C_27
   11  A    between atoms: O_16  and  C_38
   12  A    between atoms: C_18  and  C_19
   13  A    between atoms: C_21  and  C_38
   14  A    between atoms: C_29  and  C_30
   15  A    between atoms: C_32  and  N_34
   16  A    between atoms: N_34  and  C_40
                            x       y       z     vdW  Elec       q    Type
                         _______ _______ _______ _____ _____    ______ ____

>  <TORSDO>
F 16

$$$$
=
 OpenBabel10232408413D

 40 42  0  0  1  0  0  0  0  0999 V2000
  190.2890  175.3620  137.0800 C   0  0  0  0  0  3  0  0  0  0  0  0
  190.0110  174.0590  137.0950 C   0  0  0  0  0  3  0  0  0  0  0  0
  189.2390  176.4120  136.7780 C   0  0  1  0  0  3  0  0  0  0  0  0
  188.6810  173.5910  136.6950 C   0  0  0  0  0  0  0  0  0  0  0  0
  188.0560  175.8350  136.0180 C   0  0  0  0  0  3  0  0  0  0  0  0
  188.3710  172.3790  136.8440 O   0  0  0  0  0  0  0  0  0  0  0  0
  187.7540  174.5270  136.0350 C   0  0  0  0  0  0  0  0  0  0  0  0
  186.6730  173.9910  135.2610 N   0  0  0  0  0  2  0  0  0  0  0  0
  183.8790  171.8350  136.2990 C   0  0  0  0  0  0  0  0  0  0  0  0
  183.2830  170.4770  136.4270 C   0  0  0  0  0  1  0  0  0  0  0  0
  185.0890  172.1440  135.6990 C   0  0  0  0  0  0  0  0  0  0  0  0
  184.4510  174.2790  136.4020 C   0  0  0  0  0  0  0  0  0  0  0  0
  183.2230  173.2430  136.9280 S   0  0  0  0  0  0  0  0  0  0  0  0
  185.9130  171.1880  135.1160 O   0  0  0  0  0  1  0  0  0  0  0  0
  185.4120  173.5070  135.7430 C   0  0  0  0  0  0  0  0  0  0  0  0
  184.6030  175.7070  136.8200 C   0  0  0  0  0  2  0  0  0  0  0  0
  183.3050  176.2680  137.3800 C   0  0  0  0  0  2  0  0  0  0  0  0
  183.5760  177.1240  138.4490 O   0  0  0  0  0  0  0  0  0  0  0  0
  181.6010  175.9360  139.0780 C   0  0  0  0  0  1  0  0  0  0  0  0
  182.9060  176.5610  139.5380 C   0  0  2  0  0  3  0  0  0  0  0  0
  182.6450  177.6200  140.6010 C   0  0  0  0  0  2  0  0  0  0  0  0
  183.7110  177.6900  141.4990 O   0  0  0  0  0  0  0  0  0  0  0  0
  184.2010  178.9910  141.3650 C   0  0  0  0  0  2  0  0  0  0  0  0
  186.5470  178.8030  141.8010 O   0  0  0  0  0  1  0  0  0  0  0  0
  185.3390  179.2400  142.3450 C   0  0  2  0  0  3  0  0  0  0  0  0
  185.0800  178.5350  143.6610 C   0  0  0  0  0  1  0  0  0  0  0  0
  188.7950  177.0980  138.0840 C   0  0  2  0  0  3  0  0  0  0  0  0
  186.8370  178.4820  137.9210 O   0  0  0  0  0  0  0  0  0  0  0  0
  188.0920  178.4010  137.8460 C   0  0  0  0  0  0  0  0  0  0  0  0
  188.8480  179.5400  137.4490 N   0  0  0  0  0  1  0  0  0  0  0  0
  189.9880  177.3390  139.0070 C   0  0  0  0  0  2  0  0  0  0  0  0
  189.5480  177.3150  140.4590 C   0  0  0  0  0  2  0  0  0  0  0  0
  190.3300  176.3310  141.1860 N   0  0  0  0  0  2  0  0  0  0  0  0
  191.0370  175.3780  143.1810 O   0  0  0  0  0  0  0  0  0  0  0  0
  190.3360  176.2580  142.6130 C   0  0  0  0  0  0  0  0  0  0  0  0
  189.3750  177.5630  145.8390 C   0  0  0  0  0  2  0  0  0  0  0  0
  188.0090  177.2050  145.2930 C   0  0  0  0  0  2  0  0  0  0  0  0
  190.2950  177.7080  144.6400 C   0  0  0  0  0  2  0  0  0  0  0  0
  188.2700  176.5440  143.9610 C   0  0  0  0  0  2  0  0  0  0  0  0
  189.5200  177.2110  143.4320 C   0  0  0  0  0  3  0  0  0  0  0  0
  1  2  2  0  0  0  0
  3  1  1  0  0  0  0
  3 27  1  1  0  0  0
  4  6  2  0  0  0  0
  4  2  1  0  0  0  0
  5  7  2  0  0  0  0
  5  3  1  0  0  0  0
  7  4  1  0  0  0  0
  8 15  1  0  0  0  0
  8  7  1  0  0  0  0
  9 10  1  0  0  0  0
  9 13  1  0  0  0  0
 11 15  1  0  0  0  0
 11  9  2  0  0  0  0
 12 16  1  0  0  0  0
 12 13  1  0  0  0  0
 14 11  1  0  0  0  0
 15 12  2  0  0  0  0
 16 17  1  0  0  0  0
 17 18  1  0  0  0  0
 18 20  1  0  0  0  0
 20 19  1  6  0  0  0
 20 21  1  0  0  0  0
 21 22  1  0  0  0  0
 23 22  1  0  0  0  0
 23 25  1  0  0  0  0
 24 25  1  0  0  0  0
 25 26  1  1  0  0  0
 27 31  1  1  0  0  0
 29 28  2  0  0  0  0
 29 27  1  0  0  0  0
 30 29  1  0  0  0  0
 31 32  1  0  0  0  0
 32 33  1  0  0  0  0
 33 35  1  0  0  0  0
 35 34  2  0  0  0  0
 35 40  1  0  0  0  0
 37 36  1  0  0  0  0
 38 36  1  0  0  0  0
 39 37  1  0  0  0  0
 40 39  1  0  0  0  0
 40 38  1  0  0  0  0
M  END
>  <MODEL>
8

>  <REMARK>
 VINA RESULT:      -6.7      2.429      4.056
  Name = 
  16 active torsions:
  status: ('A' for Active; 'I' for Inactive)
    1  A    between atoms: C_3  and  C_19
    2  A    between atoms: O_4  and  C_8
    3  A    between atoms: O_4  and  C_35
    4  A    between atoms: C_7  and  C_8
    5  A    between atoms: C_7  and  C_33
    6  A    between atoms: N_9  and  C_27
    7  A    between atoms: C_10  and  O_16
    8  A    between atoms: C_10  and  C_35
    9  A    between atoms: C_12  and  C_19
   10  A    between atoms: C_12  and  C_27
   11  A    between atoms: O_16  and  C_38
   12  A    between atoms: C_18  and  C_19
   13  A    between atoms: C_21  and  C_38
   14  A    between atoms: C_29  and  C_30
   15  A    between atoms: C_32  and  N_34
   16  A    between atoms: N_34  and  C_40
                            x       y       z     vdW  Elec       q    Type
                         _______ _______ _______ _____ _____    ______ ____

>  <TORSDO>
F 16

$$$$
=
 OpenBabel10232408413D

 40 42  0  0  1  0  0  0  0  0999 V2000
  183.9570  178.5960  143.5640 C   0  0  0  0  0  3  0  0  0  0  0  0
  182.7630  179.1600  143.7430 C   0  0  0  0  0  3  0  0  0  0  0  0
  184.4210  178.0950  142.2110 C   0  0  1  0  0  3  0  0  0  0  0  0
  181.8020  179.2060  142.6390 C   0  0  0  0  0  0  0  0  0  0  0  0
  183.2570  177.8300  141.2700 C   0  0  0  0  0  3  0  0  0  0  0  0
  180.7330  179.8620  142.7620 O   0  0  0  0  0  0  0  0  0  0  0  0
  182.0540  178.4030  141.4290 C   0  0  0  0  0  0  0  0  0  0  0  0
  180.9490  178.0920  140.5690 N   0  0  0  0  0  2  0  0  0  0  0  0
  180.7990  179.3690  137.1220 C   0  0  0  0  0  0  0  0  0  0  0  0
  180.6640  180.5130  136.1800 C   0  0  0  0  0  1  0  0  0  0  0  0
  180.7140  179.4310  138.5040 C   0  0  0  0  0  0  0  0  0  0  0  0
  181.1560  177.1510  138.2470 C   0  0  0  0  0  0  0  0  0  0  0  0
  181.1510  177.7900  136.6820 S   0  0  0  0  0  0  0  0  0  0  0  0
  180.4750  180.6120  139.1970 O   0  0  0  0  0  1  0  0  0  0  0  0
  180.9020  178.1960  139.1390 C   0  0  0  0  0  0  0  0  0  0  0  0
  181.6240  175.7770  138.6090 C   0  0  0  0  0  2  0  0  0  0  0  0
  182.5810  175.2190  137.5670 C   0  0  0  0  0  2  0  0  0  0  0  0
  183.8950  175.3020  138.0320 O   0  0  0  0  0  0  0  0  0  0  0  0
  184.5820  173.1000  137.4120 C   0  0  0  0  0  1  0  0  0  0  0  0
  184.6510  174.5840  137.1020 C   0  0  2  0  0  3  0  0  0  0  0  0
  186.0960  175.0650  137.1140 C   0  0  0  0  0  2  0  0  0  0  0  0
  186.2880  176.0720  136.1660 O   0  0  0  0  0  0  0  0  0  0  0  0
  187.4560  176.7220  136.5730 C   0  0  0  0  0  2  0  0  0  0  0  0
  187.4200  179.1150  136.6050 O   0  0  0  0  0  1  0  0  0  0  0  0
  187.6550  178.0100  135.7870 C   0  0  2  0  0  3  0  0  0  0  0  0
  186.7350  178.0540  134.5830 C   0  0  0  0  0  1  0  0  0  0  0  0
  185.4290  179.0890  141.6040 C   0  0  2  0  0  3  0  0  0  0  0  0
  186.2600  178.4160  139.4520 O   0  0  0  0  0  0  0  0  0  0  0  0
  185.4160  179.0850  140.1030 C   0  0  0  0  0  0  0  0  0  0  0  0
  184.4880  179.9140  139.4110 N   0  0  0  0  0  1  0  0  0  0  0  0
  186.8460  178.7950  142.0880 C   0  0  0  0  0  2  0  0  0  0  0  0
  186.8390  177.6560  143.0900 C   0  0  0  0  0  2  0  0  0  0  0  0
  188.0510  176.8690  142.9380 N   0  0  0  0  0  2  0  0  0  0  0  0
  190.1240  176.1730  143.7150 O   0  0  0  0  0  0  0  0  0  0  0  0
  189.0990  176.8810  143.9080 C   0  0  0  0  0  0  0  0  0  0  0  0
  189.5190  177.2440  147.4760 C   0  0  0  0  0  2  0  0  0  0  0  0
  188.0580  177.6230  147.3530 C   0  0  0  0  0  2  0  0  0  0  0  0
  190.1360  177.4480  146.1030 C   0  0  0  0  0  2  0  0  0  0  0  0
  187.7120  177.4170  145.8980 C   0  0  0  0  0  2  0  0  0  0  0  0
  188.9890  177.7200  145.1450 C   0  0  0  0  0  3  0  0  0  0  0  0
  1  2  2  0  0  0  0
  3 27  1  6  0  0  0
  3  1  1  0  0  0  0
  4  6  2  0  0  0  0
  4  2  1  0  0  0  0
  5  7  2  0  0  0  0
  5  3  1  0  0  0  0
  7  4  1  0  0  0  0
  8  7  1  0  0  0  0
  9 11  2  0  0  0  0
 10  9  1  0  0  0  0
 11 15  1  0  0  0  0
 11 14  1  0  0  0  0
 12 16  1  0  0  0  0
 12 15  2  0  0  0  0
 13  9  1  0  0  0  0
 13 12  1  0  0  0  0
 15  8  1  0  0  0  0
 17 18  1  0  0  0  0
 17 16  1  0  0  0  0
 20 21  1  0  0  0  0
 20 19  1  1  0  0  0
 20 18  1  0  0  0  0
 22 23  1  0  0  0  0
 22 21  1  0  0  0  0
 25 26  1  6  0  0  0
 25 23  1  0  0  0  0
 25 24  1  0  0  0  0
 27 31  1  6  0  0  0
 28 29  2  0  0  0  0
 29 27  1  0  0  0  0
 30 29  1  0  0  0  0
 31 32  1  0  0  0  0
 33 32  1  0  0  0  0
 33 35  1  0  0  0  0
 34 35  2  0  0  0  0
 35 40  1  0  0  0  0
 37 36  1  0  0  0  0
 38 36  1  0  0  0  0
 39 37  1  0  0  0  0
 40 39  1  0  0  0  0
 40 38  1  0  0  0  0
M  END
>  <MODEL>
9

>  <REMARK>
 VINA RESULT:      -6.7      3.142      7.330
  Name = 
  16 active torsions:
  status: ('A' for Active; 'I' for Inactive)
    1  A    between atoms: C_3  and  C_19
    2  A    between atoms: O_4  and  C_8
    3  A    between atoms: O_4  and  C_35
    4  A    between atoms: C_7  and  C_8
    5  A    between atoms: C_7  and  C_33
    6  A    between atoms: N_9  and  C_27
    7  A    between atoms: C_10  and  O_16
    8  A    between atoms: C_10  and  C_35
    9  A    between atoms: C_12  and  C_19
   10  A    between atoms: C_12  and  C_27
   11  A    between atoms: O_16  and  C_38
   12  A    between atoms: C_18  and  C_19
   13  A    between atoms: C_21  and  C_38
   14  A    between atoms: C_29  and  C_30
   15  A    between atoms: C_32  and  N_34
   16  A    between atoms: N_34  and  C_40
                            x       y       z     vdW  Elec       q    Type
                         _______ _______ _______ _____ _____    ______ ____

>  <TORSDO>
F 16

$$$$
