=
 OpenBabel10232410373D

 50 56  0  0  1  0  0  0  0  0999 V2000
  183.9840  178.9920  139.5530 C   0  0  0  0  0  0  0  0  0  0  0  0
  182.8330  179.9520  139.7610 C   0  0  0  0  0  2  0  0  0  0  0  0
  183.8010  180.1770  138.6170 C   0  0  0  0  0  2  0  0  0  0  0  0
  183.7740  177.6690  138.8300 C   0  0  0  0  0  0  0  0  0  0  0  0
  182.1290  176.0810  136.6620 C   0  0  0  0  0  0  0  0  0  0  0  0
  181.3360  176.0160  135.6840 O   0  0  0  0  0  0  0  0  0  0  0  0
  182.6450  175.4250  138.9670 C   0  0  0  0  0  2  0  0  0  0  0  0
  185.4510  177.5870  136.8460 C   0  0  0  0  0  0  0  0  0  0  0  0
  184.3330  176.4030  135.4240 C   0  0  0  0  0  0  0  0  0  0  0  0
  184.1940  177.4100  137.4130 C   0  0  1  0  0  3  0  0  0  0  0  0
  181.7240  175.5820  137.8990 O   0  0  0  0  0  0  0  0  0  0  0  0
  183.0380  176.7650  139.5020 C   0  0  0  0  0  3  0  0  0  0  0  0
  185.5460  176.9370  135.6730 N   0  0  0  0  0  0  0  0  0  0  0  0
  183.4670  176.6890  136.4740 C   0  0  0  0  0  0  0  0  0  0  0  0
  187.9020  177.4390  137.0750 C   0  0  0  0  0  1  0  0  0  0  0  0
  186.6500  178.1870  137.4910 C   0  0  0  0  0  2  0  0  0  0  0  0
  184.1360  174.9590  134.3470 S   0  0  0  0  0  0  0  0  0  0  0  0
  187.4830  173.3330  136.9640 C   0  0  2  0  0  3  0  0  0  0  0  0
  186.0760  172.8900  137.3330 C   0  0  0  0  0  2  0  0  0  0  0  0
  186.6610  174.2140  134.8060 O   0  0  0  0  0  0  0  0  0  0  0  0
  185.0740  173.7850  136.6200 C   0  0  0  0  0  2  0  0  0  0  0  0
  187.6360  173.3800  135.4350 C   0  0  2  0  0  3  0  0  0  0  0  0
  185.3320  173.8110  135.1150 C   0  0  1  0  0  0  0  0  0  0  0  0
  185.0710  172.5420  134.5900 O   0  0  0  0  0  1  0  0  0  0  0  0
  188.3690  172.3970  137.4790 F   0  0  0  0  0  0  0  0  0  0  0  0
  188.9570  171.9600  134.3730 C   0  0  0  0  0  1  0  0  0  0  0  0
  187.6590  172.0910  134.8750 O   0  0  0  0  0  0  0  0  0  0  0  0
  185.0860  179.1300  140.6210 C   0  0  1  0  0  3  0  0  0  0  0  0
  182.5870  178.3110  143.6220 C   0  0  0  0  0  2  0  0  0  0  0  0
  183.5990  178.0180  142.4620 C   0  0  0  0  0  2  0  0  0  0  0  0
  183.4440  179.1460  145.8970 O   0  0  0  0  0  0  0  0  0  0  0  0
  184.3910  178.7010  144.9630 C   0  0  2  0  0  3  0  0  0  0  0  0
  184.4510  179.2560  142.0240 C   0  0  1  0  0  3  0  0  0  0  0  0
  185.4280  179.6000  144.3920 C   0  0  0  0  0  3  0  0  0  0  0  0
  185.4800  179.7850  143.0430 C   0  0  0  0  0  3  0  0  0  0  0  0
  183.1420  179.3840  144.5430 C   0  0  1  0  0  3  0  0  0  0  0  0
  186.1780  178.0440  140.5370 C   0  0  0  0  0  2  0  0  0  0  0  0
  187.5720  178.5410  140.9260 C   0  0  0  0  0  2  0  0  0  0  0  0
  188.4900  177.3830  141.3180 C   0  0  0  0  0  2  0  0  0  0  0  0
  190.3300  177.3900  144.7390 C   0  0  0  0  0  0  0  0  0  0  0  0
  191.5900  177.6120  145.2900 O   0  0  0  0  0  1  0  0  0  0  0  0
  190.1590  177.4420  143.3390 C   0  0  0  0  0  0  0  0  0  0  0  0
  187.9540  177.0420  145.0280 C   0  0  0  0  0  3  0  0  0  0  0  0
  188.8610  177.2440  142.7760 C   0  0  0  0  0  0  0  0  0  0  0  0
  191.3670  177.6950  142.4940 C   0  0  0  0  0  1  0  0  0  0  0  0
  187.7750  177.1040  143.6430 C   0  0  0  0  0  3  0  0  0  0  0  0
  189.2290  177.1180  145.5760 C   0  0  0  0  0  0  0  0  0  0  0  0
  189.3710  177.0610  147.0580 C   0  0  0  0  0  2  0  0  0  0  0  0
  188.0800  177.4830  147.7220 C   0  0  0  0  0  2  0  0  0  0  0  0
  188.3800  178.0610  148.9700 O   0  0  0  0  0  1  0  0  0  0  0  0
  1  2  1  0  0  0  0
  1 28  1  0  0  0  0
  3  1  1  0  0  0  0
  3  2  1  0  0  0  0
  4 12  2  0  0  0  0
  4  1  1  0  0  0  0
  5 11  1  0  0  0  0
  6  5  2  0  0  0  0
  7 12  1  0  0  0  0
  8 10  1  0  0  0  0
  8 16  1  0  0  0  0
  9 13  1  0  0  0  0
  9 14  2  0  0  0  0
 10 14  1  1  0  0  0
 10  4  1  0  0  0  0
 11  7  1  0  0  0  0
 13  8  2  0  0  0  0
 14  5  1  0  0  0  0
 15 16  1  0  0  0  0
 17 23  1  0  0  0  0
 17  9  1  0  0  0  0
 18 19  1  0  0  0  0
 18 25  1  1  0  0  0
 20 23  1  0  0  0  0
 20 22  1  0  0  0  0
 21 19  1  0  0  0  0
 22 27  1  6  0  0  0
 22 18  1  0  0  0  0
 23 24  1  6  0  0  0
 23 21  1  0  0  0  0
 26 27  1  0  0  0  0
 28 37  1  1  0  0  0
 30 29  1  0  0  0  0
 32 34  1  1  0  0  0
 32 31  1  0  0  0  0
 33 28  1  6  0  0  0
 33 30  1  0  0  0  0
 33 35  1  0  0  0  0
 35 34  2  0  0  0  0
 36 29  1  6  0  0  0
 36 32  1  0  0  0  0
 36 31  1  0  0  0  0
 37 38  1  0  0  0  0
 38 39  1  0  0  0  0
 39 44  1  0  0  0  0
 40 41  1  0  0  0  0
 40 47  1  0  0  0  0
 42 40  2  0  0  0  0
 43 47  2  0  0  0  0
 44 42  1  0  0  0  0
 44 46  2  0  0  0  0
 45 42  1  0  0  0  0
 46 43  1  0  0  0  0
 47 48  1  0  0  0  0
 48 49  1  0  0  0  0
 49 50  1  0  0  0  0
M  END
>  <MODEL>
1

>  <REMARK>
 VINA RESULT:      -7.1      0.000      0.000
  Name = 
  13 active torsions:
  status: ('A' for Active; 'I' for Inactive)
    1  A    between atoms: C_3  and  C_6
    2  A    between atoms: C_3  and  C_11
    3  A    between atoms: C_11  and  C_35
    4  A    between atoms: C_11  and  C_41
    5  A    between atoms: C_12  and  C_36
    6  A    between atoms: C_12  and  C_45
    7  A    between atoms: C_16  and  C_42
    8  A    between atoms: C_24  and  C_37
    9  A    between atoms: C_25  and  O_38
   10  A    between atoms: C_26  and  S_31
   11  A    between atoms: C_27  and  S_31
   12  A    between atoms: C_37  and  C_39
   13  A    between atoms: C_39  and  C_41
                            x       y       z     vdW  Elec       q    Type
                         _______ _______ _______ _____ _____    ______ ____

>  <TORSDO>
F 13

$$$$
=
 OpenBabel10232410373D

 50 56  0  0  1  0  0  0  0  0999 V2000
  189.5680  175.7720  135.6670 C   0  0  0  0  0  0  0  0  0  0  0  0
  189.9040  176.9500  134.7790 C   0  0  0  0  0  2  0  0  0  0  0  0
  190.3280  175.5550  134.3660 C   0  0  0  0  0  2  0  0  0  0  0  0
  188.1890  175.1310  135.6230 C   0  0  0  0  0  0  0  0  0  0  0  0
  186.0170  173.4400  137.1570 C   0  0  0  0  0  0  0  0  0  0  0  0
  185.5220  172.9370  138.2020 O   0  0  0  0  0  0  0  0  0  0  0  0
  186.9090  173.0880  134.9010 C   0  0  0  0  0  2  0  0  0  0  0  0
  186.4560  176.9560  136.2730 C   0  0  0  0  0  0  0  0  0  0  0  0
  184.9370  175.7480  137.2250 C   0  0  0  0  0  0  0  0  0  0  0  0
  186.9870  175.6730  136.3400 C   0  0  0  0  0  0  0  0  0  0  0  0
  186.5480  172.5970  136.1830 O   0  0  0  0  0  0  0  0  0  0  0  0
  188.1370  173.9350  135.0080 C   0  0  0  0  0  3  0  0  0  0  0  0
  185.2030  176.9860  136.7610 N   0  0  0  0  0  2  0  0  0  0  0  0
  186.0260  174.9130  136.9940 C   0  0  0  0  0  0  0  0  0  0  0  0
  187.5070  179.1700  136.5520 C   0  0  0  0  0  1  0  0  0  0  0  0
  187.0300  178.1280  135.5580 C   0  0  0  0  0  2  0  0  0  0  0  0
  183.2380  175.1370  137.3740 S   0  0  0  0  0  0  0  0  0  0  0  0
  182.3430  179.4690  138.4360 C   0  0  2  0  0  3  0  0  0  0  0  0
  181.4270  178.8360  137.4010 C   0  0  0  0  0  2  0  0  0  0  0  0
  183.2590  177.2470  139.0130 O   0  0  0  0  0  0  0  0  0  0  0  0
  182.0650  177.5500  136.8980 C   0  0  0  0  0  2  0  0  0  0  0  0
  182.6830  178.4460  139.5330 C   0  0  2  0  0  3  0  0  0  0  0  0
  182.4140  176.6180  138.0570 C   0  0  1  0  0  0  0  0  0  0  0  0
  181.2300  176.1840  138.6590 O   0  0  0  0  0  1  0  0  0  0  0  0
  181.6620  180.5360  139.0070 F   0  0  0  0  0  0  0  0  0  0  0  0
  181.9630  178.6460  141.6150 C   0  0  0  0  0  1  0  0  0  0  0  0
  181.5740  178.1790  140.3560 O   0  0  0  0  0  0  0  0  0  0  0  0
  190.4050  175.7330  136.9600 C   0  0  1  0  0  3  0  0  0  0  0  0
  194.2670  176.4540  136.2560 C   0  0  0  0  0  2  0  0  0  0  0  0
  192.8900  176.5480  136.9990 C   0  0  0  0  0  2  0  0  0  0  0  0
  195.7450  174.3700  136.5430 O   0  0  0  0  0  0  0  0  0  0  0  0
  194.6280  174.5030  137.3820 C   0  0  2  0  0  3  0  0  0  0  0  0
  191.8790  175.4110  136.6270 C   0  0  1  0  0  3  0  0  0  0  0  0
  193.4990  173.5360  137.3630 C   0  0  0  0  0  3  0  0  0  0  0  0
  192.2430  173.9840  137.0820 C   0  0  0  0  0  3  0  0  0  0  0  0
  194.6170  175.0010  135.9830 C   0  0  1  0  0  3  0  0  0  0  0  0
  190.2360  176.9790  137.8520 C   0  0  0  0  0  2  0  0  0  0  0  0
  189.2050  176.8020  138.9690 C   0  0  0  0  0  2  0  0  0  0  0  0
  188.9600  178.1110  139.7190 C   0  0  0  0  0  2  0  0  0  0  0  0
  186.9800  178.0240  143.0600 C   0  0  0  0  0  0  0  0  0  0  0  0
  185.6960  178.2270  143.5620 O   0  0  0  0  0  1  0  0  0  0  0  0
  187.2400  178.2580  141.6920 C   0  0  0  0  0  0  0  0  0  0  0  0
  189.2480  177.2490  143.3720 C   0  0  0  0  0  3  0  0  0  0  0  0
  188.5490  178.0230  141.1700 C   0  0  0  0  0  0  0  0  0  0  0  0
  186.1180  178.7620  140.8410 C   0  0  0  0  0  1  0  0  0  0  0  0
  189.5110  177.4670  142.0160 C   0  0  0  0  0  3  0  0  0  0  0  0
  188.0130  177.5840  143.9110 C   0  0  0  0  0  0  0  0  0  0  0  0
  187.7730  177.3220  145.3570 C   0  0  0  0  0  2  0  0  0  0  0  0
  188.9850  177.7210  146.1690 C   0  0  0  0  0  2  0  0  0  0  0  0
  189.3660  176.6360  146.9780 O   0  0  0  0  0  1  0  0  0  0  0  0
  1 28  1  0  0  0  0
  2  1  1  0  0  0  0
  3  2  1  0  0  0  0
  3  1  1  0  0  0  0
  4  1  1  0  0  0  0
  4 10  1  0  0  0  0
  5  6  2  0  0  0  0
  7 12  1  0  0  0  0
  7 11  1  0  0  0  0
  8 10  2  0  0  0  0
  8 13  1  0  0  0  0
  9 17  1  0  0  0  0
 10 14  1  0  0  0  0
 11  5  1  0  0  0  0
 12  4  2  0  0  0  0
 13  9  1  0  0  0  0
 14  5  1  0  0  0  0
 14  9  2  0  0  0  0
 16  8  1  0  0  0  0
 16 15  1  0  0  0  0
 17 23  1  0  0  0  0
 18 25  1  1  0  0  0
 18 22  1  0  0  0  0
 19 18  1  0  0  0  0
 20 22  1  0  0  0  0
 21 19  1  0  0  0  0
 21 23  1  0  0  0  0
 22 27  1  6  0  0  0
 23 24  1  1  0  0  0
 23 20  1  0  0  0  0
 27 26  1  0  0  0  0
 28 37  1  6  0  0  0
 29 30  1  0  0  0  0
 31 32  1  0  0  0  0
 32 34  1  6  0  0  0
 33 28  1  1  0  0  0
 33 30  1  0  0  0  0
 33 35  1  0  0  0  0
 35 34  2  0  0  0  0
 36 29  1  1  0  0  0
 36 31  1  0  0  0  0
 36 32  1  0  0  0  0
 37 38  1  0  0  0  0
 38 39  1  0  0  0  0
 39 44  1  0  0  0  0
 40 41  1  0  0  0  0
 40 47  1  0  0  0  0
 42 40  2  0  0  0  0
 43 47  2  0  0  0  0
 44 42  1  0  0  0  0
 44 46  2  0  0  0  0
 45 42  1  0  0  0  0
 46 43  1  0  0  0  0
 47 48  1  0  0  0  0
 48 49  1  0  0  0  0
 49 50  1  0  0  0  0
M  END
>  <MODEL>
2

>  <REMARK>
 VINA RESULT:      -6.7      3.442      7.402
  Name = 
  13 active torsions:
  status: ('A' for Active; 'I' for Inactive)
    1  A    between atoms: C_3  and  C_6
    2  A    between atoms: C_3  and  C_11
    3  A    between atoms: C_11  and  C_35
    4  A    between atoms: C_11  and  C_41
    5  A    between atoms: C_12  and  C_36
    6  A    between atoms: C_12  and  C_45
    7  A    between atoms: C_16  and  C_42
    8  A    between atoms: C_24  and  C_37
    9  A    between atoms: C_25  and  O_38
   10  A    between atoms: C_26  and  S_31
   11  A    between atoms: C_27  and  S_31
   12  A    between atoms: C_37  and  C_39
   13  A    between atoms: C_39  and  C_41
                            x       y       z     vdW  Elec       q    Type
                         _______ _______ _______ _____ _____    ______ ____

>  <TORSDO>
F 13

$$$$
=
 OpenBabel10232410373D

 50 56  0  0  1  0  0  0  0  0999 V2000
  183.8650  178.8850  139.4500 C   0  0  0  0  0  0  0  0  0  0  0  0
  182.6910  179.7610  139.0710 C   0  0  0  0  0  2  0  0  0  0  0  0
  184.0850  180.1330  138.6070 C   0  0  0  0  0  2  0  0  0  0  0  0
  184.1770  177.6190  138.6680 C   0  0  0  0  0  0  0  0  0  0  0  0
  183.9710  176.1030  135.9120 C   0  0  0  0  0  0  0  0  0  0  0  0
  183.7640  176.0630  134.6690 O   0  0  0  0  0  0  0  0  0  0  0  0
  183.3740  175.2910  138.1470 C   0  0  0  0  0  2  0  0  0  0  0  0
  186.6020  177.8360  137.7590 C   0  0  0  0  0  0  0  0  0  0  0  0
  186.4490  176.6980  135.9270 C   0  0  0  0  0  0  0  0  0  0  0  0
  185.2560  177.5150  137.6300 C   0  0  1  0  0  3  0  0  0  0  0  0
  183.0740  175.4700  136.7710 O   0  0  0  0  0  0  0  0  0  0  0  0
  183.3110  176.6060  138.8570 C   0  0  0  0  0  3  0  0  0  0  0  0
  187.3240  177.2990  136.7590 N   0  0  0  0  0  0  0  0  0  0  0  0
  185.1580  176.8260  136.4280 C   0  0  0  0  0  0  0  0  0  0  0  0
  188.7680  178.2740  138.8540 C   0  0  0  0  0  1  0  0  0  0  0  0
  187.2660  178.4670  138.9320 C   0  0  0  0  0  2  0  0  0  0  0  0
  186.9560  175.3420  134.8380 S   0  0  0  0  0  0  0  0  0  0  0  0
  190.6730  173.7730  136.9400 C   0  0  2  0  0  3  0  0  0  0  0  0
  190.5670  173.4590  135.4560 C   0  0  0  0  0  2  0  0  0  0  0  0
  188.8240  175.4010  136.7480 O   0  0  0  0  0  0  0  0  0  0  0  0
  189.1410  173.7210  134.9980 C   0  0  0  0  0  2  0  0  0  0  0  0
  190.1580  175.1950  137.2150 C   0  0  2  0  0  3  0  0  0  0  0  0
  188.6960  175.1370  135.3560 C   0  0  1  0  0  0  0  0  0  0  0  0
  189.4530  176.0480  134.6140 O   0  0  0  0  0  1  0  0  0  0  0  0
  192.0140  173.7010  137.2920 F   0  0  0  0  0  0  0  0  0  0  0  0
  191.9010  176.4290  137.7930 C   0  0  0  0  0  1  0  0  0  0  0  0
  191.0410  176.1720  136.7210 O   0  0  0  0  0  0  0  0  0  0  0  0
  184.2430  178.9940  140.9400 C   0  0  1  0  0  3  0  0  0  0  0  0
  180.4070  178.5500  141.9490 C   0  0  0  0  0  2  0  0  0  0  0  0
  181.8290  178.1230  141.4470 C   0  0  0  0  0  2  0  0  0  0  0  0
  179.9830  178.9080  144.4590 O   0  0  0  0  0  0  0  0  0  0  0  0
  181.2030  178.3300  144.0760 C   0  0  2  0  0  3  0  0  0  0  0  0
  182.9680  179.1390  141.8000 C   0  0  1  0  0  3  0  0  0  0  0  0
  182.5110  178.9850  144.3400 C   0  0  0  0  0  3  0  0  0  0  0  0
  183.3300  179.2830  143.2920 C   0  0  0  0  0  3  0  0  0  0  0  0
  180.5240  179.3490  143.2360 C   0  0  1  0  0  3  0  0  0  0  0  0
  185.1890  177.8780  141.4280 C   0  0  0  0  0  2  0  0  0  0  0  0
  186.4030  178.3940  142.2030 C   0  0  0  0  0  2  0  0  0  0  0  0
  187.3630  177.2600  142.5620 C   0  0  0  0  0  2  0  0  0  0  0  0
  188.2730  177.4640  146.3330 C   0  0  0  0  0  0  0  0  0  0  0  0
  187.6760  177.6090  147.5840 O   0  0  0  0  0  1  0  0  0  0  0  0
  187.4770  177.5210  145.1680 C   0  0  0  0  0  0  0  0  0  0  0  0
  190.2230  176.9710  144.9920 C   0  0  0  0  0  3  0  0  0  0  0  0
  188.0840  177.3430  143.8870 C   0  0  0  0  0  0  0  0  0  0  0  0
  186.0140  177.7820  145.3300 C   0  0  0  0  0  1  0  0  0  0  0  0
  189.4410  177.0150  143.8350 C   0  0  0  0  0  3  0  0  0  0  0  0
  189.6620  177.2570  146.2310 C   0  0  0  0  0  0  0  0  0  0  0  0
  190.5310  177.1850  147.4390 C   0  0  0  0  0  2  0  0  0  0  0  0
  191.6080  176.1410  147.2460 C   0  0  0  0  0  2  0  0  0  0  0  0
  192.6000  176.3270  148.2260 O   0  0  0  0  0  1  0  0  0  0  0  0
  1 28  1  0  0  0  0
  2  1  1  0  0  0  0
  3  2  1  0  0  0  0
  3  1  1  0  0  0  0
  4 12  2  0  0  0  0
  4  1  1  0  0  0  0
  5 14  1  0  0  0  0
  5 11  1  0  0  0  0
  6  5  2  0  0  0  0
  7 12  1  0  0  0  0
  8 16  1  0  0  0  0
  9 14  2  0  0  0  0
  9 13  1  0  0  0  0
 10 14  1  1  0  0  0
 10  8  1  0  0  0  0
 10  4  1  0  0  0  0
 11  7  1  0  0  0  0
 13  8  2  0  0  0  0
 15 16  1  0  0  0  0
 17 23  1  0  0  0  0
 17  9  1  0  0  0  0
 18 22  1  0  0  0  0
 18 25  1  6  0  0  0
 19 18  1  0  0  0  0
 20 22  1  0  0  0  0
 21 23  1  0  0  0  0
 21 19  1  0  0  0  0
 22 27  1  6  0  0  0
 23 24  1  6  0  0  0
 23 20  1  0  0  0  0
 27 26  1  0  0  0  0
 28 37  1  1  0  0  0
 30 33  1  0  0  0  0
 30 29  1  0  0  0  0
 32 34  1  1  0  0  0
 32 31  1  0  0  0  0
 33 28  1  6  0  0  0
 33 35  1  0  0  0  0
 35 34  2  0  0  0  0
 36 29  1  6  0  0  0
 36 32  1  0  0  0  0
 36 31  1  0  0  0  0
 37 38  1  0  0  0  0
 38 39  1  0  0  0  0
 39 44  1  0  0  0  0
 40 41  1  0  0  0  0
 42 45  1  0  0  0  0
 42 40  2  0  0  0  0
 43 47  2  0  0  0  0
 44 42  1  0  0  0  0
 46 44  2  0  0  0  0
 46 43  1  0  0  0  0
 47 40  1  0  0  0  0
 47 48  1  0  0  0  0
 49 48  1  0  0  0  0
 49 50  1  0  0  0  0
M  END
>  <MODEL>
3

>  <REMARK>
 VINA RESULT:      -6.7      2.120      2.993
  Name = 
  13 active torsions:
  status: ('A' for Active; 'I' for Inactive)
    1  A    between atoms: C_3  and  C_6
    2  A    between atoms: C_3  and  C_11
    3  A    between atoms: C_11  and  C_35
    4  A    between atoms: C_11  and  C_41
    5  A    between atoms: C_12  and  C_36
    6  A    between atoms: C_12  and  C_45
    7  A    between atoms: C_16  and  C_42
    8  A    between atoms: C_24  and  C_37
    9  A    between atoms: C_25  and  O_38
   10  A    between atoms: C_26  and  S_31
   11  A    between atoms: C_27  and  S_31
   12  A    between atoms: C_37  and  C_39
   13  A    between atoms: C_39  and  C_41
                            x       y       z     vdW  Elec       q    Type
                         _______ _______ _______ _____ _____    ______ ____

>  <TORSDO>
F 13

$$$$
=
 OpenBabel10232410373D

 50 56  0  0  1  0  0  0  0  0999 V2000
  188.5400  177.6900  138.4210 C   0  0  0  0  0  0  0  0  0  0  0  0
  187.9960  178.4660  139.6000 C   0  0  0  0  0  2  0  0  0  0  0  0
  188.9750  179.1300  138.6540 C   0  0  0  0  0  2  0  0  0  0  0  0
  187.7300  177.5510  137.1400 C   0  0  0  0  0  0  0  0  0  0  0  0
  186.4890  175.5930  135.0050 C   0  0  0  0  0  0  0  0  0  0  0  0
  186.1300  174.4520  134.6080 O   0  0  0  0  0  0  0  0  0  0  0  0
  187.8610  177.5890  134.6280 C   0  0  0  0  0  2  0  0  0  0  0  0
  185.2150  177.5720  137.7970 C   0  0  0  0  0  0  0  0  0  0  0  0
  184.3850  176.3090  136.2520 C   0  0  0  0  0  0  0  0  0  0  0  0
  186.3070  177.0770  137.0930 C   0  0  0  0  0  0  0  0  0  0  0  0
  187.5610  176.2250  134.3760 O   0  0  0  0  0  0  0  0  0  0  0  0
  188.4260  177.7400  136.0040 C   0  0  0  0  0  3  0  0  0  0  0  0
  184.0590  177.1480  137.2560 N   0  0  0  0  0  2  0  0  0  0  0  0
  185.7690  176.2300  136.1320 C   0  0  0  0  0  0  0  0  0  0  0  0
  183.9800  178.5240  139.7080 C   0  0  0  0  0  1  0  0  0  0  0  0
  185.2290  178.6200  138.8530 C   0  0  0  0  0  2  0  0  0  0  0  0
  183.2550  176.0040  134.8680 S   0  0  0  0  0  0  0  0  0  0  0  0
  181.3540  172.9590  137.6630 C   0  0  2  0  0  3  0  0  0  0  0  0
  180.3910  173.7700  136.8100 C   0  0  0  0  0  2  0  0  0  0  0  0
  183.2570  173.7450  136.2960 O   0  0  0  0  0  0  0  0  0  0  0  0
  181.1350  174.9610  136.2250 C   0  0  0  0  0  2  0  0  0  0  0  0
  182.6050  172.5980  136.8450 C   0  0  2  0  0  3  0  0  0  0  0  0
  182.3870  174.5140  135.4740 C   0  0  1  0  0  0  0  0  0  0  0  0
  182.0020  173.7810  134.3490 O   0  0  0  0  0  1  0  0  0  0  0  0
  180.7050  171.7890  138.0360 F   0  0  0  0  0  0  0  0  0  0  0  0
  183.2200  170.6000  136.1250 C   0  0  0  0  0  1  0  0  0  0  0  0
  182.3220  171.6370  135.8580 O   0  0  0  0  0  0  0  0  0  0  0  0
  189.5480  176.5990  138.8290 C   0  0  1  0  0  3  0  0  0  0  0  0
  192.1920  175.9520  135.9110 C   0  0  0  0  0  2  0  0  0  0  0  0
  191.6820  176.1900  137.3730 C   0  0  0  0  0  2  0  0  0  0  0  0
  191.9350  173.6380  134.8200 O   0  0  0  0  0  0  0  0  0  0  0  0
  191.6570  173.7510  136.1910 C   0  0  2  0  0  3  0  0  0  0  0  0
  190.1490  175.9360  137.5700 C   0  0  1  0  0  3  0  0  0  0  0  0
  190.3060  173.4890  136.7530 C   0  0  0  0  0  3  0  0  0  0  0  0
  189.6650  174.4780  137.4360 C   0  0  0  0  0  3  0  0  0  0  0  0
  191.3750  174.8590  135.2430 C   0  0  1  0  0  3  0  0  0  0  0  0
  190.6120  177.0770  139.8380 C   0  0  0  0  0  2  0  0  0  0  0  0
  190.4320  176.4970  141.2430 C   0  0  0  0  0  2  0  0  0  0  0  0
  190.3960  177.5980  142.3030 C   0  0  0  0  0  2  0  0  0  0  0  0
  188.5830  177.4530  145.7360 C   0  0  0  0  0  0  0  0  0  0  0  0
  188.8510  177.4700  147.1020 O   0  0  0  0  0  1  0  0  0  0  0  0
  189.6520  177.4600  144.8130 C   0  0  0  0  0  0  0  0  0  0  0  0
  186.9950  177.5630  143.9160 C   0  0  0  0  0  3  0  0  0  0  0  0
  189.3770  177.4730  143.4110 C   0  0  0  0  0  0  0  0  0  0  0  0
  191.0460  177.4400  145.3540 C   0  0  0  0  0  1  0  0  0  0  0  0
  188.0480  177.5820  142.9960 C   0  0  0  0  0  3  0  0  0  0  0  0
  187.2520  177.4340  145.2750 C   0  0  0  0  0  0  0  0  0  0  0  0
  186.1000  177.4330  146.2190 C   0  0  0  0  0  2  0  0  0  0  0  0
  185.8070  178.8400  146.6880 C   0  0  0  0  0  2  0  0  0  0  0  0
  185.1870  179.5470  145.6410 O   0  0  0  0  0  1  0  0  0  0  0  0
  1  3  1  0  0  0  0
  1 28  1  0  0  0  0
  1  2  1  0  0  0  0
  3  2  1  0  0  0  0
  4  1  1  0  0  0  0
  5 14  1  0  0  0  0
  6  5  2  0  0  0  0
  7 12  1  0  0  0  0
  8 16  1  0  0  0  0
  9 13  1  0  0  0  0
 10  4  1  0  0  0  0
 10  8  2  0  0  0  0
 11  7  1  0  0  0  0
 11  5  1  0  0  0  0
 12  4  2  0  0  0  0
 13  8  1  0  0  0  0
 14  9  2  0  0  0  0
 14 10  1  0  0  0  0
 16 15  1  0  0  0  0
 17 23  1  0  0  0  0
 17  9  1  0  0  0  0
 18 25  1  6  0  0  0
 19 18  1  0  0  0  0
 20 22  1  0  0  0  0
 21 19  1  0  0  0  0
 22 27  1  6  0  0  0
 22 18  1  0  0  0  0
 23 24  1  6  0  0  0
 23 21  1  0  0  0  0
 23 20  1  0  0  0  0
 27 26  1  0  0  0  0
 28 37  1  6  0  0  0
 29 30  1  0  0  0  0
 30 33  1  0  0  0  0
 31 36  1  0  0  0  0
 31 32  1  0  0  0  0
 32 34  1  6  0  0  0
 33 28  1  1  0  0  0
 34 35  2  0  0  0  0
 35 33  1  0  0  0  0
 36 29  1  1  0  0  0
 36 32  1  0  0  0  0
 37 38  1  0  0  0  0
 38 39  1  0  0  0  0
 39 44  1  0  0  0  0
 40 41  1  0  0  0  0
 42 45  1  0  0  0  0
 42 40  2  0  0  0  0
 43 47  2  0  0  0  0
 44 42  1  0  0  0  0
 46 44  2  0  0  0  0
 46 43  1  0  0  0  0
 47 40  1  0  0  0  0
 47 48  1  0  0  0  0
 48 49  1  0  0  0  0
 50 49  1  0  0  0  0
M  END
>  <MODEL>
4

>  <REMARK>
 VINA RESULT:      -6.5      2.539      6.037
  Name = 
  13 active torsions:
  status: ('A' for Active; 'I' for Inactive)
    1  A    between atoms: C_3  and  C_6
    2  A    between atoms: C_3  and  C_11
    3  A    between atoms: C_11  and  C_35
    4  A    between atoms: C_11  and  C_41
    5  A    between atoms: C_12  and  C_36
    6  A    between atoms: C_12  and  C_45
    7  A    between atoms: C_16  and  C_42
    8  A    between atoms: C_24  and  C_37
    9  A    between atoms: C_25  and  O_38
   10  A    between atoms: C_26  and  S_31
   11  A    between atoms: C_27  and  S_31
   12  A    between atoms: C_37  and  C_39
   13  A    between atoms: C_39  and  C_41
                            x       y       z     vdW  Elec       q    Type
                         _______ _______ _______ _____ _____    ______ ____

>  <TORSDO>
F 13

$$$$
=
 OpenBabel10232410373D

 50 56  0  0  1  0  0  0  0  0999 V2000
  189.7280  176.7460  139.2210 C   0  0  0  0  0  0  0  0  0  0  0  0
  190.8680  177.6940  138.9220 C   0  0  0  0  0  2  0  0  0  0  0  0
  191.1680  176.2860  139.3960 C   0  0  0  0  0  2  0  0  0  0  0  0
  189.0290  175.9880  138.1020 C   0  0  0  0  0  0  0  0  0  0  0  0
  186.8470  173.8520  137.3250 C   0  0  0  0  0  0  0  0  0  0  0  0
  185.8450  173.1310  137.5810 O   0  0  0  0  0  0  0  0  0  0  0  0
  189.1820  173.9830  136.5900 C   0  0  0  0  0  2  0  0  0  0  0  0
  187.1030  177.4940  137.2200 C   0  0  0  0  0  0  0  0  0  0  0  0
  185.6730  175.9950  136.5990 C   0  0  0  0  0  0  0  0  0  0  0  0
  187.6330  176.2770  137.6340 C   0  0  1  0  0  3  0  0  0  0  0  0
  188.0820  173.2450  137.0990 O   0  0  0  0  0  0  0  0  0  0  0  0
  189.6980  174.9170  137.6380 C   0  0  0  0  0  3  0  0  0  0  0  0
  185.9490  177.3140  136.5530 N   0  0  0  0  0  0  0  0  0  0  0  0
  186.6880  175.3250  137.2750 C   0  0  0  0  0  0  0  0  0  0  0  0
  188.9910  178.8200  136.3490 C   0  0  0  0  0  1  0  0  0  0  0  0
  187.7720  178.8220  137.2520 C   0  0  0  0  0  2  0  0  0  0  0  0
  184.6250  175.2020  135.3530 S   0  0  0  0  0  0  0  0  0  0  0  0
  181.3060  177.6180  137.3130 C   0  0  2  0  0  3  0  0  0  0  0  0
  181.3020  177.5950  135.7930 C   0  0  0  0  0  2  0  0  0  0  0  0
  182.9510  175.7740  137.3560 O   0  0  0  0  0  0  0  0  0  0  0  0
  182.6440  177.0730  135.3050 C   0  0  0  0  0  2  0  0  0  0  0  0
  181.6950  176.2340  137.8590 C   0  0  2  0  0  3  0  0  0  0  0  0
  182.9720  175.7210  135.9340 C   0  0  1  0  0  0  0  0  0  0  0  0
  182.0590  174.7720  135.4660 O   0  0  0  0  0  1  0  0  0  0  0  0
  180.0190  177.9240  137.7340 F   0  0  0  0  0  0  0  0  0  0  0  0
  180.6440  174.5570  138.8470 C   0  0  0  0  0  1  0  0  0  0  0  0
  180.6740  175.2890  137.6550 O   0  0  0  0  0  0  0  0  0  0  0  0
  188.9660  177.1070  140.5120 C   0  0  1  0  0  3  0  0  0  0  0  0
  192.0000  177.4330  143.0830 C   0  0  0  0  0  2  0  0  0  0  0  0
  190.8170  177.9130  142.1740 C   0  0  0  0  0  2  0  0  0  0  0  0
  191.5140  176.3300  145.3540 O   0  0  0  0  0  0  0  0  0  0  0  0
  190.4420  176.9280  144.6720 C   0  0  2  0  0  3  0  0  0  0  0  0
  189.8310  176.7730  141.7470 C   0  0  1  0  0  3  0  0  0  0  0  0
  189.2710  176.1490  144.1920 C   0  0  0  0  0  3  0  0  0  0  0  0
  188.9710  176.1470  142.8630 C   0  0  0  0  0  3  0  0  0  0  0  0
  191.5570  176.2660  143.9480 C   0  0  1  0  0  3  0  0  0  0  0  0
  188.4050  178.5430  140.5250 C   0  0  0  0  0  2  0  0  0  0  0  0
  186.9270  178.6230  140.9160 C   0  0  0  0  0  2  0  0  0  0  0  0
  186.7240  178.3350  142.4030 C   0  0  0  0  0  2  0  0  0  0  0  0
  183.5810  178.8460  144.6290 C   0  0  0  0  0  0  0  0  0  0  0  0
  183.2220  179.1610  145.9370 O   0  0  0  0  0  1  0  0  0  0  0  0
  184.9450  178.7000  144.2940 C   0  0  0  0  0  0  0  0  0  0  0  0
  182.9650  178.5080  142.3150 C   0  0  0  0  0  3  0  0  0  0  0  0
  185.3160  178.4060  142.9460 C   0  0  0  0  0  0  0  0  0  0  0  0
  185.9550  178.8490  145.3860 C   0  0  0  0  0  1  0  0  0  0  0  0
  184.3130  178.3730  141.9740 C   0  0  0  0  0  3  0  0  0  0  0  0
  182.5900  178.6780  143.6420 C   0  0  0  0  0  0  0  0  0  0  0  0
  181.1410  178.8310  143.9580 C   0  0  0  0  0  2  0  0  0  0  0  0
  180.3840  179.2790  142.7290 C   0  0  0  0  0  2  0  0  0  0  0  0
  180.3730  180.6850  142.6900 O   0  0  0  0  0  1  0  0  0  0  0  0
  1  3  1  0  0  0  0
  1 28  1  0  0  0  0
  2  1  1  0  0  0  0
  2  3  1  0  0  0  0
  4  1  1  0  0  0  0
  5  6  2  0  0  0  0
  7 11  1  0  0  0  0
  7 12  1  0  0  0  0
  8 16  1  0  0  0  0
  9 14  2  0  0  0  0
 10  8  1  6  0  0  0
 10  4  1  0  0  0  0
 11  5  1  0  0  0  0
 12  4  2  0  0  0  0
 13  9  1  0  0  0  0
 13  8  2  0  0  0  0
 14  5  1  0  0  0  0
 14 10  1  0  0  0  0
 15 16  1  0  0  0  0
 17 23  1  0  0  0  0
 17  9  1  0  0  0  0
 18 25  1  1  0  0  0
 18 22  1  0  0  0  0
 19 18  1  0  0  0  0
 20 22  1  0  0  0  0
 21 19  1  0  0  0  0
 21 23  1  0  0  0  0
 22 27  1  6  0  0  0
 23 24  1  6  0  0  0
 23 20  1  0  0  0  0
 27 26  1  0  0  0  0
 28 37  1  6  0  0  0
 30 29  1  0  0  0  0
 32 34  1  1  0  0  0
 32 31  1  0  0  0  0
 33 28  1  6  0  0  0
 33 30  1  0  0  0  0
 33 35  1  0  0  0  0
 35 34  2  0  0  0  0
 36 29  1  6  0  0  0
 36 32  1  0  0  0  0
 36 31  1  0  0  0  0
 37 38  1  0  0  0  0
 38 39  1  0  0  0  0
 39 44  1  0  0  0  0
 40 41  1  0  0  0  0
 42 40  1  0  0  0  0
 42 45  1  0  0  0  0
 43 47  1  0  0  0  0
 44 42  2  0  0  0  0
 46 43  2  0  0  0  0
 46 44  1  0  0  0  0
 47 48  1  0  0  0  0
 47 40  2  0  0  0  0
 49 48  1  0  0  0  0
 50 49  1  0  0  0  0
M  END
>  <MODEL>
5

>  <REMARK>
 VINA RESULT:      -6.4      2.390      6.286
  Name = 
  13 active torsions:
  status: ('A' for Active; 'I' for Inactive)
    1  A    between atoms: C_3  and  C_6
    2  A    between atoms: C_3  and  C_11
    3  A    between atoms: C_11  and  C_35
    4  A    between atoms: C_11  and  C_41
    5  A    between atoms: C_12  and  C_36
    6  A    between atoms: C_12  and  C_45
    7  A    between atoms: C_16  and  C_42
    8  A    between atoms: C_24  and  C_37
    9  A    between atoms: C_25  and  O_38
   10  A    between atoms: C_26  and  S_31
   11  A    between atoms: C_27  and  S_31
   12  A    between atoms: C_37  and  C_39
   13  A    between atoms: C_39  and  C_41
                            x       y       z     vdW  Elec       q    Type
                         _______ _______ _______ _____ _____    ______ ____

>  <TORSDO>
F 13

$$$$
=
 OpenBabel10232410373D

 50 56  0  0  1  0  0  0  0  0999 V2000
  189.0300  177.3820  138.0860 C   0  0  0  0  0  0  0  0  0  0  0  0
  188.3590  178.3280  139.0570 C   0  0  0  0  0  2  0  0  0  0  0  0
  189.3620  178.8670  138.0580 C   0  0  0  0  0  2  0  0  0  0  0  0
  188.3220  176.9430  136.8120 C   0  0  0  0  0  0  0  0  0  0  0  0
  187.3620  174.5300  135.0260 C   0  0  0  0  0  0  0  0  0  0  0  0
  187.1050  173.3110  134.8350 O   0  0  0  0  0  0  0  0  0  0  0  0
  188.6270  176.5190  134.3500 C   0  0  0  0  0  2  0  0  0  0  0  0
  185.7710  176.8970  137.3080 C   0  0  0  0  0  0  0  0  0  0  0  0
  185.1340  175.3060  135.9890 C   0  0  0  0  0  0  0  0  0  0  0  0
  186.9390  176.3620  136.7750 C   0  0  0  0  0  0  0  0  0  0  0  0
  188.4330  175.1130  134.3490 O   0  0  0  0  0  0  0  0  0  0  0  0
  189.0830  176.9680  135.7020 C   0  0  0  0  0  3  0  0  0  0  0  0
  184.6860  176.2910  136.7940 N   0  0  0  0  0  2  0  0  0  0  0  0
  186.5250  175.3120  135.9670 C   0  0  0  0  0  0  0  0  0  0  0  0
  184.2170  178.2830  138.6290 C   0  0  0  0  0  1  0  0  0  0  0  0
  185.6450  178.1220  138.1420 C   0  0  0  0  0  2  0  0  0  0  0  0
  184.1260  174.6620  134.6290 S   0  0  0  0  0  0  0  0  0  0  0  0
  181.2100  171.2740  135.4740 C   0  0  2  0  0  3  0  0  0  0  0  0
  182.6800  170.9550  135.6930 C   0  0  0  0  0  2  0  0  0  0  0  0
  181.7360  173.6840  135.3160 O   0  0  0  0  0  0  0  0  0  0  0  0
  183.5230  172.0350  135.0320 C   0  0  0  0  0  2  0  0  0  0  0  0
  180.9060  172.7060  135.9450 C   0  0  2  0  0  3  0  0  0  0  0  0
  183.1200  173.4250  135.5210 C   0  0  1  0  0  0  0  0  0  0  0  0
  183.4430  173.5380  136.8760 O   0  0  0  0  0  1  0  0  0  0  0  0
  180.4660  170.3810  136.2330 F   0  0  0  0  0  0  0  0  0  0  0  0
  180.1120  173.8960  137.6320 C   0  0  0  0  0  1  0  0  0  0  0  0
  180.9470  172.8120  137.3470 O   0  0  0  0  0  0  0  0  0  0  0  0
  190.0680  176.4630  138.7570 C   0  0  1  0  0  3  0  0  0  0  0  0
  193.5620  176.2260  136.8430 C   0  0  0  0  0  2  0  0  0  0  0  0
  192.5840  176.2790  138.0660 C   0  0  0  0  0  2  0  0  0  0  0  0
  193.8230  174.0500  135.4980 O   0  0  0  0  0  0  0  0  0  0  0  0
  193.1010  173.9950  136.7010 C   0  0  2  0  0  3  0  0  0  0  0  0
  191.0910  175.9670  137.7110 C   0  0  1  0  0  3  0  0  0  0  0  0
  191.6600  173.6360  136.7480 C   0  0  0  0  0  3  0  0  0  0  0  0
  190.7690  174.5230  137.2750 C   0  0  0  0  0  3  0  0  0  0  0  0
  193.0800  175.1990  135.8320 C   0  0  1  0  0  3  0  0  0  0  0  0
  190.7220  177.0720  140.0140 C   0  0  0  0  0  2  0  0  0  0  0  0
  189.7470  177.2860  141.1740 C   0  0  0  0  0  2  0  0  0  0  0  0
  190.1330  176.4480  142.3930 C   0  0  0  0  0  2  0  0  0  0  0  0
  189.1440  177.2890  146.0540 C   0  0  0  0  0  0  0  0  0  0  0  0
  189.7170  177.5690  147.2920 O   0  0  0  0  0  1  0  0  0  0  0  0
  189.9720  176.9570  144.9590 C   0  0  0  0  0  0  0  0  0  0  0  0
  187.1960  177.2020  144.6240 C   0  0  0  0  0  3  0  0  0  0  0  0
  189.3870  176.6990  143.6810 C   0  0  0  0  0  0  0  0  0  0  0  0
  191.4460  176.8780  145.1940 C   0  0  0  0  0  1  0  0  0  0  0  0
  188.0100  176.8840  143.5320 C   0  0  0  0  0  3  0  0  0  0  0  0
  187.7450  177.3400  145.8920 C   0  0  0  0  0  0  0  0  0  0  0  0
  186.8420  177.6930  147.0240 C   0  0  0  0  0  2  0  0  0  0  0  0
  185.7300  178.5970  146.5420 C   0  0  0  0  0  2  0  0  0  0  0  0
  185.6050  179.6770  147.4350 O   0  0  0  0  0  1  0  0  0  0  0  0
  1 28  1  0  0  0  0
  1  2  1  0  0  0  0
  3  1  1  0  0  0  0
  3  2  1  0  0  0  0
  4  1  1  0  0  0  0
  5 14  1  0  0  0  0
  6  5  2  0  0  0  0
  7 12  1  0  0  0  0
  8 16  1  0  0  0  0
  9 13  1  0  0  0  0
 10  4  1  0  0  0  0
 10  8  2  0  0  0  0
 11  7  1  0  0  0  0
 11  5  1  0  0  0  0
 12  4  2  0  0  0  0
 13  8  1  0  0  0  0
 14  9  2  0  0  0  0
 14 10  1  0  0  0  0
 16 15  1  0  0  0  0
 17 23  1  0  0  0  0
 17  9  1  0  0  0  0
 18 19  1  0  0  0  0
 18 22  1  0  0  0  0
 18 25  1  1  0  0  0
 20 23  1  0  0  0  0
 20 22  1  0  0  0  0
 21 23  1  0  0  0  0
 21 19  1  0  0  0  0
 22 27  1  1  0  0  0
 23 24  1  1  0  0  0
 27 26  1  0  0  0  0
 28 37  1  1  0  0  0
 29 30  1  0  0  0  0
 31 36  1  0  0  0  0
 31 32  1  0  0  0  0
 32 34  1  6  0  0  0
 33 30  1  0  0  0  0
 33 28  1  1  0  0  0
 34 35  2  0  0  0  0
 35 33  1  0  0  0  0
 36 32  1  0  0  0  0
 36 29  1  1  0  0  0
 37 38  1  0  0  0  0
 38 39  1  0  0  0  0
 39 44  1  0  0  0  0
 40 41  1  0  0  0  0
 42 45  1  0  0  0  0
 42 40  2  0  0  0  0
 43 47  2  0  0  0  0
 44 42  1  0  0  0  0
 46 44  2  0  0  0  0
 46 43  1  0  0  0  0
 47 40  1  0  0  0  0
 47 48  1  0  0  0  0
 49 48  1  0  0  0  0
 49 50  1  0  0  0  0
M  END
>  <MODEL>
6

>  <REMARK>
 VINA RESULT:      -6.3      2.988      6.431
  Name = 
  13 active torsions:
  status: ('A' for Active; 'I' for Inactive)
    1  A    between atoms: C_3  and  C_6
    2  A    between atoms: C_3  and  C_11
    3  A    between atoms: C_11  and  C_35
    4  A    between atoms: C_11  and  C_41
    5  A    between atoms: C_12  and  C_36
    6  A    between atoms: C_12  and  C_45
    7  A    between atoms: C_16  and  C_42
    8  A    between atoms: C_24  and  C_37
    9  A    between atoms: C_25  and  O_38
   10  A    between atoms: C_26  and  S_31
   11  A    between atoms: C_27  and  S_31
   12  A    between atoms: C_37  and  C_39
   13  A    between atoms: C_39  and  C_41
                            x       y       z     vdW  Elec       q    Type
                         _______ _______ _______ _____ _____    ______ ____

>  <TORSDO>
F 13

$$$$
=
 OpenBabel10232410373D

 50 56  0  0  1  0  0  0  0  0999 V2000
  189.7840  176.4080  138.6370 C   0  0  0  0  0  0  0  0  0  0  0  0
  191.0160  177.1330  138.1430 C   0  0  0  0  0  2  0  0  0  0  0  0
  191.1590  175.7810  138.8120 C   0  0  0  0  0  2  0  0  0  0  0  0
  188.9180  175.6010  137.6800 C   0  0  0  0  0  0  0  0  0  0  0  0
  186.4480  173.6730  137.3460 C   0  0  0  0  0  0  0  0  0  0  0  0
  185.3910  173.1260  137.7610 O   0  0  0  0  0  0  0  0  0  0  0  0
  188.7200  173.4060  136.4650 C   0  0  0  0  0  2  0  0  0  0  0  0
  187.1210  177.2050  136.7060 C   0  0  0  0  0  0  0  0  0  0  0  0
  185.4820  175.8300  136.3910 C   0  0  0  0  0  0  0  0  0  0  0  0
  187.5340  175.9980  137.2580 C   0  0  1  0  0  3  0  0  0  0  0  0
  187.5820  172.8900  137.1380 O   0  0  0  0  0  0  0  0  0  0  0  0
  189.4200  174.4000  137.3360 C   0  0  0  0  0  3  0  0  0  0  0  0
  185.9060  177.0850  136.1400 N   0  0  0  0  0  0  0  0  0  0  0  0
  186.4600  175.1340  137.0950 C   0  0  0  0  0  0  0  0  0  0  0  0
  188.9550  178.2120  135.4010 C   0  0  0  0  0  1  0  0  0  0  0  0
  187.9420  178.4300  136.5080 C   0  0  0  0  0  2  0  0  0  0  0  0
  184.2570  175.0150  135.3350 S   0  0  0  0  0  0  0  0  0  0  0  0
  181.3750  177.1350  138.1450 C   0  0  2  0  0  3  0  0  0  0  0  0
  181.3470  177.5930  136.6960 C   0  0  0  0  0  2  0  0  0  0  0  0
  182.7180  175.1590  137.5160 O   0  0  0  0  0  0  0  0  0  0  0  0
  182.5860  177.0670  135.9890 C   0  0  0  0  0  2  0  0  0  0  0  0
  181.5550  175.6100  138.2120 C   0  0  2  0  0  3  0  0  0  0  0  0
  182.7110  175.5530  136.1480 C   0  0  1  0  0  0  0  0  0  0  0  0
  181.6570  174.9390  135.4670 O   0  0  0  0  0  1  0  0  0  0  0  0
  180.1560  177.4730  138.7190 F   0  0  0  0  0  0  0  0  0  0  0  0
  180.0240  174.1710  138.9020 C   0  0  0  0  0  1  0  0  0  0  0  0
  180.3980  174.9310  137.7900 O   0  0  0  0  0  0  0  0  0  0  0  0
  189.1640  177.0550  139.8900 C   0  0  1  0  0  3  0  0  0  0  0  0
  191.9800  177.7050  142.6430 C   0  0  0  0  0  2  0  0  0  0  0  0
  190.7470  178.0280  141.7310 C   0  0  0  0  0  2  0  0  0  0  0  0
  191.6810  176.2550  144.7450 O   0  0  0  0  0  0  0  0  0  0  0  0
  190.5250  176.6890  144.0780 C   0  0  2  0  0  3  0  0  0  0  0  0
  190.0460  176.7650  141.1260 C   0  0  1  0  0  3  0  0  0  0  0  0
  189.5660  175.7430  143.4510 C   0  0  0  0  0  3  0  0  0  0  0  0
  189.3110  175.8390  142.1150 C   0  0  0  0  0  3  0  0  0  0  0  0
  191.7770  176.3730  143.3450 C   0  0  1  0  0  3  0  0  0  0  0  0
  188.8210  178.5490  139.7180 C   0  0  0  0  0  2  0  0  0  0  0  0
  187.9450  179.1130  140.8390 C   0  0  0  0  0  2  0  0  0  0  0  0
  186.8300  178.1400  141.2230 C   0  0  0  0  0  2  0  0  0  0  0  0
  184.4420  178.5210  144.2630 C   0  0  0  0  0  0  0  0  0  0  0  0
  183.1060  178.7760  144.5640 O   0  0  0  0  0  1  0  0  0  0  0  0
  184.8750  178.5530  142.9190 C   0  0  0  0  0  0  0  0  0  0  0  0
  186.6500  177.8360  144.9710 C   0  0  0  0  0  3  0  0  0  0  0  0
  186.2380  178.2630  142.6070 C   0  0  0  0  0  0  0  0  0  0  0  0
  183.8720  178.9070  141.8680 C   0  0  0  0  0  1  0  0  0  0  0  0
  187.0830  177.8540  143.6420 C   0  0  0  0  0  3  0  0  0  0  0  0
  185.3570  178.2290  145.2930 C   0  0  0  0  0  0  0  0  0  0  0  0
  184.9340  178.1810  146.7210 C   0  0  0  0  0  2  0  0  0  0  0  0
  186.0020  178.7880  147.6030 C   0  0  0  0  0  2  0  0  0  0  0  0
  185.9790  180.1860  147.4460 O   0  0  0  0  0  1  0  0  0  0  0  0
  1  3  1  0  0  0  0
  1 28  1  0  0  0  0
  2  1  1  0  0  0  0
  2  3  1  0  0  0  0
  4  1  1  0  0  0  0
  5  6  2  0  0  0  0
  7 11  1  0  0  0  0
  7 12  1  0  0  0  0
  9 14  2  0  0  0  0
 10  8  1  6  0  0  0
 10  4  1  0  0  0  0
 11  5  1  0  0  0  0
 12  4  2  0  0  0  0
 13  9  1  0  0  0  0
 13  8  2  0  0  0  0
 14 10  1  0  0  0  0
 14  5  1  0  0  0  0
 15 16  1  0  0  0  0
 16  8  1  0  0  0  0
 17 23  1  0  0  0  0
 17  9  1  0  0  0  0
 18 22  1  0  0  0  0
 18 25  1  6  0  0  0
 19 18  1  0  0  0  0
 20 22  1  0  0  0  0
 21 23  1  0  0  0  0
 21 19  1  0  0  0  0
 22 27  1  6  0  0  0
 23 24  1  6  0  0  0
 23 20  1  0  0  0  0
 27 26  1  0  0  0  0
 28 37  1  6  0  0  0
 30 29  1  0  0  0  0
 32 34  1  6  0  0  0
 32 31  1  0  0  0  0
 33 28  1  6  0  0  0
 33 30  1  0  0  0  0
 33 35  1  0  0  0  0
 35 34  2  0  0  0  0
 36 29  1  1  0  0  0
 36 32  1  0  0  0  0
 36 31  1  0  0  0  0
 37 38  1  0  0  0  0
 38 39  1  0  0  0  0
 39 44  1  0  0  0  0
 40 41  1  0  0  0  0
 40 47  1  0  0  0  0
 42 40  2  0  0  0  0
 43 47  2  0  0  0  0
 44 42  1  0  0  0  0
 44 46  2  0  0  0  0
 45 42  1  0  0  0  0
 46 43  1  0  0  0  0
 47 48  1  0  0  0  0
 48 49  1  0  0  0  0
 50 49  1  0  0  0  0
M  END
>  <MODEL>
7

>  <REMARK>
 VINA RESULT:      -6.1      2.279      5.816
  Name = 
  13 active torsions:
  status: ('A' for Active; 'I' for Inactive)
    1  A    between atoms: C_3  and  C_6
    2  A    between atoms: C_3  and  C_11
    3  A    between atoms: C_11  and  C_35
    4  A    between atoms: C_11  and  C_41
    5  A    between atoms: C_12  and  C_36
    6  A    between atoms: C_12  and  C_45
    7  A    between atoms: C_16  and  C_42
    8  A    between atoms: C_24  and  C_37
    9  A    between atoms: C_25  and  O_38
   10  A    between atoms: C_26  and  S_31
   11  A    between atoms: C_27  and  S_31
   12  A    between atoms: C_37  and  C_39
   13  A    between atoms: C_39  and  C_41
                            x       y       z     vdW  Elec       q    Type
                         _______ _______ _______ _____ _____    ______ ____

>  <TORSDO>
F 13

$$$$
=
 OpenBabel10232410373D

 50 56  0  0  1  0  0  0  0  0999 V2000
  190.3580  176.9920  139.7450 C   0  0  0  0  0  0  0  0  0  0  0  0
  191.2560  177.6270  140.7830 C   0  0  0  0  0  2  0  0  0  0  0  0
  190.5360  176.3330  141.1050 C   0  0  0  0  0  2  0  0  0  0  0  0
  190.9400  176.1370  138.6290 C   0  0  0  0  0  0  0  0  0  0  0  0
  191.3970  175.8020  135.5290 C   0  0  0  0  0  0  0  0  0  0  0  0
  191.4220  176.2400  134.3470 O   0  0  0  0  0  0  0  0  0  0  0  0
  190.5010  174.1690  137.1230 C   0  0  0  0  0  2  0  0  0  0  0  0
  193.4510  176.7650  138.3910 C   0  0  0  0  0  0  0  0  0  0  0  0
  193.7540  176.4210  136.2780 C   0  0  0  0  0  0  0  0  0  0  0  0
  192.1930  176.4780  137.8750 C   0  0  1  0  0  3  0  0  0  0  0  0
  190.4350  174.8580  135.8840 O   0  0  0  0  0  0  0  0  0  0  0  0
  190.1690  175.1040  138.2430 C   0  0  0  0  0  3  0  0  0  0  0  0
  194.3950  176.6790  137.4360 N   0  0  0  0  0  0  0  0  0  0  0  0
  192.3870  176.3050  136.5110 C   0  0  0  0  0  0  0  0  0  0  0  0
  195.0160  176.0380  140.1530 C   0  0  0  0  0  1  0  0  0  0  0  0
  193.8210  176.9120  139.8250 C   0  0  0  0  0  2  0  0  0  0  0  0
  194.5920  175.6090  134.8920 S   0  0  0  0  0  0  0  0  0  0  0  0
  198.2230  173.4240  136.5450 C   0  0  2  0  0  3  0  0  0  0  0  0
  198.4260  174.1410  135.2200 C   0  0  0  0  0  2  0  0  0  0  0  0
  196.0720  174.5960  136.8730 O   0  0  0  0  0  0  0  0  0  0  0  0
  197.0660  174.4950  134.6390 C   0  0  0  0  0  2  0  0  0  0  0  0
  197.3280  174.2680  137.4680 C   0  0  2  0  0  3  0  0  0  0  0  0
  196.2280  175.2880  135.6390 C   0  0  1  0  0  0  0  0  0  0  0  0
  196.8310  176.5310  135.8480 O   0  0  0  0  0  1  0  0  0  0  0  0
  199.4690  173.2720  137.1380 F   0  0  0  0  0  0  0  0  0  0  0  0
  198.4080  175.0630  139.2270 C   0  0  0  0  0  1  0  0  0  0  0  0
  197.9980  175.4120  137.9370 O   0  0  0  0  0  0  0  0  0  0  0  0
  189.0430  177.7650  139.5290 C   0  0  1  0  0  3  0  0  0  0  0  0
  187.0390  176.1460  136.4820 C   0  0  0  0  0  2  0  0  0  0  0  0
  187.2630  176.7230  137.9210 C   0  0  0  0  0  2  0  0  0  0  0  0
  186.7980  177.7400  134.4790 O   0  0  0  0  0  0  0  0  0  0  0  0
  186.7890  178.2980  135.7670 C   0  0  2  0  0  3  0  0  0  0  0  0
  188.5580  177.5900  138.0730 C   0  0  1  0  0  3  0  0  0  0  0  0
  187.8330  179.2500  136.2290 C   0  0  0  0  0  3  0  0  0  0  0  0
  188.5820  178.9370  137.3230 C   0  0  0  0  0  3  0  0  0  0  0  0
  187.6020  177.1000  135.4420 C   0  0  1  0  0  3  0  0  0  0  0  0
  187.9560  177.4560  140.5790 C   0  0  0  0  0  2  0  0  0  0  0  0
  187.9470  178.4270  141.7620 C   0  0  0  0  0  2  0  0  0  0  0  0
  187.3220  177.7930  143.0040 C   0  0  0  0  0  2  0  0  0  0  0  0
  188.6430  177.3270  146.6270 C   0  0  0  0  0  0  0  0  0  0  0  0
  188.1860  177.1770  147.9350 O   0  0  0  0  0  1  0  0  0  0  0  0
  187.7180  177.5480  145.5840 C   0  0  0  0  0  0  0  0  0  0  0  0
  190.4530  177.2600  145.0250 C   0  0  0  0  0  3  0  0  0  0  0  0
  188.1840  177.6720  144.2390 C   0  0  0  0  0  0  0  0  0  0  0  0
  186.2700  177.6560  145.9420 C   0  0  0  0  0  1  0  0  0  0  0  0
  189.5420  177.4680  143.9850 C   0  0  0  0  0  3  0  0  0  0  0  0
  190.0210  177.2540  146.3460 C   0  0  0  0  0  0  0  0  0  0  0  0
  191.0250  177.0160  147.4210 C   0  0  0  0  0  2  0  0  0  0  0  0
  191.8620  175.8000  147.0940 C   0  0  0  0  0  2  0  0  0  0  0  0
  192.8290  175.6300  148.1010 O   0  0  0  0  0  1  0  0  0  0  0  0
  1  2  1  0  0  0  0
  1  3  1  0  0  0  0
  2  3  1  0  0  0  0
  4  1  1  0  0  0  0
  5 11  1  0  0  0  0
  5 14  1  0  0  0  0
  6  5  2  0  0  0  0
  7 12  1  0  0  0  0
  8 16  1  0  0  0  0
  9 14  2  0  0  0  0
  9 13  1  0  0  0  0
 10 14  1  6  0  0  0
 10  8  1  0  0  0  0
 10  4  1  0  0  0  0
 11  7  1  0  0  0  0
 12  4  2  0  0  0  0
 13  8  2  0  0  0  0
 16 15  1  0  0  0  0
 17 23  1  0  0  0  0
 17  9  1  0  0  0  0
 18 25  1  1  0  0  0
 18 22  1  0  0  0  0
 19 18  1  0  0  0  0
 20 22  1  0  0  0  0
 21 19  1  0  0  0  0
 21 23  1  0  0  0  0
 22 27  1  6  0  0  0
 23 24  1  1  0  0  0
 23 20  1  0  0  0  0
 27 26  1  0  0  0  0
 28  1  1  0  0  0  0
 28 37  1  1  0  0  0
 29 30  1  0  0  0  0
 30 33  1  0  0  0  0
 31 36  1  0  0  0  0
 31 32  1  0  0  0  0
 32 34  1  6  0  0  0
 33 28  1  1  0  0  0
 34 35  2  0  0  0  0
 35 33  1  0  0  0  0
 36 32  1  0  0  0  0
 36 29  1  1  0  0  0
 37 38  1  0  0  0  0
 38 39  1  0  0  0  0
 39 44  1  0  0  0  0
 40 41  1  0  0  0  0
 42 45  1  0  0  0  0
 42 40  2  0  0  0  0
 43 47  2  0  0  0  0
 44 42  1  0  0  0  0
 46 44  2  0  0  0  0
 46 43  1  0  0  0  0
 47 40  1  0  0  0  0
 47 48  1  0  0  0  0
 49 48  1  0  0  0  0
 49 50  1  0  0  0  0
M  END
>  <MODEL>
8

>  <REMARK>
 VINA RESULT:      -6.0      5.258      8.099
  Name = 
  13 active torsions:
  status: ('A' for Active; 'I' for Inactive)
    1  A    between atoms: C_3  and  C_6
    2  A    between atoms: C_3  and  C_11
    3  A    between atoms: C_11  and  C_35
    4  A    between atoms: C_11  and  C_41
    5  A    between atoms: C_12  and  C_36
    6  A    between atoms: C_12  and  C_45
    7  A    between atoms: C_16  and  C_42
    8  A    between atoms: C_24  and  C_37
    9  A    between atoms: C_25  and  O_38
   10  A    between atoms: C_26  and  S_31
   11  A    between atoms: C_27  and  S_31
   12  A    between atoms: C_37  and  C_39
   13  A    between atoms: C_39  and  C_41
                            x       y       z     vdW  Elec       q    Type
                         _______ _______ _______ _____ _____    ______ ____

>  <TORSDO>
F 13

$$$$
=
 OpenBabel10232410373D

 50 56  0  0  1  0  0  0  0  0999 V2000
  190.4990  177.0000  139.8690 C   0  0  0  0  0  0  0  0  0  0  0  0
  191.5380  177.6770  140.7340 C   0  0  0  0  0  2  0  0  0  0  0  0
  190.9080  176.3790  141.1960 C   0  0  0  0  0  2  0  0  0  0  0  0
  190.9120  176.1280  138.6920 C   0  0  0  0  0  0  0  0  0  0  0  0
  191.0760  175.8320  135.5580 C   0  0  0  0  0  0  0  0  0  0  0  0
  191.0350  176.2940  134.3870 O   0  0  0  0  0  0  0  0  0  0  0  0
  190.1880  174.2380  137.1970 C   0  0  0  0  0  2  0  0  0  0  0  0
  193.4370  176.5590  138.2480 C   0  0  0  0  0  0  0  0  0  0  0  0
  193.5300  176.2420  136.1110 C   0  0  0  0  0  0  0  0  0  0  0  0
  192.1200  176.3850  137.8380 C   0  0  1  0  0  3  0  0  0  0  0  0
  190.0730  174.9590  135.9800 O   0  0  0  0  0  0  0  0  0  0  0  0
  190.0300  175.1700  138.3570 C   0  0  0  0  0  3  0  0  0  0  0  0
  194.2860  176.4210  137.2140 N   0  0  0  0  0  0  0  0  0  0  0  0
  192.1830  176.2300  136.4600 C   0  0  0  0  0  0  0  0  0  0  0  0
  195.0720  175.6580  139.8590 C   0  0  0  0  0  1  0  0  0  0  0  0
  193.9380  176.6420  139.6470 C   0  0  0  0  0  2  0  0  0  0  0  0
  194.1780  175.4000  134.6440 S   0  0  0  0  0  0  0  0  0  0  0  0
  195.3550  172.2860  137.7450 C   0  0  2  0  0  3  0  0  0  0  0  0
  194.1320  171.9570  136.9050 C   0  0  0  0  0  2  0  0  0  0  0  0
  195.9350  174.1360  136.2120 O   0  0  0  0  0  0  0  0  0  0  0  0
  193.6650  173.2200  136.1980 C   0  0  0  0  0  2  0  0  0  0  0  0
  196.4230  172.9680  136.8740 C   0  0  2  0  0  3  0  0  0  0  0  0
  194.8010  173.8570  135.3990 C   0  0  1  0  0  0  0  0  0  0  0  0
  195.1500  173.0020  134.3500 O   0  0  0  0  0  1  0  0  0  0  0  0
  195.8660  171.0910  138.2330 F   0  0  0  0  0  0  0  0  0  0  0  0
  198.3500  172.0050  136.3740 C   0  0  0  0  0  1  0  0  0  0  0  0
  197.0130  172.0650  135.9720 O   0  0  0  0  0  0  0  0  0  0  0  0
  189.1490  177.7430  139.8510 C   0  0  1  0  0  3  0  0  0  0  0  0
  186.3430  176.9500  137.1270 C   0  0  0  0  0  2  0  0  0  0  0  0
  186.9480  177.5180  138.4560 C   0  0  0  0  0  2  0  0  0  0  0  0
  186.7220  178.1890  134.9070 O   0  0  0  0  0  0  0  0  0  0  0  0
  187.1010  178.8370  136.0930 C   0  0  2  0  0  3  0  0  0  0  0  0
  188.5100  177.6470  138.4480 C   0  0  1  0  0  3  0  0  0  0  0  0
  188.5130  179.2020  136.3830 C   0  0  0  0  0  3  0  0  0  0  0  0
  189.1140  178.7010  137.4990 C   0  0  0  0  0  3  0  0  0  0  0  0
  187.2000  177.3630  135.9420 C   0  0  1  0  0  3  0  0  0  0  0  0
  188.1940  177.3320  140.9910 C   0  0  0  0  0  2  0  0  0  0  0  0
  188.0820  178.3730  142.1070 C   0  0  0  0  0  2  0  0  0  0  0  0
  187.4250  177.7870  143.3560 C   0  0  0  0  0  2  0  0  0  0  0  0
  188.6970  177.4280  147.0090 C   0  0  0  0  0  0  0  0  0  0  0  0
  188.2280  177.4070  148.3210 O   0  0  0  0  0  1  0  0  0  0  0  0
  187.7970  177.6710  145.9480 C   0  0  0  0  0  0  0  0  0  0  0  0
  190.4900  177.0840  145.4250 C   0  0  0  0  0  3  0  0  0  0  0  0
  188.2710  177.6630  144.6010 C   0  0  0  0  0  0  0  0  0  0  0  0
  186.3670  177.9420  146.2910 C   0  0  0  0  0  1  0  0  0  0  0  0
  189.6030  177.3120  144.3690 C   0  0  0  0  0  3  0  0  0  0  0  0
  190.0610  177.2040  146.7410 C   0  0  0  0  0  0  0  0  0  0  0  0
  191.0380  176.9390  147.8340 C   0  0  0  0  0  2  0  0  0  0  0  0
  191.9300  175.7750  147.4660 C   0  0  0  0  0  2  0  0  0  0  0  0
  193.1590  175.9160  148.1360 O   0  0  0  0  0  1  0  0  0  0  0  0
  1  2  1  0  0  0  0
  1  3  1  0  0  0  0
  2  3  1  0  0  0  0
  4  1  1  0  0  0  0
  5 11  1  0  0  0  0
  5 14  1  0  0  0  0
  6  5  2  0  0  0  0
  7 12  1  0  0  0  0
  8 16  1  0  0  0  0
  9 14  2  0  0  0  0
  9 13  1  0  0  0  0
 10 14  1  6  0  0  0
 10  8  1  0  0  0  0
 10  4  1  0  0  0  0
 11  7  1  0  0  0  0
 12  4  2  0  0  0  0
 13  8  2  0  0  0  0
 16 15  1  0  0  0  0
 17 23  1  0  0  0  0
 17  9  1  0  0  0  0
 18 25  1  6  0  0  0
 19 18  1  0  0  0  0
 20 22  1  0  0  0  0
 21 19  1  0  0  0  0
 22 27  1  6  0  0  0
 22 18  1  0  0  0  0
 23 24  1  6  0  0  0
 23 21  1  0  0  0  0
 23 20  1  0  0  0  0
 27 26  1  0  0  0  0
 28  1  1  0  0  0  0
 28 37  1  1  0  0  0
 29 30  1  0  0  0  0
 31 36  1  0  0  0  0
 31 32  1  0  0  0  0
 32 34  1  6  0  0  0
 33 30  1  0  0  0  0
 33 28  1  1  0  0  0
 34 35  2  0  0  0  0
 35 33  1  0  0  0  0
 36 32  1  0  0  0  0
 36 29  1  1  0  0  0
 37 38  1  0  0  0  0
 38 39  1  0  0  0  0
 39 44  1  0  0  0  0
 40 41  1  0  0  0  0
 42 45  1  0  0  0  0
 42 40  2  0  0  0  0
 43 47  2  0  0  0  0
 44 42  1  0  0  0  0
 46 44  2  0  0  0  0
 46 43  1  0  0  0  0
 47 40  1  0  0  0  0
 47 48  1  0  0  0  0
 49 48  1  0  0  0  0
 49 50  1  0  0  0  0
M  END
>  <MODEL>
9

>  <REMARK>
 VINA RESULT:      -6.0      4.637      7.405
  Name = 
  13 active torsions:
  status: ('A' for Active; 'I' for Inactive)
    1  A    between atoms: C_3  and  C_6
    2  A    between atoms: C_3  and  C_11
    3  A    between atoms: C_11  and  C_35
    4  A    between atoms: C_11  and  C_41
    5  A    between atoms: C_12  and  C_36
    6  A    between atoms: C_12  and  C_45
    7  A    between atoms: C_16  and  C_42
    8  A    between atoms: C_24  and  C_37
    9  A    between atoms: C_25  and  O_38
   10  A    between atoms: C_26  and  S_31
   11  A    between atoms: C_27  and  S_31
   12  A    between atoms: C_37  and  C_39
   13  A    between atoms: C_39  and  C_41
                            x       y       z     vdW  Elec       q    Type
                         _______ _______ _______ _____ _____    ______ ____

>  <TORSDO>
F 13

$$$$
