=
 OpenBabel10222422113D

 29 33  0  0  1  0  0  0  0  0999 V2000
  186.2540  179.3550  142.1090 C   0  0  2  0  0  3  0  0  0  0  0  0
  184.4480  178.0320  140.8030 C   0  0  0  0  0  2  0  0  0  0  0  0
  187.2570  178.4480  141.3830 C   0  0  0  0  0  0  0  0  0  0  0  0
  186.0110  178.8720  143.5380 C   0  0  0  0  0  2  0  0  0  0  0  0
  184.6460  178.4300  143.2440 N   0  0  0  0  0  0  0  0  0  0  0  0
  184.7660  179.0240  141.9150 C   0  0  1  0  0  3  0  0  0  0  0  0
  184.8780  178.6530  139.5250 C   0  0  0  0  0  3  0  0  0  0  0  0
  186.1310  178.7510  139.2140 N   0  0  0  0  0  0  0  0  0  0  0  0
  187.2300  178.2680  140.0270 C   0  0  0  0  0  0  0  0  0  0  0  0
  192.8560  175.5510  136.2350 N   0  0  0  0  0  1  0  0  0  0  0  0
  191.8060  176.0840  137.0210 C   0  0  0  0  0  0  0  0  0  0  0  0
  189.7440  176.5280  137.6440 C   0  0  0  0  0  0  0  0  0  0  0  0
  190.4910  175.9860  136.6630 N   0  0  0  0  0  0  0  0  0  0  0  0
  190.3940  177.0500  138.7050 C   0  0  0  0  0  0  0  0  0  0  0  0
  188.3340  177.6000  139.2860 C   0  0  0  0  0  0  0  0  0  0  0  0
  188.1070  176.8060  137.7770 S   0  0  0  0  0  0  0  0  0  0  0  0
  192.0550  176.8630  138.5320 S   0  0  0  0  0  0  0  0  0  0  0  0
  189.6510  177.6670  139.6470 N   0  0  0  0  0  0  0  0  0  0  0  0
  190.4130  178.1410  143.4480 C   0  0  0  0  0  3  0  0  0  0  0  0
  189.4180  178.6720  142.6140 C   0  0  0  0  0  3  0  0  0  0  0  0
  189.2460  176.0130  143.4620 C   0  0  0  0  0  3  0  0  0  0  0  0
  188.2520  176.5440  142.6430 C   0  0  0  0  0  3  0  0  0  0  0  0
  188.3480  177.8690  142.1940 C   0  0  0  0  0  0  0  0  0  0  0  0
  190.3360  176.7960  143.8610 C   0  0  0  0  0  0  0  0  0  0  0  0
  191.5980  176.7130  145.9790 C   0  0  0  0  0  1  0  0  0  0  0  0
  191.3200  176.2260  144.6720 O   0  0  0  0  0  0  0  0  0  0  0  0
  183.6410  179.1440  144.0580 C   0  0  0  0  0  3  0  0  0  0  0  0
  182.2280  178.8210  143.5760 C   0  0  0  0  0  1  0  0  0  0  0  0
  183.7360  178.8930  145.5740 C   0  0  0  0  0  1  0  0  0  0  0  0
  1  4  1  1  0  0  0
  3  1  1  0  0  0  0
  3 23  1  0  0  0  0
  5  4  1  0  0  0  0
  5 27  1  0  0  0  0
  6  2  1  6  0  0  0
  6  1  1  0  0  0  0
  6  5  1  0  0  0  0
  7  2  1  0  0  0  0
  8  7  2  0  0  0  0
  8  9  1  0  0  0  0
  9  3  2  0  0  0  0
 10 11  1  0  0  0  0
 11 17  1  0  0  0  0
 12 16  1  0  0  0  0
 12 14  2  0  0  0  0
 13 11  2  0  0  0  0
 13 12  1  0  0  0  0
 14 18  1  0  0  0  0
 15 18  2  0  0  0  0
 15  9  1  0  0  0  0
 16 15  1  0  0  0  0
 17 14  1  0  0  0  0
 19 24  1  0  0  0  0
 20 19  2  0  0  0  0
 21 24  2  0  0  0  0
 22 21  1  0  0  0  0
 23 20  1  0  0  0  0
 23 22  2  0  0  0  0
 24 26  1  0  0  0  0
 26 25  1  0  0  0  0
 27 29  1  0  0  0  0
 28 27  1  0  0  0  0
M  END
>  <MODEL>
1

>  <REMARK>
 VINA RESULT:      -7.4      0.000      0.000
  Name = 
  4 active torsions:
  status: ('A' for Active; 'I' for Inactive)
    1  A    between atoms: C_7  and  N_19
    2  A    between atoms: C_13  and  C_21
    3  A    between atoms: C_16  and  C_26
    4  A    between atoms: C_28  and  O_29
                            x       y       z     vdW  Elec       q    Type
                         _______ _______ _______ _____ _____    ______ ____

>  <TORSDO>
F 4

$$$$
=
 OpenBabel10222422113D

 29 33  0  0  1  0  0  0  0  0999 V2000
  189.0220  178.1020  139.1420 C   0  0  2  0  0  3  0  0  0  0  0  0
  190.3630  176.0180  138.3840 C   0  0  0  0  0  2  0  0  0  0  0  0
  189.4010  177.6680  140.5640 C   0  0  0  0  0  0  0  0  0  0  0  0
  187.5920  177.6830  138.8040 C   0  0  0  0  0  2  0  0  0  0  0  0
  188.0290  176.6670  137.8450 N   0  0  0  0  0  0  0  0  0  0  0  0
  189.4010  177.1390  138.0070 C   0  0  1  0  0  3  0  0  0  0  0  0
  191.6380  176.6550  138.7960 C   0  0  0  0  0  3  0  0  0  0  0  0
  191.7480  177.2650  139.9340 N   0  0  0  0  0  0  0  0  0  0  0  0
  190.6920  177.3820  140.9190 C   0  0  0  0  0  0  0  0  0  0  0  0
  192.2050  176.2180  147.9740 N   0  0  0  0  0  1  0  0  0  0  0  0
  191.9350  176.3840  146.5940 C   0  0  0  0  0  0  0  0  0  0  0  0
  191.5270  177.4310  144.7050 C   0  0  0  0  0  0  0  0  0  0  0  0
  191.6760  177.6010  146.0320 N   0  0  0  0  0  0  0  0  0  0  0  0
  191.6290  176.1760  144.2220 C   0  0  0  0  0  0  0  0  0  0  0  0
  191.1100  177.2040  142.3360 C   0  0  0  0  0  0  0  0  0  0  0  0
  191.1090  178.4850  143.4840 S   0  0  0  0  0  0  0  0  0  0  0  0
  191.9530  175.0900  145.4630 S   0  0  0  0  0  0  0  0  0  0  0  0
  191.3980  175.9950  142.9050 N   0  0  0  0  0  0  0  0  0  0  0  0
  187.3110  176.7770  143.5890 C   0  0  0  0  0  3  0  0  0  0  0  0
  188.2790  176.7070  142.5770 C   0  0  0  0  0  3  0  0  0  0  0  0
  186.4700  178.8390  142.6240 C   0  0  0  0  0  3  0  0  0  0  0  0
  187.4400  178.7750  141.6250 C   0  0  0  0  0  3  0  0  0  0  0  0
  188.3320  177.6950  141.5830 C   0  0  0  0  0  0  0  0  0  0  0  0
  186.3870  177.8410  143.6030 C   0  0  0  0  0  0  0  0  0  0  0  0
  185.5620  178.7110  145.7590 C   0  0  0  0  0  1  0  0  0  0  0  0
  185.3940  177.9310  144.5810 O   0  0  0  0  0  0  0  0  0  0  0  0
  187.5300  176.9340  136.4800 C   0  0  0  0  0  3  0  0  0  0  0  0
  187.9530  175.8220  135.5230 C   0  0  0  0  0  1  0  0  0  0  0  0
  186.0100  177.1510  136.3760 C   0  0  0  0  0  1  0  0  0  0  0  0
  1  4  1  1  0  0  0
  1  3  1  0  0  0  0
  2  7  1  0  0  0  0
  3  9  2  0  0  0  0
  3 23  1  0  0  0  0
  5  6  1  0  0  0  0
  5  4  1  0  0  0  0
  6  2  1  1  0  0  0
  6  1  1  0  0  0  0
  7  8  2  0  0  0  0
  8  9  1  0  0  0  0
  9 15  1  0  0  0  0
 11 10  1  0  0  0  0
 12 13  1  0  0  0  0
 13 11  2  0  0  0  0
 14 12  2  0  0  0  0
 14 17  1  0  0  0  0
 15 18  2  0  0  0  0
 15 16  1  0  0  0  0
 16 12  1  0  0  0  0
 17 11  1  0  0  0  0
 18 14  1  0  0  0  0
 19 24  1  0  0  0  0
 20 19  2  0  0  0  0
 21 24  2  0  0  0  0
 22 21  1  0  0  0  0
 23 22  2  0  0  0  0
 23 20  1  0  0  0  0
 24 26  1  0  0  0  0
 26 25  1  0  0  0  0
 27  5  1  0  0  0  0
 28 27  1  0  0  0  0
 29 27  1  0  0  0  0
M  END
>  <MODEL>
2

>  <REMARK>
 VINA RESULT:      -7.3      3.344      6.506
  Name = 
  4 active torsions:
  status: ('A' for Active; 'I' for Inactive)
    1  A    between atoms: C_7  and  N_19
    2  A    between atoms: C_13  and  C_21
    3  A    between atoms: C_16  and  C_26
    4  A    between atoms: C_28  and  O_29
                            x       y       z     vdW  Elec       q    Type
                         _______ _______ _______ _____ _____    ______ ____

>  <TORSDO>
F 4

$$$$
=
 OpenBabel10222422113D

 29 33  0  0  1  0  0  0  0  0999 V2000
  188.8120  176.5740  144.9350 C   0  0  2  0  0  3  0  0  0  0  0  0
  191.2410  177.3760  145.3500 C   0  0  0  0  0  2  0  0  0  0  0  0
  189.0820  176.9350  143.4680 C   0  0  0  0  0  0  0  0  0  0  0  0
  188.0070  177.6710  145.6300 C   0  0  0  0  0  2  0  0  0  0  0  0
  189.1390  178.0920  146.4570 N   0  0  0  0  0  0  0  0  0  0  0  0
  189.9030  176.9570  145.9470 C   0  0  1  0  0  3  0  0  0  0  0  0
  191.7820  176.2030  144.6200 C   0  0  0  0  0  3  0  0  0  0  0  0
  191.2820  175.8290  143.4850 N   0  0  0  0  0  0  0  0  0  0  0  0
  190.1900  176.4900  142.8000 C   0  0  0  0  0  0  0  0  0  0  0  0
  191.0060  176.5150  135.5360 N   0  0  0  0  0  1  0  0  0  0  0  0
  190.7850  176.4970  136.9350 C   0  0  0  0  0  0  0  0  0  0  0  0
  191.1480  176.9010  139.0660 C   0  0  0  0  0  0  0  0  0  0  0  0
  191.6770  177.0110  137.8320 N   0  0  0  0  0  0  0  0  0  0  0  0
  189.9360  176.3200  139.1730 C   0  0  0  0  0  0  0  0  0  0  0  0
  190.3410  176.6210  141.3250 C   0  0  0  0  0  0  0  0  0  0  0  0
  191.7590  177.2450  140.5770 S   0  0  0  0  0  0  0  0  0  0  0  0
  189.3550  175.8780  137.6600 S   0  0  0  0  0  0  0  0  0  0  0  0
  189.4430  176.1350  140.4160 N   0  0  0  0  0  0  0  0  0  0  0  0
  187.3550  179.2090  140.9860 C   0  0  0  0  0  3  0  0  0  0  0  0
  188.3630  178.5600  141.7140 C   0  0  0  0  0  3  0  0  0  0  0  0
  185.6770  178.0770  142.3240 C   0  0  0  0  0  3  0  0  0  0  0  0
  186.6780  177.4220  143.0400 C   0  0  0  0  0  3  0  0  0  0  0  0
  188.0260  177.6820  142.7540 C   0  0  0  0  0  0  0  0  0  0  0  0
  186.0010  178.9800  141.3050 C   0  0  0  0  0  0  0  0  0  0  0  0
  184.4950  179.1630  139.3590 C   0  0  0  0  0  1  0  0  0  0  0  0
  184.9720  179.6260  140.6170 O   0  0  0  0  0  0  0  0  0  0  0  0
  188.8620  177.9430  147.9010 C   0  0  0  0  0  3  0  0  0  0  0  0
  190.0210  178.4890  148.7320 C   0  0  0  0  0  1  0  0  0  0  0  0
  187.5440  178.5780  148.3790 C   0  0  0  0  0  1  0  0  0  0  0  0
  1  4  1  1  0  0  0
  1  6  1  0  0  0  0
  3  1  1  0  0  0  0
  4  5  1  0  0  0  0
  5 27  1  0  0  0  0
  6  2  1  6  0  0  0
  6  5  1  0  0  0  0
  7  2  1  0  0  0  0
  8  7  2  0  0  0  0
  9  3  2  0  0  0  0
  9  8  1  0  0  0  0
 10 11  1  0  0  0  0
 11 17  1  0  0  0  0
 11 13  2  0  0  0  0
 12 14  2  0  0  0  0
 12 16  1  0  0  0  0
 13 12  1  0  0  0  0
 14 18  1  0  0  0  0
 15  9  1  0  0  0  0
 16 15  1  0  0  0  0
 17 14  1  0  0  0  0
 18 15  2  0  0  0  0
 19 24  2  0  0  0  0
 19 20  1  0  0  0  0
 20 23  2  0  0  0  0
 21 22  2  0  0  0  0
 23 22  1  0  0  0  0
 23  3  1  0  0  0  0
 24 21  1  0  0  0  0
 25 26  1  0  0  0  0
 26 24  1  0  0  0  0
 27 29  1  0  0  0  0
 27 28  1  0  0  0  0
M  END
>  <MODEL>
3

>  <REMARK>
 VINA RESULT:      -6.3      2.756      5.218
  Name = 
  4 active torsions:
  status: ('A' for Active; 'I' for Inactive)
    1  A    between atoms: C_7  and  N_19
    2  A    between atoms: C_13  and  C_21
    3  A    between atoms: C_16  and  C_26
    4  A    between atoms: C_28  and  O_29
                            x       y       z     vdW  Elec       q    Type
                         _______ _______ _______ _____ _____    ______ ____

>  <TORSDO>
F 4

$$$$
=
 OpenBabel10222422113D

 29 33  0  0  1  0  0  0  0  0999 V2000
  189.6410  178.1970  146.0230 C   0  0  2  0  0  3  0  0  0  0  0  0
  188.4730  176.6350  147.7300 C   0  0  0  0  0  2  0  0  0  0  0  0
  188.3760  178.0020  145.1760 C   0  0  0  0  0  0  0  0  0  0  0  0
  190.7770  177.3060  145.5230 C   0  0  0  0  0  2  0  0  0  0  0  0
  190.7210  176.4360  146.6990 N   0  0  0  0  0  0  0  0  0  0  0  0
  189.7500  177.3460  147.2980 C   0  0  1  0  0  3  0  0  0  0  0  0
  187.4720  177.6850  148.0460 C   0  0  0  0  0  3  0  0  0  0  0  0
  186.8920  178.3650  147.1090 N   0  0  0  0  0  0  0  0  0  0  0  0
  187.1200  178.1840  145.6890 C   0  0  0  0  0  0  0  0  0  0  0  0
  181.4100  178.9770  141.1960 N   0  0  0  0  0  1  0  0  0  0  0  0
  182.5460  178.7900  142.0200 C   0  0  0  0  0  0  0  0  0  0  0  0
  183.7330  178.6740  143.8670 C   0  0  0  0  0  0  0  0  0  0  0  0
  182.5250  179.0000  143.3690 N   0  0  0  0  0  0  0  0  0  0  0  0
  184.6740  178.2570  142.9950 C   0  0  0  0  0  0  0  0  0  0  0  0
  185.9060  178.2430  144.8290 C   0  0  0  0  0  0  0  0  0  0  0  0
  184.3780  178.7920  145.3990 S   0  0  0  0  0  0  0  0  0  0  0  0
  184.0600  178.2300  141.4310 S   0  0  0  0  0  0  0  0  0  0  0  0
  185.9080  178.0100  143.4820 N   0  0  0  0  0  0  0  0  0  0  0  0
  188.9500  178.5440  141.4760 C   0  0  0  0  0  3  0  0  0  0  0  0
  188.6930  178.7980  142.8310 C   0  0  0  0  0  3  0  0  0  0  0  0
  188.9820  176.1630  141.9420 C   0  0  0  0  0  3  0  0  0  0  0  0
  188.7370  176.4160  143.2910 C   0  0  0  0  0  3  0  0  0  0  0  0
  188.5660  177.7340  143.7350 C   0  0  0  0  0  0  0  0  0  0  0  0
  189.0780  177.2150  141.0240 C   0  0  0  0  0  0  0  0  0  0  0  0
  190.5960  176.5420  139.1990 C   0  0  0  0  0  1  0  0  0  0  0  0
  189.3120  176.9220  139.6780 O   0  0  0  0  0  0  0  0  0  0  0  0
  191.9910  176.4370  147.4560 C   0  0  0  0  0  3  0  0  0  0  0  0
  191.8750  177.3120  148.7020 C   0  0  0  0  0  1  0  0  0  0  0  0
  192.5110  175.0440  147.8540 C   0  0  0  0  0  1  0  0  0  0  0  0
  1  4  1  6  0  0  0
  1  6  1  0  0  0  0
  2  7  1  0  0  0  0
  3  9  2  0  0  0  0
  3  1  1  0  0  0  0
  4  5  1  0  0  0  0
  5  6  1  0  0  0  0
  5 27  1  0  0  0  0
  6  2  1  6  0  0  0
  8  7  2  0  0  0  0
  9  8  1  0  0  0  0
 10 11  1  0  0  0  0
 11 13  2  0  0  0  0
 12 16  1  0  0  0  0
 13 12  1  0  0  0  0
 14 18  1  0  0  0  0
 14 12  2  0  0  0  0
 15 16  1  0  0  0  0
 15  9  1  0  0  0  0
 17 11  1  0  0  0  0
 17 14  1  0  0  0  0
 18 15  2  0  0  0  0
 19 20  1  0  0  0  0
 20 23  2  0  0  0  0
 21 22  2  0  0  0  0
 22 23  1  0  0  0  0
 23  3  1  0  0  0  0
 24 19  2  0  0  0  0
 24 21  1  0  0  0  0
 25 26  1  0  0  0  0
 26 24  1  0  0  0  0
 27 29  1  0  0  0  0
 27 28  1  0  0  0  0
M  END
>  <MODEL>
4

>  <REMARK>
 VINA RESULT:      -6.2      3.836      7.383
  Name = 
  4 active torsions:
  status: ('A' for Active; 'I' for Inactive)
    1  A    between atoms: C_7  and  N_19
    2  A    between atoms: C_13  and  C_21
    3  A    between atoms: C_16  and  C_26
    4  A    between atoms: C_28  and  O_29
                            x       y       z     vdW  Elec       q    Type
                         _______ _______ _______ _____ _____    ______ ____

>  <TORSDO>
F 4

$$$$
=
 OpenBabel10222422113D

 29 33  0  0  1  0  0  0  0  0999 V2000
  188.8540  178.5420  141.8720 C   0  0  2  0  0  3  0  0  0  0  0  0
  187.3460  177.0360  143.3450 C   0  0  0  0  0  2  0  0  0  0  0  0
  187.7470  178.3990  140.8190 C   0  0  0  0  0  0  0  0  0  0  0  0
  190.0210  177.6030  141.5710 C   0  0  0  0  0  2  0  0  0  0  0  0
  189.7270  176.7390  142.7160 N   0  0  0  0  0  0  0  0  0  0  0  0
  188.7060  177.6910  143.1420 C   0  0  1  0  0  3  0  0  0  0  0  0
  186.3500  178.1280  143.4890 C   0  0  0  0  0  3  0  0  0  0  0  0
  185.9700  178.8300  142.4690 N   0  0  0  0  0  0  0  0  0  0  0  0
  186.4300  178.6350  141.1090 C   0  0  0  0  0  0  0  0  0  0  0  0
  180.8790  179.0730  136.3740 N   0  0  0  0  0  1  0  0  0  0  0  0
  181.9470  179.0520  137.3050 C   0  0  0  0  0  0  0  0  0  0  0  0
  183.7760  178.3440  138.2990 C   0  0  0  0  0  0  0  0  0  0  0  0
  182.8600  178.0370  137.3600 N   0  0  0  0  0  0  0  0  0  0  0  0
  183.6120  179.4990  138.9750 C   0  0  0  0  0  0  0  0  0  0  0  0
  185.3860  178.7440  140.0540 C   0  0  0  0  0  0  0  0  0  0  0  0
  185.0730  177.4960  138.9110 S   0  0  0  0  0  0  0  0  0  0  0  0
  182.2470  180.3140  138.4310 S   0  0  0  0  0  0  0  0  0  0  0  0
  184.4830  179.7660  139.9710 N   0  0  0  0  0  0  0  0  0  0  0  0
  189.0800  178.8870  137.3120 C   0  0  0  0  0  3  0  0  0  0  0  0
  188.6060  179.1630  138.6020 C   0  0  0  0  0  3  0  0  0  0  0  0
  188.7090  176.5200  137.6960 C   0  0  0  0  0  3  0  0  0  0  0  0
  188.2480  176.7940  138.9830 C   0  0  0  0  0  3  0  0  0  0  0  0
  188.1700  178.1200  139.4310 C   0  0  0  0  0  0  0  0  0  0  0  0
  189.1160  177.5570  136.8480 C   0  0  0  0  0  0  0  0  0  0  0  0
  190.4390  176.1570  135.3070 C   0  0  0  0  0  1  0  0  0  0  0  0
  189.5600  177.2460  135.5610 O   0  0  0  0  0  0  0  0  0  0  0  0
  190.8460  176.6880  143.6800 C   0  0  0  0  0  3  0  0  0  0  0  0
  190.3650  177.0430  145.0850 C   0  0  0  0  0  1  0  0  0  0  0  0
  191.6090  175.3520  143.7200 C   0  0  0  0  0  1  0  0  0  0  0  0
  1  4  1  6  0  0  0
  1  6  1  0  0  0  0
  2  7  1  0  0  0  0
  3  9  2  0  0  0  0
  3  1  1  0  0  0  0
  4  5  1  0  0  0  0
  5  6  1  0  0  0  0
  5 27  1  0  0  0  0
  6  2  1  6  0  0  0
  8  7  2  0  0  0  0
  9  8  1  0  0  0  0
 10 11  1  0  0  0  0
 11 13  2  0  0  0  0
 11 17  1  0  0  0  0
 12 16  1  0  0  0  0
 12 14  2  0  0  0  0
 13 12  1  0  0  0  0
 14 18  1  0  0  0  0
 15  9  1  0  0  0  0
 16 15  1  0  0  0  0
 17 14  1  0  0  0  0
 18 15  2  0  0  0  0
 19 20  1  0  0  0  0
 20 23  2  0  0  0  0
 21 22  2  0  0  0  0
 22 23  1  0  0  0  0
 23  3  1  0  0  0  0
 24 19  2  0  0  0  0
 24 21  1  0  0  0  0
 25 26  1  0  0  0  0
 26 24  1  0  0  0  0
 27 29  1  0  0  0  0
 27 28  1  0  0  0  0
M  END
>  <MODEL>
5

>  <REMARK>
 VINA RESULT:      -5.7      3.347      6.630
  Name = 
  4 active torsions:
  status: ('A' for Active; 'I' for Inactive)
    1  A    between atoms: C_7  and  N_19
    2  A    between atoms: C_13  and  C_21
    3  A    between atoms: C_16  and  C_26
    4  A    between atoms: C_28  and  O_29
                            x       y       z     vdW  Elec       q    Type
                         _______ _______ _______ _____ _____    ______ ____

>  <TORSDO>
F 4

$$$$
=
 OpenBabel10222422113D

 29 33  0  0  1  0  0  0  0  0999 V2000
  188.6850  178.5570  139.2140 C   0  0  2  0  0  3  0  0  0  0  0  0
  187.3790  177.0150  137.5910 C   0  0  0  0  0  2  0  0  0  0  0  0
  189.7440  177.4460  139.2110 C   0  0  0  0  0  0  0  0  0  0  0  0
  187.8170  178.4830  140.4690 C   0  0  0  0  0  2  0  0  0  0  0  0
  186.6360  178.0400  139.7250 N   0  0  0  0  0  0  0  0  0  0  0  0
  187.3700  178.2520  138.4810 C   0  0  1  0  0  3  0  0  0  0  0  0
  188.3770  177.2540  136.5180 C   0  0  0  0  0  3  0  0  0  0  0  0
  189.6480  177.2100  136.7610 N   0  0  0  0  0  0  0  0  0  0  0  0
  190.2380  176.9140  138.0510 C   0  0  0  0  0  0  0  0  0  0  0  0
  196.3020  172.8790  137.4400 N   0  0  0  0  0  1  0  0  0  0  0  0
  195.1610  173.7030  137.5950 C   0  0  0  0  0  0  0  0  0  0  0  0
  193.0350  174.2640  137.6210 C   0  0  0  0  0  0  0  0  0  0  0  0
  193.8960  173.2760  137.3080 N   0  0  0  0  0  0  0  0  0  0  0  0
  193.5530  175.4130  138.0990 C   0  0  0  0  0  0  0  0  0  0  0  0
  191.4310  176.0240  138.0240 C   0  0  0  0  0  0  0  0  0  0  0  0
  191.3870  174.4120  137.4240 S   0  0  0  0  0  0  0  0  0  0  0  0
  195.2270  175.3070  138.2080 S   0  0  0  0  0  0  0  0  0  0  0  0
  192.6990  176.4300  138.3350 N   0  0  0  0  0  0  0  0  0  0  0  0
  191.9850  177.3500  142.2570 C   0  0  0  0  0  3  0  0  0  0  0  0
  191.4880  177.6640  140.9840 C   0  0  0  0  0  3  0  0  0  0  0  0
  190.1140  175.8440  142.6020 C   0  0  0  0  0  3  0  0  0  0  0  0
  189.6130  176.1650  141.3410 C   0  0  0  0  0  3  0  0  0  0  0  0
  190.3140  177.0570  140.5170 C   0  0  0  0  0  0  0  0  0  0  0  0
  191.3030  176.4190  143.0660 C   0  0  0  0  0  0  0  0  0  0  0  0
  191.4210  176.7840  145.5030 C   0  0  0  0  0  1  0  0  0  0  0  0
  191.7800  176.0650  144.3300 O   0  0  0  0  0  0  0  0  0  0  0  0
  185.5100  178.9890  139.8490 C   0  0  0  0  0  3  0  0  0  0  0  0
  184.3710  178.6000  138.9090 C   0  0  0  0  0  1  0  0  0  0  0  0
  184.9610  179.1630  141.2760 C   0  0  0  0  0  1  0  0  0  0  0  0
  1  4  1  1  0  0  0
  3  1  1  0  0  0  0
  3 23  1  0  0  0  0
  5 27  1  0  0  0  0
  5  4  1  0  0  0  0
  6  2  1  6  0  0  0
  6  1  1  0  0  0  0
  6  5  1  0  0  0  0
  7  8  2  0  0  0  0
  7  2  1  0  0  0  0
  8  9  1  0  0  0  0
  9  3  2  0  0  0  0
 10 11  1  0  0  0  0
 11 17  1  0  0  0  0
 12 14  2  0  0  0  0
 13 11  2  0  0  0  0
 13 12  1  0  0  0  0
 14 17  1  0  0  0  0
 14 18  1  0  0  0  0
 15  9  1  0  0  0  0
 15 18  2  0  0  0  0
 16 12  1  0  0  0  0
 16 15  1  0  0  0  0
 19 24  1  0  0  0  0
 20 19  2  0  0  0  0
 21 24  2  0  0  0  0
 22 21  1  0  0  0  0
 23 20  1  0  0  0  0
 23 22  2  0  0  0  0
 24 26  1  0  0  0  0
 26 25  1  0  0  0  0
 27 29  1  0  0  0  0
 28 27  1  0  0  0  0
M  END
>  <MODEL>
6

>  <REMARK>
 VINA RESULT:      -5.7      2.189      3.670
  Name = 
  4 active torsions:
  status: ('A' for Active; 'I' for Inactive)
    1  A    between atoms: C_7  and  N_19
    2  A    between atoms: C_13  and  C_21
    3  A    between atoms: C_16  and  C_26
    4  A    between atoms: C_28  and  O_29
                            x       y       z     vdW  Elec       q    Type
                         _______ _______ _______ _____ _____    ______ ____

>  <TORSDO>
F 4

$$$$
=
 OpenBabel10222422113D

 29 33  0  0  1  0  0  0  0  0999 V2000
  192.5510  174.3820  135.5720 C   0  0  2  0  0  3  0  0  0  0  0  0
  193.9990  173.8680  137.6590 C   0  0  0  0  0  2  0  0  0  0  0  0
  191.5390  174.9510  136.5760 C   0  0  0  0  0  0  0  0  0  0  0  0
  192.1500  172.9760  135.1270 C   0  0  0  0  0  2  0  0  0  0  0  0
  193.2560  172.3440  135.8480 N   0  0  0  0  0  0  0  0  0  0  0  0
  193.7770  173.6700  136.1650 C   0  0  1  0  0  3  0  0  0  0  0  0
  194.2450  175.3150  137.8780 C   0  0  0  0  0  3  0  0  0  0  0  0
  193.2830  176.1790  137.8070 N   0  0  0  0  0  0  0  0  0  0  0  0
  191.8960  175.8570  137.5370 C   0  0  0  0  0  0  0  0  0  0  0  0
  186.6590  178.9680  141.5760 N   0  0  0  0  0  1  0  0  0  0  0  0
  187.7030  178.3480  140.8490 C   0  0  0  0  0  0  0  0  0  0  0  0
  189.0170  177.8960  139.1440 C   0  0  0  0  0  0  0  0  0  0  0  0
  187.9190  178.5790  139.5200 N   0  0  0  0  0  0  0  0  0  0  0  0
  189.6340  177.1460  140.0800 C   0  0  0  0  0  0  0  0  0  0  0  0
  190.8930  176.6000  138.3480 C   0  0  0  0  0  0  0  0  0  0  0  0
  189.7450  177.6810  137.6610 S   0  0  0  0  0  0  0  0  0  0  0  0
  188.8460  177.2790  141.5580 S   0  0  0  0  0  0  0  0  0  0  0  0
  190.6850  176.3980  139.6840 N   0  0  0  0  0  0  0  0  0  0  0  0
  188.0610  174.7300  135.1040 C   0  0  0  0  0  3  0  0  0  0  0  0
  189.3820  175.1400  135.3320 C   0  0  0  0  0  3  0  0  0  0  0  0
  188.2330  173.1830  136.9650 C   0  0  0  0  0  3  0  0  0  0  0  0
  189.5510  173.5820  137.1840 C   0  0  0  0  0  3  0  0  0  0  0  0
  190.1210  174.5810  136.3840 C   0  0  0  0  0  0  0  0  0  0  0  0
  187.4750  173.7570  135.9380 C   0  0  0  0  0  0  0  0  0  0  0  0
  185.3710  172.8200  136.8230 C   0  0  0  0  0  1  0  0  0  0  0  0
  186.1540  173.3410  135.7550 O   0  0  0  0  0  0  0  0  0  0  0  0
  194.1680  171.6140  134.9430 C   0  0  0  0  0  3  0  0  0  0  0  0
  195.5060  171.3440  135.6280 C   0  0  0  0  0  1  0  0  0  0  0  0
  193.6060  170.2970  134.3780 C   0  0  0  0  0  1  0  0  0  0  0  0
  1  4  1  6  0  0  0
  1  6  1  0  0  0  0
  1  3  1  0  0  0  0
  2  7  1  0  0  0  0
  3  9  2  0  0  0  0
  4  5  1  0  0  0  0
  5  6  1  0  0  0  0
  6  2  1  1  0  0  0
  8  7  2  0  0  0  0
  9  8  1  0  0  0  0
  9 15  1  0  0  0  0
 11 17  1  0  0  0  0
 11 10  1  0  0  0  0
 12 13  1  0  0  0  0
 12 14  2  0  0  0  0
 13 11  2  0  0  0  0
 14 17  1  0  0  0  0
 15 18  2  0  0  0  0
 16 15  1  0  0  0  0
 16 12  1  0  0  0  0
 18 14  1  0  0  0  0
 19 20  2  0  0  0  0
 19 24  1  0  0  0  0
 20 23  1  0  0  0  0
 21 22  1  0  0  0  0
 23  3  1  0  0  0  0
 23 22  2  0  0  0  0
 24 21  2  0  0  0  0
 26 24  1  0  0  0  0
 26 25  1  0  0  0  0
 27 28  1  0  0  0  0
 27  5  1  0  0  0  0
 29 27  1  0  0  0  0
M  END
>  <MODEL>
7

>  <REMARK>
 VINA RESULT:      -5.7      3.809      9.416
  Name = 
  4 active torsions:
  status: ('A' for Active; 'I' for Inactive)
    1  A    between atoms: C_7  and  N_19
    2  A    between atoms: C_13  and  C_21
    3  A    between atoms: C_16  and  C_26
    4  A    between atoms: C_28  and  O_29
                            x       y       z     vdW  Elec       q    Type
                         _______ _______ _______ _____ _____    ______ ____

>  <TORSDO>
F 4

$$$$
=
 OpenBabel10222422113D

 29 33  0  0  1  0  0  0  0  0999 V2000
  189.6420  178.2680  138.6630 C   0  0  2  0  0  3  0  0  0  0  0  0
  189.9350  176.9890  140.8980 C   0  0  0  0  0  2  0  0  0  0  0  0
  188.1380  178.0820  138.9040 C   0  0  0  0  0  0  0  0  0  0  0  0
  190.1660  177.2450  137.6560 C   0  0  0  0  0  2  0  0  0  0  0  0
  190.9220  176.5100  138.6720 N   0  0  0  0  0  0  0  0  0  0  0  0
  190.5860  177.5500  139.6400 C   0  0  1  0  0  3  0  0  0  0  0  0
  189.3870  178.1390  141.6590 C   0  0  0  0  0  3  0  0  0  0  0  0
  188.3210  178.7590  141.2660 N   0  0  0  0  0  0  0  0  0  0  0  0
  187.5440  178.4130  140.0920 C   0  0  0  0  0  0  0  0  0  0  0  0
  180.3390  179.3340  140.9100 N   0  0  0  0  0  1  0  0  0  0  0  0
  181.7270  179.1630  140.6870 C   0  0  0  0  0  0  0  0  0  0  0  0
  183.8010  178.5540  141.0930 C   0  0  0  0  0  0  0  0  0  0  0  0
  182.5700  178.6490  141.6310 N   0  0  0  0  0  0  0  0  0  0  0  0
  183.9590  178.9790  139.8220 C   0  0  0  0  0  0  0  0  0  0  0  0
  186.0660  178.4740  140.2570 C   0  0  0  0  0  0  0  0  0  0  0  0
  185.2700  178.1050  141.7370 S   0  0  0  0  0  0  0  0  0  0  0  0
  182.5000  179.5280  139.1960 S   0  0  0  0  0  0  0  0  0  0  0  0
  185.2080  178.9610  139.3110 N   0  0  0  0  0  0  0  0  0  0  0  0
  186.4370  178.0620  135.5250 C   0  0  0  0  0  3  0  0  0  0  0  0
  187.1480  178.5010  136.6510 C   0  0  0  0  0  3  0  0  0  0  0  0
  186.0980  175.9110  136.5960 C   0  0  0  0  0  3  0  0  0  0  0  0
  186.8150  176.3440  137.7100 C   0  0  0  0  0  3  0  0  0  0  0  0
  187.3200  177.6510  137.7520 C   0  0  0  0  0  0  0  0  0  0  0  0
  185.8920  176.7620  135.5040 C   0  0  0  0  0  0  0  0  0  0  0  0
  184.1890  175.2630  134.5330 C   0  0  0  0  0  1  0  0  0  0  0  0
  185.1580  176.2970  134.4100 O   0  0  0  0  0  0  0  0  0  0  0  0
  192.3720  176.4940  138.3870 C   0  0  0  0  0  3  0  0  0  0  0  0
  193.1690  176.9120  139.6200 C   0  0  0  0  0  1  0  0  0  0  0  0
  192.9140  175.1550  137.8550 C   0  0  0  0  0  1  0  0  0  0  0  0
  1  4  1  6  0  0  0
  1  3  1  0  0  0  0
  1  6  1  0  0  0  0
  2  7  1  0  0  0  0
  3  9  2  0  0  0  0
  4  5  1  0  0  0  0
  5  6  1  0  0  0  0
  6  2  1  1  0  0  0
  8  7  2  0  0  0  0
  9 15  1  0  0  0  0
  9  8  1  0  0  0  0
 11 10  1  0  0  0  0
 11 13  2  0  0  0  0
 12 13  1  0  0  0  0
 12 16  1  0  0  0  0
 14 12  2  0  0  0  0
 15 16  1  0  0  0  0
 17 14  1  0  0  0  0
 17 11  1  0  0  0  0
 18 14  1  0  0  0  0
 18 15  2  0  0  0  0
 19 20  1  0  0  0  0
 20 23  2  0  0  0  0
 21 22  2  0  0  0  0
 22 23  1  0  0  0  0
 23  3  1  0  0  0  0
 24 19  2  0  0  0  0
 24 21  1  0  0  0  0
 26 25  1  0  0  0  0
 26 24  1  0  0  0  0
 27  5  1  0  0  0  0
 27 28  1  0  0  0  0
 29 27  1  0  0  0  0
M  END
>  <MODEL>
8

>  <REMARK>
 VINA RESULT:      -5.5      3.695      8.254
  Name = 
  4 active torsions:
  status: ('A' for Active; 'I' for Inactive)
    1  A    between atoms: C_7  and  N_19
    2  A    between atoms: C_13  and  C_21
    3  A    between atoms: C_16  and  C_26
    4  A    between atoms: C_28  and  O_29
                            x       y       z     vdW  Elec       q    Type
                         _______ _______ _______ _____ _____    ______ ____

>  <TORSDO>
F 4

$$$$
=
 OpenBabel10222422113D

 29 33  0  0  1  0  0  0  0  0999 V2000
  188.6710  176.5160  144.1840 C   0  0  2  0  0  3  0  0  0  0  0  0
  190.9980  177.6360  143.9620 C   0  0  0  0  0  2  0  0  0  0  0  0
  188.3950  177.1150  142.7980 C   0  0  0  0  0  0  0  0  0  0  0  0
  188.0310  177.3610  145.2840 C   0  0  0  0  0  2  0  0  0  0  0  0
  189.3210  177.8420  145.7800 N   0  0  0  0  0  0  0  0  0  0  0  0
  189.9890  176.9280  144.8580 C   0  0  1  0  0  3  0  0  0  0  0  0
  191.3870  176.6790  142.8970 C   0  0  0  0  0  3  0  0  0  0  0  0
  190.5810  176.3890  141.9260 N   0  0  0  0  0  0  0  0  0  0  0  0
  189.2580  176.9530  141.7480 C   0  0  0  0  0  0  0  0  0  0  0  0
  187.8930  178.2940  134.6940 N   0  0  0  0  0  1  0  0  0  0  0  0
  188.1160  177.9840  136.0580 C   0  0  0  0  0  0  0  0  0  0  0  0
  188.7100  178.2930  138.1520 C   0  0  0  0  0  0  0  0  0  0  0  0
  188.7020  178.8570  136.9290 N   0  0  0  0  0  0  0  0  0  0  0  0
  188.1990  177.0510  138.2680 C   0  0  0  0  0  0  0  0  0  0  0  0
  188.8920  177.3090  140.3500 C   0  0  0  0  0  0  0  0  0  0  0  0
  189.3570  178.7890  139.6060 S   0  0  0  0  0  0  0  0  0  0  0  0
  187.6330  176.5030  136.7830 S   0  0  0  0  0  0  0  0  0  0  0  0
  188.2820  176.4540  139.4750 N   0  0  0  0  0  0  0  0  0  0  0  0
  185.6120  179.1630  141.2570 C   0  0  0  0  0  3  0  0  0  0  0  0
  186.8760  178.6020  141.4880 C   0  0  0  0  0  3  0  0  0  0  0  0
  184.7670  178.0380  143.2340 C   0  0  0  0  0  3  0  0  0  0  0  0
  186.0210  177.4710  143.4570 C   0  0  0  0  0  3  0  0  0  0  0  0
  187.0870  177.7730  142.5980 C   0  0  0  0  0  0  0  0  0  0  0  0
  184.5530  178.8940  142.1470 C   0  0  0  0  0  0  0  0  0  0  0  0
  182.2230  178.7330  141.3510 C   0  0  0  0  0  1  0  0  0  0  0  0
  183.2860  179.4540  141.9630 O   0  0  0  0  0  0  0  0  0  0  0  0
  189.5600  177.4520  147.1850 C   0  0  0  0  0  3  0  0  0  0  0  0
  191.0530  177.2610  147.4460 C   0  0  0  0  0  1  0  0  0  0  0  0
  188.9750  178.4130  148.2340 C   0  0  0  0  0  1  0  0  0  0  0  0
  1  6  1  0  0  0  0
  1  4  1  1  0  0  0
  3  1  1  0  0  0  0
  4  5  1  0  0  0  0
  5 27  1  0  0  0  0
  6  2  1  6  0  0  0
  6  5  1  0  0  0  0
  7  2  1  0  0  0  0
  8  7  2  0  0  0  0
  9  8  1  0  0  0  0
  9  3  2  0  0  0  0
 10 11  1  0  0  0  0
 11 17  1  0  0  0  0
 11 13  2  0  0  0  0
 12 14  2  0  0  0  0
 12 16  1  0  0  0  0
 13 12  1  0  0  0  0
 14 18  1  0  0  0  0
 15  9  1  0  0  0  0
 16 15  1  0  0  0  0
 17 14  1  0  0  0  0
 18 15  2  0  0  0  0
 19 20  2  0  0  0  0
 19 24  1  0  0  0  0
 20 23  1  0  0  0  0
 21 22  1  0  0  0  0
 23  3  1  0  0  0  0
 23 22  2  0  0  0  0
 24 21  2  0  0  0  0
 25 26  1  0  0  0  0
 26 24  1  0  0  0  0
 27 28  1  0  0  0  0
 27 29  1  0  0  0  0
M  END
>  <MODEL>
9

>  <REMARK>
 VINA RESULT:      -5.4      2.881      5.405
  Name = 
  4 active torsions:
  status: ('A' for Active; 'I' for Inactive)
    1  A    between atoms: C_7  and  N_19
    2  A    between atoms: C_13  and  C_21
    3  A    between atoms: C_16  and  C_26
    4  A    between atoms: C_28  and  O_29
                            x       y       z     vdW  Elec       q    Type
                         _______ _______ _______ _____ _____    ______ ____

>  <TORSDO>
F 4

$$$$
