=
 OpenBabel10232409533D

 59 63  0  0  1  0  0  0  0  0999 V2000
  188.4570  178.4320  137.7980 C   0  0  0  0  0  2  0  0  0  0  0  0
  189.8080  176.3950  137.4400 C   0  0  0  0  0  2  0  0  0  0  0  0
  186.1160  175.5990  136.7140 C   0  0  0  0  0  3  0  0  0  0  0  0
  187.2570  172.2720  136.2600 N   0  0  0  0  0  0  0  0  0  0  0  0
  187.4310  173.5820  136.5330 C   0  0  0  0  0  0  0  0  0  0  0  0
  189.7030  177.8790  137.1310 C   0  0  0  0  0  2  0  0  0  0  0  0
  188.5500  175.6420  137.0810 C   0  0  0  0  0  0  0  0  0  0  0  0
  187.2870  176.3190  137.0400 C   0  0  1  0  0  3  0  0  0  0  0  0
  186.2340  174.2340  136.4830 C   0  0  0  0  0  0  0  0  0  0  0  0
  188.6180  174.2450  136.8380 C   0  0  0  0  0  0  0  0  0  0  0  0
  185.3150  173.2620  136.1700 C   0  0  0  0  0  0  0  0  0  0  0  0
  185.9590  172.0780  136.0420 N   0  0  0  0  0  0  0  0  0  0  0  0
  187.2110  177.8270  137.1570 C   0  0  1  0  0  3  0  0  0  0  0  0
  182.7050  173.5850  135.8920 C   0  0  0  0  0  0  0  0  0  0  0  0
  181.2630  173.7670  135.7480 C   0  0  0  0  0  1  0  0  0  0  0  0
  183.8940  173.4360  136.0160 C   0  0  0  0  0  0  0  0  0  0  0  0
  189.8900  173.5130  136.8590 C   0  0  0  0  0  3  0  0  0  0  0  0
  190.6850  173.5060  135.7960 C   0  0  0  0  0  3  0  0  0  0  0  0
  191.9370  172.7400  135.7530 C   0  0  0  0  0  0  0  0  0  0  0  0
  193.1080  173.3330  136.2290 C   0  0  0  0  0  3  0  0  0  0  0  0
  193.2040  170.7640  135.1490 C   0  0  0  0  0  3  0  0  0  0  0  0
  194.3360  172.6540  136.1730 C   0  0  0  0  0  0  0  0  0  0  0  0
  191.9900  171.4460  135.2170 C   0  0  0  0  0  3  0  0  0  0  0  0
  194.3850  171.3660  135.6120 C   0  0  0  0  0  0  0  0  0  0  0  0
  195.6890  170.6270  135.5540 C   0  0  0  0  0  3  0  0  0  0  0  0
  196.7040  171.3790  134.7230 C   0  0  0  0  0  1  0  0  0  0  0  0
  195.4830  169.2350  134.9790 C   0  0  0  0  0  1  0  0  0  0  0  0
  195.5140  173.2330  136.6750 O   0  0  0  0  0  0  0  0  0  0  0  0
  195.3200  175.3670  135.5110 C   0  0  0  0  0  2  0  0  0  0  0  0
  199.4590  174.8830  136.1070 O   0  0  0  0  0  1  0  0  0  0  0  0
  198.1260  175.0740  135.9560 N   0  0  0  0  0  0  0  0  0  0  0  0
  197.7170  174.5270  138.2560 C   0  0  0  0  0  2  0  0  0  0  0  0
  195.0270  175.1480  137.8540 F   0  0  0  0  0  0  0  0  0  0  0  0
  196.2740  175.0920  134.3530 C   0  0  0  0  0  2  0  0  0  0  0  0
  195.7540  174.6380  136.7910 C   0  0  1  0  0  0  0  0  0  0  0  0
  197.6400  175.6590  134.7090 C   0  0  0  0  0  2  0  0  0  0  0  0
  197.2260  174.8460  137.0570 C   0  0  0  0  0  0  0  0  0  0  0  0
  185.9720  178.2970  137.9090 C   0  0  0  0  0  2  0  0  0  0  0  0
  184.2160  178.2990  140.1530 O   0  0  0  0  0  0  0  0  0  0  0  0
  185.4050  178.6780  140.3380 C   0  0  0  0  0  0  0  0  0  0  0  0
  186.3410  178.6650  139.2620 N   0  0  0  0  0  2  0  0  0  0  0  0
  185.8280  179.0970  141.6020 O   0  0  0  0  0  0  0  0  0  0  0  0
  186.1220  178.1890  142.6610 C   0  0  1  0  0  3  0  0  0  0  0  0
  187.6260  177.9140  142.6980 C   0  0  0  0  0  2  0  0  0  0  0  0
  187.9360  176.4900  143.0570 C   0  0  0  0  0  3  0  0  0  0  0  0
  189.1620  175.9880  143.0340 C   0  0  0  0  0  3  0  0  0  0  0  0
  190.2510  176.7650  142.6740 O   0  0  0  0  0  1  0  0  0  0  0  0
  185.6010  178.7770  143.9810 C   0  0  1  0  0  3  0  0  0  0  0  0
  184.0050  180.5480  144.2160 O   0  0  0  0  0  0  0  0  0  0  0  0
  183.1880  178.5810  143.2460 N   0  0  0  0  0  2  0  0  0  0  0  0
  184.2270  179.3630  143.8440 C   0  0  0  0  0  0  0  0  0  0  0  0
  181.8080  179.0200  143.0900 C   0  0  0  0  0  3  0  0  0  0  0  0
  181.2620  178.6250  141.7280 C   0  0  0  0  0  1  0  0  0  0  0  0
  180.9290  178.4600  144.1940 C   0  0  0  0  0  1  0  0  0  0  0  0
  185.6450  177.8060  145.0230 O   0  0  0  0  0  0  0  0  0  0  0  0
  186.3010  178.0400  146.2350 C   0  0  0  0  0  0  0  0  0  0  0  0
  185.6350  178.6090  147.2270 C   0  0  0  0  0  2  0  0  0  0  0  0
  187.7440  177.7030  146.4300 C   0  0  0  0  0  2  0  0  0  0  0  0
  188.0330  177.4850  147.9060 C   0  0  0  0  0  1  0  0  0  0  0  0
  4  5  2  0  0  0  0
  5 10  1  0  0  0  0
  6  2  1  0  0  0  0
  6  1  1  0  0  0  0
  7  2  1  0  0  0  0
  8  3  1  6  0  0  0
  8  7  1  0  0  0  0
  8 13  1  0  0  0  0
  9  5  1  0  0  0  0
  9  3  2  0  0  0  0
 10 17  1  0  0  0  0
 10  7  2  0  0  0  0
 11  9  1  0  0  0  0
 12 11  2  0  0  0  0
 12  4  1  0  0  0  0
 13  1  1  0  0  0  0
 13 38  1  1  0  0  0
 14 16  3  0  0  0  0
 15 14  1  0  0  0  0
 16 11  1  0  0  0  0
 18 17  2  0  0  0  0
 19 18  1  0  0  0  0
 19 20  1  0  0  0  0
 21 23  1  0  0  0  0
 21 24  2  0  0  0  0
 22 20  2  0  0  0  0
 22 28  1  0  0  0  0
 23 19  2  0  0  0  0
 24 22  1  0  0  0  0
 25 24  1  0  0  0  0
 26 25  1  0  0  0  0
 27 25  1  0  0  0  0
 28 35  1  0  0  0  0
 29 35  1  0  0  0  0
 31 30  1  0  0  0  0
 31 37  1  0  0  0  0
 34 36  1  0  0  0  0
 34 29  1  0  0  0  0
 35 37  1  0  0  0  0
 35 33  1  1  0  0  0
 36 31  1  0  0  0  0
 37 32  2  0  0  0  0
 38 41  1  0  0  0  0
 39 40  2  0  0  0  0
 40 42  1  0  0  0  0
 41 40  1  0  0  0  0
 42 43  1  0  0  0  0
 43 44  1  1  0  0  0
 43 48  1  0  0  0  0
 44 45  1  0  0  0  0
 46 45  2  0  0  0  0
 47 46  1  0  0  0  0
 48 51  1  6  0  0  0
 48 55  1  0  0  0  0
 50 51  1  0  0  0  0
 51 49  2  0  0  0  0
 52 50  1  0  0  0  0
 52 54  1  0  0  0  0
 53 52  1  0  0  0  0
 55 56  1  0  0  0  0
 56 58  1  0  0  0  0
 56 57  2  0  0  0  0
 58 59  1  0  0  0  0
M  END
>  <MODEL>
1

>  <REMARK>
 VINA RESULT:      -7.4      0.000      0.000
  Name = 
  18 active torsions:
  status: ('A' for Active; 'I' for Inactive)
    1  A    between atoms: O_1  and  C_3
    2  A    between atoms: O_1  and  C_22
    3  A    between atoms: C_2  and  N_34
    4  A    between atoms: C_3  and  C_4
    5  A    between atoms: C_5  and  C_35
    6  A    between atoms: C_5  and  C_49
    7  A    between atoms: C_7  and  C_39
    8  A    between atoms: O_15  and  C_25
    9  A    between atoms: O_15  and  C_40
   10  A    between atoms: C_19  and  O_45
   11  A    between atoms: C_22  and  C_38
   12  A    between atoms: C_22  and  C_49
   13  A    between atoms: C_23  and  C_55
   14  A    between atoms: C_30  and  C_36
   15  A    between atoms: C_41  and  C_53
   16  A    between atoms: C_41  and  N_58
   17  A    between atoms: C_44  and  C_52
   18  A    between atoms: O_45  and  C_49
                            x       y       z     vdW  Elec       q    Type
                         _______ _______ _______ _____ _____    ______ ____

>  <TORSDO>
F 18

$$$$
=
 OpenBabel10232409533D

 59 63  0  0  1  0  0  0  0  0999 V2000
  191.0970  177.1940  141.8220 C   0  0  0  0  0  2  0  0  0  0  0  0
  192.7320  176.9120  139.9910 C   0  0  0  0  0  2  0  0  0  0  0  0
  189.1770  176.7950  138.5290 C   0  0  0  0  0  3  0  0  0  0  0  0
  190.8090  176.0780  135.4640 N   0  0  0  0  0  0  0  0  0  0  0  0
  190.7860  176.3540  136.7830 C   0  0  0  0  0  0  0  0  0  0  0  0
  192.3660  177.7510  141.2040 C   0  0  0  0  0  2  0  0  0  0  0  0
  191.5910  176.7890  139.0110 C   0  0  0  0  0  0  0  0  0  0  0  0
  190.2350  176.9240  139.4560 C   0  0  1  0  0  3  0  0  0  0  0  0
  189.4990  176.4960  137.2110 C   0  0  0  0  0  0  0  0  0  0  0  0
  191.8690  176.4830  137.6520 C   0  0  0  0  0  0  0  0  0  0  0  0
  188.7310  176.2910  136.0910 C   0  0  0  0  0  0  0  0  0  0  0  0
  189.5470  176.0360  135.0420 N   0  0  0  0  0  0  0  0  0  0  0  0
  189.9240  177.3870  140.8640 C   0  0  1  0  0  3  0  0  0  0  0  0
  186.0900  176.3290  135.9480 C   0  0  0  0  0  0  0  0  0  0  0  0
  184.6320  176.3450  135.8610 C   0  0  0  0  0  1  0  0  0  0  0  0
  187.2930  176.3150  136.0150 C   0  0  0  0  0  0  0  0  0  0  0  0
  193.2410  176.3460  137.1500 C   0  0  0  0  0  3  0  0  0  0  0  0
  193.7940  175.1470  137.0080 C   0  0  0  0  0  3  0  0  0  0  0  0
  195.1820  174.9680  136.5650 C   0  0  0  0  0  0  0  0  0  0  0  0
  195.8630  173.8060  136.9350 C   0  0  0  0  0  3  0  0  0  0  0  0
  197.1800  175.7630  135.4470 C   0  0  0  0  0  3  0  0  0  0  0  0
  197.2050  173.6070  136.5690 C   0  0  0  0  0  0  0  0  0  0  0  0
  195.8470  175.9440  135.8120 C   0  0  0  0  0  3  0  0  0  0  0  0
  197.8710  174.6030  135.8330 C   0  0  0  0  0  0  0  0  0  0  0  0
  199.3010  174.4000  135.4280 C   0  0  0  0  0  3  0  0  0  0  0  0
  200.2260  174.5250  136.6170 C   0  0  0  0  0  1  0  0  0  0  0  0
  199.6970  175.4060  134.3600 C   0  0  0  0  0  1  0  0  0  0  0  0
  197.8890  172.4300  136.9130 O   0  0  0  0  0  0  0  0  0  0  0  0
  196.3940  170.6320  136.2200 C   0  0  0  0  0  2  0  0  0  0  0  0
  199.2440  168.7270  138.6630 O   0  0  0  0  0  1  0  0  0  0  0  0
  198.3510  169.3200  137.8340 N   0  0  0  0  0  0  0  0  0  0  0  0
  200.1060  170.4220  136.6240 C   0  0  0  0  0  2  0  0  0  0  0  0
  198.1780  171.4150  134.8680 F   0  0  0  0  0  0  0  0  0  0  0  0
  196.0350  170.0800  137.5960 C   0  0  0  0  0  2  0  0  0  0  0  0
  197.8210  171.1980  136.1890 C   0  0  1  0  0  0  0  0  0  0  0  0
  196.9540  168.9050  137.8980 C   0  0  0  0  0  2  0  0  0  0  0  0
  198.7990  170.2290  136.8100 C   0  0  0  0  0  0  0  0  0  0  0  0
  188.6810  176.7210  141.4410 C   0  0  0  0  0  2  0  0  0  0  0  0
  186.8930  178.3830  139.9720 O   0  0  0  0  0  0  0  0  0  0  0  0
  186.9640  178.5570  141.2190 C   0  0  0  0  0  0  0  0  0  0  0  0
  187.8140  177.7320  142.0140 N   0  0  0  0  0  2  0  0  0  0  0  0
  186.2000  179.5450  141.8430 O   0  0  0  0  0  0  0  0  0  0  0  0
  184.8110  179.3870  142.1260 C   0  0  1  0  0  3  0  0  0  0  0  0
  184.2740  178.1580  141.3920 C   0  0  0  0  0  2  0  0  0  0  0  0
  183.4960  178.5240  140.1620 C   0  0  0  0  0  3  0  0  0  0  0  0
  182.7900  177.6460  139.4630 C   0  0  0  0  0  3  0  0  0  0  0  0
  182.7260  176.3130  139.8380 O   0  0  0  0  0  1  0  0  0  0  0  0
  184.6190  179.2910  143.6460 C   0  0  1  0  0  3  0  0  0  0  0  0
  182.8380  179.2960  145.2490 O   0  0  0  0  0  0  0  0  0  0  0  0
  182.1790  179.0570  143.0160 N   0  0  0  0  0  2  0  0  0  0  0  0
  183.1730  179.2020  144.0370 C   0  0  0  0  0  0  0  0  0  0  0  0
  180.7510  178.9220  143.2660 C   0  0  0  0  0  3  0  0  0  0  0  0
  180.0830  180.2840  143.3560 C   0  0  0  0  0  1  0  0  0  0  0  0
  180.0870  178.0780  142.1920 C   0  0  0  0  0  1  0  0  0  0  0  0
  185.3660  178.2050  144.1860 O   0  0  0  0  0  0  0  0  0  0  0  0
  186.1910  178.3480  145.3060 C   0  0  0  0  0  0  0  0  0  0  0  0
  185.7370  179.0080  146.3590 C   0  0  0  0  0  2  0  0  0  0  0  0
  187.5870  177.8120  145.3320 C   0  0  0  0  0  2  0  0  0  0  0  0
  188.0380  177.6060  146.7680 C   0  0  0  0  0  1  0  0  0  0  0  0
  2  6  1  0  0  0  0
  4  5  2  0  0  0  0
  5  9  1  0  0  0  0
  5 10  1  0  0  0  0
  6  1  1  0  0  0  0
  7  8  1  0  0  0  0
  7  2  1  0  0  0  0
  8  3  1  6  0  0  0
  8 13  1  0  0  0  0
  9  3  2  0  0  0  0
 10  7  2  0  0  0  0
 11  9  1  0  0  0  0
 12  4  1  0  0  0  0
 12 11  2  0  0  0  0
 13 38  1  1  0  0  0
 13  1  1  0  0  0  0
 14 16  3  0  0  0  0
 15 14  1  0  0  0  0
 16 11  1  0  0  0  0
 17 10  1  0  0  0  0
 18 17  2  0  0  0  0
 19 20  1  0  0  0  0
 19 18  1  0  0  0  0
 21 23  1  0  0  0  0
 21 24  2  0  0  0  0
 22 28  1  0  0  0  0
 22 20  2  0  0  0  0
 23 19  2  0  0  0  0
 24 22  1  0  0  0  0
 25 24  1  0  0  0  0
 25 26  1  0  0  0  0
 27 25  1  0  0  0  0
 29 34  1  0  0  0  0
 31 36  1  0  0  0  0
 31 30  1  0  0  0  0
 32 37  2  0  0  0  0
 34 36  1  0  0  0  0
 35 33  1  6  0  0  0
 35 29  1  0  0  0  0
 35 37  1  0  0  0  0
 35 28  1  0  0  0  0
 37 31  1  0  0  0  0
 38 41  1  0  0  0  0
 39 40  2  0  0  0  0
 40 42  1  0  0  0  0
 40 41  1  0  0  0  0
 42 43  1  0  0  0  0
 43 44  1  6  0  0  0
 43 48  1  0  0  0  0
 45 44  1  0  0  0  0
 46 47  1  0  0  0  0
 46 45  2  0  0  0  0
 48 51  1  6  0  0  0
 48 55  1  0  0  0  0
 50 52  1  0  0  0  0
 50 51  1  0  0  0  0
 51 49  2  0  0  0  0
 52 53  1  0  0  0  0
 54 52  1  0  0  0  0
 55 56  1  0  0  0  0
 56 58  1  0  0  0  0
 56 57  2  0  0  0  0
 58 59  1  0  0  0  0
M  END
>  <MODEL>
2

>  <REMARK>
 VINA RESULT:      -6.6      2.548      4.379
  Name = 
  18 active torsions:
  status: ('A' for Active; 'I' for Inactive)
    1  A    between atoms: O_1  and  C_3
    2  A    between atoms: O_1  and  C_22
    3  A    between atoms: C_2  and  N_34
    4  A    between atoms: C_3  and  C_4
    5  A    between atoms: C_5  and  C_35
    6  A    between atoms: C_5  and  C_49
    7  A    between atoms: C_7  and  C_39
    8  A    between atoms: O_15  and  C_25
    9  A    between atoms: O_15  and  C_40
   10  A    between atoms: C_19  and  O_45
   11  A    between atoms: C_22  and  C_38
   12  A    between atoms: C_22  and  C_49
   13  A    between atoms: C_23  and  C_55
   14  A    between atoms: C_30  and  C_36
   15  A    between atoms: C_41  and  C_53
   16  A    between atoms: C_41  and  N_58
   17  A    between atoms: C_44  and  C_52
   18  A    between atoms: O_45  and  C_49
                            x       y       z     vdW  Elec       q    Type
                         _______ _______ _______ _____ _____    ______ ____

>  <TORSDO>
F 18

$$$$
=
 OpenBabel10232409533D

 59 63  0  0  1  0  0  0  0  0999 V2000
  188.0190  178.8480  136.9180 C   0  0  0  0  0  2  0  0  0  0  0  0
  189.1520  176.7970  136.1330 C   0  0  0  0  0  2  0  0  0  0  0  0
  185.3820  176.1070  136.4530 C   0  0  0  0  0  3  0  0  0  0  0  0
  186.2460  172.7760  135.5970 N   0  0  0  0  0  0  0  0  0  0  0  0
  186.5300  174.0700  135.8480 C   0  0  0  0  0  0  0  0  0  0  0  0
  189.0100  178.2930  135.9110 C   0  0  0  0  0  2  0  0  0  0  0  0
  187.8210  176.0850  136.1200 C   0  0  0  0  0  0  0  0  0  0  0  0
  186.6180  176.7890  136.4570 C   0  0  1  0  0  3  0  0  0  0  0  0
  185.3880  174.7490  136.1570 C   0  0  0  0  0  0  0  0  0  0  0  0
  187.7750  174.6960  135.8270 C   0  0  0  0  0  0  0  0  0  0  0  0
  184.3890  173.8100  136.0870 C   0  0  0  0  0  0  0  0  0  0  0  0
  184.9330  172.6180  135.7470 N   0  0  0  0  0  0  0  0  0  0  0  0
  186.6250  178.2940  136.6350 C   0  0  1  0  0  3  0  0  0  0  0  0
  181.8140  174.1880  136.5580 C   0  0  0  0  0  0  0  0  0  0  0  0
  180.3900  174.3920  136.8110 C   0  0  0  0  0  1  0  0  0  0  0  0
  182.9880  174.0190  136.3450 C   0  0  0  0  0  0  0  0  0  0  0  0
  188.9790  173.9370  135.4670 C   0  0  0  0  0  3  0  0  0  0  0  0
  189.9360  173.7220  136.3610 C   0  0  0  0  0  3  0  0  0  0  0  0
  191.1820  173.0190  136.0280 C   0  0  0  0  0  0  0  0  0  0  0  0
  192.3820  173.4760  136.5780 C   0  0  0  0  0  3  0  0  0  0  0  0
  192.4050  171.3110  134.8200 C   0  0  0  0  0  3  0  0  0  0  0  0
  193.6030  172.8610  136.2580 C   0  0  0  0  0  0  0  0  0  0  0  0
  191.1980  171.9270  135.1510 C   0  0  0  0  0  3  0  0  0  0  0  0
  193.6140  171.7810  135.3580 C   0  0  0  0  0  0  0  0  0  0  0  0
  194.9100  171.1090  135.0140 C   0  0  0  0  0  3  0  0  0  0  0  0
  195.5620  170.5230  136.2470 C   0  0  0  0  0  1  0  0  0  0  0  0
  195.8580  172.0940  134.3510 C   0  0  0  0  0  1  0  0  0  0  0  0
  194.8120  173.2960  136.8270 O   0  0  0  0  0  0  0  0  0  0  0  0
  194.6670  175.6220  136.1080 C   0  0  0  0  0  2  0  0  0  0  0  0
  198.7980  174.9100  136.4960 O   0  0  0  0  0  1  0  0  0  0  0  0
  197.4690  175.1660  136.4170 N   0  0  0  0  0  0  0  0  0  0  0  0
  197.0850  174.1900  138.5750 C   0  0  0  0  0  2  0  0  0  0  0  0
  194.4100  174.9560  138.3700 F   0  0  0  0  0  0  0  0  0  0  0  0
  195.5900  175.5520  134.8950 C   0  0  0  0  0  2  0  0  0  0  0  0
  195.1010  174.6430  137.2100 C   0  0  1  0  0  0  0  0  0  0  0  0
  196.9810  175.9980  135.3220 C   0  0  0  0  0  2  0  0  0  0  0  0
  196.5830  174.7530  137.4740 C   0  0  0  0  0  0  0  0  0  0  0  0
  185.6630  178.7610  137.7190 C   0  0  0  0  0  2  0  0  0  0  0  0
  184.9980  179.6690  140.3380 O   0  0  0  0  0  0  0  0  0  0  0  0
  185.6090  178.5700  140.2350 C   0  0  0  0  0  0  0  0  0  0  0  0
  185.9380  178.0450  138.9500 N   0  0  0  0  0  2  0  0  0  0  0  0
  185.9580  177.8420  141.3750 O   0  0  0  0  0  0  0  0  0  0  0  0
  186.3320  178.4610  142.6040 C   0  0  1  0  0  3  0  0  0  0  0  0
  185.2590  178.1950  143.6610 C   0  0  0  0  0  2  0  0  0  0  0  0
  185.0260  179.3820  144.5480 C   0  0  0  0  0  3  0  0  0  0  0  0
  184.7810  179.2800  145.8470 C   0  0  0  0  0  3  0  0  0  0  0  0
  184.7290  178.0450  146.4730 O   0  0  0  0  0  1  0  0  0  0  0  0
  187.7120  177.9370  143.0270 C   0  0  1  0  0  3  0  0  0  0  0  0
  186.9460  176.3050  144.6050 O   0  0  0  0  0  0  0  0  0  0  0  0
  188.5600  177.7980  145.4070 N   0  0  0  0  0  2  0  0  0  0  0  0
  187.6920  177.2980  144.3840 C   0  0  0  0  0  0  0  0  0  0  0  0
  188.6090  177.2920  146.7710 C   0  0  0  0  0  3  0  0  0  0  0  0
  190.0420  177.0300  147.2040 C   0  0  0  0  0  1  0  0  0  0  0  0
  187.9340  178.2530  147.7340 C   0  0  0  0  0  1  0  0  0  0  0  0
  188.2400  177.0470  142.0470 O   0  0  0  0  0  0  0  0  0  0  0  0
  189.4180  177.3220  141.3450 C   0  0  0  0  0  0  0  0  0  0  0  0
  189.3530  178.0490  140.2420 C   0  0  0  0  0  2  0  0  0  0  0  0
  190.7420  176.7840  141.7830 C   0  0  0  0  0  2  0  0  0  0  0  0
  190.5610  175.8770  142.9890 C   0  0  0  0  0  1  0  0  0  0  0  0
  4 12  1  0  0  0  0
  4  5  2  0  0  0  0
  5  9  1  0  0  0  0
  6  2  1  0  0  0  0
  6  1  1  0  0  0  0
  7  2  1  0  0  0  0
  7  8  1  0  0  0  0
  8  3  1  6  0  0  0
  8 13  1  0  0  0  0
  9  3  2  0  0  0  0
 10  5  1  0  0  0  0
 10  7  2  0  0  0  0
 11  9  1  0  0  0  0
 11 16  1  0  0  0  0
 12 11  2  0  0  0  0
 13  1  1  0  0  0  0
 13 38  1  1  0  0  0
 14 15  1  0  0  0  0
 16 14  3  0  0  0  0
 17 10  1  0  0  0  0
 17 18  2  0  0  0  0
 19 18  1  0  0  0  0
 19 20  1  0  0  0  0
 21 23  1  0  0  0  0
 21 24  2  0  0  0  0
 22 20  2  0  0  0  0
 22 28  1  0  0  0  0
 23 19  2  0  0  0  0
 24 22  1  0  0  0  0
 25 24  1  0  0  0  0
 25 26  1  0  0  0  0
 27 25  1  0  0  0  0
 28 35  1  0  0  0  0
 29 35  1  0  0  0  0
 31 30  1  0  0  0  0
 31 37  1  0  0  0  0
 34 36  1  0  0  0  0
 34 29  1  0  0  0  0
 35 37  1  0  0  0  0
 35 33  1  1  0  0  0
 36 31  1  0  0  0  0
 37 32  2  0  0  0  0
 38 41  1  0  0  0  0
 40 39  2  0  0  0  0
 40 42  1  0  0  0  0
 41 40  1  0  0  0  0
 42 43  1  0  0  0  0
 43 48  1  0  0  0  0
 43 44  1  1  0  0  0
 44 45  1  0  0  0  0
 45 46  2  0  0  0  0
 46 47  1  0  0  0  0
 48 55  1  6  0  0  0
 48 51  1  0  0  0  0
 50 52  1  0  0  0  0
 51 49  2  0  0  0  0
 51 50  1  0  0  0  0
 52 53  1  0  0  0  0
 52 54  1  0  0  0  0
 56 58  1  0  0  0  0
 56 55  1  0  0  0  0
 57 56  2  0  0  0  0
 58 59  1  0  0  0  0
M  END
>  <MODEL>
3

>  <REMARK>
 VINA RESULT:      -6.1      1.605      3.357
  Name = 
  18 active torsions:
  status: ('A' for Active; 'I' for Inactive)
    1  A    between atoms: O_1  and  C_3
    2  A    between atoms: O_1  and  C_22
    3  A    between atoms: C_2  and  N_34
    4  A    between atoms: C_3  and  C_4
    5  A    between atoms: C_5  and  C_35
    6  A    between atoms: C_5  and  C_49
    7  A    between atoms: C_7  and  C_39
    8  A    between atoms: O_15  and  C_25
    9  A    between atoms: O_15  and  C_40
   10  A    between atoms: C_19  and  O_45
   11  A    between atoms: C_22  and  C_38
   12  A    between atoms: C_22  and  C_49
   13  A    between atoms: C_23  and  C_55
   14  A    between atoms: C_30  and  C_36
   15  A    between atoms: C_41  and  C_53
   16  A    between atoms: C_41  and  N_58
   17  A    between atoms: C_44  and  C_52
   18  A    between atoms: O_45  and  C_49
                            x       y       z     vdW  Elec       q    Type
                         _______ _______ _______ _____ _____    ______ ____

>  <TORSDO>
F 18

$$$$
=
 OpenBabel10232409533D

 59 63  0  0  1  0  0  0  0  0999 V2000
  188.3490  178.6480  137.4240 C   0  0  0  0  0  2  0  0  0  0  0  0
  189.4390  176.7360  136.3010 C   0  0  0  0  0  2  0  0  0  0  0  0
  185.6270  176.2340  136.2220 C   0  0  0  0  0  3  0  0  0  0  0  0
  186.3950  173.1040  134.7420 N   0  0  0  0  0  0  0  0  0  0  0  0
  186.7200  174.2980  135.2780 C   0  0  0  0  0  0  0  0  0  0  0  0
  189.3870  178.2520  136.3900 C   0  0  0  0  0  2  0  0  0  0  0  0
  188.0810  176.1270  136.0520 C   0  0  0  0  0  0  0  0  0  0  0  0
  186.8910  176.8210  136.4500 C   0  0  1  0  0  3  0  0  0  0  0  0
  185.5910  174.9690  135.6480 C   0  0  0  0  0  0  0  0  0  0  0  0
  187.9920  174.8350  135.4710 C   0  0  0  0  0  0  0  0  0  0  0  0
  184.5570  174.1280  135.3160 C   0  0  0  0  0  0  0  0  0  0  0  0
  185.0690  173.0010  134.7700 N   0  0  0  0  0  0  0  0  0  0  0  0
  186.9560  178.2530  136.9410 C   0  0  1  0  0  3  0  0  0  0  0  0
  181.9770  174.5740  135.6910 C   0  0  0  0  0  0  0  0  0  0  0  0
  180.5540  174.8290  135.9010 C   0  0  0  0  0  1  0  0  0  0  0  0
  183.1520  174.3680  135.5200 C   0  0  0  0  0  0  0  0  0  0  0  0
  189.1820  174.0930  135.0380 C   0  0  0  0  0  3  0  0  0  0  0  0
  190.0250  173.5860  135.9300 C   0  0  0  0  0  3  0  0  0  0  0  0
  191.2570  172.8880  135.5420 C   0  0  0  0  0  0  0  0  0  0  0  0
  192.4870  173.4240  135.9300 C   0  0  0  0  0  3  0  0  0  0  0  0
  192.4190  171.1080  134.3780 C   0  0  0  0  0  3  0  0  0  0  0  0
  193.6930  172.8130  135.5490 C   0  0  0  0  0  0  0  0  0  0  0  0
  191.2280  171.7210  134.7680 C   0  0  0  0  0  3  0  0  0  0  0  0
  193.6560  171.6560  134.7520 C   0  0  0  0  0  0  0  0  0  0  0  0
  194.9370  170.9890  134.3460 C   0  0  0  0  0  3  0  0  0  0  0  0
  195.2360  169.8010  135.2330 C   0  0  0  0  0  1  0  0  0  0  0  0
  196.0910  171.9760  134.4030 C   0  0  0  0  0  1  0  0  0  0  0  0
  194.9340  173.3300  135.9580 O   0  0  0  0  0  0  0  0  0  0  0  0
  194.6340  175.7440  135.7790 C   0  0  0  0  0  2  0  0  0  0  0  0
  198.8000  175.2390  136.1140 O   0  0  0  0  0  1  0  0  0  0  0  0
  197.4570  175.4170  136.0580 N   0  0  0  0  0  0  0  0  0  0  0  0
  197.1160  173.9520  137.9270 C   0  0  0  0  0  2  0  0  0  0  0  0
  194.3960  174.5650  137.8240 F   0  0  0  0  0  0  0  0  0  0  0  0
  195.5750  176.0130  134.6090 C   0  0  0  0  0  2  0  0  0  0  0  0
  195.1220  174.5710  136.6430 C   0  0  1  0  0  0  0  0  0  0  0  0
  196.9250  176.4410  135.1650 C   0  0  0  0  0  2  0  0  0  0  0  0
  196.5890  174.7160  136.9680 C   0  0  0  0  0  0  0  0  0  0  0  0
  185.9360  178.5460  138.0340 C   0  0  0  0  0  2  0  0  0  0  0  0
  185.1780  179.6520  140.5490 O   0  0  0  0  0  0  0  0  0  0  0  0
  186.0850  178.7750  140.5430 C   0  0  0  0  0  0  0  0  0  0  0  0
  186.4840  178.1590  139.3200 N   0  0  0  0  0  2  0  0  0  0  0  0
  186.7000  178.3830  141.7340 O   0  0  0  0  0  0  0  0  0  0  0  0
  186.0680  178.5000  143.0070 C   0  0  1  0  0  3  0  0  0  0  0  0
  184.6110  178.0490  142.9000 C   0  0  0  0  0  2  0  0  0  0  0  0
  183.8190  178.3830  144.1310 C   0  0  0  0  0  3  0  0  0  0  0  0
  182.6860  179.0700  144.1000 C   0  0  0  0  0  3  0  0  0  0  0  0
  182.1540  179.5260  142.9040 O   0  0  0  0  0  1  0  0  0  0  0  0
  186.8610  177.6800  144.0350 C   0  0  1  0  0  3  0  0  0  0  0  0
  187.8070  175.6290  143.2340 O   0  0  0  0  0  0  0  0  0  0  0  0
  189.1420  177.5310  142.9500 N   0  0  0  0  0  2  0  0  0  0  0  0
  187.9540  176.8710  143.4020 C   0  0  0  0  0  0  0  0  0  0  0  0
  190.2870  176.8560  142.3550 C   0  0  0  0  0  3  0  0  0  0  0  0
  190.6930  177.5210  141.0510 C   0  0  0  0  0  1  0  0  0  0  0  0
  191.4610  176.8220  143.3190 C   0  0  0  0  0  1  0  0  0  0  0  0
  187.3720  178.5170  145.0690 O   0  0  0  0  0  0  0  0  0  0  0  0
  187.2440  178.1940  146.4230 C   0  0  0  0  0  0  0  0  0  0  0  0
  186.0370  177.9900  146.9250 C   0  0  0  0  0  2  0  0  0  0  0  0
  188.4300  178.1120  147.3300 C   0  0  0  0  0  2  0  0  0  0  0  0
  188.1150  177.2220  148.5200 C   0  0  0  0  0  1  0  0  0  0  0  0
  2  6  1  0  0  0  0
  4 12  1  0  0  0  0
  4  5  2  0  0  0  0
  5 10  1  0  0  0  0
  5  9  1  0  0  0  0
  6  1  1  0  0  0  0
  7  2  1  0  0  0  0
  7  8  1  0  0  0  0
  8  3  1  6  0  0  0
  8 13  1  0  0  0  0
  9  3  2  0  0  0  0
 10  7  2  0  0  0  0
 11 16  1  0  0  0  0
 11  9  1  0  0  0  0
 12 11  2  0  0  0  0
 13  1  1  0  0  0  0
 13 38  1  1  0  0  0
 14 15  1  0  0  0  0
 16 14  3  0  0  0  0
 17 10  1  0  0  0  0
 17 18  2  0  0  0  0
 19 20  1  0  0  0  0
 19 18  1  0  0  0  0
 21 24  2  0  0  0  0
 21 23  1  0  0  0  0
 22 20  2  0  0  0  0
 22 28  1  0  0  0  0
 23 19  2  0  0  0  0
 24 22  1  0  0  0  0
 25 27  1  0  0  0  0
 25 24  1  0  0  0  0
 25 26  1  0  0  0  0
 28 35  1  0  0  0  0
 29 35  1  0  0  0  0
 31 30  1  0  0  0  0
 31 37  1  0  0  0  0
 34 36  1  0  0  0  0
 34 29  1  0  0  0  0
 35 37  1  0  0  0  0
 35 33  1  1  0  0  0
 36 31  1  0  0  0  0
 37 32  2  0  0  0  0
 38 41  1  0  0  0  0
 40 39  2  0  0  0  0
 40 42  1  0  0  0  0
 41 40  1  0  0  0  0
 42 43  1  0  0  0  0
 43 44  1  6  0  0  0
 43 48  1  0  0  0  0
 44 45  1  0  0  0  0
 46 45  2  0  0  0  0
 47 46  1  0  0  0  0
 48 51  1  6  0  0  0
 48 55  1  0  0  0  0
 49 51  2  0  0  0  0
 50 51  1  0  0  0  0
 52 50  1  0  0  0  0
 52 54  1  0  0  0  0
 53 52  1  0  0  0  0
 55 56  1  0  0  0  0
 56 57  2  0  0  0  0
 56 58  1  0  0  0  0
 58 59  1  0  0  0  0
M  END
>  <MODEL>
4

>  <REMARK>
 VINA RESULT:      -6.0      1.394      3.216
  Name = 
  18 active torsions:
  status: ('A' for Active; 'I' for Inactive)
    1  A    between atoms: O_1  and  C_3
    2  A    between atoms: O_1  and  C_22
    3  A    between atoms: C_2  and  N_34
    4  A    between atoms: C_3  and  C_4
    5  A    between atoms: C_5  and  C_35
    6  A    between atoms: C_5  and  C_49
    7  A    between atoms: C_7  and  C_39
    8  A    between atoms: O_15  and  C_25
    9  A    between atoms: O_15  and  C_40
   10  A    between atoms: C_19  and  O_45
   11  A    between atoms: C_22  and  C_38
   12  A    between atoms: C_22  and  C_49
   13  A    between atoms: C_23  and  C_55
   14  A    between atoms: C_30  and  C_36
   15  A    between atoms: C_41  and  C_53
   16  A    between atoms: C_41  and  N_58
   17  A    between atoms: C_44  and  C_52
   18  A    between atoms: O_45  and  C_49
                            x       y       z     vdW  Elec       q    Type
                         _______ _______ _______ _____ _____    ______ ____

>  <TORSDO>
F 18

$$$$
=
 OpenBabel10232409533D

 59 63  0  0  1  0  0  0  0  0999 V2000
  186.2280  178.6030  138.9290 C   0  0  0  0  0  2  0  0  0  0  0  0
  188.4170  177.9020  138.0240 C   0  0  0  0  0  2  0  0  0  0  0  0
  188.5600  177.8170  141.8670 C   0  0  0  0  0  3  0  0  0  0  0  0
  191.9780  176.9940  141.4000 N   0  0  0  0  0  0  0  0  0  0  0  0
  190.7380  177.2970  140.9630 C   0  0  0  0  0  0  0  0  0  0  0  0
  186.9150  177.6940  137.9270 C   0  0  0  0  0  2  0  0  0  0  0  0
  188.9310  177.7380  139.4340 C   0  0  0  0  0  0  0  0  0  0  0  0
  188.0630  177.9620  140.5520 C   0  0  0  0  0  0  0  0  0  0  0  0
  189.9040  177.4990  142.0230 C   0  0  0  0  0  0  0  0  0  0  0  0
  190.2980  177.4160  139.6460 C   0  0  0  0  0  0  0  0  0  0  0  0
  190.6900  177.3080  143.1320 C   0  0  0  0  0  0  0  0  0  0  0  0
  191.9460  177.0040  142.7300 N   0  0  0  0  0  2  0  0  0  0  0  0
  186.5750  178.1680  140.3500 C   0  0  1  0  0  3  0  0  0  0  0  0
  189.9480  177.5200  145.6620 C   0  0  0  0  0  0  0  0  0  0  0  0
  189.5460  177.6330  147.0620 C   0  0  0  0  0  1  0  0  0  0  0  0
  190.2830  177.4240  144.5080 C   0  0  0  0  0  0  0  0  0  0  0  0
  191.2200  177.1680  138.5310 C   0  0  0  0  0  3  0  0  0  0  0  0
  192.1450  176.2200  138.6160 C   0  0  0  0  0  3  0  0  0  0  0  0
  193.1250  175.9780  137.5500 C   0  0  0  0  0  0  0  0  0  0  0  0
  193.8900  174.8100  137.5890 C   0  0  0  0  0  3  0  0  0  0  0  0
  194.3040  176.6630  135.5460 C   0  0  0  0  0  3  0  0  0  0  0  0
  194.8670  174.5530  136.6120 C   0  0  0  0  0  0  0  0  0  0  0  0
  193.3330  176.9020  136.5170 C   0  0  0  0  0  3  0  0  0  0  0  0
  195.0850  175.4970  135.5940 C   0  0  0  0  0  0  0  0  0  0  0  0
  196.1190  175.2310  134.5400 C   0  0  0  0  0  3  0  0  0  0  0  0
  196.5390  173.7790  134.5450 C   0  0  0  0  0  1  0  0  0  0  0  0
  197.3350  176.1180  134.7540 C   0  0  0  0  0  1  0  0  0  0  0  0
  195.6210  173.3680  136.6280 O   0  0  0  0  0  0  0  0  0  0  0  0
  197.1600  173.9090  138.4420 C   0  0  0  0  0  2  0  0  0  0  0  0
  199.1660  170.9430  136.2290 O   0  0  0  0  0  1  0  0  0  0  0  0
  198.5080  171.8610  136.9790 N   0  0  0  0  0  0  0  0  0  0  0  0
  196.5160  170.5230  136.9900 C   0  0  0  0  0  2  0  0  0  0  0  0
  195.3500  172.3970  138.6970 F   0  0  0  0  0  0  0  0  0  0  0  0
  198.4010  174.2240  137.6130 C   0  0  0  0  0  2  0  0  0  0  0  0
  196.2880  172.8340  137.7750 C   0  0  1  0  0  0  0  0  0  0  0  0
  199.2650  172.9730  137.5450 C   0  0  0  0  0  2  0  0  0  0  0  0
  197.1270  171.6600  137.3310 C   0  0  0  0  0  0  0  0  0  0  0  0
  185.9780  179.1550  141.3450 C   0  0  0  0  0  2  0  0  0  0  0  0
  183.6630  177.4940  141.2950 O   0  0  0  0  0  0  0  0  0  0  0  0
  183.5500  178.6720  140.8570 C   0  0  0  0  0  0  0  0  0  0  0  0
  184.6640  179.5630  140.8890 N   0  0  0  0  0  2  0  0  0  0  0  0
  182.3300  179.1270  140.3520 O   0  0  0  0  0  0  0  0  0  0  0  0
  181.3610  178.2590  139.7690 C   0  0  1  0  0  3  0  0  0  0  0  0
  179.9890  178.5320  140.3870 C   0  0  0  0  0  2  0  0  0  0  0  0
  179.9840  178.3350  141.8740 C   0  0  0  0  0  3  0  0  0  0  0  0
  180.0660  179.3370  142.7390 C   0  0  0  0  0  3  0  0  0  0  0  0
  180.1590  180.6510  142.3090 O   0  0  0  0  0  1  0  0  0  0  0  0
  181.3660  178.4560  138.2460 C   0  0  1  0  0  3  0  0  0  0  0  0
  180.3760  176.6510  137.0210 O   0  0  0  0  0  0  0  0  0  0  0  0
  182.6960  176.5220  137.3000 N   0  0  0  0  0  2  0  0  0  0  0  0
  181.4270  177.1560  137.5000 C   0  0  0  0  0  0  0  0  0  0  0  0
  182.8850  175.2440  136.6270 C   0  0  0  0  0  3  0  0  0  0  0  0
  183.5660  175.4320  135.2820 C   0  0  0  0  0  1  0  0  0  0  0  0
  183.6820  174.2850  137.4930 C   0  0  0  0  0  1  0  0  0  0  0  0
  180.2500  179.2370  137.8290 O   0  0  0  0  0  0  0  0  0  0  0  0
  180.3770  180.3110  136.9430 C   0  0  0  0  0  0  0  0  0  0  0  0
  180.4430  180.0690  135.6440 C   0  0  0  0  0  2  0  0  0  0  0  0
  180.4830  181.7220  137.4250 C   0  0  0  0  0  2  0  0  0  0  0  0
  180.0320  181.8130  138.8730 C   0  0  0  0  0  1  0  0  0  0  0  0
  1 13  1  0  0  0  0
  2  7  1  0  0  0  0
  3  9  1  0  0  0  0
  4 12  1  0  0  0  0
  5  4  2  0  0  0  0
  5  9  1  0  0  0  0
  6  2  1  0  0  0  0
  6  1  1  0  0  0  0
  7 10  2  0  0  0  0
  7  8  1  0  0  0  0
  8  3  2  0  0  0  0
  9 11  2  0  0  0  0
 10  5  1  0  0  0  0
 11 16  1  0  0  0  0
 12 11  1  0  0  0  0
 13  8  1  0  0  0  0
 13 38  1  1  0  0  0
 14 15  1  0  0  0  0
 16 14  3  0  0  0  0
 17 18  2  0  0  0  0
 17 10  1  0  0  0  0
 19 20  1  0  0  0  0
 19 18  1  0  0  0  0
 21 24  2  0  0  0  0
 21 23  1  0  0  0  0
 22 28  1  0  0  0  0
 22 20  2  0  0  0  0
 23 19  2  0  0  0  0
 24 22  1  0  0  0  0
 25 26  1  0  0  0  0
 25 27  1  0  0  0  0
 25 24  1  0  0  0  0
 28 35  1  0  0  0  0
 30 31  1  0  0  0  0
 31 37  1  0  0  0  0
 31 36  1  0  0  0  0
 32 37  2  0  0  0  0
 34 29  1  0  0  0  0
 35 29  1  0  0  0  0
 35 33  1  1  0  0  0
 36 34  1  0  0  0  0
 37 35  1  0  0  0  0
 40 41  1  0  0  0  0
 40 39  2  0  0  0  0
 41 38  1  0  0  0  0
 42 40  1  0  0  0  0
 43 42  1  0  0  0  0
 43 44  1  1  0  0  0
 44 45  1  0  0  0  0
 45 46  2  0  0  0  0
 47 46  1  0  0  0  0
 48 51  1  6  0  0  0
 48 43  1  0  0  0  0
 49 51  2  0  0  0  0
 50 51  1  0  0  0  0
 52 50  1  0  0  0  0
 52 54  1  0  0  0  0
 53 52  1  0  0  0  0
 55 48  1  0  0  0  0
 56 58  1  0  0  0  0
 56 55  1  0  0  0  0
 57 56  2  0  0  0  0
 58 59  1  0  0  0  0
M  END
>  <MODEL>
5

>  <REMARK>
 VINA RESULT:      -5.8      2.910      6.934
  Name = 
  18 active torsions:
  status: ('A' for Active; 'I' for Inactive)
    1  A    between atoms: O_1  and  C_3
    2  A    between atoms: O_1  and  C_22
    3  A    between atoms: C_2  and  N_34
    4  A    between atoms: C_3  and  C_4
    5  A    between atoms: C_5  and  C_35
    6  A    between atoms: C_5  and  C_49
    7  A    between atoms: C_7  and  C_39
    8  A    between atoms: O_15  and  C_25
    9  A    between atoms: O_15  and  C_40
   10  A    between atoms: C_19  and  O_45
   11  A    between atoms: C_22  and  C_38
   12  A    between atoms: C_22  and  C_49
   13  A    between atoms: C_23  and  C_55
   14  A    between atoms: C_30  and  C_36
   15  A    between atoms: C_41  and  C_53
   16  A    between atoms: C_41  and  N_58
   17  A    between atoms: C_44  and  C_52
   18  A    between atoms: O_45  and  C_49
                            x       y       z     vdW  Elec       q    Type
                         _______ _______ _______ _____ _____    ______ ____

>  <TORSDO>
F 18

$$$$
=
 OpenBabel10232409533D

 59 63  0  0  1  0  0  0  0  0999 V2000
  187.9840  178.6600  137.0710 C   0  0  0  0  0  2  0  0  0  0  0  0
  189.1810  176.6890  136.1850 C   0  0  0  0  0  2  0  0  0  0  0  0
  185.4930  175.7650  136.7600 C   0  0  0  0  0  3  0  0  0  0  0  0
  186.4970  172.5000  135.8060 N   0  0  0  0  0  0  0  0  0  0  0  0
  186.7170  173.8080  136.0520 C   0  0  0  0  0  0  0  0  0  0  0  0
  188.9330  178.1750  135.9900 C   0  0  0  0  0  2  0  0  0  0  0  0
  187.8990  175.8960  136.2570 C   0  0  0  0  0  0  0  0  0  0  0  0
  186.6830  176.5220  136.6850 C   0  0  1  0  0  3  0  0  0  0  0  0
  185.5610  174.4130  136.4490 C   0  0  0  0  0  0  0  0  0  0  0  0
  187.9180  174.5100  135.9510 C   0  0  0  0  0  0  0  0  0  0  0  0
  184.6190  173.4130  136.4370 C   0  0  0  0  0  0  0  0  0  0  0  0
  185.2100  172.2600  136.0470 N   0  0  0  0  0  0  0  0  0  0  0  0
  186.6100  178.0230  136.8800 C   0  0  1  0  0  3  0  0  0  0  0  0
  182.0660  173.6290  137.0930 C   0  0  0  0  0  0  0  0  0  0  0  0
  180.6530  173.7410  137.4470 C   0  0  0  0  0  1  0  0  0  0  0  0
  183.2290  173.5340  136.7960 C   0  0  0  0  0  0  0  0  0  0  0  0
  189.1370  173.8290  135.4990 C   0  0  0  0  0  3  0  0  0  0  0  0
  190.1240  173.5710  136.3490 C   0  0  0  0  0  3  0  0  0  0  0  0
  191.3840  172.9460  135.9270 C   0  0  0  0  0  0  0  0  0  0  0  0
  192.5840  173.4220  136.4600 C   0  0  0  0  0  3  0  0  0  0  0  0
  192.6290  171.3710  134.5710 C   0  0  0  0  0  3  0  0  0  0  0  0
  193.8160  172.8820  136.0580 C   0  0  0  0  0  0  0  0  0  0  0  0
  191.4120  171.9110  134.9840 C   0  0  0  0  0  3  0  0  0  0  0  0
  193.8370  171.8600  135.0930 C   0  0  0  0  0  0  0  0  0  0  0  0
  195.1470  171.2680  134.6610 C   0  0  0  0  0  3  0  0  0  0  0  0
  195.7090  170.3550  135.7270 C   0  0  0  0  0  1  0  0  0  0  0  0
  196.1470  172.3680  134.3460 C   0  0  0  0  0  1  0  0  0  0  0  0
  195.0270  173.3350  136.6090 O   0  0  0  0  0  0  0  0  0  0  0  0
  194.6840  175.6970  136.1090 C   0  0  0  0  0  2  0  0  0  0  0  0
  198.8670  175.2320  136.0990 O   0  0  0  0  0  1  0  0  0  0  0  0
  197.5240  175.4050  136.1510 N   0  0  0  0  0  0  0  0  0  0  0  0
  197.3860  174.2320  138.2390 C   0  0  0  0  0  2  0  0  0  0  0  0
  194.6620  174.8330  138.3170 F   0  0  0  0  0  0  0  0  0  0  0  0
  195.5010  175.7880  134.8240 C   0  0  0  0  0  2  0  0  0  0  0  0
  195.2680  174.6620  137.0830 C   0  0  1  0  0  0  0  0  0  0  0  0
  196.8950  176.2890  135.1750 C   0  0  0  0  0  2  0  0  0  0  0  0
  196.7580  174.8480  137.2360 C   0  0  0  0  0  0  0  0  0  0  0  0
  185.7000  178.4220  138.0350 C   0  0  0  0  0  2  0  0  0  0  0  0
  184.9150  179.6180  140.4990 O   0  0  0  0  0  0  0  0  0  0  0  0
  186.0060  178.9850  140.4760 C   0  0  0  0  0  0  0  0  0  0  0  0
  186.4350  178.3340  139.2810 N   0  0  0  0  0  2  0  0  0  0  0  0
  186.8000  178.8950  141.6210 O   0  0  0  0  0  0  0  0  0  0  0  0
  187.7620  177.8620  141.8180 C   0  0  1  0  0  3  0  0  0  0  0  0
  189.0640  178.2300  141.1040 C   0  0  0  0  0  2  0  0  0  0  0  0
  189.5260  177.1490  140.1700 C   0  0  0  0  0  3  0  0  0  0  0  0
  190.7930  176.7730  140.0680 C   0  0  0  0  0  3  0  0  0  0  0  0
  191.7830  177.3660  140.8350 O   0  0  0  0  0  1  0  0  0  0  0  0
  187.9620  177.6460  143.3250 C   0  0  1  0  0  3  0  0  0  0  0  0
  190.1280  178.6700  143.3900 O   0  0  0  0  0  0  0  0  0  0  0  0
  189.9460  176.6300  144.5230 N   0  0  0  0  0  2  0  0  0  0  0  0
  189.4080  177.6890  143.7230 C   0  0  0  0  0  0  0  0  0  0  0  0
  191.3370  176.5360  144.9430 C   0  0  0  0  0  3  0  0  0  0  0  0
  191.4390  176.3150  146.4430 C   0  0  0  0  0  1  0  0  0  0  0  0
  192.0590  175.4290  144.1960 C   0  0  0  0  0  1  0  0  0  0  0  0
  187.1930  178.5790  144.0790 O   0  0  0  0  0  0  0  0  0  0  0  0
  186.0140  178.2160  144.7370 C   0  0  0  0  0  0  0  0  0  0  0  0
  184.8730  178.2310  144.0670 C   0  0  0  0  0  2  0  0  0  0  0  0
  185.9990  177.8510  146.1870 C   0  0  0  0  0  2  0  0  0  0  0  0
  187.4150  177.8550  146.7380 C   0  0  0  0  0  1  0  0  0  0  0  0
  2  7  1  0  0  0  0
  4 12  1  0  0  0  0
  4  5  2  0  0  0  0
  5  9  1  0  0  0  0
  6  2  1  0  0  0  0
  6  1  1  0  0  0  0
  7  8  1  0  0  0  0
  8  3  1  6  0  0  0
  8 13  1  0  0  0  0
  9  3  2  0  0  0  0
 10  5  1  0  0  0  0
 10  7  2  0  0  0  0
 11  9  1  0  0  0  0
 11 16  1  0  0  0  0
 12 11  2  0  0  0  0
 13  1  1  0  0  0  0
 13 38  1  1  0  0  0
 14 15  1  0  0  0  0
 16 14  3  0  0  0  0
 17 10  1  0  0  0  0
 17 18  2  0  0  0  0
 19 18  1  0  0  0  0
 19 20  1  0  0  0  0
 21 23  1  0  0  0  0
 21 24  2  0  0  0  0
 22 20  2  0  0  0  0
 22 28  1  0  0  0  0
 23 19  2  0  0  0  0
 24 22  1  0  0  0  0
 25 24  1  0  0  0  0
 25 26  1  0  0  0  0
 27 25  1  0  0  0  0
 28 35  1  0  0  0  0
 29 35  1  0  0  0  0
 30 31  1  0  0  0  0
 31 37  1  0  0  0  0
 34 36  1  0  0  0  0
 34 29  1  0  0  0  0
 35 37  1  0  0  0  0
 35 33  1  1  0  0  0
 36 31  1  0  0  0  0
 37 32  2  0  0  0  0
 38 41  1  0  0  0  0
 40 39  2  0  0  0  0
 40 42  1  0  0  0  0
 41 40  1  0  0  0  0
 42 43  1  0  0  0  0
 43 44  1  1  0  0  0
 43 48  1  0  0  0  0
 45 44  1  0  0  0  0
 46 45  2  0  0  0  0
 46 47  1  0  0  0  0
 48 51  1  6  0  0  0
 48 55  1  0  0  0  0
 49 51  2  0  0  0  0
 50 52  1  0  0  0  0
 51 50  1  0  0  0  0
 52 53  1  0  0  0  0
 54 52  1  0  0  0  0
 55 56  1  0  0  0  0
 56 58  1  0  0  0  0
 57 56  2  0  0  0  0
 58 59  1  0  0  0  0
M  END
>  <MODEL>
6

>  <REMARK>
 VINA RESULT:      -5.4      1.628      3.199
  Name = 
  18 active torsions:
  status: ('A' for Active; 'I' for Inactive)
    1  A    between atoms: O_1  and  C_3
    2  A    between atoms: O_1  and  C_22
    3  A    between atoms: C_2  and  N_34
    4  A    between atoms: C_3  and  C_4
    5  A    between atoms: C_5  and  C_35
    6  A    between atoms: C_5  and  C_49
    7  A    between atoms: C_7  and  C_39
    8  A    between atoms: O_15  and  C_25
    9  A    between atoms: O_15  and  C_40
   10  A    between atoms: C_19  and  O_45
   11  A    between atoms: C_22  and  C_38
   12  A    between atoms: C_22  and  C_49
   13  A    between atoms: C_23  and  C_55
   14  A    between atoms: C_30  and  C_36
   15  A    between atoms: C_41  and  C_53
   16  A    between atoms: C_41  and  N_58
   17  A    between atoms: C_44  and  C_52
   18  A    between atoms: O_45  and  C_49
                            x       y       z     vdW  Elec       q    Type
                         _______ _______ _______ _____ _____    ______ ____

>  <TORSDO>
F 18

$$$$
=
 OpenBabel10232409533D

 59 63  0  0  1  0  0  0  0  0999 V2000
  190.1300  177.5080  138.8850 C   0  0  0  0  0  2  0  0  0  0  0  0
  191.0880  175.5030  137.8030 C   0  0  0  0  0  2  0  0  0  0  0  0
  187.5190  176.0580  136.4830 C   0  0  0  0  0  3  0  0  0  0  0  0
  188.0360  173.0130  134.7410 N   0  0  0  0  0  0  0  0  0  0  0  0
  188.4130  174.0110  135.5660 C   0  0  0  0  0  0  0  0  0  0  0  0
  191.3430  176.9590  138.1570 C   0  0  0  0  0  2  0  0  0  0  0  0
  189.7970  175.3130  137.0460 C   0  0  0  0  0  0  0  0  0  0  0  0
  188.7260  176.2560  137.1890 C   0  0  1  0  0  3  0  0  0  0  0  0
  187.4030  174.9180  135.6980 C   0  0  0  0  0  0  0  0  0  0  0  0
  189.6290  174.1620  136.2310 C   0  0  0  0  0  0  0  0  0  0  0  0
  186.3850  174.4280  134.9170 C   0  0  0  0  0  0  0  0  0  0  0  0
  186.7910  173.2690  134.3480 N   0  0  0  0  0  0  0  0  0  0  0  0
  188.9330  177.5560  137.9390 C   0  0  1  0  0  3  0  0  0  0  0  0
  183.9940  175.5070  134.5770 C   0  0  0  0  0  0  0  0  0  0  0  0
  182.6730  176.1030  134.3990 C   0  0  0  0  0  1  0  0  0  0  0  0
  185.0830  175.0140  134.7290 C   0  0  0  0  0  0  0  0  0  0  0  0
  190.7010  173.1770  136.0460 C   0  0  0  0  0  3  0  0  0  0  0  0
  191.9730  173.5200  136.2160 C   0  0  0  0  0  3  0  0  0  0  0  0
  193.0790  172.5830  135.9850 C   0  0  0  0  0  0  0  0  0  0  0  0
  194.3900  173.0640  136.0200 C   0  0  0  0  0  3  0  0  0  0  0  0
  193.9210  170.3770  135.4380 C   0  0  0  0  0  3  0  0  0  0  0  0
  195.4780  172.2140  135.7660 C   0  0  0  0  0  0  0  0  0  0  0  0
  192.8500  171.2310  135.6980 C   0  0  0  0  0  3  0  0  0  0  0  0
  195.2390  170.8640  135.4560 C   0  0  0  0  0  0  0  0  0  0  0  0
  196.3930  169.9430  135.1910 C   0  0  0  0  0  3  0  0  0  0  0  0
  196.9180  169.3460  136.4780 C   0  0  0  0  0  1  0  0  0  0  0  0
  197.5100  170.6850  134.4760 C   0  0  0  0  0  1  0  0  0  0  0  0
  196.8010  172.6830  135.8270 O   0  0  0  0  0  0  0  0  0  0  0  0
  198.1660  174.3460  134.6760 C   0  0  0  0  0  2  0  0  0  0  0  0
  199.7850  174.1810  138.5580 O   0  0  0  0  0  1  0  0  0  0  0  0
  199.2390  174.2800  137.3220 N   0  0  0  0  0  0  0  0  0  0  0  0
  197.0290  174.4620  138.2380 C   0  0  0  0  0  2  0  0  0  0  0  0
  196.0630  174.8560  135.6500 F   0  0  0  0  0  0  0  0  0  0  0  0
  199.5430  173.7510  134.9500 C   0  0  0  0  0  2  0  0  0  0  0  0
  197.1850  174.0610  135.8240 C   0  0  1  0  0  0  0  0  0  0  0  0
  200.1290  174.4360  136.1760 C   0  0  0  0  0  2  0  0  0  0  0  0
  197.8120  174.3810  137.1600 C   0  0  0  0  0  0  0  0  0  0  0  0
  187.6940  177.9950  138.7080 C   0  0  0  0  0  2  0  0  0  0  0  0
  185.8740  178.7710  140.7580 O   0  0  0  0  0  0  0  0  0  0  0  0
  187.0500  178.4700  141.1010 C   0  0  0  0  0  0  0  0  0  0  0  0
  187.9970  178.0390  140.1250 N   0  0  0  0  0  2  0  0  0  0  0  0
  187.4380  178.5350  142.4410 O   0  0  0  0  0  0  0  0  0  0  0  0
  187.5950  177.3780  143.2600 C   0  0  1  0  0  3  0  0  0  0  0  0
  189.0770  177.1670  143.5720 C   0  0  0  0  0  2  0  0  0  0  0  0
  189.6720  176.0420  142.7770 C   0  0  0  0  0  3  0  0  0  0  0  0
  190.7770  176.1680  142.0560 C   0  0  0  0  0  3  0  0  0  0  0  0
  191.4630  177.3710  141.9970 O   0  0  0  0  0  1  0  0  0  0  0  0
  186.7480  177.5470  144.5290 C   0  0  1  0  0  3  0  0  0  0  0  0
  187.1710  176.4750  146.6300 O   0  0  0  0  0  0  0  0  0  0  0  0
  188.7520  178.0730  145.9810 N   0  0  0  0  0  2  0  0  0  0  0  0
  187.5440  177.3310  145.7820 C   0  0  0  0  0  0  0  0  0  0  0  0
  189.5930  177.9840  147.1670 C   0  0  0  0  0  3  0  0  0  0  0  0
  188.7510  177.9620  148.4310 C   0  0  0  0  0  1  0  0  0  0  0  0
  190.4890  176.7590  147.1080 C   0  0  0  0  0  1  0  0  0  0  0  0
  186.0980  178.8150  144.5440 O   0  0  0  0  0  0  0  0  0  0  0  0
  184.7740  178.9720  144.9650 C   0  0  0  0  0  0  0  0  0  0  0  0
  184.4480  178.6310  146.2010 C   0  0  0  0  0  2  0  0  0  0  0  0
  183.7090  179.4770  144.0460 C   0  0  0  0  0  2  0  0  0  0  0  0
  182.4040  178.7450  144.3100 C   0  0  0  0  0  1  0  0  0  0  0  0
  2  6  1  0  0  0  0
  4  5  2  0  0  0  0
  5  9  1  0  0  0  0
  5 10  1  0  0  0  0
  6  1  1  0  0  0  0
  7  8  1  0  0  0  0
  7  2  1  0  0  0  0
  8  3  1  6  0  0  0
  8 13  1  0  0  0  0
  9  3  2  0  0  0  0
 10  7  2  0  0  0  0
 11  9  1  0  0  0  0
 12  4  1  0  0  0  0
 12 11  2  0  0  0  0
 13 38  1  1  0  0  0
 13  1  1  0  0  0  0
 14 16  3  0  0  0  0
 15 14  1  0  0  0  0
 16 11  1  0  0  0  0
 17 18  2  0  0  0  0
 17 10  1  0  0  0  0
 19 20  1  0  0  0  0
 19 18  1  0  0  0  0
 21 24  2  0  0  0  0
 21 23  1  0  0  0  0
 22 28  1  0  0  0  0
 22 20  2  0  0  0  0
 23 19  2  0  0  0  0
 24 22  1  0  0  0  0
 25 24  1  0  0  0  0
 25 26  1  0  0  0  0
 27 25  1  0  0  0  0
 29 34  1  0  0  0  0
 29 35  1  0  0  0  0
 31 30  1  0  0  0  0
 34 36  1  0  0  0  0
 35 33  1  6  0  0  0
 35 28  1  0  0  0  0
 35 37  1  0  0  0  0
 36 31  1  0  0  0  0
 37 31  1  0  0  0  0
 37 32  2  0  0  0  0
 38 41  1  0  0  0  0
 39 40  2  0  0  0  0
 40 42  1  0  0  0  0
 41 40  1  0  0  0  0
 42 43  1  0  0  0  0
 43 44  1  1  0  0  0
 43 48  1  0  0  0  0
 45 44  1  0  0  0  0
 46 45  2  0  0  0  0
 47 46  1  0  0  0  0
 48 55  1  1  0  0  0
 48 51  1  0  0  0  0
 50 52  1  0  0  0  0
 51 50  1  0  0  0  0
 51 49  2  0  0  0  0
 52 53  1  0  0  0  0
 54 52  1  0  0  0  0
 55 56  1  0  0  0  0
 56 57  2  0  0  0  0
 58 59  1  0  0  0  0
 58 56  1  0  0  0  0
M  END
>  <MODEL>
7

>  <REMARK>
 VINA RESULT:      -5.2      1.797      3.275
  Name = 
  18 active torsions:
  status: ('A' for Active; 'I' for Inactive)
    1  A    between atoms: O_1  and  C_3
    2  A    between atoms: O_1  and  C_22
    3  A    between atoms: C_2  and  N_34
    4  A    between atoms: C_3  and  C_4
    5  A    between atoms: C_5  and  C_35
    6  A    between atoms: C_5  and  C_49
    7  A    between atoms: C_7  and  C_39
    8  A    between atoms: O_15  and  C_25
    9  A    between atoms: O_15  and  C_40
   10  A    between atoms: C_19  and  O_45
   11  A    between atoms: C_22  and  C_38
   12  A    between atoms: C_22  and  C_49
   13  A    between atoms: C_23  and  C_55
   14  A    between atoms: C_30  and  C_36
   15  A    between atoms: C_41  and  C_53
   16  A    between atoms: C_41  and  N_58
   17  A    between atoms: C_44  and  C_52
   18  A    between atoms: O_45  and  C_49
                            x       y       z     vdW  Elec       q    Type
                         _______ _______ _______ _____ _____    ______ ____

>  <TORSDO>
F 18

$$$$
=
 OpenBabel10232409533D

 59 63  0  0  1  0  0  0  0  0999 V2000
  190.0930  177.6710  141.4030 C   0  0  0  0  0  2  0  0  0  0  0  0
  191.8960  176.9040  139.8980 C   0  0  0  0  0  2  0  0  0  0  0  0
  188.6690  177.3680  137.8590 C   0  0  0  0  0  3  0  0  0  0  0  0
  190.5690  176.0680  135.1620 N   0  0  0  0  0  0  0  0  0  0  0  0
  190.4000  176.4610  136.4410 C   0  0  0  0  0  0  0  0  0  0  0  0
  191.5320  177.9050  140.9820 C   0  0  0  0  0  2  0  0  0  0  0  0
  190.9220  176.9240  138.7450 C   0  0  0  0  0  0  0  0  0  0  0  0
  189.5730  177.3670  138.9440 C   0  0  1  0  0  3  0  0  0  0  0  0
  189.1210  176.8940  136.6330 C   0  0  0  0  0  0  0  0  0  0  0  0
  191.3360  176.4480  137.4730 C   0  0  0  0  0  0  0  0  0  0  0  0
  188.5110  176.7470  135.4120 C   0  0  0  0  0  0  0  0  0  0  0  0
  189.4080  176.2410  134.5340 N   0  0  0  0  0  0  0  0  0  0  0  0
  189.1510  178.0070  140.2500 C   0  0  1  0  0  3  0  0  0  0  0  0
  185.9950  177.3100  134.8230 C   0  0  0  0  0  0  0  0  0  0  0  0
  184.6040  177.6270  134.5060 C   0  0  0  0  0  1  0  0  0  0  0  0
  187.1410  177.0500  135.0900 C   0  0  0  0  0  0  0  0  0  0  0  0
  192.7100  175.9950  137.2220 C   0  0  0  0  0  3  0  0  0  0  0  0
  193.0170  174.7050  137.2690 C   0  0  0  0  0  3  0  0  0  0  0  0
  194.3880  174.2140  137.0820 C   0  0  0  0  0  0  0  0  0  0  0  0
  194.7190  172.9410  137.5520 C   0  0  0  0  0  3  0  0  0  0  0  0
  196.6790  174.5230  136.3550 C   0  0  0  0  0  3  0  0  0  0  0  0
  196.0270  172.4440  137.4310 C   0  0  0  0  0  0  0  0  0  0  0  0
  195.3750  175.0010  136.4750 C   0  0  0  0  0  3  0  0  0  0  0  0
  197.0170  173.2500  136.8430 C   0  0  0  0  0  0  0  0  0  0  0  0
  198.4160  172.7280  136.6990 C   0  0  0  0  0  3  0  0  0  0  0  0
  199.2900  173.1950  137.8410 C   0  0  0  0  0  1  0  0  0  0  0  0
  199.0160  173.1750  135.3770 C   0  0  0  0  0  1  0  0  0  0  0  0
  196.3620  171.1540  137.8760 O   0  0  0  0  0  0  0  0  0  0  0  0
  195.8490  170.2810  135.6580 C   0  0  0  0  0  2  0  0  0  0  0  0
  193.5270  167.9260  138.2620 O   0  0  0  0  0  1  0  0  0  0  0  0
  194.3090  168.6430  137.4190 N   0  0  0  0  0  0  0  0  0  0  0  0
  196.2360  168.3000  138.8060 C   0  0  0  0  0  2  0  0  0  0  0  0
  197.7680  169.6240  136.8870 F   0  0  0  0  0  0  0  0  0  0  0  0
  194.3280  170.3930  135.7050 C   0  0  0  0  0  2  0  0  0  0  0  0
  196.4420  169.9930  137.0450 C   0  0  1  0  0  0  0  0  0  0  0  0
  193.7590  169.0470  136.1290 C   0  0  0  0  0  2  0  0  0  0  0  0
  195.6970  168.8700  137.7270 C   0  0  0  0  0  0  0  0  0  0  0  0
  187.7210  177.6570  140.6420 C   0  0  0  0  0  2  0  0  0  0  0  0
  185.2080  178.7100  141.4760 O   0  0  0  0  0  0  0  0  0  0  0  0
  185.5360  178.8620  140.2670 C   0  0  0  0  0  0  0  0  0  0  0  0
  186.7970  178.3890  139.7980 N   0  0  0  0  0  2  0  0  0  0  0  0
  184.6790  179.5120  139.3760 O   0  0  0  0  0  0  0  0  0  0  0  0
  183.2770  179.6370  139.6010 C   0  0  1  0  0  3  0  0  0  0  0  0
  182.6550  180.5000  138.5030 C   0  0  0  0  0  2  0  0  0  0  0  0
  181.1640  180.6090  138.6390 C   0  0  0  0  0  3  0  0  0  0  0  0
  180.3510  180.7650  137.6040 C   0  0  0  0  0  3  0  0  0  0  0  0
  180.8410  180.8340  136.3090 O   0  0  0  0  0  1  0  0  0  0  0  0
  182.6550  178.2340  139.6660 C   0  0  1  0  0  3  0  0  0  0  0  0
  180.5380  177.3420  140.3470 O   0  0  0  0  0  0  0  0  0  0  0  0
  181.3860  179.0560  141.6950 N   0  0  0  0  0  2  0  0  0  0  0  0
  181.4550  178.1800  140.5650 C   0  0  0  0  0  0  0  0  0  0  0  0
  180.2630  179.1280  142.6200 C   0  0  0  0  0  3  0  0  0  0  0  0
  180.5140  178.2700  143.8480 C   0  0  0  0  0  1  0  0  0  0  0  0
  179.9820  180.5640  143.0260 C   0  0  0  0  0  1  0  0  0  0  0  0
  182.3430  177.7550  138.3610 O   0  0  0  0  0  0  0  0  0  0  0  0
  182.8060  176.5240  137.8870 C   0  0  0  0  0  0  0  0  0  0  0  0
  184.1090  176.3290  137.7680 C   0  0  0  0  0  2  0  0  0  0  0  0
  181.8690  175.4360  137.4710 C   0  0  0  0  0  2  0  0  0  0  0  0
  181.4450  175.6390  136.0260 C   0  0  0  0  0  1  0  0  0  0  0  0
  2  6  1  0  0  0  0
  4  5  2  0  0  0  0
  5  9  1  0  0  0  0
  5 10  1  0  0  0  0
  6  1  1  0  0  0  0
  7  8  1  0  0  0  0
  7  2  1  0  0  0  0
  8  3  1  6  0  0  0
  8 13  1  0  0  0  0
  9  3  2  0  0  0  0
 10  7  2  0  0  0  0
 11  9  1  0  0  0  0
 12  4  1  0  0  0  0
 12 11  2  0  0  0  0
 13 38  1  1  0  0  0
 13  1  1  0  0  0  0
 14 16  3  0  0  0  0
 15 14  1  0  0  0  0
 16 11  1  0  0  0  0
 17 18  2  0  0  0  0
 17 10  1  0  0  0  0
 19 18  1  0  0  0  0
 19 20  1  0  0  0  0
 21 23  1  0  0  0  0
 21 24  2  0  0  0  0
 22 20  2  0  0  0  0
 22 28  1  0  0  0  0
 23 19  2  0  0  0  0
 24 22  1  0  0  0  0
 25 24  1  0  0  0  0
 25 26  1  0  0  0  0
 27 25  1  0  0  0  0
 29 34  1  0  0  0  0
 29 35  1  0  0  0  0
 31 37  1  0  0  0  0
 31 30  1  0  0  0  0
 34 36  1  0  0  0  0
 35 33  1  6  0  0  0
 35 37  1  0  0  0  0
 35 28  1  0  0  0  0
 36 31  1  0  0  0  0
 37 32  2  0  0  0  0
 40 39  2  0  0  0  0
 41 40  1  0  0  0  0
 41 38  1  0  0  0  0
 42 43  1  0  0  0  0
 42 40  1  0  0  0  0
 43 44  1  6  0  0  0
 43 48  1  0  0  0  0
 44 45  1  0  0  0  0
 46 45  2  0  0  0  0
 47 46  1  0  0  0  0
 48 55  1  6  0  0  0
 48 51  1  0  0  0  0
 49 51  2  0  0  0  0
 50 52  1  0  0  0  0
 51 50  1  0  0  0  0
 52 54  1  0  0  0  0
 52 53  1  0  0  0  0
 56 55  1  0  0  0  0
 57 56  2  0  0  0  0
 58 56  1  0  0  0  0
 59 58  1  0  0  0  0
M  END
>  <MODEL>
8

>  <REMARK>
 VINA RESULT:      -5.2      3.203      5.774
  Name = 
  18 active torsions:
  status: ('A' for Active; 'I' for Inactive)
    1  A    between atoms: O_1  and  C_3
    2  A    between atoms: O_1  and  C_22
    3  A    between atoms: C_2  and  N_34
    4  A    between atoms: C_3  and  C_4
    5  A    between atoms: C_5  and  C_35
    6  A    between atoms: C_5  and  C_49
    7  A    between atoms: C_7  and  C_39
    8  A    between atoms: O_15  and  C_25
    9  A    between atoms: O_15  and  C_40
   10  A    between atoms: C_19  and  O_45
   11  A    between atoms: C_22  and  C_38
   12  A    between atoms: C_22  and  C_49
   13  A    between atoms: C_23  and  C_55
   14  A    between atoms: C_30  and  C_36
   15  A    between atoms: C_41  and  C_53
   16  A    between atoms: C_41  and  N_58
   17  A    between atoms: C_44  and  C_52
   18  A    between atoms: O_45  and  C_49
                            x       y       z     vdW  Elec       q    Type
                         _______ _______ _______ _____ _____    ______ ____

>  <TORSDO>
F 18

$$$$
=
 OpenBabel10232409533D

 59 63  0  0  1  0  0  0  0  0999 V2000
  190.6950  177.3890  142.1570 C   0  0  0  0  0  2  0  0  0  0  0  0
  192.3470  176.9180  140.3810 C   0  0  0  0  0  2  0  0  0  0  0  0
  188.8450  177.1580  138.8090 C   0  0  0  0  0  3  0  0  0  0  0  0
  190.4860  176.2410  135.8010 N   0  0  0  0  0  0  0  0  0  0  0  0
  190.4520  176.5330  137.1180 C   0  0  0  0  0  0  0  0  0  0  0  0
  192.0340  177.8030  141.5750 C   0  0  0  0  0  2  0  0  0  0  0  0
  191.2290  176.9040  139.3660 C   0  0  0  0  0  0  0  0  0  0  0  0
  189.8820  177.1860  139.7670 C   0  0  1  0  0  3  0  0  0  0  0  0
  189.1740  176.8130  137.5030 C   0  0  0  0  0  0  0  0  0  0  0  0
  191.5150  176.5560  138.0190 C   0  0  0  0  0  0  0  0  0  0  0  0
  188.4230  176.6780  136.3610 C   0  0  0  0  0  0  0  0  0  0  0  0
  189.2400  176.3270  135.3410 N   0  0  0  0  0  0  0  0  0  0  0  0
  189.5780  177.6940  141.1620 C   0  0  1  0  0  3  0  0  0  0  0  0
  185.8070  177.0020  136.1420 C   0  0  0  0  0  0  0  0  0  0  0  0
  184.3620  177.1840  136.0300 C   0  0  0  0  0  1  0  0  0  0  0  0
  186.9990  176.8520  136.2400 C   0  0  0  0  0  0  0  0  0  0  0  0
  192.8800  176.2710  137.5620 C   0  0  0  0  0  3  0  0  0  0  0  0
  193.2870  175.0200  137.3850 C   0  0  0  0  0  3  0  0  0  0  0  0
  194.6610  174.6880  136.9860 C   0  0  0  0  0  0  0  0  0  0  0  0
  195.1970  173.4580  137.3730 C   0  0  0  0  0  3  0  0  0  0  0  0
  196.7680  175.2570  135.9330 C   0  0  0  0  0  3  0  0  0  0  0  0
  196.5190  173.1120  137.0470 C   0  0  0  0  0  0  0  0  0  0  0  0
  195.4520  175.5850  136.2570 C   0  0  0  0  0  3  0  0  0  0  0  0
  197.3140  174.0280  136.3370 C   0  0  0  0  0  0  0  0  0  0  0  0
  198.7250  173.6680  135.9760 C   0  0  0  0  0  3  0  0  0  0  0  0
  199.5990  173.5900  137.2080 C   0  0  0  0  0  1  0  0  0  0  0  0
  199.2990  174.6840  135.0030 C   0  0  0  0  0  1  0  0  0  0  0  0
  197.0580  171.8660  137.4090 O   0  0  0  0  0  0  0  0  0  0  0  0
  195.5950  170.4400  136.0760 C   0  0  0  0  0  2  0  0  0  0  0  0
  196.9400  167.9340  139.1800 O   0  0  0  0  0  1  0  0  0  0  0  0
  196.5420  168.7170  138.1470 N   0  0  0  0  0  0  0  0  0  0  0  0
  198.7940  169.4350  137.7350 C   0  0  0  0  0  2  0  0  0  0  0  0
  197.8640  170.8420  135.5120 F   0  0  0  0  0  0  0  0  0  0  0  0
  194.6630  169.9580  137.1830 C   0  0  0  0  0  2  0  0  0  0  0  0
  197.0190  170.6880  136.5990 C   0  0  1  0  0  0  0  0  0  0  0  0
  195.1630  168.6090  137.6800 C   0  0  0  0  0  2  0  0  0  0  0  0
  197.4970  169.5230  137.4330 C   0  0  0  0  0  0  0  0  0  0  0  0
  188.2550  177.1670  141.7040 C   0  0  0  0  0  2  0  0  0  0  0  0
  186.0700  177.7720  139.9770 O   0  0  0  0  0  0  0  0  0  0  0  0
  186.2750  178.5420  140.9560 C   0  0  0  0  0  0  0  0  0  0  0  0
  187.3320  178.2720  141.8760 N   0  0  0  0  0  2  0  0  0  0  0  0
  185.4620  179.6580  141.1630 O   0  0  0  0  0  0  0  0  0  0  0  0
  184.0730  179.6740  140.8430 C   0  0  1  0  0  3  0  0  0  0  0  0
  183.8740  179.2130  139.3990 C   0  0  0  0  0  2  0  0  0  0  0  0
  183.4030  180.3240  138.5060 C   0  0  0  0  0  3  0  0  0  0  0  0
  182.1410  180.7260  138.4510 C   0  0  0  0  0  3  0  0  0  0  0  0
  181.1640  180.1330  139.2360 O   0  0  0  0  0  1  0  0  0  0  0  0
  183.3190  178.7920  141.8480 C   0  0  1  0  0  3  0  0  0  0  0  0
  181.1700  177.7920  141.4930 O   0  0  0  0  0  0  0  0  0  0  0  0
  182.8970  176.9690  140.1440 N   0  0  0  0  0  2  0  0  0  0  0  0
  182.3910  177.8220  141.1770 C   0  0  0  0  0  0  0  0  0  0  0  0
  182.1120  175.9630  139.4430 C   0  0  0  0  0  3  0  0  0  0  0  0
  180.9920  176.6070  138.6420 C   0  0  0  0  0  1  0  0  0  0  0  0
  182.9900  175.1180  138.5390 C   0  0  0  0  0  1  0  0  0  0  0  0
  184.2260  178.1190  142.7160 O   0  0  0  0  0  0  0  0  0  0  0  0
  184.3310  178.4300  144.0760 C   0  0  0  0  0  0  0  0  0  0  0  0
  183.2850  178.9480  144.6990 C   0  0  0  0  0  2  0  0  0  0  0  0
  185.6030  178.2320  144.8350 C   0  0  0  0  0  2  0  0  0  0  0  0
  185.5980  179.0860  146.0910 C   0  0  0  0  0  1  0  0  0  0  0  0
  2  6  1  0  0  0  0
  4  5  2  0  0  0  0
  5  9  1  0  0  0  0
  5 10  1  0  0  0  0
  6  1  1  0  0  0  0
  7  8  1  0  0  0  0
  7  2  1  0  0  0  0
  8  3  1  6  0  0  0
  8 13  1  0  0  0  0
  9  3  2  0  0  0  0
 10  7  2  0  0  0  0
 11  9  1  0  0  0  0
 12  4  1  0  0  0  0
 12 11  2  0  0  0  0
 13 38  1  1  0  0  0
 13  1  1  0  0  0  0
 14 16  3  0  0  0  0
 15 14  1  0  0  0  0
 16 11  1  0  0  0  0
 17 10  1  0  0  0  0
 18 17  2  0  0  0  0
 19 20  1  0  0  0  0
 19 18  1  0  0  0  0
 21 23  1  0  0  0  0
 21 24  2  0  0  0  0
 22 20  2  0  0  0  0
 22 28  1  0  0  0  0
 23 19  2  0  0  0  0
 24 22  1  0  0  0  0
 25 24  1  0  0  0  0
 25 26  1  0  0  0  0
 27 25  1  0  0  0  0
 29 35  1  0  0  0  0
 29 34  1  0  0  0  0
 31 30  1  0  0  0  0
 34 36  1  0  0  0  0
 35 33  1  6  0  0  0
 35 28  1  0  0  0  0
 35 37  1  0  0  0  0
 36 31  1  0  0  0  0
 37 32  2  0  0  0  0
 37 31  1  0  0  0  0
 38 41  1  0  0  0  0
 39 40  2  0  0  0  0
 40 42  1  0  0  0  0
 40 41  1  0  0  0  0
 43 44  1  6  0  0  0
 43 42  1  0  0  0  0
 43 48  1  0  0  0  0
 45 44  1  0  0  0  0
 46 45  2  0  0  0  0
 46 47  1  0  0  0  0
 48 51  1  6  0  0  0
 48 55  1  0  0  0  0
 50 51  1  0  0  0  0
 51 49  2  0  0  0  0
 52 50  1  0  0  0  0
 53 52  1  0  0  0  0
 54 52  1  0  0  0  0
 55 56  1  0  0  0  0
 56 57  2  0  0  0  0
 56 58  1  0  0  0  0
 58 59  1  0  0  0  0
M  END
>  <MODEL>
9

>  <REMARK>
 VINA RESULT:      -5.1      2.771      4.869
  Name = 
  18 active torsions:
  status: ('A' for Active; 'I' for Inactive)
    1  A    between atoms: O_1  and  C_3
    2  A    between atoms: O_1  and  C_22
    3  A    between atoms: C_2  and  N_34
    4  A    between atoms: C_3  and  C_4
    5  A    between atoms: C_5  and  C_35
    6  A    between atoms: C_5  and  C_49
    7  A    between atoms: C_7  and  C_39
    8  A    between atoms: O_15  and  C_25
    9  A    between atoms: O_15  and  C_40
   10  A    between atoms: C_19  and  O_45
   11  A    between atoms: C_22  and  C_38
   12  A    between atoms: C_22  and  C_49
   13  A    between atoms: C_23  and  C_55
   14  A    between atoms: C_30  and  C_36
   15  A    between atoms: C_41  and  C_53
   16  A    between atoms: C_41  and  N_58
   17  A    between atoms: C_44  and  C_52
   18  A    between atoms: O_45  and  C_49
                            x       y       z     vdW  Elec       q    Type
                         _______ _______ _______ _____ _____    ______ ____

>  <TORSDO>
F 18

$$$$
