=
 OpenBabel10232407463D

 25 26  0  0  1  0  0  0  0  0999 V2000
  185.6500  173.7980  137.5720 C   0  0  0  0  0  3  0  0  0  0  0  0
  184.7980  172.8000  137.3470 C   0  0  0  0  0  3  0  0  0  0  0  0
  186.8030  174.1220  136.6800 C   0  0  1  0  0  3  0  0  0  0  0  0
  184.8020  171.9340  136.1560 C   0  0  0  0  0  3  0  0  0  0  0  0
  188.8750  175.5480  136.8210 C   0  0  0  0  0  0  0  0  0  0  0  0
  185.7130  173.6030  134.5110 C   0  0  0  0  0  3  0  0  0  0  0  0
  186.3410  174.4970  135.2780 C   0  0  0  0  0  0  0  0  0  0  0  0
  186.6210  176.9880  135.4200 C   0  0  0  0  0  2  0  0  0  0  0  0
  186.8090  175.7390  134.5690 C   0  0  0  0  0  2  0  0  0  0  0  0
  189.0230  176.6390  136.1250 N   0  0  0  0  0  0  0  0  0  0  0  0
  187.9660  177.6150  135.8240 C   0  0  2  0  0  3  0  0  0  0  0  0
  185.2000  172.2840  134.9290 C   0  0  0  0  0  3  0  0  0  0  0  0
  187.5880  175.1730  137.3110 N   0  0  0  0  0  2  0  0  0  0  0  0
  188.7710  179.2590  137.3630 O   0  0  0  0  0  0  0  0  0  0  0  0
  187.7900  178.5830  136.9550 C   0  0  0  0  0  0  0  0  0  0  0  0
  186.3690  178.6170  138.8320 N   0  0  0  0  0  0  0  0  0  0  0  0
  186.5170  178.7570  137.5780 N   0  0  0  0  0  0  0  0  0  0  0  0
  183.9030  177.7270  139.1030 O   0  0  0  0  0  0  0  0  0  0  0  0
  184.2390  180.1530  139.1230 O   0  0  0  0  0  0  0  0  0  0  0  0
  184.8150  178.8340  139.5530 S   0  0  0  0  0  0  0  0  0  0  0  0
  184.9620  178.7830  141.3230 C   0  0  0  0  0  1  0  0  0  0  0  0
  190.4600  174.0670  135.6300 C   0  0  0  0  0  1  0  0  0  0  0  0
  190.0210  174.5990  136.9830 C   0  0  1  0  0  3  0  0  0  0  0  0
  191.1820  175.2710  137.7020 C   0  0  0  0  0  2  0  0  0  0  0  0
  190.7380  175.8000  138.9790 N   0  0  0  0  0  1  0  0  0  0  0  0
  2  1  2  0  0  0  0
  3 13  1  0  0  0  0
  3  1  1  1  0  0  0
  4  2  1  0  0  0  0
  5 23  1  0  0  0  0
  5 13  1  0  0  0  0
  6 12  1  0  0  0  0
  6  7  2  0  0  0  0
  7  3  1  0  0  0  0
  8 11  1  0  0  0  0
  9  7  1  0  0  0  0
  9  8  1  0  0  0  0
 10  5  2  0  0  0  0
 11 10  1  0  0  0  0
 11 15  1  1  0  0  0
 12  4  2  0  0  0  0
 15 14  2  0  0  0  0
 15 17  1  0  0  0  0
 16 20  1  0  0  0  0
 17 16  2  0  0  0  0
 18 20  2  0  0  0  0
 19 20  2  0  0  0  0
 20 21  1  0  0  0  0
 23 22  1  6  0  0  0
 23 24  1  0  0  0  0
 24 25  1  0  0  0  0
M  END
>  <MODEL>
1

>  <REMARK>
 VINA RESULT:      -5.6      0.000      0.000
  Name = 
  5 active torsions:
  status: ('A' for Active; 'I' for Inactive)
    1  A    between atoms: C_1  and  C_22
    2  A    between atoms: N_3  and  S_17
    3  A    between atoms: C_9  and  C_22
    4  A    between atoms: C_11  and  N_18
    5  A    between atoms: C_11  and  C_23
                            x       y       z     vdW  Elec       q    Type
                         _______ _______ _______ _____ _____    ______ ____

>  <TORSDO>
F 5

$$$$
=
 OpenBabel10232407463D

 25 26  0  0  1  0  0  0  0  0999 V2000
  190.4170  179.2520  143.6440 C   0  0  0  0  0  3  0  0  0  0  0  0
  191.3750  178.9820  144.5270 C   0  0  0  0  0  3  0  0  0  0  0  0
  189.8890  178.2570  142.6630 C   0  0  1  0  0  3  0  0  0  0  0  0
  191.9880  177.6590  144.7370 C   0  0  0  0  0  3  0  0  0  0  0  0
  188.4600  178.3220  140.5890 C   0  0  0  0  0  0  0  0  0  0  0  0
  190.0020  176.2490  144.1170 C   0  0  0  0  0  3  0  0  0  0  0  0
  189.2590  177.0600  143.3590 C   0  0  0  0  0  0  0  0  0  0  0  0
  186.8380  177.6440  143.0440 C   0  0  0  0  0  2  0  0  0  0  0  0
  187.8880  176.5430  143.0150 C   0  0  0  0  0  2  0  0  0  0  0  0
  187.2490  177.8420  140.5580 N   0  0  0  0  0  0  0  0  0  0  0  0
  186.2640  177.9290  141.6460 C   0  0  2  0  0  3  0  0  0  0  0  0
  191.3920  176.4770  144.5560 C   0  0  0  0  0  3  0  0  0  0  0  0
  188.9610  178.9410  141.7730 N   0  0  0  0  0  2  0  0  0  0  0  0
  185.6840  180.0600  142.5650 O   0  0  0  0  0  0  0  0  0  0  0  0
  185.5430  179.2430  141.6160 C   0  0  0  0  0  0  0  0  0  0  0  0
  183.5550  179.0560  140.3700 N   0  0  0  0  0  0  0  0  0  0  0  0
  184.6980  179.5890  140.5190 N   0  0  0  0  0  0  0  0  0  0  0  0
  182.8870  178.6140  137.8600 O   0  0  0  0  0  0  0  0  0  0  0  0
  182.8190  180.9280  138.6580 O   0  0  0  0  0  0  0  0  0  0  0  0
  182.5580  179.4970  139.0310 S   0  0  0  0  0  0  0  0  0  0  0  0
  180.8470  179.2830  139.4590 C   0  0  0  0  0  1  0  0  0  0  0  0
  190.0640  176.7380  139.5680 C   0  0  0  0  0  1  0  0  0  0  0  0
  189.3880  178.0920  139.4380 C   0  0  1  0  0  3  0  0  0  0  0  0
  188.6450  178.2000  138.1140 C   0  0  0  0  0  2  0  0  0  0  0  0
  188.9060  179.4900  137.5010 N   0  0  0  0  0  1  0  0  0  0  0  0
  1  2  2  0  0  0  0
  2  4  1  0  0  0  0
  3  7  1  0  0  0  0
  3  1  1  1  0  0  0
  5 13  1  0  0  0  0
  6 12  1  0  0  0  0
  7  6  2  0  0  0  0
  9  8  1  0  0  0  0
  9  7  1  0  0  0  0
 10  5  2  0  0  0  0
 10 11  1  0  0  0  0
 11 15  1  1  0  0  0
 11  8  1  0  0  0  0
 12  4  2  0  0  0  0
 13  3  1  0  0  0  0
 15 14  2  0  0  0  0
 16 17  2  0  0  0  0
 17 15  1  0  0  0  0
 18 20  2  0  0  0  0
 19 20  2  0  0  0  0
 20 21  1  0  0  0  0
 20 16  1  0  0  0  0
 23 22  1  1  0  0  0
 23  5  1  0  0  0  0
 24 23  1  0  0  0  0
 25 24  1  0  0  0  0
M  END
>  <MODEL>
2

>  <REMARK>
 VINA RESULT:      -5.5      4.372      7.032
  Name = 
  5 active torsions:
  status: ('A' for Active; 'I' for Inactive)
    1  A    between atoms: C_1  and  C_22
    2  A    between atoms: N_3  and  S_17
    3  A    between atoms: C_9  and  C_22
    4  A    between atoms: C_11  and  N_18
    5  A    between atoms: C_11  and  C_23
                            x       y       z     vdW  Elec       q    Type
                         _______ _______ _______ _____ _____    ______ ____

>  <TORSDO>
F 5

$$$$
=
 OpenBabel10232407463D

 25 26  0  0  1  0  0  0  0  0999 V2000
  188.3820  178.5320  136.9270 C   0  0  0  0  0  3  0  0  0  0  0  0
  187.3000  178.6800  136.1670 C   0  0  0  0  0  3  0  0  0  0  0  0
  188.5920  177.3830  137.8570 C   0  0  1  0  0  3  0  0  0  0  0  0
  186.2020  177.7040  136.0550 C   0  0  0  0  0  3  0  0  0  0  0  0
  190.1640  176.8300  139.7480 C   0  0  0  0  0  0  0  0  0  0  0  0
  187.5420  175.6170  136.4650 C   0  0  0  0  0  3  0  0  0  0  0  0
  188.6240  176.0550  137.1150 C   0  0  0  0  0  0  0  0  0  0  0  0
  191.1010  175.6470  137.1320 C   0  0  0  0  0  2  0  0  0  0  0  0
  189.7160  175.0380  137.3060 C   0  0  0  0  0  2  0  0  0  0  0  0
  191.0890  175.9180  139.6450 N   0  0  0  0  0  0  0  0  0  0  0  0
  191.8970  175.6470  138.4480 C   0  0  2  0  0  3  0  0  0  0  0  0
  186.3090  176.3780  136.1870 C   0  0  0  0  0  3  0  0  0  0  0  0
  189.8090  177.6290  138.6190 N   0  0  0  0  0  2  0  0  0  0  0  0
  193.4100  177.2490  139.3780 O   0  0  0  0  0  0  0  0  0  0  0  0
  193.0690  176.5790  138.3680 C   0  0  0  0  0  0  0  0  0  0  0  0
  194.8060  175.9640  136.9030 N   0  0  0  0  0  0  0  0  0  0  0  0
  193.8140  176.7150  137.1570 N   0  0  0  0  0  0  0  0  0  0  0  0
  197.1030  176.5410  135.7470 O   0  0  0  0  0  0  0  0  0  0  0  0
  195.0540  177.2400  134.6020 O   0  0  0  0  0  0  0  0  0  0  0  0
  195.6860  176.1560  135.4290 S   0  0  0  0  0  0  0  0  0  0  0  0
  195.6870  174.6260  134.5260 C   0  0  0  0  0  1  0  0  0  0  0  0
  190.1520  176.4230  142.1890 C   0  0  0  0  0  1  0  0  0  0  0  0
  189.3590  176.9460  141.0030 C   0  0  1  0  0  3  0  0  0  0  0  0
  188.9250  178.3860  141.2370 C   0  0  0  0  0  2  0  0  0  0  0  0
  187.4760  178.4770  141.2340 N   0  0  0  0  0  1  0  0  0  0  0  0
  2  1  2  0  0  0  0
  3  1  1  6  0  0  0
  3 13  1  0  0  0  0
  4  2  1  0  0  0  0
  4 12  2  0  0  0  0
  5 23  1  0  0  0  0
  6  7  2  0  0  0  0
  7  9  1  0  0  0  0
  7  3  1  0  0  0  0
  8  9  1  0  0  0  0
  8 11  1  0  0  0  0
 10  5  2  0  0  0  0
 11 15  1  6  0  0  0
 11 10  1  0  0  0  0
 12  6  1  0  0  0  0
 13  5  1  0  0  0  0
 15 14  2  0  0  0  0
 16 17  2  0  0  0  0
 17 15  1  0  0  0  0
 19 20  2  0  0  0  0
 20 18  2  0  0  0  0
 20 16  1  0  0  0  0
 21 20  1  0  0  0  0
 23 24  1  0  0  0  0
 23 22  1  1  0  0  0
 25 24  1  0  0  0  0
M  END
>  <MODEL>
3

>  <REMARK>
 VINA RESULT:      -5.3      4.502      7.076
  Name = 
  5 active torsions:
  status: ('A' for Active; 'I' for Inactive)
    1  A    between atoms: C_1  and  C_22
    2  A    between atoms: N_3  and  S_17
    3  A    between atoms: C_9  and  C_22
    4  A    between atoms: C_11  and  N_18
    5  A    between atoms: C_11  and  C_23
                            x       y       z     vdW  Elec       q    Type
                         _______ _______ _______ _____ _____    ______ ____

>  <TORSDO>
F 5

$$$$
=
 OpenBabel10232407463D

 25 26  0  0  1  0  0  0  0  0999 V2000
  189.4950  175.7060  142.9530 C   0  0  0  0  0  3  0  0  0  0  0  0
  190.7110  175.3450  143.3550 C   0  0  0  0  0  3  0  0  0  0  0  0
  188.8000  176.9430  143.4200 C   0  0  1  0  0  3  0  0  0  0  0  0
  191.5850  176.1400  144.2340 C   0  0  0  0  0  3  0  0  0  0  0  0
  186.4560  177.8630  143.3300 C   0  0  0  0  0  0  0  0  0  0  0  0
  190.7870  178.4240  143.5510 C   0  0  0  0  0  3  0  0  0  0  0  0
  189.5720  178.1990  143.0440 C   0  0  0  0  0  0  0  0  0  0  0  0
  188.1750  178.9590  141.1020 C   0  0  0  0  0  2  0  0  0  0  0  0
  188.9340  179.3740  142.3540 C   0  0  0  0  0  2  0  0  0  0  0  0
  186.1340  178.8880  142.5920 N   0  0  0  0  0  0  0  0  0  0  0  0
  186.6600  179.1770  141.2500 C   0  0  2  0  0  3  0  0  0  0  0  0
  191.6150  177.4740  144.3190 C   0  0  0  0  0  3  0  0  0  0  0  0
  187.4450  176.9350  142.8850 N   0  0  0  0  0  2  0  0  0  0  0  0
  184.6600  178.2500  140.3220 O   0  0  0  0  0  0  0  0  0  0  0  0
  185.9020  178.4210  140.2000 C   0  0  0  0  0  0  0  0  0  0  0  0
  186.5300  178.4900  137.9330 N   0  0  0  0  0  0  0  0  0  0  0  0
  186.5690  177.8930  139.0540 N   0  0  0  0  0  0  0  0  0  0  0  0
  188.7250  178.4180  136.4770 O   0  0  0  0  0  0  0  0  0  0  0  0
  186.5880  178.1540  135.3120 O   0  0  0  0  0  0  0  0  0  0  0  0
  187.3480  177.8240  136.5660 S   0  0  0  0  0  0  0  0  0  0  0  0
  187.4850  176.0610  136.7460 C   0  0  0  0  0  1  0  0  0  0  0  0
  186.9880  178.0170  145.7410 C   0  0  0  0  0  1  0  0  0  0  0  0
  185.9050  177.7310  144.7140 C   0  0  1  0  0  3  0  0  0  0  0  0
  184.7150  178.6590  144.9130 C   0  0  0  0  0  2  0  0  0  0  0  0
  184.4730  178.8610  146.3310 N   0  0  0  0  0  1  0  0  0  0  0  0
  1  2  2  0  0  0  0
  2  4  1  0  0  0  0
  3  1  1  6  0  0  0
  4 12  2  0  0  0  0
  5 23  1  0  0  0  0
  6 12  1  0  0  0  0
  7  3  1  0  0  0  0
  7  6  2  0  0  0  0
  8 11  1  0  0  0  0
  8  9  1  0  0  0  0
  9  7  1  0  0  0  0
 10  5  2  0  0  0  0
 11 15  1  6  0  0  0
 11 10  1  0  0  0  0
 13  5  1  0  0  0  0
 13  3  1  0  0  0  0
 15 14  2  0  0  0  0
 16 17  2  0  0  0  0
 17 15  1  0  0  0  0
 18 20  2  0  0  0  0
 19 20  2  0  0  0  0
 20 21  1  0  0  0  0
 20 16  1  0  0  0  0
 23 24  1  0  0  0  0
 23 22  1  1  0  0  0
 24 25  1  0  0  0  0
M  END
>  <MODEL>
4

>  <REMARK>
 VINA RESULT:      -5.3      4.289      7.876
  Name = 
  5 active torsions:
  status: ('A' for Active; 'I' for Inactive)
    1  A    between atoms: C_1  and  C_22
    2  A    between atoms: N_3  and  S_17
    3  A    between atoms: C_9  and  C_22
    4  A    between atoms: C_11  and  N_18
    5  A    between atoms: C_11  and  C_23
                            x       y       z     vdW  Elec       q    Type
                         _______ _______ _______ _____ _____    ______ ____

>  <TORSDO>
F 5

$$$$
=
 OpenBabel10232407463D

 25 26  0  0  1  0  0  0  0  0999 V2000
  189.3680  176.1970  142.4280 C   0  0  0  0  0  3  0  0  0  0  0  0
  189.2810  176.4020  143.7400 C   0  0  0  0  0  3  0  0  0  0  0  0
  189.8410  177.2270  141.4560 C   0  0  1  0  0  3  0  0  0  0  0  0
  189.7190  177.6230  144.4380 C   0  0  0  0  0  3  0  0  0  0  0  0
  189.8140  177.5240  138.9540 C   0  0  0  0  0  0  0  0  0  0  0  0
  191.5860  178.2690  142.8820 C   0  0  0  0  0  3  0  0  0  0  0  0
  191.2750  177.6520  141.7390 C   0  0  0  0  0  0  0  0  0  0  0  0
  192.4360  176.3740  139.9160 C   0  0  0  0  0  2  0  0  0  0  0  0
  192.3400  177.6900  140.6770 C   0  0  0  0  0  2  0  0  0  0  0  0
  190.8950  177.4570  138.2300 N   0  0  0  0  0  0  0  0  0  0  0  0
  192.0160  176.5300  138.4450 C   0  0  2  0  0  3  0  0  0  0  0  0
  190.7160  178.4310  144.0640 C   0  0  0  0  0  3  0  0  0  0  0  0
  189.6680  176.6990  140.1100 N   0  0  0  0  0  2  0  0  0  0  0  0
  192.6440  174.3210  137.7780 O   0  0  0  0  0  0  0  0  0  0  0  0
  191.7390  175.1960  137.8200 C   0  0  0  0  0  0  0  0  0  0  0  0
  189.9660  173.7270  137.3300 N   0  0  0  0  0  0  0  0  0  0  0  0
  190.4550  174.8980  137.2720 N   0  0  0  0  0  0  0  0  0  0  0  0
  187.8310  172.1830  137.3200 O   0  0  0  0  0  0  0  0  0  0  0  0
  188.5430  173.1420  135.1820 O   0  0  0  0  0  0  0  0  0  0  0  0
  188.4100  173.4000  136.6560 S   0  0  0  0  0  0  0  0  0  0  0  0
  187.3310  174.7840  136.9360 C   0  0  0  0  0  1  0  0  0  0  0  0
  188.9790  179.1400  137.2770 C   0  0  0  0  0  1  0  0  0  0  0  0
  188.7850  178.5720  138.6720 C   0  0  1  0  0  3  0  0  0  0  0  0
  187.3800  178.0070  138.8330 C   0  0  0  0  0  2  0  0  0  0  0  0
  186.5120  178.5290  137.7920 N   0  0  0  0  0  1  0  0  0  0  0  0
  1  2  2  0  0  0  0
  2  4  1  0  0  0  0
  3  7  1  0  0  0  0
  3  1  1  1  0  0  0
  5 13  1  0  0  0  0
  6 12  1  0  0  0  0
  7  6  2  0  0  0  0
  8  9  1  0  0  0  0
  9  7  1  0  0  0  0
 10 11  1  0  0  0  0
 10  5  2  0  0  0  0
 11 15  1  1  0  0  0
 11  8  1  0  0  0  0
 12  4  2  0  0  0  0
 13  3  1  0  0  0  0
 14 15  2  0  0  0  0
 17 16  2  0  0  0  0
 17 15  1  0  0  0  0
 19 20  2  0  0  0  0
 20 21  1  0  0  0  0
 20 18  2  0  0  0  0
 20 16  1  0  0  0  0
 23 22  1  6  0  0  0
 23 24  1  0  0  0  0
 23  5  1  0  0  0  0
 25 24  1  0  0  0  0
M  END
>  <MODEL>
5

>  <REMARK>
 VINA RESULT:      -5.3      4.265      7.164
  Name = 
  5 active torsions:
  status: ('A' for Active; 'I' for Inactive)
    1  A    between atoms: C_1  and  C_22
    2  A    between atoms: N_3  and  S_17
    3  A    between atoms: C_9  and  C_22
    4  A    between atoms: C_11  and  N_18
    5  A    between atoms: C_11  and  C_23
                            x       y       z     vdW  Elec       q    Type
                         _______ _______ _______ _____ _____    ______ ____

>  <TORSDO>
F 5

$$$$
=
 OpenBabel10232407463D

 25 26  0  0  1  0  0  0  0  0999 V2000
  191.6380  175.9800  134.7740 C   0  0  0  0  0  3  0  0  0  0  0  0
  192.8220  175.5420  134.3540 C   0  0  0  0  0  3  0  0  0  0  0  0
  190.8560  175.3360  135.8710 C   0  0  1  0  0  3  0  0  0  0  0  0
  193.5770  174.4300  134.9570 C   0  0  0  0  0  3  0  0  0  0  0  0
  188.4990  175.4690  136.7520 C   0  0  0  0  0  0  0  0  0  0  0  0
  192.7640  174.6930  137.3210 C   0  0  0  0  0  3  0  0  0  0  0  0
  191.6130  175.3580  137.1900 C   0  0  0  0  0  0  0  0  0  0  0  0
  190.3820  177.2280  138.3260 C   0  0  0  0  0  2  0  0  0  0  0  0
  191.0020  175.8450  138.4760 C   0  0  0  0  0  2  0  0  0  0  0  0
  188.2120  176.0030  137.9060 N   0  0  0  0  0  0  0  0  0  0  0  0
  188.8530  177.1930  138.4830 C   0  0  2  0  0  3  0  0  0  0  0  0
  193.5490  174.0630  136.2410 C   0  0  0  0  0  3  0  0  0  0  0  0
  189.5600  175.9960  135.9570 N   0  0  0  0  0  2  0  0  0  0  0  0
  188.9480  179.3330  137.4200 O   0  0  0  0  0  0  0  0  0  0  0  0
  188.2280  178.4500  137.9570 C   0  0  0  0  0  0  0  0  0  0  0  0
  186.2200  178.6380  139.1710 N   0  0  0  0  0  0  0  0  0  0  0  0
  186.8190  178.6610  138.0510 N   0  0  0  0  0  0  0  0  0  0  0  0
  183.8480  178.1290  138.1420 O   0  0  0  0  0  0  0  0  0  0  0  0
  184.2180  180.3600  139.0810 O   0  0  0  0  0  0  0  0  0  0  0  0
  184.5140  178.8960  139.2490 S   0  0  0  0  0  0  0  0  0  0  0  0
  183.8900  178.3250  140.8110 C   0  0  0  0  0  1  0  0  0  0  0  0
  188.5510  172.9980  136.8820 C   0  0  0  0  0  1  0  0  0  0  0  0
  187.8230  174.2070  136.3190 C   0  0  1  0  0  3  0  0  0  0  0  0
  186.3620  174.2020  136.7450 C   0  0  0  0  0  2  0  0  0  0  0  0
  186.0720  173.0060  137.5170 N   0  0  0  0  0  1  0  0  0  0  0  0
  2  1  2  0  0  0  0
  2  4  1  0  0  0  0
  3  1  1  6  0  0  0
  3 13  1  0  0  0  0
  3  7  1  0  0  0  0
  4 12  2  0  0  0  0
  5 10  2  0  0  0  0
  7  6  2  0  0  0  0
  7  9  1  0  0  0  0
  8  9  1  0  0  0  0
  8 11  1  0  0  0  0
 10 11  1  0  0  0  0
 11 15  1  6  0  0  0
 12  6  1  0  0  0  0
 13  5  1  0  0  0  0
 14 15  2  0  0  0  0
 15 17  1  0  0  0  0
 16 20  1  0  0  0  0
 17 16  2  0  0  0  0
 18 20  2  0  0  0  0
 19 20  2  0  0  0  0
 20 21  1  0  0  0  0
 23 24  1  0  0  0  0
 23  5  1  0  0  0  0
 23 22  1  1  0  0  0
 24 25  1  0  0  0  0
M  END
>  <MODEL>
6

>  <REMARK>
 VINA RESULT:      -5.3      1.684      4.673
  Name = 
  5 active torsions:
  status: ('A' for Active; 'I' for Inactive)
    1  A    between atoms: C_1  and  C_22
    2  A    between atoms: N_3  and  S_17
    3  A    between atoms: C_9  and  C_22
    4  A    between atoms: C_11  and  N_18
    5  A    between atoms: C_11  and  C_23
                            x       y       z     vdW  Elec       q    Type
                         _______ _______ _______ _____ _____    ______ ____

>  <TORSDO>
F 5

$$$$
=
 OpenBabel10232407463D

 25 26  0  0  1  0  0  0  0  0999 V2000
  189.3480  175.7000  142.9330 C   0  0  0  0  0  3  0  0  0  0  0  0
  190.5930  175.3300  143.2250 C   0  0  0  0  0  3  0  0  0  0  0  0
  188.7150  176.9530  143.4390 C   0  0  1  0  0  3  0  0  0  0  0  0
  191.5550  176.1300  144.0020 C   0  0  0  0  0  3  0  0  0  0  0  0
  186.3830  177.9020  143.5520 C   0  0  0  0  0  0  0  0  0  0  0  0
  190.7220  178.4110  143.3530 C   0  0  0  0  0  3  0  0  0  0  0  0
  189.4620  178.1920  142.9670 C   0  0  0  0  0  0  0  0  0  0  0  0
  187.8960  178.9350  141.1510 C   0  0  0  0  0  2  0  0  0  0  0  0
  188.7750  179.3630  142.3180 C   0  0  0  0  0  2  0  0  0  0  0  0
  186.0050  178.9180  142.8280 N   0  0  0  0  0  0  0  0  0  0  0  0
  186.4040  179.1750  141.4370 C   0  0  2  0  0  3  0  0  0  0  0  0
  191.6080  177.4640  144.0580 C   0  0  0  0  0  3  0  0  0  0  0  0
  187.3150  176.9540  143.0340 N   0  0  0  0  0  2  0  0  0  0  0  0
  186.0270  177.9840  139.3980 O   0  0  0  0  0  0  0  0  0  0  0  0
  185.5420  178.4100  140.4790 C   0  0  0  0  0  0  0  0  0  0  0  0
  183.2470  178.9250  140.3760 N   0  0  0  0  0  0  0  0  0  0  0  0
  184.1700  178.1500  140.7780 N   0  0  0  0  0  0  0  0  0  0  0  0
  181.3900  178.7350  142.2350 O   0  0  0  0  0  0  0  0  0  0  0  0
  181.2710  177.1710  140.3540 O   0  0  0  0  0  0  0  0  0  0  0  0
  181.5980  178.5820  140.7550 S   0  0  0  0  0  0  0  0  0  0  0  0
  180.5340  179.7180  139.8970 C   0  0  0  0  0  1  0  0  0  0  0  0
  187.1560  178.0340  145.9000 C   0  0  0  0  0  1  0  0  0  0  0  0
  185.9650  177.8040  144.9850 C   0  0  1  0  0  3  0  0  0  0  0  0
  184.8500  178.7930  145.2920 C   0  0  0  0  0  2  0  0  0  0  0  0
  184.5510  178.7810  146.7140 N   0  0  0  0  0  1  0  0  0  0  0  0
  1  2  2  0  0  0  0
  2  4  1  0  0  0  0
  3  1  1  6  0  0  0
  4 12  2  0  0  0  0
  5 23  1  0  0  0  0
  6 12  1  0  0  0  0
  7  6  2  0  0  0  0
  7  3  1  0  0  0  0
  8 11  1  0  0  0  0
  8  9  1  0  0  0  0
  9  7  1  0  0  0  0
 10  5  2  0  0  0  0
 11 15  1  6  0  0  0
 11 10  1  0  0  0  0
 13  3  1  0  0  0  0
 13  5  1  0  0  0  0
 14 15  2  0  0  0  0
 15 17  1  0  0  0  0
 16 20  1  0  0  0  0
 16 17  2  0  0  0  0
 19 20  2  0  0  0  0
 20 18  2  0  0  0  0
 21 20  1  0  0  0  0
 23 24  1  0  0  0  0
 23 22  1  1  0  0  0
 24 25  1  0  0  0  0
M  END
>  <MODEL>
7

>  <REMARK>
 VINA RESULT:      -5.3      5.605      7.840
  Name = 
  5 active torsions:
  status: ('A' for Active; 'I' for Inactive)
    1  A    between atoms: C_1  and  C_22
    2  A    between atoms: N_3  and  S_17
    3  A    between atoms: C_9  and  C_22
    4  A    between atoms: C_11  and  N_18
    5  A    between atoms: C_11  and  C_23
                            x       y       z     vdW  Elec       q    Type
                         _______ _______ _______ _____ _____    ______ ____

>  <TORSDO>
F 5

$$$$
=
 OpenBabel10232407463D

 25 26  0  0  1  0  0  0  0  0999 V2000
  189.1850  176.2020  142.5170 C   0  0  0  0  0  3  0  0  0  0  0  0
  188.9680  176.4000  143.8150 C   0  0  0  0  0  3  0  0  0  0  0  0
  189.6710  177.2620  141.5840 C   0  0  1  0  0  3  0  0  0  0  0  0
  189.2580  177.6490  144.5410 C   0  0  0  0  0  3  0  0  0  0  0  0
  189.8460  177.5560  139.0880 C   0  0  0  0  0  0  0  0  0  0  0  0
  191.2060  178.4200  143.1530 C   0  0  0  0  0  3  0  0  0  0  0  0
  191.0410  177.7840  141.9900 C   0  0  0  0  0  0  0  0  0  0  0  0
  192.4440  176.5890  140.2850 C   0  0  0  0  0  2  0  0  0  0  0  0
  192.1920  177.8940  141.0270 C   0  0  0  0  0  2  0  0  0  0  0  0
  190.9890  177.5630  138.4630 N   0  0  0  0  0  0  0  0  0  0  0  0
  192.1470  176.7160  138.7820 C   0  0  2  0  0  3  0  0  0  0  0  0
  190.2270  178.5230  144.2510 C   0  0  0  0  0  3  0  0  0  0  0  0
  189.6540  176.7230  140.2310 N   0  0  0  0  0  2  0  0  0  0  0  0
  190.8900  174.8110  138.0650 O   0  0  0  0  0  0  0  0  0  0  0  0
  192.0180  175.3650  138.1420 C   0  0  0  0  0  0  0  0  0  0  0  0
  194.3130  175.2330  137.6330 N   0  0  0  0  0  0  0  0  0  0  0  0
  193.1620  174.6960  137.6110 N   0  0  0  0  0  0  0  0  0  0  0  0
  196.7820  175.3790  136.7260 O   0  0  0  0  0  0  0  0  0  0  0  0
  195.2910  173.7380  135.6870 O   0  0  0  0  0  0  0  0  0  0  0  0
  195.6750  174.3960  136.9820 S   0  0  0  0  0  0  0  0  0  0  0  0
  196.2400  173.1730  138.1410 C   0  0  0  0  0  1  0  0  0  0  0  0
  189.0870  179.1580  137.3610 C   0  0  0  0  0  1  0  0  0  0  0  0
  188.7760  178.5310  138.7090 C   0  0  1  0  0  3  0  0  0  0  0  0
  187.4120  177.8560  138.6890 C   0  0  0  0  0  2  0  0  0  0  0  0
  186.4660  178.6210  139.4820 N   0  0  0  0  0  1  0  0  0  0  0  0
  1  2  2  0  0  0  0
  2  4  1  0  0  0  0
  3  7  1  0  0  0  0
  3  1  1  1  0  0  0
  5 13  1  0  0  0  0
  6 12  1  0  0  0  0
  7  6  2  0  0  0  0
  8  9  1  0  0  0  0
  9  7  1  0  0  0  0
 10 11  1  0  0  0  0
 10  5  2  0  0  0  0
 11 15  1  1  0  0  0
 11  8  1  0  0  0  0
 12  4  2  0  0  0  0
 13  3  1  0  0  0  0
 14 15  2  0  0  0  0
 17 16  2  0  0  0  0
 17 15  1  0  0  0  0
 18 20  2  0  0  0  0
 19 20  2  0  0  0  0
 20 16  1  0  0  0  0
 20 21  1  0  0  0  0
 23 22  1  6  0  0  0
 23  5  1  0  0  0  0
 24 23  1  0  0  0  0
 24 25  1  0  0  0  0
M  END
>  <MODEL>
8

>  <REMARK>
 VINA RESULT:      -5.2      5.105      8.457
  Name = 
  5 active torsions:
  status: ('A' for Active; 'I' for Inactive)
    1  A    between atoms: C_1  and  C_22
    2  A    between atoms: N_3  and  S_17
    3  A    between atoms: C_9  and  C_22
    4  A    between atoms: C_11  and  N_18
    5  A    between atoms: C_11  and  C_23
                            x       y       z     vdW  Elec       q    Type
                         _______ _______ _______ _____ _____    ______ ____

>  <TORSDO>
F 5

$$$$
=
 OpenBabel10232407463D

 25 26  0  0  1  0  0  0  0  0999 V2000
  189.1520  175.7330  142.9690 C   0  0  0  0  0  3  0  0  0  0  0  0
  190.4440  175.4130  142.9840 C   0  0  0  0  0  3  0  0  0  0  0  0
  188.5910  176.9540  143.6210 C   0  0  1  0  0  3  0  0  0  0  0  0
  191.5170  176.2460  143.5540 C   0  0  0  0  0  3  0  0  0  0  0  0
  186.3010  177.8020  144.2440 C   0  0  0  0  0  0  0  0  0  0  0  0
  190.4750  178.4960  143.1380 C   0  0  0  0  0  3  0  0  0  0  0  0
  189.1710  178.2280  143.0250 C   0  0  0  0  0  0  0  0  0  0  0  0
  187.2270  178.9210  141.5960 C   0  0  0  0  0  2  0  0  0  0  0  0
  188.3170  179.3740  142.5580 C   0  0  0  0  0  2  0  0  0  0  0  0
  185.7380  178.8070  143.6350 N   0  0  0  0  0  0  0  0  0  0  0  0
  185.8220  179.0950  142.1960 C   0  0  2  0  0  3  0  0  0  0  0  0
  191.5270  177.5810  143.6220 C   0  0  0  0  0  3  0  0  0  0  0  0
  187.1390  176.8990  143.5220 N   0  0  0  0  0  2  0  0  0  0  0  0
  183.8190  177.7990  142.0260 O   0  0  0  0  0  0  0  0  0  0  0  0
  184.8060  178.3030  141.4280 C   0  0  0  0  0  0  0  0  0  0  0  0
  184.0960  177.4280  139.3620 N   0  0  0  0  0  0  0  0  0  0  0  0
  184.9380  178.1140  140.0190 N   0  0  0  0  0  0  0  0  0  0  0  0
  183.2480  178.0380  136.9430 O   0  0  0  0  0  0  0  0  0  0  0  0
  184.1000  175.7710  137.3030 O   0  0  0  0  0  0  0  0  0  0  0  0
  184.2850  177.2200  137.6580 S   0  0  0  0  0  0  0  0  0  0  0  0
  185.9020  177.7660  137.1620 C   0  0  0  0  0  1  0  0  0  0  0  0
  187.5240  178.0390  146.3820 C   0  0  0  0  0  1  0  0  0  0  0  0
  186.2010  177.6720  145.7300 C   0  0  1  0  0  3  0  0  0  0  0  0
  185.0730  178.5370  146.2740 C   0  0  0  0  0  2  0  0  0  0  0  0
  185.6070  179.5370  147.1820 N   0  0  0  0  0  1  0  0  0  0  0  0
  1  2  2  0  0  0  0
  2  4  1  0  0  0  0
  3  1  1  6  0  0  0
  4 12  2  0  0  0  0
  5 23  1  0  0  0  0
  6 12  1  0  0  0  0
  7  6  2  0  0  0  0
  7  3  1  0  0  0  0
  8 11  1  0  0  0  0
  8  9  1  0  0  0  0
  9  7  1  0  0  0  0
 10  5  2  0  0  0  0
 11 15  1  6  0  0  0
 11 10  1  0  0  0  0
 13  3  1  0  0  0  0
 13  5  1  0  0  0  0
 15 14  2  0  0  0  0
 16 17  2  0  0  0  0
 17 15  1  0  0  0  0
 18 20  2  0  0  0  0
 19 20  2  0  0  0  0
 20 16  1  0  0  0  0
 21 20  1  0  0  0  0
 23 24  1  0  0  0  0
 23 22  1  1  0  0  0
 24 25  1  0  0  0  0
M  END
>  <MODEL>
9

>  <REMARK>
 VINA RESULT:      -5.0      4.398      8.014
  Name = 
  5 active torsions:
  status: ('A' for Active; 'I' for Inactive)
    1  A    between atoms: C_1  and  C_22
    2  A    between atoms: N_3  and  S_17
    3  A    between atoms: C_9  and  C_22
    4  A    between atoms: C_11  and  N_18
    5  A    between atoms: C_11  and  C_23
                            x       y       z     vdW  Elec       q    Type
                         _______ _______ _______ _____ _____    ______ ____

>  <TORSDO>
F 5

$$$$
