=
 OpenBabel10222421593D

 40 47  0  0  1  0  0  0  0  0999 V2000
  187.0540  178.0750  147.9130 C   0  0  0  0  0  2  0  0  0  0  0  0
  186.8680  178.2070  146.6100 C   0  0  2  0  0  3  0  0  0  0  0  0
  190.1270  177.2680  143.8450 C   0  0  2  0  0  3  0  0  0  0  0  0
  192.1820  176.1290  146.6860 N   0  0  0  0  0  0  0  0  0  0  0  0
  191.9400  176.1790  145.3600 C   0  0  0  0  0  3  0  0  0  0  0  0
  190.7330  176.8310  145.1640 C   0  0  0  0  0  0  0  0  0  0  0  0
  185.7420  177.6870  145.7700 C   0  0  2  0  0  3  0  0  0  0  0  0
  188.6800  177.0500  143.7880 N   0  0  0  0  0  0  0  0  0  0  0  0
  188.5410  178.0680  148.1610 C   0  0  0  0  0  2  0  0  0  0  0  0
  189.0840  177.9050  146.7700 C   0  0  2  0  0  3  0  0  0  0  0  0
  188.0970  178.1080  145.9210 C   0  0  1  0  0  3  0  0  0  0  0  0
  187.8110  177.4890  144.6490 C   0  0  0  0  0  0  0  0  0  0  0  0
  186.4080  177.2540  144.5300 N   0  0  0  0  0  2  0  0  0  0  0  0
  191.2010  176.7370  147.3360 N   0  0  0  0  0  2  0  0  0  0  0  0
  190.3160  177.1850  146.4300 C   0  0  0  0  0  0  0  0  0  0  0  0
  190.2750  176.9890  141.3300 C   0  0  1  0  0  0  0  0  0  0  0  0
  191.4940  177.4560  141.8610 O   0  0  0  0  0  0  0  0  0  0  0  0
  190.7690  176.5390  142.6610 C   0  0  1  0  0  3  0  0  0  0  0  0
  188.4150  178.9010  141.0740 C   0  0  0  0  0  3  0  0  0  0  0  0
  189.2520  178.0370  141.1820 C   0  0  0  0  0  0  0  0  0  0  0  0
  190.4200  176.0060  140.2550 N   0  0  0  0  0  2  0  0  0  0  0  0
  190.3790  176.6540  138.9430 C   0  0  0  0  0  2  0  0  0  0  0  0
  190.7910  174.5060  137.9790 O   0  0  0  0  0  1  0  0  0  0  0  0
  190.2530  175.6390  137.8530 C   0  0  0  0  0  0  0  0  0  0  0  0
  189.5330  175.9410  136.7030 O   0  0  0  0  0  0  0  0  0  0  0  0
  184.7450  178.7930  145.4710 C   0  0  0  0  0  2  0  0  0  0  0  0
  184.6930  179.0390  143.9720 C   0  0  0  0  0  2  0  0  0  0  0  0
  183.3630  178.5830  143.4010 C   0  0  1  0  0  3  0  0  0  0  0  0
  182.3460  179.4400  143.8170 O   0  0  0  0  0  1  0  0  0  0  0  0
  183.4530  178.5950  141.8870 C   0  0  0  0  0  2  0  0  0  0  0  0
  183.7430  178.3730  138.6440 C   0  0  2  0  0  3  0  0  0  0  0  0
  181.9500  177.6120  140.0170 C   0  0  2  0  0  3  0  0  0  0  0  0
  183.2560  177.1640  139.4080 C   0  0  0  0  0  2  0  0  0  0  0  0
  185.2530  178.4250  138.6810 C   0  0  0  0  0  1  0  0  0  0  0  0
  182.0030  179.1150  139.8610 C   0  0  1  0  0  0  0  0  0  0  0  0
  182.0580  178.5200  141.2620 C   0  0  2  0  0  3  0  0  0  0  0  0
  183.2160  179.5200  139.2560 O   0  0  0  0  0  0  0  0  0  0  0  0
  180.6820  179.6870  139.3520 C   0  0  0  0  0  3  0  0  0  0  0  0
  180.7410  181.2020  139.2360 C   0  0  0  0  0  2  0  0  0  0  0  0
  180.0500  180.5620  140.4210 C   0  0  0  0  0  2  0  0  0  0  0  0
  1  9  1  0  0  0  0
  2  1  1  1  0  0  0
  3  8  1  1  0  0  0
  3  6  1  0  0  0  0
  4 14  1  0  0  0  0
  5  4  2  0  0  0  0
  6  5  1  0  0  0  0
  6 15  2  0  0  0  0
  7 26  1  6  0  0  0
  7  2  1  0  0  0  0
  8 12  2  0  0  0  0
 10  9  1  1  0  0  0
 11 12  1  6  0  0  0
 11  2  1  0  0  0  0
 11 10  1  0  0  0  0
 13 12  1  0  0  0  0
 13  7  1  0  0  0  0
 15 10  1  0  0  0  0
 15 14  1  0  0  0  0
 16 20  1  6  0  0  0
 16 17  1  0  0  0  0
 16 18  1  0  0  0  0
 18 17  1  6  0  0  0
 18  3  1  0  0  0  0
 19 20  3  0  0  0  0
 21 16  1  0  0  0  0
 22 21  1  0  0  0  0
 24 23  1  0  0  0  0
 24 22  1  0  0  0  0
 25 24  2  0  0  0  0
 27 26  1  0  0  0  0
 28 29  1  6  0  0  0
 28 27  1  0  0  0  0
 30 28  1  0  0  0  0
 31 34  1  1  0  0  0
 31 37  1  0  0  0  0
 31 33  1  0  0  0  0
 32 33  1  6  0  0  0
 32 36  1  0  0  0  0
 35 38  1  6  0  0  0
 35 32  1  0  0  0  0
 35 36  1  0  0  0  0
 36 30  1  6  0  0  0
 37 35  1  0  0  0  0
 38 40  1  0  0  0  0
 39 38  1  0  0  0  0
 39 40  1  0  0  0  0
M  END
>  <MODEL>
1

>  <REMARK>
 VINA RESULT:      -9.1      0.000      0.000
  Name = 
  11 active torsions:
  status: ('A' for Active; 'I' for Inactive)
    1  A    between atoms: C_2  and  C_20
    2  A    between atoms: C_5  and  C_27
    3  A    between atoms: C_11  and  N_36
    4  A    between atoms: C_11  and  C_40
    5  A    between atoms: C_16  and  C_39
    6  A    between atoms: C_17  and  C_22
    7  A    between atoms: C_17  and  N_36
    8  A    between atoms: C_21  and  C_25
    9  A    between atoms: C_21  and  C_29
   10  A    between atoms: C_25  and  C_31
   11  A    between atoms: C_31  and  C_39
                            x       y       z     vdW  Elec       q    Type
                         _______ _______ _______ _____ _____    ______ ____

>  <TORSDO>
F 11

$$$$
=
 OpenBabel10222421593D

 40 47  0  0  1  0  0  0  0  0999 V2000
  189.0050  177.5250  143.8200 C   0  0  0  0  0  2  0  0  0  0  0  0
  188.3750  177.5880  142.6600 C   0  0  2  0  0  3  0  0  0  0  0  0
  184.0790  178.4160  142.5630 C   0  0  2  0  0  3  0  0  0  0  0  0
  184.1090  178.8880  146.2200 N   0  0  0  0  0  0  0  0  0  0  0  0
  183.5060  179.0420  145.0230 C   0  0  0  0  0  3  0  0  0  0  0  0
  184.3730  178.5930  144.0400 C   0  0  0  0  0  0  0  0  0  0  0  0
  188.7510  178.3610  141.4330 C   0  0  2  0  0  3  0  0  0  0  0  0
  185.1920  178.8360  141.7100 N   0  0  0  0  0  0  0  0  0  0  0  0
  187.9670  177.2950  144.8890 C   0  0  0  0  0  2  0  0  0  0  0  0
  186.6910  177.5580  144.1400 C   0  0  2  0  0  3  0  0  0  0  0  0
  186.9760  177.6040  142.8550 C   0  0  1  0  0  3  0  0  0  0  0  0
  186.4180  178.4140  141.7980 C   0  0  0  0  0  0  0  0  0  0  0  0
  187.4600  178.8540  140.9260 N   0  0  0  0  0  2  0  0  0  0  0  0
  185.3030  178.3420  146.0440 N   0  0  0  0  0  2  0  0  0  0  0  0
  185.4800  178.1400  144.7280 C   0  0  0  0  0  0  0  0  0  0  0  0
  182.1100  178.6050  140.9790 C   0  0  1  0  0  0  0  0  0  0  0  0
  181.6760  178.3900  142.3030 O   0  0  0  0  0  0  0  0  0  0  0  0
  182.8300  179.1950  142.1410 C   0  0  1  0  0  3  0  0  0  0  0  0
  182.9410  176.3770  139.7450 C   0  0  0  0  0  3  0  0  0  0  0  0
  182.5740  177.3840  140.3000 C   0  0  0  0  0  0  0  0  0  0  0  0
  181.2880  179.5490  140.2200 N   0  0  0  0  0  2  0  0  0  0  0  0
  181.7950  179.7050  138.8550 C   0  0  0  0  0  2  0  0  0  0  0  0
  182.5290  181.9680  138.6150 O   0  0  0  0  0  0  0  0  0  0  0  0
  182.8500  180.7630  138.7990 C   0  0  0  0  0  0  0  0  0  0  0  0
  184.1880  180.4180  138.9590 O   0  0  0  0  0  1  0  0  0  0  0  0
  189.4040  177.4510  140.4070 C   0  0  0  0  0  2  0  0  0  0  0  0
  188.6340  177.5230  139.0990 C   0  0  0  0  0  2  0  0  0  0  0  0
  189.4980  178.1170  138.0020 C   0  0  1  0  0  3  0  0  0  0  0  0
  190.5280  177.2360  137.6760 O   0  0  0  0  0  1  0  0  0  0  0  0
  188.6330  178.3650  136.7810 C   0  0  0  0  0  2  0  0  0  0  0  0
  186.0040  176.7270  135.7550 C   0  0  2  0  0  3  0  0  0  0  0  0
  187.9730  177.2660  134.5270 C   0  0  2  0  0  3  0  0  0  0  0  0
  186.5930  177.7830  134.8500 C   0  0  0  0  0  2  0  0  0  0  0  0
  185.0880  177.3760  136.7670 C   0  0  0  0  0  1  0  0  0  0  0  0
  188.1770  176.1800  135.5590 C   0  0  1  0  0  0  0  0  0  0  0  0
  189.0370  177.4350  135.6350 C   0  0  2  0  0  3  0  0  0  0  0  0
  187.0570  176.0810  136.4180 O   0  0  0  0  0  0  0  0  0  0  0  0
  188.7710  174.9120  134.9500 C   0  0  0  0  0  3  0  0  0  0  0  0
  189.5200  174.0950  135.9910 C   0  0  0  0  0  2  0  0  0  0  0  0
  190.2870  174.9660  135.0200 C   0  0  0  0  0  2  0  0  0  0  0  0
  1  9  1  0  0  0  0
  2 11  1  0  0  0  0
  2  1  1  1  0  0  0
  3  8  1  6  0  0  0
  3  6  1  0  0  0  0
  5  4  2  0  0  0  0
  6 15  2  0  0  0  0
  6  5  1  0  0  0  0
  7 26  1  6  0  0  0
  7  2  1  0  0  0  0
  8 12  2  0  0  0  0
 10 15  1  0  0  0  0
 10  9  1  1  0  0  0
 11 12  1  1  0  0  0
 11 10  1  0  0  0  0
 13  7  1  0  0  0  0
 13 12  1  0  0  0  0
 14  4  1  0  0  0  0
 15 14  1  0  0  0  0
 16 20  1  6  0  0  0
 16 18  1  0  0  0  0
 16 17  1  0  0  0  0
 18 17  1  1  0  0  0
 18  3  1  0  0  0  0
 19 20  3  0  0  0  0
 21 16  1  0  0  0  0
 22 21  1  0  0  0  0
 23 24  2  0  0  0  0
 24 22  1  0  0  0  0
 24 25  1  0  0  0  0
 27 26  1  0  0  0  0
 28 29  1  6  0  0  0
 28 27  1  0  0  0  0
 30 28  1  0  0  0  0
 31 37  1  0  0  0  0
 31 34  1  1  0  0  0
 32 33  1  1  0  0  0
 32 35  1  0  0  0  0
 32 36  1  0  0  0  0
 33 31  1  0  0  0  0
 35 38  1  6  0  0  0
 35 36  1  0  0  0  0
 35 37  1  0  0  0  0
 36 30  1  1  0  0  0
 38 40  1  0  0  0  0
 38 39  1  0  0  0  0
 40 39  1  0  0  0  0
M  END
>  <MODEL>
2

>  <REMARK>
 VINA RESULT:      -8.9      2.603      7.493
  Name = 
  11 active torsions:
  status: ('A' for Active; 'I' for Inactive)
    1  A    between atoms: C_2  and  C_20
    2  A    between atoms: C_5  and  C_27
    3  A    between atoms: C_11  and  N_36
    4  A    between atoms: C_11  and  C_40
    5  A    between atoms: C_16  and  C_39
    6  A    between atoms: C_17  and  C_22
    7  A    between atoms: C_17  and  N_36
    8  A    between atoms: C_21  and  C_25
    9  A    between atoms: C_21  and  C_29
   10  A    between atoms: C_25  and  C_31
   11  A    between atoms: C_31  and  C_39
                            x       y       z     vdW  Elec       q    Type
                         _______ _______ _______ _____ _____    ______ ____

>  <TORSDO>
F 11

$$$$
=
 OpenBabel10222421593D

 40 47  0  0  1  0  0  0  0  0999 V2000
  189.0750  177.5560  143.3710 C   0  0  0  0  0  2  0  0  0  0  0  0
  188.3550  177.6250  142.2640 C   0  0  2  0  0  3  0  0  0  0  0  0
  184.0560  178.4050  142.5160 C   0  0  2  0  0  3  0  0  0  0  0  0
  184.3690  178.8320  146.1650 N   0  0  0  0  0  0  0  0  0  0  0  0
  183.6720  178.9940  145.0210 C   0  0  0  0  0  3  0  0  0  0  0  0
  184.4640  178.5670  143.9670 C   0  0  0  0  0  0  0  0  0  0  0  0
  188.6260  178.4180  141.0220 C   0  0  2  0  0  3  0  0  0  0  0  0
  185.0950  178.8480  141.5840 N   0  0  0  0  0  0  0  0  0  0  0  0
  188.1270  177.3010  144.5140 C   0  0  0  0  0  2  0  0  0  0  0  0
  186.7940  177.5580  143.8720 C   0  0  2  0  0  3  0  0  0  0  0  0
  186.9760  177.6230  142.5690 C   0  0  1  0  0  3  0  0  0  0  0  0
  186.3280  178.4390  141.5700 C   0  0  0  0  0  0  0  0  0  0  0  0
  187.2930  178.9020  140.6240 N   0  0  0  0  0  2  0  0  0  0  0  0
  185.5510  178.3020  145.8890 N   0  0  0  0  0  2  0  0  0  0  0  0
  185.6260  178.1190  144.5600 C   0  0  0  0  0  0  0  0  0  0  0  0
  181.9830  178.6090  141.0720 C   0  0  1  0  0  0  0  0  0  0  0  0
  181.6420  178.3430  142.4130 O   0  0  0  0  0  0  0  0  0  0  0  0
  182.7700  179.1740  142.2030 C   0  0  1  0  0  3  0  0  0  0  0  0
  182.7670  176.4380  139.7110 C   0  0  0  0  0  3  0  0  0  0  0  0
  182.4210  177.4190  140.3230 C   0  0  0  0  0  0  0  0  0  0  0  0
  181.0990  179.5630  140.4010 N   0  0  0  0  0  2  0  0  0  0  0  0
  181.4310  179.6750  138.9790 C   0  0  0  0  0  2  0  0  0  0  0  0
  181.9330  181.9360  138.3880 O   0  0  0  0  0  0  0  0  0  0  0  0
  182.3750  180.8100  138.7430 C   0  0  0  0  0  0  0  0  0  0  0  0
  183.7410  180.6260  138.9240 O   0  0  0  0  0  1  0  0  0  0  0  0
  189.2060  177.5280  139.9360 C   0  0  0  0  0  2  0  0  0  0  0  0
  188.1400  177.2370  138.8930 C   0  0  0  0  0  2  0  0  0  0  0  0
  188.5720  177.7470  137.5300 C   0  0  1  0  0  3  0  0  0  0  0  0
  189.6630  178.6050  137.6660 O   0  0  0  0  0  1  0  0  0  0  0  0
  188.9600  176.5620  136.6680 C   0  0  0  0  0  2  0  0  0  0  0  0
  189.8540  173.4230  136.7040 C   0  0  2  0  0  3  0  0  0  0  0  0
  190.9890  175.2650  135.7050 C   0  0  2  0  0  3  0  0  0  0  0  0
  189.9720  174.1900  135.4080 C   0  0  0  0  0  2  0  0  0  0  0  0
  188.4370  172.9240  136.8730 C   0  0  0  0  0  1  0  0  0  0  0  0
  191.0690  175.2460  137.2150 C   0  0  1  0  0  0  0  0  0  0  0  0
  190.4810  176.4710  136.5270 C   0  0  2  0  0  3  0  0  0  0  0  0
  190.1790  174.2900  137.7580 O   0  0  0  0  0  0  0  0  0  0  0  0
  192.5110  175.2990  137.7150 C   0  0  0  0  0  3  0  0  0  0  0  0
  192.7390  176.4970  138.6230 C   0  0  0  0  0  2  0  0  0  0  0  0
  193.1980  176.5430  137.1820 C   0  0  0  0  0  2  0  0  0  0  0  0
  1  9  1  0  0  0  0
  2 11  1  0  0  0  0
  2  1  1  1  0  0  0
  3  8  1  6  0  0  0
  3  6  1  0  0  0  0
  5  4  2  0  0  0  0
  6 15  2  0  0  0  0
  6  5  1  0  0  0  0
  7 26  1  6  0  0  0
  7  2  1  0  0  0  0
 10  9  1  1  0  0  0
 10 15  1  0  0  0  0
 11 12  1  1  0  0  0
 11 10  1  0  0  0  0
 12  8  2  0  0  0  0
 13  7  1  0  0  0  0
 13 12  1  0  0  0  0
 14  4  1  0  0  0  0
 15 14  1  0  0  0  0
 16 20  1  6  0  0  0
 16 18  1  0  0  0  0
 16 17  1  0  0  0  0
 18 17  1  1  0  0  0
 18  3  1  0  0  0  0
 19 20  3  0  0  0  0
 21 16  1  0  0  0  0
 22 21  1  0  0  0  0
 23 24  2  0  0  0  0
 24 25  1  0  0  0  0
 24 22  1  0  0  0  0
 27 26  1  0  0  0  0
 28 29  1  1  0  0  0
 28 27  1  0  0  0  0
 30 28  1  0  0  0  0
 31 34  1  1  0  0  0
 31 37  1  0  0  0  0
 32 33  1  1  0  0  0
 32 36  1  0  0  0  0
 32 35  1  0  0  0  0
 33 31  1  0  0  0  0
 35 38  1  1  0  0  0
 35 37  1  0  0  0  0
 36 30  1  1  0  0  0
 36 35  1  0  0  0  0
 38 39  1  0  0  0  0
 40 38  1  0  0  0  0
 40 39  1  0  0  0  0
M  END
>  <MODEL>
3

>  <REMARK>
 VINA RESULT:      -8.7      2.610      8.162
  Name = 
  11 active torsions:
  status: ('A' for Active; 'I' for Inactive)
    1  A    between atoms: C_2  and  C_20
    2  A    between atoms: C_5  and  C_27
    3  A    between atoms: C_11  and  N_36
    4  A    between atoms: C_11  and  C_40
    5  A    between atoms: C_16  and  C_39
    6  A    between atoms: C_17  and  C_22
    7  A    between atoms: C_17  and  N_36
    8  A    between atoms: C_21  and  C_25
    9  A    between atoms: C_21  and  C_29
   10  A    between atoms: C_25  and  C_31
   11  A    between atoms: C_31  and  C_39
                            x       y       z     vdW  Elec       q    Type
                         _______ _______ _______ _____ _____    ______ ____

>  <TORSDO>
F 11

$$$$
=
 OpenBabel10222421593D

 40 47  0  0  1  0  0  0  0  0999 V2000
  189.2330  177.7540  137.0650 C   0  0  0  0  0  2  0  0  0  0  0  0
  190.1240  177.3710  137.9640 C   0  0  2  0  0  3  0  0  0  0  0  0
  189.1530  177.6210  142.2240 C   0  0  2  0  0  3  0  0  0  0  0  0
  185.7340  178.6990  141.3600 N   0  0  0  0  0  0  0  0  0  0  0  0
  186.6200  178.2150  142.2550 C   0  0  0  0  0  2  0  0  0  0  0  0
  187.8230  178.0010  141.6020 C   0  0  0  0  0  0  0  0  0  0  0  0
  190.9110  176.0980  138.0170 C   0  0  2  0  0  3  0  0  0  0  0  0
  189.8880  176.6370  141.4270 N   0  0  0  0  0  0  0  0  0  0  0  0
  188.2350  178.6410  137.7630 C   0  0  0  0  0  2  0  0  0  0  0  0
  188.5710  178.4040  139.2080 C   0  0  2  0  0  3  0  0  0  0  0  0
  189.7230  177.7690  139.2590 C   0  0  1  0  0  3  0  0  0  0  0  0
  190.1960  176.7540  140.1700 C   0  0  0  0  0  0  0  0  0  0  0  0
  190.9290  175.7620  139.4500 N   0  0  0  0  0  2  0  0  0  0  0  0
  186.3250  178.8250  140.1810 N   0  0  0  0  0  0  0  0  0  0  0  0
  187.5990  178.4200  140.3070 C   0  0  0  0  0  0  0  0  0  0  0  0
  189.8620  177.6800  144.6560 C   0  0  1  0  0  0  0  0  0  0  0  0
  188.5170  178.0740  144.5110 O   0  0  0  0  0  0  0  0  0  0  0  0
  188.9730  177.0580  143.6360 C   0  0  1  0  0  3  0  0  0  0  0  0
  191.6350  179.5950  144.0480 C   0  0  0  0  0  3  0  0  0  0  0  0
  190.8300  178.7370  144.3200 C   0  0  0  0  0  0  0  0  0  0  0  0
  190.1250  176.8490  145.8320 N   0  0  0  0  0  2  0  0  0  0  0  0
  191.5520  176.5400  145.9470 C   0  0  0  0  0  2  0  0  0  0  0  0
  191.8300  177.3120  148.1930 O   0  0  0  0  0  1  0  0  0  0  0  0
  191.9410  176.3560  147.3790 C   0  0  0  0  0  0  0  0  0  0  0  0
  192.4190  175.1250  147.8160 O   0  0  0  0  0  0  0  0  0  0  0  0
  192.3270  176.3240  137.5140 C   0  0  0  0  0  2  0  0  0  0  0  0
  192.4100  175.9490  136.0430 C   0  0  0  0  0  2  0  0  0  0  0  0
  193.8180  176.1600  135.5170 C   0  0  1  0  0  3  0  0  0  0  0  0
  194.6320  176.6740  136.5250 O   0  0  0  0  0  1  0  0  0  0  0  0
  194.3670  174.8260  135.0480 C   0  0  0  0  0  2  0  0  0  0  0  0
  193.6800  171.7500  135.8930 C   0  0  2  0  0  3  0  0  0  0  0  0
  195.8070  172.8240  135.8490 C   0  0  2  0  0  3  0  0  0  0  0  0
  194.8710  172.0020  134.9980 C   0  0  0  0  0  2  0  0  0  0  0  0
  192.4180  171.7030  135.0620 C   0  0  0  0  0  1  0  0  0  0  0  0
  194.9190  173.2740  136.9880 C   0  0  1  0  0  0  0  0  0  0  0  0
  195.4440  174.3170  136.0090 C   0  0  2  0  0  3  0  0  0  0  0  0
  193.5970  172.8000  136.8190 O   0  0  0  0  0  0  0  0  0  0  0  0
  195.6040  173.1230  138.3450 C   0  0  0  0  0  3  0  0  0  0  0  0
  195.5260  174.4100  139.1520 C   0  0  0  0  0  2  0  0  0  0  0  0
  196.8040  174.0510  138.4250 C   0  0  0  0  0  2  0  0  0  0  0  0
  1  9  1  0  0  0  0
  2  1  1  6  0  0  0
  2  7  1  0  0  0  0
  2 11  1  0  0  0  0
  3  8  1  6  0  0  0
  3 18  1  0  0  0  0
  4  5  1  0  0  0  0
  6  3  1  0  0  0  0
  6  5  1  0  0  0  0
  7 26  1  1  0  0  0
  7 13  1  0  0  0  0
 10  9  1  6  0  0  0
 10 11  1  0  0  0  0
 10 15  1  0  0  0  0
 11 12  1  1  0  0  0
 12  8  2  0  0  0  0
 13 12  1  0  0  0  0
 14 15  1  0  0  0  0
 14  4  2  0  0  0  0
 15  6  2  0  0  0  0
 16 20  1  6  0  0  0
 16 21  1  0  0  0  0
 17 16  1  0  0  0  0
 18 17  1  1  0  0  0
 18 16  1  0  0  0  0
 19 20  3  0  0  0  0
 21 22  1  0  0  0  0
 22 24  1  0  0  0  0
 24 25  2  0  0  0  0
 24 23  1  0  0  0  0
 27 26  1  0  0  0  0
 28 27  1  0  0  0  0
 28 29  1  1  0  0  0
 30 28  1  0  0  0  0
 31 34  1  6  0  0  0
 31 37  1  0  0  0  0
 32 33  1  6  0  0  0
 32 36  1  0  0  0  0
 32 35  1  0  0  0  0
 33 31  1  0  0  0  0
 35 38  1  1  0  0  0
 36 30  1  6  0  0  0
 36 35  1  0  0  0  0
 37 35  1  0  0  0  0
 38 40  1  0  0  0  0
 38 39  1  0  0  0  0
 40 39  1  0  0  0  0
M  END
>  <MODEL>
4

>  <REMARK>
 VINA RESULT:      -8.3      3.865     10.372
  Name = 
  11 active torsions:
  status: ('A' for Active; 'I' for Inactive)
    1  A    between atoms: C_2  and  C_20
    2  A    between atoms: C_5  and  C_27
    3  A    between atoms: C_11  and  N_36
    4  A    between atoms: C_11  and  C_40
    5  A    between atoms: C_16  and  C_39
    6  A    between atoms: C_17  and  C_22
    7  A    between atoms: C_17  and  N_36
    8  A    between atoms: C_21  and  C_25
    9  A    between atoms: C_21  and  C_29
   10  A    between atoms: C_25  and  C_31
   11  A    between atoms: C_31  and  C_39
                            x       y       z     vdW  Elec       q    Type
                         _______ _______ _______ _____ _____    ______ ____

>  <TORSDO>
F 11

$$$$
=
 OpenBabel10222421593D

 40 47  0  0  1  0  0  0  0  0999 V2000
  189.4590  177.7880  137.0500 C   0  0  0  0  0  2  0  0  0  0  0  0
  190.2620  177.4080  138.0290 C   0  0  2  0  0  3  0  0  0  0  0  0
  188.9030  177.6770  142.1810 C   0  0  2  0  0  3  0  0  0  0  0  0
  185.5810  178.7580  141.0010 N   0  0  0  0  0  0  0  0  0  0  0  0
  186.3800  178.2760  141.9760 C   0  0  0  0  0  2  0  0  0  0  0  0
  187.6380  178.0570  141.4380 C   0  0  0  0  0  0  0  0  0  0  0  0
  191.0380  176.1340  138.1590 C   0  0  2  0  0  3  0  0  0  0  0  0
  189.7070  176.6880  141.4590 N   0  0  0  0  0  0  0  0  0  0  0  0
  188.4020  178.6800  137.6500 C   0  0  0  0  0  2  0  0  0  0  0  0
  188.6030  178.4490  139.1210 C   0  0  2  0  0  3  0  0  0  0  0  0
  189.7440  177.8120  139.2800 C   0  0  1  0  0  3  0  0  0  0  0  0
  190.1290  176.8000  140.2350 C   0  0  0  0  0  0  0  0  0  0  0  0
  190.9230  175.8030  139.5900 N   0  0  0  0  0  2  0  0  0  0  0  0
  186.2780  178.8780  139.8810 N   0  0  0  0  0  0  0  0  0  0  0  0
  187.5350  178.4710  140.1260 C   0  0  0  0  0  0  0  0  0  0  0  0
  189.5630  177.5350  144.6240 C   0  0  1  0  0  0  0  0  0  0  0  0
  188.3190  178.1800  144.4710 O   0  0  0  0  0  0  0  0  0  0  0  0
  188.5930  177.1200  143.5730 C   0  0  1  0  0  3  0  0  0  0  0  0
  191.6710  179.1070  144.1090 C   0  0  0  0  0  3  0  0  0  0  0  0
  190.7190  178.4000  144.3330 C   0  0  0  0  0  0  0  0  0  0  0  0
  189.6420  176.6390  145.7780 N   0  0  0  0  0  2  0  0  0  0  0  0
  190.3870  177.2600  146.8740 C   0  0  0  0  0  2  0  0  0  0  0  0
  192.1070  175.7090  146.2780 O   0  0  0  0  0  0  0  0  0  0  0  0
  191.6640  176.5260  147.1300 C   0  0  0  0  0  0  0  0  0  0  0  0
  192.3700  176.7500  148.3080 O   0  0  0  0  0  1  0  0  0  0  0  0
  192.4940  176.3540  137.7880 C   0  0  0  0  0  2  0  0  0  0  0  0
  193.0000  175.1670  136.9850 C   0  0  0  0  0  2  0  0  0  0  0  0
  194.1220  175.5910  136.0550 C   0  0  1  0  0  3  0  0  0  0  0  0
  194.5240  176.8920  136.3530 O   0  0  0  0  0  1  0  0  0  0  0  0
  195.2910  174.6410  136.2380 C   0  0  0  0  0  2  0  0  0  0  0  0
  198.0320  173.3740  137.4730 C   0  0  2  0  0  3  0  0  0  0  0  0
  195.8570  173.4070  138.4460 C   0  0  2  0  0  3  0  0  0  0  0  0
  197.1440  174.1920  138.3810 C   0  0  0  0  0  2  0  0  0  0  0  0
  198.9290  174.2920  136.6750 C   0  0  0  0  0  1  0  0  0  0  0  0
  195.9960  172.4360  137.2950 C   0  0  1  0  0  0  0  0  0  0  0  0
  194.9290  173.5220  137.2160 C   0  0  2  0  0  3  0  0  0  0  0  0
  197.2130  172.6400  136.6030 O   0  0  0  0  0  0  0  0  0  0  0  0
  195.5810  171.0190  137.6840 C   0  0  0  0  0  3  0  0  0  0  0  0
  195.8090  170.0410  136.5420 C   0  0  0  0  0  2  0  0  0  0  0  0
  194.4170  170.5650  136.8210 C   0  0  0  0  0  2  0  0  0  0  0  0
  1  9  1  0  0  0  0
  2  1  1  6  0  0  0
  2  7  1  0  0  0  0
  2 11  1  0  0  0  0
  3  6  1  6  0  0  0
  3 18  1  0  0  0  0
  4  5  1  0  0  0  0
  6  5  1  0  0  0  0
  7 26  1  1  0  0  0
  7 13  1  0  0  0  0
  8  3  1  0  0  0  0
 10  9  1  6  0  0  0
 10 11  1  0  0  0  0
 10 15  1  0  0  0  0
 11 12  1  1  0  0  0
 12  8  2  0  0  0  0
 13 12  1  0  0  0  0
 14 15  1  0  0  0  0
 14  4  2  0  0  0  0
 15  6  2  0  0  0  0
 16 20  1  6  0  0  0
 16 21  1  0  0  0  0
 17 16  1  0  0  0  0
 18 17  1  1  0  0  0
 18 16  1  0  0  0  0
 19 20  3  0  0  0  0
 21 22  1  0  0  0  0
 22 24  1  0  0  0  0
 23 24  2  0  0  0  0
 24 25  1  0  0  0  0
 27 26  1  0  0  0  0
 28 30  1  0  0  0  0
 28 29  1  1  0  0  0
 28 27  1  0  0  0  0
 31 34  1  6  0  0  0
 31 33  1  0  0  0  0
 32 33  1  6  0  0  0
 35 38  1  1  0  0  0
 35 32  1  0  0  0  0
 36 30  1  6  0  0  0
 36 35  1  0  0  0  0
 36 32  1  0  0  0  0
 37 35  1  0  0  0  0
 37 31  1  0  0  0  0
 39 40  1  0  0  0  0
 39 38  1  0  0  0  0
 40 38  1  0  0  0  0
M  END
>  <MODEL>
5

>  <REMARK>
 VINA RESULT:      -8.2      4.383     10.868
  Name = 
  11 active torsions:
  status: ('A' for Active; 'I' for Inactive)
    1  A    between atoms: C_2  and  C_20
    2  A    between atoms: C_5  and  C_27
    3  A    between atoms: C_11  and  N_36
    4  A    between atoms: C_11  and  C_40
    5  A    between atoms: C_16  and  C_39
    6  A    between atoms: C_17  and  C_22
    7  A    between atoms: C_17  and  N_36
    8  A    between atoms: C_21  and  C_25
    9  A    between atoms: C_21  and  C_29
   10  A    between atoms: C_25  and  C_31
   11  A    between atoms: C_31  and  C_39
                            x       y       z     vdW  Elec       q    Type
                         _______ _______ _______ _____ _____    ______ ____

>  <TORSDO>
F 11

$$$$
=
 OpenBabel10222421593D

 40 47  0  0  1  0  0  0  0  0999 V2000
  188.1920  176.8650  136.1630 C   0  0  0  0  0  2  0  0  0  0  0  0
  187.7300  177.0530  137.3870 C   0  0  2  0  0  3  0  0  0  0  0  0
  190.4900  177.0030  140.7830 C   0  0  2  0  0  3  0  0  0  0  0  0
  193.3230  176.6590  138.4480 N   0  0  0  0  0  0  0  0  0  0  0  0
  192.8440  176.9470  139.6760 C   0  0  0  0  0  2  0  0  0  0  0  0
  191.4600  176.9080  139.6220 C   0  0  0  0  0  0  0  0  0  0  0  0
  186.8230  178.1350  137.8870 C   0  0  2  0  0  3  0  0  0  0  0  0
  189.3120  177.8140  140.4700 N   0  0  0  0  0  0  0  0  0  0  0  0
  189.5410  176.2040  136.2840 C   0  0  0  0  0  2  0  0  0  0  0  0
  189.8320  176.3630  137.7490 C   0  0  2  0  0  3  0  0  0  0  0  0
  188.7220  176.7450  138.3450 C   0  0  1  0  0  3  0  0  0  0  0  0
  188.5140  177.6380  139.4600 C   0  0  0  0  0  0  0  0  0  0  0  0
  187.3700  178.4580  139.2160 N   0  0  0  0  0  2  0  0  0  0  0  0
  192.3120  176.4150  137.6280 N   0  0  0  0  0  0  0  0  0  0  0  0
  191.1700  176.5470  138.3220 C   0  0  0  0  0  0  0  0  0  0  0  0
  190.4020  177.3600  143.2910 C   0  0  1  0  0  0  0  0  0  0  0  0
  191.5000  176.5520  142.9320 O   0  0  0  0  0  0  0  0  0  0  0  0
  191.1590  177.5890  142.0290 C   0  0  1  0  0  3  0  0  0  0  0  0
  188.0600  176.0580  143.3350 C   0  0  0  0  0  3  0  0  0  0  0  0
  189.1180  176.6390  143.3200 C   0  0  0  0  0  0  0  0  0  0  0  0
  190.6810  178.3200  144.3600 N   0  0  0  0  0  2  0  0  0  0  0  0
  189.8170  178.0820  145.5170 C   0  0  0  0  0  2  0  0  0  0  0  0
  191.7510  177.0740  146.4970 O   0  0  0  0  0  0  0  0  0  0  0  0
  190.4970  177.1990  146.5140 C   0  0  0  0  0  0  0  0  0  0  0  0
  189.7450  176.5230  147.4690 O   0  0  0  0  0  1  0  0  0  0  0  0
  185.3990  177.6220  138.0180 C   0  0  0  0  0  2  0  0  0  0  0  0
  184.8210  177.3690  136.6350 C   0  0  0  0  0  2  0  0  0  0  0  0
  183.9180  176.1490  136.6490 C   0  0  1  0  0  3  0  0  0  0  0  0
  182.9160  176.2870  135.6900 O   0  0  0  0  0  1  0  0  0  0  0  0
  184.7530  174.9210  136.3400 C   0  0  0  0  0  2  0  0  0  0  0  0
  186.8240  172.4270  135.9660 C   0  0  2  0  0  3  0  0  0  0  0  0
  185.2560  172.7870  137.7240 C   0  0  2  0  0  3  0  0  0  0  0  0
  186.6890  173.0520  137.3350 C   0  0  0  0  0  2  0  0  0  0  0  0
  187.7920  173.2320  135.1310 C   0  0  0  0  0  1  0  0  0  0  0  0
  184.6200  172.3810  136.4130 C   0  0  1  0  0  0  0  0  0  0  0  0
  184.1940  173.6930  137.0610 C   0  0  2  0  0  3  0  0  0  0  0  0
  185.5600  172.4280  135.3580 O   0  0  0  0  0  0  0  0  0  0  0  0
  183.7220  171.1560  136.5660 C   0  0  0  0  0  3  0  0  0  0  0  0
  182.5140  171.2350  135.6450 C   0  0  0  0  0  2  0  0  0  0  0  0
  182.3670  171.5710  137.1130 C   0  0  0  0  0  2  0  0  0  0  0  0
  1  9  1  0  0  0  0
  2  1  1  6  0  0  0
  2  7  1  0  0  0  0
  2 11  1  0  0  0  0
  3  6  1  6  0  0  0
  3 18  1  0  0  0  0
  4  5  1  0  0  0  0
  6  5  1  0  0  0  0
  7 26  1  1  0  0  0
  7 13  1  0  0  0  0
  8  3  1  0  0  0  0
 10  9  1  6  0  0  0
 10 15  1  0  0  0  0
 10 11  1  0  0  0  0
 11 12  1  6  0  0  0
 12  8  2  0  0  0  0
 13 12  1  0  0  0  0
 14 15  1  0  0  0  0
 14  4  2  0  0  0  0
 15  6  2  0  0  0  0
 16 20  1  6  0  0  0
 16 21  1  0  0  0  0
 17 16  1  0  0  0  0
 18 17  1  1  0  0  0
 18 16  1  0  0  0  0
 20 19  3  0  0  0  0
 21 22  1  0  0  0  0
 22 24  1  0  0  0  0
 23 24  2  0  0  0  0
 24 25  1  0  0  0  0
 27 28  1  0  0  0  0
 27 26  1  0  0  0  0
 28 29  1  6  0  0  0
 30 28  1  0  0  0  0
 31 34  1  6  0  0  0
 31 33  1  0  0  0  0
 32 33  1  6  0  0  0
 35 38  1  1  0  0  0
 35 36  1  0  0  0  0
 35 32  1  0  0  0  0
 36 30  1  6  0  0  0
 36 32  1  0  0  0  0
 37 31  1  0  0  0  0
 37 35  1  0  0  0  0
 38 40  1  0  0  0  0
 39 38  1  0  0  0  0
 39 40  1  0  0  0  0
M  END
>  <MODEL>
6

>  <REMARK>
 VINA RESULT:      -8.1      3.714      7.530
  Name = 
  11 active torsions:
  status: ('A' for Active; 'I' for Inactive)
    1  A    between atoms: C_2  and  C_20
    2  A    between atoms: C_5  and  C_27
    3  A    between atoms: C_11  and  N_36
    4  A    between atoms: C_11  and  C_40
    5  A    between atoms: C_16  and  C_39
    6  A    between atoms: C_17  and  C_22
    7  A    between atoms: C_17  and  N_36
    8  A    between atoms: C_21  and  C_25
    9  A    between atoms: C_21  and  C_29
   10  A    between atoms: C_25  and  C_31
   11  A    between atoms: C_31  and  C_39
                            x       y       z     vdW  Elec       q    Type
                         _______ _______ _______ _____ _____    ______ ____

>  <TORSDO>
F 11

$$$$
=
 OpenBabel10222421593D

 40 47  0  0  1  0  0  0  0  0999 V2000
  189.1960  177.2310  143.6780 C   0  0  0  0  0  2  0  0  0  0  0  0
  188.5260  177.3440  142.5430 C   0  0  2  0  0  3  0  0  0  0  0  0
  184.2760  178.3840  142.6250 C   0  0  2  0  0  3  0  0  0  0  0  0
  184.4670  178.7910  146.2840 N   0  0  0  0  0  0  0  0  0  0  0  0
  183.8280  178.9950  145.1130 C   0  0  0  0  0  3  0  0  0  0  0  0
  184.6340  178.5210  144.0910 C   0  0  0  0  0  0  0  0  0  0  0  0
  188.8940  178.1190  141.3150 C   0  0  2  0  0  3  0  0  0  0  0  0
  185.3760  178.7630  141.7360 N   0  0  0  0  0  0  0  0  0  0  0  0
  188.1880  177.0340  144.7810 C   0  0  0  0  0  2  0  0  0  0  0  0
  186.9000  177.3720  144.0870 C   0  0  2  0  0  3  0  0  0  0  0  0
  187.1380  177.4260  142.7930 C   0  0  1  0  0  3  0  0  0  0  0  0
  186.5820  178.2800  141.7710 C   0  0  0  0  0  0  0  0  0  0  0  0
  187.6110  178.6830  140.8650 N   0  0  0  0  0  2  0  0  0  0  0  0
  185.6250  178.1900  146.0540 N   0  0  0  0  0  2  0  0  0  0  0  0
  185.7420  178.0020  144.7300 C   0  0  0  0  0  0  0  0  0  0  0  0
  182.2760  178.7120  141.1020 C   0  0  1  0  0  0  0  0  0  0  0  0
  181.8690  178.4710  142.4300 O   0  0  0  0  0  0  0  0  0  0  0  0
  183.0530  179.2310  142.2620 C   0  0  1  0  0  3  0  0  0  0  0  0
  182.9820  176.5020  139.7600 C   0  0  0  0  0  3  0  0  0  0  0  0
  182.6680  177.4950  140.3710 C   0  0  0  0  0  0  0  0  0  0  0  0
  181.4780  179.7160  140.3970 N   0  0  0  0  0  2  0  0  0  0  0  0
  180.5830  179.0860  139.4250 C   0  0  0  0  0  2  0  0  0  0  0  0
  180.9160  180.7560  137.7460 O   0  0  0  0  0  1  0  0  0  0  0  0
  180.9130  179.5290  138.0350 C   0  0  0  0  0  0  0  0  0  0  0  0
  181.2260  178.5860  137.0620 O   0  0  0  0  0  0  0  0  0  0  0  0
  189.4620  177.1960  140.2510 C   0  0  0  0  0  2  0  0  0  0  0  0
  189.6390  177.9650  138.9520 C   0  0  0  0  0  2  0  0  0  0  0  0
  190.3250  177.1010  137.9090 C   0  0  1  0  0  3  0  0  0  0  0  0
  191.6610  176.9040  138.2570 O   0  0  0  0  0  1  0  0  0  0  0  0
  189.6140  175.7640  137.8390 C   0  0  0  0  0  2  0  0  0  0  0  0
  188.9350  174.0310  135.1590 C   0  0  2  0  0  3  0  0  0  0  0  0
  187.4450  174.7050  136.8910 C   0  0  2  0  0  3  0  0  0  0  0  0
  188.3540  173.5750  136.4760 C   0  0  0  0  0  2  0  0  0  0  0  0
  190.3490  173.5160  135.0180 C   0  0  0  0  0  1  0  0  0  0  0  0
  187.8740  175.8360  135.9830 C   0  0  1  0  0  0  0  0  0  0  0  0
  188.1390  175.9550  137.4790 C   0  0  2  0  0  3  0  0  0  0  0  0
  188.9390  175.4340  135.1430 O   0  0  0  0  0  0  0  0  0  0  0  0
  186.6810  176.5750  135.3820 C   0  0  0  0  0  3  0  0  0  0  0  0
  186.9120  178.0780  135.3630 C   0  0  0  0  0  2  0  0  0  0  0  0
  186.0390  177.4620  136.4340 C   0  0  0  0  0  2  0  0  0  0  0  0
  1  9  1  0  0  0  0
  2 11  1  0  0  0  0
  2  1  1  1  0  0  0
  3  8  1  6  0  0  0
  3  6  1  0  0  0  0
  5  4  2  0  0  0  0
  6 15  2  0  0  0  0
  6  5  1  0  0  0  0
  7 26  1  6  0  0  0
  7  2  1  0  0  0  0
  8 12  2  0  0  0  0
 10 15  1  0  0  0  0
 10  9  1  1  0  0  0
 11 12  1  1  0  0  0
 11 10  1  0  0  0  0
 13  7  1  0  0  0  0
 13 12  1  0  0  0  0
 14  4  1  0  0  0  0
 15 14  1  0  0  0  0
 16 20  1  6  0  0  0
 16 18  1  0  0  0  0
 16 17  1  0  0  0  0
 18 17  1  1  0  0  0
 18  3  1  0  0  0  0
 19 20  3  0  0  0  0
 21 16  1  0  0  0  0
 22 21  1  0  0  0  0
 23 24  1  0  0  0  0
 24 22  1  0  0  0  0
 25 24  2  0  0  0  0
 27 26  1  0  0  0  0
 28 29  1  1  0  0  0
 28 27  1  0  0  0  0
 30 28  1  0  0  0  0
 31 34  1  1  0  0  0
 31 33  1  0  0  0  0
 32 33  1  6  0  0  0
 32 36  1  0  0  0  0
 35 38  1  6  0  0  0
 35 32  1  0  0  0  0
 35 36  1  0  0  0  0
 36 30  1  6  0  0  0
 37 31  1  0  0  0  0
 37 35  1  0  0  0  0
 38 40  1  0  0  0  0
 39 38  1  0  0  0  0
 39 40  1  0  0  0  0
M  END
>  <MODEL>
7

>  <REMARK>
 VINA RESULT:      -7.8      2.486      7.434
  Name = 
  11 active torsions:
  status: ('A' for Active; 'I' for Inactive)
    1  A    between atoms: C_2  and  C_20
    2  A    between atoms: C_5  and  C_27
    3  A    between atoms: C_11  and  N_36
    4  A    between atoms: C_11  and  C_40
    5  A    between atoms: C_16  and  C_39
    6  A    between atoms: C_17  and  C_22
    7  A    between atoms: C_17  and  N_36
    8  A    between atoms: C_21  and  C_25
    9  A    between atoms: C_21  and  C_29
   10  A    between atoms: C_25  and  C_31
   11  A    between atoms: C_31  and  C_39
                            x       y       z     vdW  Elec       q    Type
                         _______ _______ _______ _____ _____    ______ ____

>  <TORSDO>
F 11

$$$$
=
 OpenBabel10222421593D

 40 47  0  0  1  0  0  0  0  0999 V2000
  184.1280  178.7870  146.0730 C   0  0  0  0  0  2  0  0  0  0  0  0
  184.6740  178.7710  144.8690 C   0  0  2  0  0  3  0  0  0  0  0  0
  188.8230  177.4670  144.3830 C   0  0  2  0  0  3  0  0  0  0  0  0
  188.9580  176.6310  147.9710 N   0  0  0  0  0  0  0  0  0  0  0  0
  189.4640  176.5310  146.7240 C   0  0  0  0  0  3  0  0  0  0  0  0
  188.5990  177.1750  145.8540 C   0  0  0  0  0  0  0  0  0  0  0  0
  184.1320  178.1760  143.6060 C   0  0  2  0  0  3  0  0  0  0  0  0
  187.6160  177.2680  143.5770 N   0  0  0  0  0  0  0  0  0  0  0  0
  185.2490  178.7850  147.0800 C   0  0  0  0  0  2  0  0  0  0  0  0
  186.4350  178.4550  146.2190 C   0  0  2  0  0  3  0  0  0  0  0  0
  186.0700  178.5730  144.9600 C   0  0  1  0  0  3  0  0  0  0  0  0
  186.4590  177.8170  143.7940 C   0  0  0  0  0  0  0  0  0  0  0  0
  185.3200  177.5920  142.9610 N   0  0  0  0  0  2  0  0  0  0  0  0
  187.8310  177.3260  147.9350 N   0  0  0  0  0  2  0  0  0  0  0  0
  187.6000  177.6800  146.6600 C   0  0  0  0  0  0  0  0  0  0  0  0
  191.1980  177.3370  143.5070 C   0  0  1  0  0  0  0  0  0  0  0  0
  191.0480  176.5710  144.6810 O   0  0  0  0  0  0  0  0  0  0  0  0
  189.9390  176.5960  143.7990 C   0  0  1  0  0  3  0  0  0  0  0  0
  191.4520  179.9640  143.9720 C   0  0  0  0  0  3  0  0  0  0  0  0
  191.3380  178.7820  143.7550 C   0  0  0  0  0  0  0  0  0  0  0  0
  192.0510  176.7220  142.4890 N   0  0  0  0  0  2  0  0  0  0  0  0
  192.1790  177.5910  141.3180 C   0  0  0  0  0  2  0  0  0  0  0  0
  191.6610  177.0070  139.0580 O   0  0  0  0  0  0  0  0  0  0  0  0
  191.2400  177.1640  140.2360 C   0  0  0  0  0  0  0  0  0  0  0  0
  189.9010  176.9300  140.5310 O   0  0  0  0  0  1  0  0  0  0  0  0
  183.5330  179.2560  142.7200 C   0  0  0  0  0  2  0  0  0  0  0  0
  182.7270  178.6100  141.6050 C   0  0  0  0  0  2  0  0  0  0  0  0
  183.2430  179.0530  140.2480 C   0  0  1  0  0  3  0  0  0  0  0  0
  184.5530  179.5160  140.3630 O   0  0  0  0  0  1  0  0  0  0  0  0
  183.2010  177.8690  139.3010 C   0  0  0  0  0  2  0  0  0  0  0  0
  182.7830  175.4380  137.1640 C   0  0  2  0  0  3  0  0  0  0  0  0
  183.4240  177.6900  136.7240 C   0  0  2  0  0  3  0  0  0  0  0  0
  182.2130  176.7960  136.8300 C   0  0  0  0  0  2  0  0  0  0  0  0
  181.8240  174.6880  138.0600 C   0  0  0  0  0  1  0  0  0  0  0  0
  184.5130  176.8610  137.3670 C   0  0  1  0  0  0  0  0  0  0  0  0
  184.0560  178.1380  138.0610 C   0  0  2  0  0  3  0  0  0  0  0  0
  184.0030  175.6260  137.8300 O   0  0  0  0  0  0  0  0  0  0  0  0
  185.8070  176.8830  136.5560 C   0  0  0  0  0  3  0  0  0  0  0  0
  186.9930  176.4270  137.3900 C   0  0  0  0  0  2  0  0  0  0  0  0
  186.7680  177.9020  137.1420 C   0  0  0  0  0  2  0  0  0  0  0  0
  1  9  1  0  0  0  0
  2 11  1  0  0  0  0
  2  1  1  1  0  0  0
  3  8  1  6  0  0  0
  3  6  1  0  0  0  0
  5  4  2  0  0  0  0
  6 15  2  0  0  0  0
  6  5  1  0  0  0  0
  7 26  1  6  0  0  0
  7  2  1  0  0  0  0
  8 12  2  0  0  0  0
 10 15  1  0  0  0  0
 10  9  1  1  0  0  0
 11 12  1  6  0  0  0
 11 10  1  0  0  0  0
 13  7  1  0  0  0  0
 13 12  1  0  0  0  0
 14  4  1  0  0  0  0
 15 14  1  0  0  0  0
 16 20  1  1  0  0  0
 16 18  1  0  0  0  0
 16 17  1  0  0  0  0
 18  3  1  0  0  0  0
 18 17  1  1  0  0  0
 20 19  3  0  0  0  0
 21 16  1  0  0  0  0
 22 21  1  0  0  0  0
 23 24  2  0  0  0  0
 24 25  1  0  0  0  0
 24 22  1  0  0  0  0
 27 26  1  0  0  0  0
 28 29  1  1  0  0  0
 28 27  1  0  0  0  0
 30 28  1  0  0  0  0
 31 37  1  0  0  0  0
 31 34  1  1  0  0  0
 32 33  1  1  0  0  0
 32 35  1  0  0  0  0
 32 36  1  0  0  0  0
 33 31  1  0  0  0  0
 35 38  1  6  0  0  0
 35 37  1  0  0  0  0
 35 36  1  0  0  0  0
 36 30  1  1  0  0  0
 38 40  1  0  0  0  0
 38 39  1  0  0  0  0
 40 39  1  0  0  0  0
M  END
>  <MODEL>
8

>  <REMARK>
 VINA RESULT:      -7.8      2.051      3.668
  Name = 
  11 active torsions:
  status: ('A' for Active; 'I' for Inactive)
    1  A    between atoms: C_2  and  C_20
    2  A    between atoms: C_5  and  C_27
    3  A    between atoms: C_11  and  N_36
    4  A    between atoms: C_11  and  C_40
    5  A    between atoms: C_16  and  C_39
    6  A    between atoms: C_17  and  C_22
    7  A    between atoms: C_17  and  N_36
    8  A    between atoms: C_21  and  C_25
    9  A    between atoms: C_21  and  C_29
   10  A    between atoms: C_25  and  C_31
   11  A    between atoms: C_31  and  C_39
                            x       y       z     vdW  Elec       q    Type
                         _______ _______ _______ _____ _____    ______ ____

>  <TORSDO>
F 11

$$$$
=
 OpenBabel10222421593D

 40 47  0  0  1  0  0  0  0  0999 V2000
  188.5140  176.8100  136.1380 C   0  0  0  0  0  2  0  0  0  0  0  0
  187.9680  176.9960  137.3280 C   0  0  2  0  0  3  0  0  0  0  0  0
  190.5060  177.0680  140.8930 C   0  0  2  0  0  3  0  0  0  0  0  0
  193.4910  176.7890  138.7470 N   0  0  0  0  0  0  0  0  0  0  0  0
  192.9260  177.0750  139.9390 C   0  0  0  0  0  2  0  0  0  0  0  0
  191.5500  176.9910  139.7970 C   0  0  0  0  0  0  0  0  0  0  0  0
  186.9990  178.0540  137.7560 C   0  0  2  0  0  3  0  0  0  0  0  0
  189.3260  177.8390  140.4960 N   0  0  0  0  0  0  0  0  0  0  0  0
  189.8720  176.1930  136.3530 C   0  0  0  0  0  2  0  0  0  0  0  0
  190.0630  176.3760  137.8310 C   0  0  2  0  0  3  0  0  0  0  0  0
  188.9060  176.7300  138.3510 C   0  0  1  0  0  3  0  0  0  0  0  0
  188.6000  177.6270  139.4390 C   0  0  0  0  0  0  0  0  0  0  0  0
  187.4500  178.4080  139.1130 N   0  0  0  0  0  2  0  0  0  0  0  0
  192.5430  176.5050  137.8670 N   0  0  0  0  0  0  0  0  0  0  0  0
  191.3550  176.6080  138.4860 C   0  0  0  0  0  0  0  0  0  0  0  0
  190.2400  177.4580  143.3830 C   0  0  1  0  0  0  0  0  0  0  0  0
  191.3780  176.6720  143.1120 O   0  0  0  0  0  0  0  0  0  0  0  0
  191.0760  177.6880  142.1720 C   0  0  1  0  0  3  0  0  0  0  0  0
  187.9390  176.0880  143.3150 C   0  0  0  0  0  3  0  0  0  0  0  0
  188.9750  176.7080  143.3380 C   0  0  0  0  0  0  0  0  0  0  0  0
  190.4250  178.4400  144.4530 N   0  0  0  0  0  2  0  0  0  0  0  0
  189.7440  178.0150  145.6770 C   0  0  0  0  0  2  0  0  0  0  0  0
  191.8870  177.2200  146.3790 O   0  0  0  0  0  0  0  0  0  0  0  0
  190.6350  177.1460  146.5060 C   0  0  0  0  0  0  0  0  0  0  0  0
  190.0820  176.2610  147.4250 O   0  0  0  0  0  1  0  0  0  0  0  0
  185.5860  177.4980  137.8030 C   0  0  0  0  0  2  0  0  0  0  0  0
  185.0730  177.2940  136.3870 C   0  0  0  0  0  2  0  0  0  0  0  0
  184.4090  175.9370  136.2490 C   0  0  1  0  0  3  0  0  0  0  0  0
  184.6660  175.1630  137.3800 O   0  0  0  0  0  1  0  0  0  0  0  0
  182.9130  176.1390  136.0980 C   0  0  0  0  0  2  0  0  0  0  0  0
  180.7580  178.5050  136.7350 C   0  0  2  0  0  3  0  0  0  0  0  0
  180.7020  176.2320  137.4490 C   0  0  2  0  0  3  0  0  0  0  0  0
  180.2370  177.1430  136.3400 C   0  0  0  0  0  2  0  0  0  0  0  0
  181.1150  179.2930  135.4960 C   0  0  0  0  0  1  0  0  0  0  0  0
  181.7430  177.0690  138.1590 C   0  0  1  0  0  0  0  0  0  0  0  0
  182.1910  175.8200  137.4090 C   0  0  2  0  0  3  0  0  0  0  0  0
  181.9020  178.3240  137.5260 O   0  0  0  0  0  0  0  0  0  0  0  0
  181.5940  177.0060  139.6770 C   0  0  0  0  0  3  0  0  0  0  0  0
  181.8620  178.3590  140.3170 C   0  0  0  0  0  2  0  0  0  0  0  0
  182.9310  177.2880  140.3400 C   0  0  0  0  0  2  0  0  0  0  0  0
  1  9  1  0  0  0  0
  2  1  1  6  0  0  0
  2  7  1  0  0  0  0
  2 11  1  0  0  0  0
  3  6  1  6  0  0  0
  3 18  1  0  0  0  0
  4  5  1  0  0  0  0
  6  5  1  0  0  0  0
  7 26  1  1  0  0  0
  7 13  1  0  0  0  0
  8  3  1  0  0  0  0
 10  9  1  6  0  0  0
 10 11  1  0  0  0  0
 10 15  1  0  0  0  0
 11 12  1  6  0  0  0
 12  8  2  0  0  0  0
 13 12  1  0  0  0  0
 14 15  1  0  0  0  0
 14  4  2  0  0  0  0
 15  6  2  0  0  0  0
 16 20  1  6  0  0  0
 16 21  1  0  0  0  0
 17 16  1  0  0  0  0
 18 17  1  1  0  0  0
 18 16  1  0  0  0  0
 19 20  3  0  0  0  0
 21 22  1  0  0  0  0
 22 24  1  0  0  0  0
 23 24  2  0  0  0  0
 24 25  1  0  0  0  0
 27 26  1  0  0  0  0
 28 27  1  0  0  0  0
 28 29  1  1  0  0  0
 30 28  1  0  0  0  0
 31 34  1  6  0  0  0
 31 37  1  0  0  0  0
 32 33  1  6  0  0  0
 32 35  1  0  0  0  0
 33 31  1  0  0  0  0
 35 38  1  1  0  0  0
 36 30  1  6  0  0  0
 36 32  1  0  0  0  0
 36 35  1  0  0  0  0
 37 35  1  0  0  0  0
 38 39  1  0  0  0  0
 38 40  1  0  0  0  0
 39 40  1  0  0  0  0
M  END
>  <MODEL>
9

>  <REMARK>
 VINA RESULT:      -7.4      2.808      6.608
  Name = 
  11 active torsions:
  status: ('A' for Active; 'I' for Inactive)
    1  A    between atoms: C_2  and  C_20
    2  A    between atoms: C_5  and  C_27
    3  A    between atoms: C_11  and  N_36
    4  A    between atoms: C_11  and  C_40
    5  A    between atoms: C_16  and  C_39
    6  A    between atoms: C_17  and  C_22
    7  A    between atoms: C_17  and  N_36
    8  A    between atoms: C_21  and  C_25
    9  A    between atoms: C_21  and  C_29
   10  A    between atoms: C_25  and  C_31
   11  A    between atoms: C_31  and  C_39
                            x       y       z     vdW  Elec       q    Type
                         _______ _______ _______ _____ _____    ______ ____

>  <TORSDO>
F 11

$$$$
