=
 OpenBabel10232410103D

 62 71  0  0  1  0  0  0  0  0999 V2000
  188.9890  173.8360  134.7520 C   0  0  0  0  0  2  0  0  0  0  0  0
  187.2290  176.5160  136.2580 C   0  0  2  0  0  0  0  0  0  0  0  0
  189.4430  177.4100  135.7500 O   0  0  0  0  0  0  0  0  0  0  0  0
  184.3840  176.8430  136.3830 C   0  0  2  0  0  3  0  0  0  0  0  0
  183.0480  176.6960  136.0120 O   0  0  0  0  0  1  0  0  0  0  0  0
  185.2200  177.1630  135.1640 C   0  0  0  0  0  2  0  0  0  0  0  0
  188.2000  174.1140  136.0330 C   0  0  1  0  0  3  0  0  0  0  0  0
  190.7510  176.8850  135.8240 C   0  0  0  0  0  2  0  0  0  0  0  0
  189.8440  175.0260  134.3460 C   0  0  0  0  0  2  0  0  0  0  0  0
  190.8010  175.3960  135.4880 C   0  0  1  0  0  3  0  0  0  0  0  0
  187.0350  175.0710  135.7750 C   0  0  1  0  0  3  0  0  0  0  0  0
  184.9010  175.5400  136.9570 C   0  0  0  0  0  2  0  0  0  0  0  0
  186.5150  177.5440  135.5670 O   0  0  0  0  0  0  0  0  0  0  0  0
  188.5880  176.9970  136.8120 C   0  0  2  0  0  3  0  0  0  0  0  0
  186.4290  175.5200  137.1170 C   0  0  2  0  0  3  0  0  0  0  0  0
  192.2450  174.9010  135.3460 C   0  0  1  0  0  3  0  0  0  0  0  0
  192.8220  174.5290  136.6890 C   0  0  1  0  0  3  0  0  0  0  0  0
  192.9160  173.1680  136.3460 O   0  0  0  0  0  0  0  0  0  0  0  0
  192.3550  173.4200  135.0810 C   0  0  0  0  0  2  0  0  0  0  0  0
  194.2700  176.6200  136.5550 C   0  0  0  0  0  1  0  0  0  0  0  0
  194.4700  175.1090  138.4810 C   0  0  0  0  0  1  0  0  0  0  0  0
  194.2070  175.1550  136.9800 C   0  0  0  0  0  0  0  0  0  0  0  0
  199.5850  174.8520  137.9580 O   0  0  0  0  0  0  0  0  0  0  0  0
  199.1830  173.6350  135.9020 C   0  0  0  0  0  2  0  0  0  0  0  0
  198.1340  174.7470  135.8090 C   0  0  1  0  0  3  0  0  0  0  0  0
  197.2030  174.4980  134.6220 C   0  0  0  0  0  2  0  0  0  0  0  0
  196.3900  173.9860  137.1420 O   0  0  0  0  0  0  0  0  0  0  0  0
  195.8040  175.0000  134.9460 C   0  0  0  0  0  2  0  0  0  0  0  0
  199.8950  173.6740  137.2590 C   0  0  0  0  0  2  0  0  0  0  0  0
  198.2170  174.7600  138.2660 C   0  0  0  0  0  2  0  0  0  0  0  0
  197.3730  174.9310  137.0700 N   0  0  1  0  0  0  0  0  0  0  0  0
  195.3310  174.3720  136.2720 C   0  0  2  0  0  3  0  0  0  0  0  0
  187.3610  170.5400  136.4610 N   0  0  0  0  0  2  0  0  0  0  0  0
  187.7300  172.8580  136.6100 N   0  0  0  0  0  2  0  0  0  0  0  0
  187.7730  171.6250  135.8970 C   0  0  0  0  0  3  0  0  0  0  0  0
  189.1840  176.2170  137.9990 C   0  0  0  0  0  2  0  0  0  0  0  0
  189.8670  177.1720  138.9530 C   0  0  1  0  0  3  0  0  0  0  0  0
  190.2810  176.4170  140.2050 C   0  0  1  0  0  3  0  0  0  0  0  0
  191.3070  176.7450  139.1380 C   0  0  0  0  0  2  0  0  0  0  0  0
  191.8000  177.5800  141.6170 C   0  0  0  0  0  1  0  0  0  0  0  0
  190.3880  177.3670  141.3170 N   0  0  0  0  0  0  0  0  0  0  0  0
  189.6670  176.9840  142.5600 C   0  0  2  0  0  3  0  0  0  0  0  0
  189.0590  178.1940  143.2760 C   0  0  2  0  0  3  0  0  0  0  0  0
  190.2970  177.4980  143.8560 C   0  0  1  0  0  3  0  0  0  0  0  0
  187.7430  177.8400  143.9850 C   0  0  0  0  0  2  0  0  0  0  0  0
  186.6740  177.3130  143.0340 C   0  0  0  0  0  2  0  0  0  0  0  0
  185.8330  178.4410  142.4620 C   0  0  0  0  0  2  0  0  0  0  0  0
  183.2160  179.4080  139.1520 C   0  0  0  0  0  1  0  0  0  0  0  0
  183.5020  179.5030  140.5790 N   0  0  0  0  0  0  0  0  0  0  0  0
  183.6140  179.0690  143.4030 C   0  0  2  0  0  3  0  0  0  0  0  0
  181.2360  178.5840  143.3310 O   0  0  0  0  0  1  0  0  0  0  0  0
  182.2610  179.3060  142.7110 C   0  0  2  0  0  3  0  0  0  0  0  0
  183.7160  177.0650  140.2990 O   0  0  0  0  0  1  0  0  0  0  0  0
  183.6840  178.1590  141.1740 C   0  0  2  0  0  0  0  0  0  0  0  0
  182.3900  178.8110  141.2720 C   0  0  2  0  0  3  0  0  0  0  0  0
  184.3540  178.0760  142.5360 C   0  0  1  0  0  3  0  0  0  0  0  0
  184.6730  179.0860  145.6610 C   0  0  0  0  0  1  0  0  0  0  0  0
  183.5120  178.5670  144.8380 C   0  0  0  0  0  2  0  0  0  0  0  0
  190.0200  176.5070  144.9810 C   0  0  0  0  0  2  0  0  0  0  0  0
  191.8960  176.6960  146.6530 N   0  0  0  0  0  1  0  0  0  0  0  0
  190.5640  177.0170  146.2730 C   0  0  0  0  0  0  0  0  0  0  0  0
  189.8410  177.7010  147.0420 O   0  0  0  0  0  0  0  0  0  0  0  0
  1  7  1  0  0  0  0
  2 13  1  6  0  0  0
  2 14  1  0  0  0  0
  2 15  1  0  0  0  0
  3  8  1  0  0  0  0
  3 14  1  0  0  0  0
  4  5  1  6  0  0  0
  4 12  1  0  0  0  0
  6 13  1  0  0  0  0
  6  4  1  0  0  0  0
  7 34  1  6  0  0  0
  9  1  1  0  0  0  0
 10  9  1  6  0  0  0
 10  8  1  0  0  0  0
 11  7  1  0  0  0  0
 11  2  1  0  0  0  0
 11 15  1  0  0  0  0
 12 15  1  0  0  0  0
 14 36  1  0  0  0  0
 16 10  1  0  0  0  0
 16 17  1  0  0  0  0
 17 22  1  0  0  0  0
 18 17  1  0  0  0  0
 19 16  1  0  0  0  0
 19 18  1  0  0  0  0
 20 22  1  0  0  0  0
 22 21  1  0  0  0  0
 23 30  1  0  0  0  0
 24 29  1  0  0  0  0
 25 24  1  0  0  0  0
 25 31  1  0  0  0  0
 26 28  1  0  0  0  0
 26 25  1  0  0  0  0
 28 32  1  0  0  0  0
 29 23  1  0  0  0  0
 31 27  1  0  0  0  0
 31 30  1  0  0  0  0
 32 22  1  0  0  0  0
 32 27  1  0  0  0  0
 35 33  2  0  0  0  0
 35 34  1  0  0  0  0
 36 37  1  0  0  0  0
 37 39  1  0  0  0  0
 37 38  1  0  0  0  0
 38 41  1  0  0  0  0
 39 38  1  0  0  0  0
 41 40  1  0  0  0  0
 41 42  1  0  0  0  0
 42 43  1  0  0  0  0
 42 44  1  0  0  0  0
 43 44  1  0  0  0  0
 43 45  1  0  0  0  0
 44 59  1  0  0  0  0
 46 45  1  0  0  0  0
 47 56  1  0  0  0  0
 47 46  1  0  0  0  0
 48 49  1  0  0  0  0
 49 54  1  0  0  0  0
 49 55  1  0  0  0  0
 50 58  1  0  0  0  0
 52 51  1  0  0  0  0
 52 50  1  0  0  0  0
 53 54  1  0  0  0  0
 54 55  1  0  0  0  0
 54 56  1  0  0  0  0
 55 52  1  0  0  0  0
 56 50  1  0  0  0  0
 58 57  1  0  0  0  0
 59 61  1  0  0  0  0
 61 60  1  0  0  0  0
 61 62  2  0  0  0  0
M  END
>  <MODEL>
1

>  <REMARK>
 VINA RESULT:      -7.4      0.000      0.000
  Name = 
  15 active torsions:
  status: ('A' for Active; 'I' for Inactive)
    1  A    between atoms: C_4  and  C_33
    2  A    between atoms: C_7  and  C_37
    3  A    between atoms: C_8  and  N_27
    4  A    between atoms: C_13  and  N_27
    5  A    between atoms: C_18  and  C_22
    6  A    between atoms: C_22  and  C_26
    7  A    between atoms: C_25  and  C_55
    8  A    between atoms: C_26  and  C_60
    9  A    between atoms: C_28  and  C_37
   10  A    between atoms: C_30  and  N_41
   11  A    between atoms: C_33  and  C_49
   12  A    between atoms: C_34  and  C_45
   13  A    between atoms: C_47  and  C_51
   14  A    between atoms: C_51  and  C_59
   15  A    between atoms: C_60  and  C_62
                            x       y       z     vdW  Elec       q    Type
                         _______ _______ _______ _____ _____    ______ ____

>  <TORSDO>
F 15

$$$$
=
 OpenBabel10232410103D

 62 71  0  0  1  0  0  0  0  0999 V2000
  187.5870  173.6880  134.9570 C   0  0  0  0  0  2  0  0  0  0  0  0
  186.5110  176.7770  136.3170 C   0  0  2  0  0  0  0  0  0  0  0  0
  188.7780  177.1880  135.5120 O   0  0  0  0  0  0  0  0  0  0  0  0
  183.8010  177.6450  136.6680 C   0  0  2  0  0  3  0  0  0  0  0  0
  182.4280  177.7190  136.4400 O   0  0  0  0  0  1  0  0  0  0  0  0
  184.5410  177.6890  135.3490 C   0  0  0  0  0  2  0  0  0  0  0  0
  187.0070  174.2240  136.2670 C   0  0  1  0  0  3  0  0  0  0  0  0
  189.9720  176.4340  135.5220 C   0  0  0  0  0  2  0  0  0  0  0  0
  188.5900  174.6540  134.3470 C   0  0  0  0  0  2  0  0  0  0  0  0
  189.7180  174.9390  135.3470 C   0  0  1  0  0  3  0  0  0  0  0  0
  186.0100  175.3570  136.0150 C   0  0  1  0  0  3  0  0  0  0  0  0
  184.1380  176.3240  137.3310 C   0  0  0  0  0  2  0  0  0  0  0  0
  185.9190  177.8540  135.5870 O   0  0  0  0  0  0  0  0  0  0  0  0
  187.9870  177.0410  136.6870 C   0  0  2  0  0  3  0  0  0  0  0  0
  185.6460  176.0310  137.3500 C   0  0  2  0  0  3  0  0  0  0  0  0
  191.0260  174.1700  135.1280 C   0  0  1  0  0  3  0  0  0  0  0  0
  192.0360  174.5060  136.1960 C   0  0  1  0  0  3  0  0  0  0  0  0
  192.0130  173.2010  136.7230 O   0  0  0  0  0  0  0  0  0  0  0  0
  191.0460  172.8090  135.7790 C   0  0  0  0  0  2  0  0  0  0  0  0
  194.0660  173.7540  134.8570 C   0  0  0  0  0  1  0  0  0  0  0  0
  193.2880  176.0780  134.7050 C   0  0  0  0  0  1  0  0  0  0  0  0
  193.4320  174.8920  135.6520 C   0  0  0  0  0  0  0  0  0  0  0  0
  198.5190  173.2930  136.8940 O   0  0  0  0  0  0  0  0  0  0  0  0
  197.7800  174.7290  138.7010 C   0  0  0  0  0  2  0  0  0  0  0  0
  196.4700  174.0450  138.3000 C   0  0  1  0  0  3  0  0  0  0  0  0
  195.2930  174.6830  139.0380 C   0  0  0  0  0  2  0  0  0  0  0  0
  195.7590  175.2420  136.4410 O   0  0  0  0  0  0  0  0  0  0  0  0
  194.0530  174.6570  138.1570 C   0  0  0  0  0  2  0  0  0  0  0  0
  198.9080  174.3480  137.7350 C   0  0  0  0  0  2  0  0  0  0  0  0
  197.5000  173.8150  136.0800 C   0  0  0  0  0  2  0  0  0  0  0  0
  196.2510  174.0310  136.8310 N   0  0  1  0  0  0  0  0  0  0  0  0
  194.3810  175.3040  136.7960 C   0  0  2  0  0  3  0  0  0  0  0  0
  184.5040  171.8570  137.6050 N   0  0  0  0  0  2  0  0  0  0  0  0
  186.3880  173.1370  137.0190 N   0  0  0  0  0  2  0  0  0  0  0  0
  184.9960  172.8410  136.9320 C   0  0  0  0  0  3  0  0  0  0  0  0
  188.5620  176.2730  137.8920 C   0  0  0  0  0  2  0  0  0  0  0  0
  189.1930  177.2430  138.8680 C   0  0  1  0  0  3  0  0  0  0  0  0
  190.6590  176.8850  139.0490 C   0  0  1  0  0  3  0  0  0  0  0  0
  190.2620  178.0420  138.1540 C   0  0  0  0  0  2  0  0  0  0  0  0
  192.5680  177.4680  140.3420 C   0  0  0  0  0  1  0  0  0  0  0  0
  191.1110  177.3870  140.3510 N   0  0  0  0  0  0  0  0  0  0  0  0
  190.6630  176.6030  141.5320 C   0  0  2  0  0  3  0  0  0  0  0  0
  189.6310  177.3590  142.3750 C   0  0  2  0  0  3  0  0  0  0  0  0
  191.0670  177.1880  142.8870 C   0  0  1  0  0  3  0  0  0  0  0  0
  188.6110  176.4090  143.0220 C   0  0  0  0  0  2  0  0  0  0  0  0
  187.2030  176.9930  143.0820 C   0  0  0  0  0  2  0  0  0  0  0  0
  186.5850  176.8150  144.4570 C   0  0  0  0  0  2  0  0  0  0  0  0
  188.6580  176.6540  148.2530 C   0  0  0  0  0  1  0  0  0  0  0  0
  187.4630  177.0260  147.5050 N   0  0  0  0  0  0  0  0  0  0  0  0
  185.4790  178.4290  145.9990 C   0  0  2  0  0  3  0  0  0  0  0  0
  185.8560  180.3370  147.4520 O   0  0  0  0  0  1  0  0  0  0  0  0
  185.9000  178.9400  147.3870 C   0  0  2  0  0  3  0  0  0  0  0  0
  189.1610  178.1250  146.1000 O   0  0  0  0  0  1  0  0  0  0  0  0
  187.8020  177.9150  146.3700 C   0  0  2  0  0  0  0  0  0  0  0  0
  187.3430  178.4980  147.6190 C   0  0  2  0  0  3  0  0  0  0  0  0
  186.7620  178.0890  145.2760 C   0  0  1  0  0  3  0  0  0  0  0  0
  183.2440  178.8680  144.9810 C   0  0  0  0  0  1  0  0  0  0  0  0
  184.6430  179.4120  145.1890 C   0  0  0  0  0  2  0  0  0  0  0  0
  191.2720  176.0530  143.8870 C   0  0  0  0  0  2  0  0  0  0  0  0
  191.8400  175.7310  146.3200 N   0  0  0  0  0  1  0  0  0  0  0  0
  191.7670  176.5870  145.1880 C   0  0  0  0  0  0  0  0  0  0  0  0
  192.0900  177.7980  145.2970 O   0  0  0  0  0  0  0  0  0  0  0  0
  1  7  1  0  0  0  0
  2 13  1  6  0  0  0
  2 14  1  0  0  0  0
  2 15  1  0  0  0  0
  3  8  1  0  0  0  0
  3 14  1  0  0  0  0
  4  5  1  6  0  0  0
  4 12  1  0  0  0  0
  6 13  1  0  0  0  0
  6  4  1  0  0  0  0
  7 34  1  6  0  0  0
  9  1  1  0  0  0  0
 10  9  1  6  0  0  0
 10  8  1  0  0  0  0
 11  7  1  0  0  0  0
 11  2  1  0  0  0  0
 11 15  1  0  0  0  0
 12 15  1  0  0  0  0
 14 36  1  0  0  0  0
 16 10  1  0  0  0  0
 16 19  1  0  0  0  0
 16 17  1  0  0  0  0
 17 18  1  0  0  0  0
 19 18  1  0  0  0  0
 20 22  1  0  0  0  0
 21 22  1  0  0  0  0
 22 17  1  0  0  0  0
 22 32  1  0  0  0  0
 23 29  1  0  0  0  0
 25 24  1  0  0  0  0
 25 26  1  0  0  0  0
 27 32  1  0  0  0  0
 27 31  1  0  0  0  0
 28 26  1  0  0  0  0
 29 24  1  0  0  0  0
 30 31  1  0  0  0  0
 30 23  1  0  0  0  0
 31 25  1  0  0  0  0
 32 28  1  0  0  0  0
 35 34  1  0  0  0  0
 35 33  2  0  0  0  0
 36 37  1  0  0  0  0
 37 38  1  0  0  0  0
 38 41  1  0  0  0  0
 39 37  1  0  0  0  0
 39 38  1  0  0  0  0
 40 41  1  0  0  0  0
 41 42  1  0  0  0  0
 42 43  1  0  0  0  0
 42 44  1  0  0  0  0
 43 44  1  0  0  0  0
 43 45  1  0  0  0  0
 44 59  1  0  0  0  0
 45 46  1  0  0  0  0
 46 47  1  0  0  0  0
 47 56  1  0  0  0  0
 49 55  1  0  0  0  0
 49 48  1  0  0  0  0
 50 52  1  0  0  0  0
 52 51  1  0  0  0  0
 52 55  1  0  0  0  0
 53 54  1  0  0  0  0
 54 49  1  0  0  0  0
 54 55  1  0  0  0  0
 56 50  1  0  0  0  0
 56 54  1  0  0  0  0
 57 58  1  0  0  0  0
 58 50  1  0  0  0  0
 59 61  1  0  0  0  0
 61 62  2  0  0  0  0
 61 60  1  0  0  0  0
M  END
>  <MODEL>
2

>  <REMARK>
 VINA RESULT:      -6.9      2.061      3.271
  Name = 
  15 active torsions:
  status: ('A' for Active; 'I' for Inactive)
    1  A    between atoms: C_4  and  C_33
    2  A    between atoms: C_7  and  C_37
    3  A    between atoms: C_8  and  N_27
    4  A    between atoms: C_13  and  N_27
    5  A    between atoms: C_18  and  C_22
    6  A    between atoms: C_22  and  C_26
    7  A    between atoms: C_25  and  C_55
    8  A    between atoms: C_26  and  C_60
    9  A    between atoms: C_28  and  C_37
   10  A    between atoms: C_30  and  N_41
   11  A    between atoms: C_33  and  C_49
   12  A    between atoms: C_34  and  C_45
   13  A    between atoms: C_47  and  C_51
   14  A    between atoms: C_51  and  C_59
   15  A    between atoms: C_60  and  C_62
                            x       y       z     vdW  Elec       q    Type
                         _______ _______ _______ _____ _____    ______ ____

>  <TORSDO>
F 15

$$$$
=
 OpenBabel10232410103D

 62 71  0  0  1  0  0  0  0  0999 V2000
  189.8940  173.2840  134.8390 C   0  0  0  0  0  2  0  0  0  0  0  0
  188.6330  176.4580  135.7800 C   0  0  2  0  0  0  0  0  0  0  0  0
  191.0110  176.8120  135.3610 O   0  0  0  0  0  0  0  0  0  0  0  0
  185.9150  177.3480  135.5900 C   0  0  2  0  0  3  0  0  0  0  0  0
  184.6040  177.4080  135.1200 O   0  0  0  0  0  1  0  0  0  0  0  0
  186.8750  177.3030  134.4220 C   0  0  0  0  0  2  0  0  0  0  0  0
  189.0990  173.9070  135.9880 C   0  0  1  0  0  3  0  0  0  0  0  0
  192.1760  176.0600  135.6310 C   0  0  0  0  0  2  0  0  0  0  0  0
  191.0000  174.2060  134.3520 C   0  0  0  0  0  2  0  0  0  0  0  0
  191.9380  174.5570  135.5140 C   0  0  1  0  0  3  0  0  0  0  0  0
  188.1760  175.0210  135.4890 C   0  0  1  0  0  3  0  0  0  0  0  0
  186.1140  176.0750  136.3880 C   0  0  0  0  0  2  0  0  0  0  0  0
  188.1920  177.4840  134.8870 O   0  0  0  0  0  0  0  0  0  0  0  0
  190.0250  176.7450  136.3860 C   0  0  2  0  0  3  0  0  0  0  0  0
  187.5920  175.7840  136.6920 C   0  0  2  0  0  3  0  0  0  0  0  0
  193.2550  173.7740  135.5800 C   0  0  1  0  0  3  0  0  0  0  0  0
  193.4850  173.2210  136.9640 C   0  0  1  0  0  3  0  0  0  0  0  0
  193.3670  171.8900  136.5240 O   0  0  0  0  0  0  0  0  0  0  0  0
  193.1140  172.3190  135.2090 C   0  0  0  0  0  2  0  0  0  0  0  0
  194.8850  174.7740  138.4180 C   0  0  0  0  0  1  0  0  0  0  0  0
  195.3260  172.3580  138.4220 C   0  0  0  0  0  1  0  0  0  0  0  0
  194.8880  173.5230  137.5430 C   0  0  0  0  0  0  0  0  0  0  0  0
  199.8660  171.3500  136.8500 O   0  0  0  0  0  0  0  0  0  0  0  0
  199.5600  172.9690  135.0730 C   0  0  0  0  0  2  0  0  0  0  0  0
  198.7870  173.6260  136.2210 C   0  0  1  0  0  3  0  0  0  0  0  0
  198.0280  174.8520  135.7130 C   0  0  0  0  0  2  0  0  0  0  0  0
  196.7350  172.5370  136.2090 O   0  0  0  0  0  0  0  0  0  0  0  0
  196.7260  175.0120  136.4840 C   0  0  0  0  0  2  0  0  0  0  0  0
  200.0380  171.5690  135.4740 C   0  0  0  0  0  2  0  0  0  0  0  0
  198.4760  171.3360  137.0600 C   0  0  0  0  0  2  0  0  0  0  0  0
  197.8860  172.6800  136.9270 N   0  0  1  0  0  0  0  0  0  0  0  0
  195.9290  173.6930  136.4180 C   0  0  2  0  0  3  0  0  0  0  0  0
  186.5490  171.3580  136.7990 N   0  0  0  0  0  2  0  0  0  0  0  0
  188.3440  172.8740  136.6890 N   0  0  0  0  0  2  0  0  0  0  0  0
  187.1680  172.2810  136.1440 C   0  0  0  0  0  3  0  0  0  0  0  0
  190.3690  176.0600  137.7210 C   0  0  0  0  0  2  0  0  0  0  0  0
  190.5750  177.1040  138.7980 C   0  0  1  0  0  3  0  0  0  0  0  0
  190.5300  176.4310  140.1600 C   0  0  1  0  0  3  0  0  0  0  0  0
  191.8600  176.8070  139.5400 C   0  0  0  0  0  2  0  0  0  0  0  0
  191.1670  177.4620  142.2060 C   0  0  0  0  0  1  0  0  0  0  0  0
  190.1440  177.4260  141.1670 N   0  0  0  0  0  0  0  0  0  0  0  0
  188.8080  177.2250  141.7890 C   0  0  2  0  0  3  0  0  0  0  0  0
  188.0370  178.5390  141.9490 C   0  0  2  0  0  3  0  0  0  0  0  0
  188.6430  177.8470  143.1770 C   0  0  1  0  0  3  0  0  0  0  0  0
  186.5220  178.3380  141.7910 C   0  0  0  0  0  2  0  0  0  0  0  0
  186.0550  178.4230  140.3420 C   0  0  0  0  0  2  0  0  0  0  0  0
  184.8300  179.3100  140.2030 C   0  0  0  0  0  2  0  0  0  0  0  0
  181.4110  180.0030  137.6420 C   0  0  0  0  0  1  0  0  0  0  0  0
  181.9520  179.9080  138.9920 N   0  0  0  0  0  0  0  0  0  0  0  0
  182.7750  178.9990  141.5750 C   0  0  2  0  0  3  0  0  0  0  0  0
  180.6690  177.7990  141.7230 O   0  0  0  0  0  1  0  0  0  0  0  0
  181.2960  178.9170  141.1620 C   0  0  2  0  0  3  0  0  0  0  0  0
  182.7780  177.7700  138.0890 O   0  0  0  0  0  1  0  0  0  0  0  0
  182.6260  178.6060  139.2040 C   0  0  2  0  0  0  0  0  0  0  0  0
  181.2520  178.7760  139.6420 C   0  0  2  0  0  3  0  0  0  0  0  0
  183.5640  178.4830  140.3930 C   0  0  1  0  0  3  0  0  0  0  0  0
  183.2540  179.1720  144.0170 C   0  0  0  0  0  1  0  0  0  0  0  0
  183.1230  178.2250  142.8400 C   0  0  0  0  0  2  0  0  0  0  0  0
  187.6690  177.0040  143.9950 C   0  0  0  0  0  2  0  0  0  0  0  0
  188.0220  177.2470  146.4790 N   0  0  0  0  0  1  0  0  0  0  0  0
  187.3630  177.6730  145.2930 C   0  0  0  0  0  0  0  0  0  0  0  0
  186.5020  178.5880  145.3500 O   0  0  0  0  0  0  0  0  0  0  0  0
  1  7  1  0  0  0  0
  2 13  1  6  0  0  0
  2 14  1  0  0  0  0
  2 15  1  0  0  0  0
  3  8  1  0  0  0  0
  3 14  1  0  0  0  0
  4  5  1  6  0  0  0
  4 12  1  0  0  0  0
  6 13  1  0  0  0  0
  6  4  1  0  0  0  0
  7 34  1  6  0  0  0
  9  1  1  0  0  0  0
 10  9  1  6  0  0  0
 10 16  1  0  0  0  0
 10  8  1  0  0  0  0
 11  2  1  0  0  0  0
 11  7  1  0  0  0  0
 11 15  1  0  0  0  0
 12 15  1  0  0  0  0
 14 36  1  0  0  0  0
 16 17  1  0  0  0  0
 17 22  1  0  0  0  0
 18 17  1  0  0  0  0
 19 16  1  0  0  0  0
 19 18  1  0  0  0  0
 22 20  1  0  0  0  0
 22 21  1  0  0  0  0
 23 30  1  0  0  0  0
 24 29  1  0  0  0  0
 24 25  1  0  0  0  0
 25 31  1  0  0  0  0
 26 25  1  0  0  0  0
 26 28  1  0  0  0  0
 27 32  1  0  0  0  0
 27 31  1  0  0  0  0
 29 23  1  0  0  0  0
 31 30  1  0  0  0  0
 32 28  1  0  0  0  0
 32 22  1  0  0  0  0
 35 34  1  0  0  0  0
 35 33  2  0  0  0  0
 36 37  1  0  0  0  0
 37 39  1  0  0  0  0
 37 38  1  0  0  0  0
 38 41  1  0  0  0  0
 39 38  1  0  0  0  0
 41 42  1  0  0  0  0
 41 40  1  0  0  0  0
 42 43  1  0  0  0  0
 42 44  1  0  0  0  0
 43 44  1  0  0  0  0
 44 59  1  0  0  0  0
 45 43  1  0  0  0  0
 46 45  1  0  0  0  0
 47 46  1  0  0  0  0
 47 56  1  0  0  0  0
 48 49  1  0  0  0  0
 49 54  1  0  0  0  0
 49 55  1  0  0  0  0
 50 58  1  0  0  0  0
 52 50  1  0  0  0  0
 52 51  1  0  0  0  0
 53 54  1  0  0  0  0
 54 55  1  0  0  0  0
 54 56  1  0  0  0  0
 55 52  1  0  0  0  0
 56 50  1  0  0  0  0
 58 57  1  0  0  0  0
 59 61  1  0  0  0  0
 61 62  2  0  0  0  0
 61 60  1  0  0  0  0
M  END
>  <MODEL>
3

>  <REMARK>
 VINA RESULT:      -6.5      1.638      2.010
  Name = 
  15 active torsions:
  status: ('A' for Active; 'I' for Inactive)
    1  A    between atoms: C_4  and  C_33
    2  A    between atoms: C_7  and  C_37
    3  A    between atoms: C_8  and  N_27
    4  A    between atoms: C_13  and  N_27
    5  A    between atoms: C_18  and  C_22
    6  A    between atoms: C_22  and  C_26
    7  A    between atoms: C_25  and  C_55
    8  A    between atoms: C_26  and  C_60
    9  A    between atoms: C_28  and  C_37
   10  A    between atoms: C_30  and  N_41
   11  A    between atoms: C_33  and  C_49
   12  A    between atoms: C_34  and  C_45
   13  A    between atoms: C_47  and  C_51
   14  A    between atoms: C_51  and  C_59
   15  A    between atoms: C_60  and  C_62
                            x       y       z     vdW  Elec       q    Type
                         _______ _______ _______ _____ _____    ______ ____

>  <TORSDO>
F 15

$$$$
=
 OpenBabel10232410103D

 62 71  0  0  1  0  0  0  0  0999 V2000
  188.4940  173.9970  134.7630 C   0  0  0  0  0  2  0  0  0  0  0  0
  186.7260  176.6800  136.2540 C   0  0  2  0  0  0  0  0  0  0  0  0
  188.9330  177.5800  135.7330 O   0  0  0  0  0  0  0  0  0  0  0  0
  183.8790  176.9940  136.3850 C   0  0  2  0  0  3  0  0  0  0  0  0
  182.5430  176.8380  136.0190 O   0  0  0  0  0  1  0  0  0  0  0  0
  184.7110  177.3090  135.1610 C   0  0  0  0  0  2  0  0  0  0  0  0
  187.7070  174.2800  136.0440 C   0  0  1  0  0  3  0  0  0  0  0  0
  190.2450  177.0620  135.8070 C   0  0  0  0  0  2  0  0  0  0  0  0
  189.3420  175.1880  134.3460 C   0  0  0  0  0  2  0  0  0  0  0  0
  190.3010  175.5710  135.4820 C   0  0  1  0  0  3  0  0  0  0  0  0
  186.5370  175.2310  135.7820 C   0  0  1  0  0  3  0  0  0  0  0  0
  184.4040  175.6970  136.9670 C   0  0  0  0  0  2  0  0  0  0  0  0
  186.0050  177.6990  135.5580 O   0  0  0  0  0  0  0  0  0  0  0  0
  188.0840  177.1710  136.8010 C   0  0  2  0  0  3  0  0  0  0  0  0
  185.9330  175.6860  137.1230 C   0  0  2  0  0  3  0  0  0  0  0  0
  191.7470  175.0820  135.3400 C   0  0  1  0  0  3  0  0  0  0  0  0
  192.2620  174.5340  136.6470 C   0  0  1  0  0  3  0  0  0  0  0  0
  192.3620  173.2270  136.1360 O   0  0  0  0  0  0  0  0  0  0  0  0
  191.8600  173.6460  134.8910 C   0  0  0  0  0  2  0  0  0  0  0  0
  193.5060  176.4750  137.7290 C   0  0  0  0  0  1  0  0  0  0  0  0
  194.2620  174.1690  138.1060 C   0  0  0  0  0  1  0  0  0  0  0  0
  193.6360  175.1020  137.0750 C   0  0  0  0  0  0  0  0  0  0  0  0
  199.1010  174.9480  136.7760 O   0  0  0  0  0  0  0  0  0  0  0  0
  198.2970  175.4730  134.5510 C   0  0  0  0  0  2  0  0  0  0  0  0
  197.2550  176.1750  135.4260 C   0  0  1  0  0  3  0  0  0  0  0  0
  196.1070  176.6990  134.5620 C   0  0  0  0  0  2  0  0  0  0  0  0
  195.8050  174.4690  136.0480 O   0  0  0  0  0  0  0  0  0  0  0  0
  194.8010  176.6330  135.3400 C   0  0  0  0  0  2  0  0  0  0  0  0
  199.2630  174.6510  135.4130 C   0  0  0  0  0  2  0  0  0  0  0  0
  197.8200  174.4800  137.1150 C   0  0  0  0  0  2  0  0  0  0  0  0
  196.7570  175.3180  136.5330 N   0  0  1  0  0  0  0  0  0  0  0  0
  194.5960  175.2010  135.8720 C   0  0  2  0  0  3  0  0  0  0  0  0
  186.1090  170.9750  136.4620 N   0  0  0  0  0  2  0  0  0  0  0  0
  187.2450  173.0270  136.6310 N   0  0  0  0  0  2  0  0  0  0  0  0
  186.4770  172.0750  135.8990 C   0  0  0  0  0  3  0  0  0  0  0  0
  188.6870  176.4030  137.9910 C   0  0  0  0  0  2  0  0  0  0  0  0
  188.2820  177.0650  139.2910 C   0  0  1  0  0  3  0  0  0  0  0  0
  189.5310  177.4530  140.0640 C   0  0  1  0  0  3  0  0  0  0  0  0
  188.7580  178.5010  139.2870 C   0  0  0  0  0  2  0  0  0  0  0  0
  188.9960  176.1840  142.0030 C   0  0  0  0  0  1  0  0  0  0  0  0
  189.1980  177.5360  141.4900 N   0  0  0  0  0  0  0  0  0  0  0  0
  188.0200  178.3780  141.8260 C   0  0  2  0  0  3  0  0  0  0  0  0
  187.0040  177.6330  142.6990 C   0  0  2  0  0  3  0  0  0  0  0  0
  186.6960  177.9060  141.2210 C   0  0  1  0  0  3  0  0  0  0  0  0
  186.2900  178.5770  143.6790 C   0  0  0  0  0  2  0  0  0  0  0  0
  186.7710  178.4210  145.1180 C   0  0  0  0  0  2  0  0  0  0  0  0
  187.7690  177.2840  145.2510 C   0  0  0  0  0  2  0  0  0  0  0  0
  191.7260  176.9560  143.5280 C   0  0  0  0  0  1  0  0  0  0  0  0
  190.8240  176.6560  144.6340 N   0  0  0  0  0  0  0  0  0  0  0  0
  189.3540  176.7110  147.0850 C   0  0  2  0  0  3  0  0  0  0  0  0
  191.4070  177.3830  148.1950 O   0  0  0  0  0  1  0  0  0  0  0  0
  190.8920  176.6700  147.1070 C   0  0  2  0  0  3  0  0  0  0  0  0
  190.4530  179.0860  144.4750 O   0  0  0  0  0  1  0  0  0  0  0  0
  190.2140  177.8940  145.1720 C   0  0  2  0  0  0  0  0  0  0  0  0
  191.3850  177.3360  145.8240 C   0  0  2  0  0  3  0  0  0  0  0  0
  188.9820  177.7480  146.0500 C   0  0  1  0  0  3  0  0  0  0  0  0
  188.4580  178.5200  148.5520 C   0  0  0  0  0  1  0  0  0  0  0  0
  188.7100  177.0300  148.4290 C   0  0  0  0  0  2  0  0  0  0  0  0
  185.8040  179.1150  140.9540 C   0  0  0  0  0  2  0  0  0  0  0  0
  184.1070  179.3700  139.1080 N   0  0  0  0  0  1  0  0  0  0  0  0
  184.5410  178.6930  140.2810 C   0  0  0  0  0  0  0  0  0  0  0  0
  183.8430  177.7650  140.7630 O   0  0  0  0  0  0  0  0  0  0  0  0
  1  7  1  0  0  0  0
  2 13  1  6  0  0  0
  2 14  1  0  0  0  0
  2 15  1  0  0  0  0
  3  8  1  0  0  0  0
  3 14  1  0  0  0  0
  4  5  1  6  0  0  0
  4 12  1  0  0  0  0
  6 13  1  0  0  0  0
  6  4  1  0  0  0  0
  7 34  1  6  0  0  0
  9  1  1  0  0  0  0
 10  9  1  6  0  0  0
 10  8  1  0  0  0  0
 11  7  1  0  0  0  0
 11  2  1  0  0  0  0
 11 15  1  0  0  0  0
 12 15  1  0  0  0  0
 14 36  1  0  0  0  0
 16 10  1  0  0  0  0
 16 17  1  0  0  0  0
 17 22  1  0  0  0  0
 18 17  1  0  0  0  0
 19 16  1  0  0  0  0
 19 18  1  0  0  0  0
 22 20  1  0  0  0  0
 22 21  1  0  0  0  0
 23 30  1  0  0  0  0
 24 29  1  0  0  0  0
 24 25  1  0  0  0  0
 25 31  1  0  0  0  0
 26 28  1  0  0  0  0
 26 25  1  0  0  0  0
 27 31  1  0  0  0  0
 28 32  1  0  0  0  0
 29 23  1  0  0  0  0
 31 30  1  0  0  0  0
 32 27  1  0  0  0  0
 32 22  1  0  0  0  0
 35 33  2  0  0  0  0
 35 34  1  0  0  0  0
 36 37  1  0  0  0  0
 37 38  1  0  0  0  0
 38 41  1  0  0  0  0
 39 37  1  0  0  0  0
 39 38  1  0  0  0  0
 41 42  1  0  0  0  0
 41 40  1  0  0  0  0
 42 43  1  0  0  0  0
 43 45  1  0  0  0  0
 44 42  1  0  0  0  0
 44 43  1  0  0  0  0
 45 46  1  0  0  0  0
 46 47  1  0  0  0  0
 47 56  1  0  0  0  0
 48 49  1  0  0  0  0
 49 54  1  0  0  0  0
 49 55  1  0  0  0  0
 50 52  1  0  0  0  0
 50 58  1  0  0  0  0
 52 51  1  0  0  0  0
 53 54  1  0  0  0  0
 54 55  1  0  0  0  0
 54 56  1  0  0  0  0
 55 52  1  0  0  0  0
 56 50  1  0  0  0  0
 58 57  1  0  0  0  0
 59 44  1  0  0  0  0
 60 61  1  0  0  0  0
 61 62  2  0  0  0  0
 61 59  1  0  0  0  0
M  END
>  <MODEL>
4

>  <REMARK>
 VINA RESULT:      -6.1      1.472      4.440
  Name = 
  15 active torsions:
  status: ('A' for Active; 'I' for Inactive)
    1  A    between atoms: C_4  and  C_33
    2  A    between atoms: C_7  and  C_37
    3  A    between atoms: C_8  and  N_27
    4  A    between atoms: C_13  and  N_27
    5  A    between atoms: C_18  and  C_22
    6  A    between atoms: C_22  and  C_26
    7  A    between atoms: C_25  and  C_55
    8  A    between atoms: C_26  and  C_60
    9  A    between atoms: C_28  and  C_37
   10  A    between atoms: C_30  and  N_41
   11  A    between atoms: C_33  and  C_49
   12  A    between atoms: C_34  and  C_45
   13  A    between atoms: C_47  and  C_51
   14  A    between atoms: C_51  and  C_59
   15  A    between atoms: C_60  and  C_62
                            x       y       z     vdW  Elec       q    Type
                         _______ _______ _______ _____ _____    ______ ____

>  <TORSDO>
F 15

$$$$
=
 OpenBabel10232410103D

 62 71  0  0  1  0  0  0  0  0999 V2000
  185.8110  173.8990  135.1890 C   0  0  0  0  0  2  0  0  0  0  0  0
  184.4990  177.1420  135.7390 C   0  0  2  0  0  0  0  0  0  0  0  0
  186.8490  177.4900  135.1810 O   0  0  0  0  0  0  0  0  0  0  0  0
  181.7510  177.9370  135.5390 C   0  0  2  0  0  3  0  0  0  0  0  0
  180.4220  177.9010  135.1170 O   0  0  0  0  0  1  0  0  0  0  0  0
  182.6690  177.7530  134.3500 C   0  0  0  0  0  2  0  0  0  0  0  0
  185.0420  174.6560  136.2730 C   0  0  1  0  0  3  0  0  0  0  0  0
  188.0430  176.8090  135.5040 C   0  0  0  0  0  2  0  0  0  0  0  0
  186.8730  174.7700  134.5370 C   0  0  0  0  0  2  0  0  0  0  0  0
  187.8430  175.2980  135.6020 C   0  0  1  0  0  3  0  0  0  0  0  0
  184.0710  175.6690  135.6650 C   0  0  1  0  0  3  0  0  0  0  0  0
  182.0150  176.7900  136.4940 C   0  0  0  0  0  2  0  0  0  0  0  0
  183.9970  178.0260  134.7330 O   0  0  0  0  0  0  0  0  0  0  0  0
  185.9020  177.5410  136.2440 C   0  0  2  0  0  3  0  0  0  0  0  0
  183.5100  176.5770  136.7750 C   0  0  2  0  0  3  0  0  0  0  0  0
  189.1830  174.5620  135.7210 C   0  0  1  0  0  3  0  0  0  0  0  0
  190.0070  175.1210  136.8540 C   0  0  1  0  0  3  0  0  0  0  0  0
  189.9240  173.9250  137.5920 O   0  0  0  0  0  0  0  0  0  0  0  0
  189.1240  173.3350  136.5970 C   0  0  0  0  0  2  0  0  0  0  0  0
  191.5500  176.0830  135.0720 C   0  0  0  0  0  1  0  0  0  0  0  0
  192.0070  176.5010  137.4480 C   0  0  0  0  0  1  0  0  0  0  0  0
  191.4640  175.4690  136.4670 C   0  0  0  0  0  0  0  0  0  0  0  0
  196.8630  174.8720  135.7850 O   0  0  0  0  0  0  0  0  0  0  0  0
  195.9400  172.6430  136.0070 C   0  0  0  0  0  2  0  0  0  0  0  0
  194.8050  173.3730  135.2820 C   0  0  1  0  0  3  0  0  0  0  0  0
  193.5680  172.4780  135.2020 C   0  0  0  0  0  2  0  0  0  0  0  0
  193.6920  174.5030  136.9800 O   0  0  0  0  0  0  0  0  0  0  0  0
  192.3080  173.3280  135.2770 C   0  0  0  0  0  2  0  0  0  0  0  0
  197.0510  173.6240  136.3990 C   0  0  0  0  0  2  0  0  0  0  0  0
  195.6910  175.4010  136.3520 C   0  0  0  0  0  2  0  0  0  0  0  0
  194.4870  174.6920  135.8870 N   0  0  1  0  0  0  0  0  0  0  0  0
  192.3700  174.2230  136.5310 C   0  0  2  0  0  3  0  0  0  0  0  0
  183.1920  171.6860  137.4620 N   0  0  0  0  0  2  0  0  0  0  0  0
  184.3430  173.7110  137.1390 N   0  0  0  0  0  2  0  0  0  0  0  0
  183.7840  172.4940  136.6500 C   0  0  0  0  0  3  0  0  0  0  0  0
  186.3150  177.0540  137.6450 C   0  0  0  0  0  2  0  0  0  0  0  0
  185.2400  177.4070  138.6510 C   0  0  1  0  0  3  0  0  0  0  0  0
  185.8230  178.3390  139.6990 C   0  0  1  0  0  3  0  0  0  0  0  0
  184.9610  178.8930  138.5820 C   0  0  0  0  0  2  0  0  0  0  0  0
  183.7420  178.8620  140.7240 C   0  0  0  0  0  1  0  0  0  0  0  0
  185.0360  178.2190  140.9310 N   0  0  0  0  0  0  0  0  0  0  0  0
  185.6740  178.7660  142.1570 C   0  0  2  0  0  3  0  0  0  0  0  0
  186.1240  177.6620  143.1200 C   0  0  2  0  0  3  0  0  0  0  0  0
  184.8980  178.5220  143.4530 C   0  0  1  0  0  3  0  0  0  0  0  0
  187.3980  178.0530  143.8860 C   0  0  0  0  0  2  0  0  0  0  0  0
  188.2110  176.8480  144.3470 C   0  0  0  0  0  2  0  0  0  0  0  0
  188.3700  175.8250  143.2360 C   0  0  0  0  0  2  0  0  0  0  0  0
  191.7160  177.4750  145.4300 C   0  0  0  0  0  1  0  0  0  0  0  0
  190.8370  177.5430  144.2690 N   0  0  0  0  0  0  0  0  0  0  0  0
  189.6700  177.2640  141.6730 C   0  0  2  0  0  3  0  0  0  0  0  0
  191.8760  177.6630  140.7400 O   0  0  0  0  0  1  0  0  0  0  0  0
  191.0470  177.9310  141.8340 C   0  0  2  0  0  3  0  0  0  0  0  0
  191.5120  175.1800  144.1080 O   0  0  0  0  0  1  0  0  0  0  0  0
  190.8350  176.2610  143.5280 C   0  0  2  0  0  0  0  0  0  0  0  0
  191.6990  177.3390  143.0820 C   0  0  2  0  0  3  0  0  0  0  0  0
  189.7090  176.0220  142.5350 C   0  0  1  0  0  3  0  0  0  0  0  0
  189.4760  178.1260  139.3410 C   0  0  0  0  0  1  0  0  0  0  0  0
  189.2990  176.9170  140.2370 C   0  0  0  0  0  2  0  0  0  0  0  0
  185.1530  179.6750  144.4190 C   0  0  0  0  0  2  0  0  0  0  0  0
  185.7120  179.5380  146.8730 N   0  0  0  0  0  1  0  0  0  0  0  0
  184.8020  179.2750  145.8120 C   0  0  0  0  0  0  0  0  0  0  0  0
  183.7200  178.6780  146.0490 O   0  0  0  0  0  0  0  0  0  0  0  0
  1  7  1  0  0  0  0
  2 13  1  6  0  0  0
  2 14  1  0  0  0  0
  2 15  1  0  0  0  0
  3  8  1  0  0  0  0
  3 14  1  0  0  0  0
  4  5  1  6  0  0  0
  4 12  1  0  0  0  0
  6 13  1  0  0  0  0
  6  4  1  0  0  0  0
  7 34  1  6  0  0  0
  8 10  1  0  0  0  0
  9  1  1  0  0  0  0
 10  9  1  6  0  0  0
 10 16  1  0  0  0  0
 11  2  1  0  0  0  0
 11  7  1  0  0  0  0
 11 15  1  0  0  0  0
 12 15  1  0  0  0  0
 14 36  1  0  0  0  0
 16 19  1  0  0  0  0
 16 17  1  0  0  0  0
 17 18  1  0  0  0  0
 19 18  1  0  0  0  0
 20 22  1  0  0  0  0
 22 32  1  0  0  0  0
 22 17  1  0  0  0  0
 22 21  1  0  0  0  0
 23 30  1  0  0  0  0
 23 29  1  0  0  0  0
 24 29  1  0  0  0  0
 25 31  1  0  0  0  0
 25 24  1  0  0  0  0
 26 28  1  0  0  0  0
 26 25  1  0  0  0  0
 28 32  1  0  0  0  0
 31 30  1  0  0  0  0
 31 27  1  0  0  0  0
 32 27  1  0  0  0  0
 35 34  1  0  0  0  0
 35 33  2  0  0  0  0
 36 37  1  0  0  0  0
 37 38  1  0  0  0  0
 38 41  1  0  0  0  0
 39 37  1  0  0  0  0
 39 38  1  0  0  0  0
 40 41  1  0  0  0  0
 41 42  1  0  0  0  0
 42 43  1  0  0  0  0
 42 44  1  0  0  0  0
 43 44  1  0  0  0  0
 43 45  1  0  0  0  0
 44 59  1  0  0  0  0
 45 46  1  0  0  0  0
 47 46  1  0  0  0  0
 49 48  1  0  0  0  0
 50 52  1  0  0  0  0
 50 56  1  0  0  0  0
 51 52  1  0  0  0  0
 52 55  1  0  0  0  0
 54 53  1  0  0  0  0
 54 49  1  0  0  0  0
 55 54  1  0  0  0  0
 55 49  1  0  0  0  0
 56 47  1  0  0  0  0
 56 54  1  0  0  0  0
 57 58  1  0  0  0  0
 58 50  1  0  0  0  0
 59 61  1  0  0  0  0
 61 62  2  0  0  0  0
 61 60  1  0  0  0  0
M  END
>  <MODEL>
5

>  <REMARK>
 VINA RESULT:      -5.9      2.205      5.098
  Name = 
  15 active torsions:
  status: ('A' for Active; 'I' for Inactive)
    1  A    between atoms: C_4  and  C_33
    2  A    between atoms: C_7  and  C_37
    3  A    between atoms: C_8  and  N_27
    4  A    between atoms: C_13  and  N_27
    5  A    between atoms: C_18  and  C_22
    6  A    between atoms: C_22  and  C_26
    7  A    between atoms: C_25  and  C_55
    8  A    between atoms: C_26  and  C_60
    9  A    between atoms: C_28  and  C_37
   10  A    between atoms: C_30  and  N_41
   11  A    between atoms: C_33  and  C_49
   12  A    between atoms: C_34  and  C_45
   13  A    between atoms: C_47  and  C_51
   14  A    between atoms: C_51  and  C_59
   15  A    between atoms: C_60  and  C_62
                            x       y       z     vdW  Elec       q    Type
                         _______ _______ _______ _____ _____    ______ ____

>  <TORSDO>
F 15

$$$$
=
 OpenBabel10232410103D

 62 71  0  0  1  0  0  0  0  0999 V2000
  188.3540  174.1090  134.7900 C   0  0  0  0  0  2  0  0  0  0  0  0
  186.7010  176.7090  136.5390 C   0  0  2  0  0  0  0  0  0  0  0  0
  188.8430  177.6580  135.8570 O   0  0  0  0  0  0  0  0  0  0  0  0
  183.8750  176.9790  136.9390 C   0  0  2  0  0  3  0  0  0  0  0  0
  182.5130  176.8190  136.6890 O   0  0  0  0  0  1  0  0  0  0  0  0
  184.5890  177.3510  135.6580 C   0  0  0  0  0  2  0  0  0  0  0  0
  187.6830  174.3320  136.1470 C   0  0  1  0  0  3  0  0  0  0  0  0
  190.1610  177.1550  135.7920 C   0  0  0  0  0  2  0  0  0  0  0  0
  189.1490  175.3260  134.3460 C   0  0  0  0  0  2  0  0  0  0  0  0
  190.2020  175.6790  135.4050 C   0  0  1  0  0  3  0  0  0  0  0  0
  186.4850  175.2760  136.0300 C   0  0  1  0  0  3  0  0  0  0  0  0
  184.4640  175.6680  137.4190 C   0  0  0  0  0  2  0  0  0  0  0  0
  185.9100  177.7440  135.9510 O   0  0  0  0  0  0  0  0  0  0  0  0
  188.0980  177.1960  136.9800 C   0  0  2  0  0  3  0  0  0  0  0  0
  186.0000  175.6720  137.4360 C   0  0  2  0  0  3  0  0  0  0  0  0
  191.6340  175.2150  135.1140 C   0  0  1  0  0  3  0  0  0  0  0  0
  192.2980  174.6950  136.3640 C   0  0  1  0  0  3  0  0  0  0  0  0
  192.3690  173.3830  135.8610 O   0  0  0  0  0  0  0  0  0  0  0  0
  191.7280  173.7750  134.6730 C   0  0  0  0  0  2  0  0  0  0  0  0
  193.7070  176.8130  136.4790 C   0  0  0  0  0  1  0  0  0  0  0  0
  194.1030  174.9860  138.0720 C   0  0  0  0  0  1  0  0  0  0  0  0
  193.6980  175.2940  136.6360 C   0  0  0  0  0  0  0  0  0  0  0  0
  197.2340  171.1760  137.3570 O   0  0  0  0  0  0  0  0  0  0  0  0
  197.7530  172.1710  135.2090 C   0  0  0  0  0  2  0  0  0  0  0  0
  197.2990  173.3940  136.0100 C   0  0  1  0  0  3  0  0  0  0  0  0
  197.1810  174.6120  135.0930 C   0  0  0  0  0  2  0  0  0  0  0  0
  194.9790  173.2920  135.9210 O   0  0  0  0  0  0  0  0  0  0  0  0
  196.0490  175.5120  135.5690 C   0  0  0  0  0  2  0  0  0  0  0  0
  197.5470  170.8860  136.0190 C   0  0  0  0  0  2  0  0  0  0  0  0
  195.9720  171.7950  137.3240 C   0  0  0  0  0  2  0  0  0  0  0  0
  196.0420  173.1560  136.7660 N   0  0  1  0  0  0  0  0  0  0  0  0
  194.7570  174.6810  135.6970 C   0  0  2  0  0  3  0  0  0  0  0  0
  186.5530  170.8300  136.4860 N   0  0  0  0  0  2  0  0  0  0  0  0
  187.2890  173.0510  136.7240 N   0  0  0  0  0  2  0  0  0  0  0  0
  186.8740  171.9460  135.9250 C   0  0  0  0  0  3  0  0  0  0  0  0
  188.8140  176.3910  138.0800 C   0  0  0  0  0  2  0  0  0  0  0  0
  189.4820  177.3340  139.0580 C   0  0  1  0  0  3  0  0  0  0  0  0
  190.4030  176.5400  139.9680 C   0  0  1  0  0  3  0  0  0  0  0  0
  190.9750  177.3330  138.8100 C   0  0  0  0  0  2  0  0  0  0  0  0
  192.0110  177.4500  141.4660 C   0  0  0  0  0  1  0  0  0  0  0  0
  190.5820  177.2790  141.2220 N   0  0  0  0  0  0  0  0  0  0  0  0
  189.9410  176.6740  142.4210 C   0  0  2  0  0  3  0  0  0  0  0  0
  188.8410  177.5670  143.0040 C   0  0  2  0  0  3  0  0  0  0  0  0
  190.1850  177.4260  143.7310 C   0  0  1  0  0  3  0  0  0  0  0  0
  187.6990  176.7420  143.6180 C   0  0  0  0  0  2  0  0  0  0  0  0
  186.3250  177.1310  143.0830 C   0  0  0  0  0  2  0  0  0  0  0  0
  186.3800  178.4320  142.3010 C   0  0  0  0  0  2  0  0  0  0  0  0
  184.1110  178.9870  145.9450 C   0  0  0  0  0  1  0  0  0  0  0  0
  184.1780  178.4430  144.5940 N   0  0  0  0  0  0  0  0  0  0  0  0
  183.9780  178.0410  141.7700 C   0  0  2  0  0  3  0  0  0  0  0  0
  181.7540  179.0100  141.8820 O   0  0  0  0  0  1  0  0  0  0  0  0
  182.7120  178.2920  142.6070 C   0  0  2  0  0  3  0  0  0  0  0  0
  184.8520  180.7630  144.1130 O   0  0  0  0  0  1  0  0  0  0  0  0
  184.5100  179.5000  143.6110 C   0  0  2  0  0  0  0  0  0  0  0  0
  183.1210  179.1300  143.8160 C   0  0  2  0  0  3  0  0  0  0  0  0
  184.9920  179.0600  142.2380 C   0  0  1  0  0  3  0  0  0  0  0  0
  184.0590  179.5410  139.7780 C   0  0  0  0  0  1  0  0  0  0  0  0
  183.7700  178.1340  140.2640 C   0  0  0  0  0  2  0  0  0  0  0  0
  190.1980  176.4320  144.8890 C   0  0  0  0  0  2  0  0  0  0  0  0
  189.6750  178.0280  146.7680 N   0  0  0  0  0  1  0  0  0  0  0  0
  190.5790  177.1150  146.1580 C   0  0  0  0  0  0  0  0  0  0  0  0
  191.7080  176.9140  146.6750 O   0  0  0  0  0  0  0  0  0  0  0  0
  1  7  1  0  0  0  0
  2 13  1  6  0  0  0
  2 14  1  0  0  0  0
  2 15  1  0  0  0  0
  3 14  1  0  0  0  0
  4  5  1  6  0  0  0
  4 12  1  0  0  0  0
  6 13  1  0  0  0  0
  6  4  1  0  0  0  0
  7 34  1  6  0  0  0
  8  3  1  0  0  0  0
  9  1  1  0  0  0  0
 10  9  1  6  0  0  0
 10  8  1  0  0  0  0
 11  7  1  0  0  0  0
 11  2  1  0  0  0  0
 11 15  1  0  0  0  0
 12 15  1  0  0  0  0
 14 36  1  0  0  0  0
 16 10  1  0  0  0  0
 16 17  1  0  0  0  0
 17 22  1  0  0  0  0
 18 17  1  0  0  0  0
 19 16  1  0  0  0  0
 19 18  1  0  0  0  0
 20 22  1  0  0  0  0
 22 21  1  0  0  0  0
 24 25  1  0  0  0  0
 24 29  1  0  0  0  0
 25 31  1  0  0  0  0
 26 28  1  0  0  0  0
 26 25  1  0  0  0  0
 27 31  1  0  0  0  0
 28 32  1  0  0  0  0
 29 23  1  0  0  0  0
 30 23  1  0  0  0  0
 31 30  1  0  0  0  0
 32 27  1  0  0  0  0
 32 22  1  0  0  0  0
 35 33  2  0  0  0  0
 35 34  1  0  0  0  0
 36 37  1  0  0  0  0
 37 38  1  0  0  0  0
 38 41  1  0  0  0  0
 39 37  1  0  0  0  0
 39 38  1  0  0  0  0
 41 40  1  0  0  0  0
 41 42  1  0  0  0  0
 42 43  1  0  0  0  0
 42 44  1  0  0  0  0
 43 45  1  0  0  0  0
 43 44  1  0  0  0  0
 44 59  1  0  0  0  0
 46 45  1  0  0  0  0
 47 46  1  0  0  0  0
 49 48  1  0  0  0  0
 50 56  1  0  0  0  0
 50 52  1  0  0  0  0
 51 52  1  0  0  0  0
 52 55  1  0  0  0  0
 54 55  1  0  0  0  0
 54 53  1  0  0  0  0
 54 49  1  0  0  0  0
 55 49  1  0  0  0  0
 56 47  1  0  0  0  0
 56 54  1  0  0  0  0
 57 58  1  0  0  0  0
 58 50  1  0  0  0  0
 59 61  1  0  0  0  0
 61 62  2  0  0  0  0
 61 60  1  0  0  0  0
M  END
>  <MODEL>
6

>  <REMARK>
 VINA RESULT:      -5.8      1.376      2.084
  Name = 
  15 active torsions:
  status: ('A' for Active; 'I' for Inactive)
    1  A    between atoms: C_4  and  C_33
    2  A    between atoms: C_7  and  C_37
    3  A    between atoms: C_8  and  N_27
    4  A    between atoms: C_13  and  N_27
    5  A    between atoms: C_18  and  C_22
    6  A    between atoms: C_22  and  C_26
    7  A    between atoms: C_25  and  C_55
    8  A    between atoms: C_26  and  C_60
    9  A    between atoms: C_28  and  C_37
   10  A    between atoms: C_30  and  N_41
   11  A    between atoms: C_33  and  C_49
   12  A    between atoms: C_34  and  C_45
   13  A    between atoms: C_47  and  C_51
   14  A    between atoms: C_51  and  C_59
   15  A    between atoms: C_60  and  C_62
                            x       y       z     vdW  Elec       q    Type
                         _______ _______ _______ _____ _____    ______ ____

>  <TORSDO>
F 15

$$$$
=
 OpenBabel10232410103D

 62 71  0  0  1  0  0  0  0  0999 V2000
  188.7400  174.2380  135.8560 C   0  0  0  0  0  2  0  0  0  0  0  0
  186.6770  177.1030  136.1530 C   0  0  2  0  0  0  0  0  0  0  0  0
  188.9640  177.9470  136.2630 O   0  0  0  0  0  0  0  0  0  0  0  0
  183.9690  177.3660  135.2490 C   0  0  2  0  0  3  0  0  0  0  0  0
  182.8310  177.1140  134.4840 O   0  0  0  0  0  1  0  0  0  0  0  0
  185.1780  177.4740  134.3460 C   0  0  0  0  0  2  0  0  0  0  0  0
  187.5770  174.7290  136.7200 C   0  0  1  0  0  3  0  0  0  0  0  0
  190.1510  177.4820  136.8700 C   0  0  0  0  0  2  0  0  0  0  0  0
  189.7250  175.3540  135.5480 C   0  0  0  0  0  2  0  0  0  0  0  0
  190.2560  175.9600  136.8540 C   0  0  1  0  0  3  0  0  0  0  0  0
  186.6030  175.5880  135.9110 C   0  0  1  0  0  3  0  0  0  0  0  0
  184.2150  176.2090  136.1960 C   0  0  0  0  0  2  0  0  0  0  0  0
  186.2750  177.9610  135.0830 O   0  0  0  0  0  0  0  0  0  0  0  0
  187.7880  177.7170  137.0330 C   0  0  2  0  0  3  0  0  0  0  0  0
  185.5980  176.2630  136.8620 C   0  0  2  0  0  3  0  0  0  0  0  0
  191.6440  175.4880  137.3020 C   0  0  1  0  0  3  0  0  0  0  0  0
  192.7300  176.2550  136.5910 C   0  0  1  0  0  3  0  0  0  0  0  0
  193.1710  176.8640  137.7810 O   0  0  0  0  0  0  0  0  0  0  0  0
  192.1670  176.2100  138.5190 C   0  0  0  0  0  2  0  0  0  0  0  0
  193.2420  174.0690  135.3890 C   0  0  0  0  0  1  0  0  0  0  0  0
  194.4590  176.1150  134.7880 C   0  0  0  0  0  1  0  0  0  0  0  0
  193.8220  175.3650  135.9510 C   0  0  0  0  0  0  0  0  0  0  0  0
  199.0590  173.9250  135.2620 O   0  0  0  0  0  0  0  0  0  0  0  0
  198.5890  173.7240  137.6310 C   0  0  0  0  0  2  0  0  0  0  0  0
  197.2420  173.3320  137.0170 C   0  0  1  0  0  3  0  0  0  0  0  0
  196.1840  173.1910  138.1120 C   0  0  0  0  0  2  0  0  0  0  0  0
  196.2380  175.3670  136.5200 O   0  0  0  0  0  0  0  0  0  0  0  0
  194.8230  173.6130  137.5770 C   0  0  0  0  0  2  0  0  0  0  0  0
  199.5590  174.2020  136.5440 C   0  0  0  0  0  2  0  0  0  0  0  0
  197.9200  174.7360  135.1170 C   0  0  0  0  0  2  0  0  0  0  0  0
  196.7990  174.2630  135.9480 N   0  0  1  0  0  0  0  0  0  0  0  0
  194.9300  175.0260  136.9690 C   0  0  2  0  0  3  0  0  0  0  0  0
  185.3830  171.7940  137.2000 N   0  0  0  0  0  2  0  0  0  0  0  0
  186.8950  173.5920  137.3280 N   0  0  0  0  0  2  0  0  0  0  0  0
  185.9450  172.8000  136.6200 C   0  0  0  0  0  3  0  0  0  0  0  0
  187.9200  177.1910  138.4740 C   0  0  0  0  0  2  0  0  0  0  0  0
  186.6520  177.4800  139.2470 C   0  0  1  0  0  3  0  0  0  0  0  0
  186.9460  178.5160  140.3190 C   0  0  1  0  0  3  0  0  0  0  0  0
  186.2570  178.9250  139.0320 C   0  0  0  0  0  2  0  0  0  0  0  0
  185.0620  179.5240  141.3630 C   0  0  0  0  0  1  0  0  0  0  0  0
  185.9600  178.3750  141.3960 N   0  0  0  0  0  0  0  0  0  0  0  0
  186.5220  178.2210  142.7640 C   0  0  2  0  0  3  0  0  0  0  0  0
  186.4210  176.7800  143.2750 C   0  0  2  0  0  3  0  0  0  0  0  0
  185.4990  177.8660  143.8460 C   0  0  1  0  0  3  0  0  0  0  0  0
  187.6020  176.4100  144.1860 C   0  0  0  0  0  2  0  0  0  0  0  0
  188.8570  177.2290  143.9000 C   0  0  0  0  0  2  0  0  0  0  0  0
  189.0080  178.3780  144.8810 C   0  0  0  0  0  2  0  0  0  0  0  0
  191.9650  175.4570  143.6760 C   0  0  0  0  0  1  0  0  0  0  0  0
  191.0710  175.9660  144.7090 N   0  0  0  0  0  0  0  0  0  0  0  0
  189.9440  177.3460  146.9450 C   0  0  2  0  0  3  0  0  0  0  0  0
  191.9970  176.8750  148.1530 O   0  0  0  0  0  1  0  0  0  0  0  0
  191.1500  176.4110  147.1410 C   0  0  2  0  0  3  0  0  0  0  0  0
  192.2300  178.0600  144.1300 O   0  0  0  0  0  1  0  0  0  0  0  0
  191.3280  177.4000  144.9750 C   0  0  2  0  0  0  0  0  0  0  0  0
  191.9350  176.3970  145.8320 C   0  0  2  0  0  3  0  0  0  0  0  0
  190.2620  178.1800  145.7250 C   0  0  1  0  0  3  0  0  0  0  0  0
  188.2010  178.0130  148.6000 C   0  0  0  0  0  1  0  0  0  0  0  0
  189.6290  178.2330  148.1430 C   0  0  0  0  0  2  0  0  0  0  0  0
  185.9430  178.4640  145.1770 C   0  0  0  0  0  2  0  0  0  0  0  0
  183.5310  179.1620  145.3850 N   0  0  0  0  0  1  0  0  0  0  0  0
  184.7590  178.8160  146.0120 C   0  0  0  0  0  0  0  0  0  0  0  0
  184.8490  178.8390  147.2670 O   0  0  0  0  0  0  0  0  0  0  0  0
  1  7  1  0  0  0  0
  2 13  1  6  0  0  0
  2 15  1  0  0  0  0
  2 14  1  0  0  0  0
  3  8  1  0  0  0  0
  3 14  1  0  0  0  0
  4  5  1  6  0  0  0
  4 12  1  0  0  0  0
  6 13  1  0  0  0  0
  6  4  1  0  0  0  0
  7 34  1  6  0  0  0
  9  1  1  0  0  0  0
 10  9  1  6  0  0  0
 10  8  1  0  0  0  0
 10 16  1  0  0  0  0
 11  2  1  0  0  0  0
 11  7  1  0  0  0  0
 11 15  1  0  0  0  0
 12 15  1  0  0  0  0
 14 36  1  0  0  0  0
 16 19  1  0  0  0  0
 17 16  1  0  0  0  0
 17 18  1  0  0  0  0
 18 19  1  0  0  0  0
 20 22  1  0  0  0  0
 21 22  1  0  0  0  0
 22 17  1  0  0  0  0
 22 32  1  0  0  0  0
 23 29  1  0  0  0  0
 25 24  1  0  0  0  0
 25 26  1  0  0  0  0
 27 32  1  0  0  0  0
 28 26  1  0  0  0  0
 29 24  1  0  0  0  0
 30 23  1  0  0  0  0
 30 31  1  0  0  0  0
 31 27  1  0  0  0  0
 31 25  1  0  0  0  0
 32 28  1  0  0  0  0
 35 33  2  0  0  0  0
 35 34  1  0  0  0  0
 36 37  1  0  0  0  0
 37 38  1  0  0  0  0
 38 41  1  0  0  0  0
 39 37  1  0  0  0  0
 39 38  1  0  0  0  0
 40 41  1  0  0  0  0
 41 42  1  0  0  0  0
 42 43  1  0  0  0  0
 42 44  1  0  0  0  0
 43 44  1  0  0  0  0
 43 45  1  0  0  0  0
 44 59  1  0  0  0  0
 46 45  1  0  0  0  0
 46 47  1  0  0  0  0
 47 56  1  0  0  0  0
 48 49  1  0  0  0  0
 49 54  1  0  0  0  0
 49 55  1  0  0  0  0
 50 52  1  0  0  0  0
 50 58  1  0  0  0  0
 52 51  1  0  0  0  0
 53 54  1  0  0  0  0
 54 56  1  0  0  0  0
 54 55  1  0  0  0  0
 55 52  1  0  0  0  0
 56 50  1  0  0  0  0
 58 57  1  0  0  0  0
 59 61  1  0  0  0  0
 60 61  1  0  0  0  0
 61 62  2  0  0  0  0
M  END
>  <MODEL>
7

>  <REMARK>
 VINA RESULT:      -5.8      2.006      4.777
  Name = 
  15 active torsions:
  status: ('A' for Active; 'I' for Inactive)
    1  A    between atoms: C_4  and  C_33
    2  A    between atoms: C_7  and  C_37
    3  A    between atoms: C_8  and  N_27
    4  A    between atoms: C_13  and  N_27
    5  A    between atoms: C_18  and  C_22
    6  A    between atoms: C_22  and  C_26
    7  A    between atoms: C_25  and  C_55
    8  A    between atoms: C_26  and  C_60
    9  A    between atoms: C_28  and  C_37
   10  A    between atoms: C_30  and  N_41
   11  A    between atoms: C_33  and  C_49
   12  A    between atoms: C_34  and  C_45
   13  A    between atoms: C_47  and  C_51
   14  A    between atoms: C_51  and  C_59
   15  A    between atoms: C_60  and  C_62
                            x       y       z     vdW  Elec       q    Type
                         _______ _______ _______ _____ _____    ______ ____

>  <TORSDO>
F 15

$$$$
=
 OpenBabel10232410103D

 62 71  0  0  1  0  0  0  0  0999 V2000
  188.7520  173.7330  134.8010 C   0  0  0  0  0  2  0  0  0  0  0  0
  187.2230  176.6560  136.0920 C   0  0  2  0  0  0  0  0  0  0  0  0
  189.5210  177.3050  135.5890 O   0  0  0  0  0  0  0  0  0  0  0  0
  184.4190  177.2540  136.1210 C   0  0  2  0  0  3  0  0  0  0  0  0
  183.0830  177.2080  135.7240 O   0  0  0  0  0  1  0  0  0  0  0  0
  185.3070  177.4150  134.9070 C   0  0  0  0  0  2  0  0  0  0  0  0
  187.9660  174.1640  136.0410 C   0  0  1  0  0  3  0  0  0  0  0  0
  190.7720  176.6660  135.7300 C   0  0  0  0  0  2  0  0  0  0  0  0
  189.7240  174.8100  134.3460 C   0  0  0  0  0  2  0  0  0  0  0  0
  190.6870  175.1610  135.4870 C   0  0  1  0  0  3  0  0  0  0  0  0
  186.9020  175.2080  135.6940 C   0  0  1  0  0  3  0  0  0  0  0  0
  184.7990  175.9470  136.7880 C   0  0  0  0  0  2  0  0  0  0  0  0
  186.6230  177.7000  135.3200 O   0  0  0  0  0  0  0  0  0  0  0  0
  188.6090  177.0420  136.6510 C   0  0  2  0  0  3  0  0  0  0  0  0
  186.3140  175.7950  136.9890 C   0  0  2  0  0  3  0  0  0  0  0  0
  192.0810  174.5260  135.4150 C   0  0  1  0  0  3  0  0  0  0  0  0
  192.9230  174.9360  136.5970 C   0  0  1  0  0  3  0  0  0  0  0  0
  192.9670  173.6240  137.1050 O   0  0  0  0  0  0  0  0  0  0  0  0
  192.1590  173.1610  136.0520 C   0  0  0  0  0  2  0  0  0  0  0  0
  194.6560  175.2160  134.7520 C   0  0  0  0  0  1  0  0  0  0  0  0
  194.3690  176.9720  136.4440 C   0  0  0  0  0  1  0  0  0  0  0  0
  194.3280  175.4650  136.2220 C   0  0  0  0  0  0  0  0  0  0  0  0
  199.5490  174.1900  135.1760 O   0  0  0  0  0  0  0  0  0  0  0  0
  199.0460  173.3110  137.3780 C   0  0  0  0  0  2  0  0  0  0  0  0
  197.7000  173.1420  136.6670 C   0  0  1  0  0  3  0  0  0  0  0  0
  196.6270  172.7060  137.6650 C   0  0  0  0  0  2  0  0  0  0  0  0
  196.7360  175.2530  136.7830 O   0  0  0  0  0  0  0  0  0  0  0  0
  195.2800  173.2930  137.2670 C   0  0  0  0  0  2  0  0  0  0  0  0
  200.0380  174.0680  136.4860 C   0  0  0  0  0  2  0  0  0  0  0  0
  198.4260  175.0290  135.2680 C   0  0  0  0  0  2  0  0  0  0  0  0
  197.2870  174.3550  135.9160 N   0  0  1  0  0  0  0  0  0  0  0  0
  195.4180  174.8200  137.1030 C   0  0  2  0  0  3  0  0  0  0  0  0
  186.3860  170.8630  136.5580 N   0  0  0  0  0  2  0  0  0  0  0  0
  187.3680  172.9970  136.6810 N   0  0  0  0  0  2  0  0  0  0  0  0
  186.8900  171.8770  135.9400 C   0  0  0  0  0  3  0  0  0  0  0  0
  189.1040  176.2870  137.8990 C   0  0  0  0  0  2  0  0  0  0  0  0
  189.7930  177.2480  138.8440 C   0  0  1  0  0  3  0  0  0  0  0  0
  190.3960  176.4660  139.9990 C   0  0  1  0  0  3  0  0  0  0  0  0
  191.2760  176.9490  138.8630 C   0  0  0  0  0  2  0  0  0  0  0  0
  191.9500  177.5780  141.4150 C   0  0  0  0  0  1  0  0  0  0  0  0
  190.5310  177.3590  141.1550 N   0  0  0  0  0  0  0  0  0  0  0  0
  189.8620  176.9000  142.4010 C   0  0  2  0  0  3  0  0  0  0  0  0
  188.5820  177.6890  142.6970 C   0  0  2  0  0  3  0  0  0  0  0  0
  189.8440  177.9230  143.5380 C   0  0  1  0  0  3  0  0  0  0  0  0
  187.5170  176.8180  143.3830 C   0  0  0  0  0  2  0  0  0  0  0  0
  186.0930  177.1880  142.9820 C   0  0  0  0  0  2  0  0  0  0  0  0
  186.0220  178.5940  142.4110 C   0  0  0  0  0  2  0  0  0  0  0  0
  184.8310  178.5870  146.5720 C   0  0  0  0  0  1  0  0  0  0  0  0
  184.5040  178.2750  145.1860 N   0  0  0  0  0  0  0  0  0  0  0  0
  183.5440  178.3550  142.4940 C   0  0  2  0  0  3  0  0  0  0  0  0
  181.4990  179.3450  143.3490 O   0  0  0  0  0  1  0  0  0  0  0  0
  182.5620  178.4930  143.6690 C   0  0  2  0  0  3  0  0  0  0  0  0
  185.1850  180.6250  144.9060 O   0  0  0  0  0  1  0  0  0  0  0  0
  184.6380  179.4720  144.3250 C   0  0  2  0  0  0  0  0  0  0  0  0
  183.3300  179.1070  144.8380 C   0  0  2  0  0  3  0  0  0  0  0  0
  184.7120  179.2570  142.8230 C   0  0  1  0  0  3  0  0  0  0  0  0
  183.4680  177.7440  140.0770 C   0  0  0  0  0  1  0  0  0  0  0  0
  182.9560  178.7030  141.1330 C   0  0  0  0  0  2  0  0  0  0  0  0
  189.8800  177.1920  144.8770 C   0  0  0  0  0  2  0  0  0  0  0  0
  191.6030  176.4180  146.5450 N   0  0  0  0  0  1  0  0  0  0  0  0
  191.2310  177.3040  145.4960 C   0  0  0  0  0  0  0  0  0  0  0  0
  192.0320  178.1980  145.1190 O   0  0  0  0  0  0  0  0  0  0  0  0
  1  7  1  0  0  0  0
  2 13  1  6  0  0  0
  2 14  1  0  0  0  0
  2 15  1  0  0  0  0
  3  8  1  0  0  0  0
  3 14  1  0  0  0  0
  4  5  1  6  0  0  0
  4 12  1  0  0  0  0
  6 13  1  0  0  0  0
  6  4  1  0  0  0  0
  7 34  1  6  0  0  0
  9  1  1  0  0  0  0
 10  9  1  6  0  0  0
 10  8  1  0  0  0  0
 11  7  1  0  0  0  0
 11  2  1  0  0  0  0
 11 15  1  0  0  0  0
 12 15  1  0  0  0  0
 14 36  1  0  0  0  0
 16 10  1  0  0  0  0
 16 19  1  0  0  0  0
 16 17  1  0  0  0  0
 17 18  1  0  0  0  0
 19 18  1  0  0  0  0
 20 22  1  0  0  0  0
 22 21  1  0  0  0  0
 22 17  1  0  0  0  0
 22 32  1  0  0  0  0
 23 30  1  0  0  0  0
 23 29  1  0  0  0  0
 25 24  1  0  0  0  0
 25 26  1  0  0  0  0
 27 32  1  0  0  0  0
 28 26  1  0  0  0  0
 29 24  1  0  0  0  0
 30 31  1  0  0  0  0
 31 25  1  0  0  0  0
 31 27  1  0  0  0  0
 32 28  1  0  0  0  0
 35 33  2  0  0  0  0
 35 34  1  0  0  0  0
 36 37  1  0  0  0  0
 37 39  1  0  0  0  0
 37 38  1  0  0  0  0
 38 41  1  0  0  0  0
 39 38  1  0  0  0  0
 41 40  1  0  0  0  0
 41 42  1  0  0  0  0
 42 43  1  0  0  0  0
 42 44  1  0  0  0  0
 43 45  1  0  0  0  0
 43 44  1  0  0  0  0
 44 59  1  0  0  0  0
 46 45  1  0  0  0  0
 47 56  1  0  0  0  0
 47 46  1  0  0  0  0
 49 48  1  0  0  0  0
 50 56  1  0  0  0  0
 50 52  1  0  0  0  0
 51 52  1  0  0  0  0
 52 55  1  0  0  0  0
 54 55  1  0  0  0  0
 54 53  1  0  0  0  0
 54 49  1  0  0  0  0
 55 49  1  0  0  0  0
 56 54  1  0  0  0  0
 57 58  1  0  0  0  0
 58 50  1  0  0  0  0
 59 61  1  0  0  0  0
 61 60  1  0  0  0  0
 62 61  2  0  0  0  0
M  END
>  <MODEL>
8

>  <REMARK>
 VINA RESULT:      -5.7      1.293      2.131
  Name = 
  15 active torsions:
  status: ('A' for Active; 'I' for Inactive)
    1  A    between atoms: C_4  and  C_33
    2  A    between atoms: C_7  and  C_37
    3  A    between atoms: C_8  and  N_27
    4  A    between atoms: C_13  and  N_27
    5  A    between atoms: C_18  and  C_22
    6  A    between atoms: C_22  and  C_26
    7  A    between atoms: C_25  and  C_55
    8  A    between atoms: C_26  and  C_60
    9  A    between atoms: C_28  and  C_37
   10  A    between atoms: C_30  and  N_41
   11  A    between atoms: C_33  and  C_49
   12  A    between atoms: C_34  and  C_45
   13  A    between atoms: C_47  and  C_51
   14  A    between atoms: C_51  and  C_59
   15  A    between atoms: C_60  and  C_62
                            x       y       z     vdW  Elec       q    Type
                         _______ _______ _______ _____ _____    ______ ____

>  <TORSDO>
F 15

$$$$
=
 OpenBabel10232410103D

 62 71  0  0  1  0  0  0  0  0999 V2000
  190.8730  173.5280  135.1710 C   0  0  0  0  0  2  0  0  0  0  0  0
  189.6800  176.7560  136.0110 C   0  0  2  0  0  0  0  0  0  0  0  0
  192.1120  176.9320  136.0950 O   0  0  0  0  0  0  0  0  0  0  0  0
  187.1280  177.8710  135.3310 C   0  0  2  0  0  3  0  0  0  0  0  0
  185.9470  178.0540  134.6120 O   0  0  0  0  0  1  0  0  0  0  0  0
  188.2990  177.7920  134.3770 C   0  0  0  0  0  2  0  0  0  0  0  0
  189.9090  174.1700  136.1700 C   0  0  1  0  0  3  0  0  0  0  0  0
  193.1400  176.0780  136.5500 C   0  0  0  0  0  2  0  0  0  0  0  0
  192.1190  174.3750  134.9640 C   0  0  0  0  0  2  0  0  0  0  0  0
  192.8240  174.6040  136.3080 C   0  0  1  0  0  3  0  0  0  0  0  0
  189.1880  175.3730  135.5580 C   0  0  1  0  0  3  0  0  0  0  0  0
  187.0690  176.5560  136.0830 C   0  0  0  0  0  2  0  0  0  0  0  0
  189.5040  177.8470  135.1050 O   0  0  0  0  0  0  0  0  0  0  0  0
  190.9360  176.9060  136.8970 C   0  0  2  0  0  3  0  0  0  0  0  0
  188.4290  176.1340  136.6590 C   0  0  2  0  0  3  0  0  0  0  0  0
  194.0400  173.7150  136.5930 C   0  0  1  0  0  3  0  0  0  0  0  0
  195.0990  174.4760  137.3510 C   0  0  1  0  0  3  0  0  0  0  0  0
  194.9490  173.6730  138.4970 O   0  0  0  0  0  0  0  0  0  0  0  0
  193.9300  172.9290  137.8750 C   0  0  0  0  0  2  0  0  0  0  0  0
  196.5700  173.3550  135.6010 C   0  0  0  0  0  1  0  0  0  0  0  0
  196.9180  175.7190  136.1650 C   0  0  0  0  0  1  0  0  0  0  0  0
  196.5170  174.3670  136.7430 C   0  0  0  0  0  0  0  0  0  0  0  0
  197.6150  176.4940  141.6670 O   0  0  0  0  0  0  0  0  0  0  0  0
  199.3050  174.8100  141.2450 C   0  0  0  0  0  2  0  0  0  0  0  0
  199.0550  175.3510  139.8350 C   0  0  1  0  0  3  0  0  0  0  0  0
  199.7910  174.4970  138.8020 C   0  0  0  0  0  2  0  0  0  0  0  0
  197.1270  174.2520  139.1460 O   0  0  0  0  0  0  0  0  0  0  0  0
  198.9920  174.4430  137.5080 C   0  0  0  0  0  2  0  0  0  0  0  0
  198.3180  175.4250  142.2440 C   0  0  0  0  0  2  0  0  0  0  0  0
  196.8130  175.9230  140.6650 C   0  0  0  0  0  2  0  0  0  0  0  0
  197.6100  175.4750  139.5100 N   0  0  1  0  0  0  0  0  0  0  0  0
  197.5550  173.9770  137.8160 C   0  0  2  0  0  3  0  0  0  0  0  0
  186.9300  171.9990  136.4350 N   0  0  0  0  0  2  0  0  0  0  0  0
  188.9550  173.1750  136.6500 N   0  0  0  0  0  2  0  0  0  0  0  0
  187.7290  172.9010  135.9760 C   0  0  0  0  0  3  0  0  0  0  0  0
  190.9520  176.1450  138.2350 C   0  0  0  0  0  2  0  0  0  0  0  0
  190.9030  177.1260  139.3870 C   0  0  1  0  0  3  0  0  0  0  0  0
  190.2840  176.4450  140.5960 C   0  0  1  0  0  3  0  0  0  0  0  0
  191.7870  176.6220  140.5070 C   0  0  0  0  0  2  0  0  0  0  0  0
  190.4430  177.4780  142.7330 C   0  0  0  0  0  1  0  0  0  0  0  0
  189.7070  177.4700  141.4720 N   0  0  0  0  0  0  0  0  0  0  0  0
  188.2520  177.3360  141.7460 C   0  0  2  0  0  3  0  0  0  0  0  0
  187.4330  178.4620  141.1070 C   0  0  2  0  0  3  0  0  0  0  0  0
  187.6560  178.4370  142.6250 C   0  0  1  0  0  3  0  0  0  0  0  0
  186.0440  177.9800  140.6620 C   0  0  0  0  0  2  0  0  0  0  0  0
  185.7920  178.1740  139.1710 C   0  0  0  0  0  2  0  0  0  0  0  0
  184.7580  179.2570  138.9170 C   0  0  0  0  0  2  0  0  0  0  0  0
  182.1420  178.7980  142.3340 C   0  0  0  0  0  1  0  0  0  0  0  0
  182.8250  178.1850  141.2010 N   0  0  0  0  0  0  0  0  0  0  0  0
  183.5010  177.1260  138.6330 C   0  0  2  0  0  3  0  0  0  0  0  0
  181.2810  176.1450  138.5550 O   0  0  0  0  0  1  0  0  0  0  0  0
  182.3060  176.5540  139.4150 C   0  0  2  0  0  3  0  0  0  0  0  0
  181.7290  180.0530  140.0300 O   0  0  0  0  0  1  0  0  0  0  0  0
  182.4860  178.8770  139.9370 C   0  0  2  0  0  0  0  0  0  0  0  0
  181.7650  177.6710  140.3040 C   0  0  2  0  0  3  0  0  0  0  0  0
  183.3810  178.6300  138.7340 C   0  0  1  0  0  3  0  0  0  0  0  0
  184.1450  175.2830  137.0800 C   0  0  0  0  0  1  0  0  0  0  0  0
  183.5750  176.6840  137.1770 C   0  0  0  0  0  2  0  0  0  0  0  0
  186.5030  177.8630  143.4430 C   0  0  0  0  0  2  0  0  0  0  0  0
  185.8410  178.1940  145.8520 N   0  0  0  0  0  1  0  0  0  0  0  0
  186.8410  177.8650  144.8950 C   0  0  0  0  0  0  0  0  0  0  0  0
  188.0120  177.6110  145.2760 O   0  0  0  0  0  0  0  0  0  0  0  0
  1  7  1  0  0  0  0
  2 13  1  6  0  0  0
  2 15  1  0  0  0  0
  2 14  1  0  0  0  0
  3  8  1  0  0  0  0
  3 14  1  0  0  0  0
  4  5  1  6  0  0  0
  4 12  1  0  0  0  0
  6 13  1  0  0  0  0
  6  4  1  0  0  0  0
  7 34  1  6  0  0  0
  9  1  1  0  0  0  0
 10  9  1  6  0  0  0
 10  8  1  0  0  0  0
 10 16  1  0  0  0  0
 11  2  1  0  0  0  0
 11  7  1  0  0  0  0
 11 15  1  0  0  0  0
 12 15  1  0  0  0  0
 14 36  1  0  0  0  0
 16 17  1  0  0  0  0
 16 19  1  0  0  0  0
 17 18  1  0  0  0  0
 19 18  1  0  0  0  0
 20 22  1  0  0  0  0
 21 22  1  0  0  0  0
 22 17  1  0  0  0  0
 22 32  1  0  0  0  0
 23 29  1  0  0  0  0
 24 29  1  0  0  0  0
 25 24  1  0  0  0  0
 26 25  1  0  0  0  0
 27 31  1  0  0  0  0
 28 32  1  0  0  0  0
 28 26  1  0  0  0  0
 30 23  1  0  0  0  0
 31 25  1  0  0  0  0
 31 30  1  0  0  0  0
 32 27  1  0  0  0  0
 35 33  2  0  0  0  0
 35 34  1  0  0  0  0
 36 37  1  0  0  0  0
 37 39  1  0  0  0  0
 37 38  1  0  0  0  0
 38 41  1  0  0  0  0
 39 38  1  0  0  0  0
 41 42  1  0  0  0  0
 41 40  1  0  0  0  0
 42 44  1  0  0  0  0
 43 42  1  0  0  0  0
 43 44  1  0  0  0  0
 44 59  1  0  0  0  0
 45 43  1  0  0  0  0
 46 45  1  0  0  0  0
 47 46  1  0  0  0  0
 49 48  1  0  0  0  0
 50 56  1  0  0  0  0
 50 52  1  0  0  0  0
 51 52  1  0  0  0  0
 52 55  1  0  0  0  0
 54 53  1  0  0  0  0
 54 55  1  0  0  0  0
 54 49  1  0  0  0  0
 55 49  1  0  0  0  0
 56 47  1  0  0  0  0
 56 54  1  0  0  0  0
 57 58  1  0  0  0  0
 58 50  1  0  0  0  0
 59 61  1  0  0  0  0
 61 62  2  0  0  0  0
 61 60  1  0  0  0  0
M  END
>  <MODEL>
9

>  <REMARK>
 VINA RESULT:      -4.8      2.003      3.517
  Name = 
  15 active torsions:
  status: ('A' for Active; 'I' for Inactive)
    1  A    between atoms: C_4  and  C_33
    2  A    between atoms: C_7  and  C_37
    3  A    between atoms: C_8  and  N_27
    4  A    between atoms: C_13  and  N_27
    5  A    between atoms: C_18  and  C_22
    6  A    between atoms: C_22  and  C_26
    7  A    between atoms: C_25  and  C_55
    8  A    between atoms: C_26  and  C_60
    9  A    between atoms: C_28  and  C_37
   10  A    between atoms: C_30  and  N_41
   11  A    between atoms: C_33  and  C_49
   12  A    between atoms: C_34  and  C_45
   13  A    between atoms: C_47  and  C_51
   14  A    between atoms: C_51  and  C_59
   15  A    between atoms: C_60  and  C_62
                            x       y       z     vdW  Elec       q    Type
                         _______ _______ _______ _____ _____    ______ ____

>  <TORSDO>
F 15

$$$$
