=
 OpenBabel10232411513D

 31 34  0  0  1  0  0  0  0  0999 V2000
  190.6510  177.4100  140.5200 C   0  0  0  0  0  3  0  0  0  0  0  0
  190.5050  177.5620  141.8450 C   0  0  0  0  0  0  0  0  0  0  0  0
  189.2300  177.8860  142.4000 N   0  0  0  0  0  2  0  0  0  0  0  0
  188.2060  176.8840  142.6450 C   0  0  0  0  0  2  0  0  0  0  0  0
  183.9130  179.1190  146.0860 O   0  0  0  0  0  0  0  0  0  0  0  0
  185.8200  178.2210  145.8950 C   0  0  0  0  0  0  0  0  0  0  0  0
  185.5860  178.0150  142.2780 N   0  0  0  0  0  2  0  0  0  0  0  0
  187.0390  177.6930  146.1470 N   0  0  0  0  0  0  0  0  0  0  0  0
  184.9420  178.7090  146.7870 N   0  0  0  0  0  2  0  0  0  0  0  0
  185.3060  178.3370  144.5750 C   0  0  0  0  0  0  0  0  0  0  0  0
  186.0430  177.9040  143.4820 C   0  0  0  0  0  0  0  0  0  0  0  0
  183.1290  179.2670  143.7900 N   0  0  0  0  0  1  0  0  0  0  0  0
  187.7890  177.2570  145.0880 C   0  0  0  0  0  3  0  0  0  0  0  0
  187.3160  177.3440  143.7520 C   0  0  0  0  0  0  0  0  0  0  0  0
  184.0820  178.9210  144.7880 C   0  0  0  0  0  0  0  0  0  0  0  0
  191.6300  177.4230  142.7320 N   0  0  0  0  0  2  0  0  0  0  0  0
  191.8600  175.5040  146.5090 C   0  0  0  0  0  3  0  0  0  0  0  0
  192.0990  174.7920  145.3320 C   0  0  0  0  0  3  0  0  0  0  0  0
  192.0150  175.4390  144.0940 C   0  0  0  0  0  3  0  0  0  0  0  0
  191.4580  177.5080  145.2120 C   0  0  0  0  0  3  0  0  0  0  0  0
  191.5400  176.8630  146.4510 C   0  0  0  0  0  3  0  0  0  0  0  0
  191.6910  176.7980  144.0250 C   0  0  0  0  0  0  0  0  0  0  0  0
  189.6060  177.5260  139.5420 N   0  0  0  0  0  2  0  0  0  0  0  0
  189.7910  177.6910  138.1020 C   0  0  1  0  0  3  0  0  0  0  0  0
  188.5080  177.7540  137.3410 C   0  0  2  0  0  3  0  0  0  0  0  0
  189.2250  178.9140  137.6950 O   0  0  0  0  0  0  0  0  0  0  0  0
  187.2430  177.6600  138.1900 C   0  0  0  0  0  2  0  0  0  0  0  0
  186.0080  177.7960  137.3180 C   0  0  0  0  0  2  0  0  0  0  0  0
  184.8870  178.0550  138.1140 O   0  0  0  0  0  0  0  0  0  0  0  0
  183.9640  179.5490  139.3560 C   0  0  0  0  0  1  0  0  0  0  0  0
  185.1470  179.2080  138.6950 O   0  0  0  0  0  0  0  0  0  0  0  0
  1  2  2  0  0  0  0
  2  3  1  0  0  0  0
  2 16  1  0  0  0  0
  3  4  1  0  0  0  0
  4 14  1  0  0  0  0
  5  9  1  0  0  0  0
  6  8  2  0  0  0  0
  6  9  1  0  0  0  0
  7 11  2  0  0  0  0
 10 15  2  0  0  0  0
 10  6  1  0  0  0  0
 11 14  1  0  0  0  0
 11 10  1  0  0  0  0
 12 15  1  0  0  0  0
 13  8  1  0  0  0  0
 14 13  2  0  0  0  0
 15  5  1  0  0  0  0
 16 22  1  0  0  0  0
 18 17  2  0  0  0  0
 19 18  1  0  0  0  0
 20 21  2  0  0  0  0
 21 17  1  0  0  0  0
 22 19  2  0  0  0  0
 22 20  1  0  0  0  0
 23  1  1  0  0  0  0
 24 23  1  1  0  0  0
 25 26  1  0  0  0  0
 25 24  1  0  0  0  0
 25 27  1  1  0  0  0
 26 24  1  0  0  0  0
 28 29  1  0  0  0  0
 28 27  1  0  0  0  0
 29 31  1  0  0  0  0
 31 30  1  0  0  0  0
M  END
>  <MODEL>
1

>  <REMARK>
 VINA RESULT:      -7.7      0.000      0.000
  Name = 
  11 active torsions:
  status: ('A' for Active; 'I' for Inactive)
    1  A    between atoms: C_1  and  C_9
    2  A    between atoms: C_1  and  O_10
    3  A    between atoms: C_9  and  C_30
    4  A    between atoms: O_10  and  O_13
    5  A    between atoms: C_17  and  N_21
    6  A    between atoms: C_17  and  C_25
    7  A    between atoms: C_20  and  N_24
    8  A    between atoms: N_21  and  C_22
    9  A    between atoms: C_22  and  N_23
   10  A    between atoms: N_23  and  C_28
   11  A    between atoms: N_24  and  C_29
                            x       y       z     vdW  Elec       q    Type
                         _______ _______ _______ _____ _____    ______ ____

>  <TORSDO>
F 11

$$$$
=
 OpenBabel10232411513D

 31 34  0  0  1  0  0  0  0  0999 V2000
  187.4750  178.3000  139.8200 C   0  0  0  0  0  3  0  0  0  0  0  0
  187.3290  178.6940  141.0940 C   0  0  0  0  0  0  0  0  0  0  0  0
  188.2320  178.2340  142.1010 N   0  0  0  0  0  2  0  0  0  0  0  0
  187.9850  177.0360  142.8860 C   0  0  0  0  0  2  0  0  0  0  0  0
  191.1560  177.1330  147.9050 O   0  0  0  0  0  0  0  0  0  0  0  0
  191.0360  176.7510  145.8270 C   0  0  0  0  0  0  0  0  0  0  0  0
  187.5270  177.6690  145.6550 N   0  0  0  0  0  2  0  0  0  0  0  0
  191.3240  176.4290  144.5460 N   0  0  0  0  0  0  0  0  0  0  0  0
  191.8710  176.7380  146.8790 N   0  0  0  0  0  2  0  0  0  0  0  0
  189.7390  177.1760  146.2250 C   0  0  0  0  0  0  0  0  0  0  0  0
  188.7070  177.2740  145.3020 C   0  0  0  0  0  0  0  0  0  0  0  0
  188.9040  177.8460  148.4770 N   0  0  0  0  0  1  0  0  0  0  0  0
  190.3260  176.5160  143.6140 C   0  0  0  0  0  3  0  0  0  0  0  0
  189.0120  176.9280  143.9630 C   0  0  0  0  0  0  0  0  0  0  0  0
  189.9040  177.3990  147.5690 C   0  0  0  0  0  0  0  0  0  0  0  0
  186.2520  179.5680  141.4770 N   0  0  0  0  0  2  0  0  0  0  0  0
  182.7330  178.7010  143.6850 C   0  0  0  0  0  3  0  0  0  0  0  0
  183.8890  179.1490  144.3300 C   0  0  0  0  0  3  0  0  0  0  0  0
  185.0410  179.4270  143.5880 C   0  0  0  0  0  3  0  0  0  0  0  0
  183.8830  178.8120  141.5580 C   0  0  0  0  0  3  0  0  0  0  0  0
  182.7290  178.5330  142.2980 C   0  0  0  0  0  3  0  0  0  0  0  0
  185.0490  179.2570  142.1990 C   0  0  0  0  0  0  0  0  0  0  0  0
  188.5060  177.4320  139.3220 N   0  0  0  0  0  2  0  0  0  0  0  0
  189.7020  177.8480  138.5950 C   0  0  1  0  0  3  0  0  0  0  0  0
  189.9310  177.0790  137.3360 C   0  0  2  0  0  3  0  0  0  0  0  0
  189.3320  178.3540  137.3340 O   0  0  0  0  0  0  0  0  0  0  0  0
  188.8770  176.0210  137.0200 C   0  0  0  0  0  2  0  0  0  0  0  0
  189.4880  174.6330  137.0680 C   0  0  0  0  0  2  0  0  0  0  0  0
  190.5470  174.6080  137.9810 O   0  0  0  0  0  0  0  0  0  0  0  0
  192.6480  174.4870  137.5350 C   0  0  0  0  0  1  0  0  0  0  0  0
  191.4360  173.7990  137.4430 O   0  0  0  0  0  0  0  0  0  0  0  0
  1  2  2  0  0  0  0
  2 16  1  0  0  0  0
  2  3  1  0  0  0  0
  3  4  1  0  0  0  0
  4 14  1  0  0  0  0
  6 10  1  0  0  0  0
  6  9  1  0  0  0  0
  8  6  2  0  0  0  0
  9  5  1  0  0  0  0
 10 15  2  0  0  0  0
 11  7  2  0  0  0  0
 11 10  1  0  0  0  0
 13 14  2  0  0  0  0
 13  8  1  0  0  0  0
 14 11  1  0  0  0  0
 15  5  1  0  0  0  0
 15 12  1  0  0  0  0
 16 22  1  0  0  0  0
 17 18  1  0  0  0  0
 19 18  2  0  0  0  0
 20 22  2  0  0  0  0
 20 21  1  0  0  0  0
 21 17  2  0  0  0  0
 22 19  1  0  0  0  0
 23  1  1  0  0  0  0
 24 23  1  1  0  0  0
 25 27  1  1  0  0  0
 25 24  1  0  0  0  0
 26 25  1  0  0  0  0
 26 24  1  0  0  0  0
 27 28  1  0  0  0  0
 28 29  1  0  0  0  0
 31 30  1  0  0  0  0
 31 29  1  0  0  0  0
M  END
>  <MODEL>
2

>  <REMARK>
 VINA RESULT:      -7.6      2.723      6.000
  Name = 
  11 active torsions:
  status: ('A' for Active; 'I' for Inactive)
    1  A    between atoms: C_1  and  C_9
    2  A    between atoms: C_1  and  O_10
    3  A    between atoms: C_9  and  C_30
    4  A    between atoms: O_10  and  O_13
    5  A    between atoms: C_17  and  N_21
    6  A    between atoms: C_17  and  C_25
    7  A    between atoms: C_20  and  N_24
    8  A    between atoms: N_21  and  C_22
    9  A    between atoms: C_22  and  N_23
   10  A    between atoms: N_23  and  C_28
   11  A    between atoms: N_24  and  C_29
                            x       y       z     vdW  Elec       q    Type
                         _______ _______ _______ _____ _____    ______ ____

>  <TORSDO>
F 11

$$$$
=
 OpenBabel10232411513D

 31 34  0  0  1  0  0  0  0  0999 V2000
  187.6610  178.2010  138.8790 C   0  0  0  0  0  3  0  0  0  0  0  0
  188.9430  177.9410  139.1790 C   0  0  0  0  0  0  0  0  0  0  0  0
  189.3900  177.9750  140.5350 N   0  0  0  0  0  2  0  0  0  0  0  0
  189.7330  176.7730  141.2760 C   0  0  0  0  0  2  0  0  0  0  0  0
  189.4600  177.2010  147.1930 O   0  0  0  0  0  0  0  0  0  0  0  0
  188.4870  177.2130  145.3140 C   0  0  0  0  0  0  0  0  0  0  0  0
  191.5810  176.7100  143.4810 N   0  0  0  0  0  2  0  0  0  0  0  0
  187.5610  177.2620  144.3290 N   0  0  0  0  0  0  0  0  0  0  0  0
  188.2780  177.3140  146.6370 N   0  0  0  0  0  2  0  0  0  0  0  0
  189.8700  177.0270  145.0400 C   0  0  0  0  0  0  0  0  0  0  0  0
  190.3260  176.8890  143.7370 C   0  0  0  0  0  0  0  0  0  0  0  0
  191.7990  176.8800  146.6140 N   0  0  0  0  0  1  0  0  0  0  0  0
  187.9830  177.1290  143.0340 C   0  0  0  0  0  3  0  0  0  0  0  0
  189.3530  176.9480  142.7090 C   0  0  0  0  0  0  0  0  0  0  0  0
  190.4200  177.0310  146.2970 C   0  0  0  0  0  0  0  0  0  0  0  0
  189.8970  177.6420  138.1430 N   0  0  0  0  0  2  0  0  0  0  0  0
  191.6010  173.8980  137.1050 C   0  0  0  0  0  3  0  0  0  0  0  0
  190.2170  174.0860  137.0700 C   0  0  0  0  0  3  0  0  0  0  0  0
  189.6710  175.3260  137.4190 C   0  0  0  0  0  3  0  0  0  0  0  0
  191.8910  176.1870  137.8340 C   0  0  0  0  0  3  0  0  0  0  0  0
  192.4390  174.9480  137.4860 C   0  0  0  0  0  3  0  0  0  0  0  0
  190.5020  176.3830  137.8070 C   0  0  0  0  0  0  0  0  0  0  0  0
  186.6250  178.5120  139.8240 N   0  0  0  0  0  2  0  0  0  0  0  0
  185.1930  178.5630  139.5410 C   0  0  1  0  0  3  0  0  0  0  0  0
  184.3630  178.9080  140.7340 C   0  0  2  0  0  3  0  0  0  0  0  0
  184.7170  179.8690  139.7670 O   0  0  0  0  0  0  0  0  0  0  0  0
  185.1470  179.1670  142.0180 C   0  0  0  0  0  2  0  0  0  0  0  0
  184.3380  178.7370  143.2290 C   0  0  0  0  0  2  0  0  0  0  0  0
  184.4670  179.6830  144.2510 O   0  0  0  0  0  0  0  0  0  0  0  0
  184.7780  178.6090  146.0880 C   0  0  0  0  0  1  0  0  0  0  0  0
  183.8010  179.1740  145.2660 O   0  0  0  0  0  0  0  0  0  0  0  0
  1  2  2  0  0  0  0
  1 23  1  0  0  0  0
  2  3  1  0  0  0  0
  3  4  1  0  0  0  0
  4 14  1  0  0  0  0
  6  9  1  0  0  0  0
  7 11  2  0  0  0  0
  8  6  2  0  0  0  0
  9  5  1  0  0  0  0
 10  6  1  0  0  0  0
 10 15  2  0  0  0  0
 11 10  1  0  0  0  0
 13  8  1  0  0  0  0
 14 13  2  0  0  0  0
 14 11  1  0  0  0  0
 15 12  1  0  0  0  0
 15  5  1  0  0  0  0
 16  2  1  0  0  0  0
 17 21  1  0  0  0  0
 18 17  2  0  0  0  0
 18 19  1  0  0  0  0
 19 22  2  0  0  0  0
 21 20  2  0  0  0  0
 22 20  1  0  0  0  0
 22 16  1  0  0  0  0
 24 26  1  0  0  0  0
 24 23  1  1  0  0  0
 24 25  1  0  0  0  0
 25 27  1  1  0  0  0
 26 25  1  0  0  0  0
 27 28  1  0  0  0  0
 28 29  1  0  0  0  0
 29 31  1  0  0  0  0
 31 30  1  0  0  0  0
M  END
>  <MODEL>
3

>  <REMARK>
 VINA RESULT:      -7.5      2.298      5.728
  Name = 
  11 active torsions:
  status: ('A' for Active; 'I' for Inactive)
    1  A    between atoms: C_1  and  C_9
    2  A    between atoms: C_1  and  O_10
    3  A    between atoms: C_9  and  C_30
    4  A    between atoms: O_10  and  O_13
    5  A    between atoms: C_17  and  N_21
    6  A    between atoms: C_17  and  C_25
    7  A    between atoms: C_20  and  N_24
    8  A    between atoms: N_21  and  C_22
    9  A    between atoms: C_22  and  N_23
   10  A    between atoms: N_23  and  C_28
   11  A    between atoms: N_24  and  C_29
                            x       y       z     vdW  Elec       q    Type
                         _______ _______ _______ _____ _____    ______ ____

>  <TORSDO>
F 11

$$$$
=
 OpenBabel10232411513D

 31 34  0  0  1  0  0  0  0  0999 V2000
  190.5520  177.2220  139.8490 C   0  0  0  0  0  3  0  0  0  0  0  0
  190.3120  177.5820  141.1180 C   0  0  0  0  0  0  0  0  0  0  0  0
  188.9820  177.8760  141.5490 N   0  0  0  0  0  2  0  0  0  0  0  0
  188.2860  177.0750  142.5420 C   0  0  0  0  0  2  0  0  0  0  0  0
  183.6040  179.3940  145.3640 O   0  0  0  0  0  0  0  0  0  0  0  0
  184.6670  179.0490  143.5670 C   0  0  0  0  0  0  0  0  0  0  0  0
  187.3420  177.2640  145.2530 N   0  0  0  0  0  1  0  0  0  0  0  0
  185.0510  179.0080  142.2710 N   0  0  0  0  0  0  0  0  0  0  0  0
  183.5550  179.6090  144.0720 N   0  0  0  0  0  2  0  0  0  0  0  0
  185.4420  178.4580  144.6020 C   0  0  0  0  0  0  0  0  0  0  0  0
  186.6360  177.8120  144.3180 C   0  0  0  0  0  0  0  0  0  0  0  0
  185.0050  178.3520  147.0550 N   0  0  0  0  0  1  0  0  0  0  0  0
  186.2250  178.3770  141.9610 C   0  0  0  0  0  3  0  0  0  0  0  0
  187.0380  177.7780  142.9600 C   0  0  0  0  0  0  0  0  0  0  0  0
  184.6900  178.7250  145.7190 C   0  0  2  0  0  3  0  0  0  0  0  0
  191.3880  177.7000  142.0680 N   0  0  0  0  0  2  0  0  0  0  0  0
  191.6760  176.1210  145.9950 C   0  0  0  0  0  3  0  0  0  0  0  0
  191.8480  175.2970  144.8800 C   0  0  0  0  0  3  0  0  0  0  0  0
  191.7460  175.8330  143.5920 C   0  0  0  0  0  3  0  0  0  0  0  0
  191.3040  178.0140  144.5340 C   0  0  0  0  0  3  0  0  0  0  0  0
  191.4050  177.4800  145.8230 C   0  0  0  0  0  3  0  0  0  0  0  0
  191.4690  177.1920  143.4090 C   0  0  0  0  0  0  0  0  0  0  0  0
  189.5630  177.0740  138.8170 N   0  0  0  0  0  2  0  0  0  0  0  0
  189.4610  177.8790  137.6030 C   0  0  1  0  0  3  0  0  0  0  0  0
  188.0840  178.3960  137.3460 C   0  0  2  0  0  3  0  0  0  0  0  0
  189.0820  179.1920  137.9420 O   0  0  0  0  0  0  0  0  0  0  0  0
  187.0420  178.0190  138.3950 C   0  0  0  0  0  2  0  0  0  0  0  0
  185.6420  178.2910  137.8740 C   0  0  0  0  0  2  0  0  0  0  0  0
  184.9670  179.1540  138.7430 O   0  0  0  0  0  0  0  0  0  0  0  0
  182.9210  179.6750  139.1530 C   0  0  0  0  0  1  0  0  0  0  0  0
  183.7830  178.6030  138.9120 O   0  0  0  0  0  0  0  0  0  0  0  0
  1  2  2  0  0  0  0
  2  3  1  0  0  0  0
  2 16  1  0  0  0  0
  3  4  1  0  0  0  0
  4 14  1  0  0  0  0
  5 15  1  0  0  0  0
  6  9  1  0  0  0  0
  6 10  1  0  0  0  0
  8  6  2  0  0  0  0
  9  5  1  0  0  0  0
 10 15  1  0  0  0  0
 11 10  2  0  0  0  0
 11  7  1  0  0  0  0
 13  8  1  0  0  0  0
 13 14  2  0  0  0  0
 14 11  1  0  0  0  0
 15 12  1  6  0  0  0
 16 22  1  0  0  0  0
 18 17  2  0  0  0  0
 19 18  1  0  0  0  0
 20 21  2  0  0  0  0
 21 17  1  0  0  0  0
 22 19  2  0  0  0  0
 22 20  1  0  0  0  0
 23  1  1  0  0  0  0
 24 26  1  0  0  0  0
 24 23  1  1  0  0  0
 25 24  1  0  0  0  0
 25 26  1  0  0  0  0
 25 27  1  1  0  0  0
 28 27  1  0  0  0  0
 28 29  1  0  0  0  0
 29 31  1  0  0  0  0
 31 30  1  0  0  0  0
M  END
>  <MODEL>
4

>  <REMARK>
 VINA RESULT:      -7.5      0.864      1.772
  Name = 
  11 active torsions:
  status: ('A' for Active; 'I' for Inactive)
    1  A    between atoms: C_1  and  C_9
    2  A    between atoms: C_1  and  O_10
    3  A    between atoms: C_9  and  C_30
    4  A    between atoms: O_10  and  O_13
    5  A    between atoms: C_17  and  N_21
    6  A    between atoms: C_17  and  C_25
    7  A    between atoms: C_20  and  N_24
    8  A    between atoms: N_21  and  C_22
    9  A    between atoms: C_22  and  N_23
   10  A    between atoms: N_23  and  C_28
   11  A    between atoms: N_24  and  C_29
                            x       y       z     vdW  Elec       q    Type
                         _______ _______ _______ _____ _____    ______ ____

>  <TORSDO>
F 11

$$$$
=
 OpenBabel10232411513D

 31 34  0  0  1  0  0  0  0  0999 V2000
  187.7400  178.0440  143.1300 C   0  0  0  0  0  3  0  0  0  0  0  0
  188.9980  177.6510  142.8800 C   0  0  0  0  0  0  0  0  0  0  0  0
  189.2920  176.8530  141.7320 N   0  0  0  0  0  2  0  0  0  0  0  0
  190.4020  177.1460  140.8400 C   0  0  0  0  0  2  0  0  0  0  0  0
  189.0930  177.0820  135.0480 O   0  0  0  0  0  0  0  0  0  0  0  0
  188.9030  177.9810  136.9540 C   0  0  0  0  0  0  0  0  0  0  0  0
  190.9840  175.4810  138.5660 N   0  0  0  0  0  1  0  0  0  0  0  0
  188.5800  178.8060  137.9760 N   0  0  0  0  0  0  0  0  0  0  0  0
  188.5390  178.0970  135.6660 N   0  0  0  0  0  2  0  0  0  0  0  0
  189.7250  176.8360  137.1400 C   0  0  0  0  0  0  0  0  0  0  0  0
  190.2290  176.5160  138.3920 C   0  0  0  0  0  0  0  0  0  0  0  0
  190.5040  175.1490  135.4760 N   0  0  0  0  0  1  0  0  0  0  0  0
  189.0630  178.5150  139.2230 C   0  0  0  0  0  3  0  0  0  0  0  0
  189.8810  177.3780  139.4610 C   0  0  0  0  0  0  0  0  0  0  0  0
  189.7960  176.3180  135.8700 C   0  0  1  0  0  3  0  0  0  0  0  0
  190.0720  178.0050  143.7700 N   0  0  0  0  0  2  0  0  0  0  0  0
  191.1810  176.3090  147.4980 C   0  0  0  0  0  3  0  0  0  0  0  0
  191.9740  176.1200  146.3640 C   0  0  0  0  0  3  0  0  0  0  0  0
  191.5920  176.6830  145.1420 C   0  0  0  0  0  3  0  0  0  0  0  0
  189.6280  177.6250  146.1880 C   0  0  0  0  0  3  0  0  0  0  0  0
  190.0080  177.0620  147.4110 C   0  0  0  0  0  3  0  0  0  0  0  0
  190.4160  177.4350  145.0430 C   0  0  0  0  0  0  0  0  0  0  0  0
  186.5920  177.7510  142.3170 N   0  0  0  0  0  2  0  0  0  0  0  0
  185.8780  178.6980  141.4650 C   0  0  1  0  0  3  0  0  0  0  0  0
  184.4990  179.0100  141.9480 C   0  0  2  0  0  3  0  0  0  0  0  0
  185.5900  179.8640  142.2000 O   0  0  0  0  0  0  0  0  0  0  0  0
  184.0910  178.3120  143.2420 C   0  0  0  0  0  2  0  0  0  0  0  0
  183.3070  179.2610  144.1310 C   0  0  0  0  0  2  0  0  0  0  0  0
  183.8430  179.2590  145.4230 O   0  0  0  0  0  0  0  0  0  0  0  0
  185.6830  178.8600  146.4630 C   0  0  0  0  0  1  0  0  0  0  0  0
  184.9320  178.5240  145.3340 O   0  0  0  0  0  0  0  0  0  0  0  0
  2  1  2  0  0  0  0
  2 16  1  0  0  0  0
  3  2  1  0  0  0  0
  4  3  1  0  0  0  0
  5  9  1  0  0  0  0
  5 15  1  0  0  0  0
  6 10  1  0  0  0  0
  6  8  2  0  0  0  0
  8 13  1  0  0  0  0
  9  6  1  0  0  0  0
 10 11  2  0  0  0  0
 11  7  1  0  0  0  0
 11 14  1  0  0  0  0
 13 14  2  0  0  0  0
 14  4  1  0  0  0  0
 15 12  1  1  0  0  0
 15 10  1  0  0  0  0
 16 22  1  0  0  0  0
 18 17  2  0  0  0  0
 19 18  1  0  0  0  0
 20 21  2  0  0  0  0
 21 17  1  0  0  0  0
 22 19  2  0  0  0  0
 22 20  1  0  0  0  0
 23  1  1  0  0  0  0
 24 25  1  0  0  0  0
 24 26  1  0  0  0  0
 24 23  1  1  0  0  0
 25 26  1  0  0  0  0
 25 27  1  1  0  0  0
 27 28  1  0  0  0  0
 28 29  1  0  0  0  0
 31 29  1  0  0  0  0
 31 30  1  0  0  0  0
M  END
>  <MODEL>
5

>  <REMARK>
 VINA RESULT:      -7.5      2.259      6.620
  Name = 
  11 active torsions:
  status: ('A' for Active; 'I' for Inactive)
    1  A    between atoms: C_1  and  C_9
    2  A    between atoms: C_1  and  O_10
    3  A    between atoms: C_9  and  C_30
    4  A    between atoms: O_10  and  O_13
    5  A    between atoms: C_17  and  N_21
    6  A    between atoms: C_17  and  C_25
    7  A    between atoms: C_20  and  N_24
    8  A    between atoms: N_21  and  C_22
    9  A    between atoms: C_22  and  N_23
   10  A    between atoms: N_23  and  C_28
   11  A    between atoms: N_24  and  C_29
                            x       y       z     vdW  Elec       q    Type
                         _______ _______ _______ _____ _____    ______ ____

>  <TORSDO>
F 11

$$$$
=
 OpenBabel10232411513D

 31 34  0  0  1  0  0  0  0  0999 V2000
  188.0390  178.3980  139.7320 C   0  0  0  0  0  3  0  0  0  0  0  0
  189.2060  177.9640  140.2320 C   0  0  0  0  0  0  0  0  0  0  0  0
  189.3830  177.8310  141.6430 N   0  0  0  0  0  2  0  0  0  0  0  0
  189.1050  176.5930  142.3540 C   0  0  0  0  0  2  0  0  0  0  0  0
  190.8290  177.2170  148.0020 O   0  0  0  0  0  0  0  0  0  0  0  0
  191.2660  176.6500  146.0110 C   0  0  0  0  0  0  0  0  0  0  0  0
  187.9270  177.4560  144.8330 N   0  0  0  0  0  2  0  0  0  0  0  0
  191.8850  176.2230  144.8870 N   0  0  0  0  0  0  0  0  0  0  0  0
  191.7910  176.7520  147.2430 N   0  0  0  0  0  2  0  0  0  0  0  0
  189.9090  177.0740  146.0100 C   0  0  0  0  0  0  0  0  0  0  0  0
  189.1590  177.0630  144.8430 C   0  0  0  0  0  0  0  0  0  0  0  0
  188.5040  177.9190  147.8900 N   0  0  0  0  0  1  0  0  0  0  0  0
  191.1700  176.2010  143.7200 C   0  0  0  0  0  3  0  0  0  0  0  0
  189.8100  176.6080  143.6700 C   0  0  0  0  0  0  0  0  0  0  0  0
  189.7100  177.4200  147.3240 C   0  0  0  0  0  0  0  0  0  0  0  0
  190.3070  177.6430  139.3630 N   0  0  0  0  0  2  0  0  0  0  0  0
  190.3820  175.1340  135.9430 C   0  0  0  0  0  3  0  0  0  0  0  0
  189.8900  176.4390  135.8600 C   0  0  0  0  0  3  0  0  0  0  0  0
  189.8690  177.2520  136.9980 C   0  0  0  0  0  3  0  0  0  0  0  0
  190.8340  175.4570  138.2980 C   0  0  0  0  0  3  0  0  0  0  0  0
  190.8550  174.6430  137.1620 C   0  0  0  0  0  3  0  0  0  0  0  0
  190.3360  176.7670  138.2250 C   0  0  0  0  0  0  0  0  0  0  0  0
  186.8750  178.7480  140.4990 N   0  0  0  0  0  2  0  0  0  0  0  0
  185.4870  178.5320  140.0990 C   0  0  1  0  0  3  0  0  0  0  0  0
  184.5030  178.8340  141.1820 C   0  0  2  0  0  3  0  0  0  0  0  0
  184.7890  179.7540  140.1540 O   0  0  0  0  0  0  0  0  0  0  0  0
  185.1100  179.3310  142.4910 C   0  0  0  0  0  2  0  0  0  0  0  0
  184.3050  178.8230  143.6740 C   0  0  0  0  0  2  0  0  0  0  0  0
  184.7880  179.3890  144.8590 O   0  0  0  0  0  0  0  0  0  0  0  0
  184.9280  178.3720  146.7490 C   0  0  0  0  0  1  0  0  0  0  0  0
  184.0290  178.8800  145.8080 O   0  0  0  0  0  0  0  0  0  0  0  0
  1  2  2  0  0  0  0
  1 23  1  0  0  0  0
  2  3  1  0  0  0  0
  3  4  1  0  0  0  0
  4 14  1  0  0  0  0
  6  9  1  0  0  0  0
  7 11  2  0  0  0  0
  8  6  2  0  0  0  0
  9  5  1  0  0  0  0
 10  6  1  0  0  0  0
 10 15  2  0  0  0  0
 11 10  1  0  0  0  0
 13  8  1  0  0  0  0
 14 13  2  0  0  0  0
 14 11  1  0  0  0  0
 15 12  1  0  0  0  0
 15  5  1  0  0  0  0
 16  2  1  0  0  0  0
 17 21  1  0  0  0  0
 18 17  2  0  0  0  0
 18 19  1  0  0  0  0
 19 22  2  0  0  0  0
 21 20  2  0  0  0  0
 22 20  1  0  0  0  0
 22 16  1  0  0  0  0
 24 26  1  0  0  0  0
 24 23  1  1  0  0  0
 24 25  1  0  0  0  0
 25 27  1  1  0  0  0
 26 25  1  0  0  0  0
 27 28  1  0  0  0  0
 28 29  1  0  0  0  0
 29 31  1  0  0  0  0
 31 30  1  0  0  0  0
M  END
>  <MODEL>
6

>  <REMARK>
 VINA RESULT:      -7.5      2.374      6.007
  Name = 
  11 active torsions:
  status: ('A' for Active; 'I' for Inactive)
    1  A    between atoms: C_1  and  C_9
    2  A    between atoms: C_1  and  O_10
    3  A    between atoms: C_9  and  C_30
    4  A    between atoms: O_10  and  O_13
    5  A    between atoms: C_17  and  N_21
    6  A    between atoms: C_17  and  C_25
    7  A    between atoms: C_20  and  N_24
    8  A    between atoms: N_21  and  C_22
    9  A    between atoms: C_22  and  N_23
   10  A    between atoms: N_23  and  C_28
   11  A    between atoms: N_24  and  C_29
                            x       y       z     vdW  Elec       q    Type
                         _______ _______ _______ _____ _____    ______ ____

>  <TORSDO>
F 11

$$$$
=
 OpenBabel10232411513D

 31 34  0  0  1  0  0  0  0  0999 V2000
  190.6590  177.1270  141.4180 C   0  0  0  0  0  3  0  0  0  0  0  0
  189.6820  177.5390  142.2410 C   0  0  0  0  0  0  0  0  0  0  0  0
  188.3120  177.3210  141.9030 N   0  0  0  0  0  2  0  0  0  0  0  0
  187.4570  178.3760  141.3830 C   0  0  0  0  0  2  0  0  0  0  0  0
  181.8920  178.8650  143.3990 O   0  0  0  0  0  0  0  0  0  0  0  0
  183.9530  178.5650  143.7780 C   0  0  0  0  0  0  0  0  0  0  0  0
  184.8360  178.7730  140.2620 N   0  0  0  0  0  2  0  0  0  0  0  0
  185.1490  178.3680  144.3760 N   0  0  0  0  0  0  0  0  0  0  0  0
  182.7520  178.6690  144.3700 N   0  0  0  0  0  2  0  0  0  0  0  0
  183.8280  178.7040  142.3680 C   0  0  0  0  0  0  0  0  0  0  0  0
  184.9420  178.6380  141.5440 C   0  0  0  0  0  0  0  0  0  0  0  0
  181.7910  179.0870  140.9810 N   0  0  0  0  0  1  0  0  0  0  0  0
  186.2660  178.2990  143.5870 C   0  0  0  0  0  3  0  0  0  0  0  0
  186.1920  178.4240  142.1750 C   0  0  0  0  0  0  0  0  0  0  0  0
  182.4770  178.8920  142.2120 C   0  0  0  0  0  0  0  0  0  0  0  0
  189.9910  178.2260  143.4670 N   0  0  0  0  0  2  0  0  0  0  0  0
  190.7610  176.6130  147.3150 C   0  0  0  0  0  3  0  0  0  0  0  0
  191.7210  176.5350  146.3030 C   0  0  0  0  0  3  0  0  0  0  0  0
  191.4500  177.0680  145.0390 C   0  0  0  0  0  3  0  0  0  0  0  0
  189.2620  177.7600  145.7990 C   0  0  0  0  0  3  0  0  0  0  0  0
  189.5320  177.2260  147.0640 C   0  0  0  0  0  3  0  0  0  0  0  0
  190.2190  177.6800  144.7760 C   0  0  0  0  0  0  0  0  0  0  0  0
  190.4710  176.4360  140.1720 N   0  0  0  0  0  2  0  0  0  0  0  0
  190.0620  177.0410  138.9080 C   0  0  1  0  0  3  0  0  0  0  0  0
  191.0390  176.8240  137.8000 C   0  0  2  0  0  3  0  0  0  0  0  0
  189.8820  176.0320  137.9420 O   0  0  0  0  0  0  0  0  0  0  0  0
  192.2680  175.9970  138.1710 C   0  0  0  0  0  2  0  0  0  0  0  0
  193.4430  176.3690  137.2840 C   0  0  0  0  0  2  0  0  0  0  0  0
  194.4770  175.4410  137.4480 O   0  0  0  0  0  0  0  0  0  0  0  0
  195.5810  174.3630  138.9460 C   0  0  0  0  0  1  0  0  0  0  0  0
  194.7530  175.4680  138.7350 O   0  0  0  0  0  0  0  0  0  0  0  0
  1  2  2  0  0  0  0
  2 16  1  0  0  0  0
  3  2  1  0  0  0  0
  4  3  1  0  0  0  0
  4 14  1  0  0  0  0
  5  9  1  0  0  0  0
  6  9  1  0  0  0  0
  6  8  2  0  0  0  0
  7 11  2  0  0  0  0
 10  6  1  0  0  0  0
 11 14  1  0  0  0  0
 11 10  1  0  0  0  0
 12 15  1  0  0  0  0
 13  8  1  0  0  0  0
 14 13  2  0  0  0  0
 15 10  2  0  0  0  0
 15  5  1  0  0  0  0
 16 22  1  0  0  0  0
 18 17  2  0  0  0  0
 19 18  1  0  0  0  0
 20 21  2  0  0  0  0
 21 17  1  0  0  0  0
 22 19  2  0  0  0  0
 22 20  1  0  0  0  0
 23  1  1  0  0  0  0
 24 23  1  1  0  0  0
 25 26  1  0  0  0  0
 25 27  1  1  0  0  0
 25 24  1  0  0  0  0
 26 24  1  0  0  0  0
 28 29  1  0  0  0  0
 28 27  1  0  0  0  0
 29 31  1  0  0  0  0
 31 30  1  0  0  0  0
M  END
>  <MODEL>
7

>  <REMARK>
 VINA RESULT:      -7.4      2.750      4.374
  Name = 
  11 active torsions:
  status: ('A' for Active; 'I' for Inactive)
    1  A    between atoms: C_1  and  C_9
    2  A    between atoms: C_1  and  O_10
    3  A    between atoms: C_9  and  C_30
    4  A    between atoms: O_10  and  O_13
    5  A    between atoms: C_17  and  N_21
    6  A    between atoms: C_17  and  C_25
    7  A    between atoms: C_20  and  N_24
    8  A    between atoms: N_21  and  C_22
    9  A    between atoms: C_22  and  N_23
   10  A    between atoms: N_23  and  C_28
   11  A    between atoms: N_24  and  C_29
                            x       y       z     vdW  Elec       q    Type
                         _______ _______ _______ _____ _____    ______ ____

>  <TORSDO>
F 11

$$$$
=
 OpenBabel10232411513D

 31 34  0  0  1  0  0  0  0  0999 V2000
  189.1260  177.4650  143.2110 C   0  0  0  0  0  3  0  0  0  0  0  0
  187.8000  177.3840  143.4010 C   0  0  0  0  0  0  0  0  0  0  0  0
  186.8980  177.6460  142.3250 N   0  0  0  0  0  2  0  0  0  0  0  0
  186.2960  178.9510  142.1090 C   0  0  0  0  0  2  0  0  0  0  0  0
  180.3720  178.7070  142.4530 O   0  0  0  0  0  0  0  0  0  0  0  0
  182.2500  178.9260  143.4040 C   0  0  0  0  0  0  0  0  0  0  0  0
  184.0940  178.5510  140.2990 N   0  0  0  0  0  2  0  0  0  0  0  0
  183.2320  179.1120  144.3150 N   0  0  0  0  0  0  0  0  0  0  0  0
  180.9250  178.9060  143.6260 N   0  0  0  0  0  2  0  0  0  0  0  0
  182.5290  178.7300  142.0240 C   0  0  0  0  0  0  0  0  0  0  0  0
  183.8340  178.7190  141.5550 C   0  0  0  0  0  0  0  0  0  0  0  0
  180.9590  178.3790  140.1180 N   0  0  0  0  0  1  0  0  0  0  0  0
  184.5310  179.1060  143.8810 C   0  0  0  0  0  3  0  0  0  0  0  0
  184.8600  178.9070  142.5140 C   0  0  0  0  0  0  0  0  0  0  0  0
  181.2720  178.5980  141.4880 C   0  0  0  0  0  0  0  0  0  0  0  0
  187.2580  177.0540  144.6920 N   0  0  0  0  0  2  0  0  0  0  0  0
  188.7420  178.1680  148.5080 C   0  0  0  0  0  3  0  0  0  0  0  0
  189.5460  177.4640  147.6080 C   0  0  0  0  0  3  0  0  0  0  0  0
  189.0400  177.1010  146.3550 C   0  0  0  0  0  3  0  0  0  0  0  0
  186.9310  178.1480  146.9030 C   0  0  0  0  0  3  0  0  0  0  0  0
  187.4350  178.5110  148.1560 C   0  0  0  0  0  3  0  0  0  0  0  0
  187.7290  177.4360  145.9950 C   0  0  0  0  0  0  0  0  0  0  0  0
  189.7790  177.7870  141.9730 N   0  0  0  0  0  2  0  0  0  0  0  0
  190.5140  176.8550  141.1220 C   0  0  1  0  0  3  0  0  0  0  0  0
  190.2630  177.0580  139.6630 C   0  0  2  0  0  3  0  0  0  0  0  0
  191.4080  177.5730  140.3040 O   0  0  0  0  0  0  0  0  0  0  0  0
  189.3150  178.2030  139.3200 C   0  0  0  0  0  2  0  0  0  0  0  0
  189.0040  178.2060  137.8340 C   0  0  0  0  0  2  0  0  0  0  0  0
  188.7990  179.5160  137.3900 O   0  0  0  0  0  0  0  0  0  0  0  0
  187.3810  178.4410  136.1820 C   0  0  0  0  0  1  0  0  0  0  0  0
  187.5360  179.5510  137.0150 O   0  0  0  0  0  0  0  0  0  0  0  0
  1  2  2  0  0  0  0
  2 16  1  0  0  0  0
  3  2  1  0  0  0  0
  4  3  1  0  0  0  0
  4 14  1  0  0  0  0
  5  9  1  0  0  0  0
  6  9  1  0  0  0  0
  6  8  2  0  0  0  0
  7 11  2  0  0  0  0
 10  6  1  0  0  0  0
 11 10  1  0  0  0  0
 11 14  1  0  0  0  0
 12 15  1  0  0  0  0
 13  8  1  0  0  0  0
 14 13  2  0  0  0  0
 15 10  2  0  0  0  0
 15  5  1  0  0  0  0
 16 22  1  0  0  0  0
 18 17  2  0  0  0  0
 19 18  1  0  0  0  0
 20 21  2  0  0  0  0
 21 17  1  0  0  0  0
 22 19  2  0  0  0  0
 22 20  1  0  0  0  0
 23  1  1  0  0  0  0
 24 23  1  1  0  0  0
 25 27  1  1  0  0  0
 25 26  1  0  0  0  0
 25 24  1  0  0  0  0
 26 24  1  0  0  0  0
 28 27  1  0  0  0  0
 29 28  1  0  0  0  0
 30 31  1  0  0  0  0
 31 29  1  0  0  0  0
M  END
>  <MODEL>
8

>  <REMARK>
 VINA RESULT:      -7.3      2.290      3.882
  Name = 
  11 active torsions:
  status: ('A' for Active; 'I' for Inactive)
    1  A    between atoms: C_1  and  C_9
    2  A    between atoms: C_1  and  O_10
    3  A    between atoms: C_9  and  C_30
    4  A    between atoms: O_10  and  O_13
    5  A    between atoms: C_17  and  N_21
    6  A    between atoms: C_17  and  C_25
    7  A    between atoms: C_20  and  N_24
    8  A    between atoms: N_21  and  C_22
    9  A    between atoms: C_22  and  N_23
   10  A    between atoms: N_23  and  C_28
   11  A    between atoms: N_24  and  C_29
                            x       y       z     vdW  Elec       q    Type
                         _______ _______ _______ _____ _____    ______ ____

>  <TORSDO>
F 11

$$$$
=
 OpenBabel10232411513D

 31 34  0  0  1  0  0  0  0  0999 V2000
  187.4200  178.3290  139.9570 C   0  0  0  0  0  3  0  0  0  0  0  0
  187.1290  178.7350  141.2030 C   0  0  0  0  0  0  0  0  0  0  0  0
  187.9660  178.3640  142.2990 N   0  0  0  0  0  2  0  0  0  0  0  0
  187.8150  177.1030  143.0070 C   0  0  0  0  0  2  0  0  0  0  0  0
  190.9490  177.2970  148.0470 O   0  0  0  0  0  0  0  0  0  0  0  0
  190.8480  176.8860  145.9730 C   0  0  0  0  0  0  0  0  0  0  0  0
  187.3320  177.7680  145.7650 N   0  0  0  0  0  2  0  0  0  0  0  0
  191.1480  176.5500  144.6980 N   0  0  0  0  0  0  0  0  0  0  0  0
  191.6750  176.8950  147.0310 N   0  0  0  0  0  2  0  0  0  0  0  0
  189.5440  177.3040  146.3560 C   0  0  0  0  0  0  0  0  0  0  0  0
  188.5180  177.3800  145.4250 C   0  0  0  0  0  0  0  0  0  0  0  0
  188.6860  177.9950  148.5940 N   0  0  0  0  0  1  0  0  0  0  0  0
  190.1550  176.6150  143.7580 C   0  0  0  0  0  3  0  0  0  0  0  0
  188.8360  177.0190  144.0930 C   0  0  0  0  0  0  0  0  0  0  0  0
  189.6970  177.5470  147.6980 C   0  0  0  0  0  0  0  0  0  0  0  0
  185.9590  179.5310  141.4640 N   0  0  0  0  0  2  0  0  0  0  0  0
  182.7340  178.7640  144.1130 C   0  0  0  0  0  3  0  0  0  0  0  0
  183.9530  179.2480  144.5940 C   0  0  0  0  0  3  0  0  0  0  0  0
  185.0070  179.4920  143.7080 C   0  0  0  0  0  3  0  0  0  0  0  0
  183.6230  178.7720  141.8620 C   0  0  0  0  0  3  0  0  0  0  0  0
  182.5680  178.5260  142.7470 C   0  0  0  0  0  3  0  0  0  0  0  0
  184.8520  179.2520  142.3380 C   0  0  0  0  0  0  0  0  0  0  0  0
  188.5550  177.5340  139.5780 N   0  0  0  0  0  2  0  0  0  0  0  0
  189.7350  178.0080  138.8610 C   0  0  1  0  0  3  0  0  0  0  0  0
  190.0250  177.2350  137.6160 C   0  0  2  0  0  3  0  0  0  0  0  0
  189.3540  178.4730  137.5870 O   0  0  0  0  0  0  0  0  0  0  0  0
  189.0380  176.1150  137.3020 C   0  0  0  0  0  2  0  0  0  0  0  0
  188.6850  176.1190  135.8250 C   0  0  0  0  0  2  0  0  0  0  0  0
  187.3040  176.2750  135.6640 O   0  0  0  0  0  0  0  0  0  0  0  0
  185.7440  177.2440  136.7840 C   0  0  0  0  0  1  0  0  0  0  0  0
  186.8310  176.3750  136.8900 O   0  0  0  0  0  0  0  0  0  0  0  0
  1  2  2  0  0  0  0
  2 16  1  0  0  0  0
  2  3  1  0  0  0  0
  3  4  1  0  0  0  0
  4 14  1  0  0  0  0
  6 10  1  0  0  0  0
  6  9  1  0  0  0  0
  8  6  2  0  0  0  0
  9  5  1  0  0  0  0
 10 15  2  0  0  0  0
 11  7  2  0  0  0  0
 11 10  1  0  0  0  0
 13 14  2  0  0  0  0
 13  8  1  0  0  0  0
 14 11  1  0  0  0  0
 15  5  1  0  0  0  0
 15 12  1  0  0  0  0
 16 22  1  0  0  0  0
 17 18  1  0  0  0  0
 19 18  2  0  0  0  0
 20 22  2  0  0  0  0
 20 21  1  0  0  0  0
 21 17  2  0  0  0  0
 22 19  1  0  0  0  0
 23  1  1  0  0  0  0
 24 23  1  1  0  0  0
 25 27  1  1  0  0  0
 25 24  1  0  0  0  0
 26 25  1  0  0  0  0
 26 24  1  0  0  0  0
 28 27  1  0  0  0  0
 29 28  1  0  0  0  0
 29 31  1  0  0  0  0
 30 31  1  0  0  0  0
M  END
>  <MODEL>
9

>  <REMARK>
 VINA RESULT:      -7.3      2.391      5.447
  Name = 
  11 active torsions:
  status: ('A' for Active; 'I' for Inactive)
    1  A    between atoms: C_1  and  C_9
    2  A    between atoms: C_1  and  O_10
    3  A    between atoms: C_9  and  C_30
    4  A    between atoms: O_10  and  O_13
    5  A    between atoms: C_17  and  N_21
    6  A    between atoms: C_17  and  C_25
    7  A    between atoms: C_20  and  N_24
    8  A    between atoms: N_21  and  C_22
    9  A    between atoms: C_22  and  N_23
   10  A    between atoms: N_23  and  C_28
   11  A    between atoms: N_24  and  C_29
                            x       y       z     vdW  Elec       q    Type
                         _______ _______ _______ _____ _____    ______ ____

>  <TORSDO>
F 11

$$$$
