=
 OpenBabel10232410023D

 26 28  0  0  0  0  0  0  0  0999 V2000
  190.7930  177.0030  143.2090 C   0  0  0  0  0  3  0  0  0  0  0  0
  188.6040  177.2970  142.1360 C   0  0  0  0  0  0  0  0  0  0  0  0
  186.9310  177.5730  146.2490 C   0  0  0  0  0  3  0  0  0  0  0  0
  187.3190  177.7090  142.2190 N   0  0  0  0  0  0  0  0  0  0  0  0
  188.9140  177.3810  144.6070 C   0  0  0  0  0  0  0  0  0  0  0  0
  186.6360  177.8080  143.4980 C   0  0  0  0  0  0  0  0  0  0  0  0
  184.4770  178.7450  144.6200 C   0  0  0  0  0  0  0  0  0  0  0  0
  184.7450  178.8340  145.9360 C   0  0  0  0  0  3  0  0  0  0  0  0
  185.8170  178.1450  146.7400 C   0  0  0  0  0  2  0  0  0  0  0  0
  185.4240  178.3880  143.4760 C   0  0  0  0  0  3  0  0  0  0  0  0
  189.4350  177.3340  143.3370 C   0  0  0  0  0  0  0  0  0  0  0  0
  189.6820  177.0670  145.6750 N   0  0  0  0  0  0  0  0  0  0  0  0
  191.6220  176.7420  144.3290 C   0  0  0  0  0  3  0  0  0  0  0  0
  187.4560  177.7810  144.8030 C   0  0  0  0  0  0  0  0  0  0  0  0
  191.0150  176.7810  145.5920 C   0  0  0  0  0  0  0  0  0  0  0  0
  192.2480  176.2770  147.8650 N   0  0  0  0  0  0  0  0  0  0  0  0
  191.6860  176.5040  146.8230 C   0  0  0  0  0  0  0  0  0  0  0  0
  183.2830  179.4450  143.9660 C   0  0  0  0  0  2  0  0  0  0  0  0
  181.9430  178.7280  143.9310 C   0  0  0  0  0  2  0  0  0  0  0  0
  181.2650  179.1960  142.7000 N   0  0  0  0  0  2  0  0  0  0  0  0
  182.0060  178.6940  141.5310 C   0  0  0  0  0  1  0  0  0  0  0  0
  189.3200  177.3930  140.8300 C   0  0  0  0  0  2  0  0  0  0  0  0
  188.5720  178.3490  139.9090 C   0  0  0  0  0  2  0  0  0  0  0  0
  190.0090  177.5680  137.9210 O   0  0  0  0  0  1  0  0  0  0  0  0
  188.9270  179.6190  137.7630 O   0  0  0  0  0  0  0  0  0  0  0  0
  189.1190  178.5680  138.4670 C   0  0  0  0  0  0  0  0  0  0  0  0
  1 11  2  0  0  0  0
  1 13  1  0  0  0  0
  2  4  2  0  0  0  0
  2 11  1  0  0  0  0
  3  9  1  0  0  0  0
  4  6  1  0  0  0  0
  5 14  1  0  0  0  0
  5 12  2  0  0  0  0
  6 14  1  0  0  0  0
  7  8  2  0  0  0  0
  8  9  1  0  0  0  0
 10  6  2  0  0  0  0
 10  7  1  0  0  0  0
 11  5  1  0  0  0  0
 13 15  2  0  0  0  0
 14  3  2  0  0  0  0
 15 12  1  0  0  0  0
 15 17  1  0  0  0  0
 17 16  3  0  0  0  0
 18  7  1  0  0  0  0
 19 18  1  0  0  0  0
 20 19  1  0  0  0  0
 21 20  1  0  0  0  0
 22  2  1  0  0  0  0
 23 22  1  0  0  0  0
 24 26  1  0  0  0  0
 25 26  2  0  0  0  0
 26 23  1  0  0  0  0
M  END
>  <MODEL>
1

>  <REMARK>
 VINA RESULT:      -8.9      0.000      0.000
  Name = 
  7 active torsions:
  status: ('A' for Active; 'I' for Inactive)
    1  A    between atoms: C_1  and  C_11
    2  A    between atoms: C_1  and  C_13
    3  A    between atoms: C_3  and  C_17
    4  A    between atoms: C_3  and  C_24
    5  A    between atoms: C_5  and  C_26
    6  A    between atoms: C_6  and  C_17
    7  A    between atoms: N_9  and  C_11
                            x       y       z     vdW  Elec       q    Type
                         _______ _______ _______ _____ _____    ______ ____

>  <TORSDO>
F 7

$$$$
=
 OpenBabel10232410023D

 26 28  0  0  1  0  0  0  0  0999 V2000
  188.0430  177.2090  146.6300 C   0  0  0  0  0  3  0  0  0  0  0  0
  187.0580  178.0180  144.5310 C   0  0  0  0  0  0  0  0  0  0  0  0
  191.0990  177.4800  142.7480 C   0  0  0  0  0  3  0  0  0  0  0  0
  187.1220  178.1170  143.1840 N   0  0  0  0  0  0  0  0  0  0  0  0
  189.4290  177.2690  144.7050 C   0  0  0  0  0  0  0  0  0  0  0  0
  188.3850  178.0000  142.4740 C   0  0  0  0  0  0  0  0  0  0  0  0
  189.3950  177.7270  140.0860 C   0  0  0  0  0  0  0  0  0  0  0  0
  190.6410  177.2490  140.2570 C   0  0  0  0  0  3  0  0  0  0  0  0
  191.5140  177.2790  141.4850 C   0  0  0  0  0  3  0  0  0  0  0  0
  188.3050  177.9450  141.1350 C   0  0  0  0  0  3  0  0  0  0  0  0
  188.1720  177.3990  145.2450 C   0  0  0  0  0  0  0  0  0  0  0  0
  190.4940  177.0190  145.5000 N   0  0  0  0  0  0  0  0  0  0  0  0
  189.1440  176.8760  147.4590 C   0  0  0  0  0  3  0  0  0  0  0  0
  189.6150  177.4190  143.2000 C   0  0  1  0  0  3  0  0  0  0  0  0
  190.4000  176.7880  146.8430 C   0  0  0  0  0  0  0  0  0  0  0  0
  192.6490  176.2730  148.1130 N   0  0  0  0  0  0  0  0  0  0  0  0
  191.6220  176.5050  147.5290 C   0  0  0  0  0  0  0  0  0  0  0  0
  188.6720  177.6980  138.7360 C   0  0  0  0  0  2  0  0  0  0  0  0
  189.0340  178.7400  137.6900 C   0  0  0  0  0  2  0  0  0  0  0  0
  187.7590  179.1270  137.0450 N   0  0  0  0  0  2  0  0  0  0  0  0
  186.7120  178.1780  137.4560 C   0  0  0  0  0  1  0  0  0  0  0  0
  185.7250  177.9540  145.1980 C   0  0  0  0  0  2  0  0  0  0  0  0
  184.8500  179.0960  144.6960 C   0  0  0  0  0  2  0  0  0  0  0  0
  183.7420  178.5530  142.4370 O   0  0  0  0  0  0  0  0  0  0  0  0
  182.3880  178.7230  144.3180 O   0  0  0  0  0  1  0  0  0  0  0  0
  183.5820  178.7470  143.8610 C   0  0  0  0  0  0  0  0  0  0  0  0
  1 13  1  0  0  0  0
  2 22  1  0  0  0  0
  2 11  1  0  0  0  0
  4  2  2  0  0  0  0
  5 11  1  0  0  0  0
  5 12  2  0  0  0  0
  6  4  1  0  0  0  0
  6 14  1  0  0  0  0
  7  8  2  0  0  0  0
  7 10  1  0  0  0  0
  8  9  1  0  0  0  0
  9  3  2  0  0  0  0
 10  6  2  0  0  0  0
 11  1  2  0  0  0  0
 12 15  1  0  0  0  0
 14  3  1  1  0  0  0
 14  5  1  0  0  0  0
 15 13  2  0  0  0  0
 15 17  1  0  0  0  0
 17 16  3  0  0  0  0
 18  7  1  0  0  0  0
 19 18  1  0  0  0  0
 20 21  1  0  0  0  0
 20 19  1  0  0  0  0
 23 22  1  0  0  0  0
 24 26  2  0  0  0  0
 26 25  1  0  0  0  0
 26 23  1  0  0  0  0
M  END
>  <MODEL>
2

>  <REMARK>
 VINA RESULT:      -8.4      2.775      5.628
  Name = 
  7 active torsions:
  status: ('A' for Active; 'I' for Inactive)
    1  A    between atoms: C_1  and  C_11
    2  A    between atoms: C_1  and  C_13
    3  A    between atoms: C_3  and  C_17
    4  A    between atoms: C_3  and  C_24
    5  A    between atoms: C_5  and  C_26
    6  A    between atoms: C_6  and  C_17
    7  A    between atoms: N_9  and  C_11
                            x       y       z     vdW  Elec       q    Type
                         _______ _______ _______ _____ _____    ______ ____

>  <TORSDO>
F 7

$$$$
=
 OpenBabel10232410023D

 26 28  0  0  0  0  0  0  0  0999 V2000
  185.3640  178.2740  141.5670 C   0  0  0  0  0  3  0  0  0  0  0  0
  187.7330  178.2170  142.2080 C   0  0  0  0  0  0  0  0  0  0  0  0
  186.3140  178.3640  146.4220 C   0  0  0  0  0  3  0  0  0  0  0  0
  188.6730  177.9800  143.1520 N   0  0  0  0  0  2  0  0  0  0  0  0
  185.8860  178.2140  143.8810 C   0  0  0  0  0  0  0  0  0  0  0  0
  188.3550  178.0350  144.5690 C   0  0  0  0  0  0  0  0  0  0  0  0
  189.3070  177.4450  146.9230 C   0  0  0  0  0  0  0  0  0  0  0  0
  188.2480  177.3860  147.7530 C   0  0  0  0  0  3  0  0  0  0  0  0
  186.8680  177.9660  147.5820 C   0  0  0  0  0  3  0  0  0  0  0  0
  189.3200  177.6180  145.4050 C   0  0  0  0  0  3  0  0  0  0  0  0
  186.3230  178.1300  142.5820 C   0  0  0  0  0  0  0  0  0  0  0  0
  184.5870  178.4770  144.1510 N   0  0  0  0  0  0  0  0  0  0  0  0
  183.9880  178.4780  141.8440 C   0  0  0  0  0  3  0  0  0  0  0  0
  186.8810  178.0180  145.0190 C   0  0  0  0  0  0  0  0  0  0  0  0
  183.6200  178.5810  143.1930 C   0  0  0  0  0  0  0  0  0  0  0  0
  181.1680  179.0290  144.0470 N   0  0  0  0  0  0  0  0  0  0  0  0
  182.2890  178.8280  143.6540 C   0  0  0  0  0  0  0  0  0  0  0  0
  190.6800  176.8750  147.2870 C   0  0  0  0  0  2  0  0  0  0  0  0
  191.6170  176.4520  146.1670 C   0  0  0  0  0  2  0  0  0  0  0  0
  192.4800  175.3930  146.7390 N   0  0  0  0  0  2  0  0  0  0  0  0
  192.7160  175.6900  148.1620 C   0  0  0  0  0  1  0  0  0  0  0  0
  188.0570  177.9640  140.7740 C   0  0  0  0  0  2  0  0  0  0  0  0
  189.5080  177.5140  140.6520 C   0  0  0  0  0  2  0  0  0  0  0  0
  190.7480  175.8150  139.1680 O   0  0  0  0  0  1  0  0  0  0  0  0
  189.9650  177.7710  138.1880 O   0  0  0  0  0  0  0  0  0  0  0  0
  190.0290  177.0660  139.2540 C   0  0  0  0  0  0  0  0  0  0  0  0
  1 13  2  0  0  0  0
  1 11  1  0  0  0  0
  2 11  2  0  0  0  0
  2  4  1  0  0  0  0
  3  9  2  0  0  0  0
  4  6  1  0  0  0  0
  5 12  1  0  0  0  0
  5 14  2  0  0  0  0
  6 14  1  0  0  0  0
  6 10  2  0  0  0  0
  7 18  1  0  0  0  0
  7  8  2  0  0  0  0
  9  8  1  0  0  0  0
 10  7  1  0  0  0  0
 11  5  1  0  0  0  0
 13 15  1  0  0  0  0
 14  3  1  0  0  0  0
 15 17  1  0  0  0  0
 15 12  2  0  0  0  0
 17 16  3  0  0  0  0
 19 20  1  0  0  0  0
 19 18  1  0  0  0  0
 20 21  1  0  0  0  0
 22  2  1  0  0  0  0
 23 22  1  0  0  0  0
 24 26  1  0  0  0  0
 25 26  2  0  0  0  0
 26 23  1  0  0  0  0
M  END
>  <MODEL>
3

>  <REMARK>
 VINA RESULT:      -8.2      1.511      6.392
  Name = 
  7 active torsions:
  status: ('A' for Active; 'I' for Inactive)
    1  A    between atoms: C_1  and  C_11
    2  A    between atoms: C_1  and  C_13
    3  A    between atoms: C_3  and  C_17
    4  A    between atoms: C_3  and  C_24
    5  A    between atoms: C_5  and  C_26
    6  A    between atoms: C_6  and  C_17
    7  A    between atoms: N_9  and  C_11
                            x       y       z     vdW  Elec       q    Type
                         _______ _______ _______ _____ _____    ______ ____

>  <TORSDO>
F 7

$$$$
=
 OpenBabel10232410023D

 26 28  0  0  0  0  0  0  0  0999 V2000
  188.1130  178.1450  139.9070 C   0  0  0  0  0  3  0  0  0  0  0  0
  187.1730  178.0140  142.1710 C   0  0  0  0  0  0  0  0  0  0  0  0
  191.0770  176.2680  143.3960 C   0  0  0  0  0  3  0  0  0  0  0  0
  187.3720  177.9030  143.5040 N   0  0  0  0  0  2  0  0  0  0  0  0
  189.5160  177.3470  141.6460 C   0  0  0  0  0  0  0  0  0  0  0  0
  188.5880  177.3150  144.0410 C   0  0  0  0  0  0  0  0  0  0  0  0
  189.9270  177.0030  146.2570 C   0  0  0  0  0  0  0  0  0  0  0  0
  191.1930  176.7230  145.8950 C   0  0  0  0  0  3  0  0  0  0  0  0
  191.7180  176.2160  144.5770 C   0  0  0  0  0  3  0  0  0  0  0  0
  188.7500  177.4110  145.3720 C   0  0  0  0  0  3  0  0  0  0  0  0
  188.3240  177.9220  141.2760 C   0  0  0  0  0  0  0  0  0  0  0  0
  190.4160  176.9720  140.7090 N   0  0  0  0  0  0  0  0  0  0  0  0
  189.0820  177.8200  138.9240 C   0  0  0  0  0  3  0  0  0  0  0  0
  189.8130  177.1270  143.1250 C   0  0  0  0  0  0  0  0  0  0  0  0
  190.2630  177.2110  139.3730 C   0  0  0  0  0  0  0  0  0  0  0  0
  192.2170  176.4140  137.7970 N   0  0  0  0  0  0  0  0  0  0  0  0
  191.3270  176.7780  138.5210 C   0  0  0  0  0  0  0  0  0  0  0  0
  189.5430  177.4280  147.6780 C   0  0  0  0  0  2  0  0  0  0  0  0
  188.1040  177.2440  148.1320 C   0  0  0  0  0  2  0  0  0  0  0  0
  187.5400  178.6080  148.2540 N   0  0  0  0  0  2  0  0  0  0  0  0
  186.3230  178.6930  147.4310 C   0  0  0  0  0  1  0  0  0  0  0  0
  186.0020  178.7930  141.6690 C   0  0  0  0  0  2  0  0  0  0  0  0
  184.7170  178.1950  142.2270 C   0  0  0  0  0  2  0  0  0  0  0  0
  184.6020  179.7570  144.2690 O   0  0  0  0  0  1  0  0  0  0  0  0
  182.6080  179.0600  143.2990 O   0  0  0  0  0  0  0  0  0  0  0  0
  183.8860  179.0380  143.2390 C   0  0  0  0  0  0  0  0  0  0  0  0
  1 11  1  0  0  0  0
  2  4  1  0  0  0  0
  3  9  2  0  0  0  0
  4  6  1  0  0  0  0
  5 14  2  0  0  0  0
  6 10  2  0  0  0  0
  7 18  1  0  0  0  0
  8  7  2  0  0  0  0
  9  8  1  0  0  0  0
 10  7  1  0  0  0  0
 11  5  1  0  0  0  0
 11  2  2  0  0  0  0
 12  5  1  0  0  0  0
 13 15  1  0  0  0  0
 13  1  2  0  0  0  0
 14  3  1  0  0  0  0
 14  6  1  0  0  0  0
 15 12  2  0  0  0  0
 16 17  3  0  0  0  0
 17 15  1  0  0  0  0
 18 19  1  0  0  0  0
 19 20  1  0  0  0  0
 21 20  1  0  0  0  0
 22  2  1  0  0  0  0
 22 23  1  0  0  0  0
 23 26  1  0  0  0  0
 26 25  2  0  0  0  0
 26 24  1  0  0  0  0
M  END
>  <MODEL>
4

>  <REMARK>
 VINA RESULT:      -7.9      3.103      6.075
  Name = 
  7 active torsions:
  status: ('A' for Active; 'I' for Inactive)
    1  A    between atoms: C_1  and  C_11
    2  A    between atoms: C_1  and  C_13
    3  A    between atoms: C_3  and  C_17
    4  A    between atoms: C_3  and  C_24
    5  A    between atoms: C_5  and  C_26
    6  A    between atoms: C_6  and  C_17
    7  A    between atoms: N_9  and  C_11
                            x       y       z     vdW  Elec       q    Type
                         _______ _______ _______ _____ _____    ______ ____

>  <TORSDO>
F 7

$$$$
=
 OpenBabel10232410023D

 26 28  0  0  1  0  0  0  0  0999 V2000
  187.0170  177.8540  145.8560 C   0  0  0  0  0  3  0  0  0  0  0  0
  189.1590  176.9250  145.0930 C   0  0  0  0  0  0  0  0  0  0  0  0
  187.7150  177.7140  140.9590 C   0  0  0  0  0  3  0  0  0  0  0  0
  190.0840  176.7990  144.1150 N   0  0  0  0  0  0  0  0  0  0  0  0
  187.4570  177.8500  143.5240 C   0  0  0  0  0  0  0  0  0  0  0  0
  189.7400  176.9910  142.7160 C   0  0  0  0  0  0  0  0  0  0  0  0
  190.7960  177.2800  140.3500 C   0  0  0  0  0  0  0  0  0  0  0  0
  189.8490  177.8520  139.5830 C   0  0  0  0  0  3  0  0  0  0  0  0
  188.3590  177.9150  139.7950 C   0  0  0  0  0  3  0  0  0  0  0  0
  190.7690  177.0080  141.8530 C   0  0  0  0  0  3  0  0  0  0  0  0
  187.9190  177.6410  144.8010 C   0  0  0  0  0  0  0  0  0  0  0  0
  186.1670  178.1960  143.3100 N   0  0  0  0  0  0  0  0  0  0  0  0
  185.6840  178.2860  145.6420 C   0  0  0  0  0  3  0  0  0  0  0  0
  188.4100  177.6770  142.3470 C   0  0  1  0  0  3  0  0  0  0  0  0
  185.2750  178.4520  144.3120 C   0  0  0  0  0  0  0  0  0  0  0  0
  182.8500  179.1730  143.5760 N   0  0  0  0  0  0  0  0  0  0  0  0
  183.9590  178.8390  143.9100 C   0  0  0  0  0  0  0  0  0  0  0  0
  192.2720  177.2230  139.9450 C   0  0  0  0  0  2  0  0  0  0  0  0
  192.6210  176.9260  138.4960 C   0  0  0  0  0  2  0  0  0  0  0  0
  193.8620  176.1190  138.5360 N   0  0  0  0  0  2  0  0  0  0  0  0
  193.6560  174.8930  137.7470 C   0  0  0  0  0  1  0  0  0  0  0  0
  189.5950  176.9080  146.5200 C   0  0  0  0  0  2  0  0  0  0  0  0
  191.0890  177.1970  146.5990 C   0  0  0  0  0  2  0  0  0  0  0  0
  192.7350  176.1630  148.2850 O   0  0  0  0  0  1  0  0  0  0  0  0
  192.3550  175.0420  146.2860 O   0  0  0  0  0  0  0  0  0  0  0  0
  192.0460  176.0430  147.0200 C   0  0  0  0  0  0  0  0  0  0  0  0
  2 22  1  0  0  0  0
  4  2  2  0  0  0  0
  5 11  1  0  0  0  0
  6  4  1  0  0  0  0
  7 10  1  0  0  0  0
  8  9  1  0  0  0  0
  8  7  2  0  0  0  0
  9  3  2  0  0  0  0
 10  6  2  0  0  0  0
 11  2  1  0  0  0  0
 11  1  2  0  0  0  0
 12  5  2  0  0  0  0
 12 15  1  0  0  0  0
 13  1  1  0  0  0  0
 14  3  1  6  0  0  0
 14  6  1  0  0  0  0
 14  5  1  0  0  0  0
 15 13  2  0  0  0  0
 16 17  3  0  0  0  0
 17 15  1  0  0  0  0
 18  7  1  0  0  0  0
 19 20  1  0  0  0  0
 19 18  1  0  0  0  0
 21 20  1  0  0  0  0
 22 23  1  0  0  0  0
 23 26  1  0  0  0  0
 25 26  2  0  0  0  0
 26 24  1  0  0  0  0
M  END
>  <MODEL>
5

>  <REMARK>
 VINA RESULT:      -7.6      3.634      7.825
  Name = 
  7 active torsions:
  status: ('A' for Active; 'I' for Inactive)
    1  A    between atoms: C_1  and  C_11
    2  A    between atoms: C_1  and  C_13
    3  A    between atoms: C_3  and  C_17
    4  A    between atoms: C_3  and  C_24
    5  A    between atoms: C_5  and  C_26
    6  A    between atoms: C_6  and  C_17
    7  A    between atoms: N_9  and  C_11
                            x       y       z     vdW  Elec       q    Type
                         _______ _______ _______ _____ _____    ______ ____

>  <TORSDO>
F 7

$$$$
=
 OpenBabel10232410023D

 26 28  0  0  1  0  0  0  0  0999 V2000
  185.2890  178.3750  145.0170 C   0  0  0  0  0  3  0  0  0  0  0  0
  185.7330  178.6200  142.6150 C   0  0  0  0  0  0  0  0  0  0  0  0
  189.9860  177.7530  143.5910 C   0  0  0  0  0  3  0  0  0  0  0  0
  186.5410  178.3860  141.5560 N   0  0  0  0  0  0  0  0  0  0  0  0
  187.5030  177.9910  144.2530 C   0  0  0  0  0  0  0  0  0  0  0  0
  187.9610  178.1260  141.7290 C   0  0  0  0  0  0  0  0  0  0  0  0
  190.0790  177.2980  140.4550 C   0  0  0  0  0  0  0  0  0  0  0  0
  190.9560  176.9050  141.3980 C   0  0  0  0  0  3  0  0  0  0  0  0
  191.0020  177.2560  142.8620 C   0  0  0  0  0  3  0  0  0  0  0  0
  188.6270  177.7420  140.6280 C   0  0  0  0  0  3  0  0  0  0  0  0
  186.1840  178.2210  143.9460 C   0  0  0  0  0  0  0  0  0  0  0  0
  187.9120  177.9690  145.5420 N   0  0  0  0  0  0  0  0  0  0  0  0
  185.7000  178.2820  146.3710 C   0  0  0  0  0  3  0  0  0  0  0  0
  188.5050  177.7710  143.1260 C   0  0  1  0  0  3  0  0  0  0  0  0
  187.0660  178.0730  146.6080 C   0  0  0  0  0  0  0  0  0  0  0  0
  188.1570  177.9370  149.0020 N   0  0  0  0  0  0  0  0  0  0  0  0
  187.6620  177.9960  147.9060 C   0  0  0  0  0  0  0  0  0  0  0  0
  190.2240  176.9220  138.9770 C   0  0  0  0  0  2  0  0  0  0  0  0
  188.9850  176.9230  138.0970 C   0  0  0  0  0  2  0  0  0  0  0  0
  188.9950  175.6270  137.3810 N   0  0  0  0  0  2  0  0  0  0  0  0
  190.3650  175.0880  137.3950 C   0  0  0  0  0  1  0  0  0  0  0  0
  184.2570  178.6910  142.4070 C   0  0  0  0  0  2  0  0  0  0  0  0
  183.9120  178.1520  141.0240 C   0  0  0  0  0  2  0  0  0  0  0  0
  184.4840  179.9150  139.2380 O   0  0  0  0  0  0  0  0  0  0  0  0
  182.2450  179.4570  139.6590 O   0  0  0  0  0  1  0  0  0  0  0  0
  183.4600  179.1620  139.9270 C   0  0  0  0  0  0  0  0  0  0  0  0
  1 13  1  0  0  0  0
  2 11  1  0  0  0  0
  4  6  1  0  0  0  0
  4  2  2  0  0  0  0
  5 12  2  0  0  0  0
  6 14  1  0  0  0  0
  7 10  1  0  0  0  0
  7  8  2  0  0  0  0
  8  9  1  0  0  0  0
  9  3  2  0  0  0  0
 10  6  2  0  0  0  0
 11  5  1  0  0  0  0
 11  1  2  0  0  0  0
 12 15  1  0  0  0  0
 13 15  2  0  0  0  0
 14  3  1  1  0  0  0
 14  5  1  0  0  0  0
 15 17  1  0  0  0  0
 17 16  3  0  0  0  0
 18  7  1  0  0  0  0
 19 18  1  0  0  0  0
 20 21  1  0  0  0  0
 20 19  1  0  0  0  0
 22  2  1  0  0  0  0
 23 22  1  0  0  0  0
 24 26  2  0  0  0  0
 25 26  1  0  0  0  0
 26 23  1  0  0  0  0
M  END
>  <MODEL>
6

>  <REMARK>
 VINA RESULT:      -7.6      2.547      5.905
  Name = 
  7 active torsions:
  status: ('A' for Active; 'I' for Inactive)
    1  A    between atoms: C_1  and  C_11
    2  A    between atoms: C_1  and  C_13
    3  A    between atoms: C_3  and  C_17
    4  A    between atoms: C_3  and  C_24
    5  A    between atoms: C_5  and  C_26
    6  A    between atoms: C_6  and  C_17
    7  A    between atoms: N_9  and  C_11
                            x       y       z     vdW  Elec       q    Type
                         _______ _______ _______ _____ _____    ______ ____

>  <TORSDO>
F 7

$$$$
=
 OpenBabel10232410023D

 26 28  0  0  0  0  0  0  0  0999 V2000
  185.8650  178.5300  140.2650 C   0  0  0  0  0  3  0  0  0  0  0  0
  188.0720  178.5230  141.3420 C   0  0  0  0  0  0  0  0  0  0  0  0
  185.8810  178.2820  145.2070 C   0  0  0  0  0  3  0  0  0  0  0  0
  188.8300  178.2540  142.4300 N   0  0  0  0  0  2  0  0  0  0  0  0
  185.9460  178.3120  142.6270 C   0  0  0  0  0  0  0  0  0  0  0  0
  188.2480  178.1840  143.7600 C   0  0  0  0  0  0  0  0  0  0  0  0
  188.7730  177.4540  146.2070 C   0  0  0  0  0  0  0  0  0  0  0  0
  187.5820  177.2860  146.8130 C   0  0  0  0  0  3  0  0  0  0  0  0
  186.2290  177.8200  146.4210 C   0  0  0  0  0  3  0  0  0  0  0  0
  189.0610  177.7450  144.7350 C   0  0  0  0  0  3  0  0  0  0  0  0
  186.6240  178.3480  141.4320 C   0  0  0  0  0  0  0  0  0  0  0  0
  184.6070  178.4980  142.6600 N   0  0  0  0  0  0  0  0  0  0  0  0
  184.4530  178.6540  140.2870 C   0  0  0  0  0  3  0  0  0  0  0  0
  186.7190  178.0710  143.9170 C   0  0  0  0  0  0  0  0  0  0  0  0
  183.8330  178.6360  141.5440 C   0  0  0  0  0  0  0  0  0  0  0  0
  181.2450  178.9270  141.9420 N   0  0  0  0  0  0  0  0  0  0  0  0
  182.4280  178.7900  141.7570 C   0  0  0  0  0  0  0  0  0  0  0  0
  190.0840  176.9160  146.7880 C   0  0  0  0  0  2  0  0  0  0  0  0
  191.2740  176.7340  145.8600 C   0  0  0  0  0  2  0  0  0  0  0  0
  192.3570  176.1690  146.6970 N   0  0  0  0  0  2  0  0  0  0  0  0
  191.7550  175.4740  147.8460 C   0  0  0  0  0  1  0  0  0  0  0  0
  188.6730  178.3970  139.9820 C   0  0  0  0  0  2  0  0  0  0  0  0
  189.6470  177.2260  139.9640 C   0  0  0  0  0  2  0  0  0  0  0  0
  190.8220  175.4220  138.5530 O   0  0  0  0  0  1  0  0  0  0  0  0
  190.1070  177.3610  137.4910 O   0  0  0  0  0  0  0  0  0  0  0  0
  190.1490  176.7010  138.5850 C   0  0  0  0  0  0  0  0  0  0  0  0
  1 13  2  0  0  0  0
  1 11  1  0  0  0  0
  2 11  2  0  0  0  0
  2  4  1  0  0  0  0
  3  9  2  0  0  0  0
  4  6  1  0  0  0  0
  5 12  1  0  0  0  0
  5 14  2  0  0  0  0
  6 14  1  0  0  0  0
  6 10  2  0  0  0  0
  7 18  1  0  0  0  0
  7  8  2  0  0  0  0
  9  8  1  0  0  0  0
 10  7  1  0  0  0  0
 11  5  1  0  0  0  0
 13 15  1  0  0  0  0
 14  3  1  0  0  0  0
 15 17  1  0  0  0  0
 15 12  2  0  0  0  0
 17 16  3  0  0  0  0
 19 20  1  0  0  0  0
 19 18  1  0  0  0  0
 20 21  1  0  0  0  0
 22  2  1  0  0  0  0
 23 22  1  0  0  0  0
 24 26  1  0  0  0  0
 25 26  2  0  0  0  0
 26 23  1  0  0  0  0
M  END
>  <MODEL>
7

>  <REMARK>
 VINA RESULT:      -7.5      1.562      6.362
  Name = 
  7 active torsions:
  status: ('A' for Active; 'I' for Inactive)
    1  A    between atoms: C_1  and  C_11
    2  A    between atoms: C_1  and  C_13
    3  A    between atoms: C_3  and  C_17
    4  A    between atoms: C_3  and  C_24
    5  A    between atoms: C_5  and  C_26
    6  A    between atoms: C_6  and  C_17
    7  A    between atoms: N_9  and  C_11
                            x       y       z     vdW  Elec       q    Type
                         _______ _______ _______ _____ _____    ______ ____

>  <TORSDO>
F 7

$$$$
=
 OpenBabel10232410023D

 26 28  0  0  0  0  0  0  0  0999 V2000
  189.9950  176.4880  143.9510 C   0  0  0  0  0  3  0  0  0  0  0  0
  188.1340  177.3320  145.3140 C   0  0  0  0  0  0  0  0  0  0  0  0
  186.2560  178.5880  141.4810 C   0  0  0  0  0  3  0  0  0  0  0  0
  186.8430  177.7250  145.3960 N   0  0  0  0  0  2  0  0  0  0  0  0
  188.1250  177.4170  142.8230 C   0  0  0  0  0  0  0  0  0  0  0  0
  186.1190  178.1960  144.2270 C   0  0  0  0  0  0  0  0  0  0  0  0
  183.7250  178.7880  143.3800 C   0  0  0  0  0  0  0  0  0  0  0  0
  183.7790  178.7390  142.0360 C   0  0  0  0  0  3  0  0  0  0  0  0
  184.9780  178.8080  141.1260 C   0  0  0  0  0  3  0  0  0  0  0  0
  184.8010  178.3980  144.3920 C   0  0  0  0  0  3  0  0  0  0  0  0
  188.6860  176.9950  144.0040 C   0  0  0  0  0  0  0  0  0  0  0  0
  188.8390  177.3850  141.6750 N   0  0  0  0  0  0  0  0  0  0  0  0
  190.7230  176.3850  142.7380 C   0  0  0  0  0  3  0  0  0  0  0  0
  186.6900  177.9320  142.8200 C   0  0  0  0  0  0  0  0  0  0  0  0
  190.0960  176.8600  141.5780 C   0  0  0  0  0  0  0  0  0  0  0  0
  191.2080  176.8860  139.1900 N   0  0  0  0  0  0  0  0  0  0  0  0
  190.6950  176.8750  140.2800 C   0  0  0  0  0  0  0  0  0  0  0  0
  182.4070  178.7970  144.1600 C   0  0  0  0  0  2  0  0  0  0  0  0
  181.1530  179.3090  143.4700 C   0  0  0  0  0  2  0  0  0  0  0  0
  180.2360  178.1490  143.3850 N   0  0  0  0  0  2  0  0  0  0  0  0
  179.9820  177.8480  141.9670 C   0  0  0  0  0  1  0  0  0  0  0  0
  188.7770  176.6800  146.4930 C   0  0  0  0  0  2  0  0  0  0  0  0
  189.9400  177.5360  146.9760 C   0  0  0  0  0  2  0  0  0  0  0  0
  192.0200  177.3310  148.4780 O   0  0  0  0  0  1  0  0  0  0  0  0
  191.8310  175.9050  146.6530 O   0  0  0  0  0  0  0  0  0  0  0  0
  191.2790  176.8300  147.3420 C   0  0  0  0  0  0  0  0  0  0  0  0
  1 11  1  0  0  0  0
  2  4  1  0  0  0  0
  2 22  1  0  0  0  0
  3 14  1  0  0  0  0
  5 11  1  0  0  0  0
  6 10  2  0  0  0  0
  6  4  1  0  0  0  0
  7 18  1  0  0  0  0
  7 10  1  0  0  0  0
  8  7  2  0  0  0  0
  9  3  2  0  0  0  0
  9  8  1  0  0  0  0
 11  2  2  0  0  0  0
 12  5  1  0  0  0  0
 13  1  2  0  0  0  0
 14  5  2  0  0  0  0
 14  6  1  0  0  0  0
 15 12  2  0  0  0  0
 15 13  1  0  0  0  0
 16 17  3  0  0  0  0
 17 15  1  0  0  0  0
 19 18  1  0  0  0  0
 20 19  1  0  0  0  0
 21 20  1  0  0  0  0
 22 23  1  0  0  0  0
 23 26  1  0  0  0  0
 25 26  2  0  0  0  0
 26 24  1  0  0  0  0
M  END
>  <MODEL>
8

>  <REMARK>
 VINA RESULT:      -7.5      3.282      5.059
  Name = 
  7 active torsions:
  status: ('A' for Active; 'I' for Inactive)
    1  A    between atoms: C_1  and  C_11
    2  A    between atoms: C_1  and  C_13
    3  A    between atoms: C_3  and  C_17
    4  A    between atoms: C_3  and  C_24
    5  A    between atoms: C_5  and  C_26
    6  A    between atoms: C_6  and  C_17
    7  A    between atoms: N_9  and  C_11
                            x       y       z     vdW  Elec       q    Type
                         _______ _______ _______ _____ _____    ______ ____

>  <TORSDO>
F 7

$$$$
=
 OpenBabel10232410023D

 26 28  0  0  0  0  0  0  0  0999 V2000
  190.8450  177.1000  140.5750 C   0  0  0  0  0  3  0  0  0  0  0  0
  190.4430  177.4780  142.9680 C   0  0  0  0  0  0  0  0  0  0  0  0
  186.3460  178.7590  141.7980 C   0  0  0  0  0  3  0  0  0  0  0  0
  189.5660  177.6360  143.9850 N   0  0  0  0  0  2  0  0  0  0  0  0
  188.6770  177.8000  141.2400 C   0  0  0  0  0  0  0  0  0  0  0  0
  188.2040  178.0870  143.7480 C   0  0  0  0  0  0  0  0  0  0  0  0
  185.8820  178.3410  144.9070 C   0  0  0  0  0  0  0  0  0  0  0  0
  184.9760  178.4320  143.9150 C   0  0  0  0  0  3  0  0  0  0  0  0
  185.1790  178.7910  142.4660 C   0  0  0  0  0  3  0  0  0  0  0  0
  187.3780  178.0450  144.8060 C   0  0  0  0  0  3  0  0  0  0  0  0
  189.9290  177.3680  141.6050 C   0  0  0  0  0  0  0  0  0  0  0  0
  188.3750  178.0010  139.9370 N   0  0  0  0  0  0  0  0  0  0  0  0
  190.5110  177.2390  139.2040 C   0  0  0  0  0  3  0  0  0  0  0  0
  187.6320  178.0610  142.3180 C   0  0  0  0  0  0  0  0  0  0  0  0
  189.2250  177.7110  138.9080 C   0  0  0  0  0  0  0  0  0  0  0  0
  188.3230  178.1630  136.4750 N   0  0  0  0  0  0  0  0  0  0  0  0
  188.7330  177.9520  137.5870 C   0  0  0  0  0  0  0  0  0  0  0  0
  185.4980  178.0500  146.3600 C   0  0  0  0  0  2  0  0  0  0  0  0
  186.3540  178.6330  147.4730 C   0  0  0  0  0  2  0  0  0  0  0  0
  187.3720  177.6030  147.7830 N   0  0  0  0  0  2  0  0  0  0  0  0
  188.4150  178.2060  148.6280 C   0  0  0  0  0  1  0  0  0  0  0  0
  191.7630  176.8350  143.2340 C   0  0  0  0  0  2  0  0  0  0  0  0
  191.6010  175.7660  144.3070 C   0  0  0  0  0  2  0  0  0  0  0  0
  192.3390  175.0440  146.6640 O   0  0  0  0  0  1  0  0  0  0  0  0
  191.8970  177.2940  146.2870 O   0  0  0  0  0  0  0  0  0  0  0  0
  191.9800  176.1250  145.7750 C   0  0  0  0  0  0  0  0  0  0  0  0
  1 11  1  0  0  0  0
  2 22  1  0  0  0  0
  2  4  1  0  0  0  0
  3 14  1  0  0  0  0
  3  9  2  0  0  0  0
  5 11  1  0  0  0  0
  5 14  2  0  0  0  0
  6  4  1  0  0  0  0
  6 10  2  0  0  0  0
  7 18  1  0  0  0  0
  8  7  2  0  0  0  0
  9  8  1  0  0  0  0
 10  7  1  0  0  0  0
 11  2  2  0  0  0  0
 12  5  1  0  0  0  0
 13  1  2  0  0  0  0
 14  6  1  0  0  0  0
 15 13  1  0  0  0  0
 15 12  2  0  0  0  0
 16 17  3  0  0  0  0
 17 15  1  0  0  0  0
 18 19  1  0  0  0  0
 19 20  1  0  0  0  0
 20 21  1  0  0  0  0
 22 23  1  0  0  0  0
 23 26  1  0  0  0  0
 26 25  2  0  0  0  0
 26 24  1  0  0  0  0
M  END
>  <MODEL>
9

>  <REMARK>
 VINA RESULT:      -7.4      3.380      6.027
  Name = 
  7 active torsions:
  status: ('A' for Active; 'I' for Inactive)
    1  A    between atoms: C_1  and  C_11
    2  A    between atoms: C_1  and  C_13
    3  A    between atoms: C_3  and  C_17
    4  A    between atoms: C_3  and  C_24
    5  A    between atoms: C_5  and  C_26
    6  A    between atoms: C_6  and  C_17
    7  A    between atoms: N_9  and  C_11
                            x       y       z     vdW  Elec       q    Type
                         _______ _______ _______ _____ _____    ______ ____

>  <TORSDO>
F 7

$$$$
