=
 OpenBabel10232409073D

 28 30  0  0  1  0  0  0  0  0999 V2000
  187.2990  177.7950  144.5750 C   0  0  1  0  0  3  0  0  0  0  0  0
  185.0980  178.3930  143.4660 C   0  0  0  0  0  0  0  0  0  0  0  0
  183.0090  178.9910  142.4400 N   0  0  0  0  0  0  0  0  0  0  0  0
  183.9050  178.7190  145.9430 N   0  0  0  0  0  0  0  0  0  0  0  0
  183.7440  178.7740  143.5640 C   0  0  0  0  0  0  0  0  0  0  0  0
  185.2130  178.3520  145.8770 C   0  0  0  0  0  3  0  0  0  0  0  0
  184.8850  178.4750  141.0540 C   0  0  0  0  0  3  0  0  0  0  0  0
  183.1650  178.9310  144.8230 C   0  0  0  0  0  3  0  0  0  0  0  0
  182.7480  179.0830  140.0480 N   0  0  0  0  0  1  0  0  0  0  0  0
  183.5480  178.8500  141.2000 C   0  0  0  0  0  0  0  0  0  0  0  0
  185.8440  178.1730  144.6380 C   0  0  0  0  0  0  0  0  0  0  0  0
  185.6610  178.2480  142.1910 C   0  0  0  0  0  3  0  0  0  0  0  0
  187.3090  178.4160  147.0260 C   0  0  0  0  0  3  0  0  0  0  0  0
  187.9380  178.4390  148.2740 C   0  0  0  0  0  3  0  0  0  0  0  0
  189.8370  177.2600  147.3380 C   0  0  0  0  0  0  0  0  0  0  0  0
  187.9420  177.8150  145.9270 C   0  0  0  0  0  0  0  0  0  0  0  0
  189.2020  177.8630  148.4290 C   0  0  0  0  0  3  0  0  0  0  0  0
  189.2090  177.2440  146.0880 C   0  0  0  0  0  3  0  0  0  0  0  0
  191.9240  176.7650  146.2480 N   0  0  0  0  0  1  0  0  0  0  0  0
  191.1910  176.6670  147.4990 C   0  0  0  0  0  2  0  0  0  0  0  0
  187.4860  176.5030  143.9240 N   0  0  0  0  0  2  0  0  0  0  0  0
  188.4090  176.6980  142.8150 C   0  0  0  0  0  2  0  0  0  0  0  0
  189.5940  175.7480  142.9340 C   0  0  0  0  0  2  0  0  0  0  0  0
  190.8440  176.4890  142.8920 N   0  0  0  0  0  2  0  0  0  0  0  0
  190.6670  177.5800  141.9470 C   0  0  0  0  0  2  0  0  0  0  0  0
  191.4770  177.3120  140.6930 C   0  0  0  0  0  2  0  0  0  0  0  0
  189.7210  177.7790  139.4410 C   0  0  0  0  0  1  0  0  0  0  0  0
  190.6540  176.7770  139.7010 O   0  0  0  0  0  0  0  0  0  0  0  0
  1 21  1  1  0  0  0
  1 11  1  0  0  0  0
  1 16  1  0  0  0  0
  2  5  2  0  0  0  0
  2 11  1  0  0  0  0
  3  5  1  0  0  0  0
  5  8  1  0  0  0  0
  6  4  1  0  0  0  0
  7 10  1  0  0  0  0
  7 12  2  0  0  0  0
  8  4  2  0  0  0  0
  9 10  1  0  0  0  0
 10  3  2  0  0  0  0
 11  6  2  0  0  0  0
 12  2  1  0  0  0  0
 13 14  1  0  0  0  0
 14 17  2  0  0  0  0
 15 20  1  0  0  0  0
 15 17  1  0  0  0  0
 16 18  1  0  0  0  0
 16 13  2  0  0  0  0
 18 15  2  0  0  0  0
 19 20  1  0  0  0  0
 22 23  1  0  0  0  0
 22 21  1  0  0  0  0
 24 23  1  0  0  0  0
 25 24  1  0  0  0  0
 26 25  1  0  0  0  0
 27 28  1  0  0  0  0
 28 26  1  0  0  0  0
M  END
>  <MODEL>
1

>  <REMARK>
 VINA RESULT:      -8.2      0.000      0.000
  Name = 
  10 active torsions:
  status: ('A' for Active; 'I' for Inactive)
    1  A    between atoms: C_5  and  N_8
    2  A    between atoms: C_5  and  C_19
    3  A    between atoms: C_6  and  N_8
    4  A    between atoms: C_6  and  C_25
    5  A    between atoms: C_11  and  C_16
    6  A    between atoms: C_11  and  C_23
    7  A    between atoms: C_11  and  N_24
    8  A    between atoms: C_14  and  C_27
    9  A    between atoms: C_19  and  N_24
   10  A    between atoms: O_20  and  C_25
                            x       y       z     vdW  Elec       q    Type
                         _______ _______ _______ _____ _____    ______ ____

>  <TORSDO>
F 10

$$$$
=
 OpenBabel10232409073D

 28 30  0  0  1  0  0  0  0  0999 V2000
  188.0460  177.3610  143.5800 C   0  0  1  0  0  3  0  0  0  0  0  0
  189.3570  177.1630  145.7430 C   0  0  0  0  0  0  0  0  0  0  0  0
  190.5670  176.9600  147.8090 N   0  0  0  0  0  0  0  0  0  0  0  0
  187.2150  178.1860  147.1680 N   0  0  0  0  0  0  0  0  0  0  0  0
  189.4370  177.3180  147.1420 C   0  0  0  0  0  0  0  0  0  0  0  0
  187.1110  178.0470  145.8190 C   0  0  0  0  0  3  0  0  0  0  0  0
  191.6120  176.2760  145.7710 C   0  0  0  0  0  3  0  0  0  0  0  0
  188.3450  177.8360  147.8380 C   0  0  0  0  0  3  0  0  0  0  0  0
  192.8100  176.0870  147.8870 N   0  0  0  0  0  1  0  0  0  0  0  0
  191.6450  176.4480  147.1570 C   0  0  0  0  0  0  0  0  0  0  0  0
  188.1810  177.5380  145.0680 C   0  0  0  0  0  0  0  0  0  0  0  0
  190.4630  176.6340  145.0640 C   0  0  0  0  0  3  0  0  0  0  0  0
  186.7100  178.4970  141.7580 C   0  0  0  0  0  3  0  0  0  0  0  0
  185.5240  179.0760  141.3000 C   0  0  0  0  0  3  0  0  0  0  0  0
  184.4680  178.5990  143.4270 C   0  0  0  0  0  0  0  0  0  0  0  0
  186.7810  177.9670  143.0560 C   0  0  0  0  0  0  0  0  0  0  0  0
  184.4040  179.1290  142.1340 C   0  0  0  0  0  3  0  0  0  0  0  0
  185.6580  178.0270  143.8890 C   0  0  0  0  0  3  0  0  0  0  0  0
  183.7050  179.0220  145.6690 N   0  0  0  0  0  1  0  0  0  0  0  0
  183.2830  178.6760  144.3230 C   0  0  0  0  0  2  0  0  0  0  0  0
  189.2100  177.8850  142.8740 N   0  0  0  0  0  2  0  0  0  0  0  0
  189.5590  176.9300  141.8320 C   0  0  0  0  0  2  0  0  0  0  0  0
  190.8850  177.3080  141.1840 C   0  0  0  0  0  2  0  0  0  0  0  0
  190.8980  176.9080  139.7860 N   0  0  0  0  0  2  0  0  0  0  0  0
  189.5300  176.9940  139.3000 C   0  0  0  0  0  2  0  0  0  0  0  0
  189.3700  178.2220  138.4230 C   0  0  0  0  0  2  0  0  0  0  0  0
  187.2530  177.9370  137.8740 C   0  0  0  0  0  1  0  0  0  0  0  0
  188.1000  178.7710  138.6010 O   0  0  0  0  0  0  0  0  0  0  0  0
  1 21  1  6  0  0  0
  1 11  1  0  0  0  0
  2  5  1  0  0  0  0
  4  8  2  0  0  0  0
  5  3  2  0  0  0  0
  5  8  1  0  0  0  0
  6  4  1  0  0  0  0
  7 10  2  0  0  0  0
 10  3  1  0  0  0  0
 10  9  1  0  0  0  0
 11  2  1  0  0  0  0
 11  6  2  0  0  0  0
 12  2  2  0  0  0  0
 12  7  1  0  0  0  0
 13 16  1  0  0  0  0
 14 13  2  0  0  0  0
 14 17  1  0  0  0  0
 15 18  1  0  0  0  0
 15 20  1  0  0  0  0
 16  1  1  0  0  0  0
 16 18  2  0  0  0  0
 17 15  2  0  0  0  0
 20 19  1  0  0  0  0
 22 21  1  0  0  0  0
 23 22  1  0  0  0  0
 24 23  1  0  0  0  0
 25 24  1  0  0  0  0
 26 28  1  0  0  0  0
 26 25  1  0  0  0  0
 27 28  1  0  0  0  0
M  END
>  <MODEL>
2

>  <REMARK>
 VINA RESULT:      -8.1      1.804      6.105
  Name = 
  10 active torsions:
  status: ('A' for Active; 'I' for Inactive)
    1  A    between atoms: C_5  and  N_8
    2  A    between atoms: C_5  and  C_19
    3  A    between atoms: C_6  and  N_8
    4  A    between atoms: C_6  and  C_25
    5  A    between atoms: C_11  and  C_16
    6  A    between atoms: C_11  and  C_23
    7  A    between atoms: C_11  and  N_24
    8  A    between atoms: C_14  and  C_27
    9  A    between atoms: C_19  and  N_24
   10  A    between atoms: O_20  and  C_25
                            x       y       z     vdW  Elec       q    Type
                         _______ _______ _______ _____ _____    ______ ____

>  <TORSDO>
F 10

$$$$
=
 OpenBabel10232409073D

 28 30  0  0  1  0  0  0  0  0999 V2000
  187.3620  177.5240  144.1000 C   0  0  1  0  0  3  0  0  0  0  0  0
  189.0030  177.3040  146.0230 C   0  0  0  0  0  0  0  0  0  0  0  0
  190.5280  177.0810  147.8660 N   0  0  0  0  0  0  0  0  0  0  0  0
  187.1410  178.3730  147.7710 N   0  0  0  0  0  0  0  0  0  0  0  0
  189.3120  177.4600  147.3900 C   0  0  0  0  0  0  0  0  0  0  0  0
  186.8170  178.2330  146.4580 C   0  0  0  0  0  3  0  0  0  0  0  0
  191.2140  176.3720  145.6900 C   0  0  0  0  0  3  0  0  0  0  0  0
  188.3580  178.0010  148.2510 C   0  0  0  0  0  3  0  0  0  0  0  0
  192.7370  176.1640  147.5840 N   0  0  0  0  0  1  0  0  0  0  0  0
  191.4760  176.5460  147.0510 C   0  0  0  0  0  0  0  0  0  0  0  0
  187.7400  177.7010  145.5460 C   0  0  0  0  0  0  0  0  0  0  0  0
  189.9730  176.7520  145.1770 C   0  0  0  0  0  3  0  0  0  0  0  0
  185.0900  178.3360  144.8550 C   0  0  0  0  0  3  0  0  0  0  0  0
  183.8010  178.7910  144.5620 C   0  0  0  0  0  3  0  0  0  0  0  0
  184.2870  178.6460  142.1930 C   0  0  0  0  0  0  0  0  0  0  0  0
  185.9830  178.0330  143.8160 C   0  0  0  0  0  0  0  0  0  0  0  0
  183.3990  178.9440  143.2320 C   0  0  0  0  0  3  0  0  0  0  0  0
  185.5740  178.1840  142.4860 C   0  0  0  0  0  3  0  0  0  0  0  0
  184.8410  179.5460  140.0320 N   0  0  0  0  0  1  0  0  0  0  0  0
  183.8510  178.7890  140.7780 C   0  0  0  0  0  2  0  0  0  0  0  0
  188.3430  178.1410  143.2150 N   0  0  0  0  0  2  0  0  0  0  0  0
  188.6620  177.1760  142.1720 C   0  0  0  0  0  2  0  0  0  0  0  0
  189.6980  177.7500  141.2130 C   0  0  0  0  0  2  0  0  0  0  0  0
  190.0790  176.7550  140.2240 N   0  0  0  0  0  2  0  0  0  0  0  0
  189.2570  176.9820  139.0460 C   0  0  0  0  0  2  0  0  0  0  0  0
  189.2480  178.4590  138.7000 C   0  0  0  0  0  2  0  0  0  0  0  0
  187.3100  177.6590  138.0150 C   0  0  0  0  0  1  0  0  0  0  0  0
  187.9630  178.8510  138.3240 O   0  0  0  0  0  0  0  0  0  0  0  0
  1 21  1  6  0  0  0
  1 11  1  0  0  0  0
  2  5  1  0  0  0  0
  4  8  1  0  0  0  0
  5  3  1  0  0  0  0
  5  8  2  0  0  0  0
  6  4  2  0  0  0  0
  7 10  1  0  0  0  0
 10  9  1  0  0  0  0
 10  3  2  0  0  0  0
 11  2  2  0  0  0  0
 11  6  1  0  0  0  0
 12  7  2  0  0  0  0
 12  2  1  0  0  0  0
 14 13  1  0  0  0  0
 15 18  2  0  0  0  0
 15 17  1  0  0  0  0
 16  1  1  0  0  0  0
 16 13  2  0  0  0  0
 17 14  2  0  0  0  0
 18 16  1  0  0  0  0
 19 20  1  0  0  0  0
 20 15  1  0  0  0  0
 22 21  1  0  0  0  0
 23 22  1  0  0  0  0
 24 23  1  0  0  0  0
 25 24  1  0  0  0  0
 26 25  1  0  0  0  0
 27 28  1  0  0  0  0
 28 26  1  0  0  0  0
M  END
>  <MODEL>
3

>  <REMARK>
 VINA RESULT:      -8.0      1.633      6.105
  Name = 
  10 active torsions:
  status: ('A' for Active; 'I' for Inactive)
    1  A    between atoms: C_5  and  N_8
    2  A    between atoms: C_5  and  C_19
    3  A    between atoms: C_6  and  N_8
    4  A    between atoms: C_6  and  C_25
    5  A    between atoms: C_11  and  C_16
    6  A    between atoms: C_11  and  C_23
    7  A    between atoms: C_11  and  N_24
    8  A    between atoms: C_14  and  C_27
    9  A    between atoms: C_19  and  N_24
   10  A    between atoms: O_20  and  C_25
                            x       y       z     vdW  Elec       q    Type
                         _______ _______ _______ _____ _____    ______ ____

>  <TORSDO>
F 10

$$$$
=
 OpenBabel10232409073D

 28 30  0  0  1  0  0  0  0  0999 V2000
  186.7440  177.6620  144.1740 C   0  0  1  0  0  3  0  0  0  0  0  0
  184.6340  178.4820  143.0290 C   0  0  0  0  0  0  0  0  0  0  0  0
  182.6430  179.2340  141.9130 N   0  0  0  0  0  0  0  0  0  0  0  0
  186.0120  178.7890  140.6470 N   0  0  0  0  0  0  0  0  0  0  0  0
  183.9700  178.9420  141.8720 C   0  0  0  0  0  0  0  0  0  0  0  0
  186.6760  178.3430  141.7470 C   0  0  0  0  0  3  0  0  0  0  0  0
  182.5330  178.6420  144.2260 C   0  0  0  0  0  3  0  0  0  0  0  0
  184.6860  179.0890  140.6840 C   0  0  0  0  0  3  0  0  0  0  0  0
  180.5340  179.4140  143.0610 N   0  0  0  0  0  1  0  0  0  0  0  0
  181.9190  179.0950  143.0560 C   0  0  0  0  0  0  0  0  0  0  0  0
  186.0070  178.1830  142.9690 C   0  0  0  0  0  0  0  0  0  0  0  0
  183.8950  178.3340  144.2090 C   0  0  0  0  0  3  0  0  0  0  0  0
  188.3950  175.9640  143.2880 C   0  0  0  0  0  3  0  0  0  0  0  0
  189.7060  175.5770  142.9990 C   0  0  0  0  0  3  0  0  0  0  0  0
  190.5140  177.7170  143.7990 C   0  0  0  0  0  0  0  0  0  0  0  0
  188.1370  177.2310  143.8350 C   0  0  0  0  0  0  0  0  0  0  0  0
  190.7660  176.4530  143.2560 C   0  0  0  0  0  3  0  0  0  0  0  0
  189.2020  178.1010  144.0950 C   0  0  0  0  0  3  0  0  0  0  0  0
  191.1640  180.0100  144.1230 N   0  0  0  0  0  1  0  0  0  0  0  0
  191.6440  178.6390  144.0920 C   0  0  0  0  0  2  0  0  0  0  0  0
  186.7450  178.6360  145.2590 N   0  0  0  0  0  2  0  0  0  0  0  0
  186.6110  177.9020  146.5100 C   0  0  0  0  0  2  0  0  0  0  0  0
  187.7350  178.2730  147.4690 C   0  0  0  0  0  2  0  0  0  0  0  0
  188.1310  177.1170  148.2570 N   0  0  0  0  0  2  0  0  0  0  0  0
  189.1670  176.4210  147.5120 C   0  0  0  0  0  2  0  0  0  0  0  0
  190.4180  177.2770  147.4450 C   0  0  0  0  0  2  0  0  0  0  0  0
  192.0620  176.0150  146.6900 C   0  0  0  0  0  1  0  0  0  0  0  0
  191.5240  176.5370  147.8650 O   0  0  0  0  0  0  0  0  0  0  0  0
  1 21  1  1  0  0  0
  2 12  2  0  0  0  0
  3 10  1  0  0  0  0
  4  8  2  0  0  0  0
  4  6  1  0  0  0  0
  5  3  2  0  0  0  0
  5  2  1  0  0  0  0
  6 11  2  0  0  0  0
  8  5  1  0  0  0  0
 10  9  1  0  0  0  0
 10  7  2  0  0  0  0
 11  2  1  0  0  0  0
 11  1  1  0  0  0  0
 12  7  1  0  0  0  0
 13 16  1  0  0  0  0
 14 17  1  0  0  0  0
 14 13  2  0  0  0  0
 15 20  1  0  0  0  0
 15 18  1  0  0  0  0
 16 18  2  0  0  0  0
 16  1  1  0  0  0  0
 17 15  2  0  0  0  0
 20 19  1  0  0  0  0
 21 22  1  0  0  0  0
 22 23  1  0  0  0  0
 23 24  1  0  0  0  0
 25 24  1  0  0  0  0
 26 25  1  0  0  0  0
 26 28  1  0  0  0  0
 27 28  1  0  0  0  0
M  END
>  <MODEL>
4

>  <REMARK>
 VINA RESULT:      -8.0      2.399      4.507
  Name = 
  10 active torsions:
  status: ('A' for Active; 'I' for Inactive)
    1  A    between atoms: C_5  and  N_8
    2  A    between atoms: C_5  and  C_19
    3  A    between atoms: C_6  and  N_8
    4  A    between atoms: C_6  and  C_25
    5  A    between atoms: C_11  and  C_16
    6  A    between atoms: C_11  and  C_23
    7  A    between atoms: C_11  and  N_24
    8  A    between atoms: C_14  and  C_27
    9  A    between atoms: C_19  and  N_24
   10  A    between atoms: O_20  and  C_25
                            x       y       z     vdW  Elec       q    Type
                         _______ _______ _______ _____ _____    ______ ____

>  <TORSDO>
F 10

$$$$
=
 OpenBabel10232409073D

 28 30  0  0  1  0  0  0  0  0999 V2000
  185.1510  178.2590  142.6310 C   0  0  1  0  0  3  0  0  0  0  0  0
  186.3400  177.9590  144.8520 C   0  0  0  0  0  0  0  0  0  0  0  0
  187.4340  177.6570  146.9710 N   0  0  0  0  0  0  0  0  0  0  0  0
  184.0970  178.8530  146.2060 N   0  0  0  0  0  0  0  0  0  0  0  0
  186.3360  178.0320  146.2610 C   0  0  0  0  0  0  0  0  0  0  0  0
  184.0740  178.7920  144.8480 C   0  0  0  0  0  3  0  0  0  0  0  0
  188.6090  177.1160  144.9620 C   0  0  0  0  0  3  0  0  0  0  0  0
  185.1940  178.4860  146.9200 C   0  0  0  0  0  3  0  0  0  0  0  0
  189.6880  176.8260  147.1300 N   0  0  0  0  0  1  0  0  0  0  0  0
  188.5590  177.2060  146.3550 C   0  0  0  0  0  0  0  0  0  0  0  0
  185.1960  178.3490  144.1330 C   0  0  0  0  0  0  0  0  0  0  0  0
  187.4950  177.4930  144.2100 C   0  0  0  0  0  3  0  0  0  0  0  0
  183.4330  177.6460  140.8810 C   0  0  0  0  0  3  0  0  0  0  0  0
  182.1170  177.6590  140.4090 C   0  0  0  0  0  3  0  0  0  0  0  0
  181.4170  178.8580  142.3950 C   0  0  0  0  0  0  0  0  0  0  0  0
  183.7470  178.2400  142.1130 C   0  0  0  0  0  0  0  0  0  0  0  0
  181.1100  178.2670  141.1650 C   0  0  0  0  0  3  0  0  0  0  0  0
  182.7350  178.8510  142.8630 C   0  0  0  0  0  3  0  0  0  0  0  0
  179.9820  180.7810  142.5600 N   0  0  0  0  0  1  0  0  0  0  0  0
  180.3490  179.5230  143.1880 C   0  0  0  0  0  2  0  0  0  0  0  0
  185.9260  179.3270  142.0100 N   0  0  0  0  0  2  0  0  0  0  0  0
  186.4170  178.8290  140.7330 C   0  0  0  0  0  2  0  0  0  0  0  0
  187.8920  178.4620  140.8350 C   0  0  0  0  0  2  0  0  0  0  0  0
  188.5720  178.7440  139.5810 N   0  0  0  0  0  2  0  0  0  0  0  0
  189.2230  177.5150  139.1580 C   0  0  0  0  0  2  0  0  0  0  0  0
  190.5880  177.4040  139.8100 C   0  0  0  0  0  2  0  0  0  0  0  0
  190.8230  176.8210  141.9250 C   0  0  0  0  0  1  0  0  0  0  0  0
  190.6240  176.2910  140.6510 O   0  0  0  0  0  0  0  0  0  0  0  0
  1 21  1  6  0  0  0
  1 11  1  0  0  0  0
  2  5  1  0  0  0  0
  4  8  2  0  0  0  0
  5  8  1  0  0  0  0
  5  3  2  0  0  0  0
  6  4  1  0  0  0  0
  7 10  2  0  0  0  0
 10  3  1  0  0  0  0
 10  9  1  0  0  0  0
 11  6  2  0  0  0  0
 11  2  1  0  0  0  0
 12  2  2  0  0  0  0
 12  7  1  0  0  0  0
 13 16  1  0  0  0  0
 14 13  2  0  0  0  0
 14 17  1  0  0  0  0
 15 18  1  0  0  0  0
 15 20  1  0  0  0  0
 16  1  1  0  0  0  0
 16 18  2  0  0  0  0
 17 15  2  0  0  0  0
 19 20  1  0  0  0  0
 22 23  1  0  0  0  0
 22 21  1  0  0  0  0
 24 23  1  0  0  0  0
 25 24  1  0  0  0  0
 25 26  1  0  0  0  0
 26 28  1  0  0  0  0
 28 27  1  0  0  0  0
M  END
>  <MODEL>
5

>  <REMARK>
 VINA RESULT:      -7.9      1.974      6.356
  Name = 
  10 active torsions:
  status: ('A' for Active; 'I' for Inactive)
    1  A    between atoms: C_5  and  N_8
    2  A    between atoms: C_5  and  C_19
    3  A    between atoms: C_6  and  N_8
    4  A    between atoms: C_6  and  C_25
    5  A    between atoms: C_11  and  C_16
    6  A    between atoms: C_11  and  C_23
    7  A    between atoms: C_11  and  N_24
    8  A    between atoms: C_14  and  C_27
    9  A    between atoms: C_19  and  N_24
   10  A    between atoms: O_20  and  C_25
                            x       y       z     vdW  Elec       q    Type
                         _______ _______ _______ _____ _____    ______ ____

>  <TORSDO>
F 10

$$$$
=
 OpenBabel10232409073D

 28 30  0  0  1  0  0  0  0  0999 V2000
  188.0350  177.9880  143.4370 C   0  0  1  0  0  3  0  0  0  0  0  0
  185.6580  178.3860  144.2290 C   0  0  0  0  0  0  0  0  0  0  0  0
  183.4200  178.7880  145.0070 N   0  0  0  0  0  0  0  0  0  0  0  0
  186.4690  178.1590  146.8670 N   0  0  0  0  0  0  0  0  0  0  0  0
  184.7270  178.5300  145.2790 C   0  0  0  0  0  0  0  0  0  0  0  0
  187.3870  178.0160  145.8740 C   0  0  0  0  0  3  0  0  0  0  0  0
  183.8570  178.7800  142.6580 C   0  0  0  0  0  3  0  0  0  0  0  0
  185.1600  178.4110  146.6000 C   0  0  0  0  0  3  0  0  0  0  0  0
  181.5970  179.1810  143.4840 N   0  0  0  0  0  1  0  0  0  0  0  0
  182.9710  178.9140  143.7300 C   0  0  0  0  0  0  0  0  0  0  0  0
  187.0070  178.1200  144.5280 C   0  0  0  0  0  0  0  0  0  0  0  0
  185.2040  178.5160  142.9110 C   0  0  0  0  0  3  0  0  0  0  0  0
  190.3010  179.0960  143.6110 C   0  0  0  0  0  3  0  0  0  0  0  0
  191.6070  179.1250  144.1090 C   0  0  0  0  0  3  0  0  0  0  0  0
  191.1860  177.0770  145.3340 C   0  0  0  0  0  0  0  0  0  0  0  0
  189.4310  178.0550  143.9730 C   0  0  0  0  0  0  0  0  0  0  0  0
  192.0500  178.1150  144.9680 C   0  0  0  0  0  3  0  0  0  0  0  0
  189.8820  177.0440  144.8290 C   0  0  0  0  0  3  0  0  0  0  0  0
  191.9820  176.5370  147.5390 N   0  0  0  0  0  1  0  0  0  0  0  0
  191.6660  175.9910  146.2300 C   0  0  0  0  0  2  0  0  0  0  0  0
  187.8300  176.7730  142.6560 N   0  0  0  0  0  2  0  0  0  0  0  0
  188.5830  176.9130  141.4180 C   0  0  0  0  0  2  0  0  0  0  0  0
  188.1700  178.1820  140.6830 C   0  0  0  0  0  2  0  0  0  0  0  0
  188.8230  178.2520  139.3860 N   0  0  0  0  0  2  0  0  0  0  0  0
  188.6640  176.9530  138.7530 C   0  0  0  0  0  2  0  0  0  0  0  0
  189.9260  176.5910  137.9930 C   0  0  0  0  0  2  0  0  0  0  0  0
  192.0530  176.1380  138.3640 C   0  0  0  0  0  1  0  0  0  0  0  0
  190.7670  175.8280  138.8040 O   0  0  0  0  0  0  0  0  0  0  0  0
  1 21  1  1  0  0  0
  1 16  1  0  0  0  0
  1 11  1  0  0  0  0
  2 11  2  0  0  0  0
  2  5  1  0  0  0  0
  3  5  1  0  0  0  0
  5  8  2  0  0  0  0
  6  4  2  0  0  0  0
  7 12  2  0  0  0  0
  7 10  1  0  0  0  0
  8  4  1  0  0  0  0
  9 10  1  0  0  0  0
 10  3  2  0  0  0  0
 11  6  1  0  0  0  0
 12  2  1  0  0  0  0
 13 16  2  0  0  0  0
 13 14  1  0  0  0  0
 14 17  2  0  0  0  0
 15 20  1  0  0  0  0
 16 18  1  0  0  0  0
 17 15  1  0  0  0  0
 18 15  2  0  0  0  0
 20 19  1  0  0  0  0
 22 21  1  0  0  0  0
 23 22  1  0  0  0  0
 24 23  1  0  0  0  0
 25 24  1  0  0  0  0
 26 25  1  0  0  0  0
 26 28  1  0  0  0  0
 27 28  1  0  0  0  0
M  END
>  <MODEL>
6

>  <REMARK>
 VINA RESULT:      -7.7      1.860      2.816
  Name = 
  10 active torsions:
  status: ('A' for Active; 'I' for Inactive)
    1  A    between atoms: C_5  and  N_8
    2  A    between atoms: C_5  and  C_19
    3  A    between atoms: C_6  and  N_8
    4  A    between atoms: C_6  and  C_25
    5  A    between atoms: C_11  and  C_16
    6  A    between atoms: C_11  and  C_23
    7  A    between atoms: C_11  and  N_24
    8  A    between atoms: C_14  and  C_27
    9  A    between atoms: C_19  and  N_24
   10  A    between atoms: O_20  and  C_25
                            x       y       z     vdW  Elec       q    Type
                         _______ _______ _______ _____ _____    ______ ____

>  <TORSDO>
F 10

$$$$
=
 OpenBabel10232409073D

 28 30  0  0  1  0  0  0  0  0999 V2000
  185.4000  178.2810  142.7340 C   0  0  1  0  0  3  0  0  0  0  0  0
  186.5930  177.9650  144.9500 C   0  0  0  0  0  0  0  0  0  0  0  0
  187.6910  177.6480  147.0640 N   0  0  0  0  0  0  0  0  0  0  0  0
  184.3370  178.8050  146.3180 N   0  0  0  0  0  0  0  0  0  0  0  0
  186.5880  178.0160  146.3600 C   0  0  0  0  0  0  0  0  0  0  0  0
  184.3140  178.7640  144.9590 C   0  0  0  0  0  3  0  0  0  0  0  0
  188.8740  177.1550  145.0470 C   0  0  0  0  0  3  0  0  0  0  0  0
  185.4390  178.4440  147.0260 C   0  0  0  0  0  3  0  0  0  0  0  0
  189.9580  176.8480  147.2110 N   0  0  0  0  0  1  0  0  0  0  0  0
  188.8230  177.2230  146.4410 C   0  0  0  0  0  0  0  0  0  0  0  0
  185.4430  178.3490  144.2370 C   0  0  0  0  0  0  0  0  0  0  0  0
  187.7550  177.5270  144.3010 C   0  0  0  0  0  3  0  0  0  0  0  0
  183.6710  177.7220  140.9750 C   0  0  0  0  0  3  0  0  0  0  0  0
  182.3570  177.7700  140.5020 C   0  0  0  0  0  3  0  0  0  0  0  0
  181.6800  178.9660  142.4960 C   0  0  0  0  0  0  0  0  0  0  0  0
  183.9960  178.2990  142.2130 C   0  0  0  0  0  0  0  0  0  0  0  0
  181.3630  178.3930  141.2610 C   0  0  0  0  0  3  0  0  0  0  0  0
  182.9970  178.9250  142.9670 C   0  0  0  0  0  3  0  0  0  0  0  0
  179.9820  180.6700  142.4860 N   0  0  0  0  0  1  0  0  0  0  0  0
  180.6260  179.6480  143.2940 C   0  0  0  0  0  2  0  0  0  0  0  0
  186.1970  179.3420  142.1300 N   0  0  0  0  0  2  0  0  0  0  0  0
  186.8660  178.7800  140.9650 C   0  0  0  0  0  2  0  0  0  0  0  0
  188.3230  178.4700  141.2830 C   0  0  0  0  0  2  0  0  0  0  0  0
  189.1080  178.4120  140.0610 N   0  0  0  0  0  2  0  0  0  0  0  0
  188.2150  177.9870  138.9950 C   0  0  0  0  0  2  0  0  0  0  0  0
  188.7560  178.4480  137.6550 C   0  0  0  0  0  2  0  0  0  0  0  0
  187.1100  178.3720  136.1880 C   0  0  0  0  0  1  0  0  0  0  0  0
  187.8120  179.2500  137.0120 O   0  0  0  0  0  0  0  0  0  0  0  0
  1 21  1  6  0  0  0
  1 11  1  0  0  0  0
  2  5  1  0  0  0  0
  4  8  2  0  0  0  0
  5  8  1  0  0  0  0
  5  3  2  0  0  0  0
  6  4  1  0  0  0  0
  7 10  2  0  0  0  0
 10  3  1  0  0  0  0
 10  9  1  0  0  0  0
 11  2  1  0  0  0  0
 11  6  2  0  0  0  0
 12  2  2  0  0  0  0
 12  7  1  0  0  0  0
 13 16  1  0  0  0  0
 14 13  2  0  0  0  0
 14 17  1  0  0  0  0
 15 18  1  0  0  0  0
 15 20  1  0  0  0  0
 16  1  1  0  0  0  0
 16 18  2  0  0  0  0
 17 15  2  0  0  0  0
 19 20  1  0  0  0  0
 22 23  1  0  0  0  0
 22 21  1  0  0  0  0
 24 23  1  0  0  0  0
 25 24  1  0  0  0  0
 26 25  1  0  0  0  0
 27 28  1  0  0  0  0
 28 26  1  0  0  0  0
M  END
>  <MODEL>
7

>  <REMARK>
 VINA RESULT:      -7.7      2.251      6.426
  Name = 
  10 active torsions:
  status: ('A' for Active; 'I' for Inactive)
    1  A    between atoms: C_5  and  N_8
    2  A    between atoms: C_5  and  C_19
    3  A    between atoms: C_6  and  N_8
    4  A    between atoms: C_6  and  C_25
    5  A    between atoms: C_11  and  C_16
    6  A    between atoms: C_11  and  C_23
    7  A    between atoms: C_11  and  N_24
    8  A    between atoms: C_14  and  C_27
    9  A    between atoms: C_19  and  N_24
   10  A    between atoms: O_20  and  C_25
                            x       y       z     vdW  Elec       q    Type
                         _______ _______ _______ _____ _____    ______ ____

>  <TORSDO>
F 10

$$$$
=
 OpenBabel10232409073D

 28 30  0  0  1  0  0  0  0  0999 V2000
  185.1140  178.3730  142.7360 C   0  0  1  0  0  3  0  0  0  0  0  0
  186.3510  178.0200  144.9230 C   0  0  0  0  0  0  0  0  0  0  0  0
  187.4910  177.6670  147.0090 N   0  0  0  0  0  0  0  0  0  0  0  0
  184.1060  178.7880  146.3500 N   0  0  0  0  0  0  0  0  0  0  0  0
  186.3690  178.0360  146.3330 C   0  0  0  0  0  0  0  0  0  0  0  0
  184.0600  178.7820  144.9900 C   0  0  0  0  0  3  0  0  0  0  0  0
  188.6460  177.2450  144.9600 C   0  0  0  0  0  3  0  0  0  0  0  0
  185.2260  178.4270  147.0290 C   0  0  0  0  0  3  0  0  0  0  0  0
  189.7720  176.9010  147.0960 N   0  0  0  0  0  1  0  0  0  0  0  0
  188.6180  177.2770  146.3560 C   0  0  0  0  0  0  0  0  0  0  0  0
  185.1820  178.4040  144.2390 C   0  0  0  0  0  0  0  0  0  0  0  0
  187.5070  177.6170  144.2430 C   0  0  0  0  0  3  0  0  0  0  0  0
  182.7170  179.1620  142.8980 C   0  0  0  0  0  3  0  0  0  0  0  0
  181.4010  179.1630  142.4250 C   0  0  0  0  0  3  0  0  0  0  0  0
  182.0420  177.6640  140.6340 C   0  0  0  0  0  0  0  0  0  0  0  0
  183.7020  178.4090  142.2390 C   0  0  0  0  0  0  0  0  0  0  0  0
  181.0640  178.4130  141.2950 C   0  0  0  0  0  3  0  0  0  0  0  0
  183.3570  177.6560  141.1110 C   0  0  0  0  0  3  0  0  0  0  0  0
  182.8460  176.1340  138.9600 N   0  0  0  0  0  1  0  0  0  0  0  0
  181.6770  176.8480  139.4450 C   0  0  0  0  0  2  0  0  0  0  0  0
  185.9060  179.4450  142.1450 N   0  0  0  0  0  2  0  0  0  0  0  0
  186.4220  178.9600  140.8730 C   0  0  0  0  0  2  0  0  0  0  0  0
  187.8780  178.5330  141.0150 C   0  0  0  0  0  2  0  0  0  0  0  0
  188.2910  177.7470  139.8640 N   0  0  0  0  0  2  0  0  0  0  0  0
  189.7030  177.4460  140.0310 C   0  0  0  0  0  2  0  0  0  0  0  0
  189.9970  177.1460  141.4890 C   0  0  0  0  0  2  0  0  0  0  0  0
  191.6140  176.9480  142.9770 C   0  0  0  0  0  1  0  0  0  0  0  0
  191.2440  177.6640  141.8390 O   0  0  0  0  0  0  0  0  0  0  0  0
  1 21  1  6  0  0  0
  1 11  1  0  0  0  0
  2  5  1  0  0  0  0
  4  8  2  0  0  0  0
  5  3  2  0  0  0  0
  5  8  1  0  0  0  0
  6  4  1  0  0  0  0
  7 10  2  0  0  0  0
 10  3  1  0  0  0  0
 10  9  1  0  0  0  0
 11  2  1  0  0  0  0
 11  6  2  0  0  0  0
 12  2  2  0  0  0  0
 12  7  1  0  0  0  0
 14 13  1  0  0  0  0
 15 18  2  0  0  0  0
 15 17  1  0  0  0  0
 16  1  1  0  0  0  0
 16 13  2  0  0  0  0
 17 14  2  0  0  0  0
 18 16  1  0  0  0  0
 19 20  1  0  0  0  0
 20 15  1  0  0  0  0
 22 23  1  0  0  0  0
 22 21  1  0  0  0  0
 24 25  1  0  0  0  0
 24 23  1  0  0  0  0
 25 26  1  0  0  0  0
 26 28  1  0  0  0  0
 28 27  1  0  0  0  0
M  END
>  <MODEL>
8

>  <REMARK>
 VINA RESULT:      -7.6      1.979      6.242
  Name = 
  10 active torsions:
  status: ('A' for Active; 'I' for Inactive)
    1  A    between atoms: C_5  and  N_8
    2  A    between atoms: C_5  and  C_19
    3  A    between atoms: C_6  and  N_8
    4  A    between atoms: C_6  and  C_25
    5  A    between atoms: C_11  and  C_16
    6  A    between atoms: C_11  and  C_23
    7  A    between atoms: C_11  and  N_24
    8  A    between atoms: C_14  and  C_27
    9  A    between atoms: C_19  and  N_24
   10  A    between atoms: O_20  and  C_25
                            x       y       z     vdW  Elec       q    Type
                         _______ _______ _______ _____ _____    ______ ____

>  <TORSDO>
F 10

$$$$
=
 OpenBabel10232409073D

 28 30  0  0  1  0  0  0  0  0999 V2000
  188.6450  177.6570  141.6040 C   0  0  1  0  0  3  0  0  0  0  0  0
  186.6330  178.2320  143.0380 C   0  0  0  0  0  0  0  0  0  0  0  0
  184.7030  178.7580  144.3700 N   0  0  0  0  0  0  0  0  0  0  0  0
  185.2500  179.0990  140.8010 N   0  0  0  0  0  0  0  0  0  0  0  0
  185.3130  178.7160  143.1550 C   0  0  0  0  0  0  0  0  0  0  0  0
  186.5210  178.6350  140.6600 C   0  0  0  0  0  3  0  0  0  0  0  0
  186.6420  177.8500  145.4300 C   0  0  0  0  0  3  0  0  0  0  0  0
  184.6380  179.1480  142.0140 C   0  0  0  0  0  3  0  0  0  0  0  0
  184.6660  178.4000  146.7510 N   0  0  0  0  0  1  0  0  0  0  0  0
  185.3350  178.3390  145.4980 C   0  0  0  0  0  0  0  0  0  0  0  0
  187.2490  178.1940  141.7740 C   0  0  0  0  0  0  0  0  0  0  0  0
  187.2900  177.7960  144.1950 C   0  0  0  0  0  3  0  0  0  0  0  0
  188.9580  178.7380  139.3390 C   0  0  0  0  0  3  0  0  0  0  0  0
  189.3270  178.6590  137.9930 C   0  0  0  0  0  3  0  0  0  0  0  0
  189.8900  176.3210  138.2840 C   0  0  0  0  0  0  0  0  0  0  0  0
  189.0530  177.6060  140.1640 C   0  0  0  0  0  0  0  0  0  0  0  0
  189.7910  177.4510  137.4650 C   0  0  0  0  0  3  0  0  0  0  0  0
  189.5140  176.3980  139.6290 C   0  0  0  0  0  3  0  0  0  0  0  0
  191.8100  174.9500  137.8130 N   0  0  0  0  0  1  0  0  0  0  0  0
  190.3630  175.0300  137.7160 C   0  0  0  0  0  2  0  0  0  0  0  0
  189.6070  178.4140  142.3960 N   0  0  0  0  0  2  0  0  0  0  0  0
  190.8310  177.6290  142.4690 C   0  0  0  0  0  2  0  0  0  0  0  0
  191.6140  177.9780  143.7280 C   0  0  0  0  0  2  0  0  0  0  0  0
  190.7890  177.7830  144.9090 N   0  0  0  0  0  2  0  0  0  0  0  0
  191.4780  176.8300  145.7640 C   0  0  0  0  0  2  0  0  0  0  0  0
  190.9420  176.9240  147.1800 C   0  0  0  0  0  2  0  0  0  0  0  0
  192.7330  175.7830  147.7770 C   0  0  0  0  0  1  0  0  0  0  0  0
  192.0000  176.9260  148.0890 O   0  0  0  0  0  0  0  0  0  0  0  0
  1 11  1  0  0  0  0
  1 21  1  1  0  0  0
  2  5  1  0  0  0  0
  2 12  2  0  0  0  0
  3 10  1  0  0  0  0
  4  8  2  0  0  0  0
  5  3  2  0  0  0  0
  6  4  1  0  0  0  0
  6 11  2  0  0  0  0
  7 10  2  0  0  0  0
  8  5  1  0  0  0  0
 10  9  1  0  0  0  0
 11  2  1  0  0  0  0
 12  7  1  0  0  0  0
 13 16  1  0  0  0  0
 14 13  2  0  0  0  0
 15 18  1  0  0  0  0
 16  1  1  0  0  0  0
 17 14  1  0  0  0  0
 17 15  2  0  0  0  0
 18 16  2  0  0  0  0
 20 19  1  0  0  0  0
 20 15  1  0  0  0  0
 21 22  1  0  0  0  0
 22 23  1  0  0  0  0
 23 24  1  0  0  0  0
 24 25  1  0  0  0  0
 25 26  1  0  0  0  0
 26 28  1  0  0  0  0
 27 28  1  0  0  0  0
M  END
>  <MODEL>
9

>  <REMARK>
 VINA RESULT:      -7.5      2.479      6.182
  Name = 
  10 active torsions:
  status: ('A' for Active; 'I' for Inactive)
    1  A    between atoms: C_5  and  N_8
    2  A    between atoms: C_5  and  C_19
    3  A    between atoms: C_6  and  N_8
    4  A    between atoms: C_6  and  C_25
    5  A    between atoms: C_11  and  C_16
    6  A    between atoms: C_11  and  C_23
    7  A    between atoms: C_11  and  N_24
    8  A    between atoms: C_14  and  C_27
    9  A    between atoms: C_19  and  N_24
   10  A    between atoms: O_20  and  C_25
                            x       y       z     vdW  Elec       q    Type
                         _______ _______ _______ _____ _____    ______ ____

>  <TORSDO>
F 10

$$$$
