=
 OpenBabel10232411573D

 37 40  0  0  1  0  0  0  0  0999 V2000
  188.1920  177.1930  142.3720 C   0  0  0  0  0  0  0  0  0  0  0  0
  191.2020  176.3280  144.3070 C   0  0  0  0  0  0  0  0  0  0  0  0
  190.6070  177.0820  142.3030 C   0  0  0  0  0  0  0  0  0  0  0  0
  191.9330  176.2950  145.5340 N   0  0  0  0  0  0  0  0  0  0  0  0
  191.7320  176.7490  143.1610 C   0  0  0  0  0  3  0  0  0  0  0  0
  190.6380  177.5680  140.9990 C   0  0  0  0  0  3  0  0  0  0  0  0
  189.2240  177.1540  145.4880 C   0  0  0  0  0  3  0  0  0  0  0  0
  191.3520  176.6860  146.6340 C   0  0  0  0  0  0  0  0  0  0  0  0
  188.2010  177.6720  141.0520 C   0  0  0  0  0  3  0  0  0  0  0  0
  189.4170  177.8670  140.3690 C   0  0  0  0  0  0  0  0  0  0  0  0
  189.4210  176.9190  142.9850 C   0  0  0  0  0  0  0  0  0  0  0  0
  192.0870  176.6670  147.8540 N   0  0  0  0  0  1  0  0  0  0  0  0
  189.9720  177.2590  146.5980 C   0  0  0  0  0  0  0  0  0  0  0  0
  189.7010  176.3290  144.3230 C   0  0  1  0  0  3  0  0  0  0  0  0
  189.4250  177.9980  147.7730 C   0  0  0  0  0  2  0  0  0  0  0  0
  188.0290  177.5000  148.0960 C   0  0  0  0  0  1  0  0  0  0  0  0
  189.3950  178.4830  138.7050 S   0  0  2  0  0  0  0  0  0  0  0  0
  187.9200  178.6330  138.3550 O   0  0  0  0  0  0  0  0  0  0  0  0
  191.1460  176.8000  137.7330 O   0  0  0  0  0  0  0  0  0  0  0  0
  189.9750  177.1410  137.6900 C   0  0  0  0  0  0  0  0  0  0  0  0
  189.0170  176.4050  136.8120 C   0  0  0  0  0  2  0  0  0  0  0  0
  188.8960  177.0900  135.4940 C   0  0  0  0  0  0  0  0  0  0  0  0
  189.8930  177.1610  134.7290 O   0  0  0  0  0  0  0  0  0  0  0  0
  187.6920  177.6720  135.1210 O   0  0  0  0  0  1  0  0  0  0  0  0
  186.8980  176.9420  143.0690 C   0  0  0  0  0  2  0  0  0  0  0  0
  186.3790  178.2330  143.6730 C   0  0  0  0  0  2  0  0  0  0  0  0
  185.8100  177.9540  145.0550 C   0  0  0  0  0  2  0  0  0  0  0  0
  185.0280  179.1460  145.5930 C   0  0  2  0  0  3  0  0  0  0  0  0
  184.2520  178.7630  146.6910 O   0  0  0  0  0  1  0  0  0  0  0  0
  184.1800  179.7070  144.5520 N   0  0  0  0  0  2  0  0  0  0  0  0
  182.9630  178.9130  144.5150 C   0  0  0  0  0  2  0  0  0  0  0  0
  182.5230  178.5520  140.7250 C   0  0  0  0  0  3  0  0  0  0  0  0
  180.4230  179.4100  141.7280 C   0  0  0  0  0  2  0  0  0  0  0  0
  181.1080  179.3110  143.0230 N   0  0  0  0  0  0  0  0  0  0  0  0
  182.3590  178.9860  143.1570 C   0  0  0  0  0  0  0  0  0  0  0  0
  183.1330  178.6120  142.0150 N   0  0  0  0  0  2  0  0  0  0  0  0
  181.2470  178.9020  140.5730 C   0  0  0  0  0  3  0  0  0  0  0  0
  1 11  1  0  0  0  0
  1 25  1  0  0  0  0
  2 14  1  0  0  0  0
  2  4  1  0  0  0  0
  3 11  2  0  0  0  0
  3  5  1  0  0  0  0
  4  8  2  0  0  0  0
  5  2  2  0  0  0  0
  6  3  1  0  0  0  0
  7 13  2  0  0  0  0
  8 12  1  0  0  0  0
  9  1  2  0  0  0  0
 10  6  2  0  0  0  0
 10  9  1  0  0  0  0
 11 14  1  0  0  0  0
 13  8  1  0  0  0  0
 13 15  1  0  0  0  0
 14  7  1  1  0  0  0
 15 16  1  0  0  0  0
 17 18  2  6  0  0  0
 17 10  1  0  0  0  0
 20 19  2  0  0  0  0
 20 17  1  0  0  0  0
 21 20  1  0  0  0  0
 22 21  1  0  0  0  0
 23 22  2  0  0  0  0
 24 22  1  0  0  0  0
 25 26  1  0  0  0  0
 26 27  1  0  0  0  0
 27 28  1  0  0  0  0
 28 29  1  1  0  0  0
 30 28  1  0  0  0  0
 31 30  1  0  0  0  0
 32 36  1  0  0  0  0
 33 34  1  0  0  0  0
 34 35  2  0  0  0  0
 35 31  1  0  0  0  0
 36 35  1  0  0  0  0
 37 32  2  0  0  0  0
 37 33  1  0  0  0  0
M  END
>  <MODEL>
1

>  <REMARK>
 VINA RESULT:      -8.4      0.000      0.000
  Name = 
  12 active torsions:
  status: ('A' for Active; 'I' for Inactive)
    1  A    between atoms: C_1  and  C_13
    2  A    between atoms: C_3  and  C_34
    3  A    between atoms: C_9  and  C_13
    4  A    between atoms: C_9  and  C_16
    5  A    between atoms: C_12  and  C_16
    6  A    between atoms: C_12  and  N_33
    7  A    between atoms: C_18  and  C_31
    8  A    between atoms: S_19  and  C_21
    9  A    between atoms: S_19  and  C_28
   10  A    between atoms: C_21  and  C_34
   11  A    between atoms: C_23  and  C_24
   12  A    between atoms: C_24  and  N_33
                            x       y       z     vdW  Elec       q    Type
                         _______ _______ _______ _____ _____    ______ ____

>  <TORSDO>
F 12

$$$$
=
 OpenBabel10232411573D

 37 40  0  0  1  0  0  0  0  0999 V2000
  185.0360  178.9200  142.1260 C   0  0  0  0  0  0  0  0  0  0  0  0
  184.9810  179.0630  145.8050 C   0  0  0  0  0  0  0  0  0  0  0  0
  183.6140  178.7700  144.0770 C   0  0  0  0  0  0  0  0  0  0  0  0
  185.5690  178.7830  147.0760 N   0  0  0  0  0  0  0  0  0  0  0  0
  183.7050  178.8080  145.5280 C   0  0  0  0  0  3  0  0  0  0  0  0
  182.4870  178.5370  143.2940 C   0  0  0  0  0  3  0  0  0  0  0  0
  186.9970  178.2580  144.6750 C   0  0  0  0  0  3  0  0  0  0  0  0
  186.7630  178.2610  147.1250 C   0  0  0  0  0  0  0  0  0  0  0  0
  183.9090  178.6980  141.3190 C   0  0  0  0  0  3  0  0  0  0  0  0
  182.6400  178.5000  141.8970 C   0  0  0  0  0  0  0  0  0  0  0  0
  184.8620  178.9340  143.5160 C   0  0  0  0  0  0  0  0  0  0  0  0
  187.3430  177.9680  148.3930 N   0  0  0  0  0  1  0  0  0  0  0  0
  187.4670  177.8630  145.8690 C   0  0  0  0  0  0  0  0  0  0  0  0
  185.8480  179.2280  144.5910 C   0  0  1  0  0  3  0  0  0  0  0  0
  188.6710  176.9840  145.9180 C   0  0  0  0  0  2  0  0  0  0  0  0
  189.5630  177.2560  144.7210 C   0  0  0  0  0  1  0  0  0  0  0  0
  181.2380  178.2140  140.8490 S   0  0  2  0  0  0  0  0  0  0  0  0
  181.7970  177.5160  139.6160 O   0  0  0  0  0  0  0  0  0  0  0  0
  180.3450  180.6620  141.0750 O   0  0  0  0  0  0  0  0  0  0  0  0
  180.7310  179.8210  140.2790 C   0  0  0  0  0  0  0  0  0  0  0  0
  180.8130  180.1540  138.8260 C   0  0  0  0  0  2  0  0  0  0  0  0
  181.8690  181.1790  138.5910 C   0  0  0  0  0  0  0  0  0  0  0  0
  181.5550  182.3190  138.1590 O   0  0  0  0  0  0  0  0  0  0  0  0
  183.2030  180.8690  138.8220 O   0  0  0  0  0  1  0  0  0  0  0  0
  186.3650  179.1790  141.5030 C   0  0  0  0  0  2  0  0  0  0  0  0
  187.1370  177.8810  141.3760 C   0  0  0  0  0  2  0  0  0  0  0  0
  188.6210  178.1830  141.2400 C   0  0  0  0  0  2  0  0  0  0  0  0
  189.1340  177.8680  139.8400 C   0  0  2  0  0  3  0  0  0  0  0  0
  190.5150  177.6530  139.8650 O   0  0  0  0  0  1  0  0  0  0  0  0
  188.8130  178.9530  138.9260 N   0  0  0  0  0  2  0  0  0  0  0  0
  188.6620  178.3710  137.6030 C   0  0  0  0  0  2  0  0  0  0  0  0
  185.8480  175.8690  136.8880 C   0  0  0  0  0  3  0  0  0  0  0  0
  184.8880  177.9560  137.8260 C   0  0  0  0  0  2  0  0  0  0  0  0
  186.2700  178.4430  137.9190 N   0  0  0  0  0  0  0  0  0  0  0  0
  187.2990  177.7930  137.4620 C   0  0  0  0  0  0  0  0  0  0  0  0
  187.1360  176.4860  136.9060 N   0  0  0  0  0  2  0  0  0  0  0  0
  184.7840  176.5340  137.3350 C   0  0  0  0  0  3  0  0  0  0  0  0
  1 11  1  0  0  0  0
  2  4  1  0  0  0  0
  3  5  1  0  0  0  0
  4  8  2  0  0  0  0
  5  2  2  0  0  0  0
  6  3  1  0  0  0  0
  7 13  2  0  0  0  0
  8 12  1  0  0  0  0
  9 10  1  0  0  0  0
  9  1  2  0  0  0  0
 10  6  2  0  0  0  0
 11  3  2  0  0  0  0
 11 14  1  0  0  0  0
 13 15  1  0  0  0  0
 13  8  1  0  0  0  0
 14  7  1  1  0  0  0
 14  2  1  0  0  0  0
 16 15  1  0  0  0  0
 17 18  2  6  0  0  0
 17 10  1  0  0  0  0
 20 17  1  0  0  0  0
 20 19  2  0  0  0  0
 21 20  1  0  0  0  0
 22 24  1  0  0  0  0
 22 21  1  0  0  0  0
 23 22  2  0  0  0  0
 25  1  1  0  0  0  0
 26 25  1  0  0  0  0
 27 26  1  0  0  0  0
 28 29  1  1  0  0  0
 28 27  1  0  0  0  0
 30 28  1  0  0  0  0
 31 30  1  0  0  0  0
 32 36  1  0  0  0  0
 32 37  2  0  0  0  0
 33 34  1  0  0  0  0
 35 31  1  0  0  0  0
 35 34  2  0  0  0  0
 36 35  1  0  0  0  0
 37 33  1  0  0  0  0
M  END
>  <MODEL>
2

>  <REMARK>
 VINA RESULT:      -8.1      3.666      6.864
  Name = 
  12 active torsions:
  status: ('A' for Active; 'I' for Inactive)
    1  A    between atoms: C_1  and  C_13
    2  A    between atoms: C_3  and  C_34
    3  A    between atoms: C_9  and  C_13
    4  A    between atoms: C_9  and  C_16
    5  A    between atoms: C_12  and  C_16
    6  A    between atoms: C_12  and  N_33
    7  A    between atoms: C_18  and  C_31
    8  A    between atoms: S_19  and  C_21
    9  A    between atoms: S_19  and  C_28
   10  A    between atoms: C_21  and  C_34
   11  A    between atoms: C_23  and  C_24
   12  A    between atoms: C_24  and  N_33
                            x       y       z     vdW  Elec       q    Type
                         _______ _______ _______ _____ _____    ______ ____

>  <TORSDO>
F 12

$$$$
=
 OpenBabel10232411573D

 37 40  0  0  1  0  0  0  0  0999 V2000
  184.2280  178.6240  140.6400 C   0  0  0  0  0  0  0  0  0  0  0  0
  183.4540  179.2550  144.1830 C   0  0  0  0  0  0  0  0  0  0  0  0
  182.4450  178.7520  142.2690 C   0  0  0  0  0  0  0  0  0  0  0  0
  183.7690  179.1390  145.5720 N   0  0  0  0  0  0  0  0  0  0  0  0
  182.2490  178.9810  143.6900 C   0  0  0  0  0  3  0  0  0  0  0  0
  181.4860  178.4310  141.3110 C   0  0  0  0  0  3  0  0  0  0  0  0
  185.6210  178.2820  143.5930 C   0  0  0  0  0  3  0  0  0  0  0  0
  184.9090  178.6140  145.9260 C   0  0  0  0  0  0  0  0  0  0  0  0
  183.2750  178.3110  139.6570 C   0  0  0  0  0  3  0  0  0  0  0  0
  181.9110  178.2070  139.9900 C   0  0  0  0  0  0  0  0  0  0  0  0
  183.7840  178.8250  141.9530 C   0  0  0  0  0  0  0  0  0  0  0  0
  185.2150  178.4850  147.3120 N   0  0  0  0  0  1  0  0  0  0  0  0
  185.8310  178.0440  144.8980 C   0  0  0  0  0  0  0  0  0  0  0  0
  184.5500  179.2460  143.1570 C   0  0  1  0  0  3  0  0  0  0  0  0
  186.9660  177.1640  145.2990 C   0  0  0  0  0  2  0  0  0  0  0  0
  188.0960  178.0000  145.8680 C   0  0  0  0  0  1  0  0  0  0  0  0
  180.7330  177.8020  138.7270 S   0  0  2  0  0  0  0  0  0  0  0  0
  181.2950  176.5650  138.0390 O   0  0  0  0  0  0  0  0  0  0  0  0
  181.6390  178.9950  136.5820 O   0  0  0  0  0  0  0  0  0  0  0  0
  180.8620  179.1010  137.5170 C   0  0  0  0  0  0  0  0  0  0  0  0
  179.9900  180.3070  137.6270 C   0  0  0  0  0  2  0  0  0  0  0  0
  180.6470  181.3440  138.4730 C   0  0  0  0  0  0  0  0  0  0  0  0
  181.5030  182.1160  137.9690 O   0  0  0  0  0  0  0  0  0  0  0  0
  180.3360  181.4400  139.8230 O   0  0  0  0  0  1  0  0  0  0  0  0
  185.6640  178.7820  140.2680 C   0  0  0  0  0  2  0  0  0  0  0  0
  185.8670  178.3870  138.8180 C   0  0  0  0  0  2  0  0  0  0  0  0
  187.2260  177.7260  138.6560 C   0  0  0  0  0  2  0  0  0  0  0  0
  188.2720  178.3600  139.5640 C   0  0  2  0  0  3  0  0  0  0  0  0
  189.1090  179.2020  138.8260 O   0  0  0  0  0  1  0  0  0  0  0  0
  189.0580  177.3320  140.2290 N   0  0  0  0  0  2  0  0  0  0  0  0
  188.5520  177.2150  141.5870 C   0  0  0  0  0  2  0  0  0  0  0  0
  191.1200  178.8340  143.9240 C   0  0  0  0  0  3  0  0  0  0  0  0
  191.2710  176.3650  144.1060 C   0  0  0  0  0  2  0  0  0  0  0  0
  190.1670  176.3170  143.1390 N   0  0  0  0  0  0  0  0  0  0  0  0
  189.6720  177.3660  142.5540 C   0  0  0  0  0  0  0  0  0  0  0  0
  190.1380  178.6730  142.9000 N   0  0  0  0  0  2  0  0  0  0  0  0
  191.6490  177.7650  144.5170 C   0  0  0  0  0  3  0  0  0  0  0  0
  1 11  1  0  0  0  0
  2  4  1  0  0  0  0
  3  5  1  0  0  0  0
  4  8  2  0  0  0  0
  5  2  2  0  0  0  0
  6  3  1  0  0  0  0
  7 13  2  0  0  0  0
  8 12  1  0  0  0  0
  9 10  1  0  0  0  0
  9  1  2  0  0  0  0
 10  6  2  0  0  0  0
 11  3  2  0  0  0  0
 11 14  1  0  0  0  0
 13 15  1  0  0  0  0
 13  8  1  0  0  0  0
 14  7  1  1  0  0  0
 14  2  1  0  0  0  0
 15 16  1  0  0  0  0
 17 18  2  6  0  0  0
 17 10  1  0  0  0  0
 19 20  2  0  0  0  0
 20 21  1  0  0  0  0
 20 17  1  0  0  0  0
 21 22  1  0  0  0  0
 22 24  1  0  0  0  0
 23 22  2  0  0  0  0
 25  1  1  0  0  0  0
 26 25  1  0  0  0  0
 27 26  1  0  0  0  0
 27 28  1  0  0  0  0
 28 29  1  6  0  0  0
 28 30  1  0  0  0  0
 30 31  1  0  0  0  0
 31 35  1  0  0  0  0
 32 37  2  0  0  0  0
 33 37  1  0  0  0  0
 34 33  1  0  0  0  0
 35 36  1  0  0  0  0
 35 34  2  0  0  0  0
 36 32  1  0  0  0  0
M  END
>  <MODEL>
3

>  <REMARK>
 VINA RESULT:      -8.1      3.493      7.817
  Name = 
  12 active torsions:
  status: ('A' for Active; 'I' for Inactive)
    1  A    between atoms: C_1  and  C_13
    2  A    between atoms: C_3  and  C_34
    3  A    between atoms: C_9  and  C_13
    4  A    between atoms: C_9  and  C_16
    5  A    between atoms: C_12  and  C_16
    6  A    between atoms: C_12  and  N_33
    7  A    between atoms: C_18  and  C_31
    8  A    between atoms: S_19  and  C_21
    9  A    between atoms: S_19  and  C_28
   10  A    between atoms: C_21  and  C_34
   11  A    between atoms: C_23  and  C_24
   12  A    between atoms: C_24  and  N_33
                            x       y       z     vdW  Elec       q    Type
                         _______ _______ _______ _____ _____    ______ ____

>  <TORSDO>
F 12

$$$$
=
 OpenBabel10232411573D

 37 40  0  0  1  0  0  0  0  0999 V2000
  184.1540  178.5100  140.6190 C   0  0  0  0  0  0  0  0  0  0  0  0
  183.4640  179.2500  144.1590 C   0  0  0  0  0  0  0  0  0  0  0  0
  182.4100  178.6900  142.2850 C   0  0  0  0  0  0  0  0  0  0  0  0
  183.8110  179.1760  145.5430 N   0  0  0  0  0  0  0  0  0  0  0  0
  182.2470  178.9630  143.7030 C   0  0  0  0  0  3  0  0  0  0  0  0
  181.4280  178.3410  141.3600 C   0  0  0  0  0  3  0  0  0  0  0  0
  185.6150  178.2570  143.5480 C   0  0  0  0  0  3  0  0  0  0  0  0
  184.9580  178.6600  145.8860 C   0  0  0  0  0  0  0  0  0  0  0  0
  183.1780  178.1680  139.6690 C   0  0  0  0  0  3  0  0  0  0  0  0
  181.8220  178.0760  140.0370 C   0  0  0  0  0  0  0  0  0  0  0  0
  183.7410  178.7510  141.9350 C   0  0  0  0  0  0  0  0  0  0  0  0
  185.2960  178.5740  147.2670 N   0  0  0  0  0  1  0  0  0  0  0  0
  185.8560  178.0580  144.8540 C   0  0  0  0  0  0  0  0  0  0  0  0
  184.5350  179.2090  143.1080 C   0  0  1  0  0  3  0  0  0  0  0  0
  186.9990  177.1890  145.2560 C   0  0  0  0  0  2  0  0  0  0  0  0
  188.3100  177.9230  145.0410 C   0  0  0  0  0  1  0  0  0  0  0  0
  180.6150  177.6340  138.8140 S   0  0  2  0  0  0  0  0  0  0  0  0
  180.2060  176.2070  139.1550 O   0  0  0  0  0  0  0  0  0  0  0  0
  181.8940  178.5080  136.7060 O   0  0  0  0  0  0  0  0  0  0  0  0
  181.5110  177.5030  137.2820 C   0  0  0  0  0  0  0  0  0  0  0  0
  181.8280  176.1570  136.7200 C   0  0  0  0  0  2  0  0  0  0  0  0
  183.2230  175.7670  137.0690 C   0  0  0  0  0  0  0  0  0  0  0  0
  184.1640  176.0170  136.2730 O   0  0  0  0  0  0  0  0  0  0  0  0
  183.4810  175.1030  138.2620 O   0  0  0  0  0  1  0  0  0  0  0  0
  185.5810  178.6540  140.2090 C   0  0  0  0  0  2  0  0  0  0  0  0
  185.7100  178.4520  138.7120 C   0  0  0  0  0  2  0  0  0  0  0  0
  187.0440  177.7920  138.4010 C   0  0  0  0  0  2  0  0  0  0  0  0
  188.1390  178.2620  139.3500 C   0  0  2  0  0  3  0  0  0  0  0  0
  188.9960  179.1550  138.7000 O   0  0  0  0  0  1  0  0  0  0  0  0
  188.8930  177.1260  139.8580 N   0  0  0  0  0  2  0  0  0  0  0  0
  190.2370  177.5960  140.1490 C   0  0  0  0  0  2  0  0  0  0  0  0
  190.7050  175.5030  143.3240 C   0  0  0  0  0  3  0  0  0  0  0  0
  191.7660  177.7240  143.6290 C   0  0  0  0  0  2  0  0  0  0  0  0
  191.3460  178.0130  142.2520 N   0  0  0  0  0  0  0  0  0  0  0  0
  190.6120  177.2140  141.5370 C   0  0  0  0  0  0  0  0  0  0  0  0
  190.2370  175.9310  142.0450 N   0  0  0  0  0  2  0  0  0  0  0  0
  191.4410  176.3210  144.0740 C   0  0  0  0  0  3  0  0  0  0  0  0
  1 11  1  0  0  0  0
  2  4  1  0  0  0  0
  3  5  1  0  0  0  0
  4  8  2  0  0  0  0
  5  2  2  0  0  0  0
  6  3  1  0  0  0  0
  7 13  2  0  0  0  0
  8 12  1  0  0  0  0
  9 10  1  0  0  0  0
  9  1  2  0  0  0  0
 10  6  2  0  0  0  0
 11  3  2  0  0  0  0
 11 14  1  0  0  0  0
 13 15  1  0  0  0  0
 13  8  1  0  0  0  0
 14  7  1  1  0  0  0
 14  2  1  0  0  0  0
 16 15  1  0  0  0  0
 17 18  2  1  0  0  0
 17 10  1  0  0  0  0
 19 20  2  0  0  0  0
 20 17  1  0  0  0  0
 21 22  1  0  0  0  0
 21 20  1  0  0  0  0
 22 24  1  0  0  0  0
 23 22  2  0  0  0  0
 25  1  1  0  0  0  0
 26 25  1  0  0  0  0
 27 26  1  0  0  0  0
 27 28  1  0  0  0  0
 28 29  1  6  0  0  0
 28 30  1  0  0  0  0
 30 31  1  0  0  0  0
 31 35  1  0  0  0  0
 32 37  2  0  0  0  0
 33 37  1  0  0  0  0
 34 33  1  0  0  0  0
 35 36  1  0  0  0  0
 35 34  2  0  0  0  0
 36 32  1  0  0  0  0
M  END
>  <MODEL>
4

>  <REMARK>
 VINA RESULT:      -8.0      3.389      7.565
  Name = 
  12 active torsions:
  status: ('A' for Active; 'I' for Inactive)
    1  A    between atoms: C_1  and  C_13
    2  A    between atoms: C_3  and  C_34
    3  A    between atoms: C_9  and  C_13
    4  A    between atoms: C_9  and  C_16
    5  A    between atoms: C_12  and  C_16
    6  A    between atoms: C_12  and  N_33
    7  A    between atoms: C_18  and  C_31
    8  A    between atoms: S_19  and  C_21
    9  A    between atoms: S_19  and  C_28
   10  A    between atoms: C_21  and  C_34
   11  A    between atoms: C_23  and  C_24
   12  A    between atoms: C_24  and  N_33
                            x       y       z     vdW  Elec       q    Type
                         _______ _______ _______ _____ _____    ______ ____

>  <TORSDO>
F 12

$$$$
=
 OpenBabel10232411573D

 37 40  0  0  1  0  0  0  0  0999 V2000
  189.5800  177.4440  140.2130 C   0  0  0  0  0  0  0  0  0  0  0  0
  192.6220  176.6480  138.2980 C   0  0  0  0  0  0  0  0  0  0  0  0
  191.9900  177.2840  140.3310 C   0  0  0  0  0  0  0  0  0  0  0  0
  193.3170  175.8710  137.3220 N   0  0  0  0  0  0  0  0  0  0  0  0
  193.1250  176.9160  139.5000 C   0  0  0  0  0  3  0  0  0  0  0  0
  191.9940  177.6520  141.6740 C   0  0  0  0  0  3  0  0  0  0  0  0
  190.5230  175.5330  137.7160 C   0  0  0  0  0  3  0  0  0  0  0  0
  192.6610  174.9850  136.6260 C   0  0  0  0  0  0  0  0  0  0  0  0
  189.5640  177.8280  141.5630 C   0  0  0  0  0  3  0  0  0  0  0  0
  190.7630  177.9250  142.2950 C   0  0  0  0  0  0  0  0  0  0  0  0
  190.8160  177.1590  139.6200 C   0  0  0  0  0  0  0  0  0  0  0  0
  193.3590  174.2000  135.6630 N   0  0  0  0  0  1  0  0  0  0  0  0
  191.2210  174.7100  136.9160 C   0  0  0  0  0  0  0  0  0  0  0  0
  191.1330  176.8180  138.2070 C   0  0  1  0  0  3  0  0  0  0  0  0
  190.5530  173.4970  136.3640 C   0  0  0  0  0  2  0  0  0  0  0  0
  189.1700  173.3440  136.9690 C   0  0  0  0  0  1  0  0  0  0  0  0
  190.7070  178.4050  144.0020 S   0  0  2  0  0  0  0  0  0  0  0  0
  191.9950  179.1840  144.2400 O   0  0  0  0  0  0  0  0  0  0  0  0
  191.4080  175.9180  144.4090 O   0  0  0  0  0  0  0  0  0  0  0  0
  190.9020  176.8990  144.9290 C   0  0  0  0  0  0  0  0  0  0  0  0
  190.4780  176.8470  146.3600 C   0  0  0  0  0  2  0  0  0  0  0  0
  191.6330  176.4780  147.2270 C   0  0  0  0  0  0  0  0  0  0  0  0
  192.2760  175.4210  147.0020 O   0  0  0  0  0  0  0  0  0  0  0  0
  191.9830  177.2880  148.3000 O   0  0  0  0  0  1  0  0  0  0  0  0
  188.3100  177.3930  139.4330 C   0  0  0  0  0  2  0  0  0  0  0  0
  187.3730  178.4890  139.9020 C   0  0  0  0  0  2  0  0  0  0  0  0
  186.0590  178.3940  139.1430 C   0  0  0  0  0  2  0  0  0  0  0  0
  184.9080  179.0060  139.9310 C   0  0  2  0  0  3  0  0  0  0  0  0
  184.3420  180.0680  139.2200 O   0  0  0  0  0  1  0  0  0  0  0  0
  185.3700  179.4650  141.2320 N   0  0  0  0  0  2  0  0  0  0  0  0
  184.4350  178.9630  142.2240 C   0  0  0  0  0  2  0  0  0  0  0  0
  185.2210  178.4370  145.9370 C   0  0  0  0  0  3  0  0  0  0  0  0
  187.0850  177.5520  144.5600 C   0  0  0  0  0  2  0  0  0  0  0  0
  186.2890  177.9510  143.3910 N   0  0  0  0  0  0  0  0  0  0  0  0
  185.1670  178.6020  143.4670 C   0  0  0  0  0  0  0  0  0  0  0  0
  184.5900  178.8970  144.7420 N   0  0  0  0  0  2  0  0  0  0  0  0
  186.3810  177.7860  145.8720 C   0  0  0  0  0  3  0  0  0  0  0  0
  1  9  1  0  0  0  0
  2  5  2  0  0  0  0
  3  6  2  0  0  0  0
  4  2  1  0  0  0  0
  5  3  1  0  0  0  0
  6 10  1  0  0  0  0
  8 13  1  0  0  0  0
  8  4  2  0  0  0  0
  9 10  2  0  0  0  0
 10 17  1  0  0  0  0
 11  1  2  0  0  0  0
 11  3  1  0  0  0  0
 12  8  1  0  0  0  0
 13  7  2  0  0  0  0
 14  7  1  1  0  0  0
 14  2  1  0  0  0  0
 14 11  1  0  0  0  0
 15 13  1  0  0  0  0
 15 16  1  0  0  0  0
 17 18  2  6  0  0  0
 17 20  1  0  0  0  0
 19 20  2  0  0  0  0
 20 21  1  0  0  0  0
 21 22  1  0  0  0  0
 22 24  1  0  0  0  0
 23 22  2  0  0  0  0
 25 26  1  0  0  0  0
 25  1  1  0  0  0  0
 27 26  1  0  0  0  0
 27 28  1  0  0  0  0
 28 29  1  6  0  0  0
 28 30  1  0  0  0  0
 30 31  1  0  0  0  0
 31 35  1  0  0  0  0
 33 37  1  0  0  0  0
 34 35  2  0  0  0  0
 34 33  1  0  0  0  0
 35 36  1  0  0  0  0
 36 32  1  0  0  0  0
 37 32  2  0  0  0  0
M  END
>  <MODEL>
5

>  <REMARK>
 VINA RESULT:      -7.7      3.935      7.460
  Name = 
  12 active torsions:
  status: ('A' for Active; 'I' for Inactive)
    1  A    between atoms: C_1  and  C_13
    2  A    between atoms: C_3  and  C_34
    3  A    between atoms: C_9  and  C_13
    4  A    between atoms: C_9  and  C_16
    5  A    between atoms: C_12  and  C_16
    6  A    between atoms: C_12  and  N_33
    7  A    between atoms: C_18  and  C_31
    8  A    between atoms: S_19  and  C_21
    9  A    between atoms: S_19  and  C_28
   10  A    between atoms: C_21  and  C_34
   11  A    between atoms: C_23  and  C_24
   12  A    between atoms: C_24  and  N_33
                            x       y       z     vdW  Elec       q    Type
                         _______ _______ _______ _____ _____    ______ ____

>  <TORSDO>
F 12

$$$$
=
 OpenBabel10232411573D

 37 40  0  0  1  0  0  0  0  0999 V2000
  183.8710  178.6240  140.9320 C   0  0  0  0  0  0  0  0  0  0  0  0
  184.0040  179.2340  144.5600 C   0  0  0  0  0  0  0  0  0  0  0  0
  182.5410  178.8070  142.9440 C   0  0  0  0  0  0  0  0  0  0  0  0
  184.6390  179.0830  145.8310 N   0  0  0  0  0  0  0  0  0  0  0  0
  182.7040  179.0220  144.3720 C   0  0  0  0  0  3  0  0  0  0  0  0
  181.3650  178.5430  142.2450 C   0  0  0  0  0  3  0  0  0  0  0  0
  185.9160  178.1750  143.4600 C   0  0  0  0  0  3  0  0  0  0  0  0
  185.8040  178.5020  145.8970 C   0  0  0  0  0  0  0  0  0  0  0  0
  182.6950  178.3690  140.2080 C   0  0  0  0  0  3  0  0  0  0  0  0
  181.4480  178.3210  140.8600 C   0  0  0  0  0  0  0  0  0  0  0  0
  183.7660  178.8240  142.3140 C   0  0  0  0  0  0  0  0  0  0  0  0
  186.4290  178.3380  147.1670 N   0  0  0  0  0  1  0  0  0  0  0  0
  186.4230  177.9070  144.6740 C   0  0  0  0  0  0  0  0  0  0  0  0
  184.8190  179.1920  143.3000 C   0  0  1  0  0  3  0  0  0  0  0  0
  187.5790  176.9710  144.7860 C   0  0  0  0  0  2  0  0  0  0  0  0
  188.8740  177.7540  144.8950 C   0  0  0  0  0  1  0  0  0  0  0  0
  179.9820  177.9880  139.9170 S   0  0  2  0  0  0  0  0  0  0  0  0
  180.0620  176.5090  139.5640 O   0  0  0  0  0  0  0  0  0  0  0  0
  180.4040  180.0470  138.3590 O   0  0  0  0  0  0  0  0  0  0  0  0
  180.2030  178.8430  138.3720 C   0  0  0  0  0  0  0  0  0  0  0  0
  180.1790  178.0790  137.0900 C   0  0  0  0  0  2  0  0  0  0  0  0
  181.3210  178.4870  136.2240 C   0  0  0  0  0  0  0  0  0  0  0  0
  181.1460  179.3310  135.3070 O   0  0  0  0  0  0  0  0  0  0  0  0
  182.5740  177.9170  136.4120 O   0  0  0  0  0  1  0  0  0  0  0  0
  185.1800  178.7230  140.2250 C   0  0  0  0  0  2  0  0  0  0  0  0
  184.9510  178.8300  138.7300 C   0  0  0  0  0  2  0  0  0  0  0  0
  185.7770  177.7730  138.0130 C   0  0  0  0  0  2  0  0  0  0  0  0
  186.5660  178.3670  136.8530 C   0  0  2  0  0  3  0  0  0  0  0  0
  187.0390  177.3520  136.0170 O   0  0  0  0  0  1  0  0  0  0  0  0
  187.6770  179.1640  137.3500 N   0  0  0  0  0  2  0  0  0  0  0  0
  188.8570  178.3160  137.3310 C   0  0  0  0  0  2  0  0  0  0  0  0
  188.9110  178.2300  141.1620 C   0  0  0  0  0  3  0  0  0  0  0  0
  190.8460  176.9560  140.2740 C   0  0  0  0  0  2  0  0  0  0  0  0
  190.3260  177.2750  138.9380 N   0  0  0  0  0  0  0  0  0  0  0  0
  189.3080  178.0530  138.7240 C   0  0  0  0  0  0  0  0  0  0  0  0
  188.5650  178.5860  139.8230 N   0  0  0  0  0  2  0  0  0  0  0  0
  189.9650  177.4490  141.3940 C   0  0  0  0  0  3  0  0  0  0  0  0
  1 11  1  0  0  0  0
  2  4  1  0  0  0  0
  3  5  1  0  0  0  0
  4  8  2  0  0  0  0
  5  2  2  0  0  0  0
  6  3  1  0  0  0  0
  7 13  2  0  0  0  0
  8 12  1  0  0  0  0
  9 10  1  0  0  0  0
  9  1  2  0  0  0  0
 10  6  2  0  0  0  0
 11  3  2  0  0  0  0
 11 14  1  0  0  0  0
 13 15  1  0  0  0  0
 13  8  1  0  0  0  0
 14  7  1  1  0  0  0
 14  2  1  0  0  0  0
 15 16  1  0  0  0  0
 17 18  2  6  0  0  0
 17 10  1  0  0  0  0
 19 20  2  0  0  0  0
 20 17  1  0  0  0  0
 21 20  1  0  0  0  0
 22 24  1  0  0  0  0
 22 21  1  0  0  0  0
 23 22  2  0  0  0  0
 25  1  1  0  0  0  0
 26 25  1  0  0  0  0
 27 26  1  0  0  0  0
 28 29  1  6  0  0  0
 28 30  1  0  0  0  0
 28 27  1  0  0  0  0
 31 30  1  0  0  0  0
 31 35  1  0  0  0  0
 32 37  2  0  0  0  0
 33 37  1  0  0  0  0
 34 33  1  0  0  0  0
 35 34  2  0  0  0  0
 35 36  1  0  0  0  0
 36 32  1  0  0  0  0
M  END
>  <MODEL>
6

>  <REMARK>
 VINA RESULT:      -7.6      3.806      7.720
  Name = 
  12 active torsions:
  status: ('A' for Active; 'I' for Inactive)
    1  A    between atoms: C_1  and  C_13
    2  A    between atoms: C_3  and  C_34
    3  A    between atoms: C_9  and  C_13
    4  A    between atoms: C_9  and  C_16
    5  A    between atoms: C_12  and  C_16
    6  A    between atoms: C_12  and  N_33
    7  A    between atoms: C_18  and  C_31
    8  A    between atoms: S_19  and  C_21
    9  A    between atoms: S_19  and  C_28
   10  A    between atoms: C_21  and  C_34
   11  A    between atoms: C_23  and  C_24
   12  A    between atoms: C_24  and  N_33
                            x       y       z     vdW  Elec       q    Type
                         _______ _______ _______ _____ _____    ______ ____

>  <TORSDO>
F 12

$$$$
=
 OpenBabel10232411573D

 37 40  0  0  1  0  0  0  0  0999 V2000
  186.8520  178.4780  140.4330 C   0  0  0  0  0  0  0  0  0  0  0  0
  185.1480  177.7080  137.2620 C   0  0  0  0  0  0  0  0  0  0  0  0
  187.1470  177.5510  138.2190 C   0  0  0  0  0  0  0  0  0  0  0  0
  184.0020  177.2640  136.5330 N   0  0  0  0  0  0  0  0  0  0  0  0
  186.3760  177.2540  137.0230 C   0  0  0  0  0  3  0  0  0  0  0  0
  188.4900  177.2730  138.4650 C   0  0  0  0  0  3  0  0  0  0  0  0
  183.8640  177.6640  139.3440 C   0  0  0  0  0  3  0  0  0  0  0  0
  182.8940  177.0210  137.1750 C   0  0  0  0  0  0  0  0  0  0  0  0
  188.2060  178.2170  140.6960 C   0  0  0  0  0  3  0  0  0  0  0  0
  189.0220  177.6110  139.7210 C   0  0  0  0  0  0  0  0  0  0  0  0
  186.3390  178.1160  139.1810 C   0  0  0  0  0  0  0  0  0  0  0  0
  181.7560  176.5630  136.4490 N   0  0  0  0  0  1  0  0  0  0  0  0
  182.8490  177.1040  138.6660 C   0  0  0  0  0  0  0  0  0  0  0  0
  184.9850  178.3490  138.6090 C   0  0  1  0  0  3  0  0  0  0  0  0
  181.7030  176.5250  139.4260 C   0  0  0  0  0  2  0  0  0  0  0  0
  181.2520  177.4920  140.5040 C   0  0  0  0  0  1  0  0  0  0  0  0
  190.7270  177.2870  140.0890 S   0  0  2  0  0  0  0  0  0  0  0  0
  191.0870  176.0600  139.2620 O   0  0  0  0  0  0  0  0  0  0  0  0
  190.1040  175.7540  142.1140 O   0  0  0  0  0  0  0  0  0  0  0  0
  190.7550  176.7300  141.7780 C   0  0  0  0  0  0  0  0  0  0  0  0
  191.6090  177.4360  142.7790 C   0  0  0  0  0  2  0  0  0  0  0  0
  190.8270  178.5070  143.4590 C   0  0  0  0  0  0  0  0  0  0  0  0
  189.5720  178.4320  143.5140 O   0  0  0  0  0  0  0  0  0  0  0  0
  191.4810  179.6020  144.0090 O   0  0  0  0  0  1  0  0  0  0  0  0
  186.0090  179.1660  141.4530 C   0  0  0  0  0  2  0  0  0  0  0  0
  185.7860  178.2500  142.6400 C   0  0  0  0  0  2  0  0  0  0  0  0
  184.3610  178.4120  143.1470 C   0  0  0  0  0  2  0  0  0  0  0  0
  184.3110  178.5070  144.6660 C   0  0  2  0  0  3  0  0  0  0  0  0
  183.3500  179.4410  145.0640 O   0  0  0  0  0  1  0  0  0  0  0  0
  185.6150  178.8760  145.1950 N   0  0  0  0  0  2  0  0  0  0  0  0
  185.6280  178.5130  146.6020 C   0  0  0  0  0  2  0  0  0  0  0  0
  189.1160  176.9430  146.3810 C   0  0  0  0  0  3  0  0  0  0  0  0
  188.8300  178.0240  148.5950 C   0  0  0  0  0  2  0  0  0  0  0  0
  187.4980  178.4260  148.1250 N   0  0  0  0  0  0  0  0  0  0  0  0
  186.9880  178.0530  146.9890 C   0  0  0  0  0  0  0  0  0  0  0  0
  187.7620  177.2760  146.0720 N   0  0  0  0  0  2  0  0  0  0  0  0
  189.6420  177.3030  147.5500 C   0  0  0  0  0  3  0  0  0  0  0  0
  1  9  1  0  0  0  0
  1 25  1  0  0  0  0
  2 14  1  0  0  0  0
  3  6  2  0  0  0  0
  3 11  1  0  0  0  0
  4  8  2  0  0  0  0
  4  2  1  0  0  0  0
  5  2  2  0  0  0  0
  5  3  1  0  0  0  0
  6 10  1  0  0  0  0
  8 13  1  0  0  0  0
 10 17  1  0  0  0  0
 10  9  2  0  0  0  0
 11  1  2  0  0  0  0
 12  8  1  0  0  0  0
 13  7  2  0  0  0  0
 13 15  1  0  0  0  0
 14 11  1  0  0  0  0
 14  7  1  1  0  0  0
 15 16  1  0  0  0  0
 17 18  2  6  0  0  0
 17 20  1  0  0  0  0
 20 19  2  0  0  0  0
 20 21  1  0  0  0  0
 21 22  1  0  0  0  0
 22 23  2  0  0  0  0
 22 24  1  0  0  0  0
 25 26  1  0  0  0  0
 26 27  1  0  0  0  0
 27 28  1  0  0  0  0
 28 29  1  6  0  0  0
 28 30  1  0  0  0  0
 30 31  1  0  0  0  0
 31 35  1  0  0  0  0
 32 37  2  0  0  0  0
 34 33  1  0  0  0  0
 35 34  2  0  0  0  0
 36 32  1  0  0  0  0
 36 35  1  0  0  0  0
 37 33  1  0  0  0  0
M  END
>  <MODEL>
7

>  <REMARK>
 VINA RESULT:      -7.6      3.026      7.526
  Name = 
  12 active torsions:
  status: ('A' for Active; 'I' for Inactive)
    1  A    between atoms: C_1  and  C_13
    2  A    between atoms: C_3  and  C_34
    3  A    between atoms: C_9  and  C_13
    4  A    between atoms: C_9  and  C_16
    5  A    between atoms: C_12  and  C_16
    6  A    between atoms: C_12  and  N_33
    7  A    between atoms: C_18  and  C_31
    8  A    between atoms: S_19  and  C_21
    9  A    between atoms: S_19  and  C_28
   10  A    between atoms: C_21  and  C_34
   11  A    between atoms: C_23  and  C_24
   12  A    between atoms: C_24  and  N_33
                            x       y       z     vdW  Elec       q    Type
                         _______ _______ _______ _____ _____    ______ ____

>  <TORSDO>
F 12

$$$$
=
 OpenBabel10232411573D

 37 40  0  0  1  0  0  0  0  0999 V2000
  188.1490  177.4300  142.2840 C   0  0  0  0  0  0  0  0  0  0  0  0
  191.0180  176.3310  144.3120 C   0  0  0  0  0  0  0  0  0  0  0  0
  190.5340  177.0250  142.2580 C   0  0  0  0  0  0  0  0  0  0  0  0
  191.7310  176.2860  145.5490 N   0  0  0  0  0  0  0  0  0  0  0  0
  191.6040  176.6130  143.1510 C   0  0  0  0  0  3  0  0  0  0  0  0
  190.6330  177.4230  140.9260 C   0  0  0  0  0  3  0  0  0  0  0  0
  189.1460  177.4590  145.4110 C   0  0  0  0  0  3  0  0  0  0  0  0
  191.1930  176.8110  146.6150 C   0  0  0  0  0  0  0  0  0  0  0  0
  188.2270  177.8230  140.9370 C   0  0  0  0  0  3  0  0  0  0  0  0
  189.4620  177.8270  140.2620 C   0  0  0  0  0  0  0  0  0  0  0  0
  189.3320  177.0490  142.9300 C   0  0  0  0  0  0  0  0  0  0  0  0
  191.9120  176.7790  147.8450 N   0  0  0  0  0  1  0  0  0  0  0  0
  189.8930  177.5430  146.5240 C   0  0  0  0  0  0  0  0  0  0  0  0
  189.5290  176.5130  144.3050 C   0  0  1  0  0  3  0  0  0  0  0  0
  189.4310  178.4120  147.6440 C   0  0  0  0  0  2  0  0  0  0  0  0
  188.2030  177.8090  148.2970 C   0  0  0  0  0  1  0  0  0  0  0  0
  189.5260  178.3370  138.5640 S   0  0  2  0  0  0  0  0  0  0  0  0
  188.2650  179.1630  138.3470 O   0  0  0  0  0  0  0  0  0  0  0  0
  188.6450  176.8960  136.5660 O   0  0  0  0  0  0  0  0  0  0  0  0
  189.2770  176.8560  137.6100 C   0  0  0  0  0  0  0  0  0  0  0  0
  189.8740  175.5670  138.0690 C   0  0  0  0  0  2  0  0  0  0  0  0
  191.2850  175.4580  137.6050 C   0  0  0  0  0  0  0  0  0  0  0  0
  192.0420  174.5790  138.0910 O   0  0  0  0  0  1  0  0  0  0  0  0
  191.7750  176.3450  136.6540 O   0  0  0  0  0  0  0  0  0  0  0  0
  186.8290  177.3800  142.9750 C   0  0  0  0  0  2  0  0  0  0  0  0
  185.9710  178.5490  142.5330 C   0  0  0  0  0  2  0  0  0  0  0  0
  184.5830  178.4190  143.1390 C   0  0  0  0  0  2  0  0  0  0  0  0
  183.4920  178.7130  142.1160 C   0  0  2  0  0  3  0  0  0  0  0  0
  182.2510  178.8250  142.7480 O   0  0  0  0  0  1  0  0  0  0  0  0
  183.4480  177.6670  141.1060 N   0  0  0  0  0  2  0  0  0  0  0  0
  182.6460  178.1680  140.0030 C   0  0  0  0  0  2  0  0  0  0  0  0
  185.3580  177.6600  137.3430 C   0  0  0  0  0  3  0  0  0  0  0  0
  183.1850  176.8240  136.4850 C   0  0  0  0  0  2  0  0  0  0  0  0
  182.6280  177.2040  137.7900 N   0  0  0  0  0  0  0  0  0  0  0  0
  183.3010  177.8260  138.7120 C   0  0  0  0  0  0  0  0  0  0  0  0
  184.6910  178.1040  138.5250 N   0  0  0  0  0  2  0  0  0  0  0  0
  184.6740  177.0390  136.3840 C   0  0  0  0  0  3  0  0  0  0  0  0
  1 11  1  0  0  0  0
  1 25  1  0  0  0  0
  2  4  1  0  0  0  0
  3 11  2  0  0  0  0
  3  5  1  0  0  0  0
  4  8  2  0  0  0  0
  5  2  2  0  0  0  0
  6  3  1  0  0  0  0
  7 13  2  0  0  0  0
  8 12  1  0  0  0  0
  9  1  2  0  0  0  0
 10  6  2  0  0  0  0
 10  9  1  0  0  0  0
 11 14  1  0  0  0  0
 13  8  1  0  0  0  0
 13 15  1  0  0  0  0
 14  2  1  0  0  0  0
 14  7  1  1  0  0  0
 15 16  1  0  0  0  0
 17 18  2  1  0  0  0
 17 10  1  0  0  0  0
 19 20  2  0  0  0  0
 20 21  1  0  0  0  0
 20 17  1  0  0  0  0
 22 21  1  0  0  0  0
 22 23  1  0  0  0  0
 24 22  2  0  0  0  0
 26 25  1  0  0  0  0
 26 27  1  0  0  0  0
 28 29  1  1  0  0  0
 28 27  1  0  0  0  0
 30 28  1  0  0  0  0
 31 30  1  0  0  0  0
 32 36  1  0  0  0  0
 33 34  1  0  0  0  0
 34 35  2  0  0  0  0
 35 31  1  0  0  0  0
 36 35  1  0  0  0  0
 37 33  1  0  0  0  0
 37 32  2  0  0  0  0
M  END
>  <MODEL>
8

>  <REMARK>
 VINA RESULT:      -7.6      1.984      2.911
  Name = 
  12 active torsions:
  status: ('A' for Active; 'I' for Inactive)
    1  A    between atoms: C_1  and  C_13
    2  A    between atoms: C_3  and  C_34
    3  A    between atoms: C_9  and  C_13
    4  A    between atoms: C_9  and  C_16
    5  A    between atoms: C_12  and  C_16
    6  A    between atoms: C_12  and  N_33
    7  A    between atoms: C_18  and  C_31
    8  A    between atoms: S_19  and  C_21
    9  A    between atoms: S_19  and  C_28
   10  A    between atoms: C_21  and  C_34
   11  A    between atoms: C_23  and  C_24
   12  A    between atoms: C_24  and  N_33
                            x       y       z     vdW  Elec       q    Type
                         _______ _______ _______ _____ _____    ______ ____

>  <TORSDO>
F 12

$$$$
=
 OpenBabel10232411573D

 37 40  0  0  1  0  0  0  0  0999 V2000
  184.7880  179.0160  142.2000 C   0  0  0  0  0  0  0  0  0  0  0  0
  185.0200  179.0210  145.8750 C   0  0  0  0  0  0  0  0  0  0  0  0
  183.5220  178.7990  144.2490 C   0  0  0  0  0  0  0  0  0  0  0  0
  185.7040  178.6910  147.0850 N   0  0  0  0  0  0  0  0  0  0  0  0
  183.7240  178.7820  145.6880 C   0  0  0  0  0  3  0  0  0  0  0  0
  182.3350  178.5990  143.5480 C   0  0  0  0  0  3  0  0  0  0  0  0
  186.9370  178.2520  144.5620 C   0  0  0  0  0  3  0  0  0  0  0  0
  186.8940  178.1640  147.0220 C   0  0  0  0  0  0  0  0  0  0  0  0
  183.6010  178.8300  141.4750 C   0  0  0  0  0  3  0  0  0  0  0  0
  182.3800  178.6140  142.1430 C   0  0  0  0  0  0  0  0  0  0  0  0
  184.7230  178.9790  143.5990 C   0  0  0  0  0  0  0  0  0  0  0  0
  187.5680  177.8210  148.2290 N   0  0  0  0  0  1  0  0  0  0  0  0
  187.4960  177.8100  145.7000 C   0  0  0  0  0  0  0  0  0  0  0  0
  185.7920  179.2280  144.6040 C   0  0  1  0  0  3  0  0  0  0  0  0
  188.6940  176.9250  145.6230 C   0  0  0  0  0  2  0  0  0  0  0  0
  189.3270  177.0270  144.2490 C   0  0  0  0  0  1  0  0  0  0  0  0
  180.8980  178.3730  141.1970 S   0  0  2  0  0  0  0  0  0  0  0  0
  181.2580  177.3240  140.1530 O   0  0  0  0  0  0  0  0  0  0  0  0
  180.2850  180.8910  140.8400 O   0  0  0  0  0  0  0  0  0  0  0  0
  180.6680  179.8790  140.2760 C   0  0  0  0  0  0  0  0  0  0  0  0
  180.9810  179.9120  138.8170 C   0  0  0  0  0  2  0  0  0  0  0  0
  181.9050  181.0410  138.5130 C   0  0  0  0  0  0  0  0  0  0  0  0
  181.4730  182.0690  137.9290 O   0  0  0  0  0  0  0  0  0  0  0  0
  183.2490  180.9490  138.8510 O   0  0  0  0  0  1  0  0  0  0  0  0
  186.0670  179.2940  141.4850 C   0  0  0  0  0  2  0  0  0  0  0  0
  186.6370  178.0040  140.9290 C   0  0  0  0  0  2  0  0  0  0  0  0
  187.0800  178.2220  139.4910 C   0  0  0  0  0  2  0  0  0  0  0  0
  188.5980  178.2630  139.3690 C   0  0  2  0  0  3  0  0  0  0  0  0
  188.9820  179.1770  138.3840 O   0  0  0  0  0  1  0  0  0  0  0  0
  189.1180  176.9410  139.0550 N   0  0  0  0  0  2  0  0  0  0  0  0
  190.4960  176.9010  139.5150 C   0  0  0  0  0  2  0  0  0  0  0  0
  193.4850  175.7420  137.4160 C   0  0  0  0  0  3  0  0  0  0  0  0
  191.6100  174.1400  137.1470 C   0  0  0  0  0  2  0  0  0  0  0  0
  190.8720  174.9860  138.0940 N   0  0  0  0  0  0  0  0  0  0  0  0
  191.3210  176.1140  138.5590 C   0  0  0  0  0  0  0  0  0  0  0  0
  192.6390  176.5570  138.2260 N   0  0  0  0  0  2  0  0  0  0  0  0
  193.0290  174.5940  136.9170 C   0  0  0  0  0  3  0  0  0  0  0  0
  1 11  1  0  0  0  0
  2  4  1  0  0  0  0
  3  5  1  0  0  0  0
  5  2  2  0  0  0  0
  6  3  1  0  0  0  0
  7 13  2  0  0  0  0
  8  4  2  0  0  0  0
  8 12  1  0  0  0  0
  9 10  1  0  0  0  0
  9  1  2  0  0  0  0
 10  6  2  0  0  0  0
 11  3  2  0  0  0  0
 11 14  1  0  0  0  0
 13  8  1  0  0  0  0
 14  7  1  6  0  0  0
 14  2  1  0  0  0  0
 15 13  1  0  0  0  0
 16 15  1  0  0  0  0
 17 18  2  6  0  0  0
 17 10  1  0  0  0  0
 20 19  2  0  0  0  0
 20 17  1  0  0  0  0
 21 20  1  0  0  0  0
 22 21  1  0  0  0  0
 22 24  1  0  0  0  0
 23 22  2  0  0  0  0
 25  1  1  0  0  0  0
 26 25  1  0  0  0  0
 27 26  1  0  0  0  0
 28 29  1  6  0  0  0
 28 27  1  0  0  0  0
 30 28  1  0  0  0  0
 30 31  1  0  0  0  0
 32 36  1  0  0  0  0
 33 34  1  0  0  0  0
 34 35  2  0  0  0  0
 35 31  1  0  0  0  0
 36 35  1  0  0  0  0
 37 33  1  0  0  0  0
 37 32  2  0  0  0  0
M  END
>  <MODEL>
9

>  <REMARK>
 VINA RESULT:      -7.5      3.884      8.028
  Name = 
  12 active torsions:
  status: ('A' for Active; 'I' for Inactive)
    1  A    between atoms: C_1  and  C_13
    2  A    between atoms: C_3  and  C_34
    3  A    between atoms: C_9  and  C_13
    4  A    between atoms: C_9  and  C_16
    5  A    between atoms: C_12  and  C_16
    6  A    between atoms: C_12  and  N_33
    7  A    between atoms: C_18  and  C_31
    8  A    between atoms: S_19  and  C_21
    9  A    between atoms: S_19  and  C_28
   10  A    between atoms: C_21  and  C_34
   11  A    between atoms: C_23  and  C_24
   12  A    between atoms: C_24  and  N_33
                            x       y       z     vdW  Elec       q    Type
                         _______ _______ _______ _____ _____    ______ ____

>  <TORSDO>
F 12

$$$$
