=
 OpenBabel10232409063D

 28 31  0  0  1  0  0  0  0  0999 V2000
  189.6840  176.3480  139.4830 N   0  0  0  0  0  0  0  0  0  0  0  0
  189.3570  178.5280  137.4480 C   0  0  0  0  0  3  0  0  0  0  0  0
  188.3510  178.3910  139.7600 C   0  0  0  0  0  0  0  0  0  0  0  0
  190.0060  174.6310  137.4990 Cl  0  0  0  0  0  0  0  0  0  0  0  0
  188.4570  178.9460  138.5390 C   0  0  0  0  0  3  0  0  0  0  0  0
  189.2660  177.3220  140.2400 C   0  0  0  0  0  0  0  0  0  0  0  0
  189.2960  176.1470  138.0950 C   0  0  2  0  0  3  0  0  0  0  0  0
  189.7710  177.2790  137.2510 C   0  0  0  0  0  3  0  0  0  0  0  0
  188.3010  177.2230  143.5670 C   0  0  0  0  0  2  0  0  0  0  0  0
  188.8370  176.4510  142.4580 N   0  0  0  0  0  2  0  0  0  0  0  0
  191.1510  176.9650  141.8220 C   0  0  0  0  0  2  0  0  0  0  0  0
  191.6790  177.3340  143.2020 C   0  0  0  0  0  2  0  0  0  0  0  0
  190.3720  177.2220  144.9970 C   0  0  1  0  0  3  0  0  0  0  0  0
  191.1830  176.4450  144.1610 O   0  0  0  0  0  0  0  0  0  0  0  0
  188.9210  176.7680  144.8820 C   0  0  0  0  0  2  0  0  0  0  0  0
  189.6810  177.3470  141.6790 C   0  0  1  0  0  3  0  0  0  0  0  0
  190.8240  177.1270  146.4270 C   0  0  0  0  0  0  0  0  0  0  0  0
  189.8560  177.2320  147.5600 C   0  0  0  0  0  1  0  0  0  0  0  0
  192.0060  176.9460  146.6720 O   0  0  0  0  0  0  0  0  0  0  0  0
  187.4340  178.9470  140.7150 N   0  0  0  0  0  2  0  0  0  0  0  0
  185.4200  178.2270  142.1110 C   0  0  0  0  0  3  0  0  0  0  0  0
  183.5590  179.8330  139.0100 C   0  0  0  0  0  3  0  0  0  0  0  0
  183.9090  178.5470  140.6330 N   0  0  0  0  0  0  0  0  0  0  0  0
  184.0710  178.2550  141.9090 N   0  0  0  0  0  2  0  0  0  0  0  0
  185.0370  178.7830  140.0340 C   0  0  0  0  0  0  0  0  0  0  0  0
  186.0640  178.5730  140.9110 C   0  0  0  0  0  0  0  0  0  0  0  0
  184.9110  179.6130  138.9880 N   0  0  0  0  0  0  0  0  0  0  0  0
  182.9390  179.2220  140.0600 N   0  0  0  0  0  0  0  0  0  0  0  0
  1  6  2  0  0  0  0
  2  5  1  0  0  0  0
  3  6  1  0  0  0  0
  3 20  1  0  0  0  0
  5  3  2  0  0  0  0
  7  4  1  6  0  0  0
  7  1  1  0  0  0  0
  8  2  2  0  0  0  0
  8  7  1  0  0  0  0
  9 15  1  0  0  0  0
 10  9  1  0  0  0  0
 11 12  1  0  0  0  0
 12 14  1  0  0  0  0
 13 17  1  1  0  0  0
 14 13  1  0  0  0  0
 15 13  1  0  0  0  0
 16  6  1  6  0  0  0
 16 11  1  0  0  0  0
 16 10  1  0  0  0  0
 17 19  2  0  0  0  0
 17 18  1  0  0  0  0
 20 26  1  0  0  0  0
 22 28  2  0  0  0  0
 23 24  1  0  0  0  0
 24 21  1  0  0  0  0
 25 23  1  0  0  0  0
 25 26  1  0  0  0  0
 26 21  2  0  0  0  0
 27 22  1  0  0  0  0
 27 25  2  0  0  0  0
 28 23  1  0  0  0  0
M  END
>  <MODEL>
1

>  <REMARK>
 VINA RESULT:      -7.9      0.000      0.000
  Name = 
  4 active torsions:
  status: ('A' for Active; 'I' for Inactive)
    1  A    between atoms: C_4  and  C_21
    2  A    between atoms: N_9  and  C_10
    3  A    between atoms: N_9  and  C_19
    4  A    between atoms: C_20  and  C_28
                            x       y       z     vdW  Elec       q    Type
                         _______ _______ _______ _____ _____    ______ ____

>  <TORSDO>
F 4

$$$$
=
 OpenBabel10232409063D

 28 31  0  0  1  0  0  0  0  0999 V2000
  190.4540  176.6770  140.7020 N   0  0  0  0  0  0  0  0  0  0  0  0
  188.8230  178.7260  139.2390 C   0  0  0  0  0  3  0  0  0  0  0  0
  188.2530  177.5260  141.3860 C   0  0  0  0  0  0  0  0  0  0  0  0
  191.4880  175.9370  138.3850 Cl  0  0  0  0  0  0  0  0  0  0  0  0
  187.9360  178.3150  140.3440 C   0  0  0  0  0  3  0  0  0  0  0  0
  189.6390  177.0550  141.6460 C   0  0  0  0  0  0  0  0  0  0  0  0
  190.1210  176.6280  139.2860 C   0  0  2  0  0  3  0  0  0  0  0  0
  189.8310  177.9940  138.7700 C   0  0  0  0  0  3  0  0  0  0  0  0
  191.3470  175.2550  144.0670 C   0  0  0  0  0  2  0  0  0  0  0  0
  191.4220  176.3690  143.1350 N   0  0  0  0  0  2  0  0  0  0  0  0
  190.0890  178.3420  143.7260 C   0  0  0  0  0  2  0  0  0  0  0  0
  190.1880  178.2270  145.2410 C   0  0  0  0  0  2  0  0  0  0  0  0
  191.3720  176.6040  146.1910 C   0  0  1  0  0  3  0  0  0  0  0  0
  191.4890  177.8730  145.6120 O   0  0  0  0  0  0  0  0  0  0  0  0
  192.1130  175.5750  145.3430 C   0  0  0  0  0  2  0  0  0  0  0  0
  190.0940  176.9640  143.0700 C   0  0  1  0  0  3  0  0  0  0  0  0
  191.9170  176.5970  147.5920 C   0  0  0  0  0  0  0  0  0  0  0  0
  192.7920  175.4900  148.0830 C   0  0  0  0  0  1  0  0  0  0  0  0
  191.6530  177.5220  148.3430 O   0  0  0  0  0  0  0  0  0  0  0  0
  187.2670  177.2470  142.3920 N   0  0  0  0  0  2  0  0  0  0  0  0
  185.2300  178.7870  142.4190 C   0  0  0  0  0  3  0  0  0  0  0  0
  185.6340  178.1240  146.3000 C   0  0  0  0  0  3  0  0  0  0  0  0
  185.1610  179.1440  144.5260 N   0  0  0  0  0  0  0  0  0  0  0  0
  184.4820  179.3490  143.4140 N   0  0  0  0  0  2  0  0  0  0  0  0
  186.2300  178.4340  144.3290 C   0  0  0  0  0  0  0  0  0  0  0  0
  186.3630  178.1830  142.9920 C   0  0  0  0  0  0  0  0  0  0  0  0
  186.5990  177.7320  145.4110 N   0  0  0  0  0  0  0  0  0  0  0  0
  184.7060  178.9550  145.7440 N   0  0  0  0  0  0  0  0  0  0  0  0
  1  6  2  0  0  0  0
  2  5  1  0  0  0  0
  3  6  1  0  0  0  0
  3 20  1  0  0  0  0
  5  3  2  0  0  0  0
  7  4  1  6  0  0  0
  7  1  1  0  0  0  0
  8  2  2  0  0  0  0
  8  7  1  0  0  0  0
  9 15  1  0  0  0  0
 10  9  1  0  0  0  0
 11 12  1  0  0  0  0
 12 14  1  0  0  0  0
 13 17  1  1  0  0  0
 14 13  1  0  0  0  0
 15 13  1  0  0  0  0
 16  6  1  6  0  0  0
 16 10  1  0  0  0  0
 16 11  1  0  0  0  0
 17 18  1  0  0  0  0
 17 19  2  0  0  0  0
 20 26  1  0  0  0  0
 21 26  2  0  0  0  0
 21 24  1  0  0  0  0
 23 28  1  0  0  0  0
 24 23  1  0  0  0  0
 25 23  1  0  0  0  0
 25 27  2  0  0  0  0
 26 25  1  0  0  0  0
 27 22  1  0  0  0  0
 28 22  2  0  0  0  0
M  END
>  <MODEL>
2

>  <REMARK>
 VINA RESULT:      -7.9      2.118      3.238
  Name = 
  4 active torsions:
  status: ('A' for Active; 'I' for Inactive)
    1  A    between atoms: C_4  and  C_21
    2  A    between atoms: N_9  and  C_10
    3  A    between atoms: N_9  and  C_19
    4  A    between atoms: C_20  and  C_28
                            x       y       z     vdW  Elec       q    Type
                         _______ _______ _______ _____ _____    ______ ____

>  <TORSDO>
F 4

$$$$
=
 OpenBabel10232409063D

 28 31  0  0  1  0  0  0  0  0999 V2000
  190.3630  178.3930  142.9360 N   0  0  0  0  0  0  0  0  0  0  0  0
  189.8230  176.7700  145.4010 C   0  0  0  0  0  3  0  0  0  0  0  0
  188.2480  177.2780  143.4940 C   0  0  0  0  0  0  0  0  0  0  0  0
  192.1020  179.8150  144.3300 Cl  0  0  0  0  0  0  0  0  0  0  0  0
  188.5120  176.8050  144.7250 C   0  0  0  0  0  3  0  0  0  0  0  0
  189.3130  177.7220  142.5560 C   0  0  0  0  0  0  0  0  0  0  0  0
  190.6240  178.8290  144.3000 C   0  0  2  0  0  3  0  0  0  0  0  0
  190.7970  177.6540  145.1990 C   0  0  0  0  0  3  0  0  0  0  0  0
  187.3940  178.1210  139.6980 C   0  0  0  0  0  2  0  0  0  0  0  0
  188.5720  178.5800  140.4160 N   0  0  0  0  0  2  0  0  0  0  0  0
  190.4640  177.0190  140.4670 C   0  0  0  0  0  2  0  0  0  0  0  0
  190.2470  176.3680  139.1080 C   0  0  0  0  0  2  0  0  0  0  0  0
  188.5920  177.0230  137.7760 C   0  0  1  0  0  3  0  0  0  0  0  0
  189.9020  177.3360  138.1600 O   0  0  0  0  0  0  0  0  0  0  0  0
  187.6450  178.1420  138.1960 C   0  0  0  0  0  2  0  0  0  0  0  0
  189.1360  177.4240  141.0990 C   0  0  1  0  0  3  0  0  0  0  0  0
  188.5030  176.8100  136.2900 C   0  0  0  0  0  0  0  0  0  0  0  0
  189.6800  177.0320  135.3980 C   0  0  0  0  0  1  0  0  0  0  0  0
  187.4500  176.4340  135.8010 O   0  0  0  0  0  0  0  0  0  0  0  0
  186.9090  177.2090  142.9780 N   0  0  0  0  0  2  0  0  0  0  0  0
  184.7120  178.4150  142.4890 C   0  0  0  0  0  3  0  0  0  0  0  0
  184.6610  178.4880  146.4450 C   0  0  0  0  0  3  0  0  0  0  0  0
  184.3110  179.1110  144.4700 N   0  0  0  0  0  0  0  0  0  0  0  0
  183.7710  179.0210  143.2700 N   0  0  0  0  0  2  0  0  0  0  0  0
  185.4780  178.5420  144.5310 C   0  0  0  0  0  0  0  0  0  0  0  0
  185.8220  178.0900  143.2870 C   0  0  0  0  0  0  0  0  0  0  0  0
  185.7800  178.0960  145.7590 N   0  0  0  0  0  0  0  0  0  0  0  0
  183.7220  179.0670  145.6430 N   0  0  0  0  0  0  0  0  0  0  0  0
  1  7  1  0  0  0  0
  3  5  2  0  0  0  0
  5  2  1  0  0  0  0
  6  1  2  0  0  0  0
  6  3  1  0  0  0  0
  7  4  1  6  0  0  0
  7  8  1  0  0  0  0
  8  2  2  0  0  0  0
  9 10  1  0  0  0  0
 10 16  1  0  0  0  0
 11 16  1  0  0  0  0
 12 11  1  0  0  0  0
 13 17  1  6  0  0  0
 13 14  1  0  0  0  0
 13 15  1  0  0  0  0
 14 12  1  0  0  0  0
 15  9  1  0  0  0  0
 16  6  1  1  0  0  0
 18 17  1  0  0  0  0
 19 17  2  0  0  0  0
 20 26  1  0  0  0  0
 20  3  1  0  0  0  0
 21 24  1  0  0  0  0
 21 26  2  0  0  0  0
 23 25  1  0  0  0  0
 23 28  1  0  0  0  0
 24 23  1  0  0  0  0
 25 27  2  0  0  0  0
 26 25  1  0  0  0  0
 27 22  1  0  0  0  0
 28 22  2  0  0  0  0
M  END
>  <MODEL>
3

>  <REMARK>
 VINA RESULT:      -7.7      3.286      6.308
  Name = 
  4 active torsions:
  status: ('A' for Active; 'I' for Inactive)
    1  A    between atoms: C_4  and  C_21
    2  A    between atoms: N_9  and  C_10
    3  A    between atoms: N_9  and  C_19
    4  A    between atoms: C_20  and  C_28
                            x       y       z     vdW  Elec       q    Type
                         _______ _______ _______ _____ _____    ______ ____

>  <TORSDO>
F 4

$$$$
=
 OpenBabel10232409063D

 28 31  0  0  1  0  0  0  0  0999 V2000
  185.2870  178.2240  142.3480 N   0  0  0  0  0  0  0  0  0  0  0  0
  184.5610  179.7060  144.8530 C   0  0  0  0  0  3  0  0  0  0  0  0
  186.4280  178.0390  144.5140 C   0  0  0  0  0  0  0  0  0  0  0  0
  182.7470  178.3320  141.6230 Cl  0  0  0  0  0  0  0  0  0  0  0  0
  185.6470  178.8080  145.2930 C   0  0  0  0  0  3  0  0  0  0  0  0
  186.3900  178.0980  143.0290 C   0  0  0  0  0  0  0  0  0  0  0  0
  183.9540  178.2870  142.9270 C   0  0  2  0  0  3  0  0  0  0  0  0
  183.8100  179.5040  143.7740 C   0  0  0  0  0  3  0  0  0  0  0  0
  189.5050  176.5900  142.8420 C   0  0  0  0  0  2  0  0  0  0  0  0
  188.1400  176.5710  142.3420 N   0  0  0  0  0  2  0  0  0  0  0  0
  187.5290  178.4130  140.8410 C   0  0  0  0  0  2  0  0  0  0  0  0
  188.8880  178.6200  140.1860 C   0  0  0  0  0  2  0  0  0  0  0  0
  190.6220  177.3310  140.7120 C   0  0  1  0  0  3  0  0  0  0  0  0
  189.4790  177.3850  139.9040 O   0  0  0  0  0  0  0  0  0  0  0  0
  190.4820  176.2110  141.7370 C   0  0  0  0  0  2  0  0  0  0  0  0
  187.6840  177.9530  142.2880 C   0  0  1  0  0  3  0  0  0  0  0  0
  191.8580  177.1140  139.8850 C   0  0  0  0  0  0  0  0  0  0  0  0
  191.7840  176.5390  138.5080 C   0  0  0  0  0  1  0  0  0  0  0  0
  192.9460  177.4270  140.3390 O   0  0  0  0  0  0  0  0  0  0  0  0
  187.4610  177.2410  145.1130 N   0  0  0  0  0  2  0  0  0  0  0  0
  187.7870  177.6620  147.6100 C   0  0  0  0  0  3  0  0  0  0  0  0
  191.4860  176.6860  146.5980 C   0  0  0  0  0  3  0  0  0  0  0  0
  189.9240  177.6300  147.6370 N   0  0  0  0  0  0  0  0  0  0  0  0
  188.8740  177.6670  148.4350 N   0  0  0  0  0  2  0  0  0  0  0  0
  189.5910  177.5220  146.3860 C   0  0  0  0  0  0  0  0  0  0  0  0
  188.2290  177.5620  146.2800 C   0  0  0  0  0  0  0  0  0  0  0  0
  190.5280  176.9130  145.6450 N   0  0  0  0  0  0  0  0  0  0  0  0
  191.0970  177.0760  147.8460 N   0  0  0  0  0  0  0  0  0  0  0  0
  1  7  1  0  0  0  0
  1  6  2  0  0  0  0
  2  5  1  0  0  0  0
  3 20  1  0  0  0  0
  3  5  2  0  0  0  0
  6  3  1  0  0  0  0
  7  4  1  6  0  0  0
  7  8  1  0  0  0  0
  8  2  2  0  0  0  0
 10  9  1  0  0  0  0
 11 16  1  0  0  0  0
 12 11  1  0  0  0  0
 13 17  1  6  0  0  0
 13 15  1  0  0  0  0
 14 12  1  0  0  0  0
 14 13  1  0  0  0  0
 15  9  1  0  0  0  0
 16 10  1  0  0  0  0
 16  6  1  1  0  0  0
 17 19  2  0  0  0  0
 18 17  1  0  0  0  0
 20 26  1  0  0  0  0
 21 24  1  0  0  0  0
 22 28  2  0  0  0  0
 23 28  1  0  0  0  0
 23 24  1  0  0  0  0
 25 23  1  0  0  0  0
 26 25  1  0  0  0  0
 26 21  2  0  0  0  0
 27 25  2  0  0  0  0
 27 22  1  0  0  0  0
M  END
>  <MODEL>
4

>  <REMARK>
 VINA RESULT:      -7.6      3.367      6.942
  Name = 
  4 active torsions:
  status: ('A' for Active; 'I' for Inactive)
    1  A    between atoms: C_4  and  C_21
    2  A    between atoms: N_9  and  C_10
    3  A    between atoms: N_9  and  C_19
    4  A    between atoms: C_20  and  C_28
                            x       y       z     vdW  Elec       q    Type
                         _______ _______ _______ _____ _____    ______ ____

>  <TORSDO>
F 4

$$$$
=
 OpenBabel10232409063D

 28 31  0  0  1  0  0  0  0  0999 V2000
  188.2480  178.5910  139.4710 N   0  0  0  0  0  0  0  0  0  0  0  0
  190.3850  176.5010  139.7260 C   0  0  0  0  0  3  0  0  0  0  0  0
  189.3780  177.9300  141.5480 C   0  0  0  0  0  0  0  0  0  0  0  0
  189.0790  179.0500  137.0040 Cl  0  0  0  0  0  0  0  0  0  0  0  0
  190.2970  177.0630  141.0870 C   0  0  0  0  0  3  0  0  0  0  0  0
  188.1960  178.3490  140.7500 C   0  0  0  0  0  0  0  0  0  0  0  0
  189.4530  178.5220  138.6590 C   0  0  2  0  0  3  0  0  0  0  0  0
  189.9810  177.1300  138.6250 C   0  0  0  0  0  3  0  0  0  0  0  0
  184.8680  179.3040  140.5780 C   0  0  0  0  0  2  0  0  0  0  0  0
  185.7840  178.1750  140.6100 N   0  0  0  0  0  2  0  0  0  0  0  0
  186.8730  177.7490  142.7680 C   0  0  0  0  0  2  0  0  0  0  0  0
  185.7450  178.2170  143.6770 C   0  0  0  0  0  2  0  0  0  0  0  0
  183.8180  178.9360  142.8350 C   0  0  1  0  0  3  0  0  0  0  0  0
  184.5140  177.7730  143.1850 O   0  0  0  0  0  0  0  0  0  0  0  0
  183.5860  178.9710  141.3280 C   0  0  0  0  0  2  0  0  0  0  0  0
  186.8980  178.5510  141.4700 C   0  0  1  0  0  3  0  0  0  0  0  0
  182.5010  179.0140  143.5550 C   0  0  0  0  0  0  0  0  0  0  0  0
  181.2190  179.2220  142.8160 C   0  0  0  0  0  1  0  0  0  0  0  0
  182.4730  178.8910  144.7690 O   0  0  0  0  0  0  0  0  0  0  0  0
  189.4280  178.3560  142.9190 N   0  0  0  0  0  2  0  0  0  0  0  0
  191.5730  177.9510  144.2430 C   0  0  0  0  0  3  0  0  0  0  0  0
  188.8870  177.0660  147.0120 C   0  0  0  0  0  3  0  0  0  0  0  0
  190.6930  176.9970  145.9420 N   0  0  0  0  0  0  0  0  0  0  0  0
  191.8360  177.4850  145.4990 N   0  0  0  0  0  2  0  0  0  0  0  0
  189.7180  177.1870  145.1060 C   0  0  0  0  0  0  0  0  0  0  0  0
  190.2060  177.7730  143.9720 C   0  0  0  0  0  0  0  0  0  0  0  0
  188.5210  177.2610  145.7060 N   0  0  0  0  0  0  0  0  0  0  0  0
  190.2380  176.9590  147.1740 N   0  0  0  0  0  0  0  0  0  0  0  0
  1  6  2  0  0  0  0
  2  5  1  0  0  0  0
  3 20  1  0  0  0  0
  5  3  2  0  0  0  0
  6  3  1  0  0  0  0
  7  4  1  6  0  0  0
  7  1  1  0  0  0  0
  8  7  1  0  0  0  0
  8  2  2  0  0  0  0
  9 10  1  0  0  0  0
  9 15  1  0  0  0  0
 10 16  1  0  0  0  0
 11 12  1  0  0  0  0
 13 14  1  0  0  0  0
 13 17  1  1  0  0  0
 14 12  1  0  0  0  0
 15 13  1  0  0  0  0
 16  6  1  6  0  0  0
 16 11  1  0  0  0  0
 17 19  2  0  0  0  0
 18 17  1  0  0  0  0
 20 26  1  0  0  0  0
 21 24  1  0  0  0  0
 22 28  2  0  0  0  0
 23 28  1  0  0  0  0
 24 23  1  0  0  0  0
 25 27  2  0  0  0  0
 25 23  1  0  0  0  0
 26 21  2  0  0  0  0
 26 25  1  0  0  0  0
 27 22  1  0  0  0  0
M  END
>  <MODEL>
5

>  <REMARK>
 VINA RESULT:      -7.5      3.204      6.405
  Name = 
  4 active torsions:
  status: ('A' for Active; 'I' for Inactive)
    1  A    between atoms: C_4  and  C_21
    2  A    between atoms: N_9  and  C_10
    3  A    between atoms: N_9  and  C_19
    4  A    between atoms: C_20  and  C_28
                            x       y       z     vdW  Elec       q    Type
                         _______ _______ _______ _____ _____    ______ ____

>  <TORSDO>
F 4

$$$$
=
 OpenBabel10232409063D

 28 31  0  0  1  0  0  0  0  0999 V2000
  190.1280  178.2450  142.7220 N   0  0  0  0  0  0  0  0  0  0  0  0
  188.8340  176.9520  145.1000 C   0  0  0  0  0  3  0  0  0  0  0  0
  187.7330  177.7670  142.9790 C   0  0  0  0  0  0  0  0  0  0  0  0
  191.9810  179.2170  144.3380 Cl  0  0  0  0  0  0  0  0  0  0  0  0
  187.6880  177.3030  144.2400 C   0  0  0  0  0  3  0  0  0  0  0  0
  188.9970  177.8620  142.2010 C   0  0  0  0  0  0  0  0  0  0  0  0
  190.3080  178.6630  144.1050 C   0  0  2  0  0  3  0  0  0  0  0  0
  190.0300  177.5310  145.0320 C   0  0  0  0  0  3  0  0  0  0  0  0
  187.4670  178.4130  139.1410 C   0  0  0  0  0  2  0  0  0  0  0  0
  188.6060  178.7470  139.9810 N   0  0  0  0  0  2  0  0  0  0  0  0
  190.2770  176.9730  140.2630 C   0  0  0  0  0  2  0  0  0  0  0  0
  190.1330  176.3180  138.8960 C   0  0  0  0  0  2  0  0  0  0  0  0
  188.7270  177.1310  137.3790 C   0  0  1  0  0  3  0  0  0  0  0  0
  190.0140  177.2960  137.9040 O   0  0  0  0  0  0  0  0  0  0  0  0
  187.8820  178.3660  137.6760 C   0  0  0  0  0  2  0  0  0  0  0  0
  188.9460  177.5490  140.7370 C   0  0  1  0  0  3  0  0  0  0  0  0
  188.7760  176.8930  135.8960 C   0  0  0  0  0  0  0  0  0  0  0  0
  190.0560  176.5620  135.2010 C   0  0  0  0  0  1  0  0  0  0  0  0
  187.7460  176.9560  135.2440 O   0  0  0  0  0  0  0  0  0  0  0  0
  186.5090  178.0330  142.2750 N   0  0  0  0  0  2  0  0  0  0  0  0
  184.9750  179.2650  143.9030 C   0  0  0  0  0  3  0  0  0  0  0  0
  182.3840  178.4190  141.0330 C   0  0  0  0  0  3  0  0  0  0  0  0
  183.1120  178.7870  142.9680 N   0  0  0  0  0  0  0  0  0  0  0  0
  183.6360  179.5310  143.9230 N   0  0  0  0  0  2  0  0  0  0  0  0
  184.0150  178.1370  142.2970 C   0  0  0  0  0  0  0  0  0  0  0  0
  185.2420  178.3690  142.8520 C   0  0  0  0  0  0  0  0  0  0  0  0
  183.6400  177.8710  141.0370 N   0  0  0  0  0  0  0  0  0  0  0  0
  182.0710  179.0380  142.2070 N   0  0  0  0  0  0  0  0  0  0  0  0
  1  7  1  0  0  0  0
  3  5  2  0  0  0  0
  5  2  1  0  0  0  0
  6  1  2  0  0  0  0
  6  3  1  0  0  0  0
  7  4  1  6  0  0  0
  7  8  1  0  0  0  0
  8  2  2  0  0  0  0
  9 10  1  0  0  0  0
 10 16  1  0  0  0  0
 11 16  1  0  0  0  0
 12 11  1  0  0  0  0
 13 17  1  6  0  0  0
 13 15  1  0  0  0  0
 13 14  1  0  0  0  0
 14 12  1  0  0  0  0
 15  9  1  0  0  0  0
 16  6  1  1  0  0  0
 18 17  1  0  0  0  0
 19 17  2  0  0  0  0
 20 26  1  0  0  0  0
 20  3  1  0  0  0  0
 21 24  1  0  0  0  0
 22 27  1  0  0  0  0
 22 28  2  0  0  0  0
 23 24  1  0  0  0  0
 25 26  1  0  0  0  0
 25 23  1  0  0  0  0
 26 21  2  0  0  0  0
 27 25  2  0  0  0  0
 28 23  1  0  0  0  0
M  END
>  <MODEL>
6

>  <REMARK>
 VINA RESULT:      -7.4      3.093      5.948
  Name = 
  4 active torsions:
  status: ('A' for Active; 'I' for Inactive)
    1  A    between atoms: C_4  and  C_21
    2  A    between atoms: N_9  and  C_10
    3  A    between atoms: N_9  and  C_19
    4  A    between atoms: C_20  and  C_28
                            x       y       z     vdW  Elec       q    Type
                         _______ _______ _______ _____ _____    ______ ____

>  <TORSDO>
F 4

$$$$
=
 OpenBabel10232409063D

 28 31  0  0  1  0  0  0  0  0999 V2000
  183.3040  178.7660  143.1060 N   0  0  0  0  0  0  0  0  0  0  0  0
  183.1320  177.6000  140.3480 C   0  0  0  0  0  3  0  0  0  0  0  0
  185.0990  178.7540  141.4310 C   0  0  0  0  0  0  0  0  0  0  0  0
  180.7070  179.2440  142.9980 Cl  0  0  0  0  0  0  0  0  0  0  0  0
  184.4680  178.2260  140.3670 C   0  0  0  0  0  3  0  0  0  0  0  0
  184.5690  178.6490  142.8160 C   0  0  0  0  0  0  0  0  0  0  0  0
  182.2520  179.0480  142.1420 C   0  0  2  0  0  3  0  0  0  0  0  0
  182.1330  177.9350  141.1590 C   0  0  0  0  0  3  0  0  0  0  0  0
  185.5180  179.4320  146.0560 C   0  0  0  0  0  2  0  0  0  0  0  0
  184.8580  178.4500  145.2120 N   0  0  0  0  0  2  0  0  0  0  0  0
  186.3270  177.1520  143.7370 C   0  0  0  0  0  2  0  0  0  0  0  0
  187.5570  177.1130  144.6340 C   0  0  0  0  0  2  0  0  0  0  0  0
  187.5350  178.0480  146.6510 C   0  0  1  0  0  3  0  0  0  0  0  0
  187.1790  176.8830  145.9600 O   0  0  0  0  0  0  0  0  0  0  0  0
  186.2830  178.7430  147.1780 C   0  0  0  0  0  2  0  0  0  0  0  0
  185.5490  178.4500  143.9310 C   0  0  1  0  0  3  0  0  0  0  0  0
  188.4640  177.7380  147.7910 C   0  0  0  0  0  0  0  0  0  0  0  0
  189.8070  177.1270  147.5580 C   0  0  0  0  0  1  0  0  0  0  0  0
  188.1210  178.0010  148.9320 O   0  0  0  0  0  0  0  0  0  0  0  0
  186.4180  179.3030  141.2740 N   0  0  0  0  0  2  0  0  0  0  0  0
  188.5060  177.8400  141.4140 C   0  0  0  0  0  3  0  0  0  0  0  0
  187.6350  177.4180  137.5770 C   0  0  0  0  0  3  0  0  0  0  0  0
  188.8030  177.5520  139.3160 N   0  0  0  0  0  0  0  0  0  0  0  0
  189.2390  177.1480  140.4940 N   0  0  0  0  0  2  0  0  0  0  0  0
  187.8060  178.3780  139.4160 C   0  0  0  0  0  0  0  0  0  0  0  0
  187.5670  178.6370  140.7370 C   0  0  0  0  0  0  0  0  0  0  0  0
  186.9930  178.3480  138.3500 N   0  0  0  0  0  0  0  0  0  0  0  0
  188.7260  176.8780  138.1920 N   0  0  0  0  0  0  0  0  0  0  0  0
  2  5  1  0  0  0  0
  2  8  2  0  0  0  0
  3  6  1  0  0  0  0
  5  3  2  0  0  0  0
  6  1  2  0  0  0  0
  7  4  1  1  0  0  0
  7  1  1  0  0  0  0
  8  7  1  0  0  0  0
  9 15  1  0  0  0  0
 10  9  1  0  0  0  0
 11 16  1  0  0  0  0
 11 12  1  0  0  0  0
 12 14  1  0  0  0  0
 13 15  1  0  0  0  0
 13 17  1  1  0  0  0
 14 13  1  0  0  0  0
 16  6  1  6  0  0  0
 16 10  1  0  0  0  0
 17 19  2  0  0  0  0
 18 17  1  0  0  0  0
 20  3  1  0  0  0  0
 22 28  2  0  0  0  0
 22 27  1  0  0  0  0
 23 25  1  0  0  0  0
 23 24  1  0  0  0  0
 24 21  1  0  0  0  0
 25 26  1  0  0  0  0
 26 20  1  0  0  0  0
 26 21  2  0  0  0  0
 27 25  2  0  0  0  0
 28 23  1  0  0  0  0
M  END
>  <MODEL>
7

>  <REMARK>
 VINA RESULT:      -7.4      3.241      5.351
  Name = 
  4 active torsions:
  status: ('A' for Active; 'I' for Inactive)
    1  A    between atoms: C_4  and  C_21
    2  A    between atoms: N_9  and  C_10
    3  A    between atoms: N_9  and  C_19
    4  A    between atoms: C_20  and  C_28
                            x       y       z     vdW  Elec       q    Type
                         _______ _______ _______ _____ _____    ______ ____

>  <TORSDO>
F 4

$$$$
=
 OpenBabel10232409063D

 28 31  0  0  1  0  0  0  0  0999 V2000
  190.0270  177.9750  142.4680 N   0  0  0  0  0  0  0  0  0  0  0  0
  187.9770  177.1760  144.5080 C   0  0  0  0  0  3  0  0  0  0  0  0
  187.5920  178.1840  142.2250 C   0  0  0  0  0  0  0  0  0  0  0  0
  191.7140  178.4570  144.4450 Cl  0  0  0  0  0  0  0  0  0  0  0  0
  187.1690  177.7970  143.4420 C   0  0  0  0  0  3  0  0  0  0  0  0
  188.9620  177.8990  141.7220 C   0  0  0  0  0  0  0  0  0  0  0  0
  190.0360  178.3770  143.8670 C   0  0  2  0  0  3  0  0  0  0  0  0
  189.2750  177.4000  144.6960 C   0  0  0  0  0  3  0  0  0  0  0  0
  187.9650  178.4760  138.4530 C   0  0  0  0  0  2  0  0  0  0  0  0
  188.9780  178.7580  139.4580 N   0  0  0  0  0  2  0  0  0  0  0  0
  190.4700  176.8930  140.0190 C   0  0  0  0  0  2  0  0  0  0  0  0
  190.5000  176.2190  138.6540 C   0  0  0  0  0  2  0  0  0  0  0  0
  189.4010  177.0830  136.9260 C   0  0  1  0  0  3  0  0  0  0  0  0
  190.5990  177.1810  137.6440 O   0  0  0  0  0  0  0  0  0  0  0  0
  188.6000  178.3730  137.0720 C   0  0  0  0  0  2  0  0  0  0  0  0
  189.1200  177.5590  140.2720 C   0  0  1  0  0  3  0  0  0  0  0  0
  189.6660  176.8100  135.4710 C   0  0  0  0  0  0  0  0  0  0  0  0
  190.2680  175.5210  135.0170 C   0  0  0  0  0  1  0  0  0  0  0  0
  189.3710  177.6530  134.6400 O   0  0  0  0  0  0  0  0  0  0  0  0
  186.6570  178.7520  141.2940 N   0  0  0  0  0  2  0  0  0  0  0  0
  184.3690  178.4190  142.3790 C   0  0  0  0  0  3  0  0  0  0  0  0
  183.2560  179.9250  138.8930 C   0  0  0  0  0  3  0  0  0  0  0  0
  183.1690  178.7720  140.6460 N   0  0  0  0  0  0  0  0  0  0  0  0
  183.0850  178.5890  141.9490 N   0  0  0  0  0  2  0  0  0  0  0  0
  184.3990  178.8110  140.2300 C   0  0  0  0  0  0  0  0  0  0  0  0
  185.2360  178.5650  141.2820 C   0  0  0  0  0  0  0  0  0  0  0  0
  184.5530  179.5440  139.1180 N   0  0  0  0  0  0  0  0  0  0  0  0
  182.4010  179.4990  139.8660 N   0  0  0  0  0  0  0  0  0  0  0  0
  1  7  1  0  0  0  0
  2  8  2  0  0  0  0
  3  5  2  0  0  0  0
  5  2  1  0  0  0  0
  6  3  1  0  0  0  0
  6  1  2  0  0  0  0
  7  4  1  1  0  0  0
  7  8  1  0  0  0  0
  9 10  1  0  0  0  0
 10 16  1  0  0  0  0
 11 16  1  0  0  0  0
 12 11  1  0  0  0  0
 13 17  1  6  0  0  0
 13 15  1  0  0  0  0
 13 14  1  0  0  0  0
 14 12  1  0  0  0  0
 15  9  1  0  0  0  0
 16  6  1  1  0  0  0
 18 17  1  0  0  0  0
 19 17  2  0  0  0  0
 20  3  1  0  0  0  0
 22 27  1  0  0  0  0
 22 28  2  0  0  0  0
 23 24  1  0  0  0  0
 24 21  1  0  0  0  0
 25 23  1  0  0  0  0
 25 26  1  0  0  0  0
 26 20  1  0  0  0  0
 26 21  2  0  0  0  0
 27 25  2  0  0  0  0
 28 23  1  0  0  0  0
M  END
>  <MODEL>
8

>  <REMARK>
 VINA RESULT:      -7.3      2.957      5.814
  Name = 
  4 active torsions:
  status: ('A' for Active; 'I' for Inactive)
    1  A    between atoms: C_4  and  C_21
    2  A    between atoms: N_9  and  C_10
    3  A    between atoms: N_9  and  C_19
    4  A    between atoms: C_20  and  C_28
                            x       y       z     vdW  Elec       q    Type
                         _______ _______ _______ _____ _____    ______ ____

>  <TORSDO>
F 4

$$$$
=
 OpenBabel10232409063D

 28 31  0  0  1  0  0  0  0  0999 V2000
  188.0570  177.5420  144.7730 N   0  0  0  0  0  0  0  0  0  0  0  0
  190.7080  178.7260  144.0180 C   0  0  0  0  0  3  0  0  0  0  0  0
  188.9730  177.6940  142.5010 C   0  0  0  0  0  0  0  0  0  0  0  0
  189.0870  176.8920  147.1200 Cl  0  0  0  0  0  0  0  0  0  0  0  0
  190.2000  178.1910  142.7400 C   0  0  0  0  0  3  0  0  0  0  0  0
  187.8740  177.7470  143.5000 C   0  0  0  0  0  0  0  0  0  0  0  0
  189.3320  177.2010  145.3870 C   0  0  2  0  0  3  0  0  0  0  0  0
  190.3060  178.3150  145.2180 C   0  0  0  0  0  3  0  0  0  0  0  0
  184.5080  178.0820  144.2570 C   0  0  0  0  0  2  0  0  0  0  0  0
  185.7420  178.7960  143.9700 N   0  0  0  0  0  2  0  0  0  0  0  0
  186.5160  178.6930  141.6440 C   0  0  0  0  0  2  0  0  0  0  0  0
  185.1550  178.6260  140.9640 C   0  0  0  0  0  2  0  0  0  0  0  0
  183.2770  178.6990  142.1510 C   0  0  1  0  0  3  0  0  0  0  0  0
  184.2650  179.5110  141.5800 O   0  0  0  0  0  0  0  0  0  0  0  0
  183.3150  178.8240  143.6700 C   0  0  0  0  0  2  0  0  0  0  0  0
  186.4840  177.9990  143.0030 C   0  0  1  0  0  3  0  0  0  0  0  0
  181.9120  179.0730  141.6430 C   0  0  0  0  0  0  0  0  0  0  0  0
  180.7870  179.3730  142.5780 C   0  0  0  0  0  1  0  0  0  0  0  0
  181.7200  179.1490  140.4400 O   0  0  0  0  0  0  0  0  0  0  0  0
  188.6370  177.2370  141.1810 N   0  0  0  0  0  2  0  0  0  0  0  0
  190.5060  176.5570  139.5780 C   0  0  0  0  0  3  0  0  0  0  0  0
  188.1770  178.5710  137.0920 C   0  0  0  0  0  3  0  0  0  0  0  0
  189.9390  177.7900  137.9260 N   0  0  0  0  0  0  0  0  0  0  0  0
  190.7700  176.8250  138.2660 N   0  0  0  0  0  2  0  0  0  0  0  0
  189.1200  178.0980  138.8870 C   0  0  0  0  0  0  0  0  0  0  0  0
  189.4360  177.3660  139.9970 C   0  0  0  0  0  0  0  0  0  0  0  0
  187.9550  178.5930  138.4440 N   0  0  0  0  0  0  0  0  0  0  0  0
  189.3810  178.0230  136.7600 N   0  0  0  0  0  0  0  0  0  0  0  0
  1  7  1  0  0  0  0
  2  8  2  0  0  0  0
  3  5  2  0  0  0  0
  3  6  1  0  0  0  0
  5  2  1  0  0  0  0
  6  1  2  0  0  0  0
  7  4  1  1  0  0  0
  8  7  1  0  0  0  0
 10  9  1  0  0  0  0
 11 16  1  0  0  0  0
 12 14  1  0  0  0  0
 12 11  1  0  0  0  0
 13 17  1  6  0  0  0
 13 15  1  0  0  0  0
 14 13  1  0  0  0  0
 15  9  1  0  0  0  0
 16  6  1  1  0  0  0
 16 10  1  0  0  0  0
 17 18  1  0  0  0  0
 19 17  2  0  0  0  0
 20  3  1  0  0  0  0
 21 26  2  0  0  0  0
 22 27  1  0  0  0  0
 23 24  1  0  0  0  0
 23 25  1  0  0  0  0
 24 21  1  0  0  0  0
 25 26  1  0  0  0  0
 26 20  1  0  0  0  0
 27 25  2  0  0  0  0
 28 22  2  0  0  0  0
 28 23  1  0  0  0  0
M  END
>  <MODEL>
9

>  <REMARK>
 VINA RESULT:      -7.2      3.682      6.688
  Name = 
  4 active torsions:
  status: ('A' for Active; 'I' for Inactive)
    1  A    between atoms: C_4  and  C_21
    2  A    between atoms: N_9  and  C_10
    3  A    between atoms: N_9  and  C_19
    4  A    between atoms: C_20  and  C_28
                            x       y       z     vdW  Elec       q    Type
                         _______ _______ _______ _____ _____    ______ ____

>  <TORSDO>
F 4

$$$$
