=
 OpenBabel10222422073D

 31 34  0  0  1  0  0  0  0  0999 V2000
  190.2350  177.5750  142.2320 C   0  0  1  0  0  3  0  0  0  0  0  0
  191.9610  177.7860  141.8230 Cl  0  0  0  0  0  0  0  0  0  0  0  0
  188.4600  177.1730  138.9220 C   0  0  0  0  0  0  0  0  0  0  0  0
  188.2910  176.8390  137.6470 C   0  0  0  0  0  3  0  0  0  0  0  0
  186.0530  177.7480  137.2320 N   0  0  0  0  0  0  0  0  0  0  0  0
  186.5870  178.6820  139.4070 N   0  0  0  0  0  0  0  0  0  0  0  0
  189.5240  176.6460  139.8320 C   0  0  2  0  0  3  0  0  0  0  0  0
  189.4010  177.6190  140.9850 C   0  0  0  0  0  0  0  0  0  0  0  0
  187.7950  178.2550  139.6250 C   0  0  0  0  0  0  0  0  0  0  0  0
  188.4530  178.4930  140.8550 N   0  0  0  0  0  0  0  0  0  0  0  0
  185.6840  178.2560  138.3710 C   0  0  0  0  0  3  0  0  0  0  0  0
  187.4210  177.6440  136.7420 C   0  0  2  0  0  3  0  0  0  0  0  0
  187.4170  176.5730  134.3500 N   0  0  0  0  0  0  0  0  0  0  0  0
  187.4180  177.0450  135.4060 C   0  0  0  0  0  0  0  0  0  0  0  0
  191.3090  175.5150  138.7130 O   0  0  0  0  0  1  0  0  0  0  0  0
  190.9030  176.7600  139.1940 C   0  0  0  0  0  2  0  0  0  0  0  0
  190.0920  178.2180  145.3940 C   0  0  0  0  0  2  0  0  0  0  0  0
  188.0980  177.0040  144.6660 N   0  0  0  0  0  0  0  0  0  0  0  0
  192.0580  177.0310  146.2210 N   0  0  0  0  0  1  0  0  0  0  0  0
  188.5930  176.1850  143.5910 C   0  0  0  0  0  0  0  0  0  0  0  0
  188.9210  177.3470  145.8190 C   0  0  0  0  0  2  0  0  0  0  0  0
  191.3240  177.3910  145.0220 C   0  0  1  0  0  3  0  0  0  0  0  0
  191.0290  176.1240  144.2030 C   0  0  0  0  0  2  0  0  0  0  0  0
  190.0040  176.3070  143.0770 C   0  0  2  0  0  3  0  0  0  0  0  0
  187.8140  175.3840  143.0090 O   0  0  0  0  0  0  0  0  0  0  0  0
  186.6850  177.3500  144.7240 C   0  0  0  0  0  2  0  0  0  0  0  0
  186.3160  178.2270  143.5420 C   0  0  0  0  0  2  0  0  0  0  0  0
  184.4420  179.0840  142.1840 C   0  0  0  0  0  2  0  0  0  0  0  0
  182.7200  179.0230  143.8810 N   0  0  0  0  0  1  0  0  0  0  0  0
  184.8430  178.0700  143.2320 C   0  0  2  0  0  3  0  0  0  0  0  0
  184.1170  179.3350  143.6410 C   0  0  1  0  0  3  0  0  0  0  0  0
  1  2  1  6  0  0  0
  3  9  1  0  0  0  0
  3  7  1  0  0  0  0
  4  3  2  0  0  0  0
  5 11  2  0  0  0  0
  6  9  2  0  0  0  0
  7 16  1  6  0  0  0
  7  8  1  0  0  0  0
  8  1  1  0  0  0  0
  9 10  1  0  0  0  0
 10  8  2  0  0  0  0
 11  6  1  0  0  0  0
 12 14  1  6  0  0  0
 12  5  1  0  0  0  0
 12  4  1  0  0  0  0
 13 14  3  0  0  0  0
 15 16  1  0  0  0  0
 17 21  1  0  0  0  0
 18 26  1  0  0  0  0
 18 21  1  0  0  0  0
 20 18  1  0  0  0  0
 22 17  1  0  0  0  0
 22 19  1  1  0  0  0
 23 22  1  0  0  0  0
 24  1  1  1  0  0  0
 24 20  1  0  0  0  0
 24 23  1  0  0  0  0
 25 20  2  0  0  0  0
 27 26  1  0  0  0  0
 28 30  1  0  0  0  0
 28 31  1  0  0  0  0
 30 27  1  1  0  0  0
 30 31  1  0  0  0  0
 31 29  1  6  0  0  0
M  END
>  <MODEL>
1

>  <REMARK>
 VINA RESULT:      -7.5      0.000      0.000
  Name = 
  7 active torsions:
  status: ('A' for Active; 'I' for Inactive)
    1  A    between atoms: C_3  and  C_18
    2  A    between atoms: C_3  and  C_24
    3  A    between atoms: N_4  and  C_30
    4  A    between atoms: C_5  and  C_29
    5  A    between atoms: C_13  and  C_19
    6  A    between atoms: C_26  and  C_27
    7  A    between atoms: C_27  and  C_30
                            x       y       z     vdW  Elec       q    Type
                         _______ _______ _______ _____ _____    ______ ____

>  <TORSDO>
F 7

$$$$
=
 OpenBabel10222422073D

 31 34  0  0  1  0  0  0  0  0999 V2000
  190.6350  177.3940  142.1960 C   0  0  1  0  0  3  0  0  0  0  0  0
  192.3800  177.7640  142.2930 Cl  0  0  0  0  0  0  0  0  0  0  0  0
  189.2750  177.4940  138.6740 C   0  0  0  0  0  0  0  0  0  0  0  0
  188.4230  177.7590  137.6890 C   0  0  0  0  0  3  0  0  0  0  0  0
  189.5290  176.6300  135.8150 N   0  0  0  0  0  0  0  0  0  0  0  0
  190.8140  175.8400  137.7160 N   0  0  0  0  0  0  0  0  0  0  0  0
  189.2940  178.1530  140.0160 C   0  0  2  0  0  3  0  0  0  0  0  0
  190.2240  177.2220  140.7630 C   0  0  0  0  0  0  0  0  0  0  0  0
  190.2100  176.3850  138.7300 C   0  0  0  0  0  0  0  0  0  0  0  0
  190.7140  176.2590  140.0460 N   0  0  0  0  0  0  0  0  0  0  0  0
  190.6210  176.1380  136.3220 C   0  0  0  0  0  3  0  0  0  0  0  0
  188.2740  176.8400  136.5230 C   0  0  2  0  0  3  0  0  0  0  0  0
  186.4860  177.8090  134.8690 N   0  0  0  0  0  0  0  0  0  0  0  0
  187.2750  177.3800  135.5990 C   0  0  0  0  0  0  0  0  0  0  0  0
  187.7610  179.2570  141.4820 O   0  0  0  0  0  1  0  0  0  0  0  0
  187.9120  178.1420  140.6580 C   0  0  0  0  0  2  0  0  0  0  0  0
  190.2050  178.2450  145.2820 C   0  0  0  0  0  2  0  0  0  0  0  0
  188.2390  177.0690  144.4250 N   0  0  0  0  0  0  0  0  0  0  0  0
  192.0190  177.0340  146.3780 N   0  0  0  0  0  1  0  0  0  0  0  0
  188.8010  176.1640  143.4590 C   0  0  0  0  0  0  0  0  0  0  0  0
  188.9570  177.4520  145.6350 C   0  0  0  0  0  2  0  0  0  0  0  0
  191.4270  177.3450  145.0890 C   0  0  1  0  0  3  0  0  0  0  0  0
  191.1560  176.0420  144.3220 C   0  0  0  0  0  2  0  0  0  0  0  0
  190.2610  176.1940  143.0870 C   0  0  2  0  0  3  0  0  0  0  0  0
  188.0470  175.3590  142.8480 O   0  0  0  0  0  0  0  0  0  0  0  0
  186.8450  177.4760  144.3160 C   0  0  0  0  0  2  0  0  0  0  0  0
  186.3280  177.9250  145.6710 C   0  0  0  0  0  2  0  0  0  0  0  0
  184.0490  178.7470  146.1410 C   0  0  0  0  0  2  0  0  0  0  0  0
  183.6020  179.7890  144.0050 N   0  0  0  0  0  1  0  0  0  0  0  0
  185.3730  179.0850  145.4910 C   0  0  2  0  0  3  0  0  0  0  0  0
  184.2040  178.6310  144.6400 C   0  0  1  0  0  3  0  0  0  0  0  0
  1  2  1  6  0  0  0
  3  9  1  0  0  0  0
  3  7  1  0  0  0  0
  4  3  2  0  0  0  0
  5 11  2  0  0  0  0
  5 12  1  0  0  0  0
  6  9  2  0  0  0  0
  7 16  1  1  0  0  0
  7  8  1  0  0  0  0
  8  1  1  0  0  0  0
  9 10  1  0  0  0  0
 10  8  2  0  0  0  0
 11  6  1  0  0  0  0
 12 14  1  6  0  0  0
 12  4  1  0  0  0  0
 13 14  3  0  0  0  0
 16 15  1  0  0  0  0
 17 21  1  0  0  0  0
 18 21  1  0  0  0  0
 20 18  1  0  0  0  0
 22 17  1  0  0  0  0
 22 19  1  1  0  0  0
 23 22  1  0  0  0  0
 24  1  1  1  0  0  0
 24 20  1  0  0  0  0
 24 23  1  0  0  0  0
 25 20  2  0  0  0  0
 26 18  1  0  0  0  0
 26 27  1  0  0  0  0
 30 27  1  1  0  0  0
 30 28  1  0  0  0  0
 31 29  1  6  0  0  0
 31 30  1  0  0  0  0
 31 28  1  0  0  0  0
M  END
>  <MODEL>
2

>  <REMARK>
 VINA RESULT:      -6.9      1.786      2.447
  Name = 
  7 active torsions:
  status: ('A' for Active; 'I' for Inactive)
    1  A    between atoms: C_3  and  C_18
    2  A    between atoms: C_3  and  C_24
    3  A    between atoms: N_4  and  C_30
    4  A    between atoms: C_5  and  C_29
    5  A    between atoms: C_13  and  C_19
    6  A    between atoms: C_26  and  C_27
    7  A    between atoms: C_27  and  C_30
                            x       y       z     vdW  Elec       q    Type
                         _______ _______ _______ _____ _____    ______ ____

>  <TORSDO>
F 7

$$$$
=
 OpenBabel10222422073D

 31 34  0  0  1  0  0  0  0  0999 V2000
  189.3510  177.9910  144.6670 C   0  0  1  0  0  3  0  0  0  0  0  0
  190.9610  178.0850  145.4330 Cl  0  0  0  0  0  0  0  0  0  0  0  0
  190.0020  177.1150  141.0510 C   0  0  0  0  0  0  0  0  0  0  0  0
  190.6260  176.5820  140.0050 C   0  0  0  0  0  3  0  0  0  0  0  0
  189.2850  177.4910  138.1660 N   0  0  0  0  0  0  0  0  0  0  0  0
  188.4580  178.7490  140.0690 N   0  0  0  0  0  0  0  0  0  0  0  0
  190.1820  176.7070  142.4780 C   0  0  2  0  0  3  0  0  0  0  0  0
  189.4950  177.8590  143.1790 C   0  0  0  0  0  0  0  0  0  0  0  0
  189.1940  178.3200  141.0510 C   0  0  0  0  0  0  0  0  0  0  0  0
  188.9620  178.7340  142.3840 N   0  0  0  0  0  0  0  0  0  0  0  0
  188.3550  178.1910  138.7460 C   0  0  0  0  0  3  0  0  0  0  0  0
  190.6290  177.2590  138.6760 C   0  0  2  0  0  3  0  0  0  0  0  0
  191.9790  175.8090  136.9600 N   0  0  0  0  0  0  0  0  0  0  0  0
  191.3830  176.4490  137.7170 C   0  0  0  0  0  0  0  0  0  0  0  0
  191.9070  175.5580  143.6720 O   0  0  0  0  0  1  0  0  0  0  0  0
  191.6570  176.6650  142.8600 C   0  0  0  0  0  2  0  0  0  0  0  0
  187.2280  179.1530  146.8060 C   0  0  0  0  0  2  0  0  0  0  0  0
  186.0950  177.8180  145.0990 N   0  0  0  0  0  0  0  0  0  0  0  0
  188.0210  178.1380  148.8790 N   0  0  0  0  0  1  0  0  0  0  0  0
  187.0850  176.8350  144.7490 C   0  0  0  0  0  0  0  0  0  0  0  0
  185.9840  178.3560  146.4490 C   0  0  0  0  0  2  0  0  0  0  0  0
  188.3030  178.2850  147.4630 C   0  0  1  0  0  3  0  0  0  0  0  0
  188.4890  176.8970  146.8310 C   0  0  0  0  0  2  0  0  0  0  0  0
  188.4880  176.8800  145.2970 C   0  0  2  0  0  3  0  0  0  0  0  0
  186.8040  175.9410  143.9060 O   0  0  0  0  0  0  0  0  0  0  0  0
  185.0410  178.1570  144.1540 C   0  0  0  0  0  2  0  0  0  0  0  0
  185.6250  178.3220  142.7620 C   0  0  0  0  0  2  0  0  0  0  0  0
  183.7240  178.1650  141.1970 C   0  0  0  0  0  2  0  0  0  0  0  0
  184.4350  179.8430  139.6080 N   0  0  0  0  0  1  0  0  0  0  0  0
  184.6670  179.1160  141.9000 C   0  0  2  0  0  3  0  0  0  0  0  0
  184.8990  178.7540  140.4470 C   0  0  1  0  0  3  0  0  0  0  0  0
  1  2  1  1  0  0  0
  3  7  1  0  0  0  0
  4  3  2  0  0  0  0
  5 12  1  0  0  0  0
  5 11  2  0  0  0  0
  6  9  2  0  0  0  0
  7 16  1  1  0  0  0
  7  8  1  0  0  0  0
  8  1  1  0  0  0  0
  9  3  1  0  0  0  0
  9 10  1  0  0  0  0
 10  8  2  0  0  0  0
 11  6  1  0  0  0  0
 12 14  1  6  0  0  0
 12  4  1  0  0  0  0
 13 14  3  0  0  0  0
 16 15  1  0  0  0  0
 17 22  1  0  0  0  0
 18 21  1  0  0  0  0
 20 18  1  0  0  0  0
 20 24  1  0  0  0  0
 21 17  1  0  0  0  0
 22 19  1  1  0  0  0
 23 22  1  0  0  0  0
 24  1  1  6  0  0  0
 24 23  1  0  0  0  0
 25 20  2  0  0  0  0
 26 18  1  0  0  0  0
 27 26  1  0  0  0  0
 28 30  1  0  0  0  0
 30 27  1  1  0  0  0
 31 29  1  6  0  0  0
 31 28  1  0  0  0  0
 31 30  1  0  0  0  0
M  END
>  <MODEL>
3

>  <REMARK>
 VINA RESULT:      -6.6      2.340      3.215
  Name = 
  7 active torsions:
  status: ('A' for Active; 'I' for Inactive)
    1  A    between atoms: C_3  and  C_18
    2  A    between atoms: C_3  and  C_24
    3  A    between atoms: N_4  and  C_30
    4  A    between atoms: C_5  and  C_29
    5  A    between atoms: C_13  and  C_19
    6  A    between atoms: C_26  and  C_27
    7  A    between atoms: C_27  and  C_30
                            x       y       z     vdW  Elec       q    Type
                         _______ _______ _______ _____ _____    ______ ____

>  <TORSDO>
F 7

$$$$
=
 OpenBabel10222422073D

 31 34  0  0  1  0  0  0  0  0999 V2000
  182.8160  178.7380  138.4330 C   0  0  1  0  0  3  0  0  0  0  0  0
  181.8480  180.2330  138.2970 Cl  0  0  0  0  0  0  0  0  0  0  0  0
  184.0970  178.4160  141.9720 C   0  0  0  0  0  0  0  0  0  0  0  0
  184.0520  178.3710  143.2990 C   0  0  0  0  0  3  0  0  0  0  0  0
  186.4420  178.2400  143.8300 N   0  0  0  0  0  0  0  0  0  0  0  0
  186.4740  178.7380  141.4550 N   0  0  0  0  0  0  0  0  0  0  0  0
  182.9370  178.2190  141.0500 C   0  0  2  0  0  3  0  0  0  0  0  0
  183.5360  178.7090  139.7490 C   0  0  0  0  0  0  0  0  0  0  0  0
  185.2140  178.8650  141.1610 C   0  0  0  0  0  0  0  0  0  0  0  0
  184.7820  179.0600  139.8280 N   0  0  0  0  0  0  0  0  0  0  0  0
  187.0390  178.2230  142.6750 C   0  0  0  0  0  3  0  0  0  0  0  0
  185.1750  178.8920  144.1320 C   0  0  2  0  0  3  0  0  0  0  0  0
  184.6070  178.5670  146.6700 N   0  0  0  0  0  0  0  0  0  0  0  0
  184.8570  178.7110  145.5490 C   0  0  0  0  0  0  0  0  0  0  0  0
  180.5900  178.3390  141.4970 O   0  0  0  0  0  1  0  0  0  0  0  0
  181.7580  179.1000  141.4480 C   0  0  0  0  0  2  0  0  0  0  0  0
  183.0610  177.6820  135.3910 C   0  0  0  0  0  2  0  0  0  0  0  0
  183.5920  175.8950  136.9730 N   0  0  0  0  0  0  0  0  0  0  0  0
  180.7840  178.0090  134.5770 N   0  0  0  0  0  1  0  0  0  0  0  0
  182.7690  176.2150  138.1090 C   0  0  0  0  0  0  0  0  0  0  0  0
  183.1710  176.1820  135.6080 C   0  0  0  0  0  2  0  0  0  0  0  0
  181.6630  178.2130  135.7130 C   0  0  1  0  0  3  0  0  0  0  0  0
  181.0200  177.6150  136.9730 C   0  0  0  0  0  2  0  0  0  0  0  0
  181.9590  177.4830  138.1790 C   0  0  2  0  0  3  0  0  0  0  0  0
  182.7670  175.4510  139.1120 O   0  0  0  0  0  0  0  0  0  0  0  0
  184.7920  175.0900  137.1500 C   0  0  0  0  0  2  0  0  0  0  0  0
  185.9920  175.8100  136.5620 C   0  0  0  0  0  2  0  0  0  0  0  0
  186.7640  178.1430  136.3320 C   0  0  0  0  0  2  0  0  0  0  0  0
  187.9780  178.3210  138.4160 N   0  0  0  0  0  1  0  0  0  0  0  0
  186.2080  177.1170  137.2950 C   0  0  2  0  0  3  0  0  0  0  0  0
  187.6890  177.4380  137.3010 C   0  0  1  0  0  3  0  0  0  0  0  0
  1  2  1  1  0  0  0
  1  8  1  0  0  0  0
  3  4  2  0  0  0  0
  4 12  1  0  0  0  0
  5 12  1  0  0  0  0
  6 11  1  0  0  0  0
  7 16  1  1  0  0  0
  7  3  1  0  0  0  0
  8 10  2  0  0  0  0
  8  7  1  0  0  0  0
  9  6  2  0  0  0  0
  9  3  1  0  0  0  0
 10  9  1  0  0  0  0
 11  5  2  0  0  0  0
 12 14  1  1  0  0  0
 14 13  3  0  0  0  0
 16 15  1  0  0  0  0
 17 21  1  0  0  0  0
 17 22  1  0  0  0  0
 18 26  1  0  0  0  0
 18 20  1  0  0  0  0
 20 24  1  0  0  0  0
 20 25  2  0  0  0  0
 21 18  1  0  0  0  0
 22 19  1  6  0  0  0
 22 23  1  0  0  0  0
 23 24  1  0  0  0  0
 24  1  1  6  0  0  0
 27 26  1  0  0  0  0
 28 30  1  0  0  0  0
 28 31  1  0  0  0  0
 30 27  1  6  0  0  0
 30 31  1  0  0  0  0
 31 29  1  1  0  0  0
M  END
>  <MODEL>
4

>  <REMARK>
 VINA RESULT:      -6.4      3.974      8.961
  Name = 
  7 active torsions:
  status: ('A' for Active; 'I' for Inactive)
    1  A    between atoms: C_3  and  C_18
    2  A    between atoms: C_3  and  C_24
    3  A    between atoms: N_4  and  C_30
    4  A    between atoms: C_5  and  C_29
    5  A    between atoms: C_13  and  C_19
    6  A    between atoms: C_26  and  C_27
    7  A    between atoms: C_27  and  C_30
                            x       y       z     vdW  Elec       q    Type
                         _______ _______ _______ _____ _____    ______ ____

>  <TORSDO>
F 7

$$$$
=
 OpenBabel10222422073D

 31 34  0  0  1  0  0  0  0  0999 V2000
  188.3880  178.3360  141.3670 C   0  0  1  0  0  3  0  0  0  0  0  0
  188.5440  178.9890  139.7120 Cl  0  0  0  0  0  0  0  0  0  0  0  0
  184.6830  178.4140  142.0970 C   0  0  0  0  0  0  0  0  0  0  0  0
  183.3770  178.4080  141.8480 C   0  0  0  0  0  3  0  0  0  0  0  0
  182.4840  178.7980  144.0970 N   0  0  0  0  0  0  0  0  0  0  0  0
  184.8550  179.2070  144.4130 N   0  0  0  0  0  0  0  0  0  0  0  0
  185.7540  177.9480  141.1640 C   0  0  2  0  0  3  0  0  0  0  0  0
  186.9790  178.5050  141.8560 C   0  0  0  0  0  0  0  0  0  0  0  0
  185.3440  179.0580  143.2180 C   0  0  0  0  0  0  0  0  0  0  0  0
  186.7370  179.1110  142.9760 N   0  0  0  0  0  0  0  0  0  0  0  0
  183.5320  178.8650  144.8640 C   0  0  0  0  0  3  0  0  0  0  0  0
  182.4220  179.1820  142.6940 C   0  0  2  0  0  3  0  0  0  0  0  0
  179.9820  178.8370  141.7990 N   0  0  0  0  0  0  0  0  0  0  0  0
  181.0600  178.9890  142.1940 C   0  0  0  0  0  0  0  0  0  0  0  0
  184.9090  179.7860  139.8880 O   0  0  0  0  0  1  0  0  0  0  0  0
  185.5980  178.5770  139.7850 C   0  0  0  0  0  2  0  0  0  0  0  0
  191.4670  178.1660  142.3260 C   0  0  0  0  0  2  0  0  0  0  0  0
  190.0360  176.7990  143.7620 N   0  0  0  0  0  0  0  0  0  0  0  0
  192.5400  177.2190  140.3490 N   0  0  0  0  0  1  0  0  0  0  0  0
  188.9940  176.3720  142.8660 C   0  0  0  0  0  0  0  0  0  0  0  0
  191.4050  177.0100  143.3100 C   0  0  0  0  0  2  0  0  0  0  0  0
  191.2800  177.7060  140.8790 C   0  0  1  0  0  3  0  0  0  0  0  0
  190.1930  176.6390  140.6760 C   0  0  0  0  0  2  0  0  0  0  0  0
  188.8940  176.8840  141.4530 C   0  0  2  0  0  3  0  0  0  0  0  0
  188.0920  175.5980  143.2850 O   0  0  0  0  0  0  0  0  0  0  0  0
  189.7890  176.8410  145.1960 C   0  0  0  0  0  2  0  0  0  0  0  0
  188.6690  177.8200  145.5020 C   0  0  0  0  0  2  0  0  0  0  0  0
  186.8550  178.3820  147.0780 C   0  0  0  0  0  2  0  0  0  0  0  0
  187.9290  177.6640  149.1230 N   0  0  0  0  0  1  0  0  0  0  0  0
  187.9100  177.3560  146.7260 C   0  0  2  0  0  3  0  0  0  0  0  0
  188.1530  178.3360  147.8560 C   0  0  1  0  0  3  0  0  0  0  0  0
  1  2  1  6  0  0  0
  1  8  1  0  0  0  0
  3  9  1  0  0  0  0
  4  3  2  0  0  0  0
  4 12  1  0  0  0  0
  5 11  2  0  0  0  0
  6 11  1  0  0  0  0
  7 16  1  6  0  0  0
  7  8  1  0  0  0  0
  7  3  1  0  0  0  0
  8 10  2  0  0  0  0
  9  6  2  0  0  0  0
 10  9  1  0  0  0  0
 12 14  1  6  0  0  0
 12  5  1  0  0  0  0
 13 14  3  0  0  0  0
 16 15  1  0  0  0  0
 17 21  1  0  0  0  0
 18 26  1  0  0  0  0
 20 25  2  0  0  0  0
 20 18  1  0  0  0  0
 21 18  1  0  0  0  0
 22 19  1  1  0  0  0
 22 17  1  0  0  0  0
 23 22  1  0  0  0  0
 23 24  1  0  0  0  0
 24  1  1  1  0  0  0
 24 20  1  0  0  0  0
 26 27  1  0  0  0  0
 28 31  1  0  0  0  0
 30 27  1  6  0  0  0
 30 28  1  0  0  0  0
 30 31  1  0  0  0  0
 31 29  1  1  0  0  0
M  END
>  <MODEL>
5

>  <REMARK>
 VINA RESULT:      -6.4      2.957      5.404
  Name = 
  7 active torsions:
  status: ('A' for Active; 'I' for Inactive)
    1  A    between atoms: C_3  and  C_18
    2  A    between atoms: C_3  and  C_24
    3  A    between atoms: N_4  and  C_30
    4  A    between atoms: C_5  and  C_29
    5  A    between atoms: C_13  and  C_19
    6  A    between atoms: C_26  and  C_27
    7  A    between atoms: C_27  and  C_30
                            x       y       z     vdW  Elec       q    Type
                         _______ _______ _______ _____ _____    ______ ____

>  <TORSDO>
F 7

$$$$
=
 OpenBabel10222422073D

 31 34  0  0  1  0  0  0  0  0999 V2000
  188.3170  177.2300  145.5150 C   0  0  1  0  0  3  0  0  0  0  0  0
  187.7900  176.9130  147.1920 Cl  0  0  0  0  0  0  0  0  0  0  0  0
  185.1810  178.5950  143.9120 C   0  0  0  0  0  0  0  0  0  0  0  0
  183.9340  179.0480  143.8340 C   0  0  0  0  0  3  0  0  0  0  0  0
  183.6850  179.2740  141.4060 N   0  0  0  0  0  0  0  0  0  0  0  0
  185.7820  178.0670  141.5920 N   0  0  0  0  0  0  0  0  0  0  0  0
  186.0110  178.5270  145.1540 C   0  0  2  0  0  3  0  0  0  0  0  0
  187.1450  177.6450  144.6760 C   0  0  0  0  0  0  0  0  0  0  0  0
  185.9090  177.8880  142.8740 C   0  0  0  0  0  0  0  0  0  0  0  0
  187.0720  177.3030  143.4270 N   0  0  0  0  0  0  0  0  0  0  0  0
  184.8370  178.9180  140.9190 C   0  0  0  0  0  3  0  0  0  0  0  0
  183.0850  178.7800  142.6370 C   0  0  2  0  0  3  0  0  0  0  0  0
  180.7320  179.8850  142.9710 N   0  0  0  0  0  0  0  0  0  0  0  0
  181.7700  179.3970  142.8230 C   0  0  0  0  0  0  0  0  0  0  0  0
  184.8570  178.7880  147.2320 O   0  0  0  0  0  1  0  0  0  0  0  0
  185.2560  177.8420  146.2870 C   0  0  0  0  0  2  0  0  0  0  0  0
  191.1920  175.7710  145.7170 C   0  0  0  0  0  2  0  0  0  0  0  0
  191.0790  177.1920  143.7300 N   0  0  0  0  0  0  0  0  0  0  0  0
  192.0290  176.6380  147.8400 N   0  0  0  0  0  1  0  0  0  0  0  0
  190.1990  178.2530  144.1420 C   0  0  0  0  0  0  0  0  0  0  0  0
  191.9820  176.5300  144.6640 C   0  0  0  0  0  2  0  0  0  0  0  0
  190.8860  176.6320  146.9450 C   0  0  1  0  0  3  0  0  0  0  0  0
  190.4730  178.0790  146.6320 C   0  0  0  0  0  2  0  0  0  0  0  0
  189.4860  178.2320  145.4690 C   0  0  2  0  0  3  0  0  0  0  0  0
  189.9560  179.2030  143.3490 O   0  0  0  0  0  0  0  0  0  0  0  0
  191.2340  176.8840  142.3150 C   0  0  0  0  0  2  0  0  0  0  0  0
  189.8820  176.9120  141.6270 C   0  0  0  0  0  2  0  0  0  0  0  0
  188.8330  178.4130  139.9730 C   0  0  0  0  0  2  0  0  0  0  0  0
  189.3000  177.1250  137.9810 N   0  0  0  0  0  1  0  0  0  0  0  0
  190.0250  177.5250  140.2500 C   0  0  2  0  0  3  0  0  0  0  0  0
  188.8960  177.0260  139.3710 C   0  0  1  0  0  3  0  0  0  0  0  0
  1  2  1  1  0  0  0
  3  7  1  0  0  0  0
  4  3  2  0  0  0  0
  5 12  1  0  0  0  0
  6  9  2  0  0  0  0
  7 16  1  1  0  0  0
  8  7  1  0  0  0  0
  8  1  1  0  0  0  0
  9 10  1  0  0  0  0
  9  3  1  0  0  0  0
 10  8  2  0  0  0  0
 11  5  2  0  0  0  0
 11  6  1  0  0  0  0
 12 14  1  1  0  0  0
 12  4  1  0  0  0  0
 14 13  3  0  0  0  0
 16 15  1  0  0  0  0
 17 22  1  0  0  0  0
 18 20  1  0  0  0  0
 18 21  1  0  0  0  0
 20 24  1  0  0  0  0
 21 17  1  0  0  0  0
 22 19  1  1  0  0  0
 23 22  1  0  0  0  0
 24  1  1  6  0  0  0
 24 23  1  0  0  0  0
 25 20  2  0  0  0  0
 26 18  1  0  0  0  0
 27 26  1  0  0  0  0
 28 30  1  0  0  0  0
 30 27  1  1  0  0  0
 31 29  1  6  0  0  0
 31 28  1  0  0  0  0
 31 30  1  0  0  0  0
M  END
>  <MODEL>
6

>  <REMARK>
 VINA RESULT:      -6.4      2.640      5.925
  Name = 
  7 active torsions:
  status: ('A' for Active; 'I' for Inactive)
    1  A    between atoms: C_3  and  C_18
    2  A    between atoms: C_3  and  C_24
    3  A    between atoms: N_4  and  C_30
    4  A    between atoms: C_5  and  C_29
    5  A    between atoms: C_13  and  C_19
    6  A    between atoms: C_26  and  C_27
    7  A    between atoms: C_27  and  C_30
                            x       y       z     vdW  Elec       q    Type
                         _______ _______ _______ _____ _____    ______ ____

>  <TORSDO>
F 7

$$$$
=
 OpenBabel10222422073D

 31 34  0  0  1  0  0  0  0  0999 V2000
  188.6490  177.1570  140.6970 C   0  0  1  0  0  3  0  0  0  0  0  0
  190.0460  176.4410  139.8440 Cl  0  0  0  0  0  0  0  0  0  0  0  0
  189.7860  177.3060  144.2960 C   0  0  0  0  0  0  0  0  0  0  0  0
  190.6290  177.2930  145.3240 C   0  0  0  0  0  3  0  0  0  0  0  0
  189.0550  177.3700  147.2020 N   0  0  0  0  0  0  0  0  0  0  0  0
  187.5790  176.9770  145.3170 N   0  0  0  0  0  0  0  0  0  0  0  0
  190.1510  177.5570  142.8680 C   0  0  2  0  0  3  0  0  0  0  0  0
  188.8770  177.1190  142.1800 C   0  0  0  0  0  0  0  0  0  0  0  0
  188.3990  176.8790  144.3130 C   0  0  0  0  0  0  0  0  0  0  0  0
  187.9290  176.7480  142.9840 N   0  0  0  0  0  0  0  0  0  0  0  0
  187.8800  177.4300  146.6490 C   0  0  0  0  0  3  0  0  0  0  0  0
  190.2340  176.7210  146.6440 C   0  0  2  0  0  3  0  0  0  0  0  0
  192.2330  176.9380  148.3250 N   0  0  0  0  0  0  0  0  0  0  0  0
  191.3500  176.8430  147.5830 C   0  0  0  0  0  0  0  0  0  0  0  0
  192.2810  177.4470  141.7860 O   0  0  0  0  0  1  0  0  0  0  0  0
  191.3140  176.6750  142.4310 C   0  0  0  0  0  2  0  0  0  0  0  0
  186.5720  177.0840  138.2250 C   0  0  0  0  0  2  0  0  0  0  0  0
  185.7510  178.5470  140.0040 N   0  0  0  0  0  0  0  0  0  0  0  0
  187.9470  177.9590  136.4090 N   0  0  0  0  0  1  0  0  0  0  0  0
  186.9630  179.0590  140.5860 C   0  0  0  0  0  0  0  0  0  0  0  0
  185.6470  178.2350  138.5840 C   0  0  0  0  0  2  0  0  0  0  0  0
  187.9620  177.5670  137.8060 C   0  0  1  0  0  3  0  0  0  0  0  0
  188.5300  178.7150  138.6540 C   0  0  0  0  0  2  0  0  0  0  0  0
  188.3230  178.5660  140.1660 C   0  0  2  0  0  3  0  0  0  0  0  0
  186.8970  179.8980  141.5250 O   0  0  0  0  0  0  0  0  0  0  0  0
  184.5250  178.5150  140.7890 C   0  0  0  0  0  2  0  0  0  0  0  0
  184.8150  177.9890  142.1830 C   0  0  0  0  0  2  0  0  0  0  0  0
  184.6830  179.9420  143.6860 C   0  0  0  0  0  2  0  0  0  0  0  0
  183.6450  178.8580  145.5830 N   0  0  0  0  0  1  0  0  0  0  0  0
  183.9500  178.7160  143.1900 C   0  0  2  0  0  3  0  0  0  0  0  0
  184.6400  178.6920  144.5390 C   0  0  1  0  0  3  0  0  0  0  0  0
  1  2  1  6  0  0  0
  1  8  1  0  0  0  0
  3  9  1  0  0  0  0
  3  4  2  0  0  0  0
  4 12  1  0  0  0  0
  6 11  1  0  0  0  0
  7 16  1  6  0  0  0
  7  3  1  0  0  0  0
  8  7  1  0  0  0  0
  8 10  2  0  0  0  0
  9  6  2  0  0  0  0
 10  9  1  0  0  0  0
 11  5  2  0  0  0  0
 12  5  1  0  0  0  0
 12 14  1  1  0  0  0
 14 13  3  0  0  0  0
 15 16  1  0  0  0  0
 17 21  1  0  0  0  0
 18 20  1  0  0  0  0
 18 26  1  0  0  0  0
 20 25  2  0  0  0  0
 21 18  1  0  0  0  0
 22 19  1  6  0  0  0
 22 17  1  0  0  0  0
 22 23  1  0  0  0  0
 23 24  1  0  0  0  0
 24 20  1  0  0  0  0
 24  1  1  6  0  0  0
 26 27  1  0  0  0  0
 28 31  1  0  0  0  0
 30 27  1  6  0  0  0
 30 28  1  0  0  0  0
 30 31  1  0  0  0  0
 31 29  1  1  0  0  0
M  END
>  <MODEL>
7

>  <REMARK>
 VINA RESULT:      -6.1      1.936      6.634
  Name = 
  7 active torsions:
  status: ('A' for Active; 'I' for Inactive)
    1  A    between atoms: C_3  and  C_18
    2  A    between atoms: C_3  and  C_24
    3  A    between atoms: N_4  and  C_30
    4  A    between atoms: C_5  and  C_29
    5  A    between atoms: C_13  and  C_19
    6  A    between atoms: C_26  and  C_27
    7  A    between atoms: C_27  and  C_30
                            x       y       z     vdW  Elec       q    Type
                         _______ _______ _______ _____ _____    ______ ____

>  <TORSDO>
F 7

$$$$
=
 OpenBabel10222422073D

 31 34  0  0  1  0  0  0  0  0999 V2000
  188.6170  177.1660  140.6850 C   0  0  1  0  0  3  0  0  0  0  0  0
  190.0540  176.5030  139.8560 Cl  0  0  0  0  0  0  0  0  0  0  0  0
  189.7340  177.3550  144.2890 C   0  0  0  0  0  0  0  0  0  0  0  0
  190.5660  177.3220  145.3240 C   0  0  0  0  0  3  0  0  0  0  0  0
  188.9860  177.5490  147.1840 N   0  0  0  0  0  0  0  0  0  0  0  0
  187.5030  177.1890  145.2980 N   0  0  0  0  0  0  0  0  0  0  0  0
  190.1240  177.5410  142.8570 C   0  0  2  0  0  3  0  0  0  0  0  0
  188.8310  177.1580  142.1700 C   0  0  0  0  0  0  0  0  0  0  0  0
  188.3230  177.0120  144.3050 C   0  0  0  0  0  0  0  0  0  0  0  0
  187.8570  176.8700  142.9760 N   0  0  0  0  0  0  0  0  0  0  0  0
  187.8210  177.6630  146.6190 C   0  0  0  0  0  3  0  0  0  0  0  0
  190.1280  176.8140  146.6570 C   0  0  2  0  0  3  0  0  0  0  0  0
  192.1230  176.9620  148.3500 N   0  0  0  0  0  0  0  0  0  0  0  0
  191.2420  176.8970  147.6020 C   0  0  0  0  0  0  0  0  0  0  0  0
  192.3410  177.2920  141.9940 O   0  0  0  0  0  1  0  0  0  0  0  0
  191.2350  176.5770  142.4570 C   0  0  0  0  0  2  0  0  0  0  0  0
  187.4030  176.9950  137.6970 C   0  0  0  0  0  2  0  0  0  0  0  0
  185.8630  178.1660  139.1930 N   0  0  0  0  0  0  0  0  0  0  0  0
  189.0870  178.2140  136.4180 N   0  0  0  0  0  1  0  0  0  0  0  0
  186.7460  178.8000  140.1340 C   0  0  0  0  0  0  0  0  0  0  0  0
  186.2360  177.9630  137.7980 C   0  0  0  0  0  2  0  0  0  0  0  0
  188.7540  177.7120  137.7380 C   0  0  1  0  0  3  0  0  0  0  0  0
  188.8480  178.8560  138.7600 C   0  0  0  0  0  2  0  0  0  0  0  0
  188.2330  178.5510  140.1300 C   0  0  2  0  0  3  0  0  0  0  0  0
  186.2680  179.5370  141.0380 O   0  0  0  0  0  0  0  0  0  0  0  0
  184.4830  177.8860  139.5650 C   0  0  0  0  0  2  0  0  0  0  0  0
  183.5360  178.5170  138.5600 C   0  0  0  0  0  2  0  0  0  0  0  0
  181.5900  179.5300  139.6890 C   0  0  0  0  0  2  0  0  0  0  0  0
  181.5230  181.6180  138.4710 N   0  0  0  0  0  1  0  0  0  0  0  0
  182.9700  179.7990  139.1300 C   0  0  2  0  0  3  0  0  0  0  0  0
  181.7410  180.1900  138.3350 C   0  0  1  0  0  3  0  0  0  0  0  0
  1  2  1  6  0  0  0
  1  8  1  0  0  0  0
  3  9  1  0  0  0  0
  3  4  2  0  0  0  0
  4 12  1  0  0  0  0
  6 11  1  0  0  0  0
  7 16  1  6  0  0  0
  7  3  1  0  0  0  0
  8  7  1  0  0  0  0
  8 10  2  0  0  0  0
  9  6  2  0  0  0  0
 10  9  1  0  0  0  0
 11  5  2  0  0  0  0
 12  5  1  0  0  0  0
 12 14  1  1  0  0  0
 14 13  3  0  0  0  0
 15 16  1  0  0  0  0
 17 22  1  0  0  0  0
 17 21  1  0  0  0  0
 18 26  1  0  0  0  0
 18 20  1  0  0  0  0
 20 25  2  0  0  0  0
 21 18  1  0  0  0  0
 22 19  1  6  0  0  0
 22 23  1  0  0  0  0
 23 24  1  0  0  0  0
 24 20  1  0  0  0  0
 24  1  1  6  0  0  0
 27 26  1  0  0  0  0
 30 27  1  6  0  0  0
 30 28  1  0  0  0  0
 31 29  1  1  0  0  0
 31 30  1  0  0  0  0
 31 28  1  0  0  0  0
M  END
>  <MODEL>
8

>  <REMARK>
 VINA RESULT:      -6.0      2.466      6.969
  Name = 
  7 active torsions:
  status: ('A' for Active; 'I' for Inactive)
    1  A    between atoms: C_3  and  C_18
    2  A    between atoms: C_3  and  C_24
    3  A    between atoms: N_4  and  C_30
    4  A    between atoms: C_5  and  C_29
    5  A    between atoms: C_13  and  C_19
    6  A    between atoms: C_26  and  C_27
    7  A    between atoms: C_27  and  C_30
                            x       y       z     vdW  Elec       q    Type
                         _______ _______ _______ _____ _____    ______ ____

>  <TORSDO>
F 7

$$$$
=
 OpenBabel10222422073D

 31 34  0  0  1  0  0  0  0  0999 V2000
  189.5630  177.4930  138.2800 C   0  0  1  0  0  3  0  0  0  0  0  0
  189.0870  179.1510  137.8170 Cl  0  0  0  0  0  0  0  0  0  0  0  0
  189.3700  177.2540  142.0450 C   0  0  0  0  0  0  0  0  0  0  0  0
  188.8710  177.4170  143.2660 C   0  0  0  0  0  3  0  0  0  0  0  0
  190.7120  176.5430  144.6280 N   0  0  0  0  0  0  0  0  0  0  0  0
  191.7190  176.6550  142.4230 N   0  0  0  0  0  0  0  0  0  0  0  0
  188.6000  177.3440  140.7660 C   0  0  2  0  0  3  0  0  0  0  0  0
  189.7360  177.4030  139.7680 C   0  0  0  0  0  0  0  0  0  0  0  0
  190.7750  177.1680  141.6910 C   0  0  0  0  0  0  0  0  0  0  0  0
  190.9190  177.3090  140.2900 N   0  0  0  0  0  0  0  0  0  0  0  0
  191.6070  176.1560  143.7680 C   0  0  0  0  0  3  0  0  0  0  0  0
  189.7600  177.6300  144.4450 C   0  0  2  0  0  3  0  0  0  0  0  0
  188.3000  177.8880  146.6060 N   0  0  0  0  0  0  0  0  0  0  0  0
  188.9450  177.7750  145.6520 C   0  0  0  0  0  0  0  0  0  0  0  0
  186.6200  178.4130  139.9550 O   0  0  0  0  0  1  0  0  0  0  0  0
  187.7780  178.6260  140.7030 C   0  0  0  0  0  2  0  0  0  0  0  0
  189.3430  177.6300  135.0600 C   0  0  0  0  0  2  0  0  0  0  0  0
  189.9260  175.3710  135.7940 N   0  0  0  0  0  0  0  0  0  0  0  0
  187.0150  178.2960  134.7600 N   0  0  0  0  0  1  0  0  0  0  0  0
  189.2780  175.2700  137.0740 C   0  0  0  0  0  0  0  0  0  0  0  0
  189.3610  176.1530  134.7010 C   0  0  0  0  0  2  0  0  0  0  0  0
  188.0420  178.0420  135.7520 C   0  0  1  0  0  3  0  0  0  0  0  0
  187.5160  177.0380  136.7890 C   0  0  0  0  0  2  0  0  0  0  0  0
  188.5850  176.4450  137.7150 C   0  0  2  0  0  3  0  0  0  0  0  0
  189.3420  174.1900  137.7210 O   0  0  0  0  0  0  0  0  0  0  0  0
  191.0720  174.5250  135.4900 C   0  0  0  0  0  2  0  0  0  0  0  0
  192.3580  175.3110  135.6680 C   0  0  0  0  0  2  0  0  0  0  0  0
  193.1080  176.4530  137.7230 C   0  0  0  0  0  2  0  0  0  0  0  0
  195.0010  175.0400  138.2410 N   0  0  0  0  0  1  0  0  0  0  0  0
  192.8880  175.1060  137.0710 C   0  0  2  0  0  3  0  0  0  0  0  0
  194.2850  175.6870  137.1580 C   0  0  1  0  0  3  0  0  0  0  0  0
  1  2  1  1  0  0  0
  1  8  1  0  0  0  0
  3  4  2  0  0  0  0
  4 12  1  0  0  0  0
  6 11  1  0  0  0  0
  7 16  1  1  0  0  0
  7  3  1  0  0  0  0
  8 10  2  0  0  0  0
  8  7  1  0  0  0  0
  9  3  1  0  0  0  0
  9  6  2  0  0  0  0
 10  9  1  0  0  0  0
 11  5  2  0  0  0  0
 12  5  1  0  0  0  0
 12 14  1  1  0  0  0
 14 13  3  0  0  0  0
 15 16  1  0  0  0  0
 17 22  1  0  0  0  0
 18 20  1  0  0  0  0
 20 24  1  0  0  0  0
 20 25  2  0  0  0  0
 21 17  1  0  0  0  0
 21 18  1  0  0  0  0
 22 19  1  6  0  0  0
 22 23  1  0  0  0  0
 23 24  1  0  0  0  0
 24  1  1  6  0  0  0
 26 27  1  0  0  0  0
 26 18  1  0  0  0  0
 30 27  1  6  0  0  0
 30 31  1  0  0  0  0
 30 28  1  0  0  0  0
 31 28  1  0  0  0  0
 31 29  1  1  0  0  0
M  END
>  <MODEL>
9

>  <REMARK>
 VINA RESULT:      -6.0      2.860      8.439
  Name = 
  7 active torsions:
  status: ('A' for Active; 'I' for Inactive)
    1  A    between atoms: C_3  and  C_18
    2  A    between atoms: C_3  and  C_24
    3  A    between atoms: N_4  and  C_30
    4  A    between atoms: C_5  and  C_29
    5  A    between atoms: C_13  and  C_19
    6  A    between atoms: C_26  and  C_27
    7  A    between atoms: C_27  and  C_30
                            x       y       z     vdW  Elec       q    Type
                         _______ _______ _______ _____ _____    ______ ____

>  <TORSDO>
F 7

$$$$
