=
 OpenBabel10232412153D

 48 54  0  0  1  0  0  0  0  0999 V2000
  190.0080  175.3940  137.5590 C   0  0  2  0  0  0  0  0  0  0  0  0
  187.9590  178.0350  140.7170 C   0  0  2  0  0  3  0  0  0  0  0  0
  188.9820  176.4670  137.7110 N   0  0  0  0  0  0  0  0  0  0  0  0
  188.7380  177.7370  138.3110 C   0  0  0  0  0  0  0  0  0  0  0  0
  188.3820  178.6110  141.9940 N   0  0  0  0  0  2  0  0  0  0  0  0
  188.4220  179.0140  137.3390 S   0  0  0  0  0  0  0  0  0  0  0  0
  189.1600  177.9650  139.7490 C   0  0  2  0  0  3  0  0  0  0  0  0
  191.1670  176.6510  139.2790 O   0  0  0  0  0  0  0  0  0  0  0  0
  190.1310  176.8430  140.2050 C   0  0  1  0  0  3  0  0  0  0  0  0
  192.1970  174.8920  138.2200 O   0  0  0  0  0  0  0  0  0  0  0  0
  188.7030  174.9940  137.7440 C   0  0  1  0  0  3  0  0  0  0  0  0
  188.5940  177.5840  143.0170 C   0  0  1  0  0  3  0  0  0  0  0  0
  190.6980  176.9870  141.6160 C   0  0  2  0  0  3  0  0  0  0  0  0
  190.9720  175.3610  138.7490 C   0  0  2  0  0  3  0  0  0  0  0  0
  190.3840  176.0800  143.9180 C   0  0  0  0  0  1  0  0  0  0  0  0
  193.3640  174.4380  136.2520 N   0  0  0  0  0  0  0  0  0  0  0  0
  187.2860  176.9130  143.4040 C   0  0  0  0  0  1  0  0  0  0  0  0
  189.6710  176.5440  142.6570 C   0  0  1  0  0  3  0  0  0  0  0  0
  192.2900  174.8720  136.8330 C   0  0  0  0  0  0  0  0  0  0  0  0
  190.8410  175.4400  135.9380 S   0  0  0  0  0  0  0  0  0  0  0  0
  191.1890  178.2740  141.8590 O   0  0  0  0  0  1  0  0  0  0  0  0
  187.9690  174.5920  136.4730 C   0  0  0  0  0  2  0  0  0  0  0  0
  187.9000  173.2010  136.3930 O   0  0  0  0  0  1  0  0  0  0  0  0
  193.2860  172.9280  134.3510 C   0  0  0  0  0  1  0  0  0  0  0  0
  193.5290  174.3610  134.8040 C   0  0  2  0  0  3  0  0  0  0  0  0
  197.4420  176.2140  135.1490 C   0  0  0  0  0  2  0  0  0  0  0  0
  196.2350  178.4430  134.6680 C   0  0  0  0  0  1  0  0  0  0  0  0
  197.3680  174.7070  134.9090 C   0  0  2  0  0  3  0  0  0  0  0  0
  195.0590  176.3230  134.4220 C   0  0  0  0  0  3  0  0  0  0  0  0
  195.9970  174.1830  135.3230 C   0  0  0  0  0  2  0  0  0  0  0  0
  198.4460  174.0120  135.7140 C   0  0  0  0  0  1  0  0  0  0  0  0
  194.9390  174.8150  134.4160 C   0  0  1  0  0  3  0  0  0  0  0  0
  196.2200  176.9550  134.6610 C   0  0  0  0  0  0  0  0  0  0  0  0
  186.7410  178.8050  140.1780 C   0  0  0  0  0  2  0  0  0  0  0  0
  185.7370  179.1890  141.2630 C   0  0  0  0  0  2  0  0  0  0  0  0
  184.3370  178.7100  140.8940 C   0  0  0  0  0  2  0  0  0  0  0  0
  184.2550  180.3550  139.1900 O   0  0  0  0  0  0  0  0  0  0  0  0
  183.8890  179.2540  139.5740 C   0  0  0  0  0  0  0  0  0  0  0  0
  183.0400  178.4010  138.6920 C   0  0  0  0  0  2  0  0  0  0  0  0
  183.4550  175.7510  136.6740 N   0  0  0  0  0  0  0  0  0  0  0  0
  184.0250  174.7970  135.7270 C   0  0  0  0  0  1  0  0  0  0  0  0
  180.9620  175.7350  136.6880 C   0  0  0  0  0  2  0  0  0  0  0  0
  182.2510  175.5400  137.4480 C   0  0  0  0  0  0  0  0  0  0  0  0
  181.3630  174.3450  137.1880 C   0  0  0  0  0  2  0  0  0  0  0  0
  184.2150  176.5630  137.5340 C   0  0  0  0  0  0  0  0  0  0  0  0
  183.4490  176.9330  138.7520 C   0  0  2  0  0  3  0  0  0  0  0  0
  182.2740  176.1350  138.7310 O   0  0  0  0  0  0  0  0  0  0  0  0
  185.4110  176.8950  137.3080 O   0  0  0  0  0  0  0  0  0  0  0  0
  1 20  1  6  0  0  0
  1  3  1  0  0  0  0
  1 11  1  0  0  0  0
  1 14  1  0  0  0  0
  2 34  1  6  0  0  0
  2  5  1  0  0  0  0
  3 11  1  0  0  0  0
  3  4  1  0  0  0  0
  5 12  1  0  0  0  0
  6  4  2  0  0  0  0
  7  4  1  6  0  0  0
  7  9  1  0  0  0  0
  7  2  1  0  0  0  0
  9  8  1  6  0  0  0
  9 13  1  0  0  0  0
 11 22  1  6  0  0  0
 12 17  1  6  0  0  0
 13 21  1  1  0  0  0
 13 18  1  0  0  0  0
 14 10  1  6  0  0  0
 14  8  1  0  0  0  0
 16 19  2  0  0  0  0
 18 12  1  0  0  0  0
 18 15  1  1  0  0  0
 19 10  1  0  0  0  0
 20 19  1  0  0  0  0
 23 22  1  0  0  0  0
 25 24  1  1  0  0  0
 25 16  1  0  0  0  0
 28 26  1  0  0  0  0
 28 30  1  0  0  0  0
 28 31  1  1  0  0  0
 29 33  2  0  0  0  0
 32 29  1  0  0  0  0
 32 25  1  1  0  0  0
 32 30  1  0  0  0  0
 33 27  1  0  0  0  0
 33 26  1  0  0  0  0
 34 35  1  0  0  0  0
 36 35  1  0  0  0  0
 37 38  2  0  0  0  0
 38 36  1  0  0  0  0
 39 38  1  0  0  0  0
 40 43  1  0  0  0  0
 40 45  1  0  0  0  0
 41 40  1  0  0  0  0
 42 44  1  0  0  0  0
 42 43  1  0  0  0  0
 43 47  1  0  0  0  0
 44 43  1  0  0  0  0
 45 46  1  0  0  0  0
 46 39  1  6  0  0  0
 47 46  1  0  0  0  0
 48 45  2  0  0  0  0
M  END
>  <MODEL>
1

>  <REMARK>
 VINA RESULT:      -6.6      0.000      0.000
  Name = 
  9 active torsions:
  status: ('A' for Active; 'I' for Inactive)
    1  A    between atoms: C_2  and  C_8
    2  A    between atoms: C_2  and  C_10
    3  A    between atoms: C_3  and  C_10
    4  A    between atoms: C_3  and  C_32
    5  A    between atoms: C_4  and  C_24
    6  A    between atoms: C_14  and  C_32
    7  A    between atoms: C_14  and  C_34
    8  A    between atoms: C_27  and  N_40
    9  A    between atoms: C_27  and  C_47
                            x       y       z     vdW  Elec       q    Type
                         _______ _______ _______ _____ _____    ______ ____

>  <TORSDO>
F 9

$$$$
=
 OpenBabel10232412153D

 48 54  0  0  1  0  0  0  0  0999 V2000
  187.1320  177.1930  136.9400 C   0  0  2  0  0  0  0  0  0  0  0  0
  190.8560  174.4990  136.7930 C   0  0  2  0  0  3  0  0  0  0  0  0
  187.6000  175.8550  136.4730 N   0  0  0  0  0  0  0  0  0  0  0  0
  188.3170  174.6920  136.8770 C   0  0  0  0  0  0  0  0  0  0  0  0
  192.0190  174.3210  137.6620 N   0  0  0  0  0  2  0  0  0  0  0  0
  187.5350  173.2550  136.8940 S   0  0  0  0  0  0  0  0  0  0  0  0
  189.6160  174.8560  137.6420 C   0  0  2  0  0  3  0  0  0  0  0  0
  188.5810  176.7270  138.8280 O   0  0  0  0  0  0  0  0  0  0  0  0
  189.7460  176.3120  138.1660 C   0  0  1  0  0  3  0  0  0  0  0  0
  187.1930  178.5570  138.8420 O   0  0  0  0  0  0  0  0  0  0  0  0
  187.6110  177.1100  135.6520 C   0  0  1  0  0  3  0  0  0  0  0  0
  192.8920  175.4970  137.6600 C   0  0  1  0  0  3  0  0  0  0  0  0
  190.9770  176.6030  139.0230 C   0  0  2  0  0  3  0  0  0  0  0  0
  188.0390  177.7580  138.0370 C   0  0  2  0  0  3  0  0  0  0  0  0
  193.2250  177.6710  138.8600 C   0  0  0  0  0  1  0  0  0  0  0  0
  184.9720  179.1020  139.3020 N   0  0  0  0  0  0  0  0  0  0  0  0
  193.5520  175.6930  136.3050 C   0  0  0  0  0  1  0  0  0  0  0  0
  192.2130  176.7910  138.1430 C   0  0  1  0  0  3  0  0  0  0  0  0
  185.8290  178.3980  138.6300 C   0  0  0  0  0  0  0  0  0  0  0  0
  185.3600  177.2090  137.3700 S   0  0  0  0  0  0  0  0  0  0  0  0
  191.1680  175.6390  140.0170 O   0  0  0  0  0  1  0  0  0  0  0  0
  186.5420  177.0150  134.5730 C   0  0  0  0  0  2  0  0  0  0  0  0
  185.9920  178.2770  134.3480 O   0  0  0  0  0  1  0  0  0  0  0  0
  182.9880  180.3840  138.7430 C   0  0  0  0  0  1  0  0  0  0  0  0
  183.5270  179.0110  139.1210 C   0  0  2  0  0  3  0  0  0  0  0  0
  182.2340  178.9650  143.2670 C   0  0  0  0  0  2  0  0  0  0  0  0
  184.6490  178.2510  143.8290 C   0  0  0  0  0  1  0  0  0  0  0  0
  181.1700  178.9210  142.1720 C   0  0  2  0  0  3  0  0  0  0  0  0
  183.8890  178.3230  141.5150 C   0  0  0  0  0  3  0  0  0  0  0  0
  181.7500  179.4520  140.8650 C   0  0  0  0  0  2  0  0  0  0  0  0
  179.9830  179.7650  142.5840 C   0  0  0  0  0  1  0  0  0  0  0  0
  182.8710  178.5150  140.4120 C   0  0  1  0  0  3  0  0  0  0  0  0
  183.5740  178.4340  142.8170 C   0  0  0  0  0  0  0  0  0  0  0  0
  190.6850  173.2630  135.8920 C   0  0  0  0  0  2  0  0  0  0  0  0
  191.8530  173.0480  134.9310 C   0  0  0  0  0  2  0  0  0  0  0  0
  192.3420  171.6050  134.9940 C   0  0  0  0  0  2  0  0  0  0  0  0
  193.7340  170.4950  136.5590 O   0  0  0  0  0  0  0  0  0  0  0  0
  193.5730  171.4660  135.8330 C   0  0  0  0  0  0  0  0  0  0  0  0
  194.6430  172.4990  135.7220 C   0  0  0  0  0  2  0  0  0  0  0  0
  196.6680  173.9720  137.9570 N   0  0  0  0  0  0  0  0  0  0  0  0
  197.2100  174.5170  139.1980 C   0  0  0  0  0  1  0  0  0  0  0  0
  197.6310  175.0430  135.9230 C   0  0  0  0  0  2  0  0  0  0  0  0
  197.4140  173.7870  136.7310 C   0  0  0  0  0  0  0  0  0  0  0  0
  198.8150  174.3350  136.5870 C   0  0  0  0  0  2  0  0  0  0  0  0
  195.7400  172.9180  137.8950 C   0  0  0  0  0  0  0  0  0  0  0  0
  195.8410  172.1790  136.6090 C   0  0  2  0  0  3  0  0  0  0  0  0
  197.0160  172.6610  135.9750 O   0  0  0  0  0  0  0  0  0  0  0  0
  194.9540  172.6210  138.8360 O   0  0  0  0  0  0  0  0  0  0  0  0
  1 20  1  1  0  0  0
  1 14  1  0  0  0  0
  2 34  1  1  0  0  0
  2  7  1  0  0  0  0
  2  5  1  0  0  0  0
  3  4  1  0  0  0  0
  3  1  1  0  0  0  0
  4  6  2  0  0  0  0
  7  4  1  6  0  0  0
  7  9  1  0  0  0  0
  9  8  1  1  0  0  0
  9 13  1  0  0  0  0
 11 22  1  6  0  0  0
 11  3  1  0  0  0  0
 11  1  1  0  0  0  0
 12 17  1  6  0  0  0
 12  5  1  0  0  0  0
 12 18  1  0  0  0  0
 13 21  1  1  0  0  0
 14  8  1  1  0  0  0
 14 10  1  0  0  0  0
 18 15  1  1  0  0  0
 18 13  1  0  0  0  0
 19 10  1  0  0  0  0
 19 16  2  0  0  0  0
 20 19  1  0  0  0  0
 23 22  1  0  0  0  0
 25 24  1  1  0  0  0
 25 16  1  0  0  0  0
 28 31  1  1  0  0  0
 28 26  1  0  0  0  0
 29 33  2  0  0  0  0
 30 28  1  0  0  0  0
 32 25  1  6  0  0  0
 32 30  1  0  0  0  0
 32 29  1  0  0  0  0
 33 26  1  0  0  0  0
 33 27  1  0  0  0  0
 35 36  1  0  0  0  0
 35 34  1  0  0  0  0
 36 38  1  0  0  0  0
 38 37  2  0  0  0  0
 39 38  1  0  0  0  0
 40 41  1  0  0  0  0
 42 44  1  0  0  0  0
 42 43  1  0  0  0  0
 43 40  1  0  0  0  0
 44 43  1  0  0  0  0
 45 40  1  0  0  0  0
 45 48  2  0  0  0  0
 46 39  1  6  0  0  0
 46 45  1  0  0  0  0
 47 46  1  0  0  0  0
 47 43  1  0  0  0  0
M  END
>  <MODEL>
2

>  <REMARK>
 VINA RESULT:      -6.5      2.897     11.078
  Name = 
  9 active torsions:
  status: ('A' for Active; 'I' for Inactive)
    1  A    between atoms: C_2  and  C_8
    2  A    between atoms: C_2  and  C_10
    3  A    between atoms: C_3  and  C_10
    4  A    between atoms: C_3  and  C_32
    5  A    between atoms: C_4  and  C_24
    6  A    between atoms: C_14  and  C_32
    7  A    between atoms: C_14  and  C_34
    8  A    between atoms: C_27  and  N_40
    9  A    between atoms: C_27  and  C_47
                            x       y       z     vdW  Elec       q    Type
                         _______ _______ _______ _____ _____    ______ ____

>  <TORSDO>
F 9

$$$$
=
 OpenBabel10232412153D

 48 54  0  0  1  0  0  0  0  0999 V2000
  185.7010  178.0410  139.0970 C   0  0  2  0  0  0  0  0  0  0  0  0
  189.3290  176.2260  136.9320 C   0  0  2  0  0  3  0  0  0  0  0  0
  187.1250  178.3200  138.7480 N   0  0  0  0  0  0  0  0  0  0  0  0
  188.0600  178.3070  137.6740 C   0  0  0  0  0  0  0  0  0  0  0  0
  189.4890  175.3310  135.7850 N   0  0  0  0  0  2  0  0  0  0  0  0
  188.7620  179.7160  137.2290 S   0  0  0  0  0  0  0  0  0  0  0  0
  188.0840  177.1180  136.7330 C   0  0  2  0  0  3  0  0  0  0  0  0
  185.6450  177.0610  136.8800 O   0  0  0  0  0  0  0  0  0  0  0  0
  186.7990  176.2660  136.9160 C   0  0  1  0  0  3  0  0  0  0  0  0
  183.7130  177.3120  138.0980 O   0  0  0  0  0  0  0  0  0  0  0  0
  186.6580  177.6550  140.0090 C   0  0  1  0  0  3  0  0  0  0  0  0
  189.0070  173.9780  136.0740 C   0  0  1  0  0  3  0  0  0  0  0  0
  186.6530  175.0710  135.9750 C   0  0  2  0  0  3  0  0  0  0  0  0
  185.0880  176.9860  138.1710 C   0  0  2  0  0  3  0  0  0  0  0  0
  186.9240  172.5930  135.9560 C   0  0  0  0  0  1  0  0  0  0  0  0
  182.1210  178.9440  138.5910 N   0  0  0  0  0  0  0  0  0  0  0  0
  189.8750  173.2940  137.1180 C   0  0  0  0  0  1  0  0  0  0  0  0
  187.5170  173.9030  136.4500 C   0  0  1  0  0  3  0  0  0  0  0  0
  183.3600  178.5620  138.5930 C   0  0  0  0  0  0  0  0  0  0  0  0
  184.7010  179.5580  139.2490 S   0  0  0  0  0  0  0  0  0  0  0  0
  186.9010  175.4160  134.6430 O   0  0  0  0  0  1  0  0  0  0  0  0
  186.8490  178.6060  141.1810 C   0  0  0  0  0  2  0  0  0  0  0  0
  186.4470  177.9820  142.3610 O   0  0  0  0  0  1  0  0  0  0  0  0
  180.9090  179.9930  140.4150 C   0  0  0  0  0  1  0  0  0  0  0  0
  181.6660  180.2280  139.1150 C   0  0  2  0  0  3  0  0  0  0  0  0
  180.5180  182.5350  135.6200 C   0  0  0  0  0  2  0  0  0  0  0  0
  181.0740  184.6220  137.0320 C   0  0  0  0  0  1  0  0  0  0  0  0
  180.0590  181.0810  135.7160 C   0  0  2  0  0  3  0  0  0  0  0  0
  181.0020  182.4150  138.0640 C   0  0  0  0  0  3  0  0  0  0  0  0
  180.9500  180.3200  136.6930 C   0  0  0  0  0  2  0  0  0  0  0  0
  180.1320  180.4360  134.3480 C   0  0  0  0  0  1  0  0  0  0  0  0
  180.7680  180.9210  138.0880 C   0  0  1  0  0  3  0  0  0  0  0  0
  180.7950  183.1620  136.9660 C   0  0  0  0  0  0  0  0  0  0  0  0
  190.6390  176.9960  137.1780 C   0  0  0  0  0  2  0  0  0  0  0  0
  191.3210  176.6270  138.4950 C   0  0  0  0  0  2  0  0  0  0  0  0
  190.2940  176.5010  139.6150 C   0  0  0  0  0  2  0  0  0  0  0  0
  191.8950  177.5450  141.0150 O   0  0  0  0  0  0  0  0  0  0  0  0
  190.8600  176.8980  140.9410 C   0  0  0  0  0  0  0  0  0  0  0  0
  190.1040  176.5560  142.1810 C   0  0  0  0  0  2  0  0  0  0  0  0
  189.9130  176.7520  145.5260 N   0  0  0  0  0  0  0  0  0  0  0  0
  190.2130  176.6180  146.9480 C   0  0  0  0  0  1  0  0  0  0  0  0
  187.4770  177.0110  145.0670 C   0  0  0  0  0  2  0  0  0  0  0  0
  188.8690  177.5840  144.9690 C   0  0  0  0  0  0  0  0  0  0  0  0
  187.8570  178.2610  145.8650 C   0  0  0  0  0  2  0  0  0  0  0  0
  190.8870  176.7870  144.5120 C   0  0  0  0  0  0  0  0  0  0  0  0
  190.4010  177.5260  143.3180 C   0  0  2  0  0  3  0  0  0  0  0  0
  189.1870  178.1480  143.7120 O   0  0  0  0  0  0  0  0  0  0  0  0
  192.0380  176.2850  144.6290 O   0  0  0  0  0  0  0  0  0  0  0  0
  1 20  1  1  0  0  0
  1 11  1  0  0  0  0
  2 34  1  6  0  0  0
  3  1  1  0  0  0  0
  3 11  1  0  0  0  0
  4  3  1  0  0  0  0
  5 12  1  0  0  0  0
  5  2  1  0  0  0  0
  6  4  2  0  0  0  0
  7  9  1  0  0  0  0
  7  2  1  0  0  0  0
  7  4  1  1  0  0  0
  9  8  1  6  0  0  0
 10 14  1  0  0  0  0
 10 19  1  0  0  0  0
 11 22  1  1  0  0  0
 12 18  1  0  0  0  0
 12 17  1  1  0  0  0
 13 21  1  6  0  0  0
 13 18  1  0  0  0  0
 13  9  1  0  0  0  0
 14  8  1  6  0  0  0
 14  1  1  0  0  0  0
 16 19  2  0  0  0  0
 16 25  1  0  0  0  0
 18 15  1  6  0  0  0
 19 20  1  0  0  0  0
 22 23  1  0  0  0  0
 25 24  1  1  0  0  0
 26 28  1  0  0  0  0
 26 33  1  0  0  0  0
 28 31  1  6  0  0  0
 28 30  1  0  0  0  0
 29 32  1  0  0  0  0
 30 32  1  0  0  0  0
 32 25  1  1  0  0  0
 33 27  1  0  0  0  0
 33 29  2  0  0  0  0
 34 35  1  0  0  0  0
 35 36  1  0  0  0  0
 36 38  1  0  0  0  0
 38 37  2  0  0  0  0
 38 39  1  0  0  0  0
 40 41  1  0  0  0  0
 42 44  1  0  0  0  0
 43 42  1  0  0  0  0
 43 40  1  0  0  0  0
 43 44  1  0  0  0  0
 45 48  2  0  0  0  0
 45 40  1  0  0  0  0
 46 39  1  6  0  0  0
 46 47  1  0  0  0  0
 46 45  1  0  0  0  0
 47 43  1  0  0  0  0
M  END
>  <MODEL>
3

>  <REMARK>
 VINA RESULT:      -6.3      3.531     10.405
  Name = 
  9 active torsions:
  status: ('A' for Active; 'I' for Inactive)
    1  A    between atoms: C_2  and  C_8
    2  A    between atoms: C_2  and  C_10
    3  A    between atoms: C_3  and  C_10
    4  A    between atoms: C_3  and  C_32
    5  A    between atoms: C_4  and  C_24
    6  A    between atoms: C_14  and  C_32
    7  A    between atoms: C_14  and  C_34
    8  A    between atoms: C_27  and  N_40
    9  A    between atoms: C_27  and  C_47
                            x       y       z     vdW  Elec       q    Type
                         _______ _______ _______ _____ _____    ______ ____

>  <TORSDO>
F 9

$$$$
=
 OpenBabel10232412153D

 48 54  0  0  1  0  0  0  0  0999 V2000
  189.7660  174.5370  136.8790 C   0  0  2  0  0  0  0  0  0  0  0  0
  186.3370  177.4830  137.7230 C   0  0  2  0  0  3  0  0  0  0  0  0
  188.4650  175.0190  136.3290 N   0  0  0  0  0  0  0  0  0  0  0  0
  187.7230  176.1950  136.0180 C   0  0  0  0  0  0  0  0  0  0  0  0
  186.2530  178.7890  138.3780 N   0  0  0  0  0  2  0  0  0  0  0  0
  187.2880  176.4570  134.4620 S   0  0  0  0  0  0  0  0  0  0  0  0
  187.7010  177.3380  137.0140 C   0  0  2  0  0  3  0  0  0  0  0  0
  190.0570  176.8710  137.4710 O   0  0  0  0  0  0  0  0  0  0  0  0
  188.8200  177.1440  138.0720 C   0  0  1  0  0  3  0  0  0  0  0  0
  191.7800  175.3740  137.7280 O   0  0  0  0  0  0  0  0  0  0  0  0
  188.6320  173.8540  137.2600 C   0  0  1  0  0  3  0  0  0  0  0  0
  186.5060  178.6980  139.8180 C   0  0  1  0  0  3  0  0  0  0  0  0
  188.9640  178.2650  139.1010 C   0  0  2  0  0  3  0  0  0  0  0  0
  190.3820  175.5530  137.8460 C   0  0  2  0  0  3  0  0  0  0  0  0
  188.3870  178.7880  141.4690 C   0  0  0  0  0  1  0  0  0  0  0  0
  193.4650  174.3680  136.4680 N   0  0  0  0  0  0  0  0  0  0  0  0
  185.4000  177.9320  140.5250 C   0  0  0  0  0  1  0  0  0  0  0  0
  187.8930  178.1420  140.1850 C   0  0  1  0  0  3  0  0  0  0  0  0
  192.2040  174.6080  136.6490 C   0  0  0  0  0  0  0  0  0  0  0  0
  190.9120  173.9660  135.5810 S   0  0  0  0  0  0  0  0  0  0  0  0
  188.9820  179.5290  138.5040 O   0  0  0  0  0  1  0  0  0  0  0  0
  188.3740  172.5620  136.5000 C   0  0  0  0  0  2  0  0  0  0  0  0
  187.8110  171.6180  137.3600 O   0  0  0  0  0  1  0  0  0  0  0  0
  194.2400  172.1410  135.8860 C   0  0  0  0  0  1  0  0  0  0  0  0
  193.9880  173.5530  135.3750 C   0  0  2  0  0  3  0  0  0  0  0  0
  197.5960  175.9680  135.2580 C   0  0  0  0  0  2  0  0  0  0  0  0
  196.0380  177.9540  134.7210 C   0  0  0  0  0  1  0  0  0  0  0  0
  197.7300  174.4510  135.1330 C   0  0  2  0  0  3  0  0  0  0  0  0
  195.1760  175.6740  134.7270 C   0  0  0  0  0  3  0  0  0  0  0  0
  196.4850  173.7730  135.6970 C   0  0  0  0  0  2  0  0  0  0  0  0
  198.9540  173.9870  135.8930 C   0  0  0  0  0  1  0  0  0  0  0  0
  195.2820  174.1690  134.8400 C   0  0  1  0  0  3  0  0  0  0  0  0
  196.2450  176.4840  134.8220 C   0  0  0  0  0  0  0  0  0  0  0  0
  185.1130  177.2780  136.8130 C   0  0  0  0  0  2  0  0  0  0  0  0
  183.8060  177.7640  137.4370 C   0  0  0  0  0  2  0  0  0  0  0  0
  183.1360  176.6420  138.2240 C   0  0  0  0  0  2  0  0  0  0  0  0
  181.1660  177.0620  136.9750 O   0  0  0  0  0  0  0  0  0  0  0  0
  181.8100  176.2650  137.6440 C   0  0  0  0  0  0  0  0  0  0  0  0
  181.3080  174.8730  137.8330 C   0  0  0  0  0  2  0  0  0  0  0  0
  182.9790  172.1370  136.8410 N   0  0  0  0  0  0  0  0  0  0  0  0
  183.3560  170.7480  136.5960 C   0  0  0  0  0  1  0  0  0  0  0  0
  184.9370  173.6770  136.9160 C   0  0  0  0  0  2  0  0  0  0  0  0
  183.6310  173.2920  136.2650 C   0  0  0  0  0  0  0  0  0  0  0  0
  184.9150  173.1460  135.4800 C   0  0  0  0  0  2  0  0  0  0  0  0
  181.6520  172.5850  136.9700 C   0  0  0  0  0  0  0  0  0  0  0  0
  181.5230  174.0150  136.5910 C   0  0  2  0  0  3  0  0  0  0  0  0
  182.7630  174.3760  136.0000 O   0  0  0  0  0  0  0  0  0  0  0  0
  180.6950  171.8450  137.3260 O   0  0  0  0  0  0  0  0  0  0  0  0
  1 20  1  6  0  0  0
  1 11  1  0  0  0  0
  1 14  1  0  0  0  0
  2 34  1  6  0  0  0
  2  5  1  0  0  0  0
  3  1  1  0  0  0  0
  3 11  1  0  0  0  0
  4  3  1  0  0  0  0
  5 12  1  0  0  0  0
  6  4  2  0  0  0  0
  7  4  1  6  0  0  0
  7  2  1  0  0  0  0
  7  9  1  0  0  0  0
  9  8  1  6  0  0  0
  9 13  1  0  0  0  0
 10 14  1  0  0  0  0
 11 22  1  6  0  0  0
 12 18  1  0  0  0  0
 12 17  1  1  0  0  0
 13 21  1  6  0  0  0
 13 18  1  0  0  0  0
 14  8  1  6  0  0  0
 16 19  2  0  0  0  0
 18 15  1  1  0  0  0
 19 10  1  0  0  0  0
 20 19  1  0  0  0  0
 22 23  1  0  0  0  0
 25 24  1  1  0  0  0
 25 16  1  0  0  0  0
 27 33  1  0  0  0  0
 28 26  1  0  0  0  0
 28 30  1  0  0  0  0
 28 31  1  1  0  0  0
 29 33  2  0  0  0  0
 29 32  1  0  0  0  0
 32 25  1  1  0  0  0
 32 30  1  0  0  0  0
 33 26  1  0  0  0  0
 34 35  1  0  0  0  0
 35 36  1  0  0  0  0
 37 38  2  0  0  0  0
 38 39  1  0  0  0  0
 38 36  1  0  0  0  0
 40 45  1  0  0  0  0
 41 40  1  0  0  0  0
 43 40  1  0  0  0  0
 43 42  1  0  0  0  0
 44 43  1  0  0  0  0
 44 42  1  0  0  0  0
 45 48  2  0  0  0  0
 46 45  1  0  0  0  0
 46 39  1  1  0  0  0
 47 43  1  0  0  0  0
 47 46  1  0  0  0  0
M  END
>  <MODEL>
4

>  <REMARK>
 VINA RESULT:      -5.7      2.074      3.134
  Name = 
  9 active torsions:
  status: ('A' for Active; 'I' for Inactive)
    1  A    between atoms: C_2  and  C_8
    2  A    between atoms: C_2  and  C_10
    3  A    between atoms: C_3  and  C_10
    4  A    between atoms: C_3  and  C_32
    5  A    between atoms: C_4  and  C_24
    6  A    between atoms: C_14  and  C_32
    7  A    between atoms: C_14  and  C_34
    8  A    between atoms: C_27  and  N_40
    9  A    between atoms: C_27  and  C_47
                            x       y       z     vdW  Elec       q    Type
                         _______ _______ _______ _____ _____    ______ ____

>  <TORSDO>
F 9

$$$$
=
 OpenBabel10232412153D

 48 54  0  0  1  0  0  0  0  0999 V2000
  188.9730  175.8310  137.7660 C   0  0  2  0  0  0  0  0  0  0  0  0
  185.8430  178.6630  139.5900 C   0  0  2  0  0  3  0  0  0  0  0  0
  187.8580  176.7500  137.3940 N   0  0  0  0  0  0  0  0  0  0  0  0
  187.3340  178.0560  137.6150 C   0  0  0  0  0  0  0  0  0  0  0  0
  185.8090  179.5140  140.7790 N   0  0  0  0  0  2  0  0  0  0  0  0
  187.2130  179.0780  136.3430 S   0  0  0  0  0  0  0  0  0  0  0  0
  187.2810  178.5990  139.0300 C   0  0  2  0  0  3  0  0  0  0  0  0
  189.4440  177.5320  139.4290 O   0  0  0  0  0  0  0  0  0  0  0  0
  188.1650  177.7320  139.9670 C   0  0  1  0  0  3  0  0  0  0  0  0
  190.8970  175.7840  139.0990 O   0  0  0  0  0  0  0  0  0  0  0  0
  187.7140  175.2810  137.6630 C   0  0  1  0  0  3  0  0  0  0  0  0
  185.7930  178.7290  142.0160 C   0  0  1  0  0  3  0  0  0  0  0  0
  188.2660  178.2080  141.4160 C   0  0  2  0  0  3  0  0  0  0  0  0
  189.5330  176.1540  139.1550 C   0  0  2  0  0  3  0  0  0  0  0  0
  187.3540  177.6930  143.6780 C   0  0  0  0  0  1  0  0  0  0  0  0
  192.6380  175.1610  137.6770 N   0  0  0  0  0  0  0  0  0  0  0  0
  184.4940  177.9530  142.1600 C   0  0  0  0  0  1  0  0  0  0  0  0
  187.0160  177.8130  142.2010 C   0  0  1  0  0  3  0  0  0  0  0  0
  191.4050  175.5290  137.8300 C   0  0  0  0  0  0  0  0  0  0  0  0
  190.2480  175.7080  136.4680 S   0  0  0  0  0  0  0  0  0  0  0  0
  188.5440  179.5760  141.5030 O   0  0  0  0  0  1  0  0  0  0  0  0
  187.4350  174.5550  136.3560 C   0  0  0  0  0  2  0  0  0  0  0  0
  186.8580  173.3140  136.6250 O   0  0  0  0  0  1  0  0  0  0  0  0
  193.3170  173.3400  136.2210 C   0  0  0  0  0  1  0  0  0  0  0  0
  193.2380  174.8520  136.3820 C   0  0  2  0  0  3  0  0  0  0  0  0
  197.0210  176.1210  134.6690 C   0  0  0  0  0  2  0  0  0  0  0  0
  197.7730  173.6690  134.9570 C   0  0  0  0  0  1  0  0  0  0  0  0
  196.0840  177.1870  135.2340 C   0  0  2  0  0  3  0  0  0  0  0  0
  195.6810  174.4430  135.9380 C   0  0  0  0  0  3  0  0  0  0  0  0
  194.6610  176.6410  135.3040 C   0  0  0  0  0  2  0  0  0  0  0  0
  196.1190  178.4130  134.3480 C   0  0  0  0  0  1  0  0  0  0  0  0
  194.6330  175.4750  136.2930 C   0  0  1  0  0  3  0  0  0  0  0  0
  196.8120  174.7570  135.2830 C   0  0  0  0  0  0  0  0  0  0  0  0
  184.7810  179.1350  138.5810 C   0  0  0  0  0  2  0  0  0  0  0  0
  183.8420  178.0210  138.1230 C   0  0  0  0  0  2  0  0  0  0  0  0
  182.3860  178.4400  138.2930 C   0  0  0  0  0  2  0  0  0  0  0  0
  181.3320  177.3450  140.1110 O   0  0  0  0  0  0  0  0  0  0  0  0
  181.5590  177.3560  138.9090 C   0  0  0  0  0  0  0  0  0  0  0  0
  180.9510  176.3200  138.0250 C   0  0  0  0  0  2  0  0  0  0  0  0
  182.2360  173.4750  136.7920 N   0  0  0  0  0  0  0  0  0  0  0  0
  183.1730  172.4540  136.3320 C   0  0  0  0  0  1  0  0  0  0  0  0
  179.9850  173.2720  135.7410 C   0  0  0  0  0  2  0  0  0  0  0  0
  180.8180  173.2730  136.9990 C   0  0  0  0  0  0  0  0  0  0  0  0
  180.1470  171.9910  136.5630 C   0  0  0  0  0  2  0  0  0  0  0  0
  182.5370  174.4440  137.7650 C   0  0  0  0  0  0  0  0  0  0  0  0
  181.3130  174.9070  138.4690 C   0  0  2  0  0  3  0  0  0  0  0  0
  180.2750  174.0260  138.0650 O   0  0  0  0  0  0  0  0  0  0  0  0
  183.7080  174.8340  138.0260 O   0  0  0  0  0  0  0  0  0  0  0  0
  1 20  1  6  0  0  0
  1 14  1  0  0  0  0
  2 34  1  6  0  0  0
  2  5  1  0  0  0  0
  3  4  1  0  0  0  0
  3 11  1  0  0  0  0
  3  1  1  0  0  0  0
  5 12  1  0  0  0  0
  6  4  2  0  0  0  0
  7  4  1  6  0  0  0
  7  2  1  0  0  0  0
  7  9  1  0  0  0  0
  9  8  1  6  0  0  0
  9 13  1  0  0  0  0
 11 22  1  6  0  0  0
 11  1  1  0  0  0  0
 12 17  1  6  0  0  0
 12 18  1  0  0  0  0
 13 21  1  6  0  0  0
 13 18  1  0  0  0  0
 14 10  1  6  0  0  0
 14  8  1  0  0  0  0
 16 19  2  0  0  0  0
 18 15  1  1  0  0  0
 19 10  1  0  0  0  0
 20 19  1  0  0  0  0
 22 23  1  0  0  0  0
 25 24  1  1  0  0  0
 25 16  1  0  0  0  0
 26 28  1  0  0  0  0
 26 33  1  0  0  0  0
 27 33  1  0  0  0  0
 28 31  1  6  0  0  0
 28 30  1  0  0  0  0
 29 32  1  0  0  0  0
 30 32  1  0  0  0  0
 32 25  1  6  0  0  0
 33 29  2  0  0  0  0
 35 36  1  0  0  0  0
 35 34  1  0  0  0  0
 36 38  1  0  0  0  0
 38 37  2  0  0  0  0
 39 38  1  0  0  0  0
 40 43  1  0  0  0  0
 40 45  1  0  0  0  0
 41 40  1  0  0  0  0
 42 44  1  0  0  0  0
 42 43  1  0  0  0  0
 43 47  1  0  0  0  0
 44 43  1  0  0  0  0
 45 48  2  0  0  0  0
 45 46  1  0  0  0  0
 46 39  1  6  0  0  0
 47 46  1  0  0  0  0
M  END
>  <MODEL>
5

>  <REMARK>
 VINA RESULT:      -5.6      1.724      2.646
  Name = 
  9 active torsions:
  status: ('A' for Active; 'I' for Inactive)
    1  A    between atoms: C_2  and  C_8
    2  A    between atoms: C_2  and  C_10
    3  A    between atoms: C_3  and  C_10
    4  A    between atoms: C_3  and  C_32
    5  A    between atoms: C_4  and  C_24
    6  A    between atoms: C_14  and  C_32
    7  A    between atoms: C_14  and  C_34
    8  A    between atoms: C_27  and  N_40
    9  A    between atoms: C_27  and  C_47
                            x       y       z     vdW  Elec       q    Type
                         _______ _______ _______ _____ _____    ______ ____

>  <TORSDO>
F 9

$$$$
=
 OpenBabel10232412153D

 48 54  0  0  1  0  0  0  0  0999 V2000
  189.2720  175.7910  137.8180 C   0  0  2  0  0  0  0  0  0  0  0  0
  186.0030  178.4940  139.5930 C   0  0  2  0  0  3  0  0  0  0  0  0
  188.1280  176.6660  137.4280 N   0  0  0  0  0  0  0  0  0  0  0  0
  187.5480  177.9500  137.6420 C   0  0  0  0  0  0  0  0  0  0  0  0
  185.9160  179.3420  140.7820 N   0  0  0  0  0  2  0  0  0  0  0  0
  187.4080  178.9680  136.3690 S   0  0  0  0  0  0  0  0  0  0  0  0
  187.4510  178.4880  139.0570 C   0  0  2  0  0  3  0  0  0  0  0  0
  189.6480  177.5070  139.4890 O   0  0  0  0  0  0  0  0  0  0  0  0
  188.3540  177.6550  140.0070 C   0  0  1  0  0  3  0  0  0  0  0  0
  191.1750  175.8180  139.1820 O   0  0  0  0  0  0  0  0  0  0  0  0
  188.0370  175.1920  137.6950 C   0  0  1  0  0  3  0  0  0  0  0  0
  185.9110  178.5560  142.0180 C   0  0  1  0  0  3  0  0  0  0  0  0
  188.4120  178.1340  141.4570 C   0  0  2  0  0  3  0  0  0  0  0  0
  189.7960  176.1330  139.2160 C   0  0  2  0  0  3  0  0  0  0  0  0
  187.4850  177.5790  143.7040 C   0  0  0  0  0  1  0  0  0  0  0  0
  192.9610  175.2670  137.7870 N   0  0  0  0  0  0  0  0  0  0  0  0
  184.6420  177.7280  142.1410 C   0  0  0  0  0  1  0  0  0  0  0  0
  187.1660  177.6880  142.2220 C   0  0  1  0  0  3  0  0  0  0  0  0
  191.7120  175.5860  137.9210 C   0  0  0  0  0  0  0  0  0  0  0  0
  190.5720  175.7200  136.5410 S   0  0  0  0  0  0  0  0  0  0  0  0
  188.6350  179.5110  141.5500 O   0  0  0  0  0  1  0  0  0  0  0  0
  187.8090  174.4570  136.3830 C   0  0  0  0  0  2  0  0  0  0  0  0
  188.1280  173.1080  136.5410 O   0  0  0  0  0  1  0  0  0  0  0  0
  193.0180  173.6900  135.9410 C   0  0  0  0  0  1  0  0  0  0  0  0
  193.5940  174.9830  136.5030 C   0  0  2  0  0  3  0  0  0  0  0  0
  197.6620  173.5890  135.8970 C   0  0  0  0  0  2  0  0  0  0  0  0
  196.9930  171.5570  137.3400 C   0  0  0  0  0  1  0  0  0  0  0  0
  197.3520  175.0630  135.6430 C   0  0  2  0  0  3  0  0  0  0  0  0
  195.5040  173.4760  137.1430 C   0  0  0  0  0  3  0  0  0  0  0  0
  195.8560  175.2440  135.4060 C   0  0  0  0  0  2  0  0  0  0  0  0
  198.1240  175.5420  134.4320 C   0  0  0  0  0  1  0  0  0  0  0  0
  195.1080  174.8620  136.6840 C   0  0  1  0  0  3  0  0  0  0  0  0
  196.7030  172.9370  136.8650 C   0  0  0  0  0  0  0  0  0  0  0  0
  184.9390  178.9260  138.5670 C   0  0  0  0  0  2  0  0  0  0  0  0
  184.2110  177.7500  137.9180 C   0  0  0  0  0  2  0  0  0  0  0  0
  182.7080  177.8550  138.1480 C   0  0  0  0  0  2  0  0  0  0  0  0
  181.6330  177.2540  140.1720 O   0  0  0  0  0  0  0  0  0  0  0  0
  182.2280  176.8770  139.1730 C   0  0  0  0  0  0  0  0  0  0  0  0
  182.4230  175.4190  138.9270 C   0  0  0  0  0  2  0  0  0  0  0  0
  181.9150  172.7090  137.0130 N   0  0  0  0  0  0  0  0  0  0  0  0
  181.2830  171.5790  136.3380 C   0  0  0  0  0  1  0  0  0  0  0  0
  184.3720  172.4130  137.3110 C   0  0  0  0  0  2  0  0  0  0  0  0
  183.2390  173.2190  136.7250 C   0  0  0  0  0  0  0  0  0  0  0  0
  184.1700  172.4740  135.7950 C   0  0  0  0  0  2  0  0  0  0  0  0
  181.2350  173.8740  137.4100 C   0  0  0  0  0  0  0  0  0  0  0  0
  182.1500  175.0430  137.4750 C   0  0  2  0  0  3  0  0  0  0  0  0
  183.3680  174.6180  136.8800 O   0  0  0  0  0  0  0  0  0  0  0  0
  179.9960  173.9160  137.6400 O   0  0  0  0  0  0  0  0  0  0  0  0
  1 20  1  6  0  0  0
  1 14  1  0  0  0  0
  2 34  1  6  0  0  0
  2  5  1  0  0  0  0
  3  4  1  0  0  0  0
  3 11  1  0  0  0  0
  3  1  1  0  0  0  0
  5 12  1  0  0  0  0
  6  4  2  0  0  0  0
  7  4  1  6  0  0  0
  7  2  1  0  0  0  0
  7  9  1  0  0  0  0
  9  8  1  6  0  0  0
  9 13  1  0  0  0  0
 11 22  1  6  0  0  0
 11  1  1  0  0  0  0
 12 17  1  6  0  0  0
 12 18  1  0  0  0  0
 13 21  1  6  0  0  0
 13 18  1  0  0  0  0
 14 10  1  6  0  0  0
 14  8  1  0  0  0  0
 16 19  2  0  0  0  0
 18 15  1  1  0  0  0
 19 10  1  0  0  0  0
 20 19  1  0  0  0  0
 22 23  1  0  0  0  0
 25 24  1  1  0  0  0
 25 16  1  0  0  0  0
 26 33  1  0  0  0  0
 28 31  1  6  0  0  0
 28 26  1  0  0  0  0
 30 28  1  0  0  0  0
 30 32  1  0  0  0  0
 32 25  1  6  0  0  0
 32 29  1  0  0  0  0
 33 29  2  0  0  0  0
 33 27  1  0  0  0  0
 35 36  1  0  0  0  0
 35 34  1  0  0  0  0
 36 38  1  0  0  0  0
 38 37  2  0  0  0  0
 39 38  1  0  0  0  0
 40 45  1  0  0  0  0
 41 40  1  0  0  0  0
 43 47  1  0  0  0  0
 43 40  1  0  0  0  0
 43 42  1  0  0  0  0
 44 43  1  0  0  0  0
 44 42  1  0  0  0  0
 45 46  1  0  0  0  0
 45 48  2  0  0  0  0
 46 39  1  1  0  0  0
 47 46  1  0  0  0  0
M  END
>  <MODEL>
6

>  <REMARK>
 VINA RESULT:      -5.5      1.767      2.954
  Name = 
  9 active torsions:
  status: ('A' for Active; 'I' for Inactive)
    1  A    between atoms: C_2  and  C_8
    2  A    between atoms: C_2  and  C_10
    3  A    between atoms: C_3  and  C_10
    4  A    between atoms: C_3  and  C_32
    5  A    between atoms: C_4  and  C_24
    6  A    between atoms: C_14  and  C_32
    7  A    between atoms: C_14  and  C_34
    8  A    between atoms: C_27  and  N_40
    9  A    between atoms: C_27  and  C_47
                            x       y       z     vdW  Elec       q    Type
                         _______ _______ _______ _____ _____    ______ ____

>  <TORSDO>
F 9

$$$$
=
 OpenBabel10232412153D

 48 54  0  0  1  0  0  0  0  0999 V2000
  190.2850  174.0290  136.4880 C   0  0  2  0  0  0  0  0  0  0  0  0
  188.4880  177.8380  138.3360 C   0  0  2  0  0  3  0  0  0  0  0  0
  189.4350  175.2110  136.1570 N   0  0  0  0  0  0  0  0  0  0  0  0
  189.3600  176.6290  136.2690 C   0  0  0  0  0  0  0  0  0  0  0  0
  188.9170  178.7600  139.3880 N   0  0  0  0  0  2  0  0  0  0  0  0
  189.3120  177.5220  134.8990 S   0  0  0  0  0  0  0  0  0  0  0  0
  189.7210  177.2850  137.5880 C   0  0  2  0  0  3  0  0  0  0  0  0
  191.5190  175.6430  137.8120 O   0  0  0  0  0  0  0  0  0  0  0  0
  190.4710  176.2740  138.4980 C   0  0  1  0  0  3  0  0  0  0  0  0
  192.3200  173.5100  137.5210 O   0  0  0  0  0  0  0  0  0  0  0  0
  188.9240  173.8880  136.6460 C   0  0  1  0  0  3  0  0  0  0  0  0
  188.8980  178.1310  140.7100 C   0  0  1  0  0  3  0  0  0  0  0  0
  190.9640  176.8230  139.8360 C   0  0  2  0  0  3  0  0  0  0  0  0
  191.1540  174.2860  137.7230 C   0  0  2  0  0  3  0  0  0  0  0  0
  190.3650  176.8150  142.2560 C   0  0  0  0  0  1  0  0  0  0  0  0
  193.5210  172.2580  135.9620 N   0  0  0  0  0  0  0  0  0  0  0  0
  187.4780  177.8090  141.1480 C   0  0  0  0  0  1  0  0  0  0  0  0
  189.8160  176.9020  140.8410 C   0  0  1  0  0  3  0  0  0  0  0  0
  192.4950  173.0000  136.2400 C   0  0  0  0  0  0  0  0  0  0  0  0
  191.2140  173.4050  135.0490 S   0  0  0  0  0  0  0  0  0  0  0  0
  191.6370  178.0400  139.6910 O   0  0  0  0  0  1  0  0  0  0  0  0
  188.2160  173.1700  135.5070 C   0  0  0  0  0  2  0  0  0  0  0  0
  187.9990  171.8370  135.8570 O   0  0  0  0  0  1  0  0  0  0  0  0
  193.2190  170.2430  134.6400 C   0  0  0  0  0  1  0  0  0  0  0  0
  193.7620  171.6660  134.6500 C   0  0  2  0  0  3  0  0  0  0  0  0
  198.0300  172.2090  135.2460 C   0  0  0  0  0  2  0  0  0  0  0  0
  197.5960  174.7120  134.7920 C   0  0  0  0  0  1  0  0  0  0  0  0
  197.5090  170.8040  134.9470 C   0  0  2  0  0  3  0  0  0  0  0  0
  195.8400  173.0650  134.4130 C   0  0  0  0  0  3  0  0  0  0  0  0
  196.0220  170.7220  135.2770 C   0  0  0  0  0  2  0  0  0  0  0  0
  198.2740  169.7940  135.7750 C   0  0  0  0  0  1  0  0  0  0  0  0
  195.2620  171.6690  134.3460 C   0  0  1  0  0  3  0  0  0  0  0  0
  197.1250  173.3020  134.7290 C   0  0  0  0  0  0  0  0  0  0  0  0
  187.4450  178.5240  137.4360 C   0  0  0  0  0  2  0  0  0  0  0  0
  186.0180  178.0370  137.6830 C   0  0  0  0  0  2  0  0  0  0  0  0
  185.7520  176.7420  136.9240 C   0  0  0  0  0  2  0  0  0  0  0  0
  184.2990  174.9570  137.4890 O   0  0  0  0  0  0  0  0  0  0  0  0
  184.4200  176.1540  137.2670 C   0  0  0  0  0  0  0  0  0  0  0  0
  183.2450  177.0620  137.4070 C   0  0  0  0  0  2  0  0  0  0  0  0
  181.7830  178.7290  139.9260 N   0  0  0  0  0  0  0  0  0  0  0  0
  180.8200  179.4820  140.7250 C   0  0  0  0  0  1  0  0  0  0  0  0
  184.1410  179.0950  140.6470 C   0  0  0  0  0  2  0  0  0  0  0  0
  183.0000  178.1310  140.4320 C   0  0  0  0  0  0  0  0  0  0  0  0
  183.4720  178.4090  141.8410 C   0  0  0  0  0  2  0  0  0  0  0  0
  181.4320  177.8450  138.8910 C   0  0  0  0  0  0  0  0  0  0  0  0
  182.4700  176.8000  138.6940 C   0  0  2  0  0  3  0  0  0  0  0  0
  183.3620  176.9240  139.7920 O   0  0  0  0  0  0  0  0  0  0  0  0
  180.3510  177.9160  138.2460 O   0  0  0  0  0  0  0  0  0  0  0  0
  1 20  1  6  0  0  0
  1 11  1  0  0  0  0
  1 14  1  0  0  0  0
  2 34  1  6  0  0  0
  2  5  1  0  0  0  0
  3  4  1  0  0  0  0
  3  1  1  0  0  0  0
  3 11  1  0  0  0  0
  5 12  1  0  0  0  0
  6  4  2  0  0  0  0
  7  4  1  6  0  0  0
  7  2  1  0  0  0  0
  7  9  1  0  0  0  0
  9  8  1  6  0  0  0
  9 13  1  0  0  0  0
 11 22  1  6  0  0  0
 12 18  1  0  0  0  0
 12 17  1  6  0  0  0
 13 21  1  6  0  0  0
 13 18  1  0  0  0  0
 14 10  1  6  0  0  0
 14  8  1  0  0  0  0
 16 19  2  0  0  0  0
 18 15  1  1  0  0  0
 19 10  1  0  0  0  0
 20 19  1  0  0  0  0
 22 23  1  0  0  0  0
 25 24  1  1  0  0  0
 25 16  1  0  0  0  0
 28 26  1  0  0  0  0
 28 30  1  0  0  0  0
 28 31  1  1  0  0  0
 29 33  2  0  0  0  0
 32 29  1  0  0  0  0
 32 25  1  1  0  0  0
 32 30  1  0  0  0  0
 33 27  1  0  0  0  0
 33 26  1  0  0  0  0
 34 35  1  0  0  0  0
 36 38  1  0  0  0  0
 36 35  1  0  0  0  0
 38 39  1  0  0  0  0
 38 37  2  0  0  0  0
 40 43  1  0  0  0  0
 40 41  1  0  0  0  0
 42 44  1  0  0  0  0
 43 42  1  0  0  0  0
 43 44  1  0  0  0  0
 45 40  1  0  0  0  0
 46 39  1  6  0  0  0
 46 45  1  0  0  0  0
 46 47  1  0  0  0  0
 47 43  1  0  0  0  0
 48 45  2  0  0  0  0
M  END
>  <MODEL>
7

>  <REMARK>
 VINA RESULT:      -5.5      2.016      3.354
  Name = 
  9 active torsions:
  status: ('A' for Active; 'I' for Inactive)
    1  A    between atoms: C_2  and  C_8
    2  A    between atoms: C_2  and  C_10
    3  A    between atoms: C_3  and  C_10
    4  A    between atoms: C_3  and  C_32
    5  A    between atoms: C_4  and  C_24
    6  A    between atoms: C_14  and  C_32
    7  A    between atoms: C_14  and  C_34
    8  A    between atoms: C_27  and  N_40
    9  A    between atoms: C_27  and  C_47
                            x       y       z     vdW  Elec       q    Type
                         _______ _______ _______ _____ _____    ______ ____

>  <TORSDO>
F 9

$$$$
=
 OpenBabel10232412153D

 48 54  0  0  1  0  0  0  0  0999 V2000
  190.3450  177.0530  138.7570 C   0  0  2  0  0  0  0  0  0  0  0  0
  192.3710  174.4280  135.5710 C   0  0  2  0  0  3  0  0  0  0  0  0
  190.0430  176.1720  137.5910 N   0  0  0  0  0  0  0  0  0  0  0  0
  190.3280  174.8990  137.0180 C   0  0  0  0  0  0  0  0  0  0  0  0
  193.5900  173.6190  135.5420 N   0  0  0  0  0  2  0  0  0  0  0  0
  189.0970  173.8420  136.8080 S   0  0  0  0  0  0  0  0  0  0  0  0
  191.7620  174.4080  136.9900 C   0  0  2  0  0  3  0  0  0  0  0  0
  192.0500  175.3890  139.2110 O   0  0  0  0  0  0  0  0  0  0  0  0
  192.6370  175.2650  137.9440 C   0  0  1  0  0  3  0  0  0  0  0  0
  191.6100  177.0580  140.7270 O   0  0  0  0  0  0  0  0  0  0  0  0
  190.2650  177.6540  137.5210 C   0  0  1  0  0  3  0  0  0  0  0  0
  194.7980  174.4450  135.6040 C   0  0  1  0  0  3  0  0  0  0  0  0
  194.0980  174.8340  138.0750 C   0  0  2  0  0  3  0  0  0  0  0  0
  191.7250  176.7520  139.3500 C   0  0  2  0  0  3  0  0  0  0  0  0
  196.3700  175.4660  137.2660 C   0  0  0  0  0  1  0  0  0  0  0  0
  190.1100  177.5530  142.4420 N   0  0  0  0  0  0  0  0  0  0  0  0
  194.9590  175.2830  134.3460 C   0  0  0  0  0  1  0  0  0  0  0  0
  194.9100  175.3110  136.8710 C   0  0  1  0  0  3  0  0  0  0  0  0
  190.3170  177.2460  141.2000 C   0  0  0  0  0  0  0  0  0  0  0  0
  189.0020  177.0750  139.9900 S   0  0  0  0  0  0  0  0  0  0  0  0
  194.2240  173.4580  138.2960 O   0  0  0  0  0  1  0  0  0  0  0  0
  188.9430  178.3480  137.2280 C   0  0  0  0  0  2  0  0  0  0  0  0
  189.0850  179.7230  137.4170 O   0  0  0  0  0  1  0  0  0  0  0  0
  188.1170  178.9280  142.2490 C   0  0  0  0  0  1  0  0  0  0  0  0
  188.7860  177.7920  143.0100 C   0  0  2  0  0  3  0  0  0  0  0  0
  188.3880  177.4270  147.3190 C   0  0  0  0  0  2  0  0  0  0  0  0
  185.9670  178.2550  146.9890 C   0  0  0  0  0  1  0  0  0  0  0  0
  189.7920  177.4840  146.7190 C   0  0  2  0  0  3  0  0  0  0  0  0
  187.5550  178.3130  145.1420 C   0  0  0  0  0  3  0  0  0  0  0  0
  189.7420  177.0980  145.2450 C   0  0  0  0  0  2  0  0  0  0  0  0
  190.7020  176.5330  147.4670 C   0  0  0  0  0  1  0  0  0  0  0  0
  188.9120  178.1410  144.4940 C   0  0  1  0  0  3  0  0  0  0  0  0
  187.3410  178.0800  146.4480 C   0  0  0  0  0  0  0  0  0  0  0  0
  191.4160  173.9690  134.4550 C   0  0  0  0  0  2  0  0  0  0  0  0
  191.1170  172.4720  134.4910 C   0  0  0  0  0  2  0  0  0  0  0  0
  192.4010  171.6630  134.3470 C   0  0  0  0  0  2  0  0  0  0  0  0
  191.0280  169.7340  134.4390 O   0  0  0  0  0  0  0  0  0  0  0  0
  192.1590  170.1950  134.5010 C   0  0  0  0  0  0  0  0  0  0  0  0
  193.3290  169.2830  134.6620 C   0  0  0  0  0  2  0  0  0  0  0  0
  195.6990  168.3890  136.8630 N   0  0  0  0  0  0  0  0  0  0  0  0
  196.9500  167.9140  137.4470 C   0  0  0  0  0  1  0  0  0  0  0  0
  193.7470  168.1060  138.3870 C   0  0  0  0  0  2  0  0  0  0  0  0
  194.6310  169.0370  137.5940 C   0  0  0  0  0  0  0  0  0  0  0  0
  194.6570  169.1070  139.1040 C   0  0  0  0  0  2  0  0  0  0  0  0
  195.5960  168.9950  135.5990 C   0  0  0  0  0  0  0  0  0  0  0  0
  194.4220  169.9030  135.5250 C   0  0  2  0  0  3  0  0  0  0  0  0
  193.9370  170.0210  136.8540 O   0  0  0  0  0  0  0  0  0  0  0  0
  196.4250  168.8120  134.6660 O   0  0  0  0  0  0  0  0  0  0  0  0
  1 14  1  0  0  0  0
  1 20  1  1  0  0  0
  2 34  1  6  0  0  0
  2  7  1  0  0  0  0
  3  1  1  0  0  0  0
  4  3  1  0  0  0  0
  5  2  1  0  0  0  0
  5 12  1  0  0  0  0
  6  4  2  0  0  0  0
  7  4  1  6  0  0  0
  7  9  1  0  0  0  0
  9 13  1  0  0  0  0
  9  8  1  1  0  0  0
 10 19  1  0  0  0  0
 11 22  1  1  0  0  0
 11  3  1  0  0  0  0
 11  1  1  0  0  0  0
 12 17  1  6  0  0  0
 12 18  1  0  0  0  0
 13 21  1  6  0  0  0
 14  8  1  1  0  0  0
 14 10  1  0  0  0  0
 16 25  1  0  0  0  0
 18 15  1  1  0  0  0
 18 13  1  0  0  0  0
 19 16  2  0  0  0  0
 20 19  1  0  0  0  0
 22 23  1  0  0  0  0
 25 24  1  6  0  0  0
 28 26  1  0  0  0  0
 28 31  1  1  0  0  0
 29 33  2  0  0  0  0
 30 28  1  0  0  0  0
 32 25  1  6  0  0  0
 32 29  1  0  0  0  0
 32 30  1  0  0  0  0
 33 27  1  0  0  0  0
 33 26  1  0  0  0  0
 34 35  1  0  0  0  0
 36 35  1  0  0  0  0
 36 38  1  0  0  0  0
 37 38  2  0  0  0  0
 38 39  1  0  0  0  0
 40 41  1  0  0  0  0
 40 43  1  0  0  0  0
 42 44  1  0  0  0  0
 43 42  1  0  0  0  0
 43 44  1  0  0  0  0
 45 40  1  0  0  0  0
 46 39  1  6  0  0  0
 46 45  1  0  0  0  0
 46 47  1  0  0  0  0
 47 43  1  0  0  0  0
 48 45  2  0  0  0  0
M  END
>  <MODEL>
8

>  <REMARK>
 VINA RESULT:      -5.0      3.748     10.628
  Name = 
  9 active torsions:
  status: ('A' for Active; 'I' for Inactive)
    1  A    between atoms: C_2  and  C_8
    2  A    between atoms: C_2  and  C_10
    3  A    between atoms: C_3  and  C_10
    4  A    between atoms: C_3  and  C_32
    5  A    between atoms: C_4  and  C_24
    6  A    between atoms: C_14  and  C_32
    7  A    between atoms: C_14  and  C_34
    8  A    between atoms: C_27  and  N_40
    9  A    between atoms: C_27  and  C_47
                            x       y       z     vdW  Elec       q    Type
                         _______ _______ _______ _____ _____    ______ ____

>  <TORSDO>
F 9

$$$$
=
 OpenBabel10232412153D

 48 54  0  0  1  0  0  0  0  0999 V2000
  185.4340  176.9980  137.0550 C   0  0  2  0  0  0  0  0  0  0  0  0
  181.2220  178.4210  138.2320 C   0  0  2  0  0  3  0  0  0  0  0  0
  184.4280  176.9190  138.1550 N   0  0  0  0  0  0  0  0  0  0  0  0
  183.0540  176.6620  138.4290 C   0  0  0  0  0  0  0  0  0  0  0  0
  180.0020  178.7230  137.4830 N   0  0  0  0  0  2  0  0  0  0  0  0
  182.6710  175.3980  139.3950 S   0  0  0  0  0  0  0  0  0  0  0  0
  181.9960  177.2800  137.5360 C   0  0  2  0  0  3  0  0  0  0  0  0
  183.4730  176.8500  135.6350 O   0  0  0  0  0  0  0  0  0  0  0  0
  182.6460  177.8140  136.2310 C   0  0  1  0  0  3  0  0  0  0  0  0
  185.5830  176.7420  134.7330 O   0  0  0  0  0  0  0  0  0  0  0  0
  185.5100  177.9520  138.0450 C   0  0  1  0  0  3  0  0  0  0  0  0
  180.1520  179.9170  136.6480 C   0  0  1  0  0  3  0  0  0  0  0  0
  181.6830  178.4000  135.1990 C   0  0  2  0  0  3  0  0  0  0  0  0
  184.7810  177.3650  135.7180 C   0  0  2  0  0  3  0  0  0  0  0  0
  180.8790  180.6020  134.3510 C   0  0  0  0  0  1  0  0  0  0  0  0
  187.2870  175.1900  134.3750 N   0  0  0  0  0  0  0  0  0  0  0  0
  180.3060  181.1690  137.4970 C   0  0  0  0  0  1  0  0  0  0  0  0
  181.2690  179.8170  135.5930 C   0  0  1  0  0  3  0  0  0  0  0  0
  186.4920  175.7990  135.1980 C   0  0  0  0  0  0  0  0  0  0  0  0
  186.5060  175.5260  136.9720 S   0  0  0  0  0  0  0  0  0  0  0  0
  180.5860  177.5640  134.9680 O   0  0  0  0  0  1  0  0  0  0  0  0
  186.5660  177.6900  139.1090 C   0  0  0  0  0  2  0  0  0  0  0  0
  186.8230  178.8670  139.8120 O   0  0  0  0  0  1  0  0  0  0  0  0
  187.7960  173.5030  136.0450 C   0  0  0  0  0  1  0  0  0  0  0  0
  188.2840  174.2080  134.7870 C   0  0  2  0  0  3  0  0  0  0  0  0
  192.0520  175.1830  136.7140 C   0  0  0  0  0  2  0  0  0  0  0  0
  190.6410  176.5510  138.3860 C   0  0  0  0  0  1  0  0  0  0  0  0
  192.0820  174.6630  135.2780 C   0  0  2  0  0  3  0  0  0  0  0  0
  189.6230  175.6330  136.3710 C   0  0  0  0  0  3  0  0  0  0  0  0
  190.7880  173.9150  134.9710 C   0  0  0  0  0  2  0  0  0  0  0  0
  193.2640  173.7350  135.1000 C   0  0  0  0  0  1  0  0  0  0  0  0
  189.6230  174.9030  135.0460 C   0  0  1  0  0  3  0  0  0  0  0  0
  190.7440  175.8430  137.0810 C   0  0  0  0  0  0  0  0  0  0  0  0
  180.8740  178.1550  139.7070 C   0  0  0  0  0  2  0  0  0  0  0  0
  181.2620  179.3030  140.6380 C   0  0  0  0  0  2  0  0  0  0  0  0
  182.0670  178.7850  141.8240 C   0  0  0  0  0  2  0  0  0  0  0  0
  184.0120  179.5430  140.7010 O   0  0  0  0  0  0  0  0  0  0  0  0
  183.5390  178.8050  141.5540 C   0  0  0  0  0  0  0  0  0  0  0  0
  184.4380  177.9600  142.3910 C   0  0  0  0  0  2  0  0  0  0  0  0
  186.8220  177.7060  144.7400 N   0  0  0  0  0  0  0  0  0  0  0  0
  188.0640  177.3790  145.4350 C   0  0  0  0  0  1  0  0  0  0  0  0
  184.9020  178.0470  146.2920 C   0  0  0  0  0  2  0  0  0  0  0  0
  185.8080  178.6160  145.2280 C   0  0  0  0  0  0  0  0  0  0  0  0
  185.8800  179.1750  146.6310 C   0  0  0  0  0  2  0  0  0  0  0  0
  186.7140  177.8690  143.3480 C   0  0  0  0  0  0  0  0  0  0  0  0
  185.5840  178.7660  142.9920 C   0  0  2  0  0  3  0  0  0  0  0  0
  185.1430  179.3410  144.2130 O   0  0  0  0  0  0  0  0  0  0  0  0
  187.5060  177.3450  142.5180 O   0  0  0  0  0  0  0  0  0  0  0  0
  1 20  1  6  0  0  0
  1 11  1  0  0  0  0
  1  3  1  0  0  0  0
  2 34  1  1  0  0  0
  3  4  1  0  0  0  0
  4  6  2  0  0  0  0
  5  2  1  0  0  0  0
  7  2  1  0  0  0  0
  7  4  1  1  0  0  0
  8 14  1  0  0  0  0
  9  8  1  6  0  0  0
  9  7  1  0  0  0  0
 10 19  1  0  0  0  0
 11  3  1  0  0  0  0
 11 22  1  1  0  0  0
 12  5  1  0  0  0  0
 12 17  1  1  0  0  0
 13 21  1  1  0  0  0
 13 18  1  0  0  0  0
 13  9  1  0  0  0  0
 14 10  1  6  0  0  0
 14  1  1  0  0  0  0
 16 25  1  0  0  0  0
 16 19  2  0  0  0  0
 18 15  1  6  0  0  0
 18 12  1  0  0  0  0
 19 20  1  0  0  0  0
 22 23  1  0  0  0  0
 25 24  1  1  0  0  0
 26 33  1  0  0  0  0
 28 31  1  1  0  0  0
 28 26  1  0  0  0  0
 29 33  2  0  0  0  0
 30 32  1  0  0  0  0
 30 28  1  0  0  0  0
 32 25  1  1  0  0  0
 32 29  1  0  0  0  0
 33 27  1  0  0  0  0
 34 35  1  0  0  0  0
 35 36  1  0  0  0  0
 37 38  2  0  0  0  0
 38 36  1  0  0  0  0
 38 39  1  0  0  0  0
 40 43  1  0  0  0  0
 40 41  1  0  0  0  0
 42 44  1  0  0  0  0
 43 42  1  0  0  0  0
 43 44  1  0  0  0  0
 45 40  1  0  0  0  0
 46 39  1  1  0  0  0
 46 45  1  0  0  0  0
 46 47  1  0  0  0  0
 47 43  1  0  0  0  0
 48 45  2  0  0  0  0
M  END
>  <MODEL>
9

>  <REMARK>
 VINA RESULT:      -5.0      3.165      7.479
  Name = 
  9 active torsions:
  status: ('A' for Active; 'I' for Inactive)
    1  A    between atoms: C_2  and  C_8
    2  A    between atoms: C_2  and  C_10
    3  A    between atoms: C_3  and  C_10
    4  A    between atoms: C_3  and  C_32
    5  A    between atoms: C_4  and  C_24
    6  A    between atoms: C_14  and  C_32
    7  A    between atoms: C_14  and  C_34
    8  A    between atoms: C_27  and  N_40
    9  A    between atoms: C_27  and  C_47
                            x       y       z     vdW  Elec       q    Type
                         _______ _______ _______ _____ _____    ______ ____

>  <TORSDO>
F 9

$$$$
