=
 OpenBabel10232410013D

 26 29  0  0  1  0  0  0  0  0999 V2000
  188.7410  178.1160  147.6330 N   0  0  0  0  0  2  0  0  0  0  0  0
  189.3130  176.8990  147.0650 C   0  0  0  0  0  2  0  0  0  0  0  0
  187.2180  177.3580  145.0400 C   0  0  2  0  0  3  0  0  0  0  0  0
  186.0020  178.0570  144.5220 N   0  0  0  0  0  0  0  0  0  0  0  0
  190.2520  177.2030  145.8950 C   0  0  0  0  0  2  0  0  0  0  0  0
  187.3500  177.8020  147.9590 C   0  0  0  0  0  2  0  0  0  0  0  0
  186.3540  178.4460  146.9740 C   0  0  0  0  0  2  0  0  0  0  0  0
  189.6390  178.0800  144.7860 C   0  0  2  0  0  3  0  0  0  0  0  0
  186.9210  178.6020  145.5670 C   0  0  1  0  0  3  0  0  0  0  0  0
  188.4020  177.4810  144.0890 C   0  0  0  0  0  2  0  0  0  0  0  0
  184.8860  178.1520  142.3000 C   0  0  2  0  0  3  0  0  0  0  0  0
  184.9830  179.5030  140.4560 N   0  0  0  0  0  0  0  0  0  0  0  0
  182.8600  178.7740  142.9770 N   0  0  0  0  0  0  0  0  0  0  0  0
  183.5920  178.5230  144.0850 C   0  0  0  0  0  3  0  0  0  0  0  0
  184.8620  178.1380  143.6760 C   0  0  0  0  0  0  0  0  0  0  0  0
  185.8670  178.7650  141.3650 C   0  0  0  0  0  3  0  0  0  0  0  0
  183.6600  178.5620  141.9150 C   0  0  1  0  0  3  0  0  0  0  0  0
  183.7540  179.4010  140.7810 N   0  0  0  0  0  2  0  0  0  0  0  0
  180.5720  178.6860  143.8070 C   0  0  0  0  0  1  0  0  0  0  0  0
  181.5750  179.4570  142.9690 C   0  0  0  0  0  2  0  0  0  0  0  0
  191.9280  178.8810  144.3980 N   0  0  0  0  0  1  0  0  0  0  0  0
  190.6790  178.5160  143.7500 C   0  0  1  0  0  3  0  0  0  0  0  0
  190.9150  177.4930  142.6780 C   0  0  0  0  0  0  0  0  0  0  0  0
  190.5170  176.7320  140.3100 C   0  0  0  0  0  1  0  0  0  0  0  0
  190.3440  177.6940  141.3860 N   0  0  0  0  0  2  0  0  0  0  0  0
  191.5880  176.4550  142.9250 O   0  0  0  0  0  0  0  0  0  0  0  0
  1  6  1  0  0  0  0
  2  1  1  0  0  0  0
  3 10  1  6  0  0  0
  3  9  1  0  0  0  0
  4  3  1  0  0  0  0
  4  9  1  0  0  0  0
  5  2  1  0  0  0  0
  7  6  1  0  0  0  0
  8 22  1  6  0  0  0
  8  5  1  0  0  0  0
  9  7  1  1  0  0  0
 10  8  1  0  0  0  0
 11 16  1  1  0  0  0
 11 15  1  0  0  0  0
 12 18  1  0  0  0  0
 12 16  2  0  0  0  0
 13 14  1  0  0  0  0
 15 14  2  0  0  0  0
 15  4  1  0  0  0  0
 17 18  1  1  0  0  0
 17 11  1  0  0  0  0
 17 13  1  0  0  0  0
 20 13  1  0  0  0  0
 20 19  1  0  0  0  0
 22 21  1  1  0  0  0
 23 26  2  0  0  0  0
 23 22  1  0  0  0  0
 24 25  1  0  0  0  0
 25 23  1  0  0  0  0
M  END
>  <MODEL>
1

>  <REMARK>
 VINA RESULT:      -8.7      0.000      0.000
  Name = 
  4 active torsions:
  status: ('A' for Active; 'I' for Inactive)
    1  A    between atoms: C_7  and  C_25
    2  A    between atoms: N_8  and  C_16
    3  A    between atoms: N_11  and  C_14
    4  A    between atoms: C_23  and  C_25
                            x       y       z     vdW  Elec       q    Type
                         _______ _______ _______ _____ _____    ______ ____

>  <TORSDO>
F 4

$$$$
=
 OpenBabel10232410013D

 26 29  0  0  1  0  0  0  0  0999 V2000
  189.7070  178.1970  139.7810 N   0  0  0  0  0  2  0  0  0  0  0  0
  188.5840  177.2950  139.5520 C   0  0  0  0  0  2  0  0  0  0  0  0
  188.7630  177.0030  142.4820 C   0  0  2  0  0  3  0  0  0  0  0  0
  189.4360  177.2170  143.7980 N   0  0  0  0  0  0  0  0  0  0  0  0
  187.2440  177.9570  139.8840 C   0  0  0  0  0  2  0  0  0  0  0  0
  190.7780  177.3820  140.3540 C   0  0  0  0  0  2  0  0  0  0  0  0
  190.9720  177.6400  141.8610 C   0  0  0  0  0  2  0  0  0  0  0  0
  187.1620  178.5760  141.2930 C   0  0  2  0  0  3  0  0  0  0  0  0
  189.6800  178.0340  142.5720 C   0  0  1  0  0  3  0  0  0  0  0  0
  187.3530  177.5820  142.4560 C   0  0  0  0  0  2  0  0  0  0  0  0
  188.7190  176.9730  146.1690 C   0  0  2  0  0  3  0  0  0  0  0  0
  187.8220  178.3330  147.7760 N   0  0  0  0  0  0  0  0  0  0  0  0
  190.7280  176.7530  147.0990 N   0  0  0  0  0  0  0  0  0  0  0  0
  190.9060  176.7550  145.7590 C   0  0  0  0  0  3  0  0  0  0  0  0
  189.6580  176.8950  145.1660 C   0  0  0  0  0  0  0  0  0  0  0  0
  187.6150  177.9480  146.3750 C   0  0  0  0  0  3  0  0  0  0  0  0
  189.4090  176.9030  147.3250 C   0  0  1  0  0  3  0  0  0  0  0  0
  188.8380  177.7600  148.2930 N   0  0  0  0  0  2  0  0  0  0  0  0
  192.6840  175.6700  148.0640 C   0  0  0  0  0  1  0  0  0  0  0  0
  191.7960  176.8990  148.0770 C   0  0  0  0  0  2  0  0  0  0  0  0
  185.1600  179.5330  140.2400 N   0  0  0  0  0  1  0  0  0  0  0  0
  185.8830  179.3950  141.4940 C   0  0  1  0  0  3  0  0  0  0  0  0
  184.9890  178.8470  142.5660 C   0  0  0  0  0  0  0  0  0  0  0  0
  184.2250  178.9080  144.9660 C   0  0  0  0  0  1  0  0  0  0  0  0
  185.0490  179.4070  143.8770 N   0  0  0  0  0  2  0  0  0  0  0  0
  184.2110  177.8850  142.3170 O   0  0  0  0  0  0  0  0  0  0  0  0
  1  6  1  0  0  0  0
  2  1  1  0  0  0  0
  2  5  1  0  0  0  0
  3 10  1  1  0  0  0
  3  9  1  0  0  0  0
  3  4  1  0  0  0  0
  4 15  1  0  0  0  0
  5  8  1  0  0  0  0
  6  7  1  0  0  0  0
  8 22  1  1  0  0  0
  8 10  1  0  0  0  0
  9  7  1  6  0  0  0
  9  4  1  0  0  0  0
 11 16  1  1  0  0  0
 11 17  1  0  0  0  0
 12 18  1  0  0  0  0
 13 17  1  0  0  0  0
 13 20  1  0  0  0  0
 14 13  1  0  0  0  0
 15 14  2  0  0  0  0
 15 11  1  0  0  0  0
 16 12  2  0  0  0  0
 17 18  1  6  0  0  0
 19 20  1  0  0  0  0
 22 21  1  6  0  0  0
 22 23  1  0  0  0  0
 23 25  1  0  0  0  0
 25 24  1  0  0  0  0
 26 23  2  0  0  0  0
M  END
>  <MODEL>
2

>  <REMARK>
 VINA RESULT:      -8.0      2.249      7.304
  Name = 
  4 active torsions:
  status: ('A' for Active; 'I' for Inactive)
    1  A    between atoms: C_7  and  C_25
    2  A    between atoms: N_8  and  C_16
    3  A    between atoms: N_11  and  C_14
    4  A    between atoms: C_23  and  C_25
                            x       y       z     vdW  Elec       q    Type
                         _______ _______ _______ _____ _____    ______ ____

>  <TORSDO>
F 4

$$$$
=
 OpenBabel10232410013D

 26 29  0  0  1  0  0  0  0  0999 V2000
  190.9630  175.9410  146.8300 N   0  0  0  0  0  2  0  0  0  0  0  0
  190.8400  177.2880  147.3760 C   0  0  0  0  0  2  0  0  0  0  0  0
  190.0210  177.8850  144.6060 C   0  0  2  0  0  3  0  0  0  0  0  0
  189.8450  177.5230  143.1670 N   0  0  0  0  0  0  0  0  0  0  0  0
  189.3850  177.6460  147.6890 C   0  0  0  0  0  2  0  0  0  0  0  0
  191.9820  176.0130  145.7840 C   0  0  0  0  0  2  0  0  0  0  0  0
  191.3770  175.9420  144.3670 C   0  0  0  0  0  2  0  0  0  0  0  0
  188.4050  177.4470  146.5160 C   0  0  2  0  0  3  0  0  0  0  0  0
  189.9770  176.5410  144.2840 C   0  0  1  0  0  3  0  0  0  0  0  0
  188.7060  178.2910  145.2620 C   0  0  0  0  0  2  0  0  0  0  0  0
  188.6560  178.6370  141.2850 C   0  0  2  0  0  3  0  0  0  0  0  0
  186.5470  178.5890  140.4000 N   0  0  0  0  0  0  0  0  0  0  0  0
  189.6740  177.6040  139.5970 N   0  0  0  0  0  0  0  0  0  0  0  0
  190.3020  177.2270  140.7340 C   0  0  0  0  0  3  0  0  0  0  0  0
  189.6730  177.8620  141.7960 C   0  0  0  0  0  0  0  0  0  0  0  0
  187.2290  178.7340  141.6910 C   0  0  0  0  0  3  0  0  0  0  0  0
  188.6780  178.4370  139.9510 C   0  0  1  0  0  3  0  0  0  0  0  0
  187.3620  178.4030  139.4370 N   0  0  0  0  0  2  0  0  0  0  0  0
  190.9280  175.9010  138.3890 C   0  0  0  0  0  1  0  0  0  0  0  0
  189.8470  176.9620  138.3030 C   0  0  0  0  0  2  0  0  0  0  0  0
  186.8270  178.6670  147.9490 N   0  0  0  0  0  1  0  0  0  0  0  0
  186.9450  177.6240  146.9430 C   0  0  1  0  0  3  0  0  0  0  0  0
  186.0180  177.8870  145.7940 C   0  0  0  0  0  0  0  0  0  0  0  0
  184.0190  179.1220  144.8840 C   0  0  0  0  0  1  0  0  0  0  0  0
  184.9640  178.8360  145.9510 N   0  0  0  0  0  2  0  0  0  0  0  0
  186.1530  177.2560  144.7090 O   0  0  0  0  0  0  0  0  0  0  0  0
  1  2  1  0  0  0  0
  2  5  1  0  0  0  0
  3 10  1  1  0  0  0
  4  9  1  0  0  0  0
  4  3  1  0  0  0  0
  6  1  1  0  0  0  0
  7  6  1  0  0  0  0
  8 22  1  1  0  0  0
  8  5  1  0  0  0  0
  9  7  1  6  0  0  0
  9  3  1  0  0  0  0
 10  8  1  0  0  0  0
 11 16  1  1  0  0  0
 11 15  1  0  0  0  0
 12 16  2  0  0  0  0
 13 17  1  0  0  0  0
 13 14  1  0  0  0  0
 14 15  2  0  0  0  0
 15  4  1  0  0  0  0
 17 18  1  1  0  0  0
 17 11  1  0  0  0  0
 18 12  1  0  0  0  0
 20 19  1  0  0  0  0
 20 13  1  0  0  0  0
 22 21  1  1  0  0  0
 23 25  1  0  0  0  0
 23 22  1  0  0  0  0
 24 25  1  0  0  0  0
 26 23  2  0  0  0  0
M  END
>  <MODEL>
3

>  <REMARK>
 VINA RESULT:      -7.8      2.305      5.661
  Name = 
  4 active torsions:
  status: ('A' for Active; 'I' for Inactive)
    1  A    between atoms: C_7  and  C_25
    2  A    between atoms: N_8  and  C_16
    3  A    between atoms: N_11  and  C_14
    4  A    between atoms: C_23  and  C_25
                            x       y       z     vdW  Elec       q    Type
                         _______ _______ _______ _____ _____    ______ ____

>  <TORSDO>
F 4

$$$$
=
 OpenBabel10232410013D

 26 29  0  0  1  0  0  0  0  0999 V2000
  185.0270  179.3430  144.3920 N   0  0  0  0  0  2  0  0  0  0  0  0
  184.8890  178.0420  145.0390 C   0  0  0  0  0  2  0  0  0  0  0  0
  187.0280  177.3350  143.1360 C   0  0  2  0  0  3  0  0  0  0  0  0
  187.9070  177.6190  141.9610 N   0  0  0  0  0  0  0  0  0  0  0  0
  185.9870  177.8030  146.0790 C   0  0  0  0  0  2  0  0  0  0  0  0
  184.6920  179.1380  142.9840 C   0  0  0  0  0  2  0  0  0  0  0  0
  185.9350  179.1630  142.0720 C   0  0  0  0  0  2  0  0  0  0  0  0
  187.4240  177.9960  145.5560 C   0  0  2  0  0  3  0  0  0  0  0  0
  187.1950  178.6570  142.7660 C   0  0  1  0  0  3  0  0  0  0  0  0
  187.8310  177.0590  144.4020 C   0  0  0  0  0  2  0  0  0  0  0  0
  190.0760  176.8090  141.0480 C   0  0  2  0  0  3  0  0  0  0  0  0
  192.2490  177.5240  141.0630 N   0  0  0  0  0  0  0  0  0  0  0  0
  189.6870  177.1910  138.8910 N   0  0  0  0  0  0  0  0  0  0  0  0
  188.5360  177.4410  139.5550 C   0  0  0  0  0  3  0  0  0  0  0  0
  188.7670  177.2100  140.9040 C   0  0  0  0  0  0  0  0  0  0  0  0
  191.1290  177.2890  141.9810 C   0  0  0  0  0  3  0  0  0  0  0  0
  190.6040  176.8290  139.8070 C   0  0  1  0  0  3  0  0  0  0  0  0
  191.9420  177.2840  139.8490 N   0  0  0  0  0  2  0  0  0  0  0  0
  189.0180  178.6980  137.0980 C   0  0  0  0  0  1  0  0  0  0  0  0
  189.9450  177.5700  137.5100 C   0  0  0  0  0  2  0  0  0  0  0  0
  188.0520  177.0080  147.7150 N   0  0  0  0  0  1  0  0  0  0  0  0
  188.4620  177.9430  146.6800 C   0  0  1  0  0  3  0  0  0  0  0  0
  189.8460  177.6270  146.1960 C   0  0  0  0  0  0  0  0  0  0  0  0
  191.9370  176.2400  146.4210 C   0  0  0  0  0  1  0  0  0  0  0  0
  190.5840  176.5820  146.8280 N   0  0  0  0  0  2  0  0  0  0  0  0
  190.3610  178.2950  145.2570 O   0  0  0  0  0  0  0  0  0  0  0  0
  1  2  1  0  0  0  0
  2  5  1  0  0  0  0
  3 10  1  1  0  0  0
  4  9  1  0  0  0  0
  4  3  1  0  0  0  0
  6  1  1  0  0  0  0
  7  6  1  0  0  0  0
  8  5  1  0  0  0  0
  8 22  1  1  0  0  0
  9  7  1  6  0  0  0
  9  3  1  0  0  0  0
 10  8  1  0  0  0  0
 11 16  1  1  0  0  0
 12 16  2  0  0  0  0
 13 14  1  0  0  0  0
 13 17  1  0  0  0  0
 14 15  2  0  0  0  0
 15 11  1  0  0  0  0
 15  4  1  0  0  0  0
 17 18  1  1  0  0  0
 17 11  1  0  0  0  0
 18 12  1  0  0  0  0
 19 20  1  0  0  0  0
 20 13  1  0  0  0  0
 22 21  1  1  0  0  0
 23 22  1  0  0  0  0
 23 25  1  0  0  0  0
 24 25  1  0  0  0  0
 26 23  2  0  0  0  0
M  END
>  <MODEL>
4

>  <REMARK>
 VINA RESULT:      -7.8      2.150      5.866
  Name = 
  4 active torsions:
  status: ('A' for Active; 'I' for Inactive)
    1  A    between atoms: C_7  and  C_25
    2  A    between atoms: N_8  and  C_16
    3  A    between atoms: N_11  and  C_14
    4  A    between atoms: C_23  and  C_25
                            x       y       z     vdW  Elec       q    Type
                         _______ _______ _______ _____ _____    ______ ____

>  <TORSDO>
F 4

$$$$
=
 OpenBabel10232410013D

 26 29  0  0  1  0  0  0  0  0999 V2000
  191.9410  177.6640  140.7400 N   0  0  0  0  0  2  0  0  0  0  0  0
  191.2730  176.6330  139.9520 C   0  0  0  0  0  2  0  0  0  0  0  0
  189.2030  176.9810  142.0240 C   0  0  2  0  0  3  0  0  0  0  0  0
  188.7020  177.5270  143.3220 N   0  0  0  0  0  0  0  0  0  0  0  0
  190.1960  177.2240  139.0380 C   0  0  0  0  0  2  0  0  0  0  0  0
  192.1560  177.0900  142.0680 C   0  0  0  0  0  2  0  0  0  0  0  0
  191.1980  177.6740  143.1240 C   0  0  0  0  0  2  0  0  0  0  0  0
  189.1600  178.1150  139.7520 C   0  0  2  0  0  3  0  0  0  0  0  0
  189.8480  178.0870  142.5450 C   0  0  1  0  0  3  0  0  0  0  0  0
  188.3350  177.4090  140.8460 C   0  0  0  0  0  2  0  0  0  0  0  0
  186.4430  177.6630  144.3580 C   0  0  2  0  0  3  0  0  0  0  0  0
  184.7260  179.1750  144.3940 N   0  0  0  0  0  0  0  0  0  0  0  0
  187.0700  177.9240  146.4770 N   0  0  0  0  0  0  0  0  0  0  0  0
  188.1880  177.6820  145.7570 C   0  0  0  0  0  3  0  0  0  0  0  0
  187.8110  177.5200  144.4300 C   0  0  0  0  0  0  0  0  0  0  0  0
  185.6130  178.4920  143.4440 C   0  0  0  0  0  3  0  0  0  0  0  0
  186.0350  177.9260  145.6160 C   0  0  1  0  0  3  0  0  0  0  0  0
  184.9820  178.8690  145.6050 N   0  0  0  0  0  2  0  0  0  0  0  0
  188.3480  178.0350  148.5470 C   0  0  0  0  0  1  0  0  0  0  0  0
  187.0570  178.4140  147.8470 C   0  0  0  0  0  2  0  0  0  0  0  0
  188.9820  179.2960  137.6060 N   0  0  0  0  0  1  0  0  0  0  0  0
  188.2360  178.8350  138.7670 C   0  0  1  0  0  3  0  0  0  0  0  0
  187.0560  178.0110  138.3480 C   0  0  0  0  0  0  0  0  0  0  0  0
  184.5570  177.6900  138.3290 C   0  0  0  0  0  1  0  0  0  0  0  0
  185.7420  178.4520  138.6870 N   0  0  0  0  0  2  0  0  0  0  0  0
  187.2240  176.9270  137.7240 O   0  0  0  0  0  0  0  0  0  0  0  0
  1  6  1  0  0  0  0
  2  1  1  0  0  0  0
  3 10  1  6  0  0  0
  3  9  1  0  0  0  0
  3  4  1  0  0  0  0
  4 15  1  0  0  0  0
  5  8  1  0  0  0  0
  5  2  1  0  0  0  0
  6  7  1  0  0  0  0
  8 22  1  6  0  0  0
  8 10  1  0  0  0  0
  9  7  1  1  0  0  0
  9  4  1  0  0  0  0
 11 16  1  6  0  0  0
 11 15  1  0  0  0  0
 11 17  1  0  0  0  0
 12 18  1  0  0  0  0
 13 20  1  0  0  0  0
 14 13  1  0  0  0  0
 15 14  2  0  0  0  0
 16 12  2  0  0  0  0
 17 18  1  6  0  0  0
 17 13  1  0  0  0  0
 20 19  1  0  0  0  0
 22 21  1  6  0  0  0
 23 25  1  0  0  0  0
 23 22  1  0  0  0  0
 24 25  1  0  0  0  0
 26 23  2  0  0  0  0
M  END
>  <MODEL>
5

>  <REMARK>
 VINA RESULT:      -7.7      2.543      5.696
  Name = 
  4 active torsions:
  status: ('A' for Active; 'I' for Inactive)
    1  A    between atoms: C_7  and  C_25
    2  A    between atoms: N_8  and  C_16
    3  A    between atoms: N_11  and  C_14
    4  A    between atoms: C_23  and  C_25
                            x       y       z     vdW  Elec       q    Type
                         _______ _______ _______ _____ _____    ______ ____

>  <TORSDO>
F 4

$$$$
=
 OpenBabel10232410013D

 26 29  0  0  1  0  0  0  0  0999 V2000
  191.5200  176.7850  142.6970 N   0  0  0  0  0  2  0  0  0  0  0  0
  191.8000  177.9900  143.4710 C   0  0  0  0  0  2  0  0  0  0  0  0
  188.8550  178.1620  143.4790 C   0  0  2  0  0  3  0  0  0  0  0  0
  187.4990  177.7310  143.0240 N   0  0  0  0  0  0  0  0  0  0  0  0
  191.6070  177.7600  144.9720 C   0  0  0  0  0  2  0  0  0  0  0  0
  190.8270  177.2250  141.4870 C   0  0  0  0  0  2  0  0  0  0  0  0
  189.3220  176.8950  141.5180 C   0  0  0  0  0  2  0  0  0  0  0  0
  190.2370  177.1710  145.3650 C   0  0  2  0  0  3  0  0  0  0  0  0
  188.7360  176.9000  142.9270 C   0  0  1  0  0  3  0  0  0  0  0  0
  189.0200  178.0400  144.9890 C   0  0  0  0  0  2  0  0  0  0  0  0
  185.4670  178.0620  141.6250 C   0  0  2  0  0  3  0  0  0  0  0  0
  184.7890  179.5380  140.0140 N   0  0  0  0  0  0  0  0  0  0  0  0
  184.0800  178.7580  143.2210 N   0  0  0  0  0  0  0  0  0  0  0  0
  185.2290  178.3800  143.8260 C   0  0  0  0  0  3  0  0  0  0  0  0
  186.1050  177.9470  142.8400 C   0  0  0  0  0  0  0  0  0  0  0  0
  185.9300  178.6800  140.3550 C   0  0  0  0  0  3  0  0  0  0  0  0
  184.2500  178.5760  141.8970 C   0  0  1  0  0  3  0  0  0  0  0  0
  183.8640  179.4900  140.8900 N   0  0  0  0  0  2  0  0  0  0  0  0
  181.6970  178.7880  143.7210 C   0  0  0  0  0  1  0  0  0  0  0  0
  183.0190  179.5200  143.8610 C   0  0  0  0  0  2  0  0  0  0  0  0
  191.5060  176.7930  147.4340 N   0  0  0  0  0  1  0  0  0  0  0  0
  190.1780  176.7770  146.8430 C   0  0  1  0  0  3  0  0  0  0  0  0
  189.2290  177.6180  147.6450 C   0  0  0  0  0  0  0  0  0  0  0  0
  186.8720  178.4130  148.0420 C   0  0  0  0  0  1  0  0  0  0  0  0
  187.8400  177.6060  147.3180 N   0  0  0  0  0  2  0  0  0  0  0  0
  189.6590  178.3470  148.5810 O   0  0  0  0  0  0  0  0  0  0  0  0
  1  2  1  0  0  0  0
  2  5  1  0  0  0  0
  3 10  1  1  0  0  0
  4  3  1  0  0  0  0
  5  8  1  0  0  0  0
  6  7  1  0  0  0  0
  6  1  1  0  0  0  0
  8 22  1  1  0  0  0
  9  7  1  6  0  0  0
  9  4  1  0  0  0  0
  9  3  1  0  0  0  0
 10  8  1  0  0  0  0
 11 16  1  6  0  0  0
 11 17  1  0  0  0  0
 11 15  1  0  0  0  0
 12 16  2  0  0  0  0
 12 18  1  0  0  0  0
 13 14  1  0  0  0  0
 13 20  1  0  0  0  0
 15  4  1  0  0  0  0
 15 14  2  0  0  0  0
 17 18  1  6  0  0  0
 17 13  1  0  0  0  0
 19 20  1  0  0  0  0
 22 21  1  1  0  0  0
 22 23  1  0  0  0  0
 23 26  2  0  0  0  0
 25 23  1  0  0  0  0
 25 24  1  0  0  0  0
M  END
>  <MODEL>
6

>  <REMARK>
 VINA RESULT:      -7.5      1.778      3.937
  Name = 
  4 active torsions:
  status: ('A' for Active; 'I' for Inactive)
    1  A    between atoms: C_7  and  C_25
    2  A    between atoms: N_8  and  C_16
    3  A    between atoms: N_11  and  C_14
    4  A    between atoms: C_23  and  C_25
                            x       y       z     vdW  Elec       q    Type
                         _______ _______ _______ _____ _____    ______ ____

>  <TORSDO>
F 4

$$$$
=
 OpenBabel10232410013D

 26 29  0  0  1  0  0  0  0  0999 V2000
  191.0900  177.2540  145.4170 N   0  0  0  0  0  2  0  0  0  0  0  0
  191.2510  176.0210  144.6540 C   0  0  0  0  0  2  0  0  0  0  0  0
  188.5860  176.7880  143.6480 C   0  0  2  0  0  3  0  0  0  0  0  0
  187.3500  177.6260  143.6710 N   0  0  0  0  0  0  0  0  0  0  0  0
  191.6740  176.2970  143.2080 C   0  0  0  0  0  2  0  0  0  0  0  0
  189.9200  177.0570  146.2720 C   0  0  0  0  0  2  0  0  0  0  0  0
  188.6900  177.8460  145.7790 C   0  0  0  0  0  2  0  0  0  0  0  0
  190.7690  177.2880  142.4500 C   0  0  2  0  0  3  0  0  0  0  0  0
  188.6620  178.0230  144.2640 C   0  0  1  0  0  3  0  0  0  0  0  0
  189.2980  176.8490  142.3020 C   0  0  0  0  0  2  0  0  0  0  0  0
  185.4680  178.0140  142.0880 C   0  0  2  0  0  3  0  0  0  0  0  0
  184.9660  179.5360  140.4560 N   0  0  0  0  0  0  0  0  0  0  0  0
  183.9380  178.6860  143.5570 N   0  0  0  0  0  0  0  0  0  0  0  0
  185.0170  178.2810  144.2620 C   0  0  0  0  0  3  0  0  0  0  0  0
  185.9830  177.8620  143.3560 C   0  0  0  0  0  0  0  0  0  0  0  0
  186.0600  178.6570  140.8860 C   0  0  0  0  0  3  0  0  0  0  0  0
  184.2350  178.5340  142.2530 C   0  0  1  0  0  3  0  0  0  0  0  0
  183.9590  179.4760  141.2360 N   0  0  0  0  0  2  0  0  0  0  0  0
  181.5100  178.7910  143.7230 C   0  0  0  0  0  1  0  0  0  0  0  0
  182.8240  179.4430  144.1080 C   0  0  0  0  0  2  0  0  0  0  0  0
  192.7270  177.2260  140.9680 N   0  0  0  0  0  1  0  0  0  0  0  0
  191.3500  177.6780  141.0880 C   0  0  1  0  0  3  0  0  0  0  0  0
  190.5280  177.1940  139.9300 C   0  0  0  0  0  0  0  0  0  0  0  0
  188.6060  177.5810  138.3490 C   0  0  0  0  0  1  0  0  0  0  0  0
  189.4530  178.0010  139.4530 N   0  0  0  0  0  2  0  0  0  0  0  0
  190.7700  176.0750  139.4010 O   0  0  0  0  0  0  0  0  0  0  0  0
  1  6  1  0  0  0  0
  2  1  1  0  0  0  0
  3 10  1  6  0  0  0
  3  4  1  0  0  0  0
  3  9  1  0  0  0  0
  4  9  1  0  0  0  0
  5  2  1  0  0  0  0
  7  6  1  0  0  0  0
  8 22  1  6  0  0  0
  8  5  1  0  0  0  0
  9  7  1  1  0  0  0
 10  8  1  0  0  0  0
 11 16  1  6  0  0  0
 11 17  1  0  0  0  0
 11 15  1  0  0  0  0
 12 16  2  0  0  0  0
 12 18  1  0  0  0  0
 13 20  1  0  0  0  0
 13 14  1  0  0  0  0
 15  4  1  0  0  0  0
 15 14  2  0  0  0  0
 17 18  1  6  0  0  0
 17 13  1  0  0  0  0
 19 20  1  0  0  0  0
 22 21  1  6  0  0  0
 23 22  1  0  0  0  0
 24 25  1  0  0  0  0
 25 23  1  0  0  0  0
 26 23  2  0  0  0  0
M  END
>  <MODEL>
7

>  <REMARK>
 VINA RESULT:      -7.5      1.639      2.320
  Name = 
  4 active torsions:
  status: ('A' for Active; 'I' for Inactive)
    1  A    between atoms: C_7  and  C_25
    2  A    between atoms: N_8  and  C_16
    3  A    between atoms: N_11  and  C_14
    4  A    between atoms: C_23  and  C_25
                            x       y       z     vdW  Elec       q    Type
                         _______ _______ _______ _____ _____    ______ ____

>  <TORSDO>
F 4

$$$$
=
 OpenBabel10232410013D

 26 29  0  0  1  0  0  0  0  0999 V2000
  187.8400  178.2770  147.7560 N   0  0  0  0  0  2  0  0  0  0  0  0
  188.2260  176.9150  147.4040 C   0  0  0  0  0  2  0  0  0  0  0  0
  186.6360  177.5320  144.9980 C   0  0  2  0  0  3  0  0  0  0  0  0
  185.6980  178.3880  144.2100 N   0  0  0  0  0  0  0  0  0  0  0  0
  189.3870  176.8910  146.4060 C   0  0  0  0  0  2  0  0  0  0  0  0
  186.3810  178.2810  147.8450 C   0  0  0  0  0  2  0  0  0  0  0  0
  185.7190  178.9860  146.6450 C   0  0  0  0  0  2  0  0  0  0  0  0
  189.1640  177.7340  145.1360 C   0  0  2  0  0  3  0  0  0  0  0  0
  186.5280  178.8630  145.3580 C   0  0  1  0  0  3  0  0  0  0  0  0
  187.9590  177.3100  144.2730 C   0  0  0  0  0  2  0  0  0  0  0  0
  183.4850  179.0990  143.3200 C   0  0  2  0  0  3  0  0  0  0  0  0
  181.2960  178.5510  143.6970 N   0  0  0  0  0  0  0  0  0  0  0  0
  183.6390  178.1910  141.2940 N   0  0  0  0  0  0  0  0  0  0  0  0
  184.8390  178.0310  141.8970 C   0  0  0  0  0  3  0  0  0  0  0  0
  184.7550  178.5900  143.1640 C   0  0  0  0  0  0  0  0  0  0  0  0
  182.5120  178.9230  144.4300 C   0  0  0  0  0  3  0  0  0  0  0  0
  182.8340  178.8190  142.1720 C   0  0  1  0  0  3  0  0  0  0  0  0
  181.4890  178.4760  142.4390 N   0  0  0  0  0  2  0  0  0  0  0  0
  182.8260  178.5310  139.0240 C   0  0  0  0  0  1  0  0  0  0  0  0
  183.2270  177.5130  140.0750 C   0  0  0  0  0  2  0  0  0  0  0  0
  191.6010  177.4430  145.0410 N   0  0  0  0  0  1  0  0  0  0  0  0
  190.4280  177.8350  144.2770 C   0  0  1  0  0  3  0  0  0  0  0  0
  190.3410  177.0560  142.9990 C   0  0  0  0  0  0  0  0  0  0  0  0
  189.9530  177.0460  140.5090 C   0  0  0  0  0  1  0  0  0  0  0  0
  190.0700  177.7450  141.7790 N   0  0  0  0  0  2  0  0  0  0  0  0
  190.4810  175.8020  143.0060 O   0  0  0  0  0  0  0  0  0  0  0  0
  1  6  1  0  0  0  0
  2  1  1  0  0  0  0
  3 10  1  6  0  0  0
  3  9  1  0  0  0  0
  4  3  1  0  0  0  0
  4  9  1  0  0  0  0
  5  2  1  0  0  0  0
  7  6  1  0  0  0  0
  8 22  1  6  0  0  0
  8  5  1  0  0  0  0
  9  7  1  1  0  0  0
 10  8  1  0  0  0  0
 11 16  1  1  0  0  0
 12 16  2  0  0  0  0
 13 14  1  0  0  0  0
 13 17  1  0  0  0  0
 14 15  2  0  0  0  0
 15 11  1  0  0  0  0
 15  4  1  0  0  0  0
 17 18  1  1  0  0  0
 17 11  1  0  0  0  0
 18 12  1  0  0  0  0
 19 20  1  0  0  0  0
 20 13  1  0  0  0  0
 22 21  1  1  0  0  0
 23 26  2  0  0  0  0
 23 22  1  0  0  0  0
 24 25  1  0  0  0  0
 25 23  1  0  0  0  0
M  END
>  <MODEL>
8

>  <REMARK>
 VINA RESULT:      -7.4      1.190      2.202
  Name = 
  4 active torsions:
  status: ('A' for Active; 'I' for Inactive)
    1  A    between atoms: C_7  and  C_25
    2  A    between atoms: N_8  and  C_16
    3  A    between atoms: N_11  and  C_14
    4  A    between atoms: C_23  and  C_25
                            x       y       z     vdW  Elec       q    Type
                         _______ _______ _______ _____ _____    ______ ____

>  <TORSDO>
F 4

$$$$
=
 OpenBabel10232410013D

 26 29  0  0  1  0  0  0  0  0999 V2000
  191.2080  175.7620  145.1260 N   0  0  0  0  0  2  0  0  0  0  0  0
  191.3930  177.0270  145.8290 C   0  0  0  0  0  2  0  0  0  0  0  0
  189.3990  177.9360  143.8540 C   0  0  2  0  0  3  0  0  0  0  0  0
  188.5650  177.7500  142.6290 N   0  0  0  0  0  0  0  0  0  0  0  0
  190.2610  177.2960  146.8230 C   0  0  0  0  0  2  0  0  0  0  0  0
  191.6260  175.9950  143.7440 C   0  0  0  0  0  2  0  0  0  0  0  0
  190.4320  176.0820  142.7740 C   0  0  0  0  0  2  0  0  0  0  0  0
  188.8430  177.2140  146.2250 C   0  0  2  0  0  3  0  0  0  0  0  0
  189.1710  176.6410  143.4250 C   0  0  1  0  0  3  0  0  0  0  0  0
  188.5530  178.2160  145.0900 C   0  0  0  0  0  2  0  0  0  0  0  0
  186.5000  178.7320  141.6450 C   0  0  2  0  0  3  0  0  0  0  0  0
  184.2870  178.1620  141.5320 N   0  0  0  0  0  0  0  0  0  0  0  0
  186.9700  178.3970  139.4960 N   0  0  0  0  0  0  0  0  0  0  0  0
  188.0680  178.0490  140.2040 C   0  0  0  0  0  3  0  0  0  0  0  0
  187.7860  178.2500  141.5480 C   0  0  0  0  0  0  0  0  0  0  0  0
  185.3750  178.2910  142.5100 C   0  0  0  0  0  3  0  0  0  0  0  0
  186.0330  178.7880  140.3810 C   0  0  1  0  0  3  0  0  0  0  0  0
  184.6690  178.4220  140.3430 N   0  0  0  0  0  2  0  0  0  0  0  0
  187.5930  176.8820  137.6940 C   0  0  0  0  0  1  0  0  0  0  0  0
  186.7550  178.0830  138.0920 C   0  0  0  0  0  2  0  0  0  0  0  0
  188.3350  177.5820  148.5990 N   0  0  0  0  0  1  0  0  0  0  0  0
  187.7540  177.2910  147.2990 C   0  0  1  0  0  3  0  0  0  0  0  0
  186.6650  178.2690  146.9720 C   0  0  0  0  0  0  0  0  0  0  0  0
  184.5520  178.7870  145.7030 C   0  0  0  0  0  1  0  0  0  0  0  0
  185.6250  177.8800  146.0770 N   0  0  0  0  0  2  0  0  0  0  0  0
  186.6840  179.4310  147.4630 O   0  0  0  0  0  0  0  0  0  0  0  0
  1  2  1  0  0  0  0
  2  5  1  0  0  0  0
  3 10  1  1  0  0  0
  4  9  1  0  0  0  0
  4  3  1  0  0  0  0
  6  1  1  0  0  0  0
  7  6  1  0  0  0  0
  8  5  1  0  0  0  0
  8 22  1  1  0  0  0
  9  7  1  6  0  0  0
  9  3  1  0  0  0  0
 10  8  1  0  0  0  0
 11 16  1  1  0  0  0
 12 16  2  0  0  0  0
 13 14  1  0  0  0  0
 13 17  1  0  0  0  0
 14 15  2  0  0  0  0
 15 11  1  0  0  0  0
 15  4  1  0  0  0  0
 17 18  1  1  0  0  0
 17 11  1  0  0  0  0
 18 12  1  0  0  0  0
 19 20  1  0  0  0  0
 20 13  1  0  0  0  0
 22 21  1  1  0  0  0
 23 22  1  0  0  0  0
 23 26  2  0  0  0  0
 24 25  1  0  0  0  0
 25 23  1  0  0  0  0
M  END
>  <MODEL>
9

>  <REMARK>
 VINA RESULT:      -7.4      2.370      4.947
  Name = 
  4 active torsions:
  status: ('A' for Active; 'I' for Inactive)
    1  A    between atoms: C_7  and  C_25
    2  A    between atoms: N_8  and  C_16
    3  A    between atoms: N_11  and  C_14
    4  A    between atoms: C_23  and  C_25
                            x       y       z     vdW  Elec       q    Type
                         _______ _______ _______ _____ _____    ______ ____

>  <TORSDO>
F 4

$$$$
