=
 OpenBabel10232409213D

 60 64  0  0  1  0  0  0  0  0999 V2000
  193.6390  174.6110  136.6300 N   0  0  0  0  0  0  0  0  0  0  0  0
  191.5240  175.8210  136.5420 C   0  0  0  0  0  2  0  0  0  0  0  0
  191.1560  172.4060  135.4990 C   0  0  0  0  0  3  0  0  0  0  0  0
  190.4550  173.5300  135.9170 C   0  0  0  0  0  0  0  0  0  0  0  0
  193.0660  175.9720  136.6720 C   0  0  1  0  0  3  0  0  0  0  0  0
  192.4580  172.5470  135.8520 N   0  0  0  0  0  0  0  0  0  0  0  0
  193.5110  171.7100  135.3490 C   0  0  0  0  0  0  0  0  0  0  0  0
  194.6780  172.1630  135.2070 O   0  0  0  0  0  0  0  0  0  0  0  0
  193.2150  170.3670  134.9540 N   0  0  0  0  0  2  0  0  0  0  0  0
  191.3580  174.3470  136.5500 C   0  0  0  0  0  0  0  0  0  0  0  0
  192.5400  173.7160  136.5330 C   0  0  0  0  0  0  0  0  0  0  0  0
  198.6940  174.9450  135.9020 C   0  0  0  0  0  2  0  0  0  0  0  0
  196.4940  173.5700  138.6470 C   0  0  0  0  0  2  0  0  0  0  0  0
  195.0900  173.7110  138.3580 C   0  0  0  0  0  2  0  0  0  0  0  0
  197.5180  174.5410  136.6840 C   0  0  1  0  0  3  0  0  0  0  0  0
  194.9360  174.2860  137.1570 C   0  0  0  0  0  0  0  0  0  0  0  0
  198.4970  174.3450  137.1040 C   0  0  0  0  0  0  0  0  0  0  0  0
  197.1000  174.1460  137.4810 C   0  0  0  0  0  2  0  0  0  0  0  0
  196.1760  174.6630  136.4230 C   0  0  0  0  0  3  0  0  0  0  0  0
  199.6220  173.9640  137.9010 O   0  0  0  0  0  0  0  0  0  0  0  0
  200.0290  174.6840  139.0550 C   0  0  0  0  0  1  0  0  0  0  0  0
  189.0930  173.8530  135.6040 C   0  0  0  0  0  0  0  0  0  0  0  0
  187.9360  174.0950  135.3680 C   0  0  0  0  0  0  0  0  0  0  0  0
  186.6110  174.3460  135.1220 O   0  0  0  0  0  0  0  0  0  0  0  0
  183.8450  175.6010  136.8740 C   0  0  0  0  0  2  0  0  0  0  0  0
  184.9570  172.8730  136.0110 C   0  0  0  0  0  3  0  0  0  0  0  0
  185.6000  174.0490  136.0440 C   0  0  0  0  0  0  0  0  0  0  0  0
  182.8290  174.6970  137.5690 C   0  0  2  0  0  3  0  0  0  0  0  0
  182.6440  173.3670  136.8240 C   0  0  1  0  0  3  0  0  0  0  0  0
  183.8770  172.4860  136.9710 C   0  0  0  0  0  2  0  0  0  0  0  0
  185.2640  175.0860  137.0690 C   0  0  0  0  0  2  0  0  0  0  0  0
  181.5510  172.6730  137.3480 O   0  0  0  0  0  1  0  0  0  0  0  0
  181.5090  175.4480  137.6690 C   0  0  0  0  0  2  0  0  0  0  0  0
  181.1880  175.7700  139.1220 C   0  0  0  0  0  2  0  0  0  0  0  0
  181.8570  177.0340  139.5500 C   0  0  0  0  0  0  0  0  0  0  0  0
  181.3330  178.1470  139.2780 O   0  0  0  0  0  0  0  0  0  0  0  0
  183.0400  176.9830  140.2780 O   0  0  0  0  0  1  0  0  0  0  0  0
  194.2370  169.4750  134.4350 C   0  0  0  0  0  2  0  0  0  0  0  0
  194.7590  168.5970  135.5570 C   0  0  0  0  0  2  0  0  0  0  0  0
  196.9590  169.4880  134.7940 C   0  0  0  0  0  1  0  0  0  0  0  0
  196.2220  168.2700  135.3350 C   0  0  0  0  0  2  0  0  0  0  0  0
  193.4280  176.6870  137.9040 N   0  0  0  0  0  2  0  0  0  0  0  0
  192.2740  176.8220  138.7910 C   0  0  0  0  0  2  0  0  0  0  0  0
  192.7380  177.2250  140.1810 C   0  0  0  0  0  2  0  0  0  0  0  0
  191.5580  177.3750  141.0900 C   0  0  0  0  0  0  0  0  0  0  0  0
  190.4670  176.9510  140.7380 O   0  0  0  0  0  0  0  0  0  0  0  0
  191.7120  177.9420  142.4740 C   0  0  0  0  0  2  0  0  0  0  0  0
  191.6050  176.8670  143.5490 C   0  0  0  0  0  2  0  0  0  0  0  0
  191.1270  177.4640  144.8670 C   0  0  0  0  0  2  0  0  0  0  0  0
  190.0380  176.7120  145.3910 O   0  0  0  0  0  0  0  0  0  0  0  0
  189.2860  177.4610  147.4450 O   0  0  0  0  0  0  0  0  0  0  0  0
  189.0570  177.2720  146.2170 C   0  0  0  0  0  0  0  0  0  0  0  0
  185.3080  178.3940  144.5580 C   0  0  0  0  0  3  0  0  0  0  0  0
  186.2540  178.0960  142.3280 N   0  0  0  0  0  1  0  0  0  0  0  0
  185.4620  178.3540  145.9450 C   0  0  0  0  0  0  0  0  0  0  0  0
  187.5800  177.6950  144.3010 N   0  0  0  0  0  0  0  0  0  0  0  0
  184.3980  178.6900  146.7730 O   0  0  0  0  0  1  0  0  0  0  0  0
  186.3920  178.0570  143.7430 C   0  0  0  0  0  0  0  0  0  0  0  0
  187.7540  177.6490  145.6520 C   0  0  0  0  0  0  0  0  0  0  0  0
  186.6880  177.9790  146.4970 C   0  0  0  0  0  3  0  0  0  0  0  0
  1  5  1  0  0  0  0
  1 16  1  0  0  0  0
  2 10  1  0  0  0  0
  2  5  1  0  0  0  0
  3  6  1  0  0  0  0
  3  4  2  0  0  0  0
  4 10  1  0  0  0  0
  5 42  1  1  0  0  0
  6 11  1  0  0  0  0
  7  6  1  0  0  0  0
  8  7  2  0  0  0  0
  9  7  1  0  0  0  0
 11 10  2  0  0  0  0
 11  1  1  0  0  0  0
 12 17  2  0  0  0  0
 14 13  1  0  0  0  0
 15 17  1  1  0  0  0
 15 18  1  0  0  0  0
 16 14  1  0  0  0  0
 17 20  1  0  0  0  0
 18 13  1  0  0  0  0
 19 15  1  0  0  0  0
 19 16  2  0  0  0  0
 20 21  1  0  0  0  0
 22  4  1  0  0  0  0
 23 22  3  0  0  0  0
 24 23  1  0  0  0  0
 24 27  1  0  0  0  0
 25 31  1  0  0  0  0
 25 28  1  0  0  0  0
 26 27  2  0  0  0  0
 26 30  1  0  0  0  0
 27 31  1  0  0  0  0
 28 33  1  6  0  0  0
 29 30  1  0  0  0  0
 29 32  1  1  0  0  0
 29 28  1  0  0  0  0
 33 34  1  0  0  0  0
 34 35  1  0  0  0  0
 35 37  1  0  0  0  0
 36 35  2  0  0  0  0
 38  9  1  0  0  0  0
 38 39  1  0  0  0  0
 40 41  1  0  0  0  0
 41 39  1  0  0  0  0
 42 43  1  0  0  0  0
 43 44  1  0  0  0  0
 44 45  1  0  0  0  0
 45 47  1  0  0  0  0
 46 45  2  0  0  0  0
 47 48  1  0  0  0  0
 48 49  1  0  0  0  0
 49 50  1  0  0  0  0
 50 52  1  0  0  0  0
 52 51  2  0  0  0  0
 53 55  1  0  0  0  0
 54 58  1  0  0  0  0
 55 60  2  0  0  0  0
 55 57  1  0  0  0  0
 56 59  2  0  0  0  0
 58 56  1  0  0  0  0
 58 53  2  0  0  0  0
 59 52  1  0  0  0  0
 59 60  1  0  0  0  0
M  END
>  <MODEL>
1

>  <REMARK>
 VINA RESULT:      -6.7      0.000      0.000
  Name = 
  21 active torsions:
  status: ('A' for Active; 'I' for Inactive)
    1  A    between atoms: C_1  and  C_32
    2  A    between atoms: C_1  and  C_58
    3  A    between atoms: O_4  and  C_51
    4  A    between atoms: N_5  and  C_15
    5  A    between atoms: N_5  and  C_31
    6  A    between atoms: C_6  and  C_12
    7  A    between atoms: N_7  and  C_42
    8  A    between atoms: O_13  and  C_37
    9  A    between atoms: O_13  and  C_38
   10  A    between atoms: C_14  and  C_59
   11  A    between atoms: C_16  and  O_39
   12  A    between atoms: C_23  and  O_39
   13  A    between atoms: C_24  and  C_33
   14  A    between atoms: C_27  and  C_41
   15  A    between atoms: N_28  and  C_56
   16  A    between atoms: C_31  and  C_58
   17  A    between atoms: C_32  and  C_44
   18  A    between atoms: C_33  and  C_41
   19  A    between atoms: C_37  and  C_53
   20  A    between atoms: C_38  and  C_44
   21  A    between atoms: C_56  and  C_59
                            x       y       z     vdW  Elec       q    Type
                         _______ _______ _______ _____ _____    ______ ____

>  <TORSDO>
F 21

$$$$
=
 OpenBabel10232409213D

 60 64  0  0  1  0  0  0  0  0999 V2000
  193.5400  174.6070  136.4930 N   0  0  0  0  0  0  0  0  0  0  0  0
  191.2970  175.5510  136.3410 C   0  0  0  0  0  2  0  0  0  0  0  0
  191.3190  172.0310  135.6360 C   0  0  0  0  0  3  0  0  0  0  0  0
  190.4960  173.1020  135.9620 C   0  0  0  0  0  0  0  0  0  0  0  0
  192.8120  175.8900  136.4190 C   0  0  1  0  0  3  0  0  0  0  0  0
  192.5990  172.3550  135.9440 N   0  0  0  0  0  0  0  0  0  0  0  0
  193.7370  171.6000  135.4980 C   0  0  0  0  0  0  0  0  0  0  0  0
  194.8410  172.1680  135.2860 O   0  0  0  0  0  0  0  0  0  0  0  0
  193.5960  170.2000  135.2400 N   0  0  0  0  0  2  0  0  0  0  0  0
  191.3050  174.0750  136.4930 C   0  0  0  0  0  0  0  0  0  0  0  0
  192.5520  173.5860  136.5090 C   0  0  0  0  0  0  0  0  0  0  0  0
  198.5270  175.2440  135.5330 C   0  0  0  0  0  2  0  0  0  0  0  0
  196.5220  174.1660  138.5470 C   0  0  0  0  0  2  0  0  0  0  0  0
  195.1050  174.1360  138.2910 C   0  0  0  0  0  2  0  0  0  0  0  0
  197.4100  174.8780  136.4140 C   0  0  1  0  0  3  0  0  0  0  0  0
  194.8730  174.4870  137.0180 C   0  0  0  0  0  0  0  0  0  0  0  0
  198.4120  174.8380  136.8240 C   0  0  0  0  0  0  0  0  0  0  0  0
  197.0470  174.5880  137.2800 C   0  0  0  0  0  2  0  0  0  0  0  0
  196.0570  174.8390  136.1860 C   0  0  0  0  0  3  0  0  0  0  0  0
  199.5840  174.6940  137.6310 O   0  0  0  0  0  0  0  0  0  0  0  0
  200.2230  173.4450  137.8480 C   0  0  0  0  0  1  0  0  0  0  0  0
  189.1020  173.2340  135.6520 C   0  0  0  0  0  0  0  0  0  0  0  0
  187.9270  173.3760  135.4200 C   0  0  0  0  0  0  0  0  0  0  0  0
  186.5910  173.5630  135.1790 O   0  0  0  0  0  0  0  0  0  0  0  0
  185.4680  176.4700  136.7870 C   0  0  0  0  0  2  0  0  0  0  0  0
  184.4620  173.6190  136.2570 C   0  0  0  0  0  3  0  0  0  0  0  0
  185.7140  174.0820  136.1390 C   0  0  0  0  0  0  0  0  0  0  0  0
  184.1730  176.5170  137.5960 C   0  0  2  0  0  3  0  0  0  0  0  0
  183.1050  175.5760  137.0210 C   0  0  1  0  0  3  0  0  0  0  0  0
  183.4770  174.1190  137.2660 C   0  0  0  0  0  2  0  0  0  0  0  0
  186.2230  175.1710  137.0320 C   0  0  0  0  0  2  0  0  0  0  0  0
  181.8740  175.8160  137.6350 O   0  0  0  0  0  1  0  0  0  0  0  0
  183.6720  177.9550  137.6130 C   0  0  0  0  0  2  0  0  0  0  0  0
  183.1330  178.3140  138.9900 C   0  0  0  0  0  2  0  0  0  0  0  0
  184.2400  178.6960  139.9160 C   0  0  0  0  0  0  0  0  0  0  0  0
  184.0250  178.7770  141.1550 O   0  0  0  0  0  1  0  0  0  0  0  0
  185.5160  178.9300  139.4160 O   0  0  0  0  0  0  0  0  0  0  0  0
  194.7090  169.3850  134.7840 C   0  0  0  0  0  2  0  0  0  0  0  0
  195.3620  168.7100  135.9760 C   0  0  0  0  0  2  0  0  0  0  0  0
  195.1740  169.5500  138.3150 C   0  0  0  0  0  1  0  0  0  0  0  0
  194.4650  168.8040  137.1930 C   0  0  0  0  0  2  0  0  0  0  0  0
  193.1040  176.7590  137.5680 N   0  0  0  0  0  2  0  0  0  0  0  0
  191.9950  176.7590  138.5200 C   0  0  0  0  0  2  0  0  0  0  0  0
  192.4960  177.1750  139.8930 C   0  0  0  0  0  2  0  0  0  0  0  0
  191.3780  177.1080  140.8880 C   0  0  0  0  0  0  0  0  0  0  0  0
  190.3840  176.4420  140.6340 O   0  0  0  0  0  0  0  0  0  0  0  0
  191.5000  177.7560  142.2380 C   0  0  0  0  0  2  0  0  0  0  0  0
  191.8540  176.7510  143.3270 C   0  0  0  0  0  2  0  0  0  0  0  0
  191.5050  177.3000  144.7060 C   0  0  0  0  0  2  0  0  0  0  0  0
  190.5400  176.4710  145.3450 O   0  0  0  0  0  0  0  0  0  0  0  0
  189.9170  176.9840  147.5110 O   0  0  0  0  0  0  0  0  0  0  0  0
  189.6240  176.9580  146.2820 C   0  0  0  0  0  0  0  0  0  0  0  0
  185.8130  178.3590  145.0230 C   0  0  0  0  0  3  0  0  0  0  0  0
  185.4820  179.3230  147.2420 N   0  0  0  0  0  1  0  0  0  0  0  0
  186.6130  177.6470  144.1290 C   0  0  0  0  0  0  0  0  0  0  0  0
  187.5140  178.1480  146.6910 N   0  0  0  0  0  0  0  0  0  0  0  0
  186.1600  177.3910  142.8410 O   0  0  0  0  0  1  0  0  0  0  0  0
  186.2870  178.6020  146.3160 C   0  0  0  0  0  0  0  0  0  0  0  0
  188.3130  177.4500  145.8350 C   0  0  0  0  0  0  0  0  0  0  0  0
  187.8700  177.1910  144.5320 C   0  0  0  0  0  3  0  0  0  0  0  0
  1 11  1  0  0  0  0
  1 16  1  0  0  0  0
  2  5  1  0  0  0  0
  2 10  1  0  0  0  0
  3  6  1  0  0  0  0
  3  4  2  0  0  0  0
  4 10  1  0  0  0  0
  5  1  1  0  0  0  0
  5 42  1  1  0  0  0
  6 11  1  0  0  0  0
  7  6  1  0  0  0  0
  8  7  2  0  0  0  0
  9  7  1  0  0  0  0
 10 11  2  0  0  0  0
 12 17  2  0  0  0  0
 14 13  1  0  0  0  0
 15 17  1  1  0  0  0
 15 18  1  0  0  0  0
 16 14  1  0  0  0  0
 17 20  1  0  0  0  0
 18 13  1  0  0  0  0
 19 15  1  0  0  0  0
 19 16  2  0  0  0  0
 20 21  1  0  0  0  0
 22  4  1  0  0  0  0
 23 22  3  0  0  0  0
 24 23  1  0  0  0  0
 24 27  1  0  0  0  0
 25 31  1  0  0  0  0
 25 28  1  0  0  0  0
 26 30  1  0  0  0  0
 27 26  2  0  0  0  0
 27 31  1  0  0  0  0
 28 33  1  6  0  0  0
 29 30  1  0  0  0  0
 29 28  1  0  0  0  0
 29 32  1  1  0  0  0
 33 34  1  0  0  0  0
 34 35  1  0  0  0  0
 35 36  1  0  0  0  0
 37 35  2  0  0  0  0
 38  9  1  0  0  0  0
 38 39  1  0  0  0  0
 39 41  1  0  0  0  0
 41 40  1  0  0  0  0
 42 43  1  0  0  0  0
 43 44  1  0  0  0  0
 44 45  1  0  0  0  0
 45 47  1  0  0  0  0
 46 45  2  0  0  0  0
 47 48  1  0  0  0  0
 48 49  1  0  0  0  0
 49 50  1  0  0  0  0
 50 52  1  0  0  0  0
 52 51  2  0  0  0  0
 53 58  1  0  0  0  0
 55 60  1  0  0  0  0
 55 53  2  0  0  0  0
 57 55  1  0  0  0  0
 58 56  2  0  0  0  0
 58 54  1  0  0  0  0
 59 52  1  0  0  0  0
 59 56  1  0  0  0  0
 60 59  2  0  0  0  0
M  END
>  <MODEL>
2

>  <REMARK>
 VINA RESULT:      -6.7      1.377      1.758
  Name = 
  21 active torsions:
  status: ('A' for Active; 'I' for Inactive)
    1  A    between atoms: C_1  and  C_32
    2  A    between atoms: C_1  and  C_58
    3  A    between atoms: O_4  and  C_51
    4  A    between atoms: N_5  and  C_15
    5  A    between atoms: N_5  and  C_31
    6  A    between atoms: C_6  and  C_12
    7  A    between atoms: N_7  and  C_42
    8  A    between atoms: O_13  and  C_37
    9  A    between atoms: O_13  and  C_38
   10  A    between atoms: C_14  and  C_59
   11  A    between atoms: C_16  and  O_39
   12  A    between atoms: C_23  and  O_39
   13  A    between atoms: C_24  and  C_33
   14  A    between atoms: C_27  and  C_41
   15  A    between atoms: N_28  and  C_56
   16  A    between atoms: C_31  and  C_58
   17  A    between atoms: C_32  and  C_44
   18  A    between atoms: C_33  and  C_41
   19  A    between atoms: C_37  and  C_53
   20  A    between atoms: C_38  and  C_44
   21  A    between atoms: C_56  and  C_59
                            x       y       z     vdW  Elec       q    Type
                         _______ _______ _______ _____ _____    ______ ____

>  <TORSDO>
F 21

$$$$
=
 OpenBabel10232409213D

 60 64  0  0  1  0  0  0  0  0999 V2000
  191.4530  174.7080  135.5660 N   0  0  0  0  0  0  0  0  0  0  0  0
  189.0450  175.0590  135.7140 C   0  0  0  0  0  2  0  0  0  0  0  0
  189.8790  171.5750  135.4870 C   0  0  0  0  0  3  0  0  0  0  0  0
  188.8630  172.4630  135.8180 C   0  0  0  0  0  0  0  0  0  0  0  0
  190.4130  175.7520  135.4610 C   0  0  1  0  0  3  0  0  0  0  0  0
  191.0610  172.2380  135.5040 N   0  0  0  0  0  0  0  0  0  0  0  0
  192.2770  171.7050  134.9550 C   0  0  0  0  0  0  0  0  0  0  0  0
  193.1500  172.4700  134.4670 O   0  0  0  0  0  0  0  0  0  0  0  0
  192.4690  170.2880  134.9150 N   0  0  0  0  0  2  0  0  0  0  0  0
  189.4600  173.6760  136.0550 C   0  0  0  0  0  0  0  0  0  0  0  0
  190.7790  173.5030  135.9000 C   0  0  0  0  0  0  0  0  0  0  0  0
  195.3720  173.9200  138.7620 C   0  0  0  0  0  2  0  0  0  0  0  0
  194.9420  175.7720  135.4980 C   0  0  0  0  0  2  0  0  0  0  0  0
  193.5950  175.7000  134.9910 C   0  0  0  0  0  2  0  0  0  0  0  0
  194.7820  174.5000  137.5480 C   0  0  1  0  0  3  0  0  0  0  0  0
  192.8340  174.9980  135.8420 C   0  0  0  0  0  0  0  0  0  0  0  0
  195.8360  174.6730  137.7310 C   0  0  0  0  0  0  0  0  0  0  0  0
  194.8450  175.0170  136.7150 C   0  0  0  0  0  2  0  0  0  0  0  0
  193.5030  174.4460  137.0530 C   0  0  0  0  0  3  0  0  0  0  0  0
  197.2110  175.0630  137.6980 O   0  0  0  0  0  0  0  0  0  0  0  0
  198.1580  174.6380  138.6670 C   0  0  0  0  0  1  0  0  0  0  0  0
  187.4530  172.2090  135.7610 C   0  0  0  0  0  0  0  0  0  0  0  0
  186.2670  171.9920  135.7550 C   0  0  0  0  0  0  0  0  0  0  0  0
  184.9190  171.7440  135.7820 O   0  0  0  0  0  0  0  0  0  0  0  0
  184.3070  174.8290  137.3330 C   0  0  0  0  0  2  0  0  0  0  0  0
  182.7040  172.3820  136.4020 C   0  0  0  0  0  3  0  0  0  0  0  0
  184.0300  172.4770  136.5770 C   0  0  0  0  0  0  0  0  0  0  0  0
  182.9310  175.2280  137.8610 C   0  0  2  0  0  3  0  0  0  0  0  0
  181.7980  174.6320  137.0130 C   0  0  1  0  0  3  0  0  0  0  0  0
  181.6990  173.1270  137.2220 C   0  0  0  0  0  2  0  0  0  0  0  0
  184.6090  173.3670  137.6320 C   0  0  0  0  0  2  0  0  0  0  0  0
  180.5760  175.2010  137.3790 O   0  0  0  0  0  1  0  0  0  0  0  0
  182.8480  176.7480  137.8810 C   0  0  0  0  0  2  0  0  0  0  0  0
  184.2310  177.3590  137.6990 C   0  0  0  0  0  2  0  0  0  0  0  0
  184.4730  178.4410  138.6990 C   0  0  0  0  0  0  0  0  0  0  0  0
  185.6420  178.8710  138.8890 O   0  0  0  0  0  0  0  0  0  0  0  0
  183.4070  178.9960  139.3970 O   0  0  0  0  0  1  0  0  0  0  0  0
  193.6750  169.6890  134.3700 C   0  0  0  0  0  2  0  0  0  0  0  0
  194.6540  169.4110  135.4950 C   0  0  0  0  0  2  0  0  0  0  0  0
  195.4920  170.6540  137.4860 C   0  0  0  0  0  1  0  0  0  0  0  0
  194.2540  170.1710  136.7430 C   0  0  0  0  0  2  0  0  0  0  0  0
  190.6360  176.8520  136.4110 N   0  0  0  0  0  2  0  0  0  0  0  0
  189.3690  177.4540  136.8230 C   0  0  0  0  0  2  0  0  0  0  0  0
  189.0760  177.0960  138.2700 C   0  0  0  0  0  2  0  0  0  0  0  0
  190.3210  176.5990  138.9370 C   0  0  0  0  0  0  0  0  0  0  0  0
  190.6230  175.4170  138.8470 O   0  0  0  0  0  0  0  0  0  0  0  0
  191.2650  177.5450  139.6250 C   0  0  0  0  0  2  0  0  0  0  0  0
  191.0840  177.5360  141.1380 C   0  0  0  0  0  2  0  0  0  0  0  0
  189.6050  177.5670  141.5070 C   0  0  0  0  0  2  0  0  0  0  0  0
  189.3620  176.7770  142.6670 O   0  0  0  0  0  0  0  0  0  0  0  0
  187.2760  177.4520  143.4010 O   0  0  0  0  0  0  0  0  0  0  0  0
  188.4750  177.1660  143.6760 C   0  0  0  0  0  0  0  0  0  0  0  0
  189.8050  177.4100  147.7060 C   0  0  0  0  0  3  0  0  0  0  0  0
  187.5670  178.1350  148.3560 N   0  0  0  0  0  1  0  0  0  0  0  0
  190.6980  177.0080  146.7110 C   0  0  0  0  0  0  0  0  0  0  0  0
  188.0860  177.6260  146.0580 N   0  0  0  0  0  0  0  0  0  0  0  0
  192.0120  176.7000  147.0380 O   0  0  0  0  0  1  0  0  0  0  0  0
  188.4880  177.7190  147.3550 C   0  0  0  0  0  0  0  0  0  0  0  0
  188.9400  177.2360  145.0690 C   0  0  0  0  0  0  0  0  0  0  0  0
  190.2660  176.9170  145.3870 C   0  0  0  0  0  3  0  0  0  0  0  0
  1 16  1  0  0  0  0
  1 11  1  0  0  0  0
  2 10  1  0  0  0  0
  3  6  1  0  0  0  0
  3  4  2  0  0  0  0
  4 10  1  0  0  0  0
  5  1  1  0  0  0  0
  5  2  1  0  0  0  0
  5 42  1  1  0  0  0
  6 11  1  0  0  0  0
  7  6  1  0  0  0  0
  8  7  2  0  0  0  0
  9  7  1  0  0  0  0
 11 10  2  0  0  0  0
 13 18  1  0  0  0  0
 14 13  1  0  0  0  0
 14 16  1  0  0  0  0
 15 17  1  6  0  0  0
 16 19  2  0  0  0  0
 17 12  2  0  0  0  0
 18 15  1  0  0  0  0
 19 15  1  0  0  0  0
 20 17  1  0  0  0  0
 20 21  1  0  0  0  0
 22  4  1  0  0  0  0
 23 22  3  0  0  0  0
 23 24  1  0  0  0  0
 24 27  1  0  0  0  0
 25 31  1  0  0  0  0
 25 28  1  0  0  0  0
 26 27  2  0  0  0  0
 26 30  1  0  0  0  0
 27 31  1  0  0  0  0
 28 33  1  6  0  0  0
 29 30  1  0  0  0  0
 29 32  1  1  0  0  0
 29 28  1  0  0  0  0
 34 33  1  0  0  0  0
 34 35  1  0  0  0  0
 35 36  2  0  0  0  0
 35 37  1  0  0  0  0
 38  9  1  0  0  0  0
 38 39  1  0  0  0  0
 39 41  1  0  0  0  0
 41 40  1  0  0  0  0
 42 43  1  0  0  0  0
 43 44  1  0  0  0  0
 44 45  1  0  0  0  0
 45 47  1  0  0  0  0
 46 45  2  0  0  0  0
 47 48  1  0  0  0  0
 48 49  1  0  0  0  0
 49 50  1  0  0  0  0
 50 52  1  0  0  0  0
 51 52  2  0  0  0  0
 52 59  1  0  0  0  0
 55 57  1  0  0  0  0
 55 53  2  0  0  0  0
 56 58  2  0  0  0  0
 58 53  1  0  0  0  0
 58 54  1  0  0  0  0
 59 60  2  0  0  0  0
 59 56  1  0  0  0  0
 60 55  1  0  0  0  0
M  END
>  <MODEL>
3

>  <REMARK>
 VINA RESULT:      -6.5      1.979      3.126
  Name = 
  21 active torsions:
  status: ('A' for Active; 'I' for Inactive)
    1  A    between atoms: C_1  and  C_32
    2  A    between atoms: C_1  and  C_58
    3  A    between atoms: O_4  and  C_51
    4  A    between atoms: N_5  and  C_15
    5  A    between atoms: N_5  and  C_31
    6  A    between atoms: C_6  and  C_12
    7  A    between atoms: N_7  and  C_42
    8  A    between atoms: O_13  and  C_37
    9  A    between atoms: O_13  and  C_38
   10  A    between atoms: C_14  and  C_59
   11  A    between atoms: C_16  and  O_39
   12  A    between atoms: C_23  and  O_39
   13  A    between atoms: C_24  and  C_33
   14  A    between atoms: C_27  and  C_41
   15  A    between atoms: N_28  and  C_56
   16  A    between atoms: C_31  and  C_58
   17  A    between atoms: C_32  and  C_44
   18  A    between atoms: C_33  and  C_41
   19  A    between atoms: C_37  and  C_53
   20  A    between atoms: C_38  and  C_44
   21  A    between atoms: C_56  and  C_59
                            x       y       z     vdW  Elec       q    Type
                         _______ _______ _______ _____ _____    ______ ____

>  <TORSDO>
F 21

$$$$
=
 OpenBabel10232409213D

 60 64  0  0  1  0  0  0  0  0999 V2000
  185.7560  175.4860  136.5790 N   0  0  0  0  0  0  0  0  0  0  0  0
  187.9980  174.8070  135.9040 C   0  0  0  0  0  2  0  0  0  0  0  0
  185.6390  172.1160  135.6120 C   0  0  0  0  0  3  0  0  0  0  0  0
  186.9040  172.5430  135.2260 C   0  0  0  0  0  0  0  0  0  0  0  0
  187.1710  175.9050  136.6300 C   0  0  1  0  0  3  0  0  0  0  0  0
  184.9260  173.1910  136.0310 N   0  0  0  0  0  0  0  0  0  0  0  0
  183.6840  173.0880  136.7460 C   0  0  0  0  0  0  0  0  0  0  0  0
  183.3520  173.9670  137.5850 O   0  0  0  0  0  0  0  0  0  0  0  0
  182.8460  171.9460  136.5410 N   0  0  0  0  0  2  0  0  0  0  0  0
  186.9340  173.9040  135.4020 C   0  0  0  0  0  0  0  0  0  0  0  0
  185.7240  174.2700  135.8450 C   0  0  0  0  0  0  0  0  0  0  0  0
  183.5210  178.9460  139.6190 C   0  0  0  0  0  2  0  0  0  0  0  0
  182.8430  177.6370  136.1400 C   0  0  0  0  0  2  0  0  0  0  0  0
  183.7860  176.6280  135.7320 C   0  0  0  0  0  2  0  0  0  0  0  0
  183.6120  178.1810  138.3670 C   0  0  1  0  0  3  0  0  0  0  0  0
  184.6580  176.4030  136.7240 C   0  0  0  0  0  0  0  0  0  0  0  0
  182.8160  178.9100  138.4580 C   0  0  0  0  0  0  0  0  0  0  0  0
  183.3000  177.9580  137.4620 C   0  0  0  0  0  2  0  0  0  0  0  0
  184.4980  177.2130  137.9630 C   0  0  0  0  0  3  0  0  0  0  0  0
  181.6920  179.7760  138.2840 O   0  0  0  0  0  0  0  0  0  0  0  0
  181.7900  181.1910  138.3410 C   0  0  0  0  0  1  0  0  0  0  0  0
  188.0160  171.7090  134.8730 C   0  0  0  0  0  0  0  0  0  0  0  0
  188.9470  170.9880  134.6120 C   0  0  0  0  0  0  0  0  0  0  0  0
  190.0000  170.1520  134.3460 O   0  0  0  0  0  0  0  0  0  0  0  0
  192.1870  172.4040  135.9100 C   0  0  0  0  0  2  0  0  0  0  0  0
  192.3200  169.6410  134.5800 C   0  0  0  0  0  3  0  0  0  0  0  0
  191.3350  170.5470  134.4930 C   0  0  0  0  0  0  0  0  0  0  0  0
  193.6970  172.1800  135.9710 C   0  0  2  0  0  3  0  0  0  0  0  0
  194.0500  170.6880  136.0510 C   0  0  1  0  0  3  0  0  0  0  0  0
  193.7670  169.9910  134.7270 C   0  0  0  0  0  2  0  0  0  0  0  0
  191.6280  172.0140  134.5490 C   0  0  0  0  0  2  0  0  0  0  0  0
  195.4080  170.5320  136.3390 O   0  0  0  0  0  1  0  0  0  0  0  0
  194.2430  172.9290  137.1790 C   0  0  0  0  0  2  0  0  0  0  0  0
  195.6600  173.4150  136.9070 C   0  0  0  0  0  2  0  0  0  0  0  0
  195.7880  174.8760  137.1900 C   0  0  0  0  0  0  0  0  0  0  0  0
  196.7060  175.5440  136.6450 O   0  0  0  0  0  0  0  0  0  0  0  0
  194.8740  175.5050  138.0280 O   0  0  0  0  0  1  0  0  0  0  0  0
  181.5820  171.7850  137.2380 C   0  0  0  0  0  2  0  0  0  0  0  0
  180.4380  172.0600  136.2790 C   0  0  0  0  0  2  0  0  0  0  0  0
  180.9750  170.4510  134.4530 C   0  0  0  0  0  1  0  0  0  0  0  0
  180.0120  170.7820  135.5850 C   0  0  0  0  0  2  0  0  0  0  0  0
  187.3810  177.2230  136.0140 N   0  0  0  0  0  2  0  0  0  0  0  0
  188.0510  178.1340  136.9400 C   0  0  0  0  0  2  0  0  0  0  0  0
  188.0050  177.5630  138.3470 C   0  0  0  0  0  2  0  0  0  0  0  0
  189.3910  177.2430  138.8150 C   0  0  0  0  0  0  0  0  0  0  0  0
  190.3460  177.5130  138.1010 O   0  0  0  0  0  0  0  0  0  0  0  0
  189.6390  176.6920  140.1910 C   0  0  0  0  0  2  0  0  0  0  0  0
  190.1850  177.7490  141.1420 C   0  0  0  0  0  2  0  0  0  0  0  0
  190.5620  177.1290  142.4830 C   0  0  0  0  0  2  0  0  0  0  0  0
  189.7250  177.6320  143.5190 O   0  0  0  0  0  0  0  0  0  0  0  0
  188.1890  175.9110  143.3780 O   0  0  0  0  0  0  0  0  0  0  0  0
  188.5700  176.9710  143.9490 C   0  0  0  0  0  0  0  0  0  0  0  0
  186.3280  178.5640  147.1900 C   0  0  0  0  0  3  0  0  0  0  0  0
  184.4720  178.9610  145.6550 N   0  0  0  0  0  1  0  0  0  0  0  0
  187.6250  178.1000  147.4140 C   0  0  0  0  0  0  0  0  0  0  0  0
  186.5280  177.9680  144.8830 N   0  0  0  0  0  0  0  0  0  0  0  0
  188.1790  178.1690  148.6860 O   0  0  0  0  0  1  0  0  0  0  0  0
  185.7910  178.4880  145.9010 C   0  0  0  0  0  0  0  0  0  0  0  0
  187.7970  177.5080  145.0770 C   0  0  0  0  0  0  0  0  0  0  0  0
  188.3650  177.5670  146.3560 C   0  0  0  0  0  3  0  0  0  0  0  0
  1  5  1  0  0  0  0
  1 16  1  0  0  0  0
  2  5  1  0  0  0  0
  3  6  1  0  0  0  0
  4 10  1  0  0  0  0
  4  3  2  0  0  0  0
  5 42  1  6  0  0  0
  6  7  1  0  0  0  0
  7  8  2  0  0  0  0
  9  7  1  0  0  0  0
  9 38  1  0  0  0  0
 10 11  2  0  0  0  0
 10  2  1  0  0  0  0
 11  6  1  0  0  0  0
 11  1  1  0  0  0  0
 13 18  1  0  0  0  0
 14 13  1  0  0  0  0
 14 16  1  0  0  0  0
 15 17  1  6  0  0  0
 16 19  2  0  0  0  0
 17 12  2  0  0  0  0
 18 15  1  0  0  0  0
 19 15  1  0  0  0  0
 20 21  1  0  0  0  0
 20 17  1  0  0  0  0
 22  4  1  0  0  0  0
 23 22  3  0  0  0  0
 24 27  1  0  0  0  0
 24 23  1  0  0  0  0
 25 28  1  0  0  0  0
 26 30  1  0  0  0  0
 27 31  1  0  0  0  0
 27 26  2  0  0  0  0
 28 29  1  0  0  0  0
 28 33  1  1  0  0  0
 29 32  1  6  0  0  0
 30 29  1  0  0  0  0
 31 25  1  0  0  0  0
 34 33  1  0  0  0  0
 34 35  1  0  0  0  0
 35 37  1  0  0  0  0
 36 35  2  0  0  0  0
 39 38  1  0  0  0  0
 40 41  1  0  0  0  0
 41 39  1  0  0  0  0
 42 43  1  0  0  0  0
 43 44  1  0  0  0  0
 44 45  1  0  0  0  0
 45 47  1  0  0  0  0
 46 45  2  0  0  0  0
 47 48  1  0  0  0  0
 48 49  1  0  0  0  0
 49 50  1  0  0  0  0
 50 52  1  0  0  0  0
 51 52  2  0  0  0  0
 52 59  1  0  0  0  0
 53 55  1  0  0  0  0
 54 58  1  0  0  0  0
 55 57  1  0  0  0  0
 56 59  2  0  0  0  0
 56 58  1  0  0  0  0
 58 53  2  0  0  0  0
 59 60  1  0  0  0  0
 60 55  2  0  0  0  0
M  END
>  <MODEL>
4

>  <REMARK>
 VINA RESULT:      -6.3      2.973      9.926
  Name = 
  21 active torsions:
  status: ('A' for Active; 'I' for Inactive)
    1  A    between atoms: C_1  and  C_32
    2  A    between atoms: C_1  and  C_58
    3  A    between atoms: O_4  and  C_51
    4  A    between atoms: N_5  and  C_15
    5  A    between atoms: N_5  and  C_31
    6  A    between atoms: C_6  and  C_12
    7  A    between atoms: N_7  and  C_42
    8  A    between atoms: O_13  and  C_37
    9  A    between atoms: O_13  and  C_38
   10  A    between atoms: C_14  and  C_59
   11  A    between atoms: C_16  and  O_39
   12  A    between atoms: C_23  and  O_39
   13  A    between atoms: C_24  and  C_33
   14  A    between atoms: C_27  and  C_41
   15  A    between atoms: N_28  and  C_56
   16  A    between atoms: C_31  and  C_58
   17  A    between atoms: C_32  and  C_44
   18  A    between atoms: C_33  and  C_41
   19  A    between atoms: C_37  and  C_53
   20  A    between atoms: C_38  and  C_44
   21  A    between atoms: C_56  and  C_59
                            x       y       z     vdW  Elec       q    Type
                         _______ _______ _______ _____ _____    ______ ____

>  <TORSDO>
F 21

$$$$
=
 OpenBabel10232409213D

 60 64  0  0  1  0  0  0  0  0999 V2000
  185.3780  175.8650  137.1190 N   0  0  0  0  0  0  0  0  0  0  0  0
  187.7900  175.5090  137.1320 C   0  0  0  0  0  2  0  0  0  0  0  0
  186.1050  173.1820  134.9800 C   0  0  0  0  0  3  0  0  0  0  0  0
  187.3470  173.7230  135.2900 C   0  0  0  0  0  0  0  0  0  0  0  0
  186.6110  176.2200  137.8530 C   0  0  1  0  0  3  0  0  0  0  0  0
  185.1400  173.9960  135.4740 N   0  0  0  0  0  0  0  0  0  0  0  0
  183.7580  173.6170  135.5730 C   0  0  0  0  0  0  0  0  0  0  0  0
  183.0300  174.0800  136.4920 O   0  0  0  0  0  0  0  0  0  0  0  0
  183.2210  172.6620  134.6530 N   0  0  0  0  0  2  0  0  0  0  0  0
  187.1110  174.8940  135.9660 C   0  0  0  0  0  0  0  0  0  0  0  0
  185.7830  175.0540  136.0250 C   0  0  0  0  0  0  0  0  0  0  0  0
  181.7630  177.8240  140.1670 C   0  0  0  0  0  2  0  0  0  0  0  0
  182.5050  178.0150  136.4680 C   0  0  0  0  0  2  0  0  0  0  0  0
  183.6680  177.2520  136.0940 C   0  0  0  0  0  2  0  0  0  0  0  0
  182.3840  177.6230  138.8510 C   0  0  1  0  0  3  0  0  0  0  0  0
  184.1740  176.6490  137.1780 C   0  0  0  0  0  0  0  0  0  0  0  0
  181.5060  178.2560  138.9050 C   0  0  0  0  0  0  0  0  0  0  0  0
  182.4340  177.7800  137.8820 C   0  0  0  0  0  2  0  0  0  0  0  0
  183.4870  176.8970  138.4750 C   0  0  0  0  0  3  0  0  0  0  0  0
  180.3930  179.1200  138.6630 O   0  0  0  0  0  0  0  0  0  0  0  0
  179.9830  180.1270  139.5770 C   0  0  0  0  0  1  0  0  0  0  0  0
  188.6240  173.1000  135.0920 C   0  0  0  0  0  0  0  0  0  0  0  0
  189.7070  172.6060  134.8990 C   0  0  0  0  0  0  0  0  0  0  0  0
  190.9450  172.0710  134.6560 O   0  0  0  0  0  0  0  0  0  0  0  0
  194.4300  172.4490  134.5540 C   0  0  0  0  0  2  0  0  0  0  0  0
  192.0660  173.4970  136.2080 C   0  0  0  0  0  3  0  0  0  0  0  0
  192.0850  172.4430  135.3790 C   0  0  0  0  0  0  0  0  0  0  0  0
  195.2040  173.2470  135.6000 C   0  0  2  0  0  3  0  0  0  0  0  0
  194.3850  174.4300  136.1370 C   0  0  1  0  0  3  0  0  0  0  0  0
  193.2420  173.9430  137.0180 C   0  0  0  0  0  2  0  0  0  0  0  0
  193.3240  171.6240  135.1980 C   0  0  0  0  0  2  0  0  0  0  0  0
  195.1990  175.2640  136.9080 O   0  0  0  0  0  1  0  0  0  0  0  0
  196.5020  173.7320  134.9680 C   0  0  0  0  0  2  0  0  0  0  0  0
  197.6950  173.3180  135.8190 C   0  0  0  0  0  2  0  0  0  0  0  0
  198.8530  174.2340  135.5970 C   0  0  0  0  0  0  0  0  0  0  0  0
  198.7240  175.4720  135.7970 O   0  0  0  0  0  1  0  0  0  0  0  0
  200.0820  173.7190  135.2010 O   0  0  0  0  0  0  0  0  0  0  0  0
  181.8330  172.2370  134.7060 C   0  0  0  0  0  2  0  0  0  0  0  0
  181.7210  170.9830  135.5520 C   0  0  0  0  0  2  0  0  0  0  0  0
  180.4590  171.7770  137.5490 C   0  0  0  0  0  1  0  0  0  0  0  0
  180.3890  170.9490  136.2730 C   0  0  0  0  0  2  0  0  0  0  0  0
  186.8210  177.6740  137.9110 N   0  0  0  0  0  2  0  0  0  0  0  0
  187.6260  178.0410  139.0750 C   0  0  0  0  0  2  0  0  0  0  0  0
  188.9100  178.7140  138.6200 C   0  0  0  0  0  2  0  0  0  0  0  0
  190.0300  177.7200  138.6040 C   0  0  0  0  0  0  0  0  0  0  0  0
  190.5210  177.3820  137.5360 O   0  0  0  0  0  0  0  0  0  0  0  0
  190.6340  177.2090  139.8820 C   0  0  0  0  0  2  0  0  0  0  0  0
  190.1130  177.9590  141.1020 C   0  0  0  0  0  2  0  0  0  0  0  0
  190.1210  177.0610  142.3340 C   0  0  0  0  0  2  0  0  0  0  0  0
  189.2990  177.6110  143.3590 O   0  0  0  0  0  0  0  0  0  0  0  0
  187.7850  175.8630  143.3510 O   0  0  0  0  0  0  0  0  0  0  0  0
  188.1730  176.9500  143.8630 C   0  0  0  0  0  0  0  0  0  0  0  0
  186.0600  178.5680  147.1780 C   0  0  0  0  0  3  0  0  0  0  0  0
  188.0140  178.1400  148.5770 N   0  0  0  0  0  1  0  0  0  0  0  0
  185.4410  178.5120  145.9280 C   0  0  0  0  0  0  0  0  0  0  0  0
  188.0250  177.5870  146.2310 N   0  0  0  0  0  0  0  0  0  0  0  0
  184.1390  178.9740  145.7760 O   0  0  0  0  0  1  0  0  0  0  0  0
  187.3690  178.0950  147.3100 C   0  0  0  0  0  0  0  0  0  0  0  0
  187.4400  177.5220  145.0010 C   0  0  0  0  0  0  0  0  0  0  0  0
  186.1310  177.9900  144.8330 C   0  0  0  0  0  3  0  0  0  0  0  0
  1 16  1  0  0  0  0
  1  5  1  0  0  0  0
  2  5  1  0  0  0  0
  3  4  2  0  0  0  0
  3  6  1  0  0  0  0
  4 10  1  0  0  0  0
  5 42  1  6  0  0  0
  6  7  1  0  0  0  0
  6 11  1  0  0  0  0
  7  8  2  0  0  0  0
  9 38  1  0  0  0  0
  9  7  1  0  0  0  0
 10 11  2  0  0  0  0
 10  2  1  0  0  0  0
 11  1  1  0  0  0  0
 13 18  1  0  0  0  0
 14 13  1  0  0  0  0
 14 16  1  0  0  0  0
 15 17  1  1  0  0  0
 16 19  2  0  0  0  0
 17 12  2  0  0  0  0
 18 15  1  0  0  0  0
 19 15  1  0  0  0  0
 20 17  1  0  0  0  0
 20 21  1  0  0  0  0
 22  4  1  0  0  0  0
 23 22  3  0  0  0  0
 24 23  1  0  0  0  0
 24 27  1  0  0  0  0
 25 31  1  0  0  0  0
 25 28  1  0  0  0  0
 26 30  1  0  0  0  0
 27 26  2  0  0  0  0
 28 33  1  6  0  0  0
 28 29  1  0  0  0  0
 29 32  1  1  0  0  0
 29 30  1  0  0  0  0
 31 27  1  0  0  0  0
 33 34  1  0  0  0  0
 35 36  1  0  0  0  0
 35 34  1  0  0  0  0
 37 35  2  0  0  0  0
 38 39  1  0  0  0  0
 39 41  1  0  0  0  0
 41 40  1  0  0  0  0
 42 43  1  0  0  0  0
 44 43  1  0  0  0  0
 45 44  1  0  0  0  0
 45 47  1  0  0  0  0
 46 45  2  0  0  0  0
 47 48  1  0  0  0  0
 48 49  1  0  0  0  0
 49 50  1  0  0  0  0
 50 52  1  0  0  0  0
 51 52  2  0  0  0  0
 52 59  1  0  0  0  0
 53 58  1  0  0  0  0
 55 53  2  0  0  0  0
 56 58  2  0  0  0  0
 57 55  1  0  0  0  0
 58 54  1  0  0  0  0
 59 56  1  0  0  0  0
 60 59  2  0  0  0  0
 60 55  1  0  0  0  0
M  END
>  <MODEL>
5

>  <REMARK>
 VINA RESULT:      -6.3      2.950     10.592
  Name = 
  21 active torsions:
  status: ('A' for Active; 'I' for Inactive)
    1  A    between atoms: C_1  and  C_32
    2  A    between atoms: C_1  and  C_58
    3  A    between atoms: O_4  and  C_51
    4  A    between atoms: N_5  and  C_15
    5  A    between atoms: N_5  and  C_31
    6  A    between atoms: C_6  and  C_12
    7  A    between atoms: N_7  and  C_42
    8  A    between atoms: O_13  and  C_37
    9  A    between atoms: O_13  and  C_38
   10  A    between atoms: C_14  and  C_59
   11  A    between atoms: C_16  and  O_39
   12  A    between atoms: C_23  and  O_39
   13  A    between atoms: C_24  and  C_33
   14  A    between atoms: C_27  and  C_41
   15  A    between atoms: N_28  and  C_56
   16  A    between atoms: C_31  and  C_58
   17  A    between atoms: C_32  and  C_44
   18  A    between atoms: C_33  and  C_41
   19  A    between atoms: C_37  and  C_53
   20  A    between atoms: C_38  and  C_44
   21  A    between atoms: C_56  and  C_59
                            x       y       z     vdW  Elec       q    Type
                         _______ _______ _______ _____ _____    ______ ____

>  <TORSDO>
F 21

$$$$
=
 OpenBabel10232409213D

 60 64  0  0  1  0  0  0  0  0999 V2000
  189.2790  177.2970  142.2380 N   0  0  0  0  0  0  0  0  0  0  0  0
  188.8360  177.3090  139.8400 C   0  0  0  0  0  2  0  0  0  0  0  0
  185.9950  178.4190  141.7330 C   0  0  0  0  0  3  0  0  0  0  0  0
  186.5490  178.3910  140.4600 C   0  0  0  0  0  0  0  0  0  0  0  0
  189.8060  176.8070  140.9470 C   0  0  1  0  0  3  0  0  0  0  0  0
  186.9730  178.1780  142.6400 N   0  0  0  0  0  0  0  0  0  0  0  0
  186.7170  177.8700  144.0190 C   0  0  0  0  0  0  0  0  0  0  0  0
  187.5000  177.1250  144.6670 O   0  0  0  0  0  0  0  0  0  0  0  0
  185.5310  178.3700  144.6440 N   0  0  0  0  0  2  0  0  0  0  0  0
  187.8910  178.1470  140.6170 C   0  0  0  0  0  0  0  0  0  0  0  0
  188.1240  178.0660  141.9340 C   0  0  0  0  0  0  0  0  0  0  0  0
  191.7200  174.8340  146.0030 C   0  0  0  0  0  2  0  0  0  0  0  0
  191.3870  178.4550  144.9800 C   0  0  0  0  0  2  0  0  0  0  0  0
  190.5530  178.6310  143.8190 C   0  0  0  0  0  2  0  0  0  0  0  0
  191.3270  176.0580  145.2920 C   0  0  1  0  0  3  0  0  0  0  0  0
  190.0920  177.4390  143.4160 C   0  0  0  0  0  0  0  0  0  0  0  0
  191.9810  176.1590  146.1490 C   0  0  0  0  0  0  0  0  0  0  0  0
  191.3490  177.0320  145.1640 C   0  0  0  0  0  2  0  0  0  0  0  0
  190.5300  176.2450  144.1890 C   0  0  0  0  0  3  0  0  0  0  0  0
  192.8310  176.6020  147.2110 O   0  0  0  0  0  0  0  0  0  0  0  0
  192.7240  176.1150  148.5400 C   0  0  0  0  0  1  0  0  0  0  0  0
  185.8370  178.4390  139.2150 C   0  0  0  0  0  0  0  0  0  0  0  0
  185.2420  178.4370  138.1670 C   0  0  0  0  0  0  0  0  0  0  0  0
  184.5690  178.4020  136.9730 O   0  0  0  0  0  0  0  0  0  0  0  0
  183.0500  175.7380  135.2710 C   0  0  0  0  0  2  0  0  0  0  0  0
  182.5970  177.3670  137.8330 C   0  0  0  0  0  3  0  0  0  0  0  0
  183.3860  177.6750  136.7930 C   0  0  0  0  0  0  0  0  0  0  0  0
  181.7220  175.1280  135.7120 C   0  0  2  0  0  3  0  0  0  0  0  0
  181.5480  175.1760  137.2370 C   0  0  1  0  0  3  0  0  0  0  0  0
  181.3160  176.6040  137.7120 C   0  0  0  0  0  2  0  0  0  0  0  0
  183.0300  177.2550  135.4020 C   0  0  0  0  0  2  0  0  0  0  0  0
  180.4450  174.4090  137.6180 O   0  0  0  0  0  1  0  0  0  0  0  0
  181.6630  173.6930  135.2070 C   0  0  0  0  0  2  0  0  0  0  0  0
  182.8830  172.9130  135.6760 C   0  0  0  0  0  2  0  0  0  0  0  0
  182.4940  171.5660  136.1870 C   0  0  0  0  0  0  0  0  0  0  0  0
  183.2530  170.9500  136.9810 O   0  0  0  0  0  1  0  0  0  0  0  0
  181.2780  171.0040  135.8130 O   0  0  0  0  0  0  0  0  0  0  0  0
  185.2160  178.0890  146.0340 C   0  0  0  0  0  2  0  0  0  0  0  0
  186.0020  179.0280  146.9300 C   0  0  0  0  0  2  0  0  0  0  0  0
  188.2110  178.0730  147.5780 C   0  0  0  0  0  1  0  0  0  0  0  0
  186.7540  178.2450  147.9860 C   0  0  0  0  0  2  0  0  0  0  0  0
  191.1790  177.2670  140.6990 N   0  0  0  0  0  2  0  0  0  0  0  0
  191.4190  177.4540  139.2690 C   0  0  0  0  0  2  0  0  0  0  0  0
  192.3570  176.3730  138.7590 C   0  0  0  0  0  2  0  0  0  0  0  0
  191.8360  175.8070  137.4750 C   0  0  0  0  0  0  0  0  0  0  0  0
  191.7900  176.5140  136.4780 O   0  0  0  0  0  0  0  0  0  0  0  0
  191.4660  174.3550  137.3600 C   0  0  0  0  0  2  0  0  0  0  0  0
  192.0590  173.7100  136.1130 C   0  0  0  0  0  2  0  0  0  0  0  0
  193.5800  173.6540  136.2020 C   0  0  0  0  0  2  0  0  0  0  0  0
  194.0230  172.3090  136.3450 O   0  0  0  0  0  0  0  0  0  0  0  0
  195.0380  170.7470  137.7150 O   0  0  0  0  0  0  0  0  0  0  0  0
  195.0020  171.9280  137.2700 C   0  0  0  0  0  0  0  0  0  0  0  0
  197.9180  174.7300  138.5810 C   0  0  0  0  0  3  0  0  0  0  0  0
  199.3920  173.9680  136.7910 N   0  0  0  0  0  1  0  0  0  0  0  0
  196.6970  174.6420  139.2530 C   0  0  0  0  0  0  0  0  0  0  0  0
  197.1990  173.0110  137.0810 N   0  0  0  0  0  0  0  0  0  0  0  0
  196.4460  175.4590  140.3480 O   0  0  0  0  0  1  0  0  0  0  0  0
  198.1520  173.8960  137.4840 C   0  0  0  0  0  0  0  0  0  0  0  0
  196.0000  172.9080  137.7220 C   0  0  0  0  0  0  0  0  0  0  0  0
  195.7320  173.7300  138.8230 C   0  0  0  0  0  3  0  0  0  0  0  0
  1 16  1  0  0  0  0
  2 10  1  0  0  0  0
  2  5  1  0  0  0  0
  3  6  1  0  0  0  0
  4 10  1  0  0  0  0
  4  3  2  0  0  0  0
  5 42  1  6  0  0  0
  5  1  1  0  0  0  0
  6  7  1  0  0  0  0
  7  9  1  0  0  0  0
  7  8  2  0  0  0  0
  9 38  1  0  0  0  0
 10 11  2  0  0  0  0
 11  1  1  0  0  0  0
 11  6  1  0  0  0  0
 12 17  2  0  0  0  0
 13 18  1  0  0  0  0
 14 13  1  0  0  0  0
 15 17  1  6  0  0  0
 16 14  1  0  0  0  0
 16 19  2  0  0  0  0
 17 20  1  0  0  0  0
 18 15  1  0  0  0  0
 19 15  1  0  0  0  0
 20 21  1  0  0  0  0
 22  4  1  0  0  0  0
 23 22  3  0  0  0  0
 24 23  1  0  0  0  0
 25 31  1  0  0  0  0
 25 28  1  0  0  0  0
 27 24  1  0  0  0  0
 27 26  2  0  0  0  0
 28 33  1  1  0  0  0
 28 29  1  0  0  0  0
 29 32  1  6  0  0  0
 29 30  1  0  0  0  0
 30 26  1  0  0  0  0
 31 27  1  0  0  0  0
 33 34  1  0  0  0  0
 34 35  1  0  0  0  0
 35 36  1  0  0  0  0
 37 35  2  0  0  0  0
 38 39  1  0  0  0  0
 39 41  1  0  0  0  0
 40 41  1  0  0  0  0
 43 42  1  0  0  0  0
 44 43  1  0  0  0  0
 45 44  1  0  0  0  0
 46 45  2  0  0  0  0
 47 45  1  0  0  0  0
 48 49  1  0  0  0  0
 48 47  1  0  0  0  0
 49 50  1  0  0  0  0
 50 52  1  0  0  0  0
 52 51  2  0  0  0  0
 52 59  1  0  0  0  0
 53 55  1  0  0  0  0
 54 58  1  0  0  0  0
 55 57  1  0  0  0  0
 56 58  1  0  0  0  0
 56 59  2  0  0  0  0
 58 53  2  0  0  0  0
 59 60  1  0  0  0  0
 60 55  2  0  0  0  0
M  END
>  <MODEL>
6

>  <REMARK>
 VINA RESULT:      -6.2      2.594      9.979
  Name = 
  21 active torsions:
  status: ('A' for Active; 'I' for Inactive)
    1  A    between atoms: C_1  and  C_32
    2  A    between atoms: C_1  and  C_58
    3  A    between atoms: O_4  and  C_51
    4  A    between atoms: N_5  and  C_15
    5  A    between atoms: N_5  and  C_31
    6  A    between atoms: C_6  and  C_12
    7  A    between atoms: N_7  and  C_42
    8  A    between atoms: O_13  and  C_37
    9  A    between atoms: O_13  and  C_38
   10  A    between atoms: C_14  and  C_59
   11  A    between atoms: C_16  and  O_39
   12  A    between atoms: C_23  and  O_39
   13  A    between atoms: C_24  and  C_33
   14  A    between atoms: C_27  and  C_41
   15  A    between atoms: N_28  and  C_56
   16  A    between atoms: C_31  and  C_58
   17  A    between atoms: C_32  and  C_44
   18  A    between atoms: C_33  and  C_41
   19  A    between atoms: C_37  and  C_53
   20  A    between atoms: C_38  and  C_44
   21  A    between atoms: C_56  and  C_59
                            x       y       z     vdW  Elec       q    Type
                         _______ _______ _______ _____ _____    ______ ____

>  <TORSDO>
F 21

$$$$
=
 OpenBabel10232409213D

 60 64  0  0  1  0  0  0  0  0999 V2000
  188.6970  177.6150  142.2590 N   0  0  0  0  0  0  0  0  0  0  0  0
  187.8810  177.7620  139.9660 C   0  0  0  0  0  2  0  0  0  0  0  0
  185.3680  178.7180  142.3450 C   0  0  0  0  0  3  0  0  0  0  0  0
  185.7160  178.7730  141.0010 C   0  0  0  0  0  0  0  0  0  0  0  0
  189.0160  177.2100  140.8740 C   0  0  1  0  0  3  0  0  0  0  0  0
  186.4790  178.4380  143.0710 N   0  0  0  0  0  0  0  0  0  0  0  0
  186.4440  178.0450  144.4520 C   0  0  0  0  0  0  0  0  0  0  0  0
  187.3230  177.2740  144.9220 O   0  0  0  0  0  0  0  0  0  0  0  0
  185.3690  178.4900  145.2850 N   0  0  0  0  0  2  0  0  0  0  0  0
  187.0670  178.5400  140.9310 C   0  0  0  0  0  0  0  0  0  0  0  0
  187.5050  178.3840  142.1870 C   0  0  0  0  0  0  0  0  0  0  0  0
  190.2230  175.7680  146.7830 C   0  0  0  0  0  2  0  0  0  0  0  0
  191.6010  178.3120  144.3530 C   0  0  0  0  0  2  0  0  0  0  0  0
  190.7620  178.4870  143.1950 C   0  0  0  0  0  2  0  0  0  0  0  0
  190.3820  176.6520  145.6190 C   0  0  1  0  0  3  0  0  0  0  0  0
  189.6840  177.6980  143.3010 C   0  0  0  0  0  0  0  0  0  0  0  0
  191.1510  176.6750  146.3810 C   0  0  0  0  0  0  0  0  0  0  0  0
  190.8750  177.3270  145.1040 C   0  0  0  0  0  2  0  0  0  0  0  0
  189.5920  176.8350  144.5110 C   0  0  0  0  0  3  0  0  0  0  0  0
  192.3010  176.9230  147.1950 O   0  0  0  0  0  0  0  0  0  0  0  0
  192.7390  176.0280  148.2060 C   0  0  0  0  0  1  0  0  0  0  0  0
  184.8160  178.8840  139.8890 C   0  0  0  0  0  0  0  0  0  0  0  0
  184.0900  178.9630  138.9300 C   0  0  0  0  0  0  0  0  0  0  0  0
  183.2890  179.0380  137.8200 O   0  0  0  0  0  0  0  0  0  0  0  0
  183.5590  175.8760  136.3280 C   0  0  0  0  0  2  0  0  0  0  0  0
  181.4930  177.4710  137.9440 C   0  0  0  0  0  3  0  0  0  0  0  0
  182.5840  177.9370  137.3200 C   0  0  0  0  0  0  0  0  0  0  0  0
  182.3950  174.8890  136.2710 C   0  0  2  0  0  3  0  0  0  0  0  0
  181.4820  175.0100  137.5000 C   0  0  1  0  0  3  0  0  0  0  0  0
  180.6870  176.3070  137.4600 C   0  0  0  0  0  2  0  0  0  0  0  0
  183.0870  177.2990  136.0620 C   0  0  0  0  0  2  0  0  0  0  0  0
  180.5750  173.9480  137.5290 O   0  0  0  0  0  1  0  0  0  0  0  0
  182.9660  173.4820  136.1580 C   0  0  0  0  0  2  0  0  0  0  0  0
  183.8410  173.1640  137.3620 C   0  0  0  0  0  2  0  0  0  0  0  0
  185.0840  172.4490  136.9470 C   0  0  0  0  0  0  0  0  0  0  0  0
  185.0110  171.4570  136.1750 O   0  0  0  0  0  0  0  0  0  0  0  0
  186.3240  172.8980  137.3860 O   0  0  0  0  0  1  0  0  0  0  0  0
  185.2780  178.1220  146.6870 C   0  0  0  0  0  2  0  0  0  0  0  0
  186.4040  178.7870  147.4570 C   0  0  0  0  0  2  0  0  0  0  0  0
  188.4860  178.4120  148.7750 C   0  0  0  0  0  1  0  0  0  0  0  0
  187.3950  177.7500  147.9450 C   0  0  0  0  0  2  0  0  0  0  0  0
  190.3310  177.7030  140.4420 N   0  0  0  0  0  2  0  0  0  0  0  0
  190.5210  177.5030  139.0070 C   0  0  0  0  0  2  0  0  0  0  0  0
  191.2530  176.1940  138.7620 C   0  0  0  0  0  2  0  0  0  0  0  0
  192.6340  176.4690  138.2500 C   0  0  0  0  0  0  0  0  0  0  0  0
  193.4670  176.9620  138.9970 O   0  0  0  0  0  0  0  0  0  0  0  0
  193.0460  176.0510  136.8670 C   0  0  0  0  0  2  0  0  0  0  0  0
  194.2450  175.1110  136.8860 C   0  0  0  0  0  2  0  0  0  0  0  0
  193.9470  173.8670  137.7150 C   0  0  0  0  0  2  0  0  0  0  0  0
  195.0600  172.9790  137.7040 O   0  0  0  0  0  0  0  0  0  0  0  0
  194.8670  171.9810  135.6270 O   0  0  0  0  0  0  0  0  0  0  0  0
  195.6110  172.4700  136.5230 C   0  0  0  0  0  0  0  0  0  0  0  0
  199.8140  172.6090  135.9000 C   0  0  0  0  0  3  0  0  0  0  0  0
  199.6930  175.0470  135.9180 N   0  0  0  0  0  1  0  0  0  0  0  0
  199.1730  171.3720  135.9960 C   0  0  0  0  0  0  0  0  0  0  0  0
  197.7130  173.7050  136.2230 N   0  0  0  0  0  0  0  0  0  0  0  0
  199.9060  170.1980  135.8780 O   0  0  0  0  0  1  0  0  0  0  0  0
  199.0570  173.7780  136.0180 C   0  0  0  0  0  0  0  0  0  0  0  0
  197.0660  172.5090  136.3200 C   0  0  0  0  0  0  0  0  0  0  0  0
  197.7950  171.3190  136.2090 C   0  0  0  0  0  3  0  0  0  0  0  0
  1 16  1  0  0  0  0
  2  5  1  0  0  0  0
  2 10  1  0  0  0  0
  3  6  1  0  0  0  0
  4  3  2  0  0  0  0
  5 42  1  6  0  0  0
  5  1  1  0  0  0  0
  6  7  1  0  0  0  0
  7  8  2  0  0  0  0
  7  9  1  0  0  0  0
  9 38  1  0  0  0  0
 10  4  1  0  0  0  0
 10 11  2  0  0  0  0
 11  1  1  0  0  0  0
 11  6  1  0  0  0  0
 13 18  1  0  0  0  0
 14 16  1  0  0  0  0
 14 13  1  0  0  0  0
 15 17  1  6  0  0  0
 16 19  2  0  0  0  0
 17 12  2  0  0  0  0
 17 20  1  0  0  0  0
 18 15  1  0  0  0  0
 19 15  1  0  0  0  0
 20 21  1  0  0  0  0
 22  4  1  0  0  0  0
 23 22  3  0  0  0  0
 24 23  1  0  0  0  0
 27 24  1  0  0  0  0
 27 26  2  0  0  0  0
 28 33  1  1  0  0  0
 28 25  1  0  0  0  0
 28 29  1  0  0  0  0
 29 32  1  6  0  0  0
 30 29  1  0  0  0  0
 30 26  1  0  0  0  0
 31 25  1  0  0  0  0
 31 27  1  0  0  0  0
 33 34  1  0  0  0  0
 35 34  1  0  0  0  0
 35 37  1  0  0  0  0
 36 35  2  0  0  0  0
 38 39  1  0  0  0  0
 39 41  1  0  0  0  0
 41 40  1  0  0  0  0
 43 42  1  0  0  0  0
 44 43  1  0  0  0  0
 45 44  1  0  0  0  0
 45 46  2  0  0  0  0
 47 48  1  0  0  0  0
 47 45  1  0  0  0  0
 48 49  1  0  0  0  0
 50 49  1  0  0  0  0
 51 52  2  0  0  0  0
 52 50  1  0  0  0  0
 53 55  2  0  0  0  0
 53 58  1  0  0  0  0
 54 58  1  0  0  0  0
 55 60  1  0  0  0  0
 56 59  1  0  0  0  0
 57 55  1  0  0  0  0
 58 56  2  0  0  0  0
 59 52  1  0  0  0  0
 60 59  2  0  0  0  0
M  END
>  <MODEL>
7

>  <REMARK>
 VINA RESULT:      -6.2      2.580     10.778
  Name = 
  21 active torsions:
  status: ('A' for Active; 'I' for Inactive)
    1  A    between atoms: C_1  and  C_32
    2  A    between atoms: C_1  and  C_58
    3  A    between atoms: O_4  and  C_51
    4  A    between atoms: N_5  and  C_15
    5  A    between atoms: N_5  and  C_31
    6  A    between atoms: C_6  and  C_12
    7  A    between atoms: N_7  and  C_42
    8  A    between atoms: O_13  and  C_37
    9  A    between atoms: O_13  and  C_38
   10  A    between atoms: C_14  and  C_59
   11  A    between atoms: C_16  and  O_39
   12  A    between atoms: C_23  and  O_39
   13  A    between atoms: C_24  and  C_33
   14  A    between atoms: C_27  and  C_41
   15  A    between atoms: N_28  and  C_56
   16  A    between atoms: C_31  and  C_58
   17  A    between atoms: C_32  and  C_44
   18  A    between atoms: C_33  and  C_41
   19  A    between atoms: C_37  and  C_53
   20  A    between atoms: C_38  and  C_44
   21  A    between atoms: C_56  and  C_59
                            x       y       z     vdW  Elec       q    Type
                         _______ _______ _______ _____ _____    ______ ____

>  <TORSDO>
F 21

$$$$
=
 OpenBabel10232409213D

 60 64  0  0  1  0  0  0  0  0999 V2000
  188.6530  177.6060  142.3490 N   0  0  0  0  0  0  0  0  0  0  0  0
  187.8530  177.7530  140.0510 C   0  0  0  0  0  2  0  0  0  0  0  0
  185.3360  178.7430  142.4100 C   0  0  0  0  0  3  0  0  0  0  0  0
  185.6920  178.7900  141.0680 C   0  0  0  0  0  0  0  0  0  0  0  0
  188.9760  177.1930  140.9680 C   0  0  1  0  0  3  0  0  0  0  0  0
  186.4390  178.4550  143.1440 N   0  0  0  0  0  0  0  0  0  0  0  0
  186.3910  178.0680  144.5270 C   0  0  0  0  0  0  0  0  0  0  0  0
  187.2590  177.2900  145.0050 O   0  0  0  0  0  0  0  0  0  0  0  0
  185.3160  178.5270  145.3510 N   0  0  0  0  0  2  0  0  0  0  0  0
  187.0410  178.5420  141.0080 C   0  0  0  0  0  0  0  0  0  0  0  0
  187.4690  178.3870  142.2670 C   0  0  0  0  0  0  0  0  0  0  0  0
  190.0810  175.8300  146.9330 C   0  0  0  0  0  2  0  0  0  0  0  0
  191.5630  178.2600  144.4490 C   0  0  0  0  0  2  0  0  0  0  0  0
  190.7400  178.4320  143.2800 C   0  0  0  0  0  2  0  0  0  0  0  0
  190.2780  176.6770  145.7480 C   0  0  1  0  0  3  0  0  0  0  0  0
  189.6340  177.6830  143.3980 C   0  0  0  0  0  0  0  0  0  0  0  0
  191.0420  176.6940  146.5160 C   0  0  0  0  0  0  0  0  0  0  0  0
  190.7980  177.3210  145.2190 C   0  0  0  0  0  2  0  0  0  0  0  0
  189.5030  176.8570  144.6290 C   0  0  0  0  0  3  0  0  0  0  0  0
  192.1930  176.9240  147.3320 O   0  0  0  0  0  0  0  0  0  0  0  0
  192.7310  175.9410  148.2040 C   0  0  0  0  0  1  0  0  0  0  0  0
  184.8000  178.9060  139.9500 C   0  0  0  0  0  0  0  0  0  0  0  0
  184.0770  178.9790  138.9890 C   0  0  0  0  0  0  0  0  0  0  0  0
  183.2760  179.0420  137.8790 O   0  0  0  0  0  0  0  0  0  0  0  0
  183.7910  175.8830  136.4450 C   0  0  0  0  0  2  0  0  0  0  0  0
  181.5330  177.4110  137.8540 C   0  0  0  0  0  3  0  0  0  0  0  0
  182.6580  177.9130  137.3260 C   0  0  0  0  0  0  0  0  0  0  0  0
  182.6730  174.8540  136.2920 C   0  0  2  0  0  3  0  0  0  0  0  0
  181.6490  174.9490  137.4320 C   0  0  1  0  0  3  0  0  0  0  0  0
  180.8150  176.2170  137.3090 C   0  0  0  0  0  2  0  0  0  0  0  0
  183.2950  177.2870  136.1250 C   0  0  0  0  0  2  0  0  0  0  0  0
  180.7820  173.8550  137.3890 O   0  0  0  0  0  1  0  0  0  0  0  0
  183.3010  173.4680  136.2440 C   0  0  0  0  0  2  0  0  0  0  0  0
  184.2380  173.2670  137.4260 C   0  0  0  0  0  2  0  0  0  0  0  0
  185.5900  172.8270  136.9680 C   0  0  0  0  0  0  0  0  0  0  0  0
  185.7040  171.8210  136.2180 O   0  0  0  0  0  0  0  0  0  0  0  0
  186.7190  173.5450  137.3430 O   0  0  0  0  0  1  0  0  0  0  0  0
  185.2120  178.1660  146.7540 C   0  0  0  0  0  2  0  0  0  0  0  0
  186.1190  179.0640  147.5740 C   0  0  0  0  0  2  0  0  0  0  0  0
  187.8970  178.0380  148.9870 C   0  0  0  0  0  1  0  0  0  0  0  0
  187.5320  178.5170  147.5890 C   0  0  0  0  0  2  0  0  0  0  0  0
  190.2990  177.6710  140.5420 N   0  0  0  0  0  2  0  0  0  0  0  0
  190.4890  177.4800  139.1060 C   0  0  0  0  0  2  0  0  0  0  0  0
  191.2170  176.1700  138.8530 C   0  0  0  0  0  2  0  0  0  0  0  0
  192.4220  176.4120  137.9980 C   0  0  0  0  0  0  0  0  0  0  0  0
  193.4770  176.7400  138.5210 O   0  0  0  0  0  0  0  0  0  0  0  0
  192.3880  176.1540  136.5180 C   0  0  0  0  0  2  0  0  0  0  0  0
  192.8860  174.7570  136.1670 C   0  0  0  0  0  2  0  0  0  0  0  0
  194.3060  174.8100  135.6150 C   0  0  0  0  0  2  0  0  0  0  0  0
  195.2260  174.2500  136.5460 O   0  0  0  0  0  0  0  0  0  0  0  0
  197.2150  173.3650  135.7700 O   0  0  0  0  0  0  0  0  0  0  0  0
  196.0570  173.1690  136.2340 C   0  0  0  0  0  0  0  0  0  0  0  0
  194.6460  169.2060  136.8460 C   0  0  0  0  0  3  0  0  0  0  0  0
  194.3050  169.0010  134.4380 N   0  0  0  0  0  1  0  0  0  0  0  0
  195.0510  169.9690  137.9430 C   0  0  0  0  0  0  0  0  0  0  0  0
  195.1810  171.0320  135.3970 N   0  0  0  0  0  0  0  0  0  0  0  0
  194.9830  169.4360  139.2240 O   0  0  0  0  0  1  0  0  0  0  0  0
  194.7190  169.7630  135.5660 C   0  0  0  0  0  0  0  0  0  0  0  0
  195.5820  171.7960  136.4530 C   0  0  0  0  0  0  0  0  0  0  0  0
  195.5240  171.2680  137.7490 C   0  0  0  0  0  3  0  0  0  0  0  0
  1 16  1  0  0  0  0
  2  5  1  0  0  0  0
  2 10  1  0  0  0  0
  3  6  1  0  0  0  0
  4  3  2  0  0  0  0
  5 42  1  6  0  0  0
  5  1  1  0  0  0  0
  6  7  1  0  0  0  0
  7  8  2  0  0  0  0
  7  9  1  0  0  0  0
  9 38  1  0  0  0  0
 10  4  1  0  0  0  0
 10 11  2  0  0  0  0
 11  1  1  0  0  0  0
 11  6  1  0  0  0  0
 13 18  1  0  0  0  0
 14 16  1  0  0  0  0
 14 13  1  0  0  0  0
 15 17  1  6  0  0  0
 16 19  2  0  0  0  0
 17 12  2  0  0  0  0
 17 20  1  0  0  0  0
 18 15  1  0  0  0  0
 19 15  1  0  0  0  0
 20 21  1  0  0  0  0
 22  4  1  0  0  0  0
 23 22  3  0  0  0  0
 24 23  1  0  0  0  0
 27 26  2  0  0  0  0
 27 24  1  0  0  0  0
 28 33  1  1  0  0  0
 28 25  1  0  0  0  0
 28 29  1  0  0  0  0
 29 32  1  6  0  0  0
 30 29  1  0  0  0  0
 30 26  1  0  0  0  0
 31 25  1  0  0  0  0
 31 27  1  0  0  0  0
 33 34  1  0  0  0  0
 35 37  1  0  0  0  0
 35 34  1  0  0  0  0
 36 35  2  0  0  0  0
 38 39  1  0  0  0  0
 39 41  1  0  0  0  0
 41 40  1  0  0  0  0
 43 42  1  0  0  0  0
 44 43  1  0  0  0  0
 45 46  2  0  0  0  0
 45 44  1  0  0  0  0
 47 45  1  0  0  0  0
 48 47  1  0  0  0  0
 49 48  1  0  0  0  0
 49 50  1  0  0  0  0
 51 52  2  0  0  0  0
 52 59  1  0  0  0  0
 52 50  1  0  0  0  0
 53 55  1  0  0  0  0
 54 58  1  0  0  0  0
 55 57  1  0  0  0  0
 56 58  1  0  0  0  0
 56 59  2  0  0  0  0
 58 53  2  0  0  0  0
 59 60  1  0  0  0  0
 60 55  2  0  0  0  0
M  END
>  <MODEL>
8

>  <REMARK>
 VINA RESULT:      -6.2      2.293     10.484
  Name = 
  21 active torsions:
  status: ('A' for Active; 'I' for Inactive)
    1  A    between atoms: C_1  and  C_32
    2  A    between atoms: C_1  and  C_58
    3  A    between atoms: O_4  and  C_51
    4  A    between atoms: N_5  and  C_15
    5  A    between atoms: N_5  and  C_31
    6  A    between atoms: C_6  and  C_12
    7  A    between atoms: N_7  and  C_42
    8  A    between atoms: O_13  and  C_37
    9  A    between atoms: O_13  and  C_38
   10  A    between atoms: C_14  and  C_59
   11  A    between atoms: C_16  and  O_39
   12  A    between atoms: C_23  and  O_39
   13  A    between atoms: C_24  and  C_33
   14  A    between atoms: C_27  and  C_41
   15  A    between atoms: N_28  and  C_56
   16  A    between atoms: C_31  and  C_58
   17  A    between atoms: C_32  and  C_44
   18  A    between atoms: C_33  and  C_41
   19  A    between atoms: C_37  and  C_53
   20  A    between atoms: C_38  and  C_44
   21  A    between atoms: C_56  and  C_59
                            x       y       z     vdW  Elec       q    Type
                         _______ _______ _______ _____ _____    ______ ____

>  <TORSDO>
F 21

$$$$
=
 OpenBabel10232409213D

 60 64  0  0  1  0  0  0  0  0999 V2000
  188.2930  178.0430  140.2800 N   0  0  0  0  0  0  0  0  0  0  0  0
  189.1550  177.4320  138.0830 C   0  0  0  0  0  2  0  0  0  0  0  0
  191.5600  176.8280  140.6800 C   0  0  0  0  0  3  0  0  0  0  0  0
  191.2420  176.5380  139.3590 C   0  0  0  0  0  0  0  0  0  0  0  0
  188.0280  178.1940  138.8350 C   0  0  1  0  0  3  0  0  0  0  0  0
  190.4480  177.2890  141.3040 N   0  0  0  0  0  0  0  0  0  0  0  0
  190.4680  177.9320  142.5890 C   0  0  0  0  0  0  0  0  0  0  0  0
  189.6180  178.8150  142.8780 O   0  0  0  0  0  0  0  0  0  0  0  0
  191.5000  177.6030  143.5240 N   0  0  0  0  0  2  0  0  0  0  0  0
  189.9070  176.8140  139.2020 C   0  0  0  0  0  0  0  0  0  0  0  0
  189.4470  177.2210  140.3930 C   0  0  0  0  0  0  0  0  0  0  0  0
  186.9870  177.1020  145.1400 C   0  0  0  0  0  2  0  0  0  0  0  0
  185.3740  178.9520  142.2690 C   0  0  0  0  0  2  0  0  0  0  0  0
  186.1670  178.9150  141.0660 C   0  0  0  0  0  2  0  0  0  0  0  0
  186.7280  177.6760  143.8120 C   0  0  1  0  0  3  0  0  0  0  0  0
  187.2790  178.2000  141.2870 C   0  0  0  0  0  0  0  0  0  0  0  0
  185.9880  177.8390  144.5870 C   0  0  0  0  0  0  0  0  0  0  0  0
  186.1790  178.1940  143.1830 C   0  0  0  0  0  2  0  0  0  0  0  0
  187.4680  177.6460  142.6560 C   0  0  0  0  0  3  0  0  0  0  0  0
  184.8600  178.2150  145.3810 O   0  0  0  0  0  0  0  0  0  0  0  0
  184.8500  178.1290  146.7980 C   0  0  0  0  0  1  0  0  0  0  0  0
  192.1620  176.1800  138.3180 C   0  0  0  0  0  0  0  0  0  0  0  0
  192.9120  175.8450  137.4350 C   0  0  0  0  0  0  0  0  0  0  0  0
  193.7450  175.4370  136.4270 O   0  0  0  0  0  0  0  0  0  0  0  0
  195.5030  172.5230  137.2740 C   0  0  0  0  0  2  0  0  0  0  0  0
  196.0660  175.2150  135.9120 C   0  0  0  0  0  3  0  0  0  0  0  0
  195.0080  174.8820  136.6660 C   0  0  0  0  0  0  0  0  0  0  0  0
  197.0120  172.3840  137.0800 C   0  0  2  0  0  3  0  0  0  0  0  0
  197.5060  173.1720  135.8590 C   0  0  1  0  0  3  0  0  0  0  0  0
  197.4440  174.6710  136.1190 C   0  0  0  0  0  2  0  0  0  0  0  0
  195.1400  173.9070  137.7940 C   0  0  0  0  0  2  0  0  0  0  0  0
  198.8330  172.8370  135.5780 O   0  0  0  0  0  1  0  0  0  0  0  0
  197.3420  170.9040  136.9390 C   0  0  0  0  0  2  0  0  0  0  0  0
  196.3970  170.0640  137.7870 C   0  0  0  0  0  2  0  0  0  0  0  0
  196.7350  168.6140  137.6860 C   0  0  0  0  0  0  0  0  0  0  0  0
  196.6340  168.0190  136.5800 O   0  0  0  0  0  0  0  0  0  0  0  0
  197.1900  167.9260  138.8050 O   0  0  0  0  0  1  0  0  0  0  0  0
  191.5750  178.2230  144.8360 C   0  0  0  0  0  2  0  0  0  0  0  0
  190.6860  177.4650  145.8040 C   0  0  0  0  0  2  0  0  0  0  0  0
  191.9970  175.5170  146.6410 C   0  0  0  0  0  1  0  0  0  0  0  0
  191.5030  176.9220  146.9580 C   0  0  0  0  0  2  0  0  0  0  0  0
  186.7010  177.6870  138.4590 N   0  0  0  0  0  2  0  0  0  0  0  0
  186.1520  178.4380  137.3320 C   0  0  0  0  0  2  0  0  0  0  0  0
  184.9510  177.7040  136.7600 C   0  0  0  0  0  2  0  0  0  0  0  0
  185.3160  177.0600  135.4590 C   0  0  0  0  0  0  0  0  0  0  0  0
  186.4910  176.9970  135.1250 O   0  0  0  0  0  0  0  0  0  0  0  0
  184.2760  176.3940  134.6030 C   0  0  0  0  0  2  0  0  0  0  0  0
  183.7230  175.1310  135.2510 C   0  0  0  0  0  2  0  0  0  0  0  0
  184.5980  173.9260  134.9240 C   0  0  0  0  0  2  0  0  0  0  0  0
  184.6360  173.0220  136.0230 O   0  0  0  0  0  0  0  0  0  0  0  0
  185.6120  172.7960  138.1070 O   0  0  0  0  0  0  0  0  0  0  0  0
  185.7530  172.8880  136.8560 C   0  0  0  0  0  0  0  0  0  0  0  0
  189.6590  172.7370  135.1860 C   0  0  0  0  0  3  0  0  0  0  0  0
  189.2880  170.3870  134.6400 N   0  0  0  0  0  1  0  0  0  0  0  0
  189.1920  173.9320  135.7350 C   0  0  0  0  0  0  0  0  0  0  0  0
  187.5780  171.6910  135.7270 N   0  0  0  0  0  0  0  0  0  0  0  0
  190.0050  175.0590  135.7440 O   0  0  0  0  0  1  0  0  0  0  0  0
  188.8270  171.6140  135.1910 C   0  0  0  0  0  0  0  0  0  0  0  0
  187.1000  172.8480  136.2690 C   0  0  0  0  0  0  0  0  0  0  0  0
  187.9070  173.9920  136.2780 C   0  0  0  0  0  3  0  0  0  0  0  0
  1 11  1  0  0  0  0
  1 16  1  0  0  0  0
  2  5  1  0  0  0  0
  2 10  1  0  0  0  0
  3  6  1  0  0  0  0
  4  3  2  0  0  0  0
  5 42  1  1  0  0  0
  5  1  1  0  0  0  0
  6  7  1  0  0  0  0
  7  8  2  0  0  0  0
  7  9  1  0  0  0  0
  9 38  1  0  0  0  0
 10  4  1  0  0  0  0
 10 11  2  0  0  0  0
 11  6  1  0  0  0  0
 13 18  1  0  0  0  0
 14 16  1  0  0  0  0
 14 13  1  0  0  0  0
 15 17  1  1  0  0  0
 16 19  2  0  0  0  0
 17 12  2  0  0  0  0
 17 20  1  0  0  0  0
 18 15  1  0  0  0  0
 19 15  1  0  0  0  0
 20 21  1  0  0  0  0
 22  4  1  0  0  0  0
 23 22  3  0  0  0  0
 24 27  1  0  0  0  0
 24 23  1  0  0  0  0
 25 31  1  0  0  0  0
 26 30  1  0  0  0  0
 26 27  2  0  0  0  0
 27 31  1  0  0  0  0
 28 33  1  6  0  0  0
 28 25  1  0  0  0  0
 29 32  1  1  0  0  0
 29 30  1  0  0  0  0
 29 28  1  0  0  0  0
 33 34  1  0  0  0  0
 35 34  1  0  0  0  0
 35 37  1  0  0  0  0
 36 35  2  0  0  0  0
 38 39  1  0  0  0  0
 39 41  1  0  0  0  0
 40 41  1  0  0  0  0
 43 42  1  0  0  0  0
 44 43  1  0  0  0  0
 45 44  1  0  0  0  0
 46 45  2  0  0  0  0
 47 48  1  0  0  0  0
 47 45  1  0  0  0  0
 49 48  1  0  0  0  0
 49 50  1  0  0  0  0
 50 52  1  0  0  0  0
 52 51  2  0  0  0  0
 53 58  2  0  0  0  0
 53 55  1  0  0  0  0
 54 58  1  0  0  0  0
 55 57  1  0  0  0  0
 55 60  2  0  0  0  0
 56 59  2  0  0  0  0
 58 56  1  0  0  0  0
 59 60  1  0  0  0  0
 59 52  1  0  0  0  0
M  END
>  <MODEL>
9

>  <REMARK>
 VINA RESULT:      -6.2      2.770     11.825
  Name = 
  21 active torsions:
  status: ('A' for Active; 'I' for Inactive)
    1  A    between atoms: C_1  and  C_32
    2  A    between atoms: C_1  and  C_58
    3  A    between atoms: O_4  and  C_51
    4  A    between atoms: N_5  and  C_15
    5  A    between atoms: N_5  and  C_31
    6  A    between atoms: C_6  and  C_12
    7  A    between atoms: N_7  and  C_42
    8  A    between atoms: O_13  and  C_37
    9  A    between atoms: O_13  and  C_38
   10  A    between atoms: C_14  and  C_59
   11  A    between atoms: C_16  and  O_39
   12  A    between atoms: C_23  and  O_39
   13  A    between atoms: C_24  and  C_33
   14  A    between atoms: C_27  and  C_41
   15  A    between atoms: N_28  and  C_56
   16  A    between atoms: C_31  and  C_58
   17  A    between atoms: C_32  and  C_44
   18  A    between atoms: C_33  and  C_41
   19  A    between atoms: C_37  and  C_53
   20  A    between atoms: C_38  and  C_44
   21  A    between atoms: C_56  and  C_59
                            x       y       z     vdW  Elec       q    Type
                         _______ _______ _______ _____ _____    ______ ____

>  <TORSDO>
F 21

$$$$
