=
 OpenBabel10232408343D

 41 46  0  0  1  0  0  0  0  0999 V2000
  186.6590  174.9400  135.9720 O   0  0  0  0  0  0  0  0  0  0  0  0
  184.8260  175.2410  134.3880 N   0  0  0  0  0  1  0  0  0  0  0  0
  187.6060  175.4370  136.8840 C   0  0  0  0  0  0  0  0  0  0  0  0
  192.4700  175.2530  137.3840 C   0  0  0  0  0  3  0  0  0  0  0  0
  191.2320  174.6670  137.0900 C   0  0  0  0  0  0  0  0  0  0  0  0
  185.5100  177.0030  135.8380 C   0  0  0  0  0  3  0  0  0  0  0  0
  192.5550  176.3940  138.1650 C   0  0  0  0  0  3  0  0  0  0  0  0
  190.0270  175.2580  137.5910 C   0  0  0  0  0  0  0  0  0  0  0  0
  186.3450  177.5240  136.9330 C   0  0  0  0  0  0  0  0  0  0  0  0
  187.8260  177.1390  138.7950 C   0  0  0  0  0  3  0  0  0  0  0  0
  189.0240  176.8860  139.3080 C   0  0  0  0  0  0  0  0  0  0  0  0
  188.7760  173.3560  136.5040 C   0  0  0  0  0  0  0  0  0  0  0  0
  185.6670  175.7520  135.4150 C   0  0  0  0  0  0  0  0  0  0  0  0
  188.7170  174.6960  137.1160 C   0  0  0  0  0  0  0  0  0  0  0  0
  191.4030  176.9230  138.7260 C   0  0  0  0  0  3  0  0  0  0  0  0
  189.9400  173.0160  135.6520 C   0  0  0  0  0  2  0  0  0  0  0  0
  185.9050  179.0980  137.5910 Cl  0  0  0  0  0  0  0  0  0  0  0  0
  187.3360  176.7780  137.4660 C   0  0  0  0  0  0  0  0  0  0  0  0
  187.8350  172.5280  136.6460 O   0  0  0  0  0  0  0  0  0  0  0  0
  190.1420  176.3520  138.4950 C   0  0  0  0  0  0  0  0  0  0  0  0
  191.2300  173.3090  136.3950 C   0  0  1  0  0  3  0  0  0  0  0  0
  189.5680  176.2540  141.6940 N   0  0  0  0  0  2  0  0  0  0  0  0
  189.2470  177.2650  140.7270 C   0  0  0  0  0  0  0  0  0  0  0  0
  189.1170  178.4700  141.0840 O   0  0  0  0  0  0  0  0  0  0  0  0
  189.2060  176.8960  145.3780 C   0  0  0  0  0  3  0  0  0  0  0  0
  191.5480  176.6190  144.8310 C   0  0  0  0  0  3  0  0  0  0  0  0
  191.2110  176.4200  143.4880 C   0  0  0  0  0  3  0  0  0  0  0  0
  190.5450  176.8490  145.7780 C   0  0  0  0  0  0  0  0  0  0  0  0
  189.8720  176.4540  143.0820 C   0  0  0  0  0  0  0  0  0  0  0  0
  188.8710  176.6960  144.0350 C   0  0  0  0  0  3  0  0  0  0  0  0
  190.9040  177.0850  147.2020 C   0  0  0  0  0  2  0  0  0  0  0  0
  192.2700  176.8680  147.3860 O   0  0  0  0  0  0  0  0  0  0  0  0
  192.3390  175.6870  148.1250 C   0  0  0  0  0  1  0  0  0  0  0  0
  192.3920  173.1180  135.4280 C   0  0  0  0  0  2  0  0  0  0  0  0
  193.1040  171.8090  135.7230 C   0  0  0  0  0  2  0  0  0  0  0  0
  194.3430  172.0630  136.5610 C   0  0  0  0  0  2  0  0  0  0  0  0
  195.8100  173.9920  137.0640 C   0  0  2  0  0  3  0  0  0  0  0  0
  195.0830  173.2050  136.0280 N   0  0  0  0  0  0  0  0  0  0  0  0
  196.5020  172.9490  136.3180 C   0  0  0  0  0  2  0  0  0  0  0  0
  196.3000  174.4860  139.4530 C   0  0  0  0  0  1  0  0  0  0  0  0
  195.5810  173.5450  138.5080 C   0  0  0  0  0  2  0  0  0  0  0  0
  1  3  1  0  0  0  0
  2 13  1  0  0  0  0
  3 14  2  0  0  0  0
  3 18  1  0  0  0  0
  4  7  1  0  0  0  0
  5  4  2  0  0  0  0
  5  8  1  0  0  0  0
  6  9  1  0  0  0  0
  7 15  2  0  0  0  0
  8 20  2  0  0  0  0
  9 18  2  0  0  0  0
  9 17  1  0  0  0  0
 10 11  2  0  0  0  0
 11 23  1  0  0  0  0
 12 19  2  0  0  0  0
 12 14  1  0  0  0  0
 13  6  2  0  0  0  0
 13  1  1  0  0  0  0
 14  8  1  0  0  0  0
 16 21  1  0  0  0  0
 16 12  1  0  0  0  0
 18 10  1  0  0  0  0
 20 15  1  0  0  0  0
 20 11  1  0  0  0  0
 21 34  1  6  0  0  0
 21  5  1  0  0  0  0
 22 29  1  0  0  0  0
 23 24  2  0  0  0  0
 23 22  1  0  0  0  0
 25 28  1  0  0  0  0
 26 28  2  0  0  0  0
 27 26  1  0  0  0  0
 28 31  1  0  0  0  0
 29 27  2  0  0  0  0
 29 30  1  0  0  0  0
 30 25  2  0  0  0  0
 31 32  1  0  0  0  0
 32 33  1  0  0  0  0
 34 35  1  0  0  0  0
 35 36  1  0  0  0  0
 37 41  1  1  0  0  0
 38 39  1  0  0  0  0
 38 36  1  0  0  0  0
 38 37  1  0  0  0  0
 39 37  1  0  0  0  0
 41 40  1  0  0  0  0
M  END
>  <MODEL>
1

>  <REMARK>
 VINA RESULT:      -6.9      0.000      0.000
  Name = 
  9 active torsions:
  status: ('A' for Active; 'I' for Inactive)
    1  A    between atoms: C_5  and  C_23
    2  A    between atoms: C_5  and  C_37
    3  A    between atoms: N_7  and  C_30
    4  A    between atoms: C_11  and  C_38
    5  A    between atoms: C_17  and  C_34
    6  A    between atoms: O_18  and  C_39
    7  A    between atoms: N_21  and  C_23
    8  A    between atoms: C_28  and  C_39
    9  A    between atoms: C_37  and  C_40
                            x       y       z     vdW  Elec       q    Type
                         _______ _______ _______ _____ _____    ______ ____

>  <TORSDO>
F 9

$$$$
=
 OpenBabel10232408343D

 41 46  0  0  1  0  0  0  0  0999 V2000
  183.4490  176.4730  136.4460 O   0  0  0  0  0  0  0  0  0  0  0  0
  181.3390  176.6590  135.2310 N   0  0  0  0  0  1  0  0  0  0  0  0
  184.4570  177.0010  137.2710 C   0  0  0  0  0  0  0  0  0  0  0  0
  189.3030  177.6110  136.9840 C   0  0  0  0  0  3  0  0  0  0  0  0
  188.1360  176.8620  136.7910 C   0  0  0  0  0  0  0  0  0  0  0  0
  181.9960  178.3000  136.8290 C   0  0  0  0  0  3  0  0  0  0  0  0
  189.3520  178.6320  137.9200 C   0  0  0  0  0  3  0  0  0  0  0  0
  186.9640  177.1570  137.5600 C   0  0  0  0  0  0  0  0  0  0  0  0
  182.9240  178.8060  137.8540 C   0  0  0  0  0  0  0  0  0  0  0  0
  184.7540  178.4380  139.3790 C   0  0  0  0  0  3  0  0  0  0  0  0
  186.0480  178.3330  139.6540 C   0  0  0  0  0  0  0  0  0  0  0  0
  185.8410  175.2300  136.3810 C   0  0  0  0  0  0  0  0  0  0  0  0
  182.2620  177.1660  136.1870 C   0  0  0  0  0  0  0  0  0  0  0  0
  185.6900  176.4430  137.2060 C   0  0  0  0  0  0  0  0  0  0  0  0
  188.2520  178.8690  138.7290 C   0  0  0  0  0  3  0  0  0  0  0  0
  186.8730  175.2210  135.3170 C   0  0  0  0  0  2  0  0  0  0  0  0
  182.3760  180.1730  138.8200 Cl  0  0  0  0  0  0  0  0  0  0  0  0
  184.0950  178.1810  138.0990 C   0  0  0  0  0  0  0  0  0  0  0  0
  185.0780  174.2370  136.5270 O   0  0  0  0  0  0  0  0  0  0  0  0
  187.0720  178.1200  138.6030 C   0  0  0  0  0  0  0  0  0  0  0  0
  188.2160  175.6330  135.8920 C   0  0  1  0  0  3  0  0  0  0  0  0
  187.1840  177.5230  141.7620 N   0  0  0  0  0  2  0  0  0  0  0  0
  186.4610  178.5490  141.0640 C   0  0  0  0  0  0  0  0  0  0  0  0
  186.1420  179.6180  141.6570 O   0  0  0  0  0  0  0  0  0  0  0  0
  187.4310  177.5190  145.5100 C   0  0  0  0  0  3  0  0  0  0  0  0
  189.6190  177.9180  144.5560 C   0  0  0  0  0  3  0  0  0  0  0  0
  189.0740  177.8360  143.2710 C   0  0  0  0  0  3  0  0  0  0  0  0
  188.7990  177.7530  145.6760 C   0  0  0  0  0  0  0  0  0  0  0  0
  187.7070  177.5920  143.0960 C   0  0  0  0  0  0  0  0  0  0  0  0
  186.8870  177.4370  144.2250 C   0  0  0  0  0  3  0  0  0  0  0  0
  189.3740  177.8640  147.0440 C   0  0  0  0  0  2  0  0  0  0  0  0
  188.6350  177.0820  147.9310 O   0  0  0  0  0  0  0  0  0  0  0  0
  188.2000  177.9780  148.9080 C   0  0  0  0  0  1  0  0  0  0  0  0
  189.2010  175.7830  134.7400 C   0  0  0  0  0  2  0  0  0  0  0  0
  190.0940  174.5570  134.6560 C   0  0  0  0  0  2  0  0  0  0  0  0
  191.5130  174.9120  135.0590 C   0  0  0  0  0  2  0  0  0  0  0  0
  192.6250  174.6050  137.2490 C   0  0  2  0  0  3  0  0  0  0  0  0
  192.0040  173.9630  136.0560 N   0  0  0  0  0  0  0  0  0  0  0  0
  191.2240  174.2070  137.2780 C   0  0  0  0  0  2  0  0  0  0  0  0
  192.7520  176.6940  138.5930 C   0  0  0  0  0  1  0  0  0  0  0  0
  192.7410  176.1280  137.1880 C   0  0  0  0  0  2  0  0  0  0  0  0
  1  3  1  0  0  0  0
  2 13  1  0  0  0  0
  3 18  1  0  0  0  0
  4  7  1  0  0  0  0
  5  4  2  0  0  0  0
  5  8  1  0  0  0  0
  6  9  1  0  0  0  0
  7 15  2  0  0  0  0
  8 20  2  0  0  0  0
  9 18  2  0  0  0  0
  9 17  1  0  0  0  0
 10 11  2  0  0  0  0
 11 23  1  0  0  0  0
 12 19  2  0  0  0  0
 12 14  1  0  0  0  0
 13  1  1  0  0  0  0
 13  6  2  0  0  0  0
 14  3  2  0  0  0  0
 14  8  1  0  0  0  0
 16 21  1  0  0  0  0
 16 12  1  0  0  0  0
 18 10  1  0  0  0  0
 20 15  1  0  0  0  0
 20 11  1  0  0  0  0
 21 34  1  6  0  0  0
 21  5  1  0  0  0  0
 22 29  1  0  0  0  0
 23 24  2  0  0  0  0
 23 22  1  0  0  0  0
 25 28  1  0  0  0  0
 26 28  2  0  0  0  0
 27 26  1  0  0  0  0
 28 31  1  0  0  0  0
 29 27  2  0  0  0  0
 29 30  1  0  0  0  0
 30 25  2  0  0  0  0
 31 32  1  0  0  0  0
 32 33  1  0  0  0  0
 35 34  1  0  0  0  0
 35 36  1  0  0  0  0
 36 38  1  0  0  0  0
 37 41  1  6  0  0  0
 37 39  1  0  0  0  0
 38 37  1  0  0  0  0
 38 39  1  0  0  0  0
 41 40  1  0  0  0  0
M  END
>  <MODEL>
2

>  <REMARK>
 VINA RESULT:      -6.9      2.467      3.560
  Name = 
  9 active torsions:
  status: ('A' for Active; 'I' for Inactive)
    1  A    between atoms: C_5  and  C_23
    2  A    between atoms: C_5  and  C_37
    3  A    between atoms: N_7  and  C_30
    4  A    between atoms: C_11  and  C_38
    5  A    between atoms: C_17  and  C_34
    6  A    between atoms: O_18  and  C_39
    7  A    between atoms: N_21  and  C_23
    8  A    between atoms: C_28  and  C_39
    9  A    between atoms: C_37  and  C_40
                            x       y       z     vdW  Elec       q    Type
                         _______ _______ _______ _____ _____    ______ ____

>  <TORSDO>
F 9

$$$$
=
 OpenBabel10232408343D

 41 46  0  0  1  0  0  0  0  0999 V2000
  186.6610  176.0170  136.5780 O   0  0  0  0  0  0  0  0  0  0  0  0
  184.8970  174.8300  135.3770 N   0  0  0  0  0  1  0  0  0  0  0  0
  187.8880  176.0540  137.2630 C   0  0  0  0  0  0  0  0  0  0  0  0
  189.4380  177.5240  141.6650 C   0  0  0  0  0  3  0  0  0  0  0  0
  188.6690  177.6840  140.5050 C   0  0  0  0  0  0  0  0  0  0  0  0
  186.9960  173.7980  135.8300 C   0  0  0  0  0  3  0  0  0  0  0  0
  190.5700  176.7240  141.6680 C   0  0  0  0  0  3  0  0  0  0  0  0
  189.0430  177.0040  139.3010 C   0  0  0  0  0  0  0  0  0  0  0  0
  188.3700  173.8420  136.3560 C   0  0  0  0  0  0  0  0  0  0  0  0
  190.2720  175.1060  137.1280 C   0  0  0  0  0  3  0  0  0  0  0  0
  190.9320  175.7770  138.0640 C   0  0  0  0  0  0  0  0  0  0  0  0
  187.0870  178.1410  138.1840 C   0  0  0  0  0  0  0  0  0  0  0  0
  186.2080  174.8640  135.9290 C   0  0  0  0  0  0  0  0  0  0  0  0
  188.1020  177.0710  138.1330 C   0  0  0  0  0  0  0  0  0  0  0  0
  190.9880  176.1300  140.4870 C   0  0  0  0  0  3  0  0  0  0  0  0
  186.4750  178.4740  139.4920 C   0  0  0  0  0  2  0  0  0  0  0  0
  189.4180  172.4800  135.9650 Cl  0  0  0  0  0  0  0  0  0  0  0  0
  188.8250  174.9250  137.0210 C   0  0  0  0  0  0  0  0  0  0  0  0
  186.6970  178.7260  137.1380 O   0  0  0  0  0  0  0  0  0  0  0  0
  190.2750  176.2910  139.2900 C   0  0  0  0  0  0  0  0  0  0  0  0
  187.5600  178.7310  140.5230 C   0  0  1  0  0  3  0  0  0  0  0  0
  193.2190  174.7250  137.8320 N   0  0  0  0  0  2  0  0  0  0  0  0
  192.4020  175.9050  137.8960 C   0  0  0  0  0  0  0  0  0  0  0  0
  192.9330  177.0500  137.8490 O   0  0  0  0  0  0  0  0  0  0  0  0
  196.5990  174.9570  136.2100 C   0  0  0  0  0  3  0  0  0  0  0  0
  196.8430  174.1410  138.4750 C   0  0  0  0  0  3  0  0  0  0  0  0
  195.4580  174.2180  138.6530 C   0  0  0  0  0  3  0  0  0  0  0  0
  197.4150  174.5170  137.2570 C   0  0  0  0  0  0  0  0  0  0  0  0
  194.6360  174.6680  137.6140 C   0  0  0  0  0  0  0  0  0  0  0  0
  195.2150  175.0350  136.3890 C   0  0  0  0  0  3  0  0  0  0  0  0
  198.8860  174.4120  137.0590 C   0  0  0  0  0  2  0  0  0  0  0  0
  199.2900  175.2830  136.0470 O   0  0  0  0  0  0  0  0  0  0  0  0
  200.0390  174.4880  135.1790 C   0  0  0  0  0  1  0  0  0  0  0  0
  186.8950  178.8920  141.8840 C   0  0  0  0  0  2  0  0  0  0  0  0
  185.3840  178.8390  141.7340 C   0  0  0  0  0  2  0  0  0  0  0  0
  184.7700  178.0600  142.8820 C   0  0  0  0  0  2  0  0  0  0  0  0
  183.7730  178.9500  144.9660 C   0  0  2  0  0  3  0  0  0  0  0  0
  183.6810  178.8280  143.4840 N   0  0  0  0  0  0  0  0  0  0  0  0
  184.3030  180.0040  144.1100 C   0  0  0  0  0  2  0  0  0  0  0  0
  185.7970  179.1270  146.4020 C   0  0  0  0  0  1  0  0  0  0  0  0
  184.9180  178.1740  145.6180 C   0  0  0  0  0  2  0  0  0  0  0  0
  1  3  1  0  0  0  0
  2 13  1  0  0  0  0
  3 14  2  0  0  0  0
  4  7  1  0  0  0  0
  5 21  1  0  0  0  0
  5  4  2  0  0  0  0
  6 13  2  0  0  0  0
  6  9  1  0  0  0  0
  8  5  1  0  0  0  0
  9 18  2  0  0  0  0
 10 11  2  0  0  0  0
 11 20  1  0  0  0  0
 12 16  1  0  0  0  0
 13  1  1  0  0  0  0
 14 12  1  0  0  0  0
 14  8  1  0  0  0  0
 15  7  2  0  0  0  0
 16 21  1  0  0  0  0
 17  9  1  0  0  0  0
 18 10  1  0  0  0  0
 18  3  1  0  0  0  0
 19 12  2  0  0  0  0
 20  8  2  0  0  0  0
 20 15  1  0  0  0  0
 21 34  1  1  0  0  0
 22 23  1  0  0  0  0
 23 11  1  0  0  0  0
 24 23  2  0  0  0  0
 25 30  2  0  0  0  0
 25 28  1  0  0  0  0
 26 27  1  0  0  0  0
 28 26  2  0  0  0  0
 29 22  1  0  0  0  0
 29 27  2  0  0  0  0
 30 29  1  0  0  0  0
 31 28  1  0  0  0  0
 32 31  1  0  0  0  0
 33 32  1  0  0  0  0
 35 34  1  0  0  0  0
 35 36  1  0  0  0  0
 36 38  1  0  0  0  0
 37 41  1  6  0  0  0
 38 39  1  0  0  0  0
 38 37  1  0  0  0  0
 39 37  1  0  0  0  0
 41 40  1  0  0  0  0
M  END
>  <MODEL>
3

>  <REMARK>
 VINA RESULT:      -6.6      3.524      8.691
  Name = 
  9 active torsions:
  status: ('A' for Active; 'I' for Inactive)
    1  A    between atoms: C_5  and  C_23
    2  A    between atoms: C_5  and  C_37
    3  A    between atoms: N_7  and  C_30
    4  A    between atoms: C_11  and  C_38
    5  A    between atoms: C_17  and  C_34
    6  A    between atoms: O_18  and  C_39
    7  A    between atoms: N_21  and  C_23
    8  A    between atoms: C_28  and  C_39
    9  A    between atoms: C_37  and  C_40
                            x       y       z     vdW  Elec       q    Type
                         _______ _______ _______ _____ _____    ______ ____

>  <TORSDO>
F 9

$$$$
=
 OpenBabel10232408343D

 41 46  0  0  1  0  0  0  0  0999 V2000
  184.4110  174.2970  135.9550 O   0  0  0  0  0  0  0  0  0  0  0  0
  182.8710  172.4180  135.7150 N   0  0  0  0  0  1  0  0  0  0  0  0
  185.6550  174.8440  136.3130 C   0  0  0  0  0  0  0  0  0  0  0  0
  187.2380  178.3570  139.3290 C   0  0  0  0  0  3  0  0  0  0  0  0
  186.3410  177.8510  138.3790 C   0  0  0  0  0  0  0  0  0  0  0  0
  185.1900  172.0710  136.1370 C   0  0  0  0  0  3  0  0  0  0  0  0
  188.5220  177.8490  139.4430 C   0  0  0  0  0  3  0  0  0  0  0  0
  186.7460  176.7830  137.5150 C   0  0  0  0  0  0  0  0  0  0  0  0
  186.5590  172.5800  136.3230 C   0  0  0  0  0  0  0  0  0  0  0  0
  188.1710  174.3610  136.1230 C   0  0  0  0  0  3  0  0  0  0  0  0
  188.7410  175.4790  136.5530 C   0  0  0  0  0  0  0  0  0  0  0  0
  184.4750  176.9510  136.4290 C   0  0  0  0  0  0  0  0  0  0  0  0
  184.1830  172.9170  135.9390 C   0  0  0  0  0  0  0  0  0  0  0  0
  185.7050  176.1620  136.6280 C   0  0  0  0  0  0  0  0  0  0  0  0
  188.9510  176.8750  138.5560 C   0  0  0  0  0  3  0  0  0  0  0  0
  183.9330  177.7190  137.5750 C   0  0  0  0  0  2  0  0  0  0  0  0
  187.8570  171.3880  136.3330 Cl  0  0  0  0  0  0  0  0  0  0  0  0
  186.8050  173.9050  136.3810 C   0  0  0  0  0  0  0  0  0  0  0  0
  183.8540  176.9350  135.3320 O   0  0  0  0  0  0  0  0  0  0  0  0
  188.1050  176.3630  137.5600 C   0  0  0  0  0  0  0  0  0  0  0  0
  185.0220  178.5890  138.1780 C   0  0  1  0  0  3  0  0  0  0  0  0
  191.2410  175.1260  136.6820 N   0  0  0  0  0  2  0  0  0  0  0  0
  190.1140  175.7700  136.0670 C   0  0  0  0  0  0  0  0  0  0  0  0
  190.2900  176.6100  135.1410 O   0  0  0  0  0  0  0  0  0  0  0  0
  194.6960  176.4970  136.1460 C   0  0  0  0  0  3  0  0  0  0  0  0
  194.5700  174.2500  135.2540 C   0  0  0  0  0  3  0  0  0  0  0  0
  193.2320  174.1680  135.6510 C   0  0  0  0  0  3  0  0  0  0  0  0
  195.3060  175.4120  135.5080 C   0  0  0  0  0  0  0  0  0  0  0  0
  192.6180  175.2460  136.2990 C   0  0  0  0  0  0  0  0  0  0  0  0
  193.3580  176.4130  136.5420 C   0  0  0  0  0  3  0  0  0  0  0  0
  196.7230  175.5090  135.0650 C   0  0  0  0  0  2  0  0  0  0  0  0
  197.5200  175.9370  136.1270 O   0  0  0  0  0  0  0  0  0  0  0  0
  197.9560  174.7590  136.7330 C   0  0  0  0  0  1  0  0  0  0  0  0
  184.4760  179.2200  139.4530 C   0  0  0  0  0  2  0  0  0  0  0  0
  183.4990  178.2710  140.1260 C   0  0  0  0  0  2  0  0  0  0  0  0
  183.8070  178.1660  141.6080 C   0  0  0  0  0  2  0  0  0  0  0  0
  185.0030  179.3720  143.4090 C   0  0  2  0  0  3  0  0  0  0  0  0
  184.9130  179.0560  141.9550 N   0  0  0  0  0  0  0  0  0  0  0  0
  185.7970  178.2880  142.8450 C   0  0  0  0  0  2  0  0  0  0  0  0
  184.3260  178.7430  145.7190 C   0  0  0  0  0  1  0  0  0  0  0  0
  183.8760  178.8050  144.2740 C   0  0  0  0  0  2  0  0  0  0  0  0
  1  3  1  0  0  0  0
  2 13  1  0  0  0  0
  3 18  1  0  0  0  0
  3 14  2  0  0  0  0
  4  7  1  0  0  0  0
  5  4  2  0  0  0  0
  6  9  1  0  0  0  0
  8 20  2  0  0  0  0
  8  5  1  0  0  0  0
  9 17  1  0  0  0  0
  9 18  2  0  0  0  0
 10 18  1  0  0  0  0
 10 11  2  0  0  0  0
 11 20  1  0  0  0  0
 12 14  1  0  0  0  0
 12 16  1  0  0  0  0
 13  1  1  0  0  0  0
 13  6  2  0  0  0  0
 14  8  1  0  0  0  0
 15  7  2  0  0  0  0
 16 21  1  0  0  0  0
 19 12  2  0  0  0  0
 20 15  1  0  0  0  0
 21  5  1  0  0  0  0
 21 34  1  1  0  0  0
 23 11  1  0  0  0  0
 23 22  1  0  0  0  0
 24 23  2  0  0  0  0
 25 30  1  0  0  0  0
 26 28  1  0  0  0  0
 26 27  2  0  0  0  0
 27 29  1  0  0  0  0
 28 25  2  0  0  0  0
 29 30  2  0  0  0  0
 29 22  1  0  0  0  0
 31 28  1  0  0  0  0
 31 32  1  0  0  0  0
 32 33  1  0  0  0  0
 34 35  1  0  0  0  0
 35 36  1  0  0  0  0
 36 38  1  0  0  0  0
 37 41  1  1  0  0  0
 38 39  1  0  0  0  0
 38 37  1  0  0  0  0
 39 37  1  0  0  0  0
 41 40  1  0  0  0  0
M  END
>  <MODEL>
4

>  <REMARK>
 VINA RESULT:      -6.4      4.131      8.625
  Name = 
  9 active torsions:
  status: ('A' for Active; 'I' for Inactive)
    1  A    between atoms: C_5  and  C_23
    2  A    between atoms: C_5  and  C_37
    3  A    between atoms: N_7  and  C_30
    4  A    between atoms: C_11  and  C_38
    5  A    between atoms: C_17  and  C_34
    6  A    between atoms: O_18  and  C_39
    7  A    between atoms: N_21  and  C_23
    8  A    between atoms: C_28  and  C_39
    9  A    between atoms: C_37  and  C_40
                            x       y       z     vdW  Elec       q    Type
                         _______ _______ _______ _____ _____    ______ ____

>  <TORSDO>
F 9

$$$$
=
 OpenBabel10232408343D

 41 46  0  0  1  0  0  0  0  0999 V2000
  191.7970  176.7310  139.8070 O   0  0  0  0  0  0  0  0  0  0  0  0
  194.1750  177.2550  139.9770 N   0  0  0  0  0  1  0  0  0  0  0  0
  190.6180  176.5350  139.0660 C   0  0  0  0  0  0  0  0  0  0  0  0
  186.1010  178.4150  139.0420 C   0  0  0  0  0  3  0  0  0  0  0  0
  187.2370  177.9280  139.7020 C   0  0  0  0  0  0  0  0  0  0  0  0
  193.1610  176.7740  137.8750 C   0  0  0  0  0  3  0  0  0  0  0  0
  185.8310  178.0630  137.7290 C   0  0  0  0  0  3  0  0  0  0  0  0
  188.1470  177.0630  139.0120 C   0  0  0  0  0  0  0  0  0  0  0  0
  192.0000  176.3750  137.0630 C   0  0  0  0  0  0  0  0  0  0  0  0
  189.7900  175.4270  136.9010 C   0  0  0  0  0  3  0  0  0  0  0  0
  188.4690  175.5120  136.9880 C   0  0  0  0  0  0  0  0  0  0  0  0
  189.4700  176.9310  141.1560 C   0  0  0  0  0  0  0  0  0  0  0  0
  193.0390  176.9140  139.1920 C   0  0  0  0  0  0  0  0  0  0  0  0
  189.4320  176.7000  139.7000 C   0  0  0  0  0  0  0  0  0  0  0  0
  186.6580  177.1590  137.0810 C   0  0  0  0  0  3  0  0  0  0  0  0
  188.7940  178.1310  141.7010 C   0  0  0  0  0  2  0  0  0  0  0  0
  192.3090  175.9770  135.3740 Cl  0  0  0  0  0  0  0  0  0  0  0  0
  190.7800  176.2280  137.6200 C   0  0  0  0  0  0  0  0  0  0  0  0
  190.1090  176.1630  141.9250 O   0  0  0  0  0  0  0  0  0  0  0  0
  187.7870  176.6120  137.7110 C   0  0  0  0  0  0  0  0  0  0  0  0
  187.3630  178.1950  141.1980 C   0  0  1  0  0  3  0  0  0  0  0  0
  187.0890  173.3950  136.9180 N   0  0  0  0  0  2  0  0  0  0  0  0
  187.6740  174.5110  136.2310 C   0  0  0  0  0  0  0  0  0  0  0  0
  187.5480  174.6250  134.9790 O   0  0  0  0  0  0  0  0  0  0  0  0
  185.9070  170.4000  134.9830 C   0  0  0  0  0  3  0  0  0  0  0  0
  184.0250  171.4400  136.0940 C   0  0  0  0  0  3  0  0  0  0  0  0
  184.8770  172.4090  136.6330 C   0  0  0  0  0  3  0  0  0  0  0  0
  184.5400  170.4310  135.2750 C   0  0  0  0  0  0  0  0  0  0  0  0
  186.2480  172.3790  136.3540 C   0  0  0  0  0  0  0  0  0  0  0  0
  186.7580  171.3690  135.5230 C   0  0  0  0  0  3  0  0  0  0  0  0
  183.6300  169.4140  134.6820 C   0  0  0  0  0  2  0  0  0  0  0  0
  182.4700  169.3140  135.4510 O   0  0  0  0  0  0  0  0  0  0  0  0
  181.7440  168.2830  134.8540 C   0  0  0  0  0  1  0  0  0  0  0  0
  186.7640  179.5270  141.6320 C   0  0  0  0  0  2  0  0  0  0  0  0
  185.4130  179.2990  142.2890 C   0  0  0  0  0  2  0  0  0  0  0  0
  185.4830  178.1170  143.2380 C   0  0  0  0  0  2  0  0  0  0  0  0
  185.5210  178.1760  145.7120 C   0  0  2  0  0  3  0  0  0  0  0  0
  184.7440  178.4140  144.4630 N   0  0  0  0  0  0  0  0  0  0  0  0
  185.4660  179.5100  145.1270 C   0  0  0  0  0  2  0  0  0  0  0  0
  187.6950  177.6620  146.8070 C   0  0  0  0  0  1  0  0  0  0  0  0
  186.9110  177.5690  145.5140 C   0  0  0  0  0  2  0  0  0  0  0  0
  3 14  2  0  0  0  0
  3  1  1  0  0  0  0
  4  5  1  0  0  0  0
  5 21  1  0  0  0  0
  6 13  2  0  0  0  0
  7  4  2  0  0  0  0
  8 14  1  0  0  0  0
  8  5  2  0  0  0  0
  9 18  2  0  0  0  0
  9  6  1  0  0  0  0
 10 11  2  0  0  0  0
 10 18  1  0  0  0  0
 11 20  1  0  0  0  0
 12 16  1  0  0  0  0
 12 19  2  0  0  0  0
 13  1  1  0  0  0  0
 13  2  1  0  0  0  0
 14 12  1  0  0  0  0
 15 20  2  0  0  0  0
 15  7  1  0  0  0  0
 17  9  1  0  0  0  0
 18  3  1  0  0  0  0
 20  8  1  0  0  0  0
 21 34  1  6  0  0  0
 21 16  1  0  0  0  0
 23 22  1  0  0  0  0
 23 11  1  0  0  0  0
 24 23  2  0  0  0  0
 25 28  2  0  0  0  0
 25 30  1  0  0  0  0
 26 27  2  0  0  0  0
 28 26  1  0  0  0  0
 29 27  1  0  0  0  0
 29 22  1  0  0  0  0
 30 29  2  0  0  0  0
 31 28  1  0  0  0  0
 31 32  1  0  0  0  0
 33 32  1  0  0  0  0
 34 35  1  0  0  0  0
 35 36  1  0  0  0  0
 36 38  1  0  0  0  0
 37 41  1  6  0  0  0
 38 39  1  0  0  0  0
 38 37  1  0  0  0  0
 39 37  1  0  0  0  0
 41 40  1  0  0  0  0
M  END
>  <MODEL>
5

>  <REMARK>
 VINA RESULT:      -6.4      3.580      9.880
  Name = 
  9 active torsions:
  status: ('A' for Active; 'I' for Inactive)
    1  A    between atoms: C_5  and  C_23
    2  A    between atoms: C_5  and  C_37
    3  A    between atoms: N_7  and  C_30
    4  A    between atoms: C_11  and  C_38
    5  A    between atoms: C_17  and  C_34
    6  A    between atoms: O_18  and  C_39
    7  A    between atoms: N_21  and  C_23
    8  A    between atoms: C_28  and  C_39
    9  A    between atoms: C_37  and  C_40
                            x       y       z     vdW  Elec       q    Type
                         _______ _______ _______ _____ _____    ______ ____

>  <TORSDO>
F 9

$$$$
=
 OpenBabel10232408343D

 41 46  0  0  1  0  0  0  0  0999 V2000
  185.8720  176.0090  137.0670 O   0  0  0  0  0  0  0  0  0  0  0  0
  183.7620  174.8620  136.6300 N   0  0  0  0  0  1  0  0  0  0  0  0
  187.2710  176.0250  137.2100 C   0  0  0  0  0  0  0  0  0  0  0  0
  190.4560  177.3510  140.6790 C   0  0  0  0  0  3  0  0  0  0  0  0
  189.2930  177.5490  139.9250 C   0  0  0  0  0  0  0  0  0  0  0  0
  185.8550  173.8170  136.1810 C   0  0  0  0  0  3  0  0  0  0  0  0
  191.4860  176.5520  140.2090 C   0  0  0  0  0  3  0  0  0  0  0  0
  189.1500  176.9080  138.6520 C   0  0  0  0  0  0  0  0  0  0  0  0
  187.3260  173.8440  136.1200 C   0  0  0  0  0  0  0  0  0  0  0  0
  189.3940  175.0830  136.1130 C   0  0  0  0  0  3  0  0  0  0  0  0
  190.3790  175.7230  136.7300 C   0  0  0  0  0  0  0  0  0  0  0  0
  186.9260  178.0800  138.4370 C   0  0  0  0  0  0  0  0  0  0  0  0
  185.1840  174.8780  136.6170 C   0  0  0  0  0  0  0  0  0  0  0  0
  187.8240  177.0130  137.9550 C   0  0  0  0  0  0  0  0  0  0  0  0
  191.3950  175.9970  138.9420 C   0  0  0  0  0  3  0  0  0  0  0  0
  186.8870  178.3700  139.8890 C   0  0  0  0  0  2  0  0  0  0  0  0
  188.1150  172.4960  135.3050 Cl  0  0  0  0  0  0  0  0  0  0  0  0
  188.0200  174.9050  136.5830 C   0  0  0  0  0  0  0  0  0  0  0  0
  186.1610  178.6990  137.6490 O   0  0  0  0  0  0  0  0  0  0  0  0
  190.2680  176.1970  138.1310 C   0  0  0  0  0  0  0  0  0  0  0  0
  188.2940  178.5930  140.4130 C   0  0  1  0  0  3  0  0  0  0  0  0
  192.9070  175.7270  136.7040 N   0  0  0  0  0  2  0  0  0  0  0  0
  191.6640  175.8570  135.9970 C   0  0  0  0  0  0  0  0  0  0  0  0
  191.6590  176.1220  134.7620 O   0  0  0  0  0  0  0  0  0  0  0  0
  196.0120  176.9080  134.9520 C   0  0  0  0  0  3  0  0  0  0  0  0
  196.3210  174.6260  135.6940 C   0  0  0  0  0  3  0  0  0  0  0  0
  195.0310  174.6270  136.2370 C   0  0  0  0  0  3  0  0  0  0  0  0
  196.8150  175.7680  135.0580 C   0  0  0  0  0  0  0  0  0  0  0  0
  194.2260  175.7680  136.1430 C   0  0  0  0  0  0  0  0  0  0  0  0
  194.7230  176.9090  135.4950 C   0  0  0  0  0  3  0  0  0  0  0  0
  198.1770  175.7590  134.4600 C   0  0  0  0  0  2  0  0  0  0  0  0
  199.1160  175.4100  135.4310 O   0  0  0  0  0  0  0  0  0  0  0  0
  199.9070  174.4380  134.8180 C   0  0  0  0  0  1  0  0  0  0  0  0
  188.2260  178.7090  141.9300 C   0  0  0  0  0  2  0  0  0  0  0  0
  187.4510  177.5370  142.5070 C   0  0  0  0  0  2  0  0  0  0  0  0
  188.0810  177.0800  143.8090 C   0  0  0  0  0  2  0  0  0  0  0  0
  189.6510  177.9490  145.5150 C   0  0  2  0  0  3  0  0  0  0  0  0
  189.3010  177.8410  144.0700 N   0  0  0  0  0  0  0  0  0  0  0  0
  190.2480  176.9040  144.6930 C   0  0  0  0  0  2  0  0  0  0  0  0
  188.7420  178.0290  147.8290 C   0  0  0  0  0  1  0  0  0  0  0  0
  188.6340  177.3430  146.4830 C   0  0  0  0  0  2  0  0  0  0  0  0
  1  3  1  0  0  0  0
  3 14  2  0  0  0  0
  5 21  1  0  0  0  0
  5  4  2  0  0  0  0
  6 13  2  0  0  0  0
  7  4  1  0  0  0  0
  8  5  1  0  0  0  0
  9  6  1  0  0  0  0
  9 18  2  0  0  0  0
 10 18  1  0  0  0  0
 10 11  2  0  0  0  0
 11 20  1  0  0  0  0
 12 16  1  0  0  0  0
 13  2  1  0  0  0  0
 13  1  1  0  0  0  0
 14 12  1  0  0  0  0
 14  8  1  0  0  0  0
 15  7  2  0  0  0  0
 16 21  1  0  0  0  0
 17  9  1  0  0  0  0
 18  3  1  0  0  0  0
 19 12  2  0  0  0  0
 20  8  2  0  0  0  0
 20 15  1  0  0  0  0
 21 34  1  1  0  0  0
 23 22  1  0  0  0  0
 23 11  1  0  0  0  0
 24 23  2  0  0  0  0
 25 28  2  0  0  0  0
 25 30  1  0  0  0  0
 26 27  2  0  0  0  0
 28 26  1  0  0  0  0
 29 27  1  0  0  0  0
 29 22  1  0  0  0  0
 30 29  2  0  0  0  0
 31 28  1  0  0  0  0
 31 32  1  0  0  0  0
 33 32  1  0  0  0  0
 34 35  1  0  0  0  0
 35 36  1  0  0  0  0
 36 38  1  0  0  0  0
 37 41  1  1  0  0  0
 38 39  1  0  0  0  0
 38 37  1  0  0  0  0
 39 37  1  0  0  0  0
 41 40  1  0  0  0  0
M  END
>  <MODEL>
6

>  <REMARK>
 VINA RESULT:      -6.2      3.077      8.176
  Name = 
  9 active torsions:
  status: ('A' for Active; 'I' for Inactive)
    1  A    between atoms: C_5  and  C_23
    2  A    between atoms: C_5  and  C_37
    3  A    between atoms: N_7  and  C_30
    4  A    between atoms: C_11  and  C_38
    5  A    between atoms: C_17  and  C_34
    6  A    between atoms: O_18  and  C_39
    7  A    between atoms: N_21  and  C_23
    8  A    between atoms: C_28  and  C_39
    9  A    between atoms: C_37  and  C_40
                            x       y       z     vdW  Elec       q    Type
                         _______ _______ _______ _____ _____    ______ ____

>  <TORSDO>
F 9

$$$$
=
 OpenBabel10232408343D

 41 46  0  0  1  0  0  0  0  0999 V2000
  183.2630  179.4590  142.6850 O   0  0  0  0  0  0  0  0  0  0  0  0
  180.8460  179.6300  142.3850 N   0  0  0  0  0  1  0  0  0  0  0  0
  184.5180  178.9070  142.3710 C   0  0  0  0  0  0  0  0  0  0  0  0
  188.0930  176.6320  144.8160 C   0  0  0  0  0  3  0  0  0  0  0  0
  187.1210  177.6320  144.6900 C   0  0  0  0  0  0  0  0  0  0  0  0
  182.2080  178.4520  140.8240 C   0  0  0  0  0  3  0  0  0  0  0  0
  188.6220  176.0040  143.7000 C   0  0  0  0  0  3  0  0  0  0  0  0
  186.6490  178.0090  143.3910 C   0  0  0  0  0  0  0  0  0  0  0  0
  183.5230  178.0100  140.3330 C   0  0  0  0  0  0  0  0  0  0  0  0
  185.9270  178.1930  140.3450 C   0  0  0  0  0  3  0  0  0  0  0  0
  187.1200  177.9330  140.8650 C   0  0  0  0  0  0  0  0  0  0  0  0
  185.2040  179.7300  144.5380 C   0  0  0  0  0  0  0  0  0  0  0  0
  182.1160  179.1660  141.9410 C   0  0  0  0  0  0  0  0  0  0  0  0
  185.4920  178.9640  143.3110 C   0  0  0  0  0  0  0  0  0  0  0  0
  188.2360  176.4210  142.4350 C   0  0  0  0  0  3  0  0  0  0  0  0
  185.3610  179.0550  145.8480 C   0  0  0  0  0  2  0  0  0  0  0  0
  183.5730  177.2850  138.7280 Cl  0  0  0  0  0  0  0  0  0  0  0  0
  184.6450  178.2430  141.0470 C   0  0  0  0  0  0  0  0  0  0  0  0
  184.7770  180.9150  144.4870 O   0  0  0  0  0  0  0  0  0  0  0  0
  187.2950  177.4450  142.2540 C   0  0  0  0  0  0  0  0  0  0  0  0
  186.7330  178.4140  145.9410 C   0  0  1  0  0  3  0  0  0  0  0  0
  189.0980  176.8860  139.6900 N   0  0  0  0  0  2  0  0  0  0  0  0
  188.2920  178.0440  139.9600 C   0  0  0  0  0  0  0  0  0  0  0  0
  188.5990  179.1630  139.4610 O   0  0  0  0  0  0  0  0  0  0  0  0
  191.1790  176.5270  136.5840 C   0  0  0  0  0  3  0  0  0  0  0  0
  192.6290  176.8250  138.4990 C   0  0  0  0  0  3  0  0  0  0  0  0
  191.5090  176.9080  139.3330 C   0  0  0  0  0  3  0  0  0  0  0  0
  192.4640  176.6420  137.1230 C   0  0  0  0  0  0  0  0  0  0  0  0
  190.2200  176.8050  138.8000 C   0  0  0  0  0  0  0  0  0  0  0  0
  190.0610  176.6110  137.4190 C   0  0  0  0  0  3  0  0  0  0  0  0
  193.6540  176.5300  136.2370 C   0  0  0  0  0  2  0  0  0  0  0  0
  194.7100  175.9480  136.9390 O   0  0  0  0  0  0  0  0  0  0  0  0
  194.7720  174.6400  136.4570 C   0  0  0  0  0  1  0  0  0  0  0  0
  186.7870  177.5850  147.2180 C   0  0  0  0  0  2  0  0  0  0  0  0
  187.8420  178.1450  148.1570 C   0  0  0  0  0  2  0  0  0  0  0  0
  189.1830  178.2250  147.4520 C   0  0  0  0  0  2  0  0  0  0  0  0
  190.9570  176.7880  146.4950 C   0  0  2  0  0  3  0  0  0  0  0  0
  189.8380  176.9190  147.4710 N   0  0  0  0  0  0  0  0  0  0  0  0
  191.2310  177.1610  147.8770 C   0  0  0  0  0  2  0  0  0  0  0  0
  191.6070  177.5100  144.2050 C   0  0  0  0  0  1  0  0  0  0  0  0
  191.1660  177.9900  145.5720 C   0  0  0  0  0  2  0  0  0  0  0  0
  3  1  1  0  0  0  0
  3 14  2  0  0  0  0
  5  4  1  0  0  0  0
  5 21  1  0  0  0  0
  6 13  2  0  0  0  0
  7  4  2  0  0  0  0
  8  5  2  0  0  0  0
  9  6  1  0  0  0  0
  9 18  2  0  0  0  0
 10 11  2  0  0  0  0
 10 18  1  0  0  0  0
 11 20  1  0  0  0  0
 12 16  1  0  0  0  0
 13  2  1  0  0  0  0
 13  1  1  0  0  0  0
 14  8  1  0  0  0  0
 14 12  1  0  0  0  0
 15  7  1  0  0  0  0
 16 21  1  0  0  0  0
 17  9  1  0  0  0  0
 18  3  1  0  0  0  0
 19 12  2  0  0  0  0
 20 15  2  0  0  0  0
 20  8  1  0  0  0  0
 21 34  1  1  0  0  0
 22 23  1  0  0  0  0
 23 11  1  0  0  0  0
 24 23  2  0  0  0  0
 25 28  2  0  0  0  0
 25 30  1  0  0  0  0
 26 27  2  0  0  0  0
 28 26  1  0  0  0  0
 29 27  1  0  0  0  0
 29 22  1  0  0  0  0
 30 29  2  0  0  0  0
 31 32  1  0  0  0  0
 31 28  1  0  0  0  0
 33 32  1  0  0  0  0
 34 35  1  0  0  0  0
 36 38  1  0  0  0  0
 36 35  1  0  0  0  0
 37 41  1  6  0  0  0
 37 38  1  0  0  0  0
 37 39  1  0  0  0  0
 38 39  1  0  0  0  0
 40 41  1  0  0  0  0
M  END
>  <MODEL>
7

>  <REMARK>
 VINA RESULT:      -6.1      3.690      8.863
  Name = 
  9 active torsions:
  status: ('A' for Active; 'I' for Inactive)
    1  A    between atoms: C_5  and  C_23
    2  A    between atoms: C_5  and  C_37
    3  A    between atoms: N_7  and  C_30
    4  A    between atoms: C_11  and  C_38
    5  A    between atoms: C_17  and  C_34
    6  A    between atoms: O_18  and  C_39
    7  A    between atoms: N_21  and  C_23
    8  A    between atoms: C_28  and  C_39
    9  A    between atoms: C_37  and  C_40
                            x       y       z     vdW  Elec       q    Type
                         _______ _______ _______ _____ _____    ______ ____

>  <TORSDO>
F 9

$$$$
=
 OpenBabel10232408343D

 41 46  0  0  1  0  0  0  0  0999 V2000
  191.1600  177.2970  141.7670 O   0  0  0  0  0  0  0  0  0  0  0  0
  191.9820  177.0900  144.0570 N   0  0  0  0  0  1  0  0  0  0  0  0
  190.1400  177.2200  140.8020 C   0  0  0  0  0  0  0  0  0  0  0  0
  189.4470  174.8580  136.5730 C   0  0  0  0  0  3  0  0  0  0  0  0
  190.2410  175.5830  137.4720 C   0  0  0  0  0  0  0  0  0  0  0  0
  189.6490  177.0650  143.5720 C   0  0  0  0  0  3  0  0  0  0  0  0
  188.0640  174.9340  136.6180 C   0  0  0  0  0  3  0  0  0  0  0  0
  189.6210  176.4090  138.4650 C   0  0  0  0  0  0  0  0  0  0  0  0
  188.5250  177.1750  142.6280 C   0  0  0  0  0  0  0  0  0  0  0  0
  187.6650  177.8170  140.4700 C   0  0  0  0  0  3  0  0  0  0  0  0
  187.4570  177.5970  139.1780 C   0  0  0  0  0  0  0  0  0  0  0  0
  191.9410  177.0770  139.1950 C   0  0  0  0  0  0  0  0  0  0  0  0
  190.9010  177.1510  143.1340 C   0  0  0  0  0  0  0  0  0  0  0  0
  190.5010  177.0350  139.5090 C   0  0  0  0  0  0  0  0  0  0  0  0
  187.4570  175.7960  137.5180 C   0  0  0  0  0  3  0  0  0  0  0  0
  192.5460  175.9240  138.4870 C   0  0  0  0  0  2  0  0  0  0  0  0
  186.9100  177.2950  143.3220 Cl  0  0  0  0  0  0  0  0  0  0  0  0
  188.7410  177.2780  141.3000 C   0  0  0  0  0  0  0  0  0  0  0  0
  192.6670  178.0380  139.5680 O   0  0  0  0  0  0  0  0  0  0  0  0
  188.2080  176.5740  138.4120 C   0  0  0  0  0  0  0  0  0  0  0  0
  191.7470  175.6060  137.2360 C   0  0  1  0  0  3  0  0  0  0  0  0
  184.9930  178.1090  138.9410 N   0  0  0  0  0  2  0  0  0  0  0  0
  186.3490  178.3470  138.5320 C   0  0  0  0  0  0  0  0  0  0  0  0
  186.5990  179.1620  137.6010 O   0  0  0  0  0  0  0  0  0  0  0  0
  182.2860  180.6710  138.4710 C   0  0  0  0  0  3  0  0  0  0  0  0
  181.8640  178.7740  137.0280 C   0  0  0  0  0  3  0  0  0  0  0  0
  183.0210  178.1520  137.5070 C   0  0  0  0  0  3  0  0  0  0  0  0
  181.5000  180.0370  137.5040 C   0  0  0  0  0  0  0  0  0  0  0  0
  183.8190  178.7840  138.4670 C   0  0  0  0  0  0  0  0  0  0  0  0
  183.4420  180.0470  138.9490 C   0  0  0  0  0  3  0  0  0  0  0  0
  180.2560  180.6890  137.0120 C   0  0  0  0  0  2  0  0  0  0  0  0
  180.5590  181.9460  136.4870 O   0  0  0  0  0  0  0  0  0  0  0  0
  180.6090  181.7450  135.1070 C   0  0  0  0  0  1  0  0  0  0  0  0
  192.2910  174.3140  136.6390 C   0  0  0  0  0  2  0  0  0  0  0  0
  193.2390  174.6290  135.4950 C   0  0  0  0  0  2  0  0  0  0  0  0
  194.5520  173.8910  135.6820 C   0  0  0  0  0  2  0  0  0  0  0  0
  196.5580  174.6730  136.9030 C   0  0  2  0  0  3  0  0  0  0  0  0
  195.6610  174.8410  135.7250 N   0  0  0  0  0  0  0  0  0  0  0  0
  196.8930  174.0430  135.6320 C   0  0  0  0  0  2  0  0  0  0  0  0
  195.7400  174.2880  139.2210 C   0  0  0  0  0  1  0  0  0  0  0  0
  196.1180  173.6160  137.9160 C   0  0  0  0  0  2  0  0  0  0  0  0
  1 13  1  0  0  0  0
  3 18  1  0  0  0  0
  3  1  1  0  0  0  0
  4  7  2  0  0  0  0
  4  5  1  0  0  0  0
  5  8  2  0  0  0  0
  7 15  1  0  0  0  0
  8 14  1  0  0  0  0
  9 17  1  0  0  0  0
  9  6  1  0  0  0  0
 10 18  1  0  0  0  0
 11 10  2  0  0  0  0
 12 14  1  0  0  0  0
 12 19  2  0  0  0  0
 13  6  2  0  0  0  0
 13  2  1  0  0  0  0
 14  3  2  0  0  0  0
 15 20  2  0  0  0  0
 16 12  1  0  0  0  0
 18  9  2  0  0  0  0
 20  8  1  0  0  0  0
 20 11  1  0  0  0  0
 21 34  1  1  0  0  0
 21  5  1  0  0  0  0
 21 16  1  0  0  0  0
 23 22  1  0  0  0  0
 23 11  1  0  0  0  0
 24 23  2  0  0  0  0
 25 30  1  0  0  0  0
 26 28  1  0  0  0  0
 26 27  2  0  0  0  0
 27 29  1  0  0  0  0
 28 25  2  0  0  0  0
 29 22  1  0  0  0  0
 29 30  2  0  0  0  0
 31 28  1  0  0  0  0
 32 31  1  0  0  0  0
 33 32  1  0  0  0  0
 35 36  1  0  0  0  0
 35 34  1  0  0  0  0
 36 38  1  0  0  0  0
 37 41  1  1  0  0  0
 38 37  1  0  0  0  0
 39 38  1  0  0  0  0
 39 37  1  0  0  0  0
 41 40  1  0  0  0  0
M  END
>  <MODEL>
8

>  <REMARK>
 VINA RESULT:      -5.6      3.281      7.494
  Name = 
  9 active torsions:
  status: ('A' for Active; 'I' for Inactive)
    1  A    between atoms: C_5  and  C_23
    2  A    between atoms: C_5  and  C_37
    3  A    between atoms: N_7  and  C_30
    4  A    between atoms: C_11  and  C_38
    5  A    between atoms: C_17  and  C_34
    6  A    between atoms: O_18  and  C_39
    7  A    between atoms: N_21  and  C_23
    8  A    between atoms: C_28  and  C_39
    9  A    between atoms: C_37  and  C_40
                            x       y       z     vdW  Elec       q    Type
                         _______ _______ _______ _____ _____    ______ ____

>  <TORSDO>
F 9

$$$$
=
 OpenBabel10232408343D

 41 46  0  0  1  0  0  0  0  0999 V2000
  192.1360  176.6280  138.3420 O   0  0  0  0  0  0  0  0  0  0  0  0
  193.9550  177.0300  139.9210 N   0  0  0  0  0  1  0  0  0  0  0  0
  190.7770  176.4380  138.0350 C   0  0  0  0  0  0  0  0  0  0  0  0
  188.1000  173.0000  135.8100 C   0  0  0  0  0  3  0  0  0  0  0  0
  189.2390  173.8090  135.9130 C   0  0  0  0  0  0  0  0  0  0  0  0
  191.6760  177.3060  140.5600 C   0  0  0  0  0  3  0  0  0  0  0  0
  186.9100  173.3570  136.4240 C   0  0  0  0  0  3  0  0  0  0  0  0
  189.1860  175.0210  136.6750 C   0  0  0  0  0  0  0  0  0  0  0  0
  190.2380  177.3180  140.2440 C   0  0  0  0  0  0  0  0  0  0  0  0
  188.4560  177.3690  138.6220 C   0  0  0  0  0  3  0  0  0  0  0  0
  187.6490  176.7800  137.7480 C   0  0  0  0  0  0  0  0  0  0  0  0
  191.5820  175.4210  135.9940 C   0  0  0  0  0  0  0  0  0  0  0  0
  192.5640  176.9950  139.6210 C   0  0  0  0  0  0  0  0  0  0  0  0
  190.4690  175.7710  136.8960 C   0  0  0  0  0  0  0  0  0  0  0  0
  186.8240  174.5690  137.0910 C   0  0  0  0  0  3  0  0  0  0  0  0
  191.7530  174.0040  135.5960 C   0  0  0  0  0  2  0  0  0  0  0  0
  189.1580  177.9770  141.4710 Cl  0  0  0  0  0  0  0  0  0  0  0  0
  189.7910  176.9320  139.0300 C   0  0  0  0  0  0  0  0  0  0  0  0
  192.4110  176.2890  135.6090 O   0  0  0  0  0  0  0  0  0  0  0  0
  187.9240  175.4350  137.1890 C   0  0  0  0  0  0  0  0  0  0  0  0
  190.4470  173.4550  135.0520 C   0  0  1  0  0  3  0  0  0  0  0  0
  185.3710  177.6350  138.4320 N   0  0  0  0  0  2  0  0  0  0  0  0
  186.3790  177.4780  137.4220 C   0  0  0  0  0  0  0  0  0  0  0  0
  186.1740  177.8960  136.2480 O   0  0  0  0  0  0  0  0  0  0  0  0
  181.8630  178.5290  137.4310 C   0  0  0  0  0  3  0  0  0  0  0  0
  182.7700  180.2730  138.8420 C   0  0  0  0  0  3  0  0  0  0  0  0
  183.9690  179.5610  138.9510 C   0  0  0  0  0  3  0  0  0  0  0  0
  181.7140  179.7540  138.0890 C   0  0  0  0  0  0  0  0  0  0  0  0
  184.1220  178.3300  138.3040 C   0  0  0  0  0  0  0  0  0  0  0  0
  183.0620  177.8190  137.5400 C   0  0  0  0  0  3  0  0  0  0  0  0
  180.4460  180.5210  137.9530 C   0  0  0  0  0  2  0  0  0  0  0  0
  180.7110  181.8880  138.0420 O   0  0  0  0  0  0  0  0  0  0  0  0
  180.4570  182.3770  136.7610 C   0  0  0  0  0  1  0  0  0  0  0  0
  190.6160  171.9590  134.8250 C   0  0  0  0  0  2  0  0  0  0  0  0
  192.0290  171.6620  134.3510 C   0  0  0  0  0  2  0  0  0  0  0  0
  192.5650  170.4220  135.0420 C   0  0  0  0  0  2  0  0  0  0  0  0
  194.7200  169.5060  135.8450 C   0  0  2  0  0  3  0  0  0  0  0  0
  194.0020  170.2990  134.8070 N   0  0  0  0  0  0  0  0  0  0  0  0
  194.2680  168.8650  134.6170 C   0  0  0  0  0  2  0  0  0  0  0  0
  194.6990  169.0480  138.2910 C   0  0  0  0  0  1  0  0  0  0  0  0
  193.8640  169.0460  137.0270 C   0  0  0  0  0  2  0  0  0  0  0  0
  1 13  1  0  0  0  0
  3  1  1  0  0  0  0
  3 18  1  0  0  0  0
  4  5  2  0  0  0  0
  4  7  1  0  0  0  0
  5  8  1  0  0  0  0
  7 15  2  0  0  0  0
  8 14  1  0  0  0  0
  8 20  2  0  0  0  0
  9  6  1  0  0  0  0
  9 17  1  0  0  0  0
 10 18  1  0  0  0  0
 11 10  2  0  0  0  0
 12 14  1  0  0  0  0
 13  2  1  0  0  0  0
 13  6  2  0  0  0  0
 14  3  2  0  0  0  0
 15 20  1  0  0  0  0
 16 12  1  0  0  0  0
 18  9  2  0  0  0  0
 19 12  2  0  0  0  0
 20 11  1  0  0  0  0
 21 34  1  1  0  0  0
 21 16  1  0  0  0  0
 21  5  1  0  0  0  0
 23 11  1  0  0  0  0
 23 22  1  0  0  0  0
 24 23  2  0  0  0  0
 25 30  2  0  0  0  0
 25 28  1  0  0  0  0
 26 27  1  0  0  0  0
 28 26  2  0  0  0  0
 29 22  1  0  0  0  0
 29 27  2  0  0  0  0
 30 29  1  0  0  0  0
 31 32  1  0  0  0  0
 31 28  1  0  0  0  0
 33 32  1  0  0  0  0
 35 34  1  0  0  0  0
 35 36  1  0  0  0  0
 37 41  1  1  0  0  0
 38 36  1  0  0  0  0
 38 37  1  0  0  0  0
 39 38  1  0  0  0  0
 39 37  1  0  0  0  0
 41 40  1  0  0  0  0
M  END
>  <MODEL>
9

>  <REMARK>
 VINA RESULT:      -5.3      3.672      7.208
  Name = 
  9 active torsions:
  status: ('A' for Active; 'I' for Inactive)
    1  A    between atoms: C_5  and  C_23
    2  A    between atoms: C_5  and  C_37
    3  A    between atoms: N_7  and  C_30
    4  A    between atoms: C_11  and  C_38
    5  A    between atoms: C_17  and  C_34
    6  A    between atoms: O_18  and  C_39
    7  A    between atoms: N_21  and  C_23
    8  A    between atoms: C_28  and  C_39
    9  A    between atoms: C_37  and  C_40
                            x       y       z     vdW  Elec       q    Type
                         _______ _______ _______ _____ _____    ______ ____

>  <TORSDO>
F 9

$$$$
