=
 OpenBabel10222421483D

 31 31  0  0  1  0  0  0  0  0999 V2000
  189.2630  177.8090  141.1850 N   0  0  0  0  0  0  0  0  0  0  0  0
  191.0200  175.8460  143.9450 C   0  0  0  0  0  2  0  0  0  0  0  0
  191.0460  178.2780  144.5230 C   0  0  0  0  0  2  0  0  0  0  0  0
  190.0370  176.1100  142.8080 C   0  0  0  0  0  2  0  0  0  0  0  0
  190.2050  177.5370  142.2800 C   0  0  2  0  0  3  0  0  0  0  0  0
  190.8210  176.8690  145.0630 C   0  0  2  0  0  3  0  0  0  0  0  0
  190.0560  178.5710  143.3980 C   0  0  0  0  0  2  0  0  0  0  0  0
  191.7870  176.6010  146.2000 C   0  0  0  0  0  2  0  0  0  0  0  0
  191.0830  176.6530  147.4690 N   0  0  0  0  0  2  0  0  0  0  0  0
  189.6680  176.7460  147.1580 C   0  0  0  0  0  2  0  0  0  0  0  0
  189.6980  178.5390  148.7220 O   0  0  0  0  0  0  0  0  0  0  0  0
  187.5980  177.6460  148.2820 N   0  0  0  0  0  1  0  0  0  0  0  0
  189.0090  177.6870  148.1030 C   0  0  0  0  0  0  0  0  0  0  0  0
  190.5440  177.1940  139.2760 C   0  0  0  0  0  3  0  0  0  0  0  0
  189.4090  177.2520  139.8990 N   0  0  0  0  0  0  0  0  0  0  0  0
  189.3590  175.9850  137.5520 N   0  0  0  0  0  1  0  0  0  0  0  0
  190.6370  176.5750  137.9230 C   0  0  2  0  0  3  0  0  0  0  0  0
  191.7660  175.5360  137.8770 C   0  0  1  0  0  3  0  0  0  0  0  0
  191.1430  173.4120  136.3690 C   0  0  0  0  0  3  0  0  0  0  0  0
  191.4190  174.3690  137.0490 C   0  0  0  0  0  0  0  0  0  0  0  0
  193.8620  176.5230  138.4590 O   0  0  0  0  0  1  0  0  0  0  0  0
  193.0620  176.1540  137.3780 C   0  0  0  0  0  2  0  0  0  0  0  0
  186.8920  178.2870  141.0070 C   0  0  0  0  0  3  0  0  0  0  0  0
  188.1130  178.6320  141.4150 C   0  0  0  0  0  3  0  0  0  0  0  0
  185.0660  179.5690  140.2550 O   0  0  0  0  0  0  0  0  0  0  0  0
  185.7200  179.1400  141.2420 C   0  0  0  0  0  0  0  0  0  0  0  0
  185.2700  179.4910  142.6220 C   0  0  0  0  0  2  0  0  0  0  0  0
  184.9120  178.2280  143.3880 C   0  0  0  0  0  2  0  0  0  0  0  0
  185.2260  178.7300  145.7680 C   0  0  0  0  0  2  0  0  0  0  0  0
  186.8820  177.2670  144.7410 C   0  0  0  0  0  1  0  0  0  0  0  0
  185.6880  178.1540  144.6610 C   0  0  0  0  0  0  0  0  0  0  0  0
  1 24  1  0  0  0  0
  2  6  1  0  0  0  0
  3  6  1  0  0  0  0
  4  2  1  0  0  0  0
  5  1  1  6  0  0  0
  5  4  1  0  0  0  0
  5  7  1  0  0  0  0
  6  8  1  1  0  0  0
  7  3  1  0  0  0  0
  8  9  1  0  0  0  0
 10  9  1  0  0  0  0
 10 13  1  0  0  0  0
 13 12  1  0  0  0  0
 13 11  2  0  0  0  0
 14 15  2  0  0  0  0
 15  1  1  0  0  0  0
 17 16  1  1  0  0  0
 17 14  1  0  0  0  0
 18 20  1  6  0  0  0
 18 17  1  0  0  0  0
 19 20  3  0  0  0  0
 22 18  1  0  0  0  0
 22 21  1  0  0  0  0
 23 26  1  0  0  0  0
 23 24  2  0  0  0  0
 25 26  2  0  0  0  0
 26 27  1  0  0  0  0
 27 28  1  0  0  0  0
 28 31  1  0  0  0  0
 31 30  1  0  0  0  0
 31 29  2  0  0  0  0
M  END
>  <MODEL>
1

>  <REMARK>
 VINA RESULT:      -7.2      0.000      0.000
  Name = 
  15 active torsions:
  status: ('A' for Active; 'I' for Inactive)
    1  A    between atoms: C_1  and  N_3
    2  A    between atoms: C_1  and  C_21
    3  A    between atoms: N_3  and  C_31
    4  A    between atoms: C_5  and  C_10
    5  A    between atoms: C_5  and  C_20
    6  A    between atoms: C_14  and  C_20
    7  A    between atoms: C_17  and  C_20
    8  A    between atoms: C_18  and  N_28
    9  A    between atoms: N_19  and  N_28
   10  A    between atoms: C_22  and  C_23
   11  A    between atoms: C_22  and  C_29
   12  A    between atoms: C_24  and  N_28
   13  A    between atoms: C_25  and  C_26
   14  A    between atoms: C_26  and  C_29
   15  A    between atoms: C_27  and  C_31
                            x       y       z     vdW  Elec       q    Type
                         _______ _______ _______ _____ _____    ______ ____

>  <TORSDO>
F 15

$$$$
=
 OpenBabel10222421483D

 31 31  0  0  1  0  0  0  0  0999 V2000
  189.3620  177.7050  141.3440 N   0  0  0  0  0  0  0  0  0  0  0  0
  190.6580  176.7080  137.8960 C   0  0  0  0  0  2  0  0  0  0  0  0
  192.5970  177.2670  139.3720 C   0  0  0  0  0  2  0  0  0  0  0  0
  189.7160  176.7320  139.0960 C   0  0  0  0  0  2  0  0  0  0  0  0
  190.2560  177.6710  140.1780 C   0  0  2  0  0  3  0  0  0  0  0  0
  192.0600  176.2860  138.3350 C   0  0  2  0  0  3  0  0  0  0  0  0
  191.6790  177.2910  140.5930 C   0  0  0  0  0  2  0  0  0  0  0  0
  192.9960  176.2470  137.1430 C   0  0  0  0  0  2  0  0  0  0  0  0
  194.3210  175.8330  137.5670 N   0  0  0  0  0  2  0  0  0  0  0  0
  194.2240  174.4280  137.9230 C   0  0  0  0  0  2  0  0  0  0  0  0
  195.9100  172.9300  138.6830 O   0  0  0  0  0  0  0  0  0  0  0  0
  195.8550  174.9860  139.7640 N   0  0  0  0  0  1  0  0  0  0  0  0
  195.3630  174.0570  138.8060 C   0  0  0  0  0  0  0  0  0  0  0  0
  189.4340  176.8990  143.5820 C   0  0  0  0  0  3  0  0  0  0  0  0
  189.8390  177.7250  142.6700 N   0  0  0  0  0  0  0  0  0  0  0  0
  189.8250  178.2960  145.5150 N   0  0  0  0  0  1  0  0  0  0  0  0
  189.9930  176.9580  144.9630 C   0  0  2  0  0  3  0  0  0  0  0  0
  191.4670  176.5310  144.9740 C   0  0  1  0  0  3  0  0  0  0  0  0
  192.2750  175.7490  147.4050 C   0  0  0  0  0  3  0  0  0  0  0  0
  191.9150  176.1010  146.3080 C   0  0  0  0  0  0  0  0  0  0  0  0
  192.5070  174.4240  144.5400 O   0  0  0  0  0  1  0  0  0  0  0  0
  191.7260  175.4260  143.9630 C   0  0  0  0  0  2  0  0  0  0  0  0
  187.2290  178.8510  141.4660 C   0  0  0  0  0  3  0  0  0  0  0  0
  187.9430  177.7700  141.1590 C   0  0  0  0  0  3  0  0  0  0  0  0
  185.3070  179.4710  140.2560 O   0  0  0  0  0  0  0  0  0  0  0  0
  185.7730  178.9060  141.2790 C   0  0  0  0  0  0  0  0  0  0  0  0
  184.8330  178.2850  142.2600 C   0  0  0  0  0  2  0  0  0  0  0  0
  185.5290  178.0970  143.5980 C   0  0  0  0  0  2  0  0  0  0  0  0
  185.3040  179.0590  145.8420 C   0  0  0  0  0  2  0  0  0  0  0  0
  183.3210  179.1290  144.4270 C   0  0  0  0  0  1  0  0  0  0  0  0
  184.7260  178.7150  144.6930 C   0  0  0  0  0  0  0  0  0  0  0  0
  1 15  1  0  0  0  0
  2  6  1  0  0  0  0
  2  4  1  0  0  0  0
  3  7  1  0  0  0  0
  4  5  1  0  0  0  0
  5  7  1  0  0  0  0
  5  1  1  1  0  0  0
  6  8  1  6  0  0  0
  6  3  1  0  0  0  0
  8  9  1  0  0  0  0
  9 10  1  0  0  0  0
 10 13  1  0  0  0  0
 11 13  2  0  0  0  0
 13 12  1  0  0  0  0
 14 17  1  0  0  0  0
 15 14  2  0  0  0  0
 17 18  1  0  0  0  0
 17 16  1  6  0  0  0
 18 22  1  6  0  0  0
 18 20  1  0  0  0  0
 20 19  3  0  0  0  0
 22 21  1  0  0  0  0
 24  1  1  0  0  0  0
 24 23  2  0  0  0  0
 25 26  2  0  0  0  0
 26 23  1  0  0  0  0
 26 27  1  0  0  0  0
 27 28  1  0  0  0  0
 28 31  1  0  0  0  0
 30 31  1  0  0  0  0
 31 29  2  0  0  0  0
M  END
>  <MODEL>
2

>  <REMARK>
 VINA RESULT:      -6.9      2.433      6.803
  Name = 
  15 active torsions:
  status: ('A' for Active; 'I' for Inactive)
    1  A    between atoms: C_1  and  N_3
    2  A    between atoms: C_1  and  C_21
    3  A    between atoms: N_3  and  C_31
    4  A    between atoms: C_5  and  C_10
    5  A    between atoms: C_5  and  C_20
    6  A    between atoms: C_14  and  C_20
    7  A    between atoms: C_17  and  C_20
    8  A    between atoms: C_18  and  N_28
    9  A    between atoms: N_19  and  N_28
   10  A    between atoms: C_22  and  C_23
   11  A    between atoms: C_22  and  C_29
   12  A    between atoms: C_24  and  N_28
   13  A    between atoms: C_25  and  C_26
   14  A    between atoms: C_26  and  C_29
   15  A    between atoms: C_27  and  C_31
                            x       y       z     vdW  Elec       q    Type
                         _______ _______ _______ _____ _____    ______ ____

>  <TORSDO>
F 15

$$$$
=
 OpenBabel10222421483D

 31 31  0  0  1  0  0  0  0  0999 V2000
  188.5960  178.0460  140.8510 N   0  0  0  0  0  0  0  0  0  0  0  0
  190.3630  176.9570  137.6480 C   0  0  0  0  0  2  0  0  0  0  0  0
  192.0080  176.9690  139.5310 C   0  0  0  0  0  2  0  0  0  0  0  0
  189.2100  177.1380  138.6330 C   0  0  0  0  0  2  0  0  0  0  0  0
  189.6940  177.8650  139.8890 C   0  0  2  0  0  3  0  0  0  0  0  0
  191.5100  176.1960  138.3130 C   0  0  2  0  0  3  0  0  0  0  0  0
  190.8750  177.1410  140.5390 C   0  0  0  0  0  2  0  0  0  0  0  0
  192.6510  176.0030  137.3340 C   0  0  0  0  0  2  0  0  0  0  0  0
  193.9220  176.0860  138.0320 N   0  0  0  0  0  2  0  0  0  0  0  0
  194.7200  174.9600  137.5800 C   0  0  0  0  0  2  0  0  0  0  0  0
  195.8040  174.9980  139.6980 O   0  0  0  0  0  0  0  0  0  0  0  0
  195.4420  172.8810  138.8110 N   0  0  0  0  0  1  0  0  0  0  0  0
  195.3610  174.3000  138.7490 C   0  0  0  0  0  0  0  0  0  0  0  0
  188.7180  176.9100  142.9390 C   0  0  0  0  0  3  0  0  0  0  0  0
  188.7910  178.0030  142.2460 N   0  0  0  0  0  0  0  0  0  0  0  0
  188.1820  177.9950  145.0310 N   0  0  0  0  0  1  0  0  0  0  0  0
  188.9540  176.9270  144.4110 C   0  0  2  0  0  3  0  0  0  0  0  0
  190.4510  177.0670  144.7210 C   0  0  1  0  0  3  0  0  0  0  0  0
  191.4260  179.4560  144.0040 C   0  0  0  0  0  3  0  0  0  0  0  0
  190.9830  178.3810  144.3280 C   0  0  0  0  0  0  0  0  0  0  0  0
  192.0920  176.5680  146.3850 O   0  0  0  0  0  1  0  0  0  0  0  0
  190.7320  176.8170  146.1950 C   0  0  0  0  0  2  0  0  0  0  0  0
  186.3330  178.8560  141.1670 C   0  0  0  0  0  3  0  0  0  0  0  0
  187.2720  178.3270  140.3840 C   0  0  0  0  0  3  0  0  0  0  0  0
  184.8270  179.7170  139.5750 O   0  0  0  0  0  0  0  0  0  0  0  0
  184.9750  179.1350  140.6820 C   0  0  0  0  0  0  0  0  0  0  0  0
  183.7670  178.7220  141.4560 C   0  0  0  0  0  2  0  0  0  0  0  0
  184.1770  178.2130  142.8280 C   0  0  0  0  0  2  0  0  0  0  0  0
  181.9850  178.9350  143.6570 C   0  0  0  0  0  2  0  0  0  0  0  0
  183.8260  179.0030  145.2530 C   0  0  0  0  0  1  0  0  0  0  0  0
  183.2890  178.7850  143.8820 C   0  0  0  0  0  0  0  0  0  0  0  0
  1 15  1  0  0  0  0
  2  6  1  0  0  0  0
  2  4  1  0  0  0  0
  3  7  1  0  0  0  0
  4  5  1  0  0  0  0
  5  7  1  0  0  0  0
  5  1  1  1  0  0  0
  6  8  1  6  0  0  0
  6  3  1  0  0  0  0
  8  9  1  0  0  0  0
 10  9  1  0  0  0  0
 10 13  1  0  0  0  0
 13 12  1  0  0  0  0
 13 11  2  0  0  0  0
 14 17  1  0  0  0  0
 15 14  2  0  0  0  0
 17 18  1  0  0  0  0
 17 16  1  1  0  0  0
 18 20  1  1  0  0  0
 18 22  1  0  0  0  0
 19 20  3  0  0  0  0
 22 21  1  0  0  0  0
 24  1  1  0  0  0  0
 24 23  2  0  0  0  0
 25 26  2  0  0  0  0
 26 23  1  0  0  0  0
 26 27  1  0  0  0  0
 27 28  1  0  0  0  0
 28 31  1  0  0  0  0
 29 31  2  0  0  0  0
 31 30  1  0  0  0  0
M  END
>  <MODEL>
3

>  <REMARK>
 VINA RESULT:      -6.8      2.274      6.797
  Name = 
  15 active torsions:
  status: ('A' for Active; 'I' for Inactive)
    1  A    between atoms: C_1  and  N_3
    2  A    between atoms: C_1  and  C_21
    3  A    between atoms: N_3  and  C_31
    4  A    between atoms: C_5  and  C_10
    5  A    between atoms: C_5  and  C_20
    6  A    between atoms: C_14  and  C_20
    7  A    between atoms: C_17  and  C_20
    8  A    between atoms: C_18  and  N_28
    9  A    between atoms: N_19  and  N_28
   10  A    between atoms: C_22  and  C_23
   11  A    between atoms: C_22  and  C_29
   12  A    between atoms: C_24  and  N_28
   13  A    between atoms: C_25  and  C_26
   14  A    between atoms: C_26  and  C_29
   15  A    between atoms: C_27  and  C_31
                            x       y       z     vdW  Elec       q    Type
                         _______ _______ _______ _____ _____    ______ ____

>  <TORSDO>
F 15

$$$$
=
 OpenBabel10222421483D

 31 31  0  0  1  0  0  0  0  0999 V2000
  188.0950  178.1820  141.0800 N   0  0  0  0  0  0  0  0  0  0  0  0
  190.4320  175.9850  143.1470 C   0  0  0  0  0  2  0  0  0  0  0  0
  190.5700  178.3400  143.9760 C   0  0  0  0  0  2  0  0  0  0  0  0
  189.2200  176.3410  142.2900 C   0  0  0  0  0  2  0  0  0  0  0  0
  189.2570  177.8210  141.9030 C   0  0  2  0  0  3  0  0  0  0  0  0
  190.4790  176.8740  144.3890 C   0  0  2  0  0  3  0  0  0  0  0  0
  189.3540  178.7220  143.1360 C   0  0  0  0  0  2  0  0  0  0  0  0
  191.6750  176.5150  145.2490 C   0  0  0  0  0  2  0  0  0  0  0  0
  191.6020  177.2190  146.5170 N   0  0  0  0  0  2  0  0  0  0  0  0
  190.8200  176.3840  147.4120 C   0  0  0  0  0  2  0  0  0  0  0  0
  188.4550  176.4930  147.6520 O   0  0  0  0  0  0  0  0  0  0  0  0
  189.6020  178.4100  148.2900 N   0  0  0  0  0  1  0  0  0  0  0  0
  189.5590  177.0850  147.7740 C   0  0  0  0  0  0  0  0  0  0  0  0
  189.0810  178.1720  138.9140 C   0  0  0  0  0  3  0  0  0  0  0  0
  188.2150  178.6440  139.7540 N   0  0  0  0  0  0  0  0  0  0  0  0
  187.8450  179.2010  137.1100 N   0  0  0  0  0  1  0  0  0  0  0  0
  189.1460  178.6890  137.5170 C   0  0  2  0  0  3  0  0  0  0  0  0
  189.6440  177.6010  136.5550 C   0  0  1  0  0  3  0  0  0  0  0  0
  191.3440  175.8970  137.7290 C   0  0  0  0  0  3  0  0  0  0  0  0
  190.5750  176.6650  137.2040 C   0  0  0  0  0  0  0  0  0  0  0  0
  188.1460  175.7510  136.7620 O   0  0  0  0  0  1  0  0  0  0  0  0
  188.4810  176.8320  135.9470 C   0  0  0  0  0  2  0  0  0  0  0  0
  185.8920  179.0240  141.6410 C   0  0  0  0  0  3  0  0  0  0  0  0
  186.7690  178.0230  141.5990 C   0  0  0  0  0  3  0  0  0  0  0  0
  183.5470  179.0990  141.4440 O   0  0  0  0  0  0  0  0  0  0  0  0
  184.5360  178.8530  142.1820 C   0  0  0  0  0  0  0  0  0  0  0  0
  184.3040  178.3700  143.5760 C   0  0  0  0  0  2  0  0  0  0  0  0
  184.9260  179.3360  144.5710 C   0  0  0  0  0  2  0  0  0  0  0  0
  185.7730  178.9030  146.8310 C   0  0  0  0  0  2  0  0  0  0  0  0
  186.5410  177.3950  145.0770 C   0  0  0  0  0  1  0  0  0  0  0  0
  185.7960  178.6000  145.5350 C   0  0  0  0  0  0  0  0  0  0  0  0
  1 24  1  0  0  0  0
  2  6  1  0  0  0  0
  3  6  1  0  0  0  0
  4  2  1  0  0  0  0
  5  1  1  1  0  0  0
  5  4  1  0  0  0  0
  5  7  1  0  0  0  0
  6  8  1  1  0  0  0
  7  3  1  0  0  0  0
  8  9  1  0  0  0  0
  9 10  1  0  0  0  0
 10 13  1  0  0  0  0
 11 13  2  0  0  0  0
 13 12  1  0  0  0  0
 14 15  2  0  0  0  0
 15  1  1  0  0  0  0
 17 16  1  6  0  0  0
 17 14  1  0  0  0  0
 18 22  1  1  0  0  0
 18 20  1  0  0  0  0
 18 17  1  0  0  0  0
 20 19  3  0  0  0  0
 22 21  1  0  0  0  0
 23 26  1  0  0  0  0
 24 23  2  0  0  0  0
 25 26  2  0  0  0  0
 26 27  1  0  0  0  0
 27 28  1  0  0  0  0
 28 31  1  0  0  0  0
 30 31  1  0  0  0  0
 31 29  2  0  0  0  0
M  END
>  <MODEL>
4

>  <REMARK>
 VINA RESULT:      -6.7      1.862      2.214
  Name = 
  15 active torsions:
  status: ('A' for Active; 'I' for Inactive)
    1  A    between atoms: C_1  and  N_3
    2  A    between atoms: C_1  and  C_21
    3  A    between atoms: N_3  and  C_31
    4  A    between atoms: C_5  and  C_10
    5  A    between atoms: C_5  and  C_20
    6  A    between atoms: C_14  and  C_20
    7  A    between atoms: C_17  and  C_20
    8  A    between atoms: C_18  and  N_28
    9  A    between atoms: N_19  and  N_28
   10  A    between atoms: C_22  and  C_23
   11  A    between atoms: C_22  and  C_29
   12  A    between atoms: C_24  and  N_28
   13  A    between atoms: C_25  and  C_26
   14  A    between atoms: C_26  and  C_29
   15  A    between atoms: C_27  and  C_31
                            x       y       z     vdW  Elec       q    Type
                         _______ _______ _______ _____ _____    ______ ____

>  <TORSDO>
F 15

$$$$
=
 OpenBabel10222421483D

 31 31  0  0  1  0  0  0  0  0999 V2000
  185.4550  178.7540  142.1070 N   0  0  0  0  0  0  0  0  0  0  0  0
  183.2430  178.8140  138.9980 C   0  0  0  0  0  2  0  0  0  0  0  0
  181.8270  178.3470  141.0040 C   0  0  0  0  0  2  0  0  0  0  0  0
  184.4270  179.1680  139.8950 C   0  0  0  0  0  2  0  0  0  0  0  0
  184.3240  178.4240  141.2290 C   0  0  2  0  0  3  0  0  0  0  0  0
  181.9290  179.1410  139.7060 C   0  0  2  0  0  3  0  0  0  0  0  0
  182.9910  178.7020  141.9270 C   0  0  0  0  0  2  0  0  0  0  0  0
  180.7520  178.8040  138.8120 C   0  0  0  0  0  2  0  0  0  0  0  0
  180.2550  177.4760  139.1270 N   0  0  0  0  0  2  0  0  0  0  0  0
  180.3630  176.6910  137.9110 C   0  0  0  0  0  2  0  0  0  0  0  0
  182.0570  175.4970  139.0790 O   0  0  0  0  0  0  0  0  0  0  0  0
  180.9740  174.2960  137.4110 N   0  0  0  0  0  1  0  0  0  0  0  0
  181.1890  175.4810  138.1680 C   0  0  0  0  0  0  0  0  0  0  0  0
  187.6430  177.8640  141.8170 C   0  0  0  0  0  3  0  0  0  0  0  0
  186.7840  178.8200  141.6450 N   0  0  0  0  0  0  0  0  0  0  0  0
  189.1260  177.3480  139.9800 N   0  0  0  0  0  1  0  0  0  0  0  0
  189.0310  177.9850  141.2860 C   0  0  2  0  0  3  0  0  0  0  0  0
  190.0450  177.3900  142.2730 C   0  0  1  0  0  3  0  0  0  0  0  0
  190.9230  179.1920  144.0490 C   0  0  0  0  0  3  0  0  0  0  0  0
  190.5240  178.3820  143.2490 C   0  0  0  0  0  0  0  0  0  0  0  0
  190.3400  175.1080  142.9170 O   0  0  0  0  0  1  0  0  0  0  0  0
  189.4630  176.1890  143.0020 C   0  0  0  0  0  2  0  0  0  0  0  0
  185.4600  178.2120  144.4700 C   0  0  0  0  0  3  0  0  0  0  0  0
  185.2250  179.0760  143.4840 C   0  0  0  0  0  3  0  0  0  0  0  0
  184.0640  178.9150  146.2310 O   0  0  0  0  0  0  0  0  0  0  0  0
  185.2160  178.5490  145.8790 C   0  0  0  0  0  0  0  0  0  0  0  0
  186.2930  178.4440  146.9080 C   0  0  0  0  0  2  0  0  0  0  0  0
  187.4590  177.6390  146.3580 C   0  0  0  0  0  2  0  0  0  0  0  0
  189.7400  177.0610  147.0480 C   0  0  0  0  0  2  0  0  0  0  0  0
  188.3240  178.0930  148.7410 C   0  0  0  0  0  1  0  0  0  0  0  0
  188.5360  177.5170  147.3840 C   0  0  0  0  0  0  0  0  0  0  0  0
  1 24  1  0  0  0  0
  2  6  1  0  0  0  0
  2  4  1  0  0  0  0
  3  7  1  0  0  0  0
  4  5  1  0  0  0  0
  5  7  1  0  0  0  0
  5  1  1  1  0  0  0
  6  8  1  6  0  0  0
  6  3  1  0  0  0  0
  8  9  1  0  0  0  0
 10 13  1  0  0  0  0
 10  9  1  0  0  0  0
 12 13  1  0  0  0  0
 13 11  2  0  0  0  0
 15 14  2  0  0  0  0
 15  1  1  0  0  0  0
 17 16  1  6  0  0  0
 17 14  1  0  0  0  0
 17 18  1  0  0  0  0
 18 22  1  1  0  0  0
 18 20  1  0  0  0  0
 20 19  3  0  0  0  0
 21 22  1  0  0  0  0
 23 26  1  0  0  0  0
 24 23  2  0  0  0  0
 26 25  2  0  0  0  0
 26 27  1  0  0  0  0
 28 27  1  0  0  0  0
 28 31  1  0  0  0  0
 29 31  2  0  0  0  0
 31 30  1  0  0  0  0
M  END
>  <MODEL>
5

>  <REMARK>
 VINA RESULT:      -6.7      3.883      7.999
  Name = 
  15 active torsions:
  status: ('A' for Active; 'I' for Inactive)
    1  A    between atoms: C_1  and  N_3
    2  A    between atoms: C_1  and  C_21
    3  A    between atoms: N_3  and  C_31
    4  A    between atoms: C_5  and  C_10
    5  A    between atoms: C_5  and  C_20
    6  A    between atoms: C_14  and  C_20
    7  A    between atoms: C_17  and  C_20
    8  A    between atoms: C_18  and  N_28
    9  A    between atoms: N_19  and  N_28
   10  A    between atoms: C_22  and  C_23
   11  A    between atoms: C_22  and  C_29
   12  A    between atoms: C_24  and  N_28
   13  A    between atoms: C_25  and  C_26
   14  A    between atoms: C_26  and  C_29
   15  A    between atoms: C_27  and  C_31
                            x       y       z     vdW  Elec       q    Type
                         _______ _______ _______ _____ _____    ______ ____

>  <TORSDO>
F 15

$$$$
=
 OpenBabel10222421483D

 31 31  0  0  1  0  0  0  0  0999 V2000
  185.6600  178.6760  142.1310 N   0  0  0  0  0  0  0  0  0  0  0  0
  182.0680  178.7250  140.8460 C   0  0  0  0  0  2  0  0  0  0  0  0
  183.6090  179.4100  139.0010 C   0  0  0  0  0  2  0  0  0  0  0  0
  183.2550  178.2870  141.6980 C   0  0  0  0  0  2  0  0  0  0  0  0
  184.5050  179.0870  141.3210 C   0  0  2  0  0  3  0  0  0  0  0  0
  182.3950  178.5620  139.3620 C   0  0  2  0  0  3  0  0  0  0  0  0
  184.8170  178.9720  139.8270 C   0  0  0  0  0  2  0  0  0  0  0  0
  181.2120  178.9830  138.5130 C   0  0  0  0  0  2  0  0  0  0  0  0
  181.5500  180.1700  137.7470 N   0  0  0  0  0  2  0  0  0  0  0  0
  180.6230  181.2090  138.1580 C   0  0  0  0  0  2  0  0  0  0  0  0
  180.5400  181.9230  135.8890 O   0  0  0  0  0  0  0  0  0  0  0  0
  180.4410  183.6270  137.4650 N   0  0  0  0  0  1  0  0  0  0  0  0
  180.5450  182.2550  137.1030 C   0  0  0  0  0  0  0  0  0  0  0  0
  187.9130  177.9080  142.1070 C   0  0  0  0  0  3  0  0  0  0  0  0
  186.9770  178.6660  141.6290 N   0  0  0  0  0  0  0  0  0  0  0  0
  189.2980  177.2040  140.2570 N   0  0  0  0  0  1  0  0  0  0  0  0
  189.2830  177.9290  141.5190 C   0  0  2  0  0  3  0  0  0  0  0  0
  190.3080  177.3530  142.5060 C   0  0  1  0  0  3  0  0  0  0  0  0
  191.2900  179.2120  144.1660 C   0  0  0  0  0  3  0  0  0  0  0  0
  190.8450  178.3780  143.4160 C   0  0  0  0  0  0  0  0  0  0  0  0
  190.3100  175.0050  142.9450 O   0  0  0  0  0  1  0  0  0  0  0  0
  189.7120  176.2100  143.3130 C   0  0  0  0  0  2  0  0  0  0  0  0
  185.4020  179.2120  144.4810 C   0  0  0  0  0  3  0  0  0  0  0  0
  185.4820  178.3110  143.5040 C   0  0  0  0  0  3  0  0  0  0  0  0
  184.0690  178.5700  146.3130 O   0  0  0  0  0  0  0  0  0  0  0  0
  185.2250  178.8280  145.8880 C   0  0  0  0  0  0  0  0  0  0  0  0
  186.3870  178.7110  146.8200 C   0  0  0  0  0  2  0  0  0  0  0  0
  187.3070  177.5900  146.3650 C   0  0  0  0  0  2  0  0  0  0  0  0
  189.6550  177.0590  146.8300 C   0  0  0  0  0  2  0  0  0  0  0  0
  188.3700  177.9990  148.6750 C   0  0  0  0  0  1  0  0  0  0  0  0
  188.4740  177.4700  147.2860 C   0  0  0  0  0  0  0  0  0  0  0  0
  1 24  1  0  0  0  0
  2  4  1  0  0  0  0
  3  6  1  0  0  0  0
  3  7  1  0  0  0  0
  5  4  1  0  0  0  0
  5  1  1  1  0  0  0
  6  8  1  6  0  0  0
  6  2  1  0  0  0  0
  7  5  1  0  0  0  0
  9 10  1  0  0  0  0
  9  8  1  0  0  0  0
 11 13  2  0  0  0  0
 13 12  1  0  0  0  0
 13 10  1  0  0  0  0
 15 14  2  0  0  0  0
 15  1  1  0  0  0  0
 17 16  1  6  0  0  0
 17 14  1  0  0  0  0
 17 18  1  0  0  0  0
 18 22  1  1  0  0  0
 18 20  1  0  0  0  0
 20 19  3  0  0  0  0
 21 22  1  0  0  0  0
 23 26  1  0  0  0  0
 24 23  2  0  0  0  0
 26 25  2  0  0  0  0
 26 27  1  0  0  0  0
 28 27  1  0  0  0  0
 28 31  1  0  0  0  0
 29 31  2  0  0  0  0
 31 30  1  0  0  0  0
M  END
>  <MODEL>
6

>  <REMARK>
 VINA RESULT:      -6.6      4.104      8.345
  Name = 
  15 active torsions:
  status: ('A' for Active; 'I' for Inactive)
    1  A    between atoms: C_1  and  N_3
    2  A    between atoms: C_1  and  C_21
    3  A    between atoms: N_3  and  C_31
    4  A    between atoms: C_5  and  C_10
    5  A    between atoms: C_5  and  C_20
    6  A    between atoms: C_14  and  C_20
    7  A    between atoms: C_17  and  C_20
    8  A    between atoms: C_18  and  N_28
    9  A    between atoms: N_19  and  N_28
   10  A    between atoms: C_22  and  C_23
   11  A    between atoms: C_22  and  C_29
   12  A    between atoms: C_24  and  N_28
   13  A    between atoms: C_25  and  C_26
   14  A    between atoms: C_26  and  C_29
   15  A    between atoms: C_27  and  C_31
                            x       y       z     vdW  Elec       q    Type
                         _______ _______ _______ _____ _____    ______ ____

>  <TORSDO>
F 15

$$$$
=
 OpenBabel10222421483D

 31 31  0  0  1  0  0  0  0  0999 V2000
  189.7620  177.7500  141.4960 N   0  0  0  0  0  0  0  0  0  0  0  0
  192.8210  176.7880  139.4270 C   0  0  0  0  0  2  0  0  0  0  0  0
  190.7630  175.9240  138.3010 C   0  0  0  0  0  2  0  0  0  0  0  0
  191.9690  177.6160  140.3860 C   0  0  0  0  0  2  0  0  0  0  0  0
  190.5970  176.9640  140.5780 C   0  0  2  0  0  3  0  0  0  0  0  0
  192.1010  176.6240  138.0890 C   0  0  2  0  0  3  0  0  0  0  0  0
  189.8850  176.7480  139.2400 C   0  0  0  0  0  2  0  0  0  0  0  0
  192.9500  175.8140  137.1300 C   0  0  0  0  0  2  0  0  0  0  0  0
  194.1830  176.5250  136.8390 N   0  0  0  0  0  2  0  0  0  0  0  0
  194.4830  176.2810  135.4390 C   0  0  0  0  0  2  0  0  0  0  0  0
  196.1390  174.7440  134.6910 O   0  0  0  0  0  0  0  0  0  0  0  0
  196.9540  176.5940  135.8360 N   0  0  0  0  0  1  0  0  0  0  0  0
  195.8890  175.8140  135.3040 C   0  0  0  0  0  0  0  0  0  0  0  0
  190.2700  177.1860  143.7520 C   0  0  0  0  0  3  0  0  0  0  0  0
  190.1650  178.0690  142.8090 N   0  0  0  0  0  0  0  0  0  0  0  0
  191.6020  176.5630  145.6700 N   0  0  0  0  0  1  0  0  0  0  0  0
  190.7210  177.5830  145.1170 C   0  0  2  0  0  3  0  0  0  0  0  0
  189.5180  177.8390  146.0350 C   0  0  1  0  0  3  0  0  0  0  0  0
  187.2420  176.8390  145.0380 C   0  0  0  0  0  3  0  0  0  0  0  0
  188.2680  177.2930  145.4840 C   0  0  0  0  0  0  0  0  0  0  0  0
  188.7520  177.6990  148.2940 O   0  0  0  0  0  1  0  0  0  0  0  0
  189.7580  177.2740  147.4260 C   0  0  0  0  0  2  0  0  0  0  0  0
  187.3750  178.0960  141.7430 C   0  0  0  0  0  3  0  0  0  0  0  0
  188.5020  178.2700  141.0560 C   0  0  0  0  0  3  0  0  0  0  0  0
  185.9990  179.0920  140.1130 O   0  0  0  0  0  0  0  0  0  0  0  0
  186.0870  178.6280  141.2790 C   0  0  0  0  0  0  0  0  0  0  0  0
  184.8730  178.6090  142.1490 C   0  0  0  0  0  2  0  0  0  0  0  0
  185.2190  179.1270  143.5350 C   0  0  0  0  0  2  0  0  0  0  0  0
  184.3390  178.7800  145.7980 C   0  0  0  0  0  2  0  0  0  0  0  0
  182.7020  178.8310  143.9930 C   0  0  0  0  0  1  0  0  0  0  0  0
  184.1060  178.8440  144.4890 C   0  0  0  0  0  0  0  0  0  0  0  0
  1 15  1  0  0  0  0
  2  4  1  0  0  0  0
  3  7  1  0  0  0  0
  4  5  1  0  0  0  0
  5  1  1  1  0  0  0
  6  8  1  6  0  0  0
  6  3  1  0  0  0  0
  6  2  1  0  0  0  0
  7  5  1  0  0  0  0
  9  8  1  0  0  0  0
 10  9  1  0  0  0  0
 11 13  2  0  0  0  0
 13 10  1  0  0  0  0
 13 12  1  0  0  0  0
 14 17  1  0  0  0  0
 15 14  2  0  0  0  0
 17 16  1  1  0  0  0
 17 18  1  0  0  0  0
 18 20  1  6  0  0  0
 18 22  1  0  0  0  0
 19 20  3  0  0  0  0
 22 21  1  0  0  0  0
 24  1  1  0  0  0  0
 24 23  2  0  0  0  0
 25 26  2  0  0  0  0
 26 23  1  0  0  0  0
 26 27  1  0  0  0  0
 27 28  1  0  0  0  0
 28 31  1  0  0  0  0
 30 31  1  0  0  0  0
 31 29  2  0  0  0  0
M  END
>  <MODEL>
7

>  <REMARK>
 VINA RESULT:      -6.6      2.337      7.876
  Name = 
  15 active torsions:
  status: ('A' for Active; 'I' for Inactive)
    1  A    between atoms: C_1  and  N_3
    2  A    between atoms: C_1  and  C_21
    3  A    between atoms: N_3  and  C_31
    4  A    between atoms: C_5  and  C_10
    5  A    between atoms: C_5  and  C_20
    6  A    between atoms: C_14  and  C_20
    7  A    between atoms: C_17  and  C_20
    8  A    between atoms: C_18  and  N_28
    9  A    between atoms: N_19  and  N_28
   10  A    between atoms: C_22  and  C_23
   11  A    between atoms: C_22  and  C_29
   12  A    between atoms: C_24  and  N_28
   13  A    between atoms: C_25  and  C_26
   14  A    between atoms: C_26  and  C_29
   15  A    between atoms: C_27  and  C_31
                            x       y       z     vdW  Elec       q    Type
                         _______ _______ _______ _____ _____    ______ ____

>  <TORSDO>
F 15

$$$$
=
 OpenBabel10222421483D

 31 31  0  0  1  0  0  0  0  0999 V2000
  189.2730  177.8480  140.9390 N   0  0  0  0  0  0  0  0  0  0  0  0
  189.4100  176.9430  137.2340 C   0  0  0  0  0  2  0  0  0  0  0  0
  191.6750  176.6220  138.2420 C   0  0  0  0  0  2  0  0  0  0  0  0
  188.8000  177.1210  138.6210 C   0  0  0  0  0  2  0  0  0  0  0  0
  189.8440  177.6730  139.5950 C   0  0  2  0  0  3  0  0  0  0  0  0
  190.6290  176.0240  137.3080 C   0  0  2  0  0  3  0  0  0  0  0  0
  191.0910  176.7880  139.6430 C   0  0  0  0  0  2  0  0  0  0  0  0
  191.2300  175.8340  135.9290 C   0  0  0  0  0  2  0  0  0  0  0  0
  192.4620  175.0720  136.0270 N   0  0  0  0  0  2  0  0  0  0  0  0
  193.4070  175.6890  135.1130 C   0  0  0  0  0  2  0  0  0  0  0  0
  195.0220  175.5950  136.8590 O   0  0  0  0  0  0  0  0  0  0  0  0
  195.1590  177.4640  135.4850 N   0  0  0  0  0  1  0  0  0  0  0  0
  194.5590  176.2360  135.8790 C   0  0  0  0  0  0  0  0  0  0  0  0
  187.3360  178.0040  142.3120 C   0  0  0  0  0  3  0  0  0  0  0  0
  187.9090  178.1260  141.1560 N   0  0  0  0  0  0  0  0  0  0  0  0
  185.4990  179.3760  141.5440 N   0  0  0  0  0  1  0  0  0  0  0  0
  185.8910  178.3320  142.4820 C   0  0  2  0  0  3  0  0  0  0  0  0
  185.5930  178.7430  143.9300 C   0  0  1  0  0  3  0  0  0  0  0  0
  182.9670  178.8150  144.4530 C   0  0  0  0  0  3  0  0  0  0  0  0
  184.1500  178.7790  144.2160 C   0  0  0  0  0  0  0  0  0  0  0  0
  186.4960  178.4850  146.1280 O   0  0  0  0  0  1  0  0  0  0  0  0
  186.2910  177.8210  144.9180 C   0  0  0  0  0  2  0  0  0  0  0  0
  190.3000  176.5080  142.6780 C   0  0  0  0  0  3  0  0  0  0  0  0
  190.1000  177.6890  142.0970 C   0  0  0  0  0  3  0  0  0  0  0  0
  191.8600  175.3260  143.9880 O   0  0  0  0  0  0  0  0  0  0  0  0
  191.1450  176.3560  143.8700 C   0  0  0  0  0  0  0  0  0  0  0  0
  191.1960  177.4040  144.9330 C   0  0  0  0  0  2  0  0  0  0  0  0
  189.8570  177.4860  145.6460 C   0  0  0  0  0  2  0  0  0  0  0  0
  188.9130  176.9210  147.8370 C   0  0  0  0  0  2  0  0  0  0  0  0
  191.2440  176.3110  147.4700 C   0  0  0  0  0  1  0  0  0  0  0  0
  189.9770  176.9650  147.0390 C   0  0  0  0  0  0  0  0  0  0  0  0
  1 15  1  0  0  0  0
  1 24  1  0  0  0  0
  2  6  1  0  0  0  0
  2  4  1  0  0  0  0
  3  7  1  0  0  0  0
  4  5  1  0  0  0  0
  5  7  1  0  0  0  0
  5  1  1  1  0  0  0
  6  8  1  6  0  0  0
  6  3  1  0  0  0  0
  8  9  1  0  0  0  0
 10 13  1  0  0  0  0
 10  9  1  0  0  0  0
 12 13  1  0  0  0  0
 13 11  2  0  0  0  0
 14 17  1  0  0  0  0
 15 14  2  0  0  0  0
 17 16  1  6  0  0  0
 17 18  1  0  0  0  0
 18 20  1  1  0  0  0
 18 22  1  0  0  0  0
 20 19  3  0  0  0  0
 22 21  1  0  0  0  0
 23 26  1  0  0  0  0
 24 23  2  0  0  0  0
 26 25  2  0  0  0  0
 26 27  1  0  0  0  0
 27 28  1  0  0  0  0
 28 31  1  0  0  0  0
 31 30  1  0  0  0  0
 31 29  2  0  0  0  0
M  END
>  <MODEL>
8

>  <REMARK>
 VINA RESULT:      -6.5      2.585      8.388
  Name = 
  15 active torsions:
  status: ('A' for Active; 'I' for Inactive)
    1  A    between atoms: C_1  and  N_3
    2  A    between atoms: C_1  and  C_21
    3  A    between atoms: N_3  and  C_31
    4  A    between atoms: C_5  and  C_10
    5  A    between atoms: C_5  and  C_20
    6  A    between atoms: C_14  and  C_20
    7  A    between atoms: C_17  and  C_20
    8  A    between atoms: C_18  and  N_28
    9  A    between atoms: N_19  and  N_28
   10  A    between atoms: C_22  and  C_23
   11  A    between atoms: C_22  and  C_29
   12  A    between atoms: C_24  and  N_28
   13  A    between atoms: C_25  and  C_26
   14  A    between atoms: C_26  and  C_29
   15  A    between atoms: C_27  and  C_31
                            x       y       z     vdW  Elec       q    Type
                         _______ _______ _______ _____ _____    ______ ____

>  <TORSDO>
F 15

$$$$
=
 OpenBabel10222421483D

 31 31  0  0  1  0  0  0  0  0999 V2000
  188.2790  177.4060  142.9110 N   0  0  0  0  0  0  0  0  0  0  0  0
  191.8590  177.2490  141.5980 C   0  0  0  0  0  2  0  0  0  0  0  0
  190.2720  176.8740  139.7040 C   0  0  0  0  0  2  0  0  0  0  0  0
  190.7050  177.6740  142.5030 C   0  0  0  0  0  2  0  0  0  0  0  0
  189.4030  177.0060  142.0530 C   0  0  2  0  0  3  0  0  0  0  0  0
  191.5420  177.5930  140.1430 C   0  0  2  0  0  3  0  0  0  0  0  0
  189.0980  177.3020  140.5820 C   0  0  0  0  0  2  0  0  0  0  0  0
  192.6920  177.1850  139.2440 C   0  0  0  0  0  2  0  0  0  0  0  0
  192.2510  176.1670  138.3070 N   0  0  0  0  0  2  0  0  0  0  0  0
  193.4500  175.5880  137.7270 C   0  0  0  0  0  2  0  0  0  0  0  0
  192.6720  176.1260  135.5430 O   0  0  0  0  0  0  0  0  0  0  0  0
  194.9050  176.6270  135.9480 N   0  0  0  0  0  1  0  0  0  0  0  0
  193.6400  176.1110  136.3470 C   0  0  0  0  0  0  0  0  0  0  0  0
  185.9400  177.8400  142.8500 C   0  0  0  0  0  3  0  0  0  0  0  0
  187.1390  178.0680  142.4140 N   0  0  0  0  0  0  0  0  0  0  0  0
  185.2210  179.5330  141.2820 N   0  0  0  0  0  1  0  0  0  0  0  0
  184.7750  178.5880  142.2960 C   0  0  2  0  0  3  0  0  0  0  0  0
  183.9990  179.2960  143.4160 C   0  0  1  0  0  3  0  0  0  0  0  0
  181.3700  178.7950  143.3150 C   0  0  0  0  0  3  0  0  0  0  0  0
  182.5550  179.0160  143.3590 C   0  0  0  0  0  0  0  0  0  0  0  0
  183.5830  179.1670  145.7650 O   0  0  0  0  0  1  0  0  0  0  0  0
  184.5430  178.9180  144.7850 C   0  0  0  0  0  2  0  0  0  0  0  0
  188.1790  178.0080  145.2580 C   0  0  0  0  0  3  0  0  0  0  0  0
  188.2900  177.0820  144.3060 C   0  0  0  0  0  3  0  0  0  0  0  0
  187.1430  177.2470  147.2310 O   0  0  0  0  0  0  0  0  0  0  0  0
  188.1970  177.6660  146.6870 C   0  0  0  0  0  0  0  0  0  0  0  0
  189.4430  177.7810  147.5030 C   0  0  0  0  0  2  0  0  0  0  0  0
  190.0280  176.4010  147.7540 C   0  0  0  0  0  2  0  0  0  0  0  0
  191.6140  176.8680  145.9430 C   0  0  0  0  0  2  0  0  0  0  0  0
  192.4950  175.6720  147.8750 C   0  0  0  0  0  1  0  0  0  0  0  0
  191.3700  176.2810  147.1120 C   0  0  0  0  0  0  0  0  0  0  0  0
  1 24  1  0  0  0  0
  2  4  1  0  0  0  0
  3  6  1  0  0  0  0
  3  7  1  0  0  0  0
  5  4  1  0  0  0  0
  5  1  1  1  0  0  0
  6  8  1  6  0  0  0
  6  2  1  0  0  0  0
  7  5  1  0  0  0  0
  9  8  1  0  0  0  0
 10  9  1  0  0  0  0
 11 13  2  0  0  0  0
 12 13  1  0  0  0  0
 13 10  1  0  0  0  0
 15 14  2  0  0  0  0
 15  1  1  0  0  0  0
 17 16  1  6  0  0  0
 17 14  1  0  0  0  0
 17 18  1  0  0  0  0
 18 20  1  1  0  0  0
 18 22  1  0  0  0  0
 19 20  3  0  0  0  0
 22 21  1  0  0  0  0
 23 26  1  0  0  0  0
 24 23  2  0  0  0  0
 26 25  2  0  0  0  0
 26 27  1  0  0  0  0
 27 28  1  0  0  0  0
 29 31  2  0  0  0  0
 31 28  1  0  0  0  0
 31 30  1  0  0  0  0
M  END
>  <MODEL>
9

>  <REMARK>
 VINA RESULT:      -6.5      2.510      8.212
  Name = 
  15 active torsions:
  status: ('A' for Active; 'I' for Inactive)
    1  A    between atoms: C_1  and  N_3
    2  A    between atoms: C_1  and  C_21
    3  A    between atoms: N_3  and  C_31
    4  A    between atoms: C_5  and  C_10
    5  A    between atoms: C_5  and  C_20
    6  A    between atoms: C_14  and  C_20
    7  A    between atoms: C_17  and  C_20
    8  A    between atoms: C_18  and  N_28
    9  A    between atoms: N_19  and  N_28
   10  A    between atoms: C_22  and  C_23
   11  A    between atoms: C_22  and  C_29
   12  A    between atoms: C_24  and  N_28
   13  A    between atoms: C_25  and  C_26
   14  A    between atoms: C_26  and  C_29
   15  A    between atoms: C_27  and  C_31
                            x       y       z     vdW  Elec       q    Type
                         _______ _______ _______ _____ _____    ______ ____

>  <TORSDO>
F 15

$$$$
