=
 OpenBabel10232412413D

 37 44  0  0  1  0  0  0  0  0999 V2000
  189.6780  176.7560  139.8890 N   0  0  2  0  0  0  0  0  0  0  0  0
  190.4130  177.3220  137.9190 C   0  0  2  0  0  3  0  0  0  0  0  0
  188.3320  176.2470  137.8180 C   0  0  2  0  0  3  0  0  0  0  0  0
  187.1530  177.0870  137.2630 C   0  0  1  0  0  0  0  0  0  0  0  0
  186.5770  178.0290  138.3110 C   0  0  0  0  0  1  0  0  0  0  0  0
  190.2540  174.0890  134.4940 C   0  0  0  0  0  0  0  0  0  0  0  0
  192.7270  176.4850  137.8940 S   0  0  0  0  0  0  0  0  0  0  0  0
  191.6140  171.7010  135.0280 C   0  0  0  0  0  0  0  0  0  0  0  0
  191.4720  177.2610  141.3200 C   0  0  0  0  0  2  0  0  0  0  0  0
  190.1630  177.2580  142.1370 C   0  0  1  0  0  3  0  0  0  0  0  0
  189.2860  177.0690  138.6380 C   0  0  1  0  0  3  0  0  0  0  0  0
  187.9210  176.9310  134.9120 C   0  0  2  0  0  3  0  0  0  0  0  0
  192.2740  170.5450  135.2750 F   0  0  0  0  0  0  0  0  0  0  0  0
  192.4890  175.6760  134.9270 S   0  0  0  0  0  0  0  0  0  0  0  0
  189.5340  175.3180  134.3670 N   0  0  0  0  0  2  0  0  0  0  0  0
  190.2550  171.6750  134.7010 C   0  0  0  0  0  3  0  0  0  0  0  0
  191.6130  174.1170  134.8420 C   0  0  0  0  0  0  0  0  0  0  0  0
  189.2680  175.7570  136.6620 C   0  0  1  0  0  3  0  0  0  0  0  0
  184.6510  177.5150  135.4500 O   0  0  0  0  0  1  0  0  0  0  0  0
  189.5720  172.8680  134.4460 C   0  0  0  0  0  3  0  0  0  0  0  0
  185.4590  176.3780  135.4260 C   0  0  2  0  0  3  0  0  0  0  0  0
  188.5980  175.6900  135.3450 N   0  0  1  0  0  0  0  0  0  0  0  0
  190.4970  176.6430  136.7250 C   0  0  2  0  0  3  0  0  0  0  0  0
  189.0120  177.0160  141.1420 C   0  0  0  0  0  2  0  0  0  0  0  0
  187.6730  177.9070  136.0730 C   0  0  0  0  0  2  0  0  0  0  0  0
  192.2910  172.9220  135.1040 C   0  0  0  0  0  3  0  0  0  0  0  0
  186.0290  176.1150  136.8340 C   0  0  0  0  0  2  0  0  0  0  0  0
  191.5160  177.2930  138.7420 C   0  0  2  0  0  3  0  0  0  0  0  0
  190.9990  176.9080  139.9670 C   0  0  2  0  0  3  0  0  0  0  0  0
  191.7970  176.1730  136.5100 C   0  0  2  0  0  3  0  0  0  0  0  0
  186.5510  176.5390  134.3460 C   0  0  0  0  0  2  0  0  0  0  0  0
  190.1890  176.1340  143.1570 C   0  0  0  0  0  2  0  0  0  0  0  0
  191.4190  176.1210  143.8180 O   0  0  0  0  0  0  0  0  0  0  0  0
  191.2610  177.2280  145.0920 P   0  0  0  0  0  0  0  0  0  0  0  0
  192.0240  176.7330  146.3010 O   0  0  0  0  0  1  0  0  0  0  0  0
  191.8590  178.7410  144.6230 O   0  0  0  0  0  0  0  0  0  0  0  0
  189.6250  177.3780  145.4910 O   0  0  0  0  0  1  0  0  0  0  0  0
  1 29  1  0  0  0  0
  1 24  1  1  0  0  0
  2 11  1  0  0  0  0
  2 28  1  0  0  0  0
  3 11  1  0  0  0  0
  4  3  1  0  0  0  0
  4  5  1  0  0  0  0
  6 17  1  0  0  0  0
  7 28  1  0  0  0  0
  8 26  1  0  0  0  0
  8 13  1  0  0  0  0
  9 10  1  0  0  0  0
 10 32  1  0  0  0  0
 11  1  1  0  0  0  0
 12 22  1  0  0  0  0
 12 25  1  0  0  0  0
 14 30  1  0  0  0  0
 15  6  1  0  0  0  0
 15 22  1  0  0  0  0
 16  8  2  0  0  0  0
 17 14  1  0  0  0  0
 17 26  2  0  0  0  0
 18 23  1  0  0  0  0
 18  3  1  0  0  0  0
 20  6  2  0  0  0  0
 20 16  1  0  0  0  0
 21 19  1  0  0  0  0
 21 27  1  0  0  0  0
 22 18  1  0  0  0  0
 23  2  1  0  0  0  0
 24 10  1  0  0  0  0
 25  4  1  0  0  0  0
 27  4  1  0  0  0  0
 28 29  1  0  0  0  0
 29  9  1  0  0  0  0
 30 23  1  0  0  0  0
 30  7  1  0  0  0  0
 31 12  1  0  0  0  0
 31 21  1  0  0  0  0
 32 33  1  0  0  0  0
 33 34  1  0  0  0  0
 34 37  1  0  0  0  0
 34 35  1  0  0  0  0
 36 34  2  0  0  0  0
M  END
>  <MODEL>
1

>  <REMARK>
 VINA RESULT:      -7.4      0.000      0.000
  Name = 
  3 active torsions:
  status: ('A' for Active; 'I' for Inactive)
    1  A    between atoms: P_3  and  O_19
    2  A    between atoms: C_11  and  C_33
    3  A    between atoms: O_19  and  C_33
                            x       y       z     vdW  Elec       q    Type
                         _______ _______ _______ _____ _____    ______ ____

>  <TORSDO>
F 3

$$$$
=
 OpenBabel10232412413D

 37 44  0  0  1  0  0  0  0  0999 V2000
  187.9940  174.2800  135.9440 N   0  0  2  0  0  0  0  0  0  0  0  0
  188.7350  176.2720  136.4130 C   0  0  2  0  0  3  0  0  0  0  0  0
  190.1970  174.5870  137.1320 C   0  0  2  0  0  3  0  0  0  0  0  0
  191.6020  174.5710  136.4740 C   0  0  1  0  0  0  0  0  0  0  0  0
  191.5830  173.9200  135.0990 C   0  0  0  0  0  1  0  0  0  0  0  0
  190.3390  177.0610  140.7740 C   0  0  0  0  0  0  0  0  0  0  0  0
  186.8110  177.3800  137.4760 S   0  0  0  0  0  0  0  0  0  0  0  0
  188.5170  176.5490  142.8370 C   0  0  0  0  0  0  0  0  0  0  0  0
  185.8350  174.6700  135.1040 C   0  0  0  0  0  2  0  0  0  0  0  0
  186.3440  173.3160  134.5700 C   0  0  1  0  0  3  0  0  0  0  0  0
  189.1170  174.9900  136.1680 C   0  0  1  0  0  3  0  0  0  0  0  0
  192.4140  176.5300  137.7560 C   0  0  2  0  0  3  0  0  0  0  0  0
  187.6410  176.3100  143.8410 F   0  0  0  0  0  0  0  0  0  0  0  0
  188.6520  178.8390  139.4740 S   0  0  0  0  0  0  0  0  0  0  0  0
  191.2020  177.2140  139.6440 N   0  0  0  0  0  2  0  0  0  0  0  0
  189.7580  175.9050  142.8230 C   0  0  0  0  0  3  0  0  0  0  0  0
  189.0850  177.6910  140.7770 C   0  0  0  0  0  0  0  0  0  0  0  0
  190.0890  175.7240  138.2030 C   0  0  1  0  0  3  0  0  0  0  0  0
  194.7140  174.3830  136.5620 O   0  0  0  0  0  1  0  0  0  0  0  0
  190.6630  176.1510  141.7870 C   0  0  0  0  0  3  0  0  0  0  0  0
  193.8930  174.4230  137.6890 C   0  0  2  0  0  3  0  0  0  0  0  0
  191.3960  176.1430  138.7560 N   0  0  1  0  0  0  0  0  0  0  0  0
  189.2710  176.8230  137.5550 C   0  0  2  0  0  3  0  0  0  0  0  0
  187.7910  173.1500  135.0700 C   0  0  0  0  0  2  0  0  0  0  0  0
  192.0810  176.0240  136.3440 C   0  0  0  0  0  2  0  0  0  0  0  0
  188.1790  177.4370  141.8110 C   0  0  0  0  0  3  0  0  0  0  0  0
  192.5460  173.7410  137.3760 C   0  0  0  0  0  2  0  0  0  0  0  0
  187.3790  176.4070  136.2220 C   0  0  2  0  0  3  0  0  0  0  0  0
  186.9570  175.1160  135.9520 C   0  0  2  0  0  3  0  0  0  0  0  0
  188.3130  177.5770  138.2410 C   0  0  2  0  0  3  0  0  0  0  0  0
  193.7410  175.8820  138.1710 C   0  0  0  0  0  2  0  0  0  0  0  0
  185.4910  172.1870  135.1180 C   0  0  0  0  0  2  0  0  0  0  0  0
  184.1570  172.5930  135.1970 O   0  0  0  0  0  0  0  0  0  0  0  0
  183.6600  172.2180  136.7730 P   0  0  0  0  0  0  0  0  0  0  0  0
  183.3850  170.7340  136.8860 O   0  0  0  0  0  0  0  0  0  0  0  0
  184.8610  172.6590  137.8810 O   0  0  0  0  0  1  0  0  0  0  0  0
  182.2440  173.0720  137.1220 O   0  0  0  0  0  1  0  0  0  0  0  0
  1 24  1  6  0  0  0
  1 29  1  0  0  0  0
  1 11  1  0  0  0  0
  2 23  1  0  0  0  0
  3 18  1  0  0  0  0
  4  3  1  0  0  0  0
  4 27  1  0  0  0  0
  5  4  1  0  0  0  0
  6 17  2  0  0  0  0
  6 20  1  0  0  0  0
  7 30  1  0  0  0  0
  8 13  1  0  0  0  0
  9 29  1  0  0  0  0
 10 24  1  0  0  0  0
 10  9  1  0  0  0  0
 10 32  1  0  0  0  0
 11  2  1  0  0  0  0
 11  3  1  0  0  0  0
 12 31  1  0  0  0  0
 12 22  1  0  0  0  0
 14 17  1  0  0  0  0
 15  6  1  0  0  0  0
 16  8  1  0  0  0  0
 17 26  1  0  0  0  0
 18 22  1  0  0  0  0
 19 21  1  0  0  0  0
 20 16  2  0  0  0  0
 21 31  1  0  0  0  0
 22 15  1  0  0  0  0
 23 18  1  0  0  0  0
 23 30  1  0  0  0  0
 25  4  1  0  0  0  0
 25 12  1  0  0  0  0
 26  8  2  0  0  0  0
 27 21  1  0  0  0  0
 28  2  1  0  0  0  0
 28  7  1  0  0  0  0
 29 28  1  0  0  0  0
 30 14  1  0  0  0  0
 32 33  1  0  0  0  0
 33 34  1  0  0  0  0
 34 35  2  0  0  0  0
 34 37  1  0  0  0  0
 34 36  1  0  0  0  0
M  END
>  <MODEL>
2

>  <REMARK>
 VINA RESULT:      -7.3      4.663      7.963
  Name = 
  3 active torsions:
  status: ('A' for Active; 'I' for Inactive)
    1  A    between atoms: P_3  and  O_19
    2  A    between atoms: C_11  and  C_33
    3  A    between atoms: O_19  and  C_33
                            x       y       z     vdW  Elec       q    Type
                         _______ _______ _______ _____ _____    ______ ____

>  <TORSDO>
F 3

$$$$
=
 OpenBabel10232412413D

 37 44  0  0  1  0  0  0  0  0999 V2000
  189.7690  176.8320  140.2270 N   0  0  2  0  0  0  0  0  0  0  0  0
  190.7230  177.3960  138.3540 C   0  0  2  0  0  3  0  0  0  0  0  0
  188.6990  176.2660  138.0150 C   0  0  2  0  0  3  0  0  0  0  0  0
  187.5740  177.0690  137.3100 C   0  0  1  0  0  0  0  0  0  0  0  0
  186.8520  178.0050  138.2690 C   0  0  0  0  0  1  0  0  0  0  0  0
  191.0640  174.1270  134.9770 C   0  0  0  0  0  0  0  0  0  0  0  0
  193.0440  176.6220  138.6210 S   0  0  0  0  0  0  0  0  0  0  0  0
  192.4080  171.7810  135.7040 C   0  0  0  0  0  0  0  0  0  0  0  0
  191.3620  177.3980  141.8590 C   0  0  0  0  0  2  0  0  0  0  0  0
  189.9640  177.3680  142.5110 C   0  0  1  0  0  3  0  0  0  0  0  0
  189.5240  177.1210  138.9340 C   0  0  1  0  0  3  0  0  0  0  0  0
  188.6270  176.9100  135.0720 C   0  0  2  0  0  3  0  0  0  0  0  0
  193.0620  170.6460  136.0450 F   0  0  0  0  0  0  0  0  0  0  0  0
  193.1880  175.7770  135.6580 S   0  0  0  0  0  0  0  0  0  0  0  0
  190.3340  175.3350  134.7480 N   0  0  0  0  0  2  0  0  0  0  0  0
  191.1010  171.7150  135.2150 C   0  0  0  0  0  3  0  0  0  0  0  0
  192.3700  174.1940  135.4880 C   0  0  0  0  0  0  0  0  0  0  0  0
  189.7800  175.7890  136.9880 C   0  0  1  0  0  3  0  0  0  0  0  0
  185.3010  177.4120  135.2020 O   0  0  0  0  0  1  0  0  0  0  0  0
  190.4240  172.8870  134.8630 C   0  0  0  0  0  3  0  0  0  0  0  0
  186.1350  176.2960  135.2910 C   0  0  2  0  0  3  0  0  0  0  0  0
  189.2770  175.6910  135.6000 N   0  0  1  0  0  0  0  0  0  0  0  0
  190.9690  176.7080  137.1880 C   0  0  2  0  0  3  0  0  0  0  0  0
  188.9490  177.0860  141.3870 C   0  0  0  0  0  2  0  0  0  0  0  0
  188.2140  177.8900  136.1810 C   0  0  0  0  0  2  0  0  0  0  0  0
  193.0400  173.0210  135.8460 C   0  0  0  0  0  3  0  0  0  0  0  0
  186.5360  176.0620  136.7610 C   0  0  0  0  0  2  0  0  0  0  0  0
  191.7180  177.4060  139.3050 C   0  0  2  0  0  3  0  0  0  0  0  0
  191.0670  177.0190  140.4630 C   0  0  2  0  0  3  0  0  0  0  0  0
  192.2970  176.2710  137.1380 C   0  0  2  0  0  3  0  0  0  0  0  0
  187.3460  176.4750  134.3490 C   0  0  0  0  0  2  0  0  0  0  0  0
  189.8940  176.2560  143.5410 C   0  0  0  0  0  2  0  0  0  0  0  0
  191.1650  176.0160  144.0680 O   0  0  0  0  0  0  0  0  0  0  0  0
  191.2350  176.9060  145.5090 P   0  0  0  0  0  0  0  0  0  0  0  0
  189.8360  177.1370  146.0390 O   0  0  0  0  0  1  0  0  0  0  0  0
  192.1500  176.0720  146.6630 O   0  0  0  0  0  1  0  0  0  0  0  0
  191.9630  178.4000  145.1980 O   0  0  0  0  0  0  0  0  0  0  0  0
  1 29  1  0  0  0  0
  1 24  1  1  0  0  0
  2 11  1  0  0  0  0
  2 28  1  0  0  0  0
  3 11  1  0  0  0  0
  4  3  1  0  0  0  0
  4  5  1  0  0  0  0
  6 17  1  0  0  0  0
  7 28  1  0  0  0  0
  8 26  1  0  0  0  0
  8 13  1  0  0  0  0
  9 10  1  0  0  0  0
 10 32  1  0  0  0  0
 11  1  1  0  0  0  0
 12 22  1  0  0  0  0
 12 25  1  0  0  0  0
 14 30  1  0  0  0  0
 15  6  1  0  0  0  0
 15 22  1  0  0  0  0
 16  8  2  0  0  0  0
 17 14  1  0  0  0  0
 17 26  2  0  0  0  0
 18 23  1  0  0  0  0
 18  3  1  0  0  0  0
 19 21  1  0  0  0  0
 20  6  2  0  0  0  0
 20 16  1  0  0  0  0
 21 27  1  0  0  0  0
 22 18  1  0  0  0  0
 23  2  1  0  0  0  0
 24 10  1  0  0  0  0
 25  4  1  0  0  0  0
 27  4  1  0  0  0  0
 28 29  1  0  0  0  0
 29  9  1  0  0  0  0
 30 23  1  0  0  0  0
 30  7  1  0  0  0  0
 31 12  1  0  0  0  0
 31 21  1  0  0  0  0
 32 33  1  0  0  0  0
 33 34  1  0  0  0  0
 34 35  1  0  0  0  0
 34 36  1  0  0  0  0
 37 34  2  0  0  0  0
M  END
>  <MODEL>
3

>  <REMARK>
 VINA RESULT:      -7.2      0.687      1.043
  Name = 
  3 active torsions:
  status: ('A' for Active; 'I' for Inactive)
    1  A    between atoms: P_3  and  O_19
    2  A    between atoms: C_11  and  C_33
    3  A    between atoms: O_19  and  C_33
                            x       y       z     vdW  Elec       q    Type
                         _______ _______ _______ _____ _____    ______ ____

>  <TORSDO>
F 3

$$$$
=
 OpenBabel10232412413D

 37 44  0  0  1  0  0  0  0  0999 V2000
  186.5980  177.8150  139.1750 N   0  0  2  0  0  0  0  0  0  0  0  0
  185.5670  177.8850  137.2600 C   0  0  2  0  0  3  0  0  0  0  0  0
  184.1270  177.3360  139.0260 C   0  0  2  0  0  3  0  0  0  0  0  0
  182.9810  178.3400  139.3140 C   0  0  1  0  0  0  0  0  0  0  0  0
  183.4590  179.5390  140.1210 C   0  0  0  0  0  1  0  0  0  0  0  0
  182.7040  174.3050  136.1640 C   0  0  0  0  0  0  0  0  0  0  0  0
  186.9860  176.5260  135.7780 S   0  0  0  0  0  0  0  0  0  0  0  0
  183.8910  171.7710  136.1650 C   0  0  0  0  0  0  0  0  0  0  0  0
  188.8610  178.0870  138.6010 C   0  0  0  0  0  2  0  0  0  0  0  0
  188.6590  178.5190  140.0680 C   0  0  1  0  0  3  0  0  0  0  0  0
  185.3960  178.0210  138.6020 C   0  0  1  0  0  3  0  0  0  0  0  0
  181.6500  177.6530  137.3410 C   0  0  2  0  0  3  0  0  0  0  0  0
  184.4580  170.5410  136.1570 F   0  0  0  0  0  0  0  0  0  0  0  0
  184.5160  175.3590  134.3470 S   0  0  0  0  0  0  0  0  0  0  0  0
  182.1940  175.6370  136.2700 N   0  0  0  0  0  2  0  0  0  0  0  0
  182.7750  172.0200  136.9680 C   0  0  0  0  0  3  0  0  0  0  0  0
  183.8370  174.0600  135.3740 C   0  0  0  0  0  0  0  0  0  0  0  0
  183.8120  176.4680  137.7620 C   0  0  1  0  0  3  0  0  0  0  0  0
  180.0090  179.0750  139.9110 O   0  0  0  0  0  1  0  0  0  0  0  0
  182.1890  173.2900  136.9780 C   0  0  0  0  0  3  0  0  0  0  0  0
  180.4610  177.7870  139.6220 C   0  0  2  0  0  3  0  0  0  0  0  0
  182.3670  176.3650  137.4590 N   0  0  1  0  0  0  0  0  0  0  0  0
  184.6740  177.0330  136.6500 C   0  0  2  0  0  3  0  0  0  0  0  0
  187.1520  178.4120  140.3660 C   0  0  0  0  0  2  0  0  0  0  0  0
  182.4230  178.8220  137.9670 C   0  0  0  0  0  2  0  0  0  0  0  0
  184.4250  172.7920  135.3730 C   0  0  0  0  0  3  0  0  0  0  0  0
  181.9000  177.6110  140.1470 C   0  0  0  0  0  2  0  0  0  0  0  0
  186.9010  177.7180  136.9660 C   0  0  2  0  0  3  0  0  0  0  0  0
  187.5040  177.6570  138.2110 C   0  0  2  0  0  3  0  0  0  0  0  0
  185.3160  176.2400  135.6940 C   0  0  2  0  0  3  0  0  0  0  0  0
  180.3280  177.5180  138.1070 C   0  0  0  0  0  2  0  0  0  0  0  0
  189.4210  177.5890  140.9940 C   0  0  0  0  0  2  0  0  0  0  0  0
  189.3910  178.0870  142.2990 O   0  0  0  0  0  0  0  0  0  0  0  0
  189.2590  176.7260  143.3010 P   0  0  0  0  0  0  0  0  0  0  0  0
  187.8570  176.1630  143.2220 O   0  0  0  0  0  1  0  0  0  0  0  0
  190.3730  175.5440  142.8230 O   0  0  0  0  0  0  0  0  0  0  0  0
  189.5850  177.1820  144.8950 O   0  0  0  0  0  1  0  0  0  0  0  0
  1 24  1  6  0  0  0
  2 11  1  0  0  0  0
  3  4  1  0  0  0  0
  4  5  1  0  0  0  0
  4 27  1  0  0  0  0
  6 15  1  0  0  0  0
  6 20  1  0  0  0  0
  7 28  1  0  0  0  0
  8 16  1  0  0  0  0
  9 10  1  0  0  0  0
 10 24  1  0  0  0  0
 10 32  1  0  0  0  0
 11  3  1  0  0  0  0
 11  1  1  0  0  0  0
 12 22  1  0  0  0  0
 12 25  1  0  0  0  0
 12 31  1  0  0  0  0
 13  8  1  0  0  0  0
 14 17  1  0  0  0  0
 14 30  1  0  0  0  0
 15 22  1  0  0  0  0
 16 20  2  0  0  0  0
 17  6  2  0  0  0  0
 18  3  1  0  0  0  0
 21 19  1  0  0  0  0
 21 27  1  0  0  0  0
 22 18  1  0  0  0  0
 23  2  1  0  0  0  0
 23 18  1  0  0  0  0
 25  4  1  0  0  0  0
 26 17  1  0  0  0  0
 26  8  2  0  0  0  0
 28  2  1  0  0  0  0
 28 29  1  0  0  0  0
 29  9  1  0  0  0  0
 29  1  1  0  0  0  0
 30  7  1  0  0  0  0
 30 23  1  0  0  0  0
 31 21  1  0  0  0  0
 32 33  1  0  0  0  0
 33 34  1  0  0  0  0
 34 37  1  0  0  0  0
 35 34  1  0  0  0  0
 36 34  2  0  0  0  0
M  END
>  <MODEL>
4

>  <REMARK>
 VINA RESULT:      -6.6      4.139      5.782
  Name = 
  3 active torsions:
  status: ('A' for Active; 'I' for Inactive)
    1  A    between atoms: P_3  and  O_19
    2  A    between atoms: C_11  and  C_33
    3  A    between atoms: O_19  and  C_33
                            x       y       z     vdW  Elec       q    Type
                         _______ _______ _______ _____ _____    ______ ____

>  <TORSDO>
F 3

$$$$
=
 OpenBabel10232412413D

 37 44  0  0  1  0  0  0  0  0999 V2000
  186.6560  177.9950  139.6580 N   0  0  2  0  0  0  0  0  0  0  0  0
  185.9400  178.1720  137.6100 C   0  0  2  0  0  3  0  0  0  0  0  0
  184.2640  177.4460  139.0790 C   0  0  2  0  0  3  0  0  0  0  0  0
  183.0420  178.3880  139.2440 C   0  0  1  0  0  0  0  0  0  0  0  0
  183.3320  179.5380  140.1980 C   0  0  0  0  0  1  0  0  0  0  0  0
  183.4510  174.5910  135.8250 C   0  0  0  0  0  0  0  0  0  0  0  0
  187.6370  176.9750  136.2890 S   0  0  0  0  0  0  0  0  0  0  0  0
  184.7360  172.1040  135.8450 C   0  0  0  0  0  0  0  0  0  0  0  0
  188.9660  178.3830  139.4780 C   0  0  0  0  0  2  0  0  0  0  0  0
  188.5150  178.6990  140.9190 C   0  0  1  0  0  3  0  0  0  0  0  0
  185.5520  178.2020  138.9130 C   0  0  1  0  0  3  0  0  0  0  0  0
  182.0750  177.8050  137.0390 C   0  0  2  0  0  3  0  0  0  0  0  0
  185.3510  170.8980  135.8460 F   0  0  0  0  0  0  0  0  0  0  0  0
  185.4810  175.8370  134.4010 S   0  0  0  0  0  0  0  0  0  0  0  0
  182.8720  175.8940  135.9370 N   0  0  0  0  0  2  0  0  0  0  0  0
  183.4960  172.2560  136.4720 C   0  0  0  0  0  3  0  0  0  0  0  0
  184.7050  174.4420  135.2130 C   0  0  0  0  0  0  0  0  0  0  0  0
  184.1930  176.6650  137.7240 C   0  0  1  0  0  3  0  0  0  0  0  0
  179.9840  178.9770  139.4010 O   0  0  0  0  0  1  0  0  0  0  0  0
  182.8590  173.5010  136.4730 C   0  0  0  0  0  3  0  0  0  0  0  0
  180.5340  177.7300  139.1010 C   0  0  2  0  0  3  0  0  0  0  0  0
  182.8210  176.5370  137.1850 N   0  0  1  0  0  0  0  0  0  0  0  0
  185.1950  177.3390  136.8070 C   0  0  2  0  0  3  0  0  0  0  0  0
  186.9850  178.5200  140.9610 C   0  0  0  0  0  2  0  0  0  0  0  0
  182.6850  178.9500  137.8610 C   0  0  0  0  0  2  0  0  0  0  0  0
  185.3430  173.1980  135.2210 C   0  0  0  0  0  3  0  0  0  0  0  0
  181.8770  177.5630  139.8400 C   0  0  0  0  0  2  0  0  0  0  0  0
  187.3100  178.0720  137.5260 C   0  0  2  0  0  3  0  0  0  0  0  0
  187.7090  177.9390  138.8450 C   0  0  2  0  0  3  0  0  0  0  0  0
  186.0160  176.6410  135.9160 C   0  0  2  0  0  3  0  0  0  0  0  0
  180.6550  177.5690  137.5710 C   0  0  0  0  0  2  0  0  0  0  0  0
  189.1610  177.7280  141.8900 C   0  0  0  0  0  2  0  0  0  0  0  0
  189.6220  178.4170  143.0140 O   0  0  0  0  0  0  0  0  0  0  0  0
  191.1840  177.8240  143.3000 P   0  0  0  0  0  0  0  0  0  0  0  0
  191.9810  178.8360  144.0950 O   0  0  0  0  0  1  0  0  0  0  0  0
  191.1030  176.3660  144.1570 O   0  0  0  0  0  1  0  0  0  0  0  0
  191.9510  177.5550  141.8180 O   0  0  0  0  0  0  0  0  0  0  0  0
  1 24  1  1  0  0  0
  2 11  1  0  0  0  0
  3  4  1  0  0  0  0
  4 27  1  0  0  0  0
  4  5  1  0  0  0  0
  6 15  1  0  0  0  0
  6 20  1  0  0  0  0
  7 28  1  0  0  0  0
  8 13  1  0  0  0  0
  8 16  1  0  0  0  0
  9 10  1  0  0  0  0
 10 24  1  0  0  0  0
 10 32  1  0  0  0  0
 11  3  1  0  0  0  0
 11  1  1  0  0  0  0
 12 22  1  0  0  0  0
 12 31  1  0  0  0  0
 12 25  1  0  0  0  0
 14 17  1  0  0  0  0
 14 30  1  0  0  0  0
 15 22  1  0  0  0  0
 16 20  2  0  0  0  0
 17 26  1  0  0  0  0
 17  6  2  0  0  0  0
 18  3  1  0  0  0  0
 21 19  1  0  0  0  0
 21 27  1  0  0  0  0
 22 18  1  0  0  0  0
 23  2  1  0  0  0  0
 23 18  1  0  0  0  0
 25  4  1  0  0  0  0
 26  8  2  0  0  0  0
 28  2  1  0  0  0  0
 28 29  1  0  0  0  0
 29  9  1  0  0  0  0
 29  1  1  0  0  0  0
 30  7  1  0  0  0  0
 30 23  1  0  0  0  0
 31 21  1  0  0  0  0
 32 33  1  0  0  0  0
 33 34  1  0  0  0  0
 34 35  1  0  0  0  0
 34 36  1  0  0  0  0
 37 34  2  0  0  0  0
M  END
>  <MODEL>
5

>  <REMARK>
 VINA RESULT:      -6.4      3.815      5.276
  Name = 
  3 active torsions:
  status: ('A' for Active; 'I' for Inactive)
    1  A    between atoms: P_3  and  O_19
    2  A    between atoms: C_11  and  C_33
    3  A    between atoms: O_19  and  C_33
                            x       y       z     vdW  Elec       q    Type
                         _______ _______ _______ _____ _____    ______ ____

>  <TORSDO>
F 3

$$$$
=
 OpenBabel10232412413D

 37 44  0  0  1  0  0  0  0  0999 V2000
  193.0000  175.2880  137.5500 N   0  0  2  0  0  0  0  0  0  0  0  0
  191.5270  176.5450  136.5570 C   0  0  2  0  0  3  0  0  0  0  0  0
  190.8520  175.9160  138.7120 C   0  0  2  0  0  3  0  0  0  0  0  0
  190.6680  177.0660  139.7360 C   0  0  1  0  0  0  0  0  0  0  0  0
  191.9940  177.5280  140.3240 C   0  0  0  0  0  1  0  0  0  0  0  0
  187.0200  175.1730  136.6720 C   0  0  0  0  0  0  0  0  0  0  0  0
  191.2520  175.4960  134.3480 S   0  0  0  0  0  0  0  0  0  0  0  0
  186.5080  172.6300  135.6220 C   0  0  0  0  0  0  0  0  0  0  0  0
  194.5970  174.8720  135.8770 C   0  0  0  0  0  2  0  0  0  0  0  0
  195.2590  174.6940  137.2600 C   0  0  1  0  0  3  0  0  0  0  0  0
  192.0000  176.1630  137.7740 C   0  0  1  0  0  3  0  0  0  0  0  0
  188.5350  177.8420  138.7420 C   0  0  2  0  0  3  0  0  0  0  0  0
  186.2510  171.4030  135.1110 F   0  0  0  0  0  0  0  0  0  0  0  0
  188.2270  176.0940  134.3500 S   0  0  0  0  0  0  0  0  0  0  0  0
  187.4140  176.4220  137.2490 N   0  0  0  0  0  2  0  0  0  0  0  0
  186.1340  172.9330  136.9340 C   0  0  0  0  0  3  0  0  0  0  0  0
  187.4130  174.8620  135.3620 C   0  0  0  0  0  0  0  0  0  0  0  0
  189.6490  175.8530  137.7120 C   0  0  1  0  0  3  0  0  0  0  0  0
  189.1070  178.5740  141.9760 O   0  0  0  0  0  1  0  0  0  0  0  0
  186.4000  174.1990  137.4640 C   0  0  0  0  0  3  0  0  0  0  0  0
  188.6220  177.4610  141.2880 C   0  0  2  0  0  3  0  0  0  0  0  0
  188.4060  176.4560  138.2420 N   0  0  1  0  0  0  0  0  0  0  0  0
  190.1610  176.4470  136.4150 C   0  0  2  0  0  3  0  0  0  0  0  0
  194.2030  175.0660  138.3160 C   0  0  0  0  0  2  0  0  0  0  0  0
  189.9930  178.2410  139.0140 C   0  0  0  0  0  2  0  0  0  0  0  0
  187.1530  173.5920  134.8390 C   0  0  0  0  0  3  0  0  0  0  0  0
  189.7950  176.5390  140.8990 C   0  0  0  0  0  2  0  0  0  0  0  0
  192.3070  176.0130  135.5560 C   0  0  2  0  0  3  0  0  0  0  0  0
  193.2060  175.2090  136.2360 C   0  0  2  0  0  3  0  0  0  0  0  0
  189.8270  175.9450  135.1530 C   0  0  2  0  0  3  0  0  0  0  0  0
  187.7830  177.9240  140.0770 C   0  0  0  0  0  2  0  0  0  0  0  0
  195.6750  173.2470  137.4540 C   0  0  0  0  0  2  0  0  0  0  0  0
  196.8820  173.1890  138.1530 O   0  0  0  0  0  0  0  0  0  0  0  0
  198.0950  173.3330  136.9770 P   0  0  0  0  0  0  0  0  0  0  0  0
  199.2750  172.4600  137.3450 O   0  0  0  0  0  1  0  0  0  0  0  0
  197.4940  172.8680  135.4650 O   0  0  0  0  0  0  0  0  0  0  0  0
  198.5990  174.9450  136.9020 O   0  0  0  0  0  1  0  0  0  0  0  0
  1 11  1  0  0  0  0
  1 24  1  1  0  0  0
  2 11  1  0  0  0  0
  3  4  1  0  0  0  0
  4  5  1  0  0  0  0
  4 27  1  0  0  0  0
  6 15  1  0  0  0  0
  6 20  1  0  0  0  0
  7 30  1  0  0  0  0
  7 28  1  0  0  0  0
  8 16  1  0  0  0  0
  9 29  1  0  0  0  0
  9 10  1  0  0  0  0
 10 32  1  0  0  0  0
 10 24  1  0  0  0  0
 11  3  1  0  0  0  0
 12 25  1  0  0  0  0
 12 31  1  0  0  0  0
 13  8  1  0  0  0  0
 14 30  1  0  0  0  0
 14 17  1  0  0  0  0
 15 22  1  0  0  0  0
 16 20  2  0  0  0  0
 17  6  2  0  0  0  0
 18 22  1  0  0  0  0
 18  3  1  0  0  0  0
 21 19  1  0  0  0  0
 22 12  1  0  0  0  0
 23  2  1  0  0  0  0
 23 18  1  0  0  0  0
 25  4  1  0  0  0  0
 26 17  1  0  0  0  0
 26  8  2  0  0  0  0
 27 21  1  0  0  0  0
 28 29  1  0  0  0  0
 28  2  1  0  0  0  0
 29  1  1  0  0  0  0
 30 23  1  0  0  0  0
 31 21  1  0  0  0  0
 32 33  1  0  0  0  0
 34 35  1  0  0  0  0
 34 33  1  0  0  0  0
 36 34  2  0  0  0  0
 37 34  1  0  0  0  0
M  END
>  <MODEL>
6

>  <REMARK>
 VINA RESULT:      -6.4      4.489      6.232
  Name = 
  3 active torsions:
  status: ('A' for Active; 'I' for Inactive)
    1  A    between atoms: P_3  and  O_19
    2  A    between atoms: C_11  and  C_33
    3  A    between atoms: O_19  and  C_33
                            x       y       z     vdW  Elec       q    Type
                         _______ _______ _______ _____ _____    ______ ____

>  <TORSDO>
F 3

$$$$
=
 OpenBabel10232412413D

 37 44  0  0  1  0  0  0  0  0999 V2000
  186.6340  177.9370  142.5920 N   0  0  2  0  0  0  0  0  0  0  0  0
  186.1140  178.8520  140.6870 C   0  0  2  0  0  3  0  0  0  0  0  0
  184.2760  177.8140  141.7060 C   0  0  2  0  0  3  0  0  0  0  0  0
  183.0990  178.7410  142.1050 C   0  0  1  0  0  0  0  0  0  0  0  0
  183.3650  179.4760  143.4110 C   0  0  0  0  0  1  0  0  0  0  0  0
  183.5990  176.2990  137.6260 C   0  0  0  0  0  0  0  0  0  0  0  0
  187.8520  178.0340  139.1490 S   0  0  0  0  0  0  0  0  0  0  0  0
  184.7370  173.8530  136.8770 C   0  0  0  0  0  0  0  0  0  0  0  0
  188.9690  178.1710  142.7060 C   0  0  0  0  0  2  0  0  0  0  0  0
  188.4090  178.0190  144.1350 C   0  0  1  0  0  3  0  0  0  0  0  0
  185.6140  178.4730  141.8940 C   0  0  1  0  0  3  0  0  0  0  0  0
  182.3000  179.0170  139.7750 C   0  0  2  0  0  3  0  0  0  0  0  0
  185.2830  172.6710  136.5050 F   0  0  0  0  0  0  0  0  0  0  0  0
  185.8130  177.7800  136.8490 S   0  0  0  0  0  0  0  0  0  0  0  0
  183.0850  177.5300  138.1400 N   0  0  0  0  0  2  0  0  0  0  0  0
  183.4570  173.8870  137.4370 C   0  0  0  0  0  3  0  0  0  0  0  0
  184.8930  176.2620  137.0830 C   0  0  0  0  0  0  0  0  0  0  0  0
  184.2830  177.5430  140.1640 C   0  0  1  0  0  3  0  0  0  0  0  0
  180.0750  179.4930  142.2550 O   0  0  0  0  0  1  0  0  0  0  0  0
  182.8930  175.1060  137.8220 C   0  0  0  0  0  3  0  0  0  0  0  0
  180.5800  178.3790  141.5830 C   0  0  2  0  0  3  0  0  0  0  0  0
  182.9600  177.7170  139.5260 N   0  0  1  0  0  0  0  0  0  0  0  0
  185.3980  178.4020  139.6010 C   0  0  2  0  0  3  0  0  0  0  0  0
  186.8750  177.9630  144.0140 C   0  0  0  0  0  2  0  0  0  0  0  0
  182.8980  179.7640  140.9770 C   0  0  0  0  0  2  0  0  0  0  0  0
  185.4570  175.0400  136.7060 C   0  0  0  0  0  3  0  0  0  0  0  0
  181.8410  177.8630  142.3050 C   0  0  0  0  0  2  0  0  0  0  0  0
  187.4780  178.6730  140.6620 C   0  0  2  0  0  3  0  0  0  0  0  0
  187.7510  178.0710  141.8790 C   0  0  2  0  0  3  0  0  0  0  0  0
  186.2550  177.9790  138.5800 C   0  0  2  0  0  3  0  0  0  0  0  0
  180.8280  178.7340  140.1010 C   0  0  0  0  0  2  0  0  0  0  0  0
  188.9110  176.7280  144.7560 C   0  0  0  0  0  2  0  0  0  0  0  0
  189.6610  177.0100  145.9000 O   0  0  0  0  0  0  0  0  0  0  0  0
  191.2830  176.8970  145.4190 P   0  0  0  0  0  0  0  0  0  0  0  0
  191.7980  178.2620  145.0200 O   0  0  0  0  0  1  0  0  0  0  0  0
  192.2220  176.2830  146.6860 O   0  0  0  0  0  1  0  0  0  0  0  0
  191.3920  175.8540  144.0930 O   0  0  0  0  0  0  0  0  0  0  0  0
  1 24  1  1  0  0  0
  2 11  1  0  0  0  0
  3 11  1  0  0  0  0
  3  4  1  0  0  0  0
  4 27  1  0  0  0  0
  4  5  1  0  0  0  0
  6 20  1  0  0  0  0
  6 15  1  0  0  0  0
  7 28  1  0  0  0  0
  8 16  1  0  0  0  0
  9 10  1  0  0  0  0
 10 32  1  0  0  0  0
 11  1  1  0  0  0  0
 12 31  1  0  0  0  0
 12 25  1  0  0  0  0
 13  8  1  0  0  0  0
 14 17  1  0  0  0  0
 14 30  1  0  0  0  0
 15 22  1  0  0  0  0
 16 20  2  0  0  0  0
 17  6  2  0  0  0  0
 18  3  1  0  0  0  0
 21 19  1  0  0  0  0
 21 27  1  0  0  0  0
 22 12  1  0  0  0  0
 22 18  1  0  0  0  0
 23 18  1  0  0  0  0
 23  2  1  0  0  0  0
 24 10  1  0  0  0  0
 25  4  1  0  0  0  0
 26  8  2  0  0  0  0
 26 17  1  0  0  0  0
 28  2  1  0  0  0  0
 28 29  1  0  0  0  0
 29  1  1  0  0  0  0
 29  9  1  0  0  0  0
 30  7  1  0  0  0  0
 30 23  1  0  0  0  0
 31 21  1  0  0  0  0
 32 33  1  0  0  0  0
 34 33  1  0  0  0  0
 34 36  1  0  0  0  0
 35 34  1  0  0  0  0
 37 34  2  0  0  0  0
M  END
>  <MODEL>
7

>  <REMARK>
 VINA RESULT:      -6.2      4.553      6.076
  Name = 
  3 active torsions:
  status: ('A' for Active; 'I' for Inactive)
    1  A    between atoms: P_3  and  O_19
    2  A    between atoms: C_11  and  C_33
    3  A    between atoms: O_19  and  C_33
                            x       y       z     vdW  Elec       q    Type
                         _______ _______ _______ _____ _____    ______ ____

>  <TORSDO>
F 3

$$$$
=
 OpenBabel10232412413D

 37 44  0  0  1  0  0  0  0  0999 V2000
  184.0630  176.8960  138.5290 N   0  0  2  0  0  0  0  0  0  0  0  0
  184.8770  176.8360  136.5110 C   0  0  2  0  0  3  0  0  0  0  0  0
  184.6850  174.7000  137.4560 C   0  0  2  0  0  3  0  0  0  0  0  0
  183.7140  173.7210  136.7460 C   0  0  1  0  0  0  0  0  0  0  0  0
  182.2620  173.9810  137.1220 C   0  0  0  0  0  1  0  0  0  0  0  0
  188.7200  174.2140  135.7580 C   0  0  0  0  0  0  0  0  0  0  0  0
  186.6680  178.5240  136.5500 S   0  0  0  0  0  0  0  0  0  0  0  0
  190.9440  174.8580  137.3310 C   0  0  0  0  0  0  0  0  0  0  0  0
  183.9510  179.1910  139.0180 C   0  0  0  0  0  2  0  0  0  0  0  0
  182.9400  178.4380  139.9070 C   0  0  1  0  0  3  0  0  0  0  0  0
  184.1860  176.1170  137.4360 C   0  0  1  0  0  3  0  0  0  0  0  0
  185.2500  173.3010  134.8480 C   0  0  2  0  0  3  0  0  0  0  0  0
  192.0270  175.1660  138.0830 F   0  0  0  0  0  0  0  0  0  0  0  0
  188.4600  176.7830  134.7430 S   0  0  0  0  0  0  0  0  0  0  0  0
  187.5000  173.9300  135.0680 N   0  0  0  0  0  2  0  0  0  0  0  0
  190.4300  173.5580  137.3450 C   0  0  0  0  0  3  0  0  0  0  0  0
  189.2240  175.5240  135.7600 C   0  0  0  0  0  0  0  0  0  0  0  0
  186.0270  174.8380  136.6620 C   0  0  1  0  0  3  0  0  0  0  0  0
  182.9450  170.9490  135.5400 O   0  0  0  0  0  1  0  0  0  0  0  0
  189.3110  173.2390  136.5690 C   0  0  0  0  0  3  0  0  0  0  0  0
  184.2080  171.2700  136.0400 C   0  0  2  0  0  3  0  0  0  0  0  0
  186.3230  173.6780  135.7930 N   0  0  1  0  0  0  0  0  0  0  0  0
  185.9520  176.1790  135.9580 C   0  0  2  0  0  3  0  0  0  0  0  0
  182.9850  176.9580  139.4850 C   0  0  0  0  0  2  0  0  0  0  0  0
  183.8870  173.8970  135.2300 C   0  0  0  0  0  2  0  0  0  0  0  0
  190.3370  175.8420  136.5430 C   0  0  0  0  0  3  0  0  0  0  0  0
  184.0680  172.2830  137.1940 C   0  0  0  0  0  2  0  0  0  0  0  0
  185.0860  178.1180  136.9670 C   0  0  2  0  0  3  0  0  0  0  0  0
  184.5750  178.0940  138.2530 C   0  0  2  0  0  3  0  0  0  0  0  0
  187.0460  177.0390  135.8220 C   0  0  2  0  0  3  0  0  0  0  0  0
  185.1090  171.7740  134.8920 C   0  0  0  0  0  2  0  0  0  0  0  0
  183.3410  178.5560  141.3660 C   0  0  0  0  0  2  0  0  0  0  0  0
  184.3560  177.6420  141.6560 O   0  0  0  0  0  0  0  0  0  0  0  0
  185.4590  178.4820  142.6310 P   0  0  0  0  0  0  0  0  0  0  0  0
  185.6060  179.9030  142.1350 O   0  0  0  0  0  0  0  0  0  0  0  0
  184.9220  178.4930  144.2360 O   0  0  0  0  0  1  0  0  0  0  0  0
  186.9610  177.7090  142.5550 O   0  0  0  0  0  1  0  0  0  0  0  0
  1 24  1  6  0  0  0
  2 28  1  0  0  0  0
  2 11  1  0  0  0  0
  4  5  1  0  0  0  0
  4 27  1  0  0  0  0
  4  3  1  0  0  0  0
  6 17  2  0  0  0  0
  6 20  1  0  0  0  0
  7 28  1  0  0  0  0
  8 16  1  0  0  0  0
  8 13  1  0  0  0  0
  9 10  1  0  0  0  0
 10 32  1  0  0  0  0
 11  3  1  0  0  0  0
 11  1  1  0  0  0  0
 12 31  1  0  0  0  0
 12 25  1  0  0  0  0
 12 22  1  0  0  0  0
 14 17  1  0  0  0  0
 14 30  1  0  0  0  0
 15  6  1  0  0  0  0
 15 22  1  0  0  0  0
 17 26  1  0  0  0  0
 18  3  1  0  0  0  0
 19 21  1  0  0  0  0
 20 16  2  0  0  0  0
 21 27  1  0  0  0  0
 22 18  1  0  0  0  0
 23  2  1  0  0  0  0
 23 18  1  0  0  0  0
 24 10  1  0  0  0  0
 25  4  1  0  0  0  0
 26  8  2  0  0  0  0
 28 29  1  0  0  0  0
 29  1  1  0  0  0  0
 29  9  1  0  0  0  0
 30 23  1  0  0  0  0
 30  7  1  0  0  0  0
 31 21  1  0  0  0  0
 32 33  1  0  0  0  0
 33 34  1  0  0  0  0
 34 36  1  0  0  0  0
 35 34  2  0  0  0  0
 37 34  1  0  0  0  0
M  END
>  <MODEL>
8

>  <REMARK>
 VINA RESULT:      -6.0      3.865      5.453
  Name = 
  3 active torsions:
  status: ('A' for Active; 'I' for Inactive)
    1  A    between atoms: P_3  and  O_19
    2  A    between atoms: C_11  and  C_33
    3  A    between atoms: O_19  and  C_33
                            x       y       z     vdW  Elec       q    Type
                         _______ _______ _______ _____ _____    ______ ____

>  <TORSDO>
F 3

$$$$
=
 OpenBabel10232412413D

 37 44  0  0  1  0  0  0  0  0999 V2000
  185.8660  177.3260  137.3800 N   0  0  2  0  0  0  0  0  0  0  0  0
  183.9960  177.5640  136.2920 C   0  0  2  0  0  3  0  0  0  0  0  0
  183.6520  177.1540  138.5740 C   0  0  2  0  0  3  0  0  0  0  0  0
  182.9540  178.2840  139.3760 C   0  0  1  0  0  0  0  0  0  0  0  0
  183.9200  179.3970  139.7570 C   0  0  0  0  0  1  0  0  0  0  0  0
  180.5950  174.3860  137.0270 C   0  0  0  0  0  0  0  0  0  0  0  0
  184.2540  176.0770  134.3490 S   0  0  0  0  0  0  0  0  0  0  0  0
  181.3020  171.7260  136.5170 C   0  0  0  0  0  0  0  0  0  0  0  0
  187.5000  177.3330  135.6920 C   0  0  0  0  0  2  0  0  0  0  0  0
  188.1540  177.7530  137.0250 C   0  0  1  0  0  3  0  0  0  0  0  0
  184.5760  177.6890  137.5170 C   0  0  1  0  0  3  0  0  0  0  0  0
  180.7140  177.8090  138.4300 C   0  0  2  0  0  3  0  0  0  0  0  0
  181.6340  170.4370  136.2670 F   0  0  0  0  0  0  0  0  0  0  0  0
  181.2850  175.2530  134.4830 S   0  0  0  0  0  0  0  0  0  0  0  0
  180.3750  175.7680  137.3250 N   0  0  0  0  0  2  0  0  0  0  0  0
  180.8150  172.0920  137.7750 C   0  0  0  0  0  3  0  0  0  0  0  0
  181.1040  174.0220  135.7710 C   0  0  0  0  0  0  0  0  0  0  0  0
  182.6200  176.3610  137.7050 C   0  0  1  0  0  3  0  0  0  0  0  0
  180.8510  179.3620  141.4120 O   0  0  0  0  0  1  0  0  0  0  0  0
  180.4730  173.4220  138.0340 C   0  0  0  0  0  3  0  0  0  0  0  0
  180.9310  178.0350  140.9860 C   0  0  2  0  0  3  0  0  0  0  0  0
  181.2320  176.4410  138.2110 N   0  0  1  0  0  0  0  0  0  0  0  0
  182.8250  176.8420  136.2820 C   0  0  2  0  0  3  0  0  0  0  0  0
  187.0290  177.8230  138.0750 C   0  0  0  0  0  2  0  0  0  0  0  0
  181.8300  178.8610  138.5030 C   0  0  0  0  0  2  0  0  0  0  0  0
  181.4530  172.6930  135.5170 C   0  0  0  0  0  3  0  0  0  0  0  0
  182.3990  177.6730  140.6840 C   0  0  0  0  0  2  0  0  0  0  0  0
  184.9460  177.2430  135.3490 C   0  0  2  0  0  3  0  0  0  0  0  0
  186.1020  177.0800  136.0930 C   0  0  2  0  0  3  0  0  0  0  0  0
  182.7700  175.9980  135.1680 C   0  0  2  0  0  3  0  0  0  0  0  0
  179.9890  177.8190  139.7820 C   0  0  0  0  0  2  0  0  0  0  0  0
  189.1760  176.7160  137.4530 C   0  0  0  0  0  2  0  0  0  0  0  0
  190.4100  177.3290  137.6770 O   0  0  0  0  0  0  0  0  0  0  0  0
  191.3450  176.1800  138.5010 P   0  0  0  0  0  0  0  0  0  0  0  0
  190.9580  176.1560  139.9640 O   0  0  0  0  0  1  0  0  0  0  0  0
  191.1060  174.6460  137.8260 O   0  0  0  0  0  0  0  0  0  0  0  0
  192.9770  176.5970  138.3650 O   0  0  0  0  0  1  0  0  0  0  0  0
  1 11  1  0  0  0  0
  1 24  1  6  0  0  0
  2 11  1  0  0  0  0
  3  4  1  0  0  0  0
  4  5  1  0  0  0  0
  4 27  1  0  0  0  0
  6 15  1  0  0  0  0
  6 20  1  0  0  0  0
  7 30  1  0  0  0  0
  7 28  1  0  0  0  0
  8 16  1  0  0  0  0
  9 29  1  0  0  0  0
  9 10  1  0  0  0  0
 10 32  1  0  0  0  0
 10 24  1  0  0  0  0
 11  3  1  0  0  0  0
 12 25  1  0  0  0  0
 12 31  1  0  0  0  0
 13  8  1  0  0  0  0
 14 30  1  0  0  0  0
 14 17  1  0  0  0  0
 15 22  1  0  0  0  0
 16 20  2  0  0  0  0
 17  6  2  0  0  0  0
 18 22  1  0  0  0  0
 18  3  1  0  0  0  0
 21 19  1  0  0  0  0
 22 12  1  0  0  0  0
 23  2  1  0  0  0  0
 23 18  1  0  0  0  0
 25  4  1  0  0  0  0
 26 17  1  0  0  0  0
 26  8  2  0  0  0  0
 27 21  1  0  0  0  0
 28 29  1  0  0  0  0
 28  2  1  0  0  0  0
 29  1  1  0  0  0  0
 30 23  1  0  0  0  0
 31 21  1  0  0  0  0
 32 33  1  0  0  0  0
 33 34  1  0  0  0  0
 34 35  1  0  0  0  0
 36 34  2  0  0  0  0
 37 34  1  0  0  0  0
M  END
>  <MODEL>
9

>  <REMARK>
 VINA RESULT:      -5.9      5.524      7.777
  Name = 
  3 active torsions:
  status: ('A' for Active; 'I' for Inactive)
    1  A    between atoms: P_3  and  O_19
    2  A    between atoms: C_11  and  C_33
    3  A    between atoms: O_19  and  C_33
                            x       y       z     vdW  Elec       q    Type
                         _______ _______ _______ _____ _____    ______ ____

>  <TORSDO>
F 3

$$$$
