=
 OpenBabel10232411513D

 31 33  0  0  0  0  0  0  0  0999 V2000
  190.1420  176.8260  140.2430 C   0  0  0  0  0  3  0  0  0  0  0  0
  189.0430  178.1170  141.9860 N   0  0  0  0  0  0  0  0  0  0  0  0
  188.0660  178.7300  141.3770 C   0  0  0  0  0  3  0  0  0  0  0  0
  188.2670  177.8620  139.0550 C   0  0  0  0  0  0  0  0  0  0  0  0
  189.7520  177.7970  139.1850 C   0  0  0  0  0  2  0  0  0  0  0  0
  187.5110  178.3780  140.0460 C   0  0  0  0  0  0  0  0  0  0  0  0
  189.8050  176.9900  141.5230 C   0  0  0  0  0  0  0  0  0  0  0  0
  187.7960  179.6260  136.7930 O   0  0  0  0  0  0  0  0  0  0  0  0
  187.7070  177.5060  137.7830 N   0  0  0  0  0  2  0  0  0  0  0  0
  187.5960  178.3900  136.6630 C   0  0  0  0  0  0  0  0  0  0  0  0
  187.1930  177.8470  135.3400 C   0  0  0  0  0  1  0  0  0  0  0  0
  190.3540  176.0340  142.5260 C   0  0  0  0  0  2  0  0  0  0  0  0
  191.2210  176.7310  143.4690 N   0  0  0  0  0  2  0  0  0  0  0  0
  189.5540  177.5460  146.7240 C   0  0  0  0  0  3  0  0  0  0  0  0
  189.7980  177.4670  145.3500 C   0  0  0  0  0  3  0  0  0  0  0  0
  192.5340  175.7710  148.0730 N   0  0  0  0  0  1  0  0  0  0  0  0
  190.4620  176.9840  147.6260 C   0  0  0  0  0  3  0  0  0  0  0  0
  190.9520  176.8290  144.8710 C   0  0  0  0  0  0  0  0  0  0  0  0
  191.8550  176.2660  145.7790 C   0  0  0  0  0  3  0  0  0  0  0  0
  191.6120  176.3440  147.1550 C   0  0  0  0  0  0  0  0  0  0  0  0
  186.1420  178.7090  139.7800 N   0  0  0  0  0  2  0  0  0  0  0  0
  185.3020  179.2710  140.7530 N   0  0  0  0  0  2  0  0  0  0  0  0
  184.2360  178.3150  141.0190 C   0  0  0  0  0  2  0  0  0  0  0  0
  183.6100  178.6040  142.3460 C   0  0  0  0  0  0  0  0  0  0  0  0
  182.4140  178.9980  142.3790 O   0  0  0  0  0  0  0  0  0  0  0  0
  185.6250  177.8190  143.5920 C   0  0  0  0  0  3  0  0  0  0  0  0
  186.3570  177.6810  144.7750 C   0  0  0  0  0  3  0  0  0  0  0  0
  183.8760  178.9650  144.8080 C   0  0  0  0  0  3  0  0  0  0  0  0
  184.3780  178.4620  143.5980 C   0  0  0  0  0  0  0  0  0  0  0  0
  185.8480  178.1850  145.9750 C   0  0  0  0  0  3  0  0  0  0  0  0
  184.6070  178.8280  145.9910 C   0  0  0  0  0  3  0  0  0  0  0  0
  1  7  2  0  0  0  0
  3  2  2  0  0  0  0
  4  5  1  0  0  0  0
  4  6  2  0  0  0  0
  5  1  1  0  0  0  0
  6  3  1  0  0  0  0
  7  2  1  0  0  0  0
  7 12  1  0  0  0  0
  9  4  1  0  0  0  0
 10  8  2  0  0  0  0
 10  9  1  0  0  0  0
 11 10  1  0  0  0  0
 12 13  1  0  0  0  0
 13 18  1  0  0  0  0
 14 17  1  0  0  0  0
 15 14  2  0  0  0  0
 18 15  1  0  0  0  0
 18 19  2  0  0  0  0
 19 20  1  0  0  0  0
 20 17  2  0  0  0  0
 20 16  1  0  0  0  0
 21  6  1  0  0  0  0
 21 22  1  0  0  0  0
 22 23  1  0  0  0  0
 23 24  1  0  0  0  0
 24 25  2  0  0  0  0
 24 29  1  0  0  0  0
 26 29  2  0  0  0  0
 26 27  1  0  0  0  0
 27 30  2  0  0  0  0
 28 31  2  0  0  0  0
 29 28  1  0  0  0  0
 30 31  1  0  0  0  0
M  END
>  <MODEL>
1

>  <REMARK>
 VINA RESULT:      -9.6      0.000      0.000
  Name = 
  9 active torsions:
  status: ('A' for Active; 'I' for Inactive)
    1  A    between atoms: C_3  and  N_24
    2  A    between atoms: C_3  and  C_27
    3  A    between atoms: C_11  and  C_12
    4  A    between atoms: C_11  and  C_29
    5  A    between atoms: C_12  and  N_17
    6  A    between atoms: C_14  and  N_22
    7  A    between atoms: C_15  and  N_24
    8  A    between atoms: N_17  and  N_25
    9  A    between atoms: C_21  and  N_25
                            x       y       z     vdW  Elec       q    Type
                         _______ _______ _______ _____ _____    ______ ____

>  <TORSDO>
F 9

$$$$
=
 OpenBabel10232411513D

 31 33  0  0  1  0  0  0  0  0999 V2000
  189.5650  176.6520  141.4050 C   0  0  0  0  0  3  0  0  0  0  0  0
  187.9320  178.2630  142.2100 N   0  0  0  0  0  0  0  0  0  0  0  0
  187.4240  178.7870  141.1290 C   0  0  0  0  0  3  0  0  0  0  0  0
  188.5850  177.5170  139.3330 C   0  0  1  0  0  3  0  0  0  0  0  0
  189.8220  177.4310  140.1630 C   0  0  0  0  0  2  0  0  0  0  0  0
  187.5160  178.2220  139.7590 C   0  0  0  0  0  0  0  0  0  0  0  0
  188.6920  177.0490  142.3310 C   0  0  0  0  0  0  0  0  0  0  0  0
  189.3650  178.8810  136.8880 O   0  0  0  0  0  0  0  0  0  0  0  0
  188.6450  176.9580  138.0140 N   0  0  0  0  0  2  0  0  0  0  0  0
  189.1400  177.6430  136.8580 C   0  0  0  0  0  0  0  0  0  0  0  0
  189.3460  176.8900  135.5940 C   0  0  0  0  0  1  0  0  0  0  0  0
  188.6020  176.2700  143.5980 C   0  0  0  0  0  2  0  0  0  0  0  0
  189.3370  176.9450  144.6620 N   0  0  0  0  0  2  0  0  0  0  0  0
  188.8380  177.7420  148.2890 C   0  0  0  0  0  3  0  0  0  0  0  0
  189.4410  177.3110  147.1030 C   0  0  0  0  0  3  0  0  0  0  0  0
  185.5040  178.8200  147.0350 N   0  0  0  0  0  1  0  0  0  0  0  0
  187.5330  178.2410  148.2650 C   0  0  0  0  0  3  0  0  0  0  0  0
  188.7400  177.3750  145.8890 C   0  0  0  0  0  0  0  0  0  0  0  0
  187.4350  177.8790  145.8730 C   0  0  0  0  0  3  0  0  0  0  0  0
  186.8320  178.3100  147.0590 C   0  0  0  0  0  0  0  0  0  0  0  0
  186.4750  178.5420  138.8280 N   0  0  0  0  0  0  0  0  0  0  0  0
  185.2570  179.1120  139.2310 N   0  0  0  0  0  2  0  0  0  0  0  0
  184.2960  178.0290  139.3890 C   0  0  0  0  0  2  0  0  0  0  0  0
  183.0830  178.5240  140.1090 C   0  0  0  0  0  0  0  0  0  0  0  0
  182.0840  178.8910  139.4340 O   0  0  0  0  0  0  0  0  0  0  0  0
  181.8490  178.8830  142.2490 C   0  0  0  0  0  3  0  0  0  0  0  0
  181.8160  178.9690  143.6440 C   0  0  0  0  0  3  0  0  0  0  0  0
  184.2250  178.4300  142.3340 C   0  0  0  0  0  3  0  0  0  0  0  0
  183.0540  178.6130  141.5820 C   0  0  0  0  0  0  0  0  0  0  0  0
  182.9870  178.7860  144.3840 C   0  0  0  0  0  3  0  0  0  0  0  0
  184.1920  178.5160  143.7290 C   0  0  0  0  0  3  0  0  0  0  0  0
  1  7  2  0  0  0  0
  2  7  1  0  0  0  0
  3  2  2  0  0  0  0
  4  9  1  6  0  0  0
  4  6  1  0  0  0  0
  4  5  1  0  0  0  0
  5  1  1  0  0  0  0
  6  3  1  0  0  0  0
  7 12  1  0  0  0  0
 10  8  2  0  0  0  0
 10  9  1  0  0  0  0
 11 10  1  0  0  0  0
 12 13  1  0  0  0  0
 13 18  1  0  0  0  0
 15 14  2  0  0  0  0
 16 20  1  0  0  0  0
 17 14  1  0  0  0  0
 18 15  1  0  0  0  0
 19 18  2  0  0  0  0
 19 20  1  0  0  0  0
 20 17  2  0  0  0  0
 21 22  1  0  0  0  0
 21  6  2  0  0  0  0
 22 23  1  0  0  0  0
 23 24  1  0  0  0  0
 24 29  1  0  0  0  0
 25 24  2  0  0  0  0
 26 27  1  0  0  0  0
 27 30  2  0  0  0  0
 28 31  2  0  0  0  0
 29 26  2  0  0  0  0
 29 28  1  0  0  0  0
 31 30  1  0  0  0  0
M  END
>  <MODEL>
2

>  <REMARK>
 VINA RESULT:      -8.6      1.868      2.843
  Name = 
  9 active torsions:
  status: ('A' for Active; 'I' for Inactive)
    1  A    between atoms: C_3  and  N_24
    2  A    between atoms: C_3  and  C_27
    3  A    between atoms: C_11  and  C_12
    4  A    between atoms: C_11  and  C_29
    5  A    between atoms: C_12  and  N_17
    6  A    between atoms: C_14  and  N_22
    7  A    between atoms: C_15  and  N_24
    8  A    between atoms: N_17  and  N_25
    9  A    between atoms: C_21  and  N_25
                            x       y       z     vdW  Elec       q    Type
                         _______ _______ _______ _____ _____    ______ ____

>  <TORSDO>
F 9

$$$$
=
 OpenBabel10232411513D

 31 33  0  0  0  0  0  0  0  0999 V2000
  191.7480  176.6260  142.8330 C   0  0  0  0  0  3  0  0  0  0  0  0
  189.3300  176.8200  142.6760 N   0  0  0  0  0  0  0  0  0  0  0  0
  188.9130  176.7550  143.9100 C   0  0  0  0  0  3  0  0  0  0  0  0
  191.0470  176.6010  145.1790 C   0  0  0  0  0  0  0  0  0  0  0  0
  191.6710  175.8130  144.0760 C   0  0  0  0  0  2  0  0  0  0  0  0
  189.7460  176.9520  145.1240 C   0  0  0  0  0  0  0  0  0  0  0  0
  190.6630  177.0810  142.2060 C   0  0  0  0  0  0  0  0  0  0  0  0
  191.2820  174.8510  147.4890 O   0  0  0  0  0  0  0  0  0  0  0  0
  191.8410  176.8210  146.3530 N   0  0  0  0  0  2  0  0  0  0  0  0
  192.0080  175.8770  147.4160 C   0  0  0  0  0  0  0  0  0  0  0  0
  193.0190  176.1370  148.4730 C   0  0  0  0  0  1  0  0  0  0  0  0
  190.8390  177.7730  140.8980 C   0  0  0  0  0  2  0  0  0  0  0  0
  190.4690  176.8860  139.8010 N   0  0  0  0  0  2  0  0  0  0  0  0
  189.0200  177.5110  136.4030 C   0  0  0  0  0  3  0  0  0  0  0  0
  189.9260  177.1540  137.4050 C   0  0  0  0  0  3  0  0  0  0  0  0
  186.0760  178.5260  138.4420 N   0  0  0  0  0  1  0  0  0  0  0  0
  187.7440  177.9670  136.7480 C   0  0  0  0  0  3  0  0  0  0  0  0
  189.5620  177.2520  138.7570 C   0  0  0  0  0  0  0  0  0  0  0  0
  188.2820  177.7050  139.0940 C   0  0  0  0  0  3  0  0  0  0  0  0
  187.3740  178.0630  138.0920 C   0  0  0  0  0  0  0  0  0  0  0  0
  189.1010  177.4310  146.3110 N   0  0  0  0  0  2  0  0  0  0  0  0
  188.0580  178.3690  146.2730 N   0  0  0  0  0  2  0  0  0  0  0  0
  186.8050  177.6400  146.4180 C   0  0  0  0  0  2  0  0  0  0  0  0
  185.6490  178.5690  146.2320 C   0  0  0  0  0  0  0  0  0  0  0  0
  185.3050  179.3090  147.1920 O   0  0  0  0  0  0  0  0  0  0  0  0
  183.5510  179.0040  144.9510 C   0  0  0  0  0  3  0  0  0  0  0  0
  182.8340  179.0420  143.7520 C   0  0  0  0  0  3  0  0  0  0  0  0
  185.5140  178.2500  143.7530 C   0  0  0  0  0  3  0  0  0  0  0  0
  184.8970  178.6070  144.9620 C   0  0  0  0  0  0  0  0  0  0  0  0
  183.4570  178.6830  142.5530 C   0  0  0  0  0  3  0  0  0  0  0  0
  184.7970  178.2880  142.5540 C   0  0  0  0  0  3  0  0  0  0  0  0
  1  5  1  0  0  0  0
  2  3  2  0  0  0  0
  3  6  1  0  0  0  0
  4  9  1  0  0  0  0
  5  4  1  0  0  0  0
  6  4  2  0  0  0  0
  6 21  1  0  0  0  0
  7  2  1  0  0  0  0
  7  1  2  0  0  0  0
  9 10  1  0  0  0  0
 10  8  2  0  0  0  0
 10 11  1  0  0  0  0
 12  7  1  0  0  0  0
 13 12  1  0  0  0  0
 14 17  2  0  0  0  0
 14 15  1  0  0  0  0
 15 18  2  0  0  0  0
 17 20  1  0  0  0  0
 18 19  1  0  0  0  0
 18 13  1  0  0  0  0
 20 16  1  0  0  0  0
 20 19  2  0  0  0  0
 22 21  1  0  0  0  0
 22 23  1  0  0  0  0
 24 23  1  0  0  0  0
 24 25  2  0  0  0  0
 26 29  1  0  0  0  0
 27 26  2  0  0  0  0
 28 29  2  0  0  0  0
 29 24  1  0  0  0  0
 30 31  2  0  0  0  0
 30 27  1  0  0  0  0
 31 28  1  0  0  0  0
M  END
>  <MODEL>
3

>  <REMARK>
 VINA RESULT:      -8.3      2.750      7.240
  Name = 
  9 active torsions:
  status: ('A' for Active; 'I' for Inactive)
    1  A    between atoms: C_3  and  N_24
    2  A    between atoms: C_3  and  C_27
    3  A    between atoms: C_11  and  C_12
    4  A    between atoms: C_11  and  C_29
    5  A    between atoms: C_12  and  N_17
    6  A    between atoms: C_14  and  N_22
    7  A    between atoms: C_15  and  N_24
    8  A    between atoms: N_17  and  N_25
    9  A    between atoms: C_21  and  N_25
                            x       y       z     vdW  Elec       q    Type
                         _______ _______ _______ _____ _____    ______ ____

>  <TORSDO>
F 9

$$$$
=
 OpenBabel10232411513D

 31 33  0  0  0  0  0  0  0  0999 V2000
  182.1090  178.5100  140.2820 C   0  0  0  0  0  3  0  0  0  0  0  0
  180.8940  179.3650  142.2070 N   0  0  0  0  0  0  0  0  0  0  0  0
  181.7160  179.2180  143.2080 C   0  0  0  0  0  3  0  0  0  0  0  0
  183.7430  178.3010  142.0950 C   0  0  0  0  0  0  0  0  0  0  0  0
  182.8960  177.5600  141.1150 C   0  0  0  0  0  2  0  0  0  0  0  0
  183.1810  178.9910  143.1090 C   0  0  0  0  0  0  0  0  0  0  0  0
  181.1970  179.3310  140.8020 C   0  0  0  0  0  0  0  0  0  0  0  0
  185.5520  179.5180  140.1720 O   0  0  0  0  0  0  0  0  0  0  0  0
  185.1610  178.1120  142.0040 N   0  0  0  0  0  2  0  0  0  0  0  0
  186.0250  178.8190  141.1070 C   0  0  0  0  0  0  0  0  0  0  0  0
  187.4970  178.6880  141.2530 C   0  0  0  0  0  1  0  0  0  0  0  0
  180.3700  180.1500  139.8700 C   0  0  0  0  0  2  0  0  0  0  0  0
  181.1860  181.1780  139.2360 N   0  0  0  0  0  2  0  0  0  0  0  0
  180.4960  181.1990  135.5540 C   0  0  0  0  0  3  0  0  0  0  0  0
  180.6880  180.7320  136.8570 C   0  0  0  0  0  3  0  0  0  0  0  0
  181.0090  184.8540  136.0280 N   0  0  0  0  0  1  0  0  0  0  0  0
  180.6030  182.5650  135.2800 C   0  0  0  0  0  3  0  0  0  0  0  0
  180.9910  181.6300  137.8920 C   0  0  0  0  0  0  0  0  0  0  0  0
  181.0930  182.9960  137.6110 C   0  0  0  0  0  3  0  0  0  0  0  0
  180.9010  183.4640  136.3070 C   0  0  0  0  0  0  0  0  0  0  0  0
  184.0040  179.4300  144.1960 N   0  0  0  0  0  2  0  0  0  0  0  0
  183.6650  179.1960  145.5380 N   0  0  0  0  0  2  0  0  0  0  0  0
  184.5100  178.1130  146.0230 C   0  0  0  0  0  2  0  0  0  0  0  0
  185.7610  178.6710  146.6210 C   0  0  0  0  0  0  0  0  0  0  0  0
  185.6760  179.6730  147.3800 O   0  0  0  0  0  0  0  0  0  0  0  0
  188.0010  177.8390  147.3420 C   0  0  0  0  0  3  0  0  0  0  0  0
  189.2520  177.2850  147.0560 C   0  0  0  0  0  3  0  0  0  0  0  0
  187.4330  177.7690  144.9910 C   0  0  0  0  0  3  0  0  0  0  0  0
  187.0810  178.0860  146.3120 C   0  0  0  0  0  0  0  0  0  0  0  0
  189.5940  176.9730  145.7370 C   0  0  0  0  0  3  0  0  0  0  0  0
  188.6840  177.2140  144.7050 C   0  0  0  0  0  3  0  0  0  0  0  0
  1  7  2  0  0  0  0
  1  5  1  0  0  0  0
  2  3  2  0  0  0  0
  4  6  2  0  0  0  0
  5  4  1  0  0  0  0
  6  3  1  0  0  0  0
  6 21  1  0  0  0  0
  7  2  1  0  0  0  0
  8 10  2  0  0  0  0
  9  4  1  0  0  0  0
 10 11  1  0  0  0  0
 10  9  1  0  0  0  0
 12  7  1  0  0  0  0
 13 12  1  0  0  0  0
 14 15  1  0  0  0  0
 15 18  2  0  0  0  0
 16 20  1  0  0  0  0
 17 14  2  0  0  0  0
 17 20  1  0  0  0  0
 18 13  1  0  0  0  0
 19 18  1  0  0  0  0
 20 19  2  0  0  0  0
 21 22  1  0  0  0  0
 22 23  1  0  0  0  0
 23 24  1  0  0  0  0
 24 25  2  0  0  0  0
 27 26  1  0  0  0  0
 28 29  1  0  0  0  0
 29 24  1  0  0  0  0
 29 26  2  0  0  0  0
 30 27  2  0  0  0  0
 31 28  2  0  0  0  0
 31 30  1  0  0  0  0
M  END
>  <MODEL>
4

>  <REMARK>
 VINA RESULT:      -8.2      4.213      9.284
  Name = 
  9 active torsions:
  status: ('A' for Active; 'I' for Inactive)
    1  A    between atoms: C_3  and  N_24
    2  A    between atoms: C_3  and  C_27
    3  A    between atoms: C_11  and  C_12
    4  A    between atoms: C_11  and  C_29
    5  A    between atoms: C_12  and  N_17
    6  A    between atoms: C_14  and  N_22
    7  A    between atoms: C_15  and  N_24
    8  A    between atoms: N_17  and  N_25
    9  A    between atoms: C_21  and  N_25
                            x       y       z     vdW  Elec       q    Type
                         _______ _______ _______ _____ _____    ______ ____

>  <TORSDO>
F 9

$$$$
=
 OpenBabel10232411513D

 31 33  0  0  0  0  0  0  0  0999 V2000
  190.2360  176.9730  139.5570 C   0  0  0  0  0  3  0  0  0  0  0  0
  188.9020  178.2320  141.1530 N   0  0  0  0  0  0  0  0  0  0  0  0
  187.9110  178.7080  140.4520 C   0  0  0  0  0  3  0  0  0  0  0  0
  188.3500  177.7460  138.2000 C   0  0  0  0  0  0  0  0  0  0  0  0
  189.8230  177.8420  138.4230 C   0  0  0  0  0  2  0  0  0  0  0  0
  187.4820  178.2320  139.1120 C   0  0  0  0  0  0  0  0  0  0  0  0
  189.8020  177.1660  140.8030 C   0  0  0  0  0  0  0  0  0  0  0  0
  187.6810  175.0090  137.4850 O   0  0  0  0  0  0  0  0  0  0  0  0
  187.9140  177.2690  136.9200 N   0  0  0  0  0  2  0  0  0  0  0  0
  187.4920  175.9290  136.6470 C   0  0  0  0  0  0  0  0  0  0  0  0
  186.8650  175.6110  135.3380 C   0  0  0  0  0  1  0  0  0  0  0  0
  190.3760  176.3260  141.8910 C   0  0  0  0  0  2  0  0  0  0  0  0
  189.4720  176.2890  143.0350 N   0  0  0  0  0  2  0  0  0  0  0  0
  191.6080  176.5870  146.0980 C   0  0  0  0  0  3  0  0  0  0  0  0
  191.2240  176.3470  144.7760 C   0  0  0  0  0  3  0  0  0  0  0  0
  188.3620  177.6150  147.6010 N   0  0  0  0  0  1  0  0  0  0  0  0
  190.6580  177.0060  147.0340 C   0  0  0  0  0  3  0  0  0  0  0  0
  189.8890  176.5230  144.3840 C   0  0  0  0  0  0  0  0  0  0  0  0
  188.9450  176.9460  145.3250 C   0  0  0  0  0  3  0  0  0  0  0  0
  189.3280  177.1870  146.6480 C   0  0  0  0  0  0  0  0  0  0  0  0
  186.1080  178.4060  138.7450 N   0  0  0  0  0  2  0  0  0  0  0  0
  185.1880  179.0680  139.5730 N   0  0  0  0  0  2  0  0  0  0  0  0
  184.2660  178.0670  140.0930 C   0  0  0  0  0  2  0  0  0  0  0  0
  183.4530  178.6500  141.2030 C   0  0  0  0  0  0  0  0  0  0  0  0
  182.3470  179.1880  140.9280 O   0  0  0  0  0  0  0  0  0  0  0  0
  185.2900  178.3680  142.8690 C   0  0  0  0  0  3  0  0  0  0  0  0
  185.7560  178.3460  144.1870 C   0  0  0  0  0  3  0  0  0  0  0  0
  183.0600  178.8640  143.6660 C   0  0  0  0  0  3  0  0  0  0  0  0
  183.9380  178.6280  142.5970 C   0  0  0  0  0  0  0  0  0  0  0  0
  184.8740  178.5820  145.2450 C   0  0  0  0  0  3  0  0  0  0  0  0
  183.5260  178.8420  144.9840 C   0  0  0  0  0  3  0  0  0  0  0  0
  1  7  2  0  0  0  0
  3  2  2  0  0  0  0
  4  5  1  0  0  0  0
  4  6  2  0  0  0  0
  5  1  1  0  0  0  0
  6  3  1  0  0  0  0
  7  2  1  0  0  0  0
  7 12  1  0  0  0  0
  9  4  1  0  0  0  0
 10  9  1  0  0  0  0
 10  8  2  0  0  0  0
 11 10  1  0  0  0  0
 12 13  1  0  0  0  0
 13 18  1  0  0  0  0
 14 17  1  0  0  0  0
 15 14  2  0  0  0  0
 18 15  1  0  0  0  0
 18 19  2  0  0  0  0
 19 20  1  0  0  0  0
 20 17  2  0  0  0  0
 20 16  1  0  0  0  0
 21  6  1  0  0  0  0
 21 22  1  0  0  0  0
 22 23  1  0  0  0  0
 23 24  1  0  0  0  0
 24 29  1  0  0  0  0
 25 24  2  0  0  0  0
 26 27  1  0  0  0  0
 27 30  2  0  0  0  0
 28 31  2  0  0  0  0
 29 26  2  0  0  0  0
 29 28  1  0  0  0  0
 31 30  1  0  0  0  0
M  END
>  <MODEL>
5

>  <REMARK>
 VINA RESULT:      -8.1      1.573      1.850
  Name = 
  9 active torsions:
  status: ('A' for Active; 'I' for Inactive)
    1  A    between atoms: C_3  and  N_24
    2  A    between atoms: C_3  and  C_27
    3  A    between atoms: C_11  and  C_12
    4  A    between atoms: C_11  and  C_29
    5  A    between atoms: C_12  and  N_17
    6  A    between atoms: C_14  and  N_22
    7  A    between atoms: C_15  and  N_24
    8  A    between atoms: N_17  and  N_25
    9  A    between atoms: C_21  and  N_25
                            x       y       z     vdW  Elec       q    Type
                         _______ _______ _______ _____ _____    ______ ____

>  <TORSDO>
F 9

$$$$
=
 OpenBabel10232411513D

 31 33  0  0  0  0  0  0  0  0999 V2000
  191.6050  176.6040  142.7880 C   0  0  0  0  0  3  0  0  0  0  0  0
  189.1760  176.6330  142.6810 N   0  0  0  0  0  0  0  0  0  0  0  0
  188.7900  176.5390  143.9230 C   0  0  0  0  0  3  0  0  0  0  0  0
  190.9550  176.5300  145.1480 C   0  0  0  0  0  0  0  0  0  0  0  0
  191.6090  175.7870  144.0310 C   0  0  0  0  0  2  0  0  0  0  0  0
  189.6320  176.7920  145.1200 C   0  0  0  0  0  0  0  0  0  0  0  0
  190.4780  176.9840  142.1850 C   0  0  0  0  0  0  0  0  0  0  0  0
  191.2890  174.8370  147.4880 O   0  0  0  0  0  0  0  0  0  0  0  0
  191.7560  176.8040  146.3060 N   0  0  0  0  0  2  0  0  0  0  0  0
  191.9740  175.8880  147.3850 C   0  0  0  0  0  0  0  0  0  0  0  0
  192.9880  176.2080  148.4220 C   0  0  0  0  0  1  0  0  0  0  0  0
  190.5800  177.6870  140.8740 C   0  0  0  0  0  2  0  0  0  0  0  0
  191.8440  177.3640  140.2210 N   0  0  0  0  0  2  0  0  0  0  0  0
  190.9130  176.0620  136.8340 C   0  0  0  0  0  3  0  0  0  0  0  0
  190.7940  176.5830  138.1260 C   0  0  0  0  0  3  0  0  0  0  0  0
  194.6090  175.7480  136.5360 N   0  0  0  0  0  1  0  0  0  0  0  0
  192.1780  175.7850  136.3080 C   0  0  0  0  0  3  0  0  0  0  0  0
  191.9390  176.8270  138.8990 C   0  0  0  0  0  0  0  0  0  0  0  0
  193.2020  176.5500  138.3650 C   0  0  0  0  0  3  0  0  0  0  0  0
  193.3220  176.0290  137.0720 C   0  0  0  0  0  0  0  0  0  0  0  0
  188.9800  177.2250  146.3210 N   0  0  0  0  0  2  0  0  0  0  0  0
  188.0390  178.2660  146.3310 N   0  0  0  0  0  2  0  0  0  0  0  0
  186.7180  177.6620  146.4450 C   0  0  0  0  0  2  0  0  0  0  0  0
  185.6630  178.6900  146.1910 C   0  0  0  0  0  0  0  0  0  0  0  0
  185.4120  179.5370  147.0900 O   0  0  0  0  0  0  0  0  0  0  0  0
  183.5300  179.0060  144.9330 C   0  0  0  0  0  3  0  0  0  0  0  0
  182.8040  179.0220  143.7390 C   0  0  0  0  0  3  0  0  0  0  0  0
  185.5320  178.4200  143.7060 C   0  0  0  0  0  3  0  0  0  0  0  0
  184.9010  178.7050  144.9270 C   0  0  0  0  0  0  0  0  0  0  0  0
  183.4410  178.7360  142.5280 C   0  0  0  0  0  3  0  0  0  0  0  0
  184.8060  178.4360  142.5120 C   0  0  0  0  0  3  0  0  0  0  0  0
  1  5  1  0  0  0  0
  2  3  2  0  0  0  0
  3  6  1  0  0  0  0
  4  9  1  0  0  0  0
  5  4  1  0  0  0  0
  6  4  2  0  0  0  0
  6 21  1  0  0  0  0
  7  2  1  0  0  0  0
  7  1  2  0  0  0  0
  9 10  1  0  0  0  0
 10  8  2  0  0  0  0
 10 11  1  0  0  0  0
 12  7  1  0  0  0  0
 13 12  1  0  0  0  0
 14 15  1  0  0  0  0
 15 18  2  0  0  0  0
 16 20  1  0  0  0  0
 17 14  2  0  0  0  0
 17 20  1  0  0  0  0
 18 13  1  0  0  0  0
 19 18  1  0  0  0  0
 20 19  2  0  0  0  0
 21 22  1  0  0  0  0
 22 23  1  0  0  0  0
 24 23  1  0  0  0  0
 24 25  2  0  0  0  0
 27 26  2  0  0  0  0
 28 29  2  0  0  0  0
 29 26  1  0  0  0  0
 29 24  1  0  0  0  0
 30 27  1  0  0  0  0
 31 30  2  0  0  0  0
 31 28  1  0  0  0  0
M  END
>  <MODEL>
6

>  <REMARK>
 VINA RESULT:      -7.9      3.360      7.185
  Name = 
  9 active torsions:
  status: ('A' for Active; 'I' for Inactive)
    1  A    between atoms: C_3  and  N_24
    2  A    between atoms: C_3  and  C_27
    3  A    between atoms: C_11  and  C_12
    4  A    between atoms: C_11  and  C_29
    5  A    between atoms: C_12  and  N_17
    6  A    between atoms: C_14  and  N_22
    7  A    between atoms: C_15  and  N_24
    8  A    between atoms: N_17  and  N_25
    9  A    between atoms: C_21  and  N_25
                            x       y       z     vdW  Elec       q    Type
                         _______ _______ _______ _____ _____    ______ ____

>  <TORSDO>
F 9

$$$$
=
 OpenBabel10232411513D

 31 33  0  0  1  0  0  0  0  0999 V2000
  190.5350  176.7730  141.0410 C   0  0  0  0  0  3  0  0  0  0  0  0
  188.4650  178.0010  141.3860 N   0  0  0  0  0  0  0  0  0  0  0  0
  188.1330  178.4270  140.1990 C   0  0  0  0  0  3  0  0  0  0  0  0
  189.9200  177.4520  138.7700 C   0  0  1  0  0  3  0  0  0  0  0  0
  190.9160  177.6080  139.8710 C   0  0  0  0  0  2  0  0  0  0  0  0
  188.6610  177.9160  138.9090 C   0  0  0  0  0  0  0  0  0  0  0  0
  189.4060  176.9670  141.7220 C   0  0  0  0  0  0  0  0  0  0  0  0
  190.4750  174.6750  138.1110 O   0  0  0  0  0  0  0  0  0  0  0  0
  190.4040  176.9400  137.5210 N   0  0  0  0  0  2  0  0  0  0  0  0
  190.5580  175.5510  137.2110 C   0  0  0  0  0  0  0  0  0  0  0  0
  190.8670  175.1420  135.8170 C   0  0  0  0  0  1  0  0  0  0  0  0
  189.1780  176.1650  142.9580 C   0  0  0  0  0  2  0  0  0  0  0  0
  187.9130  176.5390  143.5800 N   0  0  0  0  0  2  0  0  0  0  0  0
  188.7750  177.6510  147.0520 C   0  0  0  0  0  3  0  0  0  0  0  0
  188.9000  177.0960  145.7750 C   0  0  0  0  0  3  0  0  0  0  0  0
  185.2310  178.7870  146.9850 N   0  0  0  0  0  1  0  0  0  0  0  0
  187.5580  178.2100  147.4520 C   0  0  0  0  0  3  0  0  0  0  0  0
  187.8080  177.0960  144.8940 C   0  0  0  0  0  0  0  0  0  0  0  0
  186.5950  177.6600  145.3000 C   0  0  0  0  0  3  0  0  0  0  0  0
  186.4690  178.2160  146.5770 C   0  0  0  0  0  0  0  0  0  0  0  0
  187.8270  178.0310  137.7490 N   0  0  0  0  0  0  0  0  0  0  0  0
  186.6460  178.7890  137.7450 N   0  0  0  0  0  2  0  0  0  0  0  0
  185.5350  177.8730  137.9690 C   0  0  0  0  0  2  0  0  0  0  0  0
  184.5710  178.4690  138.9430 C   0  0  0  0  0  0  0  0  0  0  0  0
  184.8580  179.5690  139.4850 O   0  0  0  0  0  0  0  0  0  0  0  0
  182.4020  178.3740  140.1760 C   0  0  0  0  0  3  0  0  0  0  0  0
  181.2120  177.7230  140.5120 C   0  0  0  0  0  3  0  0  0  0  0  0
  183.0180  176.5150  138.7550 C   0  0  0  0  0  3  0  0  0  0  0  0
  183.3160  177.7760  139.2940 C   0  0  0  0  0  0  0  0  0  0  0  0
  180.9250  176.4670  139.9700 C   0  0  0  0  0  3  0  0  0  0  0  0
  181.8280  175.8630  139.0910 C   0  0  0  0  0  3  0  0  0  0  0  0
  1  7  2  0  0  0  0
  2  7  1  0  0  0  0
  3  2  2  0  0  0  0
  4  9  1  6  0  0  0
  4  6  1  0  0  0  0
  4  5  1  0  0  0  0
  5  1  1  0  0  0  0
  6  3  1  0  0  0  0
  7 12  1  0  0  0  0
 10  9  1  0  0  0  0
 10  8  2  0  0  0  0
 11 10  1  0  0  0  0
 12 13  1  0  0  0  0
 13 18  1  0  0  0  0
 14 17  1  0  0  0  0
 15 14  2  0  0  0  0
 18 19  2  0  0  0  0
 18 15  1  0  0  0  0
 19 20  1  0  0  0  0
 20 16  1  0  0  0  0
 20 17  2  0  0  0  0
 21  6  2  0  0  0  0
 22 21  1  0  0  0  0
 22 23  1  0  0  0  0
 23 24  1  0  0  0  0
 24 29  1  0  0  0  0
 24 25  2  0  0  0  0
 26 27  1  0  0  0  0
 28 31  2  0  0  0  0
 28 29  1  0  0  0  0
 29 26  2  0  0  0  0
 30 27  2  0  0  0  0
 31 30  1  0  0  0  0
M  END
>  <MODEL>
7

>  <REMARK>
 VINA RESULT:      -7.9      2.657      4.262
  Name = 
  9 active torsions:
  status: ('A' for Active; 'I' for Inactive)
    1  A    between atoms: C_3  and  N_24
    2  A    between atoms: C_3  and  C_27
    3  A    between atoms: C_11  and  C_12
    4  A    between atoms: C_11  and  C_29
    5  A    between atoms: C_12  and  N_17
    6  A    between atoms: C_14  and  N_22
    7  A    between atoms: C_15  and  N_24
    8  A    between atoms: N_17  and  N_25
    9  A    between atoms: C_21  and  N_25
                            x       y       z     vdW  Elec       q    Type
                         _______ _______ _______ _____ _____    ______ ____

>  <TORSDO>
F 9

$$$$
=
 OpenBabel10232411513D

 31 33  0  0  0  0  0  0  0  0999 V2000
  190.8000  176.6670  141.5150 C   0  0  0  0  0  3  0  0  0  0  0  0
  188.7720  177.9870  141.2780 N   0  0  0  0  0  0  0  0  0  0  0  0
  188.7980  178.4140  140.0460 C   0  0  0  0  0  3  0  0  0  0  0  0
  190.8640  177.3460  139.1630 C   0  0  0  0  0  0  0  0  0  0  0  0
  191.5240  177.4710  140.4950 C   0  0  0  0  0  2  0  0  0  0  0  0
  189.6370  177.8660  138.9500 C   0  0  0  0  0  0  0  0  0  0  0  0
  189.5370  176.9180  141.8590 C   0  0  0  0  0  0  0  0  0  0  0  0
  190.7310  174.6440  138.0970 O   0  0  0  0  0  0  0  0  0  0  0  0
  191.6490  176.7990  138.0950 N   0  0  0  0  0  2  0  0  0  0  0  0
  191.4700  175.4940  137.5330 C   0  0  0  0  0  0  0  0  0  0  0  0
  192.2030  175.1230  136.2960 C   0  0  0  0  0  1  0  0  0  0  0  0
  188.9420  176.1410  142.9850 C   0  0  0  0  0  2  0  0  0  0  0  0
  187.7260  176.7890  143.4610 N   0  0  0  0  0  2  0  0  0  0  0  0
  188.4370  177.7750  147.0050 C   0  0  0  0  0  3  0  0  0  0  0  0
  188.6220  177.2820  145.7100 C   0  0  0  0  0  3  0  0  0  0  0  0
  184.8580  178.7860  146.8700 N   0  0  0  0  0  1  0  0  0  0  0  0
  187.1880  178.2720  147.3890 C   0  0  0  0  0  3  0  0  0  0  0  0
  187.5600  177.2820  144.7940 C   0  0  0  0  0  0  0  0  0  0  0  0
  186.3140  177.7850  145.1840 C   0  0  0  0  0  3  0  0  0  0  0  0
  186.1280  178.2780  146.4800 C   0  0  0  0  0  0  0  0  0  0  0  0
  189.1600  178.0020  137.6060 N   0  0  0  0  0  2  0  0  0  0  0  0
  188.3400  179.0680  137.2050 N   0  0  0  0  0  2  0  0  0  0  0  0
  187.2200  178.5060  136.4620 C   0  0  0  0  0  2  0  0  0  0  0  0
  186.1780  178.0050  137.4090 C   0  0  0  0  0  0  0  0  0  0  0  0
  185.7320  178.7880  138.2890 O   0  0  0  0  0  0  0  0  0  0  0  0
  186.5670  175.5780  136.9720 C   0  0  0  0  0  3  0  0  0  0  0  0
  186.1150  174.2580  136.9080 C   0  0  0  0  0  3  0  0  0  0  0  0
  184.3590  176.3020  137.6490 C   0  0  0  0  0  3  0  0  0  0  0  0
  185.6940  176.6120  137.3430 C   0  0  0  0  0  0  0  0  0  0  0  0
  184.7840  173.9590  137.2130 C   0  0  0  0  0  3  0  0  0  0  0  0
  183.9070  174.9810  137.5850 C   0  0  0  0  0  3  0  0  0  0  0  0
  1  7  2  0  0  0  0
  2  7  1  0  0  0  0
  3  2  2  0  0  0  0
  4  5  1  0  0  0  0
  5  1  1  0  0  0  0
  6  4  2  0  0  0  0
  6  3  1  0  0  0  0
  7 12  1  0  0  0  0
  9  4  1  0  0  0  0
 10  9  1  0  0  0  0
 10  8  2  0  0  0  0
 11 10  1  0  0  0  0
 12 13  1  0  0  0  0
 13 18  1  0  0  0  0
 14 17  1  0  0  0  0
 15 14  2  0  0  0  0
 18 19  2  0  0  0  0
 18 15  1  0  0  0  0
 19 20  1  0  0  0  0
 20 16  1  0  0  0  0
 20 17  2  0  0  0  0
 21  6  1  0  0  0  0
 22 21  1  0  0  0  0
 23 22  1  0  0  0  0
 23 24  1  0  0  0  0
 24 25  2  0  0  0  0
 26 29  1  0  0  0  0
 27 26  2  0  0  0  0
 27 30  1  0  0  0  0
 29 24  1  0  0  0  0
 29 28  2  0  0  0  0
 30 31  2  0  0  0  0
 31 28  1  0  0  0  0
M  END
>  <MODEL>
8

>  <REMARK>
 VINA RESULT:      -7.9      2.874      5.217
  Name = 
  9 active torsions:
  status: ('A' for Active; 'I' for Inactive)
    1  A    between atoms: C_3  and  N_24
    2  A    between atoms: C_3  and  C_27
    3  A    between atoms: C_11  and  C_12
    4  A    between atoms: C_11  and  C_29
    5  A    between atoms: C_12  and  N_17
    6  A    between atoms: C_14  and  N_22
    7  A    between atoms: C_15  and  N_24
    8  A    between atoms: N_17  and  N_25
    9  A    between atoms: C_21  and  N_25
                            x       y       z     vdW  Elec       q    Type
                         _______ _______ _______ _____ _____    ______ ____

>  <TORSDO>
F 9

$$$$
=
 OpenBabel10232411513D

 31 33  0  0  0  0  0  0  0  0999 V2000
  188.7010  177.9530  137.9900 C   0  0  0  0  0  3  0  0  0  0  0  0
  190.5540  176.4240  138.3640 N   0  0  0  0  0  0  0  0  0  0  0  0
  190.7410  176.4410  139.6550 C   0  0  0  0  0  3  0  0  0  0  0  0
  188.9260  177.9560  140.4290 C   0  0  0  0  0  0  0  0  0  0  0  0
  189.0460  178.7710  139.1840 C   0  0  0  0  0  2  0  0  0  0  0  0
  189.7760  176.9370  140.6700 C   0  0  0  0  0  0  0  0  0  0  0  0
  189.4040  176.8790  137.6320 C   0  0  0  0  0  0  0  0  0  0  0  0
  186.1750  178.7810  139.9770 O   0  0  0  0  0  0  0  0  0  0  0  0
  187.9860  178.4050  141.4140 N   0  0  0  0  0  2  0  0  0  0  0  0
  186.6080  178.6970  141.1560 C   0  0  0  0  0  0  0  0  0  0  0  0
  185.6880  178.9500  142.2950 C   0  0  0  0  0  1  0  0  0  0  0  0
  189.0590  176.2040  136.3480 C   0  0  0  0  0  2  0  0  0  0  0  0
  187.6130  176.1560  136.1720 N   0  0  0  0  0  2  0  0  0  0  0  0
  186.4970  172.7830  137.3600 C   0  0  0  0  0  3  0  0  0  0  0  0
  187.3190  173.8090  136.8870 C   0  0  0  0  0  3  0  0  0  0  0  0
  183.2330  174.5530  137.6170 N   0  0  0  0  0  1  0  0  0  0  0  0
  185.1420  173.0300  137.6010 C   0  0  0  0  0  3  0  0  0  0  0  0
  186.7900  175.0870  136.6500 C   0  0  0  0  0  0  0  0  0  0  0  0
  185.4350  175.3280  136.8970 C   0  0  0  0  0  3  0  0  0  0  0  0
  184.6110  174.3020  137.3700 C   0  0  0  0  0  0  0  0  0  0  0  0
  189.8390  176.3760  141.9870 N   0  0  0  0  0  2  0  0  0  0  0  0
  191.0020  176.4290  142.7710 N   0  0  0  0  0  2  0  0  0  0  0  0
  190.9040  177.6070  143.6230 C   0  0  0  0  0  2  0  0  0  0  0  0
  190.7580  177.1930  145.0520 C   0  0  0  0  0  0  0  0  0  0  0  0
  191.7100  176.5820  145.6070 O   0  0  0  0  0  0  0  0  0  0  0  0
  188.3170  177.7140  145.1130 C   0  0  0  0  0  3  0  0  0  0  0  0
  187.1370  177.9700  145.8170 C   0  0  0  0  0  3  0  0  0  0  0  0
  189.5110  177.4740  147.2040 C   0  0  0  0  0  3  0  0  0  0  0  0
  189.5150  177.4630  145.8010 C   0  0  0  0  0  0  0  0  0  0  0  0
  187.1440  177.9790  147.2140 C   0  0  0  0  0  3  0  0  0  0  0  0
  188.3310  177.7310  147.9080 C   0  0  0  0  0  3  0  0  0  0  0  0
  1  5  1  0  0  0  0
  2  3  2  0  0  0  0
  3  6  1  0  0  0  0
  4  6  2  0  0  0  0
  4  9  1  0  0  0  0
  5  4  1  0  0  0  0
  6 21  1  0  0  0  0
  7  1  2  0  0  0  0
  7  2  1  0  0  0  0
  8 10  2  0  0  0  0
 10  9  1  0  0  0  0
 10 11  1  0  0  0  0
 12  7  1  0  0  0  0
 13 12  1  0  0  0  0
 13 18  1  0  0  0  0
 14 17  1  0  0  0  0
 15 14  2  0  0  0  0
 18 15  1  0  0  0  0
 18 19  2  0  0  0  0
 19 20  1  0  0  0  0
 20 17  2  0  0  0  0
 20 16  1  0  0  0  0
 21 22  1  0  0  0  0
 22 23  1  0  0  0  0
 23 24  1  0  0  0  0
 24 25  2  0  0  0  0
 24 29  1  0  0  0  0
 26 29  2  0  0  0  0
 26 27  1  0  0  0  0
 27 30  2  0  0  0  0
 28 31  2  0  0  0  0
 29 28  1  0  0  0  0
 30 31  1  0  0  0  0
M  END
>  <MODEL>
9

>  <REMARK>
 VINA RESULT:      -7.8      3.240      7.128
  Name = 
  9 active torsions:
  status: ('A' for Active; 'I' for Inactive)
    1  A    between atoms: C_3  and  N_24
    2  A    between atoms: C_3  and  C_27
    3  A    between atoms: C_11  and  C_12
    4  A    between atoms: C_11  and  C_29
    5  A    between atoms: C_12  and  N_17
    6  A    between atoms: C_14  and  N_22
    7  A    between atoms: C_15  and  N_24
    8  A    between atoms: N_17  and  N_25
    9  A    between atoms: C_21  and  N_25
                            x       y       z     vdW  Elec       q    Type
                         _______ _______ _______ _____ _____    ______ ____

>  <TORSDO>
F 9

$$$$
