=
 OpenBabel10232411363D

 48 53  0  0  1  0  0  0  0  0999 V2000
  186.5120  178.3900  139.2010 C   0  0  0  0  0  2  0  0  0  0  0  0
  187.7640  178.2880  139.9250 N   0  0  0  0  0  0  0  0  0  0  0  0
  184.7850  179.8510  139.9970 O   0  0  0  0  0  0  0  0  0  0  0  0
  186.0340  179.9480  142.2610 F   0  0  0  0  0  0  0  0  0  0  0  0
  185.6260  177.7270  142.4700 F   0  0  0  0  0  0  0  0  0  0  0  0
  186.1560  178.7090  141.6550 C   0  0  0  0  0  0  0  0  0  0  0  0
  185.5020  178.6730  140.2830 C   0  0  2  0  0  0  0  0  0  0  0  0
  184.0230  178.6680  140.1090 C   0  0  2  0  0  3  0  0  0  0  0  0
  187.6230  178.4120  141.3730 C   0  0  0  0  0  2  0  0  0  0  0  0
  192.3550  176.3570  137.2960 O   0  0  0  0  0  1  0  0  0  0  0  0
  190.0490  177.2830  140.0370 C   0  0  0  0  0  0  0  0  0  0  0  0
  191.2420  176.8550  137.9570 C   0  0  0  0  0  0  0  0  0  0  0  0
  191.1660  176.7840  139.3490 C   0  0  0  0  0  3  0  0  0  0  0  0
  188.9770  177.8450  139.2950 C   0  0  0  0  0  0  0  0  0  0  0  0
  190.2030  177.4350  137.2320 C   0  0  0  0  0  3  0  0  0  0  0  0
  189.0790  177.9250  137.8970 C   0  0  0  0  0  3  0  0  0  0  0  0
  190.7650  178.2380  143.6300 C   0  0  0  0  0  3  0  0  0  0  0  0
  190.1690  177.1780  144.3310 C   0  0  0  0  0  0  0  0  0  0  0  0
  189.4900  176.1980  142.2150 C   0  0  0  0  0  3  0  0  0  0  0  0
  190.0750  177.2630  141.5160 C   0  0  0  0  0  0  0  0  0  0  0  0
  189.5320  176.1620  143.6120 C   0  0  0  0  0  3  0  0  0  0  0  0
  190.7260  178.2760  142.2350 C   0  0  0  0  0  3  0  0  0  0  0  0
  190.1580  177.1110  145.7330 O   0  0  0  0  0  0  0  0  0  0  0  0
  187.9190  177.8490  146.0490 N   0  0  0  0  0  0  0  0  0  0  0  0
  186.8700  178.2580  146.8130 C   0  0  0  0  0  0  0  0  0  0  0  0
  189.3050  177.6380  147.9780 C   0  0  0  0  0  3  0  0  0  0  0  0
  187.0170  178.3720  148.1970 C   0  0  0  0  0  3  0  0  0  0  0  0
  189.1310  177.5420  146.5880 C   0  0  0  0  0  0  0  0  0  0  0  0
  188.2440  178.0570  148.7800 C   0  0  0  0  0  3  0  0  0  0  0  0
  184.5230  178.2460  147.0130 F   0  0  0  0  0  0  0  0  0  0  0  0
  185.4440  177.9390  144.9700 F   0  0  0  0  0  0  0  0  0  0  0  0
  185.5670  178.6020  146.1780 C   0  0  0  0  0  3  0  0  0  0  0  0
  183.0390  178.9430  137.9560 O   0  0  0  0  0  0  0  0  0  0  0  0
  183.8910  176.8100  138.3810 N   0  0  0  0  0  2  0  0  0  0  0  0
  183.6260  178.1650  138.7560 C   0  0  0  0  0  0  0  0  0  0  0  0
  183.3250  176.2050  137.1830 C   0  0  2  0  0  3  0  0  0  0  0  0
  180.9400  173.3460  136.7800 C   0  0  0  0  0  0  0  0  0  0  0  0
  182.3260  173.8640  137.1180 C   0  0  0  0  0  2  0  0  0  0  0  0
  180.5370  172.2640  137.7600 C   0  0  0  0  0  1  0  0  0  0  0  0
  182.1440  175.3030  137.5680 C   0  0  2  0  0  3  0  0  0  0  0  0
  180.8360  175.7690  136.9710 C   0  0  0  0  0  2  0  0  0  0  0  0
  180.9310  172.7900  135.3710 C   0  0  0  0  0  1  0  0  0  0  0  0
  179.9820  174.5220  136.8820 C   0  0  0  0  0  2  0  0  0  0  0  0
  187.5110  175.8640  134.3770 C   0  0  0  0  0  1  0  0  0  0  0  0
  185.4610  176.0840  135.8240 C   0  0  0  0  0  0  0  0  0  0  0  0
  185.6090  177.3360  135.8830 O   0  0  0  0  0  0  0  0  0  0  0  0
  184.3620  175.4540  136.4850 N   0  0  0  0  0  2  0  0  0  0  0  0
  186.3910  175.2820  135.0970 N   0  0  0  0  0  2  0  0  0  0  0  0
  1  2  1  0  0  0  0
  2  9  1  0  0  0  0
  3  8  1  0  0  0  0
  3  7  1  0  0  0  0
  6  4  1  0  0  0  0
  6  5  1  0  0  0  0
  7  1  1  6  0  0  0
  7  6  1  0  0  0  0
  8 35  1  6  0  0  0
  8  7  1  0  0  0  0
  9  6  1  0  0  0  0
 10 12  1  0  0  0  0
 11 20  1  0  0  0  0
 12 13  2  0  0  0  0
 13 11  1  0  0  0  0
 14  2  1  0  0  0  0
 14 11  2  0  0  0  0
 15 16  2  0  0  0  0
 15 12  1  0  0  0  0
 16 14  1  0  0  0  0
 17 18  1  0  0  0  0
 18 23  1  0  0  0  0
 19 21  1  0  0  0  0
 20 19  2  0  0  0  0
 20 22  1  0  0  0  0
 21 18  2  0  0  0  0
 22 17  2  0  0  0  0
 23 28  1  0  0  0  0
 24 28  2  0  0  0  0
 24 25  1  0  0  0  0
 25 27  2  0  0  0  0
 26 29  2  0  0  0  0
 27 29  1  0  0  0  0
 28 26  1  0  0  0  0
 31 32  1  0  0  0  0
 32 25  1  0  0  0  0
 32 30  1  0  0  0  0
 33 35  2  0  0  0  0
 34 35  1  0  0  0  0
 36 47  1  1  0  0  0
 36 34  1  0  0  0  0
 37 43  1  0  0  0  0
 37 38  1  0  0  0  0
 37 39  1  0  0  0  0
 38 40  1  0  0  0  0
 40 36  1  6  0  0  0
 41 40  1  0  0  0  0
 42 37  1  0  0  0  0
 43 41  1  0  0  0  0
 44 48  1  0  0  0  0
 45 46  2  0  0  0  0
 45 47  1  0  0  0  0
 48 45  1  0  0  0  0
M  END
>  <MODEL>
1

>  <REMARK>
 VINA RESULT:      -9.7      0.000      0.000
  Name = 
  9 active torsions:
  status: ('A' for Active; 'I' for Inactive)
    1  A    between atoms: O_3  and  C_16
    2  A    between atoms: O_3  and  C_29
    3  A    between atoms: N_7  and  C_38
    4  A    between atoms: C_12  and  C_30
    5  A    between atoms: C_15  and  C_20
    6  A    between atoms: C_26  and  C_46
    7  A    between atoms: C_33  and  N_35
    8  A    between atoms: C_33  and  C_36
    9  A    between atoms: C_33  and  N_44
                            x       y       z     vdW  Elec       q    Type
                         _______ _______ _______ _____ _____    ______ ____

>  <TORSDO>
F 9

$$$$
=
 OpenBabel10232411363D

 48 53  0  0  1  0  0  0  0  0999 V2000
  187.7670  176.3640  138.2780 C   0  0  0  0  0  2  0  0  0  0  0  0
  187.7030  175.9090  136.9020 N   0  0  0  0  0  0  0  0  0  0  0  0
  187.2400  178.6410  138.8100 O   0  0  0  0  0  0  0  0  0  0  0  0
  187.4860  179.1940  136.2940 F   0  0  0  0  0  0  0  0  0  0  0  0
  189.6710  178.6140  136.4810 F   0  0  0  0  0  0  0  0  0  0  0  0
  188.3680  178.2060  136.6970 C   0  0  0  0  0  0  0  0  0  0  0  0
  188.1670  177.8120  138.1510 C   0  0  2  0  0  0  0  0  0  0  0  0
  188.5720  178.6990  139.2770 C   0  0  2  0  0  3  0  0  0  0  0  0
  188.0950  176.9210  135.9250 C   0  0  0  0  0  2  0  0  0  0  0  0
  187.1770  170.5290  135.3240 O   0  0  0  0  0  1  0  0  0  0  0  0
  186.2430  173.9550  136.3610 C   0  0  0  0  0  0  0  0  0  0  0  0
  187.2930  171.8470  135.7400 C   0  0  0  0  0  0  0  0  0  0  0  0
  186.1480  172.6200  135.9390 C   0  0  0  0  0  3  0  0  0  0  0  0
  187.5280  174.5240  136.5630 C   0  0  0  0  0  0  0  0  0  0  0  0
  188.5520  172.3970  135.9700 C   0  0  0  0  0  3  0  0  0  0  0  0
  188.6680  173.7260  136.3760 C   0  0  0  0  0  3  0  0  0  0  0  0
  183.4230  176.4690  136.1290 C   0  0  0  0  0  3  0  0  0  0  0  0
  182.6300  176.1120  137.2320 C   0  0  0  0  0  0  0  0  0  0  0  0
  184.2050  174.3380  137.7520 C   0  0  0  0  0  3  0  0  0  0  0  0
  184.9900  174.6880  136.6440 C   0  0  0  0  0  0  0  0  0  0  0  0
  183.0320  175.0410  138.0380 C   0  0  0  0  0  3  0  0  0  0  0  0
  184.5950  175.7690  135.8430 C   0  0  0  0  0  3  0  0  0  0  0  0
  181.4290  176.7670  137.5440 O   0  0  0  0  0  0  0  0  0  0  0  0
  181.3370  179.1030  137.9820 N   0  0  0  0  0  0  0  0  0  0  0  0
  181.1670  180.1820  138.7940 C   0  0  0  0  0  0  0  0  0  0  0  0
  180.9790  177.6110  139.8090 C   0  0  0  0  0  3  0  0  0  0  0  0
  180.8980  179.9990  140.1520 C   0  0  0  0  0  3  0  0  0  0  0  0
  181.2580  177.8260  138.4490 C   0  0  0  0  0  0  0  0  0  0  0  0
  180.8020  178.7040  140.6590 C   0  0  0  0  0  3  0  0  0  0  0  0
  181.1910  181.5300  136.8630 F   0  0  0  0  0  0  0  0  0  0  0  0
  182.4930  182.1170  138.6160 F   0  0  0  0  0  0  0  0  0  0  0  0
  181.2830  181.5620  138.2430 C   0  0  0  0  0  3  0  0  0  0  0  0
  189.6240  177.0690  140.6590 O   0  0  0  0  0  0  0  0  0  0  0  0
  187.8230  178.1810  141.6490 N   0  0  0  0  0  2  0  0  0  0  0  0
  188.7170  177.9390  140.5580 C   0  0  0  0  0  0  0  0  0  0  0  0
  187.7670  177.3170  142.8200 C   0  0  2  0  0  3  0  0  0  0  0  0
  184.5790  178.9120  143.9680 C   0  0  0  0  0  0  0  0  0  0  0  0
  185.4900  178.4560  142.8420 C   0  0  0  0  0  2  0  0  0  0  0  0
  183.1410  178.5660  143.6450 C   0  0  0  0  0  1  0  0  0  0  0  0
  186.3540  177.3470  143.4180 C   0  0  2  0  0  3  0  0  0  0  0  0
  186.3590  177.5510  144.9150 C   0  0  0  0  0  2  0  0  0  0  0  0
  184.7140  180.4100  144.1600 C   0  0  0  0  0  1  0  0  0  0  0  0
  185.0200  178.1840  145.2270 C   0  0  0  0  0  2  0  0  0  0  0  0
  191.8380  176.5930  145.7200 C   0  0  0  0  0  1  0  0  0  0  0  0
  189.8480  176.9250  144.2130 C   0  0  0  0  0  0  0  0  0  0  0  0
  190.0210  175.7870  143.6960 O   0  0  0  0  0  0  0  0  0  0  0  0
  188.7640  177.7540  143.7900 N   0  0  0  0  0  2  0  0  0  0  0  0
  190.7350  177.3990  145.2250 N   0  0  0  0  0  2  0  0  0  0  0  0
  2  1  1  0  0  0  0
  3  8  1  0  0  0  0
  4  6  1  0  0  0  0
  5  6  1  0  0  0  0
  6  7  1  0  0  0  0
  7  1  1  1  0  0  0
  7  3  1  0  0  0  0
  7  8  1  0  0  0  0
  8 35  1  1  0  0  0
  9  6  1  0  0  0  0
  9  2  1  0  0  0  0
 10 12  1  0  0  0  0
 11 14  1  0  0  0  0
 11 20  1  0  0  0  0
 12 13  1  0  0  0  0
 12 15  2  0  0  0  0
 13 11  2  0  0  0  0
 14  2  1  0  0  0  0
 15 16  1  0  0  0  0
 16 14  2  0  0  0  0
 17 18  1  0  0  0  0
 18 23  1  0  0  0  0
 18 21  2  0  0  0  0
 19 21  1  0  0  0  0
 20 19  2  0  0  0  0
 22 17  2  0  0  0  0
 22 20  1  0  0  0  0
 23 28  1  0  0  0  0
 24 28  2  0  0  0  0
 24 25  1  0  0  0  0
 25 27  2  0  0  0  0
 26 29  2  0  0  0  0
 27 29  1  0  0  0  0
 28 26  1  0  0  0  0
 30 32  1  0  0  0  0
 32 31  1  0  0  0  0
 32 25  1  0  0  0  0
 35 33  2  0  0  0  0
 35 34  1  0  0  0  0
 36 34  1  6  0  0  0
 36 47  1  0  0  0  0
 37 42  1  0  0  0  0
 37 43  1  0  0  0  0
 38 40  1  0  0  0  0
 38 37  1  0  0  0  0
 39 37  1  0  0  0  0
 40 36  1  6  0  0  0
 40 41  1  0  0  0  0
 41 43  1  0  0  0  0
 45 48  1  0  0  0  0
 46 45  2  0  0  0  0
 47 45  1  0  0  0  0
 48 44  1  0  0  0  0
M  END
>  <MODEL>
2

>  <REMARK>
 VINA RESULT:      -9.6      3.279      8.474
  Name = 
  9 active torsions:
  status: ('A' for Active; 'I' for Inactive)
    1  A    between atoms: O_3  and  C_16
    2  A    between atoms: O_3  and  C_29
    3  A    between atoms: N_7  and  C_38
    4  A    between atoms: C_12  and  C_30
    5  A    between atoms: C_15  and  C_20
    6  A    between atoms: C_26  and  C_46
    7  A    between atoms: C_33  and  N_35
    8  A    between atoms: C_33  and  C_36
    9  A    between atoms: C_33  and  N_44
                            x       y       z     vdW  Elec       q    Type
                         _______ _______ _______ _____ _____    ______ ____

>  <TORSDO>
F 9

$$$$
=
 OpenBabel10232411363D

 48 53  0  0  1  0  0  0  0  0999 V2000
  188.4410  176.5050  138.2060 C   0  0  0  0  0  2  0  0  0  0  0  0
  188.7730  176.2460  136.8180 N   0  0  0  0  0  0  0  0  0  0  0  0
  186.9560  178.3020  138.7660 O   0  0  0  0  0  0  0  0  0  0  0  0
  187.3240  179.2320  136.3790 F   0  0  0  0  0  0  0  0  0  0  0  0
  189.5020  179.5350  136.9390 F   0  0  0  0  0  0  0  0  0  0  0  0
  188.4630  178.6250  136.8800 C   0  0  0  0  0  0  0  0  0  0  0  0
  188.2280  177.9970  138.2440 C   0  0  2  0  0  0  0  0  0  0  0  0
  188.0630  178.8150  139.4770 C   0  0  2  0  0  3  0  0  0  0  0  0
  188.8560  177.4490  135.9940 C   0  0  0  0  0  2  0  0  0  0  0  0
  190.6920  171.3430  134.8200 O   0  0  0  0  0  1  0  0  0  0  0  0
  188.3330  173.9010  136.0760 C   0  0  0  0  0  0  0  0  0  0  0  0
  190.2100  172.5360  135.3380 C   0  0  0  0  0  0  0  0  0  0  0  0
  188.8410  172.7030  135.5510 C   0  0  0  0  0  3  0  0  0  0  0  0
  189.2320  174.9600  136.3690 C   0  0  0  0  0  0  0  0  0  0  0  0
  191.0940  173.5640  135.6560 C   0  0  0  0  0  3  0  0  0  0  0  0
  190.6070  174.7680  136.1660 C   0  0  0  0  0  3  0  0  0  0  0  0
  184.9520  173.2900  137.6650 C   0  0  0  0  0  3  0  0  0  0  0  0
  184.1130  174.0830  136.8660 C   0  0  0  0  0  0  0  0  0  0  0  0
  186.0460  174.7590  135.5600 C   0  0  0  0  0  3  0  0  0  0  0  0
  186.8850  173.9760  136.3650 C   0  0  0  0  0  0  0  0  0  0  0  0
  184.6730  174.8160  135.8140 C   0  0  0  0  0  3  0  0  0  0  0  0
  186.3230  173.2310  137.4120 C   0  0  0  0  0  3  0  0  0  0  0  0
  182.7340  174.1970  137.0990 O   0  0  0  0  0  0  0  0  0  0  0  0
  182.8410  175.9260  138.7280 N   0  0  0  0  0  0  0  0  0  0  0  0
  182.3030  176.7320  139.6850 C   0  0  0  0  0  0  0  0  0  0  0  0
  180.7500  174.8260  138.4080 C   0  0  0  0  0  3  0  0  0  0  0  0
  180.9580  176.5990  140.0330 C   0  0  0  0  0  3  0  0  0  0  0  0
  182.1080  174.9760  138.0860 C   0  0  0  0  0  0  0  0  0  0  0  0
  180.1780  175.6390  139.3870 C   0  0  0  0  0  3  0  0  0  0  0  0
  182.3470  178.6770  141.0110 F   0  0  0  0  0  0  0  0  0  0  0  0
  183.9630  178.3820  139.4580 F   0  0  0  0  0  0  0  0  0  0  0  0
  183.1480  177.7450  140.3760 C   0  0  0  0  0  3  0  0  0  0  0  0
  189.2180  177.1310  140.7050 O   0  0  0  0  0  0  0  0  0  0  0  0
  187.5260  178.2230  141.8890 N   0  0  0  0  0  2  0  0  0  0  0  0
  188.3150  178.0110  140.7150 C   0  0  0  0  0  0  0  0  0  0  0  0
  187.5660  177.3210  143.0320 C   0  0  2  0  0  3  0  0  0  0  0  0
  184.4610  178.9490  144.3480 C   0  0  0  0  0  0  0  0  0  0  0  0
  185.2560  178.3800  143.1870 C   0  0  0  0  0  2  0  0  0  0  0  0
  183.0130  178.5170  144.2470 C   0  0  0  0  0  1  0  0  0  0  0  0
  186.2320  177.3830  143.7870 C   0  0  2  0  0  3  0  0  0  0  0  0
  186.4000  177.7790  145.2360 C   0  0  0  0  0  2  0  0  0  0  0  0
  184.5470  180.4620  144.3350 C   0  0  0  0  0  1  0  0  0  0  0  0
  185.0780  178.4040  145.6260 C   0  0  0  0  0  2  0  0  0  0  0  0
  191.9080  176.3450  145.4220 C   0  0  0  0  0  1  0  0  0  0  0  0
  189.7750  176.8040  144.1640 C   0  0  0  0  0  0  0  0  0  0  0  0
  189.8420  175.6800  143.5940 O   0  0  0  0  0  0  0  0  0  0  0  0
  188.6840  177.6860  143.8950 N   0  0  0  0  0  2  0  0  0  0  0  0
  190.7890  177.2080  145.0820 N   0  0  0  0  0  2  0  0  0  0  0  0
  2  1  1  0  0  0  0
  3  8  1  0  0  0  0
  4  6  1  0  0  0  0
  6  5  1  0  0  0  0
  6  7  1  0  0  0  0
  7  1  1  1  0  0  0
  7  3  1  0  0  0  0
  7  8  1  0  0  0  0
  8 35  1  1  0  0  0
  9  2  1  0  0  0  0
  9  6  1  0  0  0  0
 10 12  1  0  0  0  0
 11 20  1  0  0  0  0
 11 14  1  0  0  0  0
 12 13  1  0  0  0  0
 12 15  2  0  0  0  0
 13 11  2  0  0  0  0
 14  2  1  0  0  0  0
 15 16  1  0  0  0  0
 16 14  2  0  0  0  0
 18 23  1  0  0  0  0
 18 17  2  0  0  0  0
 19 21  2  0  0  0  0
 19 20  1  0  0  0  0
 20 22  2  0  0  0  0
 21 18  1  0  0  0  0
 22 17  1  0  0  0  0
 23 28  1  0  0  0  0
 24 25  1  0  0  0  0
 25 27  2  0  0  0  0
 25 32  1  0  0  0  0
 26 29  2  0  0  0  0
 28 26  1  0  0  0  0
 28 24  2  0  0  0  0
 29 27  1  0  0  0  0
 31 32  1  0  0  0  0
 32 30  1  0  0  0  0
 33 35  2  0  0  0  0
 35 34  1  0  0  0  0
 36 34  1  6  0  0  0
 36 47  1  0  0  0  0
 37 43  1  0  0  0  0
 38 40  1  0  0  0  0
 38 37  1  0  0  0  0
 39 37  1  0  0  0  0
 40 36  1  6  0  0  0
 40 41  1  0  0  0  0
 41 43  1  0  0  0  0
 42 37  1  0  0  0  0
 45 48  1  0  0  0  0
 46 45  2  0  0  0  0
 47 45  1  0  0  0  0
 48 44  1  0  0  0  0
M  END
>  <MODEL>
3

>  <REMARK>
 VINA RESULT:      -9.5      2.925      8.126
  Name = 
  9 active torsions:
  status: ('A' for Active; 'I' for Inactive)
    1  A    between atoms: O_3  and  C_16
    2  A    between atoms: O_3  and  C_29
    3  A    between atoms: N_7  and  C_38
    4  A    between atoms: C_12  and  C_30
    5  A    between atoms: C_15  and  C_20
    6  A    between atoms: C_26  and  C_46
    7  A    between atoms: C_33  and  N_35
    8  A    between atoms: C_33  and  C_36
    9  A    between atoms: C_33  and  N_44
                            x       y       z     vdW  Elec       q    Type
                         _______ _______ _______ _____ _____    ______ ____

>  <TORSDO>
F 9

$$$$
=
 OpenBabel10232411363D

 48 53  0  0  1  0  0  0  0  0999 V2000
  187.5190  177.1320  138.5470 C   0  0  0  0  0  2  0  0  0  0  0  0
  186.9160  177.0090  137.2330 N   0  0  0  0  0  0  0  0  0  0  0  0
  188.7590  179.1040  139.1140 O   0  0  0  0  0  0  0  0  0  0  0  0
  188.8440  179.6690  136.5900 F   0  0  0  0  0  0  0  0  0  0  0  0
  190.0660  177.7780  136.3080 F   0  0  0  0  0  0  0  0  0  0  0  0
  188.8930  178.3040  136.8180 C   0  0  0  0  0  0  0  0  0  0  0  0
  188.7520  177.9610  138.2920 C   0  0  2  0  0  0  0  0  0  0  0  0
  189.8420  178.2130  139.2740 C   0  0  2  0  0  3  0  0  0  0  0  0
  187.6960  177.6270  136.1640 C   0  0  0  0  0  2  0  0  0  0  0  0
  182.4710  173.6210  136.5400 O   0  0  0  0  0  1  0  0  0  0  0  0
  185.9760  174.8040  136.5250 C   0  0  0  0  0  0  0  0  0  0  0  0
  183.5710  174.4550  136.6800 C   0  0  0  0  0  0  0  0  0  0  0  0
  184.8500  173.9780  136.3920 C   0  0  0  0  0  3  0  0  0  0  0  0
  185.8020  176.1370  136.9830 C   0  0  0  0  0  0  0  0  0  0  0  0
  183.3980  175.7720  137.0980 C   0  0  0  0  0  3  0  0  0  0  0  0
  184.5060  176.6060  137.2500 C   0  0  0  0  0  3  0  0  0  0  0  0
  188.9460  173.8220  134.3930 C   0  0  0  0  0  3  0  0  0  0  0  0
  189.7700  173.1780  135.3310 C   0  0  0  0  0  0  0  0  0  0  0  0
  188.1070  173.6120  137.0470 C   0  0  0  0  0  3  0  0  0  0  0  0
  187.2900  174.2650  136.1130 C   0  0  0  0  0  0  0  0  0  0  0  0
  189.3400  173.0800  136.6580 C   0  0  0  0  0  3  0  0  0  0  0  0
  187.7150  174.3530  134.7800 C   0  0  0  0  0  3  0  0  0  0  0  0
  191.0280  172.6540  134.9970 O   0  0  0  0  0  0  0  0  0  0  0  0
  192.6380  174.3440  135.4540 N   0  0  0  0  0  0  0  0  0  0  0  0
  193.8170  174.7950  135.9650 C   0  0  0  0  0  0  0  0  0  0  0  0
  193.1220  172.1220  136.1720 C   0  0  0  0  0  3  0  0  0  0  0  0
  194.6890  173.9070  136.5960 C   0  0  0  0  0  3  0  0  0  0  0  0
  192.2690  173.0360  135.5330 C   0  0  0  0  0  0  0  0  0  0  0  0
  194.3350  172.5620  136.7010 C   0  0  0  0  0  3  0  0  0  0  0  0
  193.7650  176.9320  136.9520 F   0  0  0  0  0  0  0  0  0  0  0  0
  193.6090  176.7690  134.7030 F   0  0  0  0  0  0  0  0  0  0  0  0
  194.1890  176.2320  135.8370 C   0  0  0  0  0  3  0  0  0  0  0  0
  190.1900  176.2440  140.5680 O   0  0  0  0  0  0  0  0  0  0  0  0
  188.9160  177.8960  141.6180 N   0  0  0  0  0  2  0  0  0  0  0  0
  189.6730  177.3920  140.5140 C   0  0  0  0  0  0  0  0  0  0  0  0
  188.5230  177.0590  142.7440 C   0  0  2  0  0  3  0  0  0  0  0  0
  185.2290  178.8090  143.0830 C   0  0  0  0  0  0  0  0  0  0  0  0
  186.3770  178.3250  142.2160 C   0  0  0  0  0  2  0  0  0  0  0  0
  183.9090  178.5510  142.3880 C   0  0  0  0  0  1  0  0  0  0  0  0
  187.0060  177.1570  142.9560 C   0  0  2  0  0  3  0  0  0  0  0  0
  186.6320  177.3300  144.4100 C   0  0  0  0  0  2  0  0  0  0  0  0
  185.3840  180.2920  143.3550 C   0  0  0  0  0  1  0  0  0  0  0  0
  185.2910  178.0320  144.3870 C   0  0  0  0  0  2  0  0  0  0  0  0
  191.9620  176.3720  146.3790 C   0  0  0  0  0  1  0  0  0  0  0  0
  190.3010  176.6950  144.5130 C   0  0  0  0  0  0  0  0  0  0  0  0
  190.6810  175.6260  143.9600 O   0  0  0  0  0  0  0  0  0  0  0  0
  189.2550  177.4770  143.9340 N   0  0  0  0  0  2  0  0  0  0  0  0
  190.9140  177.1370  145.7230 N   0  0  0  0  0  2  0  0  0  0  0  0
  2  1  1  0  0  0  0
  3  8  1  0  0  0  0
  4  6  1  0  0  0  0
  5  6  1  0  0  0  0
  6  7  1  0  0  0  0
  7  1  1  1  0  0  0
  7  3  1  0  0  0  0
  7  8  1  0  0  0  0
  8 35  1  1  0  0  0
  9  6  1  0  0  0  0
  9  2  1  0  0  0  0
 10 12  1  0  0  0  0
 11 14  1  0  0  0  0
 12 15  2  0  0  0  0
 13 11  2  0  0  0  0
 13 12  1  0  0  0  0
 14  2  1  0  0  0  0
 14 16  2  0  0  0  0
 15 16  1  0  0  0  0
 17 22  2  0  0  0  0
 17 18  1  0  0  0  0
 18 21  2  0  0  0  0
 20 11  1  0  0  0  0
 20 19  2  0  0  0  0
 21 19  1  0  0  0  0
 22 20  1  0  0  0  0
 23 18  1  0  0  0  0
 23 28  1  0  0  0  0
 24 28  2  0  0  0  0
 24 25  1  0  0  0  0
 25 27  2  0  0  0  0
 26 29  2  0  0  0  0
 27 29  1  0  0  0  0
 28 26  1  0  0  0  0
 31 32  1  0  0  0  0
 32 25  1  0  0  0  0
 32 30  1  0  0  0  0
 35 33  2  0  0  0  0
 35 34  1  0  0  0  0
 36 34  1  6  0  0  0
 36 47  1  0  0  0  0
 37 42  1  0  0  0  0
 37 43  1  0  0  0  0
 38 40  1  0  0  0  0
 38 37  1  0  0  0  0
 39 37  1  0  0  0  0
 40 36  1  1  0  0  0
 40 41  1  0  0  0  0
 43 41  1  0  0  0  0
 45 48  1  0  0  0  0
 46 45  2  0  0  0  0
 47 45  1  0  0  0  0
 48 44  1  0  0  0  0
M  END
>  <MODEL>
4

>  <REMARK>
 VINA RESULT:      -8.8      3.871      9.324
  Name = 
  9 active torsions:
  status: ('A' for Active; 'I' for Inactive)
    1  A    between atoms: O_3  and  C_16
    2  A    between atoms: O_3  and  C_29
    3  A    between atoms: N_7  and  C_38
    4  A    between atoms: C_12  and  C_30
    5  A    between atoms: C_15  and  C_20
    6  A    between atoms: C_26  and  C_46
    7  A    between atoms: C_33  and  N_35
    8  A    between atoms: C_33  and  C_36
    9  A    between atoms: C_33  and  N_44
                            x       y       z     vdW  Elec       q    Type
                         _______ _______ _______ _____ _____    ______ ____

>  <TORSDO>
F 9

$$$$
=
 OpenBabel10232411363D

 48 53  0  0  1  0  0  0  0  0999 V2000
  186.5710  176.6640  137.6180 C   0  0  0  0  0  2  0  0  0  0  0  0
  185.8520  176.0260  136.5310 N   0  0  0  0  0  0  0  0  0  0  0  0
  187.1620  178.9830  137.4630 O   0  0  0  0  0  0  0  0  0  0  0  0
  186.6750  178.8460  134.9250 F   0  0  0  0  0  0  0  0  0  0  0  0
  188.3950  177.3740  134.7740 F   0  0  0  0  0  0  0  0  0  0  0  0
  187.2050  177.6650  135.4150 C   0  0  0  0  0  0  0  0  0  0  0  0
  187.4080  177.7070  136.9210 C   0  0  2  0  0  0  0  0  0  0  0  0
  188.4900  178.5120  137.5540 C   0  0  2  0  0  3  0  0  0  0  0  0
  186.2140  176.5270  135.2070 C   0  0  0  0  0  2  0  0  0  0  0  0
  182.9040  171.2590  137.0730 O   0  0  0  0  0  1  0  0  0  0  0  0
  183.6470  174.8560  136.6310 C   0  0  0  0  0  0  0  0  0  0  0  0
  183.6170  172.4440  136.9660 C   0  0  0  0  0  0  0  0  0  0  0  0
  182.9450  173.6460  136.7410 C   0  0  0  0  0  3  0  0  0  0  0  0
  185.0630  174.8420  136.7290 C   0  0  0  0  0  0  0  0  0  0  0  0
  185.0040  172.4360  137.0930 C   0  0  0  0  0  3  0  0  0  0  0  0
  185.7210  173.6270  136.9730 C   0  0  0  0  0  3  0  0  0  0  0  0
  181.5820  177.9170  137.4690 C   0  0  0  0  0  3  0  0  0  0  0  0
  181.3310  178.4490  136.1940 C   0  0  0  0  0  0  0  0  0  0  0  0
  182.6060  176.6290  135.2140 C   0  0  0  0  0  3  0  0  0  0  0  0
  182.8670  176.1050  136.4880 C   0  0  0  0  0  0  0  0  0  0  0  0
  181.8500  177.7960  135.0710 C   0  0  0  0  0  3  0  0  0  0  0  0
  182.3360  176.7510  137.6130 C   0  0  0  0  0  3  0  0  0  0  0  0
  180.6030  179.6330  136.0000 O   0  0  0  0  0  0  0  0  0  0  0  0
  180.4680  182.0070  135.9500 N   0  0  0  0  0  0  0  0  0  0  0  0
  180.6460  183.2470  136.4830 C   0  0  0  0  0  0  0  0  0  0  0  0
  181.4060  180.9850  137.8900 C   0  0  0  0  0  3  0  0  0  0  0  0
  181.2190  183.3870  137.7480 C   0  0  0  0  0  3  0  0  0  0  0  0
  180.8360  180.8750  136.6120 C   0  0  0  0  0  0  0  0  0  0  0  0
  181.5990  182.2460  138.4550 C   0  0  0  0  0  3  0  0  0  0  0  0
  180.9910  184.5500  134.5520 F   0  0  0  0  0  0  0  0  0  0  0  0
  180.4460  185.5910  136.4840 F   0  0  0  0  0  0  0  0  0  0  0  0
  180.2470  184.4590  135.7140 C   0  0  0  0  0  3  0  0  0  0  0  0
  189.7360  177.2300  139.1300 O   0  0  0  0  0  0  0  0  0  0  0  0
  187.9980  178.4930  140.0470 N   0  0  0  0  0  2  0  0  0  0  0  0
  188.7900  178.0420  138.9440 C   0  0  0  0  0  0  0  0  0  0  0  0
  188.0910  177.8960  141.3720 C   0  0  2  0  0  3  0  0  0  0  0  0
  184.9240  178.9680  143.0580 C   0  0  0  0  0  0  0  0  0  0  0  0
  185.8210  178.9530  141.8340 C   0  0  0  0  0  2  0  0  0  0  0  0
  183.4800  178.7660  142.6460 C   0  0  0  0  0  1  0  0  0  0  0  0
  186.6830  177.7080  141.9550 C   0  0  2  0  0  3  0  0  0  0  0  0
  186.7040  177.3510  143.4230 C   0  0  0  0  0  2  0  0  0  0  0  0
  185.0690  180.2910  143.7830 C   0  0  0  0  0  1  0  0  0  0  0  0
  185.3710  177.8290  143.9590 C   0  0  0  0  0  2  0  0  0  0  0  0
  191.9890  178.7230  144.4750 C   0  0  0  0  0  1  0  0  0  0  0  0
  190.0950  178.2760  142.8770 C   0  0  0  0  0  0  0  0  0  0  0  0
  190.5150  177.1040  142.6700 O   0  0  0  0  0  0  0  0  0  0  0  0
  188.9120  178.7450  142.2270 N   0  0  0  0  0  2  0  0  0  0  0  0
  190.7980  179.1480  143.7600 N   0  0  0  0  0  2  0  0  0  0  0  0
  2 14  1  0  0  0  0
  2  1  1  0  0  0  0
  3  8  1  0  0  0  0
  4  6  1  0  0  0  0
  5  6  1  0  0  0  0
  6  7  1  0  0  0  0
  7  3  1  0  0  0  0
  7  8  1  0  0  0  0
  7  1  1  1  0  0  0
  8 35  1  1  0  0  0
  9  6  1  0  0  0  0
  9  2  1  0  0  0  0
 11 14  2  0  0  0  0
 11 13  1  0  0  0  0
 12 10  1  0  0  0  0
 12 15  1  0  0  0  0
 13 12  2  0  0  0  0
 14 16  1  0  0  0  0
 16 15  2  0  0  0  0
 17 22  1  0  0  0  0
 18 17  2  0  0  0  0
 19 20  1  0  0  0  0
 20 11  1  0  0  0  0
 20 22  2  0  0  0  0
 21 19  2  0  0  0  0
 21 18  1  0  0  0  0
 23 18  1  0  0  0  0
 23 28  1  0  0  0  0
 24 25  1  0  0  0  0
 24 28  2  0  0  0  0
 25 27  2  0  0  0  0
 26 29  2  0  0  0  0
 27 29  1  0  0  0  0
 28 26  1  0  0  0  0
 30 32  1  0  0  0  0
 32 25  1  0  0  0  0
 32 31  1  0  0  0  0
 35 33  2  0  0  0  0
 35 34  1  0  0  0  0
 36 34  1  6  0  0  0
 36 47  1  0  0  0  0
 37 42  1  0  0  0  0
 37 43  1  0  0  0  0
 38 40  1  0  0  0  0
 38 37  1  0  0  0  0
 39 37  1  0  0  0  0
 40 36  1  1  0  0  0
 40 41  1  0  0  0  0
 41 43  1  0  0  0  0
 45 48  1  0  0  0  0
 46 45  2  0  0  0  0
 47 45  1  0  0  0  0
 48 44  1  0  0  0  0
M  END
>  <MODEL>
5

>  <REMARK>
 VINA RESULT:      -8.8      4.008      9.516
  Name = 
  9 active torsions:
  status: ('A' for Active; 'I' for Inactive)
    1  A    between atoms: O_3  and  C_16
    2  A    between atoms: O_3  and  C_29
    3  A    between atoms: N_7  and  C_38
    4  A    between atoms: C_12  and  C_30
    5  A    between atoms: C_15  and  C_20
    6  A    between atoms: C_26  and  C_46
    7  A    between atoms: C_33  and  N_35
    8  A    between atoms: C_33  and  C_36
    9  A    between atoms: C_33  and  N_44
                            x       y       z     vdW  Elec       q    Type
                         _______ _______ _______ _____ _____    ______ ____

>  <TORSDO>
F 9

$$$$
=
 OpenBabel10232411363D

 48 53  0  0  1  0  0  0  0  0999 V2000
  186.5430  178.1550  139.2230 C   0  0  0  0  0  2  0  0  0  0  0  0
  187.8520  178.2140  139.8450 N   0  0  0  0  0  0  0  0  0  0  0  0
  184.8060  179.6380  139.9500 O   0  0  0  0  0  0  0  0  0  0  0  0
  186.2200  180.1180  142.0640 F   0  0  0  0  0  0  0  0  0  0  0  0
  185.9540  177.9340  142.6170 F   0  0  0  0  0  0  0  0  0  0  0  0
  186.3630  178.8110  141.6300 C   0  0  0  0  0  0  0  0  0  0  0  0
  185.6060  178.5480  140.3380 C   0  0  2  0  0  0  0  0  0  0  0  0
  184.1210  178.4520  140.2920 C   0  0  2  0  0  3  0  0  0  0  0  0
  187.8180  178.5410  141.2690 C   0  0  0  0  0  2  0  0  0  0  0  0
  192.3150  176.1620  137.0920 O   0  0  0  0  0  1  0  0  0  0  0  0
  190.1040  177.1330  139.8940 C   0  0  0  0  0  0  0  0  0  0  0  0
  191.2340  176.6890  137.7830 C   0  0  0  0  0  0  0  0  0  0  0  0
  191.1880  176.6050  139.1750 C   0  0  0  0  0  3  0  0  0  0  0  0
  189.0350  177.7390  139.1830 C   0  0  0  0  0  0  0  0  0  0  0  0
  190.2000  177.3120  137.0890 C   0  0  0  0  0  3  0  0  0  0  0  0
  189.1080  177.8310  137.7840 C   0  0  0  0  0  3  0  0  0  0  0  0
  189.4600  176.1370  143.4890 C   0  0  0  0  0  3  0  0  0  0  0  0
  190.2380  177.0730  144.1890 C   0  0  0  0  0  0  0  0  0  0  0  0
  190.9310  178.0370  142.0700 C   0  0  0  0  0  3  0  0  0  0  0  0
  190.1630  177.0950  141.3720 C   0  0  0  0  0  0  0  0  0  0  0  0
  190.9720  178.0210  143.4670 C   0  0  0  0  0  3  0  0  0  0  0  0
  189.4170  176.1530  142.0940 C   0  0  0  0  0  3  0  0  0  0  0  0
  190.3370  177.0800  145.5890 O   0  0  0  0  0  0  0  0  0  0  0  0
  188.0890  177.7120  146.0400 N   0  0  0  0  0  0  0  0  0  0  0  0
  187.0760  178.0990  146.8630 C   0  0  0  0  0  0  0  0  0  0  0  0
  189.6190  177.6570  147.8690 C   0  0  0  0  0  3  0  0  0  0  0  0
  187.3150  178.2790  148.2270 C   0  0  0  0  0  3  0  0  0  0  0  0
  189.3520  177.4930  146.5000 C   0  0  0  0  0  0  0  0  0  0  0  0
  188.5960  178.0550  148.7300 C   0  0  0  0  0  3  0  0  0  0  0  0
  185.5970  179.6650  145.9110 F   0  0  0  0  0  0  0  0  0  0  0  0
  184.7600  178.0670  147.2740 F   0  0  0  0  0  0  0  0  0  0  0  0
  185.7140  178.3460  146.3130 C   0  0  0  0  0  3  0  0  0  0  0  0
  183.7310  178.3200  137.9460 O   0  0  0  0  0  0  0  0  0  0  0  0
  183.0910  176.4270  139.1550 N   0  0  0  0  0  2  0  0  0  0  0  0
  183.6490  177.7410  139.0620 C   0  0  0  0  0  0  0  0  0  0  0  0
  182.4060  175.7870  138.0400 C   0  0  2  0  0  3  0  0  0  0  0  0
  184.6530  173.4910  136.1170 C   0  0  0  0  0  0  0  0  0  0  0  0
  184.4720  174.6330  137.0990 C   0  0  0  0  0  2  0  0  0  0  0  0
  185.7430  172.5570  136.6010 C   0  0  0  0  0  1  0  0  0  0  0  0
  183.0910  174.4550  137.7070 C   0  0  2  0  0  3  0  0  0  0  0  0
  182.3020  173.6230  136.7230 C   0  0  0  0  0  2  0  0  0  0  0  0
  185.0200  174.0420  134.7530 C   0  0  0  0  0  1  0  0  0  0  0  0
  183.3290  172.7480  136.0390 C   0  0  0  0  0  2  0  0  0  0  0  0
  180.1150  178.5560  134.4910 C   0  0  0  0  0  1  0  0  0  0  0  0
  181.2110  177.2090  136.3140 C   0  0  0  0  0  0  0  0  0  0  0  0
  180.0900  176.9560  136.8340 O   0  0  0  0  0  0  0  0  0  0  0  0
  182.4090  176.6880  136.8920 N   0  0  0  0  0  2  0  0  0  0  0  0
  181.2970  178.0210  135.1440 N   0  0  0  0  0  2  0  0  0  0  0  0
  1  2  1  0  0  0  0
  2  9  1  0  0  0  0
  3  8  1  0  0  0  0
  3  7  1  0  0  0  0
  6  4  1  0  0  0  0
  6  5  1  0  0  0  0
  7  1  1  6  0  0  0
  7  6  1  0  0  0  0
  8 35  1  6  0  0  0
  8  7  1  0  0  0  0
  9  6  1  0  0  0  0
 10 12  1  0  0  0  0
 11 20  1  0  0  0  0
 12 13  1  0  0  0  0
 13 11  2  0  0  0  0
 14  2  1  0  0  0  0
 14 11  1  0  0  0  0
 15 12  2  0  0  0  0
 15 16  1  0  0  0  0
 16 14  2  0  0  0  0
 17 18  1  0  0  0  0
 18 23  1  0  0  0  0
 19 21  1  0  0  0  0
 20 19  2  0  0  0  0
 20 22  1  0  0  0  0
 21 18  2  0  0  0  0
 22 17  2  0  0  0  0
 23 28  1  0  0  0  0
 24 28  2  0  0  0  0
 24 25  1  0  0  0  0
 25 27  2  0  0  0  0
 26 29  2  0  0  0  0
 27 29  1  0  0  0  0
 28 26  1  0  0  0  0
 30 32  1  0  0  0  0
 32 25  1  0  0  0  0
 32 31  1  0  0  0  0
 33 35  2  0  0  0  0
 35 34  1  0  0  0  0
 36 47  1  6  0  0  0
 36 34  1  0  0  0  0
 37 39  1  0  0  0  0
 37 38  1  0  0  0  0
 38 40  1  0  0  0  0
 40 36  1  6  0  0  0
 41 40  1  0  0  0  0
 42 37  1  0  0  0  0
 43 37  1  0  0  0  0
 43 41  1  0  0  0  0
 44 48  1  0  0  0  0
 45 46  2  0  0  0  0
 45 47  1  0  0  0  0
 48 45  1  0  0  0  0
M  END
>  <MODEL>
6

>  <REMARK>
 VINA RESULT:      -8.8      1.416      2.423
  Name = 
  9 active torsions:
  status: ('A' for Active; 'I' for Inactive)
    1  A    between atoms: O_3  and  C_16
    2  A    between atoms: O_3  and  C_29
    3  A    between atoms: N_7  and  C_38
    4  A    between atoms: C_12  and  C_30
    5  A    between atoms: C_15  and  C_20
    6  A    between atoms: C_26  and  C_46
    7  A    between atoms: C_33  and  N_35
    8  A    between atoms: C_33  and  C_36
    9  A    between atoms: C_33  and  N_44
                            x       y       z     vdW  Elec       q    Type
                         _______ _______ _______ _____ _____    ______ ____

>  <TORSDO>
F 9

$$$$
=
 OpenBabel10232411363D

 48 53  0  0  1  0  0  0  0  0999 V2000
  187.4900  176.2100  137.1370 C   0  0  0  0  0  2  0  0  0  0  0  0
  186.5070  177.2750  137.0770 N   0  0  0  0  0  0  0  0  0  0  0  0
  189.2300  176.2790  138.7850 O   0  0  0  0  0  0  0  0  0  0  0  0
  188.6660  178.7790  139.1470 F   0  0  0  0  0  0  0  0  0  0  0  0
  189.3180  179.1350  137.0040 F   0  0  0  0  0  0  0  0  0  0  0  0
  188.4930  178.3940  137.8280 C   0  0  0  0  0  0  0  0  0  0  0  0
  188.7340  176.9060  137.6270 C   0  0  2  0  0  0  0  0  0  0  0  0
  190.0980  176.3100  137.6720 C   0  0  2  0  0  3  0  0  0  0  0  0
  187.0390  178.5920  137.4180 C   0  0  0  0  0  2  0  0  0  0  0  0
  181.5100  176.7240  134.5380 O   0  0  0  0  0  1  0  0  0  0  0  0
  184.0150  177.4280  137.1690 C   0  0  0  0  0  0  0  0  0  0  0  0
  182.7330  176.8370  135.1840 C   0  0  0  0  0  0  0  0  0  0  0  0
  182.7890  177.3070  136.4970 C   0  0  0  0  0  3  0  0  0  0  0  0
  185.2120  177.0860  136.4860 C   0  0  0  0  0  0  0  0  0  0  0  0
  183.9050  176.4720  134.5260 C   0  0  0  0  0  3  0  0  0  0  0  0
  185.1350  176.5980  135.1720 C   0  0  0  0  0  3  0  0  0  0  0  0
  183.3300  177.4550  140.8920 C   0  0  0  0  0  3  0  0  0  0  0  0
  183.9090  178.6730  141.2800 C   0  0  0  0  0  0  0  0  0  0  0  0
  184.5620  179.0650  138.9740 C   0  0  0  0  0  3  0  0  0  0  0  0
  183.9940  177.8420  138.5890 C   0  0  0  0  0  0  0  0  0  0  0  0
  184.5240  179.4720  140.3100 C   0  0  0  0  0  3  0  0  0  0  0  0
  183.3650  177.0470  139.5570 C   0  0  0  0  0  3  0  0  0  0  0  0
  183.9240  179.1130  142.6130 O   0  0  0  0  0  0  0  0  0  0  0  0
  185.9640  178.0970  143.2920 N   0  0  0  0  0  0  0  0  0  0  0  0
  186.8520  177.6570  144.2260 C   0  0  0  0  0  0  0  0  0  0  0  0
  184.4610  178.8240  144.9950 C   0  0  0  0  0  3  0  0  0  0  0  0
  186.5600  177.7880  145.5840 C   0  0  0  0  0  3  0  0  0  0  0  0
  184.7770  178.6690  143.6360 C   0  0  0  0  0  0  0  0  0  0  0  0
  185.3560  178.3780  145.9680 C   0  0  0  0  0  3  0  0  0  0  0  0
  187.8850  175.7550  143.2980 F   0  0  0  0  0  0  0  0  0  0  0  0
  188.9900  176.9280  144.8830 F   0  0  0  0  0  0  0  0  0  0  0  0
  188.1310  177.0190  143.8030 C   0  0  0  0  0  3  0  0  0  0  0  0
  190.1890  173.9300  137.7030 O   0  0  0  0  0  0  0  0  0  0  0  0
  190.1500  174.8830  135.5710 N   0  0  0  0  0  2  0  0  0  0  0  0
  190.1410  174.9740  136.9980 C   0  0  0  0  0  0  0  0  0  0  0  0
  190.4260  173.6380  134.8680 C   0  0  2  0  0  3  0  0  0  0  0  0
  186.8790  172.6040  135.4780 C   0  0  0  0  0  0  0  0  0  0  0  0
  187.8880  173.6610  135.0690 C   0  0  0  0  0  2  0  0  0  0  0  0
  185.6750  172.6520  134.5610 C   0  0  0  0  0  1  0  0  0  0  0  0
  189.1090  172.9110  134.5650 C   0  0  2  0  0  3  0  0  0  0  0  0
  189.0450  171.5360  135.1890 C   0  0  0  0  0  2  0  0  0  0  0  0
  186.4420  172.8410  136.9100 C   0  0  0  0  0  1  0  0  0  0  0  0
  187.5680  171.2540  135.3620 C   0  0  0  0  0  2  0  0  0  0  0  0
  194.9580  171.7830  136.1060 C   0  0  0  0  0  1  0  0  0  0  0  0
  192.7290  172.7800  135.4890 C   0  0  0  0  0  0  0  0  0  0  0  0
  193.2760  173.5340  134.6380 O   0  0  0  0  0  0  0  0  0  0  0  0
  191.3140  172.8130  135.6800 N   0  0  0  0  0  2  0  0  0  0  0  0
  193.5190  171.8870  136.2730 N   0  0  0  0  0  2  0  0  0  0  0  0
  2  1  1  0  0  0  0
  2  9  1  0  0  0  0
  5  6  1  0  0  0  0
  6  4  1  0  0  0  0
  7  1  1  6  0  0  0
  7  8  1  0  0  0  0
  7  6  1  0  0  0  0
  7  3  1  0  0  0  0
  8 35  1  6  0  0  0
  8  3  1  0  0  0  0
  9  6  1  0  0  0  0
 10 12  1  0  0  0  0
 11 20  1  0  0  0  0
 12 13  2  0  0  0  0
 13 11  1  0  0  0  0
 14  2  1  0  0  0  0
 14 11  2  0  0  0  0
 15 16  2  0  0  0  0
 15 12  1  0  0  0  0
 16 14  1  0  0  0  0
 17 18  1  0  0  0  0
 18 23  1  0  0  0  0
 19 21  1  0  0  0  0
 20 19  2  0  0  0  0
 20 22  1  0  0  0  0
 21 18  2  0  0  0  0
 22 17  2  0  0  0  0
 23 28  1  0  0  0  0
 24 28  2  0  0  0  0
 24 25  1  0  0  0  0
 25 27  2  0  0  0  0
 26 29  2  0  0  0  0
 27 29  1  0  0  0  0
 28 26  1  0  0  0  0
 30 32  1  0  0  0  0
 32 25  1  0  0  0  0
 32 31  1  0  0  0  0
 34 35  1  0  0  0  0
 35 33  2  0  0  0  0
 36 34  1  1  0  0  0
 36 47  1  0  0  0  0
 37 42  1  0  0  0  0
 38 37  1  0  0  0  0
 39 37  1  0  0  0  0
 40 36  1  1  0  0  0
 40 38  1  0  0  0  0
 40 41  1  0  0  0  0
 41 43  1  0  0  0  0
 43 37  1  0  0  0  0
 44 48  1  0  0  0  0
 45 47  1  0  0  0  0
 45 48  1  0  0  0  0
 46 45  2  0  0  0  0
M  END
>  <MODEL>
7

>  <REMARK>
 VINA RESULT:      -8.5      3.282      6.647
  Name = 
  9 active torsions:
  status: ('A' for Active; 'I' for Inactive)
    1  A    between atoms: O_3  and  C_16
    2  A    between atoms: O_3  and  C_29
    3  A    between atoms: N_7  and  C_38
    4  A    between atoms: C_12  and  C_30
    5  A    between atoms: C_15  and  C_20
    6  A    between atoms: C_26  and  C_46
    7  A    between atoms: C_33  and  N_35
    8  A    between atoms: C_33  and  C_36
    9  A    between atoms: C_33  and  N_44
                            x       y       z     vdW  Elec       q    Type
                         _______ _______ _______ _____ _____    ______ ____

>  <TORSDO>
F 9

$$$$
=
 OpenBabel10232411363D

 48 53  0  0  1  0  0  0  0  0999 V2000
  186.1480  178.0910  139.6840 C   0  0  0  0  0  2  0  0  0  0  0  0
  185.8440  178.4140  141.0650 N   0  0  0  0  0  0  0  0  0  0  0  0
  188.2360  177.0510  139.1310 O   0  0  0  0  0  0  0  0  0  0  0  0
  189.0970  177.7350  141.4740 F   0  0  0  0  0  0  0  0  0  0  0  0
  188.8630  179.8950  140.8200 F   0  0  0  0  0  0  0  0  0  0  0  0
  188.2270  178.6740  140.9460 C   0  0  0  0  0  0  0  0  0  0  0  0
  187.6470  178.2360  139.6110 C   0  0  2  0  0  0  0  0  0  0  0  0
  188.4580  178.2140  138.3620 C   0  0  2  0  0  3  0  0  0  0  0  0
  187.0090  178.8160  141.8500 C   0  0  0  0  0  2  0  0  0  0  0  0
  180.5480  179.3060  142.7570 O   0  0  0  0  0  1  0  0  0  0  0  0
  184.1790  178.6190  142.9170 C   0  0  0  0  0  0  0  0  0  0  0  0
  181.8510  179.0580  142.3520 C   0  0  0  0  0  0  0  0  0  0  0  0
  182.8540  178.8730  143.3040 C   0  0  0  0  0  3  0  0  0  0  0  0
  184.4960  178.5740  141.5330 C   0  0  0  0  0  0  0  0  0  0  0  0
  182.1570  178.9820  140.9950 C   0  0  0  0  0  3  0  0  0  0  0  0
  183.4700  178.7440  140.5900 C   0  0  0  0  0  3  0  0  0  0  0  0
  186.2190  178.9010  146.0930 C   0  0  0  0  0  3  0  0  0  0  0  0
  187.1140  177.8280  145.9540 C   0  0  0  0  0  0  0  0  0  0  0  0
  186.0750  177.2740  143.8300 C   0  0  0  0  0  3  0  0  0  0  0  0
  185.1740  178.3390  143.9750 C   0  0  0  0  0  0  0  0  0  0  0  0
  187.0320  177.0190  144.8160 C   0  0  0  0  0  3  0  0  0  0  0  0
  185.2630  179.1580  145.1090 C   0  0  0  0  0  3  0  0  0  0  0  0
  188.0730  177.5120  146.9290 O   0  0  0  0  0  0  0  0  0  0  0  0
  189.8620  177.0550  145.4310 N   0  0  0  0  0  0  0  0  0  0  0  0
  191.1280  176.6510  145.1350 C   0  0  0  0  0  0  0  0  0  0  0  0
  190.2250  176.6550  147.7540 C   0  0  0  0  0  3  0  0  0  0  0  0
  191.9830  176.2300  146.1550 C   0  0  0  0  0  3  0  0  0  0  0  0
  189.3840  177.0640  146.7060 C   0  0  0  0  0  0  0  0  0  0  0  0
  191.5260  176.2350  147.4720 C   0  0  0  0  0  3  0  0  0  0  0  0
  191.4410  177.8920  143.1580 F   0  0  0  0  0  0  0  0  0  0  0  0
  190.8860  175.7060  142.9940 F   0  0  0  0  0  0  0  0  0  0  0  0
  191.6010  176.6390  143.7220 C   0  0  0  0  0  3  0  0  0  0  0  0
  187.2630  179.3110  136.6170 O   0  0  0  0  0  0  0  0  0  0  0  0
  187.1300  176.9790  136.5830 N   0  0  0  0  0  2  0  0  0  0  0  0
  187.5930  178.2130  137.1400 C   0  0  0  0  0  0  0  0  0  0  0  0
  186.1060  176.9250  135.5480 C   0  0  2  0  0  3  0  0  0  0  0  0
  183.0210  175.5380  137.1550 C   0  0  0  0  0  0  0  0  0  0  0  0
  184.4920  175.9040  137.2320 C   0  0  0  0  0  2  0  0  0  0  0  0
  182.3170  175.9440  138.4330 C   0  0  0  0  0  1  0  0  0  0  0  0
  184.7150  176.9890  136.1930 C   0  0  2  0  0  3  0  0  0  0  0  0
  183.5980  176.8430  135.1850 C   0  0  0  0  0  2  0  0  0  0  0  0
  182.8760  174.0440  136.9430 C   0  0  0  0  0  1  0  0  0  0  0  0
  182.4300  176.2910  135.9740 C   0  0  0  0  0  2  0  0  0  0  0  0
  188.0940  172.3560  134.7190 C   0  0  0  0  0  1  0  0  0  0  0  0
  187.0840  174.6110  135.2050 C   0  0  0  0  0  0  0  0  0  0  0  0
  187.6350  174.6390  136.3400 O   0  0  0  0  0  0  0  0  0  0  0  0
  186.2740  175.7040  134.7670 N   0  0  0  0  0  2  0  0  0  0  0  0
  187.2600  173.4850  134.3460 N   0  0  0  0  0  2  0  0  0  0  0  0
  1  2  1  0  0  0  0
  2 14  1  0  0  0  0
  2  9  1  0  0  0  0
  3  7  1  0  0  0  0
  5  6  1  0  0  0  0
  6  4  1  0  0  0  0
  6  9  1  0  0  0  0
  7  1  1  6  0  0  0
  7  6  1  0  0  0  0
  8 35  1  6  0  0  0
  8  3  1  0  0  0  0
  8  7  1  0  0  0  0
 11 13  1  0  0  0  0
 11 20  1  0  0  0  0
 12 10  1  0  0  0  0
 12 13  2  0  0  0  0
 14 11  2  0  0  0  0
 15 12  1  0  0  0  0
 16 15  2  0  0  0  0
 16 14  1  0  0  0  0
 18 17  1  0  0  0  0
 18 23  1  0  0  0  0
 19 20  2  0  0  0  0
 19 21  1  0  0  0  0
 20 22  1  0  0  0  0
 21 18  2  0  0  0  0
 22 17  2  0  0  0  0
 24 28  2  0  0  0  0
 25 24  1  0  0  0  0
 25 27  2  0  0  0  0
 27 29  1  0  0  0  0
 28 23  1  0  0  0  0
 28 26  1  0  0  0  0
 29 26  2  0  0  0  0
 30 32  1  0  0  0  0
 31 32  1  0  0  0  0
 32 25  1  0  0  0  0
 33 35  2  0  0  0  0
 34 35  1  0  0  0  0
 36 47  1  1  0  0  0
 36 34  1  0  0  0  0
 37 38  1  0  0  0  0
 37 39  1  0  0  0  0
 40 36  1  6  0  0  0
 40 38  1  0  0  0  0
 41 43  1  0  0  0  0
 41 40  1  0  0  0  0
 42 37  1  0  0  0  0
 43 37  1  0  0  0  0
 45 46  2  0  0  0  0
 47 45  1  0  0  0  0
 48 44  1  0  0  0  0
 48 45  1  0  0  0  0
M  END
>  <MODEL>
8

>  <REMARK>
 VINA RESULT:      -8.2      2.605      5.020
  Name = 
  9 active torsions:
  status: ('A' for Active; 'I' for Inactive)
    1  A    between atoms: O_3  and  C_16
    2  A    between atoms: O_3  and  C_29
    3  A    between atoms: N_7  and  C_38
    4  A    between atoms: C_12  and  C_30
    5  A    between atoms: C_15  and  C_20
    6  A    between atoms: C_26  and  C_46
    7  A    between atoms: C_33  and  N_35
    8  A    between atoms: C_33  and  C_36
    9  A    between atoms: C_33  and  N_44
                            x       y       z     vdW  Elec       q    Type
                         _______ _______ _______ _____ _____    ______ ____

>  <TORSDO>
F 9

$$$$
=
 OpenBabel10232411363D

 48 53  0  0  1  0  0  0  0  0999 V2000
  186.9930  177.9310  139.3260 C   0  0  0  0  0  2  0  0  0  0  0  0
  186.1440  178.4390  140.3860 N   0  0  0  0  0  0  0  0  0  0  0  0
  189.1370  176.9980  139.8550 O   0  0  0  0  0  0  0  0  0  0  0  0
  188.9490  178.1100  142.1840 F   0  0  0  0  0  0  0  0  0  0  0  0
  188.9760  180.1140  141.1210 F   0  0  0  0  0  0  0  0  0  0  0  0
  188.3610  178.8780  141.1930 C   0  0  0  0  0  0  0  0  0  0  0  0
  188.3880  178.1890  139.8390 C   0  0  2  0  0  0  0  0  0  0  0  0
  189.6410  178.0410  139.0480 C   0  0  2  0  0  3  0  0  0  0  0  0
  186.8770  179.0570  141.4890 C   0  0  0  0  0  2  0  0  0  0  0  0
  180.6080  179.1490  139.6320 O   0  0  0  0  0  1  0  0  0  0  0  0
  183.8520  178.6910  141.3500 C   0  0  0  0  0  0  0  0  0  0  0  0
  181.9660  178.9470  139.8310 C   0  0  0  0  0  0  0  0  0  0  0  0
  182.4820  178.8960  141.1260 C   0  0  0  0  0  3  0  0  0  0  0  0
  184.7200  178.5570  140.2340 C   0  0  0  0  0  0  0  0  0  0  0  0
  182.8140  178.7830  138.7380 C   0  0  0  0  0  3  0  0  0  0  0  0
  184.1810  178.5910  138.9390 C   0  0  0  0  0  3  0  0  0  0  0  0
  184.2190  179.2170  145.0810 C   0  0  0  0  0  3  0  0  0  0  0  0
  185.2570  178.3240  145.3940 C   0  0  0  0  0  0  0  0  0  0  0  0
  185.3610  177.6710  143.0580 C   0  0  0  0  0  3  0  0  0  0  0  0
  184.3180  178.5540  142.7470 C   0  0  0  0  0  0  0  0  0  0  0  0
  185.8210  177.5530  144.3730 C   0  0  0  0  0  3  0  0  0  0  0  0
  183.7600  179.3360  143.7680 C   0  0  0  0  0  3  0  0  0  0  0  0
  185.7330  178.1480  146.7030 O   0  0  0  0  0  0  0  0  0  0  0  0
  187.9970  177.6720  146.1510 N   0  0  0  0  0  0  0  0  0  0  0  0
  189.3160  177.5190  146.4520 C   0  0  0  0  0  0  0  0  0  0  0  0
  187.4880  178.1840  148.4250 C   0  0  0  0  0  3  0  0  0  0  0  0
  189.7580  177.6950  147.7650 C   0  0  0  0  0  3  0  0  0  0  0  0
  187.0710  177.9920  147.0980 C   0  0  0  0  0  0  0  0  0  0  0  0
  188.8350  178.0310  148.7550 C   0  0  0  0  0  3  0  0  0  0  0  0
  191.3920  176.5270  145.9480 F   0  0  0  0  0  0  0  0  0  0  0  0
  190.6940  178.2820  144.7050 F   0  0  0  0  0  0  0  0  0  0  0  0
  190.2910  177.1490  145.3880 C   0  0  0  0  0  3  0  0  0  0  0  0
  189.1920  178.7480  136.8170 O   0  0  0  0  0  0  0  0  0  0  0  0
  189.2510  176.4330  137.1200 N   0  0  0  0  0  2  0  0  0  0  0  0
  189.3560  177.7760  137.6020 C   0  0  0  0  0  0  0  0  0  0  0  0
  188.7490  176.1170  135.7900 C   0  0  2  0  0  3  0  0  0  0  0  0
  185.5340  174.4030  136.6560 C   0  0  0  0  0  0  0  0  0  0  0  0
  186.7510  175.2040  137.0790 C   0  0  0  0  0  2  0  0  0  0  0  0
  184.2960  174.9380  137.3460 C   0  0  0  0  0  1  0  0  0  0  0  0
  187.2250  175.9440  135.8400 C   0  0  2  0  0  3  0  0  0  0  0  0
  186.6860  175.1730  134.6580 C   0  0  0  0  0  2  0  0  0  0  0  0
  185.7300  172.9440  137.0160 C   0  0  0  0  0  1  0  0  0  0  0  0
  185.3960  174.5540  135.1500 C   0  0  0  0  0  2  0  0  0  0  0  0
  192.8020  173.4720  134.3470 C   0  0  0  0  0  1  0  0  0  0  0  0
  190.8200  174.8120  135.1310 C   0  0  0  0  0  0  0  0  0  0  0  0
  191.5710  175.7660  135.4730 O   0  0  0  0  0  0  0  0  0  0  0  0
  189.4050  174.9090  135.3010 N   0  0  0  0  0  2  0  0  0  0  0  0
  191.3750  173.6220  134.5740 N   0  0  0  0  0  2  0  0  0  0  0  0
  1  2  1  0  0  0  0
  2  9  1  0  0  0  0
  5  6  1  0  0  0  0
  6  9  1  0  0  0  0
  6  4  1  0  0  0  0
  7  1  1  6  0  0  0
  7  3  1  0  0  0  0
  7  6  1  0  0  0  0
  8 35  1  6  0  0  0
  8  7  1  0  0  0  0
  8  3  1  0  0  0  0
 10 12  1  0  0  0  0
 11 20  1  0  0  0  0
 12 13  2  0  0  0  0
 13 11  1  0  0  0  0
 14  2  1  0  0  0  0
 14 11  2  0  0  0  0
 15 16  2  0  0  0  0
 15 12  1  0  0  0  0
 16 14  1  0  0  0  0
 17 18  1  0  0  0  0
 18 23  1  0  0  0  0
 19 21  1  0  0  0  0
 20 19  2  0  0  0  0
 20 22  1  0  0  0  0
 21 18  2  0  0  0  0
 22 17  2  0  0  0  0
 23 28  1  0  0  0  0
 24 25  1  0  0  0  0
 24 28  2  0  0  0  0
 25 27  2  0  0  0  0
 26 29  2  0  0  0  0
 27 29  1  0  0  0  0
 28 26  1  0  0  0  0
 31 32  1  0  0  0  0
 32 30  1  0  0  0  0
 32 25  1  0  0  0  0
 33 35  2  0  0  0  0
 34 35  1  0  0  0  0
 36 47  1  1  0  0  0
 36 34  1  0  0  0  0
 37 42  1  0  0  0  0
 37 38  1  0  0  0  0
 37 39  1  0  0  0  0
 40 36  1  6  0  0  0
 40 38  1  0  0  0  0
 41 43  1  0  0  0  0
 41 40  1  0  0  0  0
 43 37  1  0  0  0  0
 44 48  1  0  0  0  0
 45 47  1  0  0  0  0
 45 46  2  0  0  0  0
 48 45  1  0  0  0  0
M  END
>  <MODEL>
9

>  <REMARK>
 VINA RESULT:      -8.1      2.722      5.429
  Name = 
  9 active torsions:
  status: ('A' for Active; 'I' for Inactive)
    1  A    between atoms: O_3  and  C_16
    2  A    between atoms: O_3  and  C_29
    3  A    between atoms: N_7  and  C_38
    4  A    between atoms: C_12  and  C_30
    5  A    between atoms: C_15  and  C_20
    6  A    between atoms: C_26  and  C_46
    7  A    between atoms: C_33  and  N_35
    8  A    between atoms: C_33  and  C_36
    9  A    between atoms: C_33  and  N_44
                            x       y       z     vdW  Elec       q    Type
                         _______ _______ _______ _____ _____    ______ ____

>  <TORSDO>
F 9

$$$$
