=
 OpenBabel10232411423D

 27 32  0  0  1  0  0  0  0  0999 V2000
  189.2150  176.4800  146.7500 O   0  0  0  0  0  0  0  0  0  0  0  0
  189.1400  178.5120  148.2020 C   0  0  0  0  0  2  0  0  0  0  0  0
  188.2200  177.4270  148.7390 C   0  0  0  0  0  2  0  0  0  0  0  0
  188.4540  177.5500  147.2480 C   0  0  0  0  0  0  0  0  0  0  0  0
  184.7080  178.2250  142.4310 C   0  0  0  0  0  3  0  0  0  0  0  0
  187.2320  177.9810  146.4930 C   0  0  0  0  0  0  0  0  0  0  0  0
  184.9070  178.7040  145.1570 C   0  0  0  0  0  0  0  0  0  0  0  0
  183.6410  178.8270  143.1060 C   0  0  0  0  0  3  0  0  0  0  0  0
  183.7440  179.0680  144.4770 C   0  0  0  0  0  3  0  0  0  0  0  0
  185.8370  177.8750  143.1060 N   0  0  0  0  0  0  0  0  0  0  0  0
  185.0280  178.9230  146.4920 N   0  0  0  0  0  0  0  0  0  0  0  0
  187.1230  177.7340  145.1200 C   0  0  0  0  0  3  0  0  0  0  0  0
  185.9610  178.1000  144.4420 C   0  0  0  0  0  0  0  0  0  0  0  0
  186.1560  178.5730  147.1690 C   0  0  0  0  0  3  0  0  0  0  0  0
  191.1360  175.7950  147.7910 O   0  0  0  0  0  1  0  0  0  0  0  0
  190.5630  176.7890  146.9960 C   0  0  1  0  0  3  0  0  0  0  0  0
  191.3360  176.9410  145.6870 C   0  0  0  0  0  2  0  0  0  0  0  0
  190.8970  176.0990  143.3420 C   0  0  0  0  0  2  0  0  0  0  0  0
  190.4440  176.6560  140.7350 C   0  0  2  0  0  3  0  0  0  0  0  0
  190.3100  178.5270  144.0230 C   0  0  0  0  0  2  0  0  0  0  0  0
  190.0250  176.4460  142.1580 C   0  0  2  0  0  3  0  0  0  0  0  0
  190.4190  177.0410  144.4760 C   0  0  2  0  0  3  0  0  0  0  0  0
  190.7160  177.7520  141.7500 C   0  0  2  0  0  3  0  0  0  0  0  0
  189.8240  178.6710  142.5600 C   0  0  0  0  0  2  0  0  0  0  0  0
  189.6360  178.0840  138.8910 C   0  0  0  0  0  2  0  0  0  0  0  0
  189.2380  177.0190  139.8910 C   0  0  0  0  0  3  0  0  0  0  0  0
  189.5110  176.6430  138.4490 C   0  0  0  0  0  2  0  0  0  0  0  0
  1 16  1  0  0  0  0
  1  4  1  0  0  0  0
  2  3  1  0  0  0  0
  4  2  1  0  0  0  0
  4  3  1  0  0  0  0
  5  8  2  0  0  0  0
  5 10  1  0  0  0  0
  6 14  1  0  0  0  0
  6  4  1  0  0  0  0
  7 11  1  0  0  0  0
  8  9  1  0  0  0  0
  9  7  2  0  0  0  0
 10 13  2  0  0  0  0
 11 14  2  0  0  0  0
 12  6  2  0  0  0  0
 13 12  1  0  0  0  0
 13  7  1  0  0  0  0
 16 15  1  1  0  0  0
 17 16  1  0  0  0  0
 18 22  1  0  0  0  0
 19 26  1  6  0  0  0
 19 23  1  0  0  0  0
 19 21  1  0  0  0  0
 20 22  1  0  0  0  0
 21 18  1  1  0  0  0
 22 17  1  1  0  0  0
 23 21  1  0  0  0  0
 23 24  1  6  0  0  0
 24 20  1  0  0  0  0
 25 26  1  0  0  0  0
 27 25  1  0  0  0  0
 27 26  1  0  0  0  0
M  END
>  <MODEL>
1

>  <REMARK>
 VINA RESULT:      -9.1      0.000      0.000
  Name = 
  6 active torsions:
  status: ('A' for Active; 'I' for Inactive)
    1  A    between atoms: C_2  and  C_14
    2  A    between atoms: C_2  and  C_23
    3  A    between atoms: C_3  and  C_24
    4  A    between atoms: C_8  and  C_9
    5  A    between atoms: O_16  and  C_23
    6  A    between atoms: O_16  and  C_24
                            x       y       z     vdW  Elec       q    Type
                         _______ _______ _______ _____ _____    ______ ____

>  <TORSDO>
F 6

$$$$
=
 OpenBabel10232411423D

 27 32  0  0  1  0  0  0  0  0999 V2000
  189.2600  176.8960  145.6030 O   0  0  0  0  0  0  0  0  0  0  0  0
  189.0480  178.1690  147.7420 C   0  0  0  0  0  2  0  0  0  0  0  0
  188.3760  176.8100  147.8500 C   0  0  0  0  0  2  0  0  0  0  0  0
  188.4090  177.5320  146.5200 C   0  0  0  0  0  0  0  0  0  0  0  0
  183.8070  178.5490  142.5860 C   0  0  0  0  0  3  0  0  0  0  0  0
  187.0540  177.9800  146.0590 C   0  0  0  0  0  0  0  0  0  0  0  0
  184.4980  178.7250  145.2680 C   0  0  0  0  0  0  0  0  0  0  0  0
  182.8670  179.0130  143.5130 C   0  0  0  0  0  3  0  0  0  0  0  0
  183.2170  179.1010  144.8610 C   0  0  0  0  0  3  0  0  0  0  0  0
  185.0530  178.1850  142.9960 N   0  0  0  0  0  0  0  0  0  0  0  0
  184.8600  178.7970  146.5750 N   0  0  0  0  0  0  0  0  0  0  0  0
  186.6970  177.8860  144.7090 C   0  0  0  0  0  3  0  0  0  0  0  0
  185.4170  178.2640  144.3040 C   0  0  0  0  0  0  0  0  0  0  0  0
  186.1050  178.4340  146.9870 C   0  0  0  0  0  3  0  0  0  0  0  0
  191.5480  176.9200  145.5440 O   0  0  0  0  0  1  0  0  0  0  0  0
  190.3990  177.7070  145.4720 C   0  0  1  0  0  3  0  0  0  0  0  0
  190.3650  178.4880  144.1580 C   0  0  0  0  0  2  0  0  0  0  0  0
  191.3270  177.4280  142.0730 C   0  0  0  0  0  2  0  0  0  0  0  0
  191.1530  176.9990  139.4090 C   0  0  2  0  0  3  0  0  0  0  0  0
  188.8480  178.1670  142.1740 C   0  0  0  0  0  2  0  0  0  0  0  0
  190.8390  176.7000  140.8420 C   0  0  2  0  0  3  0  0  0  0  0  0
  190.0680  177.5990  142.9590 C   0  0  2  0  0  3  0  0  0  0  0  0
  190.1590  177.8820  140.1410 C   0  0  2  0  0  3  0  0  0  0  0  0
  188.7780  177.6440  140.7190 C   0  0  0  0  0  2  0  0  0  0  0  0
  189.9580  176.7600  137.2610 C   0  0  0  0  0  2  0  0  0  0  0  0
  190.4170  176.0290  138.5060 C   0  0  0  0  0  3  0  0  0  0  0  0
  191.1860  175.8780  137.2080 C   0  0  0  0  0  2  0  0  0  0  0  0
  1  4  1  0  0  0  0
  2  3  1  0  0  0  0
  4  2  1  0  0  0  0
  4  3  1  0  0  0  0
  5 10  2  0  0  0  0
  5  8  1  0  0  0  0
  6  4  1  0  0  0  0
  6 14  1  0  0  0  0
  7 11  1  0  0  0  0
  8  9  2  0  0  0  0
  9  7  1  0  0  0  0
 10 13  1  0  0  0  0
 11 14  2  0  0  0  0
 12  6  2  0  0  0  0
 13 12  1  0  0  0  0
 13  7  2  0  0  0  0
 16 15  1  6  0  0  0
 16  1  1  0  0  0  0
 17 16  1  0  0  0  0
 18 22  1  0  0  0  0
 19 26  1  6  0  0  0
 19 23  1  0  0  0  0
 19 21  1  0  0  0  0
 20 22  1  0  0  0  0
 21 18  1  1  0  0  0
 22 17  1  1  0  0  0
 23 24  1  6  0  0  0
 23 21  1  0  0  0  0
 24 20  1  0  0  0  0
 25 26  1  0  0  0  0
 27 25  1  0  0  0  0
 27 26  1  0  0  0  0
M  END
>  <MODEL>
2

>  <REMARK>
 VINA RESULT:      -9.0      1.079      1.516
  Name = 
  6 active torsions:
  status: ('A' for Active; 'I' for Inactive)
    1  A    between atoms: C_2  and  C_14
    2  A    between atoms: C_2  and  C_23
    3  A    between atoms: C_3  and  C_24
    4  A    between atoms: C_8  and  C_9
    5  A    between atoms: O_16  and  C_23
    6  A    between atoms: O_16  and  C_24
                            x       y       z     vdW  Elec       q    Type
                         _______ _______ _______ _____ _____    ______ ____

>  <TORSDO>
F 6

$$$$
=
 OpenBabel10232411423D

 27 32  0  0  1  0  0  0  0  0999 V2000
  184.8590  177.8660  144.4790 O   0  0  0  0  0  0  0  0  0  0  0  0
  184.1660  179.7490  142.9920 C   0  0  0  0  0  2  0  0  0  0  0  0
  183.7740  178.4100  142.3900 C   0  0  0  0  0  2  0  0  0  0  0  0
  185.0180  178.5180  143.2460 C   0  0  0  0  0  0  0  0  0  0  0  0
  190.6700  176.4200  142.0890 C   0  0  0  0  0  3  0  0  0  0  0  0
  186.2860  178.3060  142.4740 C   0  0  0  0  0  0  0  0  0  0  0  0
  188.5740  177.8510  140.9670 C   0  0  0  0  0  0  0  0  0  0  0  0
  190.7850  176.9020  140.7800 C   0  0  0  0  0  3  0  0  0  0  0  0
  189.7290  177.6210  140.2180 C   0  0  0  0  0  3  0  0  0  0  0  0
  189.5380  176.6510  142.8090 N   0  0  0  0  0  0  0  0  0  0  0  0
  187.5310  178.5440  140.4400 N   0  0  0  0  0  0  0  0  0  0  0  0
  187.3430  177.5780  143.0320 C   0  0  0  0  0  3  0  0  0  0  0  0
  188.4970  177.3510  142.2830 C   0  0  0  0  0  0  0  0  0  0  0  0
  186.3990  178.7760  141.1570 C   0  0  0  0  0  3  0  0  0  0  0  0
  183.2880  179.1180  145.5770 O   0  0  0  0  0  1  0  0  0  0  0  0
  184.6540  178.8640  145.4460 C   0  0  1  0  0  3  0  0  0  0  0  0
  185.2550  178.4550  146.7900 C   0  0  0  0  0  2  0  0  0  0  0  0
  187.3650  177.1760  146.2330 C   0  0  0  0  0  2  0  0  0  0  0  0
  189.7780  176.2450  147.0220 C   0  0  2  0  0  3  0  0  0  0  0  0
  187.2950  178.8400  148.2150 C   0  0  0  0  0  2  0  0  0  0  0  0
  188.8530  177.2850  146.4700 C   0  0  2  0  0  3  0  0  0  0  0  0
  186.7760  178.4980  146.7860 C   0  0  2  0  0  3  0  0  0  0  0  0
  188.8600  176.9900  147.9740 C   0  0  2  0  0  3  0  0  0  0  0  0
  188.7730  178.4330  148.4270 C   0  0  0  0  0  2  0  0  0  0  0  0
  192.1570  175.6600  147.3240 C   0  0  0  0  0  2  0  0  0  0  0  0
  191.1850  176.8020  147.1160 C   0  0  0  0  0  3  0  0  0  0  0  0
  192.0040  176.2810  145.9530 C   0  0  0  0  0  2  0  0  0  0  0  0
  1 16  1  0  0  0  0
  2  4  1  0  0  0  0
  3  2  1  0  0  0  0
  3  4  1  0  0  0  0
  4  1  1  0  0  0  0
  5 10  1  0  0  0  0
  6 12  2  0  0  0  0
  6  4  1  0  0  0  0
  7 13  1  0  0  0  0
  8  5  2  0  0  0  0
  9  8  1  0  0  0  0
  9  7  2  0  0  0  0
 11  7  1  0  0  0  0
 11 14  2  0  0  0  0
 13 10  2  0  0  0  0
 13 12  1  0  0  0  0
 14  6  1  0  0  0  0
 16 15  1  1  0  0  0
 16 17  1  0  0  0  0
 18 22  1  0  0  0  0
 19 26  1  1  0  0  0
 19 23  1  0  0  0  0
 20 24  1  0  0  0  0
 21 18  1  6  0  0  0
 21 19  1  0  0  0  0
 21 23  1  0  0  0  0
 22 17  1  1  0  0  0
 22 20  1  0  0  0  0
 23 24  1  1  0  0  0
 26 25  1  0  0  0  0
 27 26  1  0  0  0  0
 27 25  1  0  0  0  0
M  END
>  <MODEL>
3

>  <REMARK>
 VINA RESULT:      -8.2      2.508      6.249
  Name = 
  6 active torsions:
  status: ('A' for Active; 'I' for Inactive)
    1  A    between atoms: C_2  and  C_14
    2  A    between atoms: C_2  and  C_23
    3  A    between atoms: C_3  and  C_24
    4  A    between atoms: C_8  and  C_9
    5  A    between atoms: O_16  and  C_23
    6  A    between atoms: O_16  and  C_24
                            x       y       z     vdW  Elec       q    Type
                         _______ _______ _______ _____ _____    ______ ____

>  <TORSDO>
F 6

$$$$
=
 OpenBabel10232411423D

 27 32  0  0  1  0  0  0  0  0999 V2000
  186.7580  177.1560  146.0390 O   0  0  0  0  0  0  0  0  0  0  0  0
  185.9400  179.3890  146.8030 C   0  0  0  0  0  2  0  0  0  0  0  0
  184.8460  178.3410  146.9240 C   0  0  0  0  0  2  0  0  0  0  0  0
  185.8800  178.2300  145.8230 C   0  0  0  0  0  0  0  0  0  0  0  0
  185.8410  178.6820  139.7010 C   0  0  0  0  0  3  0  0  0  0  0  0
  185.3060  178.4310  144.4530 C   0  0  0  0  0  0  0  0  0  0  0  0
  184.1840  178.7040  141.9270 C   0  0  0  0  0  0  0  0  0  0  0  0
  184.4610  178.8340  139.5330 C   0  0  0  0  0  3  0  0  0  0  0  0
  183.6290  178.8440  140.6540 C   0  0  0  0  0  3  0  0  0  0  0  0
  186.3700  178.5460  140.9480 N   0  0  0  0  0  0  0  0  0  0  0  0
  183.3940  178.7070  143.0320 N   0  0  0  0  0  0  0  0  0  0  0  0
  186.1360  178.4130  143.3260 C   0  0  0  0  0  3  0  0  0  0  0  0
  185.5800  178.5550  142.0550 C   0  0  0  0  0  0  0  0  0  0  0  0
  183.9210  178.5700  144.2800 C   0  0  0  0  0  3  0  0  0  0  0  0
  187.7370  177.2080  148.1070 O   0  0  0  0  0  1  0  0  0  0  0  0
  187.8360  177.6530  146.7890 C   0  0  1  0  0  3  0  0  0  0  0  0
  189.1700  177.2260  146.1770 C   0  0  0  0  0  2  0  0  0  0  0  0
  189.0990  176.5630  143.7370 C   0  0  0  0  0  2  0  0  0  0  0  0
  190.3190  176.5000  141.3240 C   0  0  2  0  0  3  0  0  0  0  0  0
  190.7350  178.3840  144.5800 C   0  0  0  0  0  2  0  0  0  0  0  0
  189.4870  177.1370  142.3940 C   0  0  2  0  0  3  0  0  0  0  0  0
  189.3370  177.7150  144.7450 C   0  0  2  0  0  3  0  0  0  0  0  0
  191.0100  177.0630  142.5530 C   0  0  2  0  0  3  0  0  0  0  0  0
  191.1880  178.4640  143.1020 C   0  0  0  0  0  2  0  0  0  0  0  0
  191.2960  176.7820  139.0740 C   0  0  0  0  0  2  0  0  0  0  0  0
  190.4790  177.4550  140.1570 C   0  0  0  0  0  3  0  0  0  0  0  0
  189.7920  176.8700  138.9400 C   0  0  0  0  0  2  0  0  0  0  0  0
  1 16  1  0  0  0  0
  2  3  1  0  0  0  0
  4  1  1  0  0  0  0
  4  2  1  0  0  0  0
  4  3  1  0  0  0  0
  5 10  1  0  0  0  0
  6  4  1  0  0  0  0
  7 13  1  0  0  0  0
  7 11  1  0  0  0  0
  8  5  2  0  0  0  0
  8  9  1  0  0  0  0
  9  7  2  0  0  0  0
 10 13  2  0  0  0  0
 11 14  2  0  0  0  0
 12  6  2  0  0  0  0
 13 12  1  0  0  0  0
 14  6  1  0  0  0  0
 16 15  1  1  0  0  0
 17 16  1  0  0  0  0
 18 22  1  0  0  0  0
 19 26  1  6  0  0  0
 19 21  1  0  0  0  0
 19 23  1  0  0  0  0
 20 22  1  0  0  0  0
 21 23  1  0  0  0  0
 21 18  1  1  0  0  0
 22 17  1  1  0  0  0
 23 24  1  6  0  0  0
 24 20  1  0  0  0  0
 25 26  1  0  0  0  0
 27 25  1  0  0  0  0
 27 26  1  0  0  0  0
M  END
>  <MODEL>
4

>  <REMARK>
 VINA RESULT:      -8.1      1.642      2.644
  Name = 
  6 active torsions:
  status: ('A' for Active; 'I' for Inactive)
    1  A    between atoms: C_2  and  C_14
    2  A    between atoms: C_2  and  C_23
    3  A    between atoms: C_3  and  C_24
    4  A    between atoms: C_8  and  C_9
    5  A    between atoms: O_16  and  C_23
    6  A    between atoms: O_16  and  C_24
                            x       y       z     vdW  Elec       q    Type
                         _______ _______ _______ _____ _____    ______ ____

>  <TORSDO>
F 6

$$$$
=
 OpenBabel10232411423D

 27 32  0  0  1  0  0  0  0  0999 V2000
  185.1040  177.9570  144.6650 O   0  0  0  0  0  0  0  0  0  0  0  0
  183.9130  179.9400  143.7230 C   0  0  0  0  0  2  0  0  0  0  0  0
  183.3240  178.6470  143.1840 C   0  0  0  0  0  2  0  0  0  0  0  0
  184.7960  178.7200  143.5270 C   0  0  0  0  0  0  0  0  0  0  0  0
  189.8650  177.4150  140.3210 C   0  0  0  0  0  3  0  0  0  0  0  0
  185.6880  178.6200  142.3260 C   0  0  0  0  0  0  0  0  0  0  0  0
  187.2680  178.3540  140.0580 C   0  0  0  0  0  0  0  0  0  0  0  0
  189.3770  177.7490  139.0530 C   0  0  0  0  0  3  0  0  0  0  0  0
  188.0700  178.2210  138.9230 C   0  0  0  0  0  3  0  0  0  0  0  0
  189.0730  177.5490  141.4190 N   0  0  0  0  0  0  0  0  0  0  0  0
  185.9910  178.8070  139.9560 N   0  0  0  0  0  0  0  0  0  0  0  0
  186.9960  178.1390  142.4520 C   0  0  0  0  0  3  0  0  0  0  0  0
  187.7970  178.0080  141.3170 C   0  0  0  0  0  0  0  0  0  0  0  0
  185.1970  178.9420  141.0520 C   0  0  0  0  0  3  0  0  0  0  0  0
  184.1420  178.1770  146.7300 O   0  0  0  0  0  1  0  0  0  0  0  0
  184.9490  178.7990  145.7770 C   0  0  1  0  0  3  0  0  0  0  0  0
  186.3050  179.1650  146.3790 C   0  0  0  0  0  2  0  0  0  0  0  0
  188.1810  178.1170  147.7140 C   0  0  0  0  0  2  0  0  0  0  0  0
  190.6450  177.0050  147.7560 C   0  0  2  0  0  3  0  0  0  0  0  0
  187.9990  177.7590  145.1570 C   0  0  0  0  0  2  0  0  0  0  0  0
  189.1570  176.9710  147.5920 C   0  0  2  0  0  3  0  0  0  0  0  0
  187.2330  177.9650  146.4980 C   0  0  2  0  0  3  0  0  0  0  0  0
  190.0350  177.5460  146.4750 C   0  0  2  0  0  3  0  0  0  0  0  0
  189.2810  176.9090  145.3250 C   0  0  0  0  0  2  0  0  0  0  0  0
  192.3390  175.7280  146.4920 C   0  0  0  0  0  2  0  0  0  0  0  0
  191.2230  175.6250  147.5110 C   0  0  0  0  0  3  0  0  0  0  0  0
  192.6690  175.6050  147.9630 C   0  0  0  0  0  2  0  0  0  0  0  0
  1 16  1  0  0  0  0
  3  4  1  0  0  0  0
  3  2  1  0  0  0  0
  4  2  1  0  0  0  0
  4  1  1  0  0  0  0
  5 10  1  0  0  0  0
  6 12  2  0  0  0  0
  6  4  1  0  0  0  0
  7 13  1  0  0  0  0
  8  5  2  0  0  0  0
  9  8  1  0  0  0  0
  9  7  2  0  0  0  0
 11  7  1  0  0  0  0
 11 14  2  0  0  0  0
 13 10  2  0  0  0  0
 13 12  1  0  0  0  0
 14  6  1  0  0  0  0
 16 17  1  0  0  0  0
 16 15  1  1  0  0  0
 19 26  1  6  0  0  0
 20 24  1  0  0  0  0
 20 22  1  0  0  0  0
 21 18  1  1  0  0  0
 21 19  1  0  0  0  0
 22 17  1  6  0  0  0
 22 18  1  0  0  0  0
 23 24  1  6  0  0  0
 23 21  1  0  0  0  0
 23 19  1  0  0  0  0
 25 26  1  0  0  0  0
 25 27  1  0  0  0  0
 26 27  1  0  0  0  0
M  END
>  <MODEL>
5

>  <REMARK>
 VINA RESULT:      -8.0      2.542      6.038
  Name = 
  6 active torsions:
  status: ('A' for Active; 'I' for Inactive)
    1  A    between atoms: C_2  and  C_14
    2  A    between atoms: C_2  and  C_23
    3  A    between atoms: C_3  and  C_24
    4  A    between atoms: C_8  and  C_9
    5  A    between atoms: O_16  and  C_23
    6  A    between atoms: O_16  and  C_24
                            x       y       z     vdW  Elec       q    Type
                         _______ _______ _______ _____ _____    ______ ____

>  <TORSDO>
F 6

$$$$
=
 OpenBabel10232411423D

 27 32  0  0  1  0  0  0  0  0999 V2000
  189.2550  178.5830  144.8580 O   0  0  0  0  0  0  0  0  0  0  0  0
  191.6100  177.7670  144.7010 C   0  0  0  0  0  2  0  0  0  0  0  0
  191.4760  179.1570  144.0990 C   0  0  0  0  0  2  0  0  0  0  0  0
  190.3150  178.1880  144.0280 C   0  0  0  0  0  0  0  0  0  0  0  0
  187.4230  178.0540  138.6140 C   0  0  0  0  0  3  0  0  0  0  0  0
  190.0100  177.7350  142.6310 C   0  0  0  0  0  0  0  0  0  0  0  0
  189.5450  176.9390  140.0110 C   0  0  0  0  0  0  0  0  0  0  0  0
  188.2360  177.1020  137.9910 C   0  0  0  0  0  3  0  0  0  0  0  0
  189.3030  176.5420  138.6960 C   0  0  0  0  0  3  0  0  0  0  0  0
  187.6700  178.4330  139.8980 N   0  0  0  0  0  0  0  0  0  0  0  0
  190.5810  176.4120  140.7150 N   0  0  0  0  0  0  0  0  0  0  0  0
  188.9450  178.3000  141.9190 C   0  0  0  0  0  3  0  0  0  0  0  0
  188.7030  177.9010  140.6050 C   0  0  0  0  0  0  0  0  0  0  0  0
  190.8300  176.7900  141.9990 C   0  0  0  0  0  3  0  0  0  0  0  0
  189.5060  176.6550  146.0650 O   0  0  0  0  0  1  0  0  0  0  0  0
  188.6200  177.4110  145.2980 C   0  0  1  0  0  3  0  0  0  0  0  0
  187.3600  177.7390  146.0990 C   0  0  0  0  0  2  0  0  0  0  0  0
  186.4360  177.6860  143.7450 C   0  0  0  0  0  2  0  0  0  0  0  0
  184.7280  178.7000  141.9120 C   0  0  2  0  0  3  0  0  0  0  0  0
  185.1150  178.7960  145.6760 C   0  0  0  0  0  2  0  0  0  0  0  0
  185.1010  177.8000  143.0480 C   0  0  2  0  0  3  0  0  0  0  0  0
  186.0960  177.6600  145.2570 C   0  0  2  0  0  3  0  0  0  0  0  0
  184.8430  179.2890  143.3060 C   0  0  2  0  0  3  0  0  0  0  0  0
  184.0560  179.1020  144.5880 C   0  0  0  0  0  2  0  0  0  0  0  0
  182.9930  179.1510  140.2130 C   0  0  0  0  0  2  0  0  0  0  0  0
  183.2680  178.5000  141.5530 C   0  0  0  0  0  3  0  0  0  0  0  0
  183.1760  177.6520  140.3010 C   0  0  0  0  0  2  0  0  0  0  0  0
  1 16  1  0  0  0  0
  3  2  1  0  0  0  0
  4  3  1  0  0  0  0
  4  2  1  0  0  0  0
  4  1  1  0  0  0  0
  5 10  1  0  0  0  0
  6  4  1  0  0  0  0
  7 13  1  0  0  0  0
  7 11  1  0  0  0  0
  8  5  2  0  0  0  0
  8  9  1  0  0  0  0
  9  7  2  0  0  0  0
 10 13  2  0  0  0  0
 11 14  2  0  0  0  0
 12  6  2  0  0  0  0
 13 12  1  0  0  0  0
 14  6  1  0  0  0  0
 16 15  1  1  0  0  0
 16 17  1  0  0  0  0
 18 22  1  0  0  0  0
 19 26  1  1  0  0  0
 19 21  1  0  0  0  0
 19 23  1  0  0  0  0
 21 23  1  0  0  0  0
 21 18  1  6  0  0  0
 22 20  1  0  0  0  0
 22 17  1  1  0  0  0
 23 24  1  1  0  0  0
 24 20  1  0  0  0  0
 25 27  1  0  0  0  0
 25 26  1  0  0  0  0
 27 26  1  0  0  0  0
M  END
>  <MODEL>
6

>  <REMARK>
 VINA RESULT:      -7.9      2.089      5.583
  Name = 
  6 active torsions:
  status: ('A' for Active; 'I' for Inactive)
    1  A    between atoms: C_2  and  C_14
    2  A    between atoms: C_2  and  C_23
    3  A    between atoms: C_3  and  C_24
    4  A    between atoms: C_8  and  C_9
    5  A    between atoms: O_16  and  C_23
    6  A    between atoms: O_16  and  C_24
                            x       y       z     vdW  Elec       q    Type
                         _______ _______ _______ _____ _____    ______ ____

>  <TORSDO>
F 6

$$$$
=
 OpenBabel10232411423D

 27 32  0  0  1  0  0  0  0  0999 V2000
  192.0020  177.8620  145.1130 O   0  0  0  0  0  0  0  0  0  0  0  0
  191.8750  175.9200  146.6790 C   0  0  0  0  0  2  0  0  0  0  0  0
  191.2930  175.5610  145.3200 C   0  0  0  0  0  2  0  0  0  0  0  0
  191.1850  176.9800  145.8380 C   0  0  0  0  0  0  0  0  0  0  0  0
  185.2430  178.1040  144.7800 C   0  0  0  0  0  3  0  0  0  0  0  0
  189.7760  177.3880  146.1480 C   0  0  0  0  0  0  0  0  0  0  0  0
  187.1560  178.0510  146.7890 C   0  0  0  0  0  0  0  0  0  0  0  0
  184.8740  178.4150  146.0930 C   0  0  0  0  0  3  0  0  0  0  0  0
  185.8390  178.3870  147.1020 C   0  0  0  0  0  3  0  0  0  0  0  0
  186.5320  177.7780  144.4880 N   0  0  0  0  0  0  0  0  0  0  0  0
  188.1110  178.0130  147.7550 N   0  0  0  0  0  0  0  0  0  0  0  0
  188.8050  177.4090  145.1400 C   0  0  0  0  0  3  0  0  0  0  0  0
  187.4890  177.7460  145.4540 C   0  0  0  0  0  0  0  0  0  0  0  0
  189.4000  177.6870  147.4650 C   0  0  0  0  0  3  0  0  0  0  0  0
  191.2450  179.7700  144.1000 O   0  0  0  0  0  1  0  0  0  0  0  0
  191.2200  178.3760  144.0660 C   0  0  1  0  0  3  0  0  0  0  0  0
  191.7150  177.8640  142.7130 C   0  0  0  0  0  2  0  0  0  0  0  0
  191.0180  177.2830  140.3520 C   0  0  0  0  0  2  0  0  0  0  0  0
  189.2410  177.5640  138.3340 C   0  0  2  0  0  3  0  0  0  0  0  0
  189.3060  178.2030  142.0640 C   0  0  0  0  0  2  0  0  0  0  0  0
  189.7560  176.9410  139.5940 C   0  0  2  0  0  3  0  0  0  0  0  0
  190.5850  177.3410  141.8390 C   0  0  2  0  0  3  0  0  0  0  0  0
  189.0900  178.3210  139.6410 C   0  0  2  0  0  3  0  0  0  0  0  0
  188.2890  178.0760  140.9040 C   0  0  0  0  0  2  0  0  0  0  0  0
  186.9690  178.0100  137.4750 C   0  0  0  0  0  2  0  0  0  0  0  0
  187.9190  176.9290  137.9470 C   0  0  0  0  0  3  0  0  0  0  0  0
  187.6830  177.1380  136.4650 C   0  0  0  0  0  2  0  0  0  0  0  0
  1  4  1  0  0  0  0
  3  4  1  0  0  0  0
  3  2  1  0  0  0  0
  4  6  1  0  0  0  0
  4  2  1  0  0  0  0
  5  8  1  0  0  0  0
  6 14  1  0  0  0  0
  7  9  1  0  0  0  0
  7 11  1  0  0  0  0
  8  9  2  0  0  0  0
 10  5  2  0  0  0  0
 10 13  1  0  0  0  0
 12 13  1  0  0  0  0
 12  6  2  0  0  0  0
 13  7  2  0  0  0  0
 14 11  2  0  0  0  0
 16 15  1  6  0  0  0
 16  1  1  0  0  0  0
 17 16  1  0  0  0  0
 18 22  1  0  0  0  0
 19 26  1  1  0  0  0
 19 21  1  0  0  0  0
 19 23  1  0  0  0  0
 21 23  1  0  0  0  0
 21 18  1  6  0  0  0
 22 20  1  0  0  0  0
 22 17  1  1  0  0  0
 23 24  1  1  0  0  0
 24 20  1  0  0  0  0
 25 26  1  0  0  0  0
 27 25  1  0  0  0  0
 27 26  1  0  0  0  0
M  END
>  <MODEL>
7

>  <REMARK>
 VINA RESULT:      -7.5      1.823      3.114
  Name = 
  6 active torsions:
  status: ('A' for Active; 'I' for Inactive)
    1  A    between atoms: C_2  and  C_14
    2  A    between atoms: C_2  and  C_23
    3  A    between atoms: C_3  and  C_24
    4  A    between atoms: C_8  and  C_9
    5  A    between atoms: O_16  and  C_23
    6  A    between atoms: O_16  and  C_24
                            x       y       z     vdW  Elec       q    Type
                         _______ _______ _______ _____ _____    ______ ____

>  <TORSDO>
F 6

$$$$
=
 OpenBabel10232411423D

 27 32  0  0  1  0  0  0  0  0999 V2000
  189.9880  178.2580  139.4440 O   0  0  0  0  0  0  0  0  0  0  0  0
  189.0030  177.4880  137.2820 C   0  0  0  0  0  2  0  0  0  0  0  0
  188.9820  179.0050  137.3780 C   0  0  0  0  0  2  0  0  0  0  0  0
  188.8470  178.1670  138.6310 C   0  0  0  0  0  0  0  0  0  0  0  0
  184.7440  178.8300  143.1490 C   0  0  0  0  0  3  0  0  0  0  0  0
  187.4940  178.2750  139.2690 C   0  0  0  0  0  0  0  0  0  0  0  0
  184.9730  178.5740  140.3960 C   0  0  0  0  0  0  0  0  0  0  0  0
  183.5920  178.8500  142.3560 C   0  0  0  0  0  3  0  0  0  0  0  0
  183.7100  178.7210  140.9710 C   0  0  0  0  0  3  0  0  0  0  0  0
  185.9700  178.6870  142.5770 N   0  0  0  0  0  0  0  0  0  0  0  0
  185.1130  178.4510  139.0500 N   0  0  0  0  0  0  0  0  0  0  0  0
  187.3730  178.4120  140.6570 C   0  0  0  0  0  3  0  0  0  0  0  0
  186.1100  178.5570  141.2300 C   0  0  0  0  0  0  0  0  0  0  0  0
  186.3380  178.3080  138.4760 C   0  0  0  0  0  3  0  0  0  0  0  0
  190.4600  176.0240  139.2930 O   0  0  0  0  0  1  0  0  0  0  0  0
  190.0800  177.0520  140.1560 C   0  0  1  0  0  3  0  0  0  0  0  0
  191.0710  177.1750  141.3130 C   0  0  0  0  0  2  0  0  0  0  0  0
  189.3110  177.6360  143.0700 C   0  0  0  0  0  2  0  0  0  0  0  0
  188.6950  178.0400  145.6720 C   0  0  2  0  0  3  0  0  0  0  0  0
  191.6070  176.6250  143.7110 C   0  0  0  0  0  2  0  0  0  0  0  0
  188.9610  177.1870  144.4700 C   0  0  2  0  0  3  0  0  0  0  0  0
  190.4810  176.7160  142.6380 C   0  0  2  0  0  3  0  0  0  0  0  0
  190.1290  177.8470  145.2120 C   0  0  2  0  0  3  0  0  0  0  0  0
  191.0570  176.6500  145.1580 C   0  0  0  0  0  2  0  0  0  0  0  0
  188.9730  177.8260  148.1160 C   0  0  0  0  0  2  0  0  0  0  0  0
  188.4140  177.1610  146.8760 C   0  0  0  0  0  3  0  0  0  0  0  0
  187.4910  177.8990  147.8240 C   0  0  0  0  0  2  0  0  0  0  0  0
  1 16  1  0  0  0  0
  2  3  1  0  0  0  0
  2  4  1  0  0  0  0
  3  4  1  0  0  0  0
  4  6  1  0  0  0  0
  4  1  1  0  0  0  0
  6 12  2  0  0  0  0
  7  9  2  0  0  0  0
  7 13  1  0  0  0  0
  8  5  2  0  0  0  0
  9  8  1  0  0  0  0
 10  5  1  0  0  0  0
 11  7  1  0  0  0  0
 12 13  1  0  0  0  0
 13 10  2  0  0  0  0
 14 11  2  0  0  0  0
 14  6  1  0  0  0  0
 16 15  1  6  0  0  0
 16 17  1  0  0  0  0
 19 26  1  1  0  0  0
 20 24  1  0  0  0  0
 21 18  1  6  0  0  0
 21 23  1  0  0  0  0
 21 19  1  0  0  0  0
 22 17  1  6  0  0  0
 22 18  1  0  0  0  0
 22 20  1  0  0  0  0
 23 24  1  1  0  0  0
 23 19  1  0  0  0  0
 26 27  1  0  0  0  0
 26 25  1  0  0  0  0
 27 25  1  0  0  0  0
M  END
>  <MODEL>
8

>  <REMARK>
 VINA RESULT:      -7.5      2.632      6.322
  Name = 
  6 active torsions:
  status: ('A' for Active; 'I' for Inactive)
    1  A    between atoms: C_2  and  C_14
    2  A    between atoms: C_2  and  C_23
    3  A    between atoms: C_3  and  C_24
    4  A    between atoms: C_8  and  C_9
    5  A    between atoms: O_16  and  C_23
    6  A    between atoms: O_16  and  C_24
                            x       y       z     vdW  Elec       q    Type
                         _______ _______ _______ _____ _____    ______ ____

>  <TORSDO>
F 6

$$$$
=
 OpenBabel10232411423D

 27 32  0  0  1  0  0  0  0  0999 V2000
  186.9900  179.0200  147.1500 O   0  0  0  0  0  0  0  0  0  0  0  0
  187.6460  176.9260  148.3430 C   0  0  0  0  0  2  0  0  0  0  0  0
  188.6560  178.0330  148.5960 C   0  0  0  0  0  2  0  0  0  0  0  0
  187.9160  177.9730  147.2770 C   0  0  0  0  0  0  0  0  0  0  0  0
  189.5170  177.1970  141.4010 C   0  0  0  0  0  3  0  0  0  0  0  0
  188.8080  177.6520  146.1150 C   0  0  0  0  0  0  0  0  0  0  0  0
  190.5220  177.1530  143.9870 C   0  0  0  0  0  0  0  0  0  0  0  0
  190.8720  176.9210  141.6110 C   0  0  0  0  0  3  0  0  0  0  0  0
  191.3760  176.8990  142.9130 C   0  0  0  0  0  3  0  0  0  0  0  0
  188.6950  177.4420  142.4580 N   0  0  0  0  0  0  0  0  0  0  0  0
  190.9900  177.1420  145.2630 N   0  0  0  0  0  0  0  0  0  0  0  0
  188.3080  177.6810  144.8080 C   0  0  0  0  0  3  0  0  0  0  0  0
  189.1620  177.4250  143.7350 C   0  0  0  0  0  0  0  0  0  0  0  0
  190.1700  177.3880  146.3200 C   0  0  0  0  0  3  0  0  0  0  0  0
  184.8180  178.3710  147.4710 O   0  0  0  0  0  1  0  0  0  0  0  0
  185.8470  178.4840  146.5350 C   0  0  1  0  0  3  0  0  0  0  0  0
  185.4060  179.3470  145.3540 C   0  0  0  0  0  2  0  0  0  0  0  0
  185.2280  178.6530  142.9280 C   0  0  0  0  0  2  0  0  0  0  0  0
  183.7460  178.5060  140.6710 C   0  0  2  0  0  3  0  0  0  0  0  0
  183.1100  179.0660  144.3600 C   0  0  0  0  0  2  0  0  0  0  0  0
  184.2190  178.0130  142.0030 C   0  0  2  0  0  3  0  0  0  0  0  0
  184.5860  178.5680  144.3360 C   0  0  2  0  0  3  0  0  0  0  0  0
  183.2190  179.1720  141.9290 C   0  0  2  0  0  3  0  0  0  0  0  0
  182.3370  178.7040  143.0690 C   0  0  0  0  0  2  0  0  0  0  0  0
  181.6400  178.3630  139.3910 C   0  0  0  0  0  2  0  0  0  0  0  0
  182.7030  177.5590  140.1110 C   0  0  0  0  0  3  0  0  0  0  0  0
  182.7130  177.6490  138.5980 C   0  0  0  0  0  2  0  0  0  0  0  0
  1  4  1  0  0  0  0
  2  3  1  0  0  0  0
  4  2  1  0  0  0  0
  4  3  1  0  0  0  0
  5  8  2  0  0  0  0
  5 10  1  0  0  0  0
  6 14  1  0  0  0  0
  6  4  1  0  0  0  0
  7 11  1  0  0  0  0
  8  9  1  0  0  0  0
  9  7  2  0  0  0  0
 10 13  2  0  0  0  0
 11 14  2  0  0  0  0
 12  6  2  0  0  0  0
 13  7  1  0  0  0  0
 13 12  1  0  0  0  0
 16  1  1  0  0  0  0
 16 15  1  1  0  0  0
 17 16  1  0  0  0  0
 18 22  1  0  0  0  0
 19 26  1  1  0  0  0
 19 23  1  0  0  0  0
 19 21  1  0  0  0  0
 21 18  1  6  0  0  0
 22 20  1  0  0  0  0
 22 17  1  1  0  0  0
 23 21  1  0  0  0  0
 23 24  1  1  0  0  0
 24 20  1  0  0  0  0
 25 26  1  0  0  0  0
 27 25  1  0  0  0  0
 27 26  1  0  0  0  0
M  END
>  <MODEL>
9

>  <REMARK>
 VINA RESULT:      -7.4      2.316      5.703
  Name = 
  6 active torsions:
  status: ('A' for Active; 'I' for Inactive)
    1  A    between atoms: C_2  and  C_14
    2  A    between atoms: C_2  and  C_23
    3  A    between atoms: C_3  and  C_24
    4  A    between atoms: C_8  and  C_9
    5  A    between atoms: O_16  and  C_23
    6  A    between atoms: O_16  and  C_24
                            x       y       z     vdW  Elec       q    Type
                         _______ _______ _______ _____ _____    ______ ____

>  <TORSDO>
F 6

$$$$
