=
 OpenBabel10232411463D

 27 30  0  0  1  0  0  0  0  0999 V2000
  189.3270  176.9450  139.5190 C   0  0  0  0  0  3  0  0  0  0  0  0
  191.4170  177.3190  140.3670 C   0  0  0  0  0  0  0  0  0  0  0  0
  190.5320  177.6350  141.3670 C   0  0  0  0  0  0  0  0  0  0  0  0
  189.2560  177.3960  140.8430 C   0  0  2  0  0  3  0  0  0  0  0  0
  190.6730  176.9050  139.2230 C   0  0  0  0  0  0  0  0  0  0  0  0
  191.3540  176.5160  138.0840 C   0  0  0  0  0  3  0  0  0  0  0  0
  192.7200  176.5520  138.1170 N   0  0  0  0  0  0  0  0  0  0  0  0
  193.4180  176.9480  139.2300 C   0  0  0  0  0  3  0  0  0  0  0  0
  192.7700  177.3320  140.3710 N   0  0  0  0  0  0  0  0  0  0  0  0
  190.8760  178.0230  142.7720 C   0  0  1  0  0  3  0  0  0  0  0  0
  190.1440  177.1200  143.7510 C   0  0  1  0  0  3  0  0  0  0  0  0
  191.6130  176.8950  143.4740 C   0  0  0  0  0  2  0  0  0  0  0  0
  189.9830  177.8560  145.0630 C   0  0  0  0  0  2  0  0  0  0  0  0
  189.1140  177.0350  145.9980 C   0  0  0  0  0  2  0  0  0  0  0  0
  185.9590  178.7030  147.3250 C   0  0  0  0  0  3  0  0  0  0  0  0
  185.6420  178.1480  144.9920 C   0  0  0  0  0  3  0  0  0  0  0  0
  186.9330  177.6170  144.9430 C   0  0  0  0  0  3  0  0  0  0  0  0
  187.2530  178.1730  147.2840 C   0  0  0  0  0  0  0  0  0  0  0  0
  187.7470  177.6290  146.0810 C   0  0  0  0  0  0  0  0  0  0  0  0
  188.0810  178.2030  148.5240 C   0  0  0  0  0  1  0  0  0  0  0  0
  185.1550  178.6920  146.1830 C   0  0  0  0  0  3  0  0  0  0  0  0
  187.9750  177.5270  141.6020 C   0  0  0  0  0  2  0  0  0  0  0  0
  187.3120  178.8640  141.3190 C   0  0  0  0  0  2  0  0  0  0  0  0
  186.3710  178.7320  140.2200 N   0  0  0  0  0  2  0  0  0  0  0  0
  185.2300  179.4590  140.5770 N   0  0  0  0  0  2  0  0  0  0  0  0
  184.2650  178.8800  141.4100 C   0  0  0  0  0  0  0  0  0  0  0  0
  183.4680  178.4020  142.0980 N   0  0  0  0  0  0  0  0  0  0  0  0
  1  4  1  0  0  0  0
  2  9  1  0  0  0  0
  2  3  2  0  0  0  0
  4  3  1  0  0  0  0
  4 22  1  1  0  0  0
  5  1  2  0  0  0  0
  5  2  1  0  0  0  0
  6  7  2  0  0  0  0
  6  5  1  0  0  0  0
  7  8  1  0  0  0  0
  8  9  2  0  0  0  0
 10  3  1  6  0  0  0
 10 12  1  0  0  0  0
 10 11  1  0  0  0  0
 11 13  1  1  0  0  0
 12 11  1  0  0  0  0
 13 14  1  0  0  0  0
 14 19  1  0  0  0  0
 16 21  1  0  0  0  0
 17 16  2  0  0  0  0
 17 19  1  0  0  0  0
 18 15  1  0  0  0  0
 18 20  1  0  0  0  0
 19 18  2  0  0  0  0
 21 15  2  0  0  0  0
 23 22  1  0  0  0  0
 24 25  1  0  0  0  0
 24 23  1  0  0  0  0
 25 26  1  0  0  0  0
 26 27  3  0  0  0  0
M  END
>  <MODEL>
1

>  <REMARK>
 VINA RESULT:      -8.2      0.000      0.000
  Name = 
  9 active torsions:
  status: ('A' for Active; 'I' for Inactive)
    1  A    between atoms: C_1  and  N_10
    2  A    between atoms: C_5  and  C_12
    3  A    between atoms: C_5  and  C_19
    4  A    between atoms: C_6  and  N_14
    5  A    between atoms: C_6  and  C_26
    6  A    between atoms: C_8  and  C_15
    7  A    between atoms: N_10  and  N_14
    8  A    between atoms: C_11  and  C_26
    9  A    between atoms: C_12  and  C_20
                            x       y       z     vdW  Elec       q    Type
                         _______ _______ _______ _____ _____    ______ ____

>  <TORSDO>
F 9

$$$$
=
 OpenBabel10232411463D

 27 30  0  0  1  0  0  0  0  0999 V2000
  190.1250  176.9460  145.3350 C   0  0  0  0  0  3  0  0  0  0  0  0
  188.1720  177.5590  146.3510 C   0  0  0  0  0  0  0  0  0  0  0  0
  187.8490  177.2310  145.0580 C   0  0  0  0  0  0  0  0  0  0  0  0
  189.0480  176.8510  144.4450 C   0  0  0  0  0  0  0  0  0  0  0  0
  189.5780  177.3930  146.5180 C   0  0  1  0  0  3  0  0  0  0  0  0
  190.1420  177.6480  147.7550 C   0  0  0  0  0  3  0  0  0  0  0  0
  189.3100  178.0500  148.7620 N   0  0  0  0  0  0  0  0  0  0  0  0
  187.9570  178.1970  148.5830 C   0  0  0  0  0  3  0  0  0  0  0  0
  187.3730  177.9470  147.3720 N   0  0  0  0  0  0  0  0  0  0  0  0
  186.4710  177.1670  144.4720 C   0  0  1  0  0  3  0  0  0  0  0  0
  185.8060  178.5300  144.5710 C   0  0  1  0  0  3  0  0  0  0  0  0
  186.3680  178.0600  143.2490 C   0  0  0  0  0  2  0  0  0  0  0  0
  184.3050  178.3370  144.5800 C   0  0  0  0  0  2  0  0  0  0  0  0
  183.6470  179.4660  143.8100 C   0  0  0  0  0  2  0  0  0  0  0  0
  181.1340  178.2240  141.2320 C   0  0  0  0  0  3  0  0  0  0  0  0
  180.0280  178.4580  143.3710 C   0  0  0  0  0  3  0  0  0  0  0  0
  181.2260  178.8880  143.9450 C   0  0  0  0  0  3  0  0  0  0  0  0
  182.3380  178.6540  141.7990 C   0  0  0  0  0  0  0  0  0  0  0  0
  182.3870  178.9850  143.1690 C   0  0  0  0  0  0  0  0  0  0  0  0
  183.5480  178.7470  140.9320 C   0  0  0  0  0  1  0  0  0  0  0  0
  179.9820  178.1250  142.0150 C   0  0  0  0  0  3  0  0  0  0  0  0
  189.1750  176.3350  143.0480 C   0  0  0  0  0  2  0  0  0  0  0  0
  190.5900  176.5250  142.5270 C   0  0  0  0  0  2  0  0  0  0  0  0
  190.5800  177.3820  141.3540 N   0  0  0  0  0  2  0  0  0  0  0  0
  189.3290  177.2200  140.7480 N   0  0  0  0  0  2  0  0  0  0  0  0
  188.9190  178.1040  139.7440 C   0  0  0  0  0  0  0  0  0  0  0  0
  188.5800  178.8360  138.9140 N   0  0  0  0  0  0  0  0  0  0  0  0
  2  5  1  0  0  0  0
  2  9  1  0  0  0  0
  3  2  2  0  0  0  0
  4  3  1  0  0  0  0
  4  1  2  0  0  0  0
  5  1  1  1  0  0  0
  5  6  1  0  0  0  0
  6  7  2  0  0  0  0
  8  7  1  0  0  0  0
  9  8  2  0  0  0  0
 10 11  1  0  0  0  0
 10  3  1  1  0  0  0
 11 13  1  6  0  0  0
 12 10  1  0  0  0  0
 12 11  1  0  0  0  0
 14 13  1  0  0  0  0
 15 18  2  0  0  0  0
 15 21  1  0  0  0  0
 16 17  1  0  0  0  0
 18 19  1  0  0  0  0
 19 14  1  0  0  0  0
 19 17  2  0  0  0  0
 20 18  1  0  0  0  0
 21 16  2  0  0  0  0
 22  4  1  0  0  0  0
 23 22  1  0  0  0  0
 24 23  1  0  0  0  0
 25 24  1  0  0  0  0
 26 25  1  0  0  0  0
 27 26  3  0  0  0  0
M  END
>  <MODEL>
2

>  <REMARK>
 VINA RESULT:      -8.0      3.053      6.696
  Name = 
  9 active torsions:
  status: ('A' for Active; 'I' for Inactive)
    1  A    between atoms: C_1  and  N_10
    2  A    between atoms: C_5  and  C_12
    3  A    between atoms: C_5  and  C_19
    4  A    between atoms: C_6  and  N_14
    5  A    between atoms: C_6  and  C_26
    6  A    between atoms: C_8  and  C_15
    7  A    between atoms: N_10  and  N_14
    8  A    between atoms: C_11  and  C_26
    9  A    between atoms: C_12  and  C_20
                            x       y       z     vdW  Elec       q    Type
                         _______ _______ _______ _____ _____    ______ ____

>  <TORSDO>
F 9

$$$$
=
 OpenBabel10232411463D

 27 30  0  0  1  0  0  0  0  0999 V2000
  184.6670  179.0920  139.7660 C   0  0  0  0  0  3  0  0  0  0  0  0
  182.8640  178.8280  141.1460 C   0  0  0  0  0  0  0  0  0  0  0  0
  183.9760  178.5870  141.9130 C   0  0  0  0  0  0  0  0  0  0  0  0
  185.0760  178.7570  141.0630 C   0  0  2  0  0  3  0  0  0  0  0  0
  183.2910  179.1280  139.8190 C   0  0  0  0  0  0  0  0  0  0  0  0
  182.3400  179.4270  138.8600 C   0  0  0  0  0  3  0  0  0  0  0  0
  181.0270  179.4170  139.2410 N   0  0  0  0  0  0  0  0  0  0  0  0
  180.6370  179.1320  140.5260 C   0  0  0  0  0  3  0  0  0  0  0  0
  181.5570  178.8380  141.4940 N   0  0  0  0  0  0  0  0  0  0  0  0
  184.0020  178.3290  143.3880 C   0  0  1  0  0  3  0  0  0  0  0  0
  184.8580  179.3770  144.0800 C   0  0  1  0  0  3  0  0  0  0  0  0
  183.3510  179.4740  144.1430 C   0  0  0  0  0  2  0  0  0  0  0  0
  185.3840  178.7970  145.3750 C   0  0  0  0  0  2  0  0  0  0  0  0
  186.4120  177.7260  145.0670 C   0  0  0  0  0  2  0  0  0  0  0  0
  189.7640  177.3400  146.8320 C   0  0  0  0  0  3  0  0  0  0  0  0
  188.0930  178.0280  148.4410 C   0  0  0  0  0  3  0  0  0  0  0  0
  187.1280  178.0450  147.4320 C   0  0  0  0  0  3  0  0  0  0  0  0
  188.8030  177.3550  145.8160 C   0  0  0  0  0  0  0  0  0  0  0  0
  187.4730  177.7150  146.1170 C   0  0  0  0  0  0  0  0  0  0  0  0
  189.2170  176.9900  144.4300 C   0  0  0  0  0  1  0  0  0  0  0  0
  189.4110  177.6760  148.1410 C   0  0  0  0  0  3  0  0  0  0  0  0
  186.5080  178.6720  141.4810 C   0  0  0  0  0  2  0  0  0  0  0  0
  187.3820  178.2090  140.3290 C   0  0  0  0  0  2  0  0  0  0  0  0
  188.7780  178.2030  140.7310 N   0  0  0  0  0  2  0  0  0  0  0  0
  189.5330  178.0380  139.5650 N   0  0  0  0  0  2  0  0  0  0  0  0
  189.2210  178.7800  138.4190 C   0  0  0  0  0  0  0  0  0  0  0  0
  188.9630  179.3930  137.4730 N   0  0  0  0  0  0  0  0  0  0  0  0
  1  5  2  0  0  0  0
  1  4  1  0  0  0  0
  2  9  1  0  0  0  0
  2  3  2  0  0  0  0
  4 22  1  1  0  0  0
  4  3  1  0  0  0  0
  5  2  1  0  0  0  0
  6  7  2  0  0  0  0
  6  5  1  0  0  0  0
  7  8  1  0  0  0  0
  8  9  2  0  0  0  0
 10  3  1  6  0  0  0
 10 11  1  0  0  0  0
 10 12  1  0  0  0  0
 11 12  1  0  0  0  0
 11 13  1  1  0  0  0
 14 13  1  0  0  0  0
 14 19  1  0  0  0  0
 15 21  1  0  0  0  0
 17 16  1  0  0  0  0
 18 19  1  0  0  0  0
 18 15  2  0  0  0  0
 19 17  2  0  0  0  0
 20 18  1  0  0  0  0
 21 16  2  0  0  0  0
 23 24  1  0  0  0  0
 23 22  1  0  0  0  0
 25 24  1  0  0  0  0
 26 25  1  0  0  0  0
 27 26  3  0  0  0  0
M  END
>  <MODEL>
3

>  <REMARK>
 VINA RESULT:      -8.0      2.304      6.543
  Name = 
  9 active torsions:
  status: ('A' for Active; 'I' for Inactive)
    1  A    between atoms: C_1  and  N_10
    2  A    between atoms: C_5  and  C_12
    3  A    between atoms: C_5  and  C_19
    4  A    between atoms: C_6  and  N_14
    5  A    between atoms: C_6  and  C_26
    6  A    between atoms: C_8  and  C_15
    7  A    between atoms: N_10  and  N_14
    8  A    between atoms: C_11  and  C_26
    9  A    between atoms: C_12  and  C_20
                            x       y       z     vdW  Elec       q    Type
                         _______ _______ _______ _____ _____    ______ ____

>  <TORSDO>
F 9

$$$$
=
 OpenBabel10232411463D

 27 30  0  0  1  0  0  0  0  0999 V2000
  185.2940  178.3060  146.3070 C   0  0  0  0  0  3  0  0  0  0  0  0
  185.4140  178.0820  144.0350 C   0  0  0  0  0  0  0  0  0  0  0  0
  186.5670  177.5340  144.5390 C   0  0  0  0  0  0  0  0  0  0  0  0
  186.4820  177.6690  145.9300 C   0  0  2  0  0  3  0  0  0  0  0  0
  184.6340  178.5680  145.1260 C   0  0  0  0  0  0  0  0  0  0  0  0
  183.4070  179.1520  144.8660 C   0  0  0  0  0  3  0  0  0  0  0  0
  183.0050  179.2340  143.5620 N   0  0  0  0  0  0  0  0  0  0  0  0
  183.7680  178.7540  142.5270 C   0  0  0  0  0  3  0  0  0  0  0  0
  184.9820  178.1680  142.7560 N   0  0  0  0  0  0  0  0  0  0  0  0
  187.6280  176.8200  143.7610 C   0  0  1  0  0  3  0  0  0  0  0  0
  188.4470  177.8230  142.9650 C   0  0  1  0  0  3  0  0  0  0  0  0
  189.0100  177.2320  144.2370 C   0  0  0  0  0  2  0  0  0  0  0  0
  189.0480  177.1170  141.7680 C   0  0  0  0  0  2  0  0  0  0  0  0
  188.6670  177.8590  140.5010 C   0  0  0  0  0  2  0  0  0  0  0  0
  189.9170  177.0870  136.9880 C   0  0  0  0  0  3  0  0  0  0  0  0
  191.5660  176.3500  138.5980 C   0  0  0  0  0  3  0  0  0  0  0  0
  190.7530  176.8020  139.6390 C   0  0  0  0  0  3  0  0  0  0  0  0
  189.0970  177.5430  138.0250 C   0  0  0  0  0  0  0  0  0  0  0  0
  189.5200  177.4040  139.3630 C   0  0  0  0  0  0  0  0  0  0  0  0
  187.7890  178.1720  137.6830 C   0  0  0  0  0  1  0  0  0  0  0  0
  191.1490  176.4920  137.2730 C   0  0  0  0  0  3  0  0  0  0  0  0
  187.4820  177.1420  146.9080 C   0  0  0  0  0  2  0  0  0  0  0  0
  187.8970  178.2210  147.8940 C   0  0  0  0  0  2  0  0  0  0  0  0
  189.3150  178.1100  148.1900 N   0  0  0  0  0  2  0  0  0  0  0  0
  189.7580  176.9230  147.5960 N   0  0  0  0  0  2  0  0  0  0  0  0
  191.1300  176.6720  147.4740 C   0  0  0  0  0  0  0  0  0  0  0  0
  192.2630  176.4640  147.3730 N   0  0  0  0  0  0  0  0  0  0  0  0
  2  3  2  0  0  0  0
  2  5  1  0  0  0  0
  3  4  1  0  0  0  0
  4  1  1  0  0  0  0
  4 22  1  1  0  0  0
  5  1  2  0  0  0  0
  6  5  1  0  0  0  0
  7  6  2  0  0  0  0
  8  9  2  0  0  0  0
  8  7  1  0  0  0  0
  9  2  1  0  0  0  0
 10 12  1  0  0  0  0
 10  3  1  1  0  0  0
 11 13  1  6  0  0  0
 11 10  1  0  0  0  0
 11 12  1  0  0  0  0
 14 13  1  0  0  0  0
 15 21  2  0  0  0  0
 15 18  1  0  0  0  0
 16 17  2  0  0  0  0
 18 19  2  0  0  0  0
 19 17  1  0  0  0  0
 19 14  1  0  0  0  0
 20 18  1  0  0  0  0
 21 16  1  0  0  0  0
 22 23  1  0  0  0  0
 23 24  1  0  0  0  0
 25 24  1  0  0  0  0
 26 25  1  0  0  0  0
 27 26  3  0  0  0  0
M  END
>  <MODEL>
4

>  <REMARK>
 VINA RESULT:      -7.9      2.917      8.119
  Name = 
  9 active torsions:
  status: ('A' for Active; 'I' for Inactive)
    1  A    between atoms: C_1  and  N_10
    2  A    between atoms: C_5  and  C_12
    3  A    between atoms: C_5  and  C_19
    4  A    between atoms: C_6  and  N_14
    5  A    between atoms: C_6  and  C_26
    6  A    between atoms: C_8  and  C_15
    7  A    between atoms: N_10  and  N_14
    8  A    between atoms: C_11  and  C_26
    9  A    between atoms: C_12  and  C_20
                            x       y       z     vdW  Elec       q    Type
                         _______ _______ _______ _____ _____    ______ ____

>  <TORSDO>
F 9

$$$$
=
 OpenBabel10232411463D

 27 30  0  0  1  0  0  0  0  0999 V2000
  190.3760  176.5040  143.8890 C   0  0  0  0  0  3  0  0  0  0  0  0
  189.9150  177.2700  145.9930 C   0  0  0  0  0  0  0  0  0  0  0  0
  188.8730  177.6750  145.1970 C   0  0  0  0  0  0  0  0  0  0  0  0
  189.1580  177.1960  143.9130 C   0  0  0  0  0  0  0  0  0  0  0  0
  190.8470  176.5580  145.1820 C   0  0  1  0  0  3  0  0  0  0  0  0
  191.9830  176.0310  145.7710 C   0  0  0  0  0  3  0  0  0  0  0  0
  192.1520  176.2260  147.1140 N   0  0  0  0  0  0  0  0  0  0  0  0
  191.2390  176.9090  147.8780 C   0  0  0  0  0  3  0  0  0  0  0  0
  190.1060  177.4360  147.3220 N   0  0  0  0  0  0  0  0  0  0  0  0
  187.6240  178.3690  145.6490 C   0  0  1  0  0  3  0  0  0  0  0  0
  186.4410  177.4210  145.5440 C   0  0  1  0  0  3  0  0  0  0  0  0
  187.0620  177.7030  146.8920 C   0  0  0  0  0  2  0  0  0  0  0  0
  185.1770  178.2380  145.3870 C   0  0  0  0  0  2  0  0  0  0  0  0
  185.1330  178.8360  143.9940 C   0  0  0  0  0  2  0  0  0  0  0  0
  182.1770  178.6330  141.6010 C   0  0  0  0  0  3  0  0  0  0  0  0
  181.3530  178.8170  143.8680 C   0  0  0  0  0  3  0  0  0  0  0  0
  182.6650  178.8530  144.3430 C   0  0  0  0  0  3  0  0  0  0  0  0
  183.4950  178.6690  142.0690 C   0  0  0  0  0  0  0  0  0  0  0  0
  183.7420  178.7750  143.4530 C   0  0  0  0  0  0  0  0  0  0  0  0
  184.6110  178.5880  141.0820 C   0  0  0  0  0  1  0  0  0  0  0  0
  181.1090  178.7060  142.4970 C   0  0  0  0  0  3  0  0  0  0  0  0
  188.2610  177.3290  142.7250 C   0  0  0  0  0  2  0  0  0  0  0  0
  189.0650  177.3400  141.4370 C   0  0  0  0  0  2  0  0  0  0  0  0
  188.3160  178.0070  140.3850 N   0  0  0  0  0  2  0  0  0  0  0  0
  189.0130  177.7860  139.1930 N   0  0  0  0  0  2  0  0  0  0  0  0
  188.9830  178.7490  138.1770 C   0  0  0  0  0  0  0  0  0  0  0  0
  188.9580  179.5450  137.3380 N   0  0  0  0  0  0  0  0  0  0  0  0
  1  4  2  0  0  0  0
  2  9  1  0  0  0  0
  3  2  2  0  0  0  0
  4  3  1  0  0  0  0
  5  1  1  1  0  0  0
  5  6  1  0  0  0  0
  5  2  1  0  0  0  0
  6  7  2  0  0  0  0
  7  8  1  0  0  0  0
  9  8  2  0  0  0  0
 10  3  1  6  0  0  0
 10 12  1  0  0  0  0
 11 13  1  1  0  0  0
 11 10  1  0  0  0  0
 11 12  1  0  0  0  0
 14 13  1  0  0  0  0
 15 18  2  0  0  0  0
 15 21  1  0  0  0  0
 16 17  1  0  0  0  0
 18 19  1  0  0  0  0
 19 14  1  0  0  0  0
 19 17  2  0  0  0  0
 20 18  1  0  0  0  0
 21 16  2  0  0  0  0
 22  4  1  0  0  0  0
 23 22  1  0  0  0  0
 24 23  1  0  0  0  0
 25 24  1  0  0  0  0
 26 25  1  0  0  0  0
 27 26  3  0  0  0  0
M  END
>  <MODEL>
5

>  <REMARK>
 VINA RESULT:      -7.9      2.774      5.696
  Name = 
  9 active torsions:
  status: ('A' for Active; 'I' for Inactive)
    1  A    between atoms: C_1  and  N_10
    2  A    between atoms: C_5  and  C_12
    3  A    between atoms: C_5  and  C_19
    4  A    between atoms: C_6  and  N_14
    5  A    between atoms: C_6  and  C_26
    6  A    between atoms: C_8  and  C_15
    7  A    between atoms: N_10  and  N_14
    8  A    between atoms: C_11  and  C_26
    9  A    between atoms: C_12  and  C_20
                            x       y       z     vdW  Elec       q    Type
                         _______ _______ _______ _____ _____    ______ ____

>  <TORSDO>
F 9

$$$$
=
 OpenBabel10232411463D

 27 30  0  0  1  0  0  0  0  0999 V2000
  187.8890  177.6570  146.5710 C   0  0  0  0  0  3  0  0  0  0  0  0
  189.4820  176.9580  145.0880 C   0  0  0  0  0  0  0  0  0  0  0  0
  188.3290  177.1290  144.3640 C   0  0  0  0  0  0  0  0  0  0  0  0
  187.3600  177.5630  145.2770 C   0  0  0  0  0  0  0  0  0  0  0  0
  189.2070  177.2730  146.4510 C   0  0  0  0  0  0  0  0  0  0  0  0
  190.2300  177.1930  147.3790 C   0  0  0  0  0  3  0  0  0  0  0  0
  191.4640  176.8100  146.9320 N   0  0  0  0  0  0  0  0  0  0  0  0
  191.7100  176.5160  145.6140 C   0  0  0  0  0  3  0  0  0  0  0  0
  190.7180  176.5930  144.6760 N   0  0  0  0  0  2  0  0  0  0  0  0
  188.1820  177.0030  142.8790 C   0  0  1  0  0  3  0  0  0  0  0  0
  188.4370  178.3490  142.2200 C   0  0  1  0  0  3  0  0  0  0  0  0
  189.5050  177.2800  142.1860 C   0  0  0  0  0  2  0  0  0  0  0  0
  187.7120  178.3850  140.8920 C   0  0  0  0  0  2  0  0  0  0  0  0
  188.7260  178.4550  139.7660 C   0  0  0  0  0  2  0  0  0  0  0  0
  188.6710  175.7960  137.0400 C   0  0  0  0  0  3  0  0  0  0  0  0
  186.6110  177.0630  136.9560 C   0  0  0  0  0  3  0  0  0  0  0  0
  187.0430  177.8380  138.0350 C   0  0  0  0  0  3  0  0  0  0  0  0
  189.1110  176.5680  138.1210 C   0  0  0  0  0  0  0  0  0  0  0  0
  188.2880  177.5950  138.6260 C   0  0  0  0  0  0  0  0  0  0  0  0
  190.4470  176.2760  138.7150 C   0  0  0  0  0  1  0  0  0  0  0  0
  187.4250  176.0420  136.4590 C   0  0  0  0  0  3  0  0  0  0  0  0
  185.9610  177.9540  144.9270 C   0  0  0  0  0  2  0  0  0  0  0  0
  185.2520  178.5620  146.1250 C   0  0  0  0  0  2  0  0  0  0  0  0
  183.9070  178.9680  145.7570 N   0  0  0  0  0  2  0  0  0  0  0  0
  183.7910  178.7750  144.3760 N   0  0  0  0  0  2  0  0  0  0  0  0
  182.5700  179.0150  143.7360 C   0  0  0  0  0  0  0  0  0  0  0  0
  181.5610  179.2140  143.2070 N   0  0  0  0  0  0  0  0  0  0  0  0
  2  5  1  0  0  0  0
  3  2  2  0  0  0  0
  3  4  1  0  0  0  0
  4  1  2  0  0  0  0
  5  1  1  0  0  0  0
  5  6  2  0  0  0  0
  7  6  1  0  0  0  0
  8  7  2  0  0  0  0
  9  2  1  0  0  0  0
  9  8  1  0  0  0  0
 10  3  1  1  0  0  0
 11 13  1  6  0  0  0
 11 10  1  0  0  0  0
 12 11  1  0  0  0  0
 12 10  1  0  0  0  0
 14 13  1  0  0  0  0
 15 18  1  0  0  0  0
 16 17  2  0  0  0  0
 17 19  1  0  0  0  0
 18 19  2  0  0  0  0
 18 20  1  0  0  0  0
 19 14  1  0  0  0  0
 21 16  1  0  0  0  0
 21 15  2  0  0  0  0
 22  4  1  0  0  0  0
 22 23  1  0  0  0  0
 24 23  1  0  0  0  0
 25 24  1  0  0  0  0
 26 25  1  0  0  0  0
 27 26  3  0  0  0  0
M  END
>  <MODEL>
6

>  <REMARK>
 VINA RESULT:      -7.9      2.517      6.652
  Name = 
  9 active torsions:
  status: ('A' for Active; 'I' for Inactive)
    1  A    between atoms: C_1  and  N_10
    2  A    between atoms: C_5  and  C_12
    3  A    between atoms: C_5  and  C_19
    4  A    between atoms: C_6  and  N_14
    5  A    between atoms: C_6  and  C_26
    6  A    between atoms: C_8  and  C_15
    7  A    between atoms: N_10  and  N_14
    8  A    between atoms: C_11  and  C_26
    9  A    between atoms: C_12  and  C_20
                            x       y       z     vdW  Elec       q    Type
                         _______ _______ _______ _____ _____    ______ ____

>  <TORSDO>
F 9

$$$$
=
 OpenBabel10232411463D

 27 30  0  0  1  0  0  0  0  0999 V2000
  189.6190  177.2500  138.6030 C   0  0  0  0  0  3  0  0  0  0  0  0
  188.6090  177.9070  140.5460 C   0  0  0  0  0  0  0  0  0  0  0  0
  189.8770  177.5060  140.8850 C   0  0  0  0  0  0  0  0  0  0  0  0
  190.4910  177.1120  139.6900 C   0  0  2  0  0  3  0  0  0  0  0  0
  188.4470  177.7380  139.1390 C   0  0  0  0  0  0  0  0  0  0  0  0
  187.2450  178.0960  138.5540 C   0  0  0  0  0  3  0  0  0  0  0  0
  186.2670  178.5980  139.3670 N   0  0  0  0  0  0  0  0  0  0  0  0
  186.4460  178.7580  140.7190 C   0  0  0  0  0  3  0  0  0  0  0  0
  187.6250  178.4170  141.3210 N   0  0  0  0  0  0  0  0  0  0  0  0
  190.5100  177.6020  142.2400 C   0  0  1  0  0  3  0  0  0  0  0  0
  189.5750  177.0220  143.2880 C   0  0  1  0  0  3  0  0  0  0  0  0
  190.7630  176.2190  142.8110 C   0  0  0  0  0  2  0  0  0  0  0  0
  189.8930  177.6540  144.6250 C   0  0  0  0  0  2  0  0  0  0  0  0
  189.1150  176.9430  145.7160 C   0  0  0  0  0  2  0  0  0  0  0  0
  186.1320  178.6960  147.3050 C   0  0  0  0  0  3  0  0  0  0  0  0
  185.6500  178.2660  144.9730 C   0  0  0  0  0  3  0  0  0  0  0  0
  186.9070  177.6770  144.8230 C   0  0  0  0  0  3  0  0  0  0  0  0
  187.3920  178.1080  147.1620 C   0  0  0  0  0  0  0  0  0  0  0  0
  187.7860  177.5970  145.9090 C   0  0  0  0  0  0  0  0  0  0  0  0
  188.2930  178.0400  148.3490 C   0  0  0  0  0  1  0  0  0  0  0  0
  185.2630  178.7760  146.2150 C   0  0  0  0  0  3  0  0  0  0  0  0
  191.9120  176.6710  139.5570 C   0  0  0  0  0  2  0  0  0  0  0  0
  192.3040  176.5380  138.0950 C   0  0  0  0  0  2  0  0  0  0  0  0
  192.9370  175.2510  137.8620 N   0  0  0  0  0  2  0  0  0  0  0  0
  194.2960  175.4130  138.1490 N   0  0  0  0  0  2  0  0  0  0  0  0
  195.0670  174.3090  138.5300 C   0  0  0  0  0  0  0  0  0  0  0  0
  195.7050  173.3960  138.8450 N   0  0  0  0  0  0  0  0  0  0  0  0
  1  5  2  0  0  0  0
  1  4  1  0  0  0  0
  2  3  2  0  0  0  0
  2  9  1  0  0  0  0
  4 22  1  6  0  0  0
  4  3  1  0  0  0  0
  5  2  1  0  0  0  0
  6  5  1  0  0  0  0
  6  7  2  0  0  0  0
  7  8  1  0  0  0  0
  8  9  2  0  0  0  0
 10  3  1  6  0  0  0
 10 12  1  0  0  0  0
 10 11  1  0  0  0  0
 11 13  1  1  0  0  0
 12 11  1  0  0  0  0
 13 14  1  0  0  0  0
 14 19  1  0  0  0  0
 16 21  1  0  0  0  0
 17 16  2  0  0  0  0
 17 19  1  0  0  0  0
 18 15  1  0  0  0  0
 18 20  1  0  0  0  0
 19 18  2  0  0  0  0
 21 15  2  0  0  0  0
 23 22  1  0  0  0  0
 24 23  1  0  0  0  0
 24 25  1  0  0  0  0
 25 26  1  0  0  0  0
 26 27  3  0  0  0  0
M  END
>  <MODEL>
7

>  <REMARK>
 VINA RESULT:      -7.9      1.441      5.197
  Name = 
  9 active torsions:
  status: ('A' for Active; 'I' for Inactive)
    1  A    between atoms: C_1  and  N_10
    2  A    between atoms: C_5  and  C_12
    3  A    between atoms: C_5  and  C_19
    4  A    between atoms: C_6  and  N_14
    5  A    between atoms: C_6  and  C_26
    6  A    between atoms: C_8  and  C_15
    7  A    between atoms: N_10  and  N_14
    8  A    between atoms: C_11  and  C_26
    9  A    between atoms: C_12  and  C_20
                            x       y       z     vdW  Elec       q    Type
                         _______ _______ _______ _____ _____    ______ ____

>  <TORSDO>
F 9

$$$$
=
 OpenBabel10232411463D

 27 30  0  0  1  0  0  0  0  0999 V2000
  186.1910  178.4020  146.4810 C   0  0  0  0  0  3  0  0  0  0  0  0
  188.1950  177.4050  146.0170 C   0  0  0  0  0  0  0  0  0  0  0  0
  187.4280  177.2760  144.8860 C   0  0  0  0  0  0  0  0  0  0  0  0
  186.2060  177.8950  145.1760 C   0  0  0  0  0  0  0  0  0  0  0  0
  187.4270  178.0900  147.0040 C   0  0  0  0  0  0  0  0  0  0  0  0
  188.0000  178.3560  148.2350 C   0  0  0  0  0  3  0  0  0  0  0  0
  189.2860  177.9430  148.4400 N   0  0  0  0  0  0  0  0  0  0  0  0
  190.0110  177.2900  147.4740 C   0  0  0  0  0  3  0  0  0  0  0  0
  189.4710  177.0190  146.2480 N   0  0  0  0  0  2  0  0  0  0  0  0
  187.8670  176.7080  143.5720 C   0  0  1  0  0  3  0  0  0  0  0  0
  188.2620  177.8330  142.6300 C   0  0  1  0  0  3  0  0  0  0  0  0
  189.3320  177.0170  143.3180 C   0  0  0  0  0  2  0  0  0  0  0  0
  188.0970  177.3530  141.2040 C   0  0  0  0  0  2  0  0  0  0  0  0
  188.6340  178.4050  140.2530 C   0  0  0  0  0  2  0  0  0  0  0  0
  190.1000  177.2980  136.9170 C   0  0  0  0  0  3  0  0  0  0  0  0
  191.4170  176.3560  138.7160 C   0  0  0  0  0  3  0  0  0  0  0  0
  190.5870  176.9790  139.6500 C   0  0  0  0  0  3  0  0  0  0  0  0
  189.2640  177.9250  137.8470 C   0  0  0  0  0  0  0  0  0  0  0  0
  189.5120  177.7690  139.2260 C   0  0  0  0  0  0  0  0  0  0  0  0
  188.1280  178.7530  137.3480 C   0  0  0  0  0  1  0  0  0  0  0  0
  191.1740  176.5160  137.3490 C   0  0  0  0  0  3  0  0  0  0  0  0
  185.0790  178.0690  144.2090 C   0  0  0  0  0  2  0  0  0  0  0  0
  184.8500  179.5390  143.9030 C   0  0  0  0  0  2  0  0  0  0  0  0
  185.3730  179.8620  142.5860 N   0  0  0  0  0  2  0  0  0  0  0  0
  184.8510  178.9130  141.7020 N   0  0  0  0  0  2  0  0  0  0  0  0
  184.8540  179.1640  140.3250 C   0  0  0  0  0  0  0  0  0  0  0  0
  184.8570  179.3720  139.1860 N   0  0  0  0  0  0  0  0  0  0  0  0
  1  5  1  0  0  0  0
  2  9  1  0  0  0  0
  2  5  1  0  0  0  0
  3  4  1  0  0  0  0
  3  2  2  0  0  0  0
  4  1  2  0  0  0  0
  5  6  2  0  0  0  0
  6  7  1  0  0  0  0
  8  7  2  0  0  0  0
  9  8  1  0  0  0  0
 10  3  1  1  0  0  0
 11 13  1  6  0  0  0
 11 12  1  0  0  0  0
 11 10  1  0  0  0  0
 12 10  1  0  0  0  0
 14 13  1  0  0  0  0
 15 21  2  0  0  0  0
 15 18  1  0  0  0  0
 16 17  2  0  0  0  0
 18 19  2  0  0  0  0
 19 17  1  0  0  0  0
 19 14  1  0  0  0  0
 20 18  1  0  0  0  0
 21 16  1  0  0  0  0
 22  4  1  0  0  0  0
 23 22  1  0  0  0  0
 24 23  1  0  0  0  0
 25 24  1  0  0  0  0
 26 25  1  0  0  0  0
 27 26  3  0  0  0  0
M  END
>  <MODEL>
8

>  <REMARK>
 VINA RESULT:      -7.8      2.477      7.067
  Name = 
  9 active torsions:
  status: ('A' for Active; 'I' for Inactive)
    1  A    between atoms: C_1  and  N_10
    2  A    between atoms: C_5  and  C_12
    3  A    between atoms: C_5  and  C_19
    4  A    between atoms: C_6  and  N_14
    5  A    between atoms: C_6  and  C_26
    6  A    between atoms: C_8  and  C_15
    7  A    between atoms: N_10  and  N_14
    8  A    between atoms: C_11  and  C_26
    9  A    between atoms: C_12  and  C_20
                            x       y       z     vdW  Elec       q    Type
                         _______ _______ _______ _____ _____    ______ ____

>  <TORSDO>
F 9

$$$$
=
 OpenBabel10232411463D

 27 30  0  0  1  0  0  0  0  0999 V2000
  183.9270  178.4260  141.0540 C   0  0  0  0  0  3  0  0  0  0  0  0
  185.8460  178.5150  139.8160 C   0  0  0  0  0  0  0  0  0  0  0  0
  186.2100  178.7780  141.1130 C   0  0  0  0  0  0  0  0  0  0  0  0
  185.0320  178.7150  141.8650 C   0  0  2  0  0  3  0  0  0  0  0  0
  184.4360  178.3090  139.7790 C   0  0  0  0  0  0  0  0  0  0  0  0
  183.8330  178.0080  138.5710 C   0  0  0  0  0  3  0  0  0  0  0  0
  184.6320  177.9230  137.4650 N   0  0  0  0  0  0  0  0  0  0  0  0
  185.9900  178.1190  137.5230 C   0  0  0  0  0  3  0  0  0  0  0  0
  186.6110  178.4130  138.7040 N   0  0  0  0  0  0  0  0  0  0  0  0
  187.6060  178.9590  141.6270 C   0  0  1  0  0  3  0  0  0  0  0  0
  188.0850  177.6740  142.2820 C   0  0  1  0  0  3  0  0  0  0  0  0
  188.5690  178.0400  140.8970 C   0  0  0  0  0  2  0  0  0  0  0  0
  189.1520  178.0160  143.2980 C   0  0  0  0  0  2  0  0  0  0  0  0
  189.2990  176.8690  144.2800 C   0  0  0  0  0  2  0  0  0  0  0  0
  189.2090  177.6710  148.0020 C   0  0  0  0  0  3  0  0  0  0  0  0
  187.0140  178.0430  147.0560 C   0  0  0  0  0  3  0  0  0  0  0  0
  187.4900  177.6630  145.8000 C   0  0  0  0  0  3  0  0  0  0  0  0
  189.6940  177.2880  146.7470 C   0  0  0  0  0  0  0  0  0  0  0  0
  188.8280  177.2880  145.6340 C   0  0  0  0  0  0  0  0  0  0  0  0
  191.1260  176.8920  146.6200 C   0  0  0  0  0  1  0  0  0  0  0  0
  187.8740  178.0480  148.1570 C   0  0  0  0  0  3  0  0  0  0  0  0
  184.9500  178.8580  143.3500 C   0  0  0  0  0  2  0  0  0  0  0  0
  183.6890  179.6030  143.7540 C   0  0  0  0  0  2  0  0  0  0  0  0
  182.8960  178.7880  144.6590 N   0  0  0  0  0  2  0  0  0  0  0  0
  181.7190  178.4590  143.9780 N   0  0  0  0  0  2  0  0  0  0  0  0
  180.9730  179.4610  143.3460 C   0  0  0  0  0  0  0  0  0  0  0  0
  180.3570  180.2890  142.8220 N   0  0  0  0  0  0  0  0  0  0  0  0
  1  4  1  0  0  0  0
  2  3  2  0  0  0  0
  3  4  1  0  0  0  0
  4 22  1  1  0  0  0
  5  2  1  0  0  0  0
  5  1  2  0  0  0  0
  6  5  1  0  0  0  0
  7  8  1  0  0  0  0
  7  6  2  0  0  0  0
  8  9  2  0  0  0  0
  9  2  1  0  0  0  0
 10  3  1  6  0  0  0
 10 11  1  0  0  0  0
 11 13  1  1  0  0  0
 12 10  1  0  0  0  0
 12 11  1  0  0  0  0
 13 14  1  0  0  0  0
 14 19  1  0  0  0  0
 15 21  1  0  0  0  0
 16 21  2  0  0  0  0
 17 16  1  0  0  0  0
 18 15  2  0  0  0  0
 19 17  2  0  0  0  0
 19 18  1  0  0  0  0
 20 18  1  0  0  0  0
 22 23  1  0  0  0  0
 23 24  1  0  0  0  0
 25 24  1  0  0  0  0
 26 25  1  0  0  0  0
 27 26  3  0  0  0  0
M  END
>  <MODEL>
9

>  <REMARK>
 VINA RESULT:      -7.7      2.690      4.687
  Name = 
  9 active torsions:
  status: ('A' for Active; 'I' for Inactive)
    1  A    between atoms: C_1  and  N_10
    2  A    between atoms: C_5  and  C_12
    3  A    between atoms: C_5  and  C_19
    4  A    between atoms: C_6  and  N_14
    5  A    between atoms: C_6  and  C_26
    6  A    between atoms: C_8  and  C_15
    7  A    between atoms: N_10  and  N_14
    8  A    between atoms: C_11  and  C_26
    9  A    between atoms: C_12  and  C_20
                            x       y       z     vdW  Elec       q    Type
                         _______ _______ _______ _____ _____    ______ ____

>  <TORSDO>
F 9

$$$$
