=
 OpenBabel10232410123D

 66 68  0  0  1  0  0  0  0  0999 V2000
  186.2880  177.1730  136.1680 C   0  0  1  0  0  3  0  0  0  0  0  0
  184.9150  177.8290  134.5500 C   0  0  0  0  0  1  0  0  0  0  0  0
  185.0860  176.8470  135.5260 O   0  0  0  0  0  0  0  0  0  0  0  0
  186.0080  177.7300  137.5650 C   0  0  2  0  0  3  0  0  0  0  0  0
  186.9420  177.2450  138.4880 O   0  0  0  0  0  0  0  0  0  0  0  0
  187.9550  178.2010  138.5380 C   0  0  0  0  0  1  0  0  0  0  0  0
  184.7280  177.3330  137.9690 O   0  0  0  0  0  0  0  0  0  0  0  0
  182.8760  178.8330  137.8960 C   0  0  0  0  0  1  0  0  0  0  0  0
  184.1560  178.4390  138.6150 C   0  0  1  0  0  3  0  0  0  0  0  0
  182.7310  178.0930  142.7140 C   0  0  0  0  0  2  0  0  0  0  0  0
  183.8560  178.1330  140.0850 C   0  0  2  0  0  3  0  0  0  0  0  0
  182.3850  177.7260  140.2510 C   0  0  0  0  0  2  0  0  0  0  0  0
  184.0050  178.9440  142.5120 C   0  0  1  0  0  0  0  0  0  0  0  0
  184.2660  179.2810  141.0200 C   0  0  0  0  0  2  0  0  0  0  0  0
  181.7510  178.2250  141.5530 C   0  0  0  0  0  2  0  0  0  0  0  0
  183.9420  180.1200  143.3090 O   0  0  0  0  0  0  0  0  0  0  0  0
  182.8870  180.0270  144.2350 C   0  0  0  0  0  1  0  0  0  0  0  0
  185.1620  178.0840  143.0320 C   0  0  0  0  0  2  0  0  0  0  0  0
  185.7730  178.6190  144.3220 C   0  0  0  0  0  2  0  0  0  0  0  0
  185.0230  178.0940  145.5330 C   0  0  0  0  0  2  0  0  0  0  0  0
  185.9270  178.1190  146.7540 C   0  0  0  0  0  2  0  0  0  0  0  0
  187.0460  177.2120  146.5560 N   0  0  0  0  0  2  0  0  0  0  0  0
  188.0620  177.5640  147.5330 C   0  0  0  0  0  2  0  0  0  0  0  0
  189.1980  176.7850  147.3200 O   0  0  0  0  0  0  0  0  0  0  0  0
  189.9150  177.4720  146.3390 C   0  0  0  0  0  2  0  0  0  0  0  0
  190.8090  176.5060  145.5810 C   0  0  2  0  0  3  0  0  0  0  0  0
  192.0730  176.2870  146.3500 C   0  0  0  0  0  3  0  0  0  0  0  0
  192.4110  175.1610  146.6780 O   0  0  0  0  0  0  0  0  0  0  0  0
  191.1360  177.0800  144.2110 C   0  0  0  0  0  2  0  0  0  0  0  0
  190.2050  174.8080  143.1050 O   0  0  0  0  0  0  0  0  0  0  0  0
  188.7280  176.7670  143.0470 O   0  0  0  0  0  0  0  0  0  0  0  0
  190.1530  176.3020  142.9410 S   0  0  0  0  0  0  0  0  0  0  0  0
  191.9060  177.7830  141.5100 C   0  0  0  0  0  1  0  0  0  0  0  0
  190.8090  176.7510  141.3490 C   0  0  0  0  0  2  0  0  0  0  0  0
  187.1990  175.9490  136.2460 C   0  0  0  0  0  2  0  0  0  0  0  0
  186.4350  174.7270  136.0300 N   0  0  0  0  0  0  0  0  0  0  0  0
  185.5730  174.5810  137.1020 O   0  0  0  0  0  0  0  0  0  0  0  0
  185.4240  172.4560  137.9980 O   0  0  0  0  0  0  0  0  0  0  0  0
  183.5740  173.1990  136.8070 N   0  0  0  0  0  2  0  0  0  0  0  0
  184.8820  173.3880  137.3440 C   0  0  0  0  0  0  0  0  0  0  0  0
  182.3080  175.1250  135.5810 C   0  0  0  0  0  3  0  0  0  0  0  0
  182.8940  174.2320  136.1430 C   0  0  0  0  0  0  0  0  0  0  0  0
  187.3840  173.6250  136.1070 C   0  0  0  0  0  2  0  0  0  0  0  0
  188.7570  174.1380  136.5150 C   0  0  0  0  0  2  0  0  0  0  0  0
  189.8590  173.2810  135.9070 C   0  0  1  0  0  3  0  0  0  0  0  0
  189.6830  173.2130  134.5240 O   0  0  0  0  0  1  0  0  0  0  0  0
  191.1480  173.8990  136.1920 N   0  0  0  0  0  2  0  0  0  0  0  0
  192.2650  171.9340  135.3080 C   0  0  0  0  0  1  0  0  0  0  0  0
  192.1070  173.4380  135.1940 C   0  0  2  0  0  3  0  0  0  0  0  0
  193.4380  174.1000  135.3850 C   0  0  0  0  0  0  0  0  0  0  0  0
  193.6060  175.2600  136.0550 N   0  0  0  0  0  0  0  0  0  0  0  0
  195.5220  174.4380  135.3420 C   0  0  0  0  0  0  0  0  0  0  0  0
  194.5890  173.5600  134.9340 N   0  0  0  0  0  0  0  0  0  0  0  0
  194.9340  175.4870  136.0140 C   0  0  0  0  0  2  0  0  0  0  0  0
  197.9170  173.3560  135.6430 C   0  0  2  0  0  3  0  0  0  0  0  0
  197.5690  175.3850  134.3480 O   0  0  0  0  0  1  0  0  0  0  0  0
  196.9810  174.3150  135.0230 C   0  0  2  0  0  0  0  0  0  0  0  0
  197.2780  173.0440  134.3470 N   0  0  0  0  0  2  0  0  0  0  0  0
  197.3570  173.3190  137.9640 O   0  0  0  0  0  1  0  0  0  0  0  0
  197.3750  172.5090  136.8250 C   0  0  2  0  0  0  0  0  0  0  0  0
  199.6920  171.9090  137.1430 O   0  0  0  0  0  1  0  0  0  0  0  0
  198.3940  171.3930  137.0730 C   0  0  0  0  0  2  0  0  0  0  0  0
  195.9510  171.9320  136.6270 C   0  0  0  0  0  2  0  0  0  0  0  0
  195.8310  170.4470  136.8030 C   0  0  0  0  0  0  0  0  0  0  0  0
  195.5040  169.6460  135.7160 O   0  0  0  0  0  0  0  0  0  0  0  0
  196.0310  169.9200  137.9280 O   0  0  0  0  0  1  0  0  0  0  0  0
  1 35  1  1  0  0  0
  1  4  1  0  0  0  0
  2  3  1  0  0  0  0
  3  1  1  0  0  0  0
  4  7  1  1  0  0  0
  4  5  1  0  0  0  0
  5  6  1  0  0  0  0
  7  9  1  0  0  0  0
  9  8  1  6  0  0  0
 11  9  1  6  0  0  0
 11 12  1  0  0  0  0
 11 14  1  0  0  0  0
 12 15  1  0  0  0  0
 13 10  1  0  0  0  0
 13 18  1  1  0  0  0
 13 16  1  0  0  0  0
 14 13  1  0  0  0  0
 15 10  1  0  0  0  0
 16 17  1  0  0  0  0
 18 19  1  0  0  0  0
 19 20  1  0  0  0  0
 20 21  1  0  0  0  0
 22 21  1  0  0  0  0
 22 23  1  0  0  0  0
 24 23  1  0  0  0  0
 25 24  1  0  0  0  0
 26 29  1  6  0  0  0
 26 25  1  0  0  0  0
 26 27  1  0  0  0  0
 27 28  2  0  0  0  0
 32 31  2  0  0  0  0
 32 30  2  0  0  0  0
 32 29  1  0  0  0  0
 34 33  1  0  0  0  0
 34 32  1  0  0  0  0
 36 43  1  0  0  0  0
 36 35  1  0  0  0  0
 36 37  1  0  0  0  0
 37 40  1  0  0  0  0
 39 40  1  0  0  0  0
 40 38  2  0  0  0  0
 41 42  3  0  0  0  0
 42 39  1  0  0  0  0
 43 44  1  0  0  0  0
 45 46  1  6  0  0  0
 45 47  1  0  0  0  0
 45 44  1  0  0  0  0
 49 48  1  1  0  0  0
 49 50  1  0  0  0  0
 49 47  1  0  0  0  0
 50 51  2  0  0  0  0
 52 54  1  0  0  0  0
 53 52  2  0  0  0  0
 53 50  1  0  0  0  0
 54 51  1  0  0  0  0
 55 60  1  1  0  0  0
 57 56  1  6  0  0  0
 57 52  1  0  0  0  0
 57 55  1  0  0  0  0
 58 57  1  0  0  0  0
 58 55  1  0  0  0  0
 60 62  1  0  0  0  0
 60 59  1  1  0  0  0
 62 61  1  0  0  0  0
 63 64  1  0  0  0  0
 63 60  1  0  0  0  0
 64 66  1  0  0  0  0
 65 64  2  0  0  0  0
M  END
>  <MODEL>
1

>  <REMARK>
 VINA RESULT:      -4.0      0.000      0.000
  Name = 
  36 active torsions:
  status: ('A' for Active; 'I' for Inactive)
    1  A    between atoms: C_4  and  C_44
    2  A    between atoms: C_6  and  N_25
    3  A    between atoms: C_6  and  C_62
    4  A    between atoms: C_8  and  C_29
    5  A    between atoms: C_8  and  C_49
    6  A    between atoms: N_9  and  C_61
    7  A    between atoms: C_10  and  C_33
    8  A    between atoms: C_10  and  S_48
    9  A    between atoms: C_11  and  C_34
   10  A    between atoms: C_11  and  N_42
   11  A    between atoms: O_14  and  C_45
   12  A    between atoms: C_15  and  C_58
   13  A    between atoms: C_18  and  C_24
   14  A    between atoms: C_18  and  C_50
   15  A    between atoms: C_19  and  C_30
   16  A    between atoms: C_22  and  C_33
   17  A    between atoms: N_25  and  C_46
   18  A    between atoms: N_25  and  O_54
   19  A    between atoms: C_26  and  S_48
   20  A    between atoms: C_27  and  C_45
   21  A    between atoms: C_27  and  C_49
   22  A    between atoms: C_28  and  O_54
   23  A    between atoms: C_29  and  N_56
   24  A    between atoms: C_30  and  O_36
   25  A    between atoms: C_31  and  O_52
   26  A    between atoms: C_31  and  N_56
   27  A    between atoms: C_33  and  C_64
   28  A    between atoms: C_34  and  C_46
   29  A    between atoms: O_36  and  C_39
   30  A    between atoms: C_39  and  O_41
   31  A    between atoms: C_39  and  C_62
   32  A    between atoms: O_40  and  C_62
   33  A    between atoms: N_42  and  C_44
   34  A    between atoms: C_43  and  C_50
   35  A    between atoms: C_50  and  C_60
   36  A    between atoms: O_52  and  C_64
                            x       y       z     vdW  Elec       q    Type
                         _______ _______ _______ _____ _____    ______ ____

>  <TORSDO>
F 36

$$$$
=
 OpenBabel10232410123D

 66 68  0  0  1  0  0  0  0  0999 V2000
  186.7270  176.2040  136.3190 C   0  0  1  0  0  3  0  0  0  0  0  0
  187.4630  175.1290  134.5200 C   0  0  0  0  0  1  0  0  0  0  0  0
  187.0480  174.9280  135.8370 O   0  0  0  0  0  0  0  0  0  0  0  0
  185.2090  176.3680  136.4120 C   0  0  2  0  0  3  0  0  0  0  0  0
  184.5860  175.1250  136.5830 O   0  0  0  0  0  0  0  0  0  0  0  0
  184.6410  174.8610  137.9500 C   0  0  0  0  0  1  0  0  0  0  0  0
  184.7370  176.9490  135.2300 O   0  0  0  0  0  0  0  0  0  0  0  0
  182.4270  176.7610  134.6690 C   0  0  0  0  0  1  0  0  0  0  0  0
  183.4670  177.4680  135.5230 C   0  0  1  0  0  3  0  0  0  0  0  0
  181.7760  177.2150  139.5270 C   0  0  0  0  0  2  0  0  0  0  0  0
  183.1240  177.3020  137.0060 C   0  0  2  0  0  3  0  0  0  0  0  0
  181.9280  176.3530  137.1700 C   0  0  0  0  0  2  0  0  0  0  0  0
  182.6220  178.4740  139.2300 C   0  0  1  0  0  0  0  0  0  0  0  0
  182.9190  178.6480  137.7170 C   0  0  0  0  0  2  0  0  0  0  0  0
  180.9840  176.7450  138.3110 C   0  0  0  0  0  2  0  0  0  0  0  0
  181.9940  179.6280  139.7740 O   0  0  0  0  0  0  0  0  0  0  0  0
  180.6320  179.6550  139.4220 C   0  0  0  0  0  1  0  0  0  0  0  0
  183.9470  178.2640  139.9710 C   0  0  0  0  0  2  0  0  0  0  0  0
  184.1240  179.2050  141.1580 C   0  0  0  0  0  2  0  0  0  0  0  0
  183.7810  178.5020  142.4590 C   0  0  0  0  0  2  0  0  0  0  0  0
  184.5920  179.0970  143.5980 C   0  0  0  0  0  2  0  0  0  0  0  0
  185.6410  178.1710  143.9910 N   0  0  0  0  0  2  0  0  0  0  0  0
  185.7690  178.2560  145.4360 C   0  0  0  0  0  2  0  0  0  0  0  0
  186.7360  177.3490  145.8690 O   0  0  0  0  0  0  0  0  0  0  0  0
  187.9420  177.8720  145.4000 C   0  0  0  0  0  2  0  0  0  0  0  0
  189.1080  177.1280  146.0310 C   0  0  2  0  0  3  0  0  0  0  0  0
  189.0250  177.2440  147.5200 C   0  0  0  0  0  3  0  0  0  0  0  0
  188.5880  176.3210  148.1890 O   0  0  0  0  0  0  0  0  0  0  0  0
  190.4180  177.7240  145.5420 C   0  0  0  0  0  2  0  0  0  0  0  0
  189.2300  177.6910  143.1260 O   0  0  0  0  0  0  0  0  0  0  0  0
  191.5040  178.6060  143.2410 O   0  0  0  0  0  0  0  0  0  0  0  0
  190.5790  177.5480  143.7740 S   0  0  0  0  0  0  0  0  0  0  0  0
  191.7720  175.2960  144.6800 C   0  0  0  0  0  1  0  0  0  0  0  0
  191.2460  175.9380  143.4130 C   0  0  0  0  0  2  0  0  0  0  0  0
  187.3820  176.4390  137.6790 C   0  0  0  0  0  2  0  0  0  0  0  0
  188.4460  175.4720  137.9100 N   0  0  0  0  0  0  0  0  0  0  0  0
  189.3140  176.0210  138.8360 O   0  0  0  0  0  0  0  0  0  0  0  0
  187.9310  177.7580  139.4760 O   0  0  0  0  0  0  0  0  0  0  0  0
  190.2010  178.0620  139.8570 N   0  0  0  0  0  2  0  0  0  0  0  0
  189.0970  177.2820  139.4030 C   0  0  0  0  0  0  0  0  0  0  0  0
  192.6320  177.1120  139.8830 C   0  0  0  0  0  3  0  0  0  0  0  0
  191.5070  177.5480  139.8750 C   0  0  0  0  0  0  0  0  0  0  0  0
  189.1870  175.3640  136.6600 C   0  0  0  0  0  2  0  0  0  0  0  0
  190.5940  175.9180  136.8310 C   0  0  0  0  0  2  0  0  0  0  0  0
  191.5150  175.4100  135.7300 C   0  0  1  0  0  3  0  0  0  0  0  0
  192.0240  176.4950  135.0140 O   0  0  0  0  0  1  0  0  0  0  0  0
  192.6200  174.6820  136.3390 N   0  0  0  0  0  2  0  0  0  0  0  0
  194.0160  174.7440  134.3550 C   0  0  0  0  0  1  0  0  0  0  0  0
  193.8680  175.2030  135.7920 C   0  0  2  0  0  3  0  0  0  0  0  0
  195.0430  174.7300  136.5940 C   0  0  0  0  0  0  0  0  0  0  0  0
  195.1380  174.8710  137.9340 N   0  0  0  0  0  0  0  0  0  0  0  0
  196.8780  173.8130  137.0930 C   0  0  0  0  0  0  0  0  0  0  0  0
  196.0880  174.0830  136.0390 N   0  0  0  0  0  0  0  0  0  0  0  0
  196.3170  174.3010  138.2520 C   0  0  0  0  0  2  0  0  0  0  0  0
  198.4460  171.7200  136.6930 C   0  0  2  0  0  3  0  0  0  0  0  0
  199.3060  173.8400  137.5170 O   0  0  0  0  0  1  0  0  0  0  0  0
  198.2180  173.1490  136.9850 C   0  0  2  0  0  0  0  0  0  0  0  0
  198.4940  172.7210  135.6060 N   0  0  0  0  0  2  0  0  0  0  0  0
  196.4870  171.1050  135.4730 O   0  0  0  0  0  1  0  0  0  0  0  0
  197.1930  170.8050  136.6410 C   0  0  2  0  0  0  0  0  0  0  0  0
  194.9530  171.1340  137.4800 O   0  0  0  0  0  1  0  0  0  0  0  0
  196.3070  171.2000  137.8250 C   0  0  0  0  0  2  0  0  0  0  0  0
  197.4860  169.2830  136.6450 C   0  0  0  0  0  2  0  0  0  0  0  0
  196.4270  168.4290  137.2770 C   0  0  0  0  0  0  0  0  0  0  0  0
  195.2330  168.2000  136.6060 O   0  0  0  0  0  0  0  0  0  0  0  0
  196.6150  167.9140  138.4100 O   0  0  0  0  0  1  0  0  0  0  0  0
  1  4  1  0  0  0  0
  1 35  1  1  0  0  0
  2  3  1  0  0  0  0
  3  1  1  0  0  0  0
  4  7  1  6  0  0  0
  4  5  1  0  0  0  0
  5  6  1  0  0  0  0
  7  9  1  0  0  0  0
  9  8  1  6  0  0  0
 11  9  1  6  0  0  0
 11 12  1  0  0  0  0
 11 14  1  0  0  0  0
 12 15  1  0  0  0  0
 13 10  1  0  0  0  0
 13 16  1  0  0  0  0
 13 18  1  1  0  0  0
 14 13  1  0  0  0  0
 15 10  1  0  0  0  0
 17 16  1  0  0  0  0
 18 19  1  0  0  0  0
 19 20  1  0  0  0  0
 20 21  1  0  0  0  0
 21 22  1  0  0  0  0
 22 23  1  0  0  0  0
 23 24  1  0  0  0  0
 25 24  1  0  0  0  0
 26 25  1  6  0  0  0
 26 27  1  0  0  0  0
 27 28  2  0  0  0  0
 29 26  1  0  0  0  0
 30 32  2  0  0  0  0
 31 32  2  0  0  0  0
 32 29  1  0  0  0  0
 34 32  1  0  0  0  0
 34 33  1  0  0  0  0
 35 36  1  0  0  0  0
 36 37  1  0  0  0  0
 37 40  1  0  0  0  0
 39 42  1  0  0  0  0
 40 38  2  0  0  0  0
 40 39  1  0  0  0  0
 42 41  3  0  0  0  0
 43 44  1  0  0  0  0
 43 36  1  0  0  0  0
 45 46  1  1  0  0  0
 45 47  1  0  0  0  0
 45 44  1  0  0  0  0
 49 48  1  6  0  0  0
 49 47  1  0  0  0  0
 49 50  1  0  0  0  0
 50 51  2  0  0  0  0
 51 54  1  0  0  0  0
 52 54  1  0  0  0  0
 53 50  1  0  0  0  0
 53 52  2  0  0  0  0
 55 60  1  6  0  0  0
 55 57  1  0  0  0  0
 57 52  1  0  0  0  0
 57 56  1  1  0  0  0
 58 55  1  0  0  0  0
 58 57  1  0  0  0  0
 60 59  1  6  0  0  0
 60 63  1  0  0  0  0
 60 62  1  0  0  0  0
 61 62  1  0  0  0  0
 63 64  1  0  0  0  0
 64 66  1  0  0  0  0
 65 64  2  0  0  0  0
M  END
>  <MODEL>
2

>  <REMARK>
 VINA RESULT:      -2.2      2.032      3.821
  Name = 
  36 active torsions:
  status: ('A' for Active; 'I' for Inactive)
    1  A    between atoms: C_4  and  C_44
    2  A    between atoms: C_6  and  N_25
    3  A    between atoms: C_6  and  C_62
    4  A    between atoms: C_8  and  C_29
    5  A    between atoms: C_8  and  C_49
    6  A    between atoms: N_9  and  C_61
    7  A    between atoms: C_10  and  C_33
    8  A    between atoms: C_10  and  S_48
    9  A    between atoms: C_11  and  C_34
   10  A    between atoms: C_11  and  N_42
   11  A    between atoms: O_14  and  C_45
   12  A    between atoms: C_15  and  C_58
   13  A    between atoms: C_18  and  C_24
   14  A    between atoms: C_18  and  C_50
   15  A    between atoms: C_19  and  C_30
   16  A    between atoms: C_22  and  C_33
   17  A    between atoms: N_25  and  C_46
   18  A    between atoms: N_25  and  O_54
   19  A    between atoms: C_26  and  S_48
   20  A    between atoms: C_27  and  C_45
   21  A    between atoms: C_27  and  C_49
   22  A    between atoms: C_28  and  O_54
   23  A    between atoms: C_29  and  N_56
   24  A    between atoms: C_30  and  O_36
   25  A    between atoms: C_31  and  O_52
   26  A    between atoms: C_31  and  N_56
   27  A    between atoms: C_33  and  C_64
   28  A    between atoms: C_34  and  C_46
   29  A    between atoms: O_36  and  C_39
   30  A    between atoms: C_39  and  O_41
   31  A    between atoms: C_39  and  C_62
   32  A    between atoms: O_40  and  C_62
   33  A    between atoms: N_42  and  C_44
   34  A    between atoms: C_43  and  C_50
   35  A    between atoms: C_50  and  C_60
   36  A    between atoms: O_52  and  C_64
                            x       y       z     vdW  Elec       q    Type
                         _______ _______ _______ _____ _____    ______ ____

>  <TORSDO>
F 36

$$$$
=
 OpenBabel10232410123D

 66 68  0  0  1  0  0  0  0  0999 V2000
  189.0640  177.3990  137.9280 C   0  0  1  0  0  3  0  0  0  0  0  0
  188.8930  179.3680  138.9410 C   0  0  0  0  0  1  0  0  0  0  0  0
  189.8020  178.5330  138.2910 O   0  0  0  0  0  0  0  0  0  0  0  0
  189.5040  176.8990  136.5500 C   0  0  2  0  0  3  0  0  0  0  0  0
  189.4170  177.9250  135.6010 O   0  0  0  0  0  0  0  0  0  0  0  0
  190.1650  177.4910  134.5080 C   0  0  0  0  0  1  0  0  0  0  0  0
  188.6690  175.8490  136.1560 O   0  0  0  0  0  0  0  0  0  0  0  0
  186.9760  176.5900  134.6500 C   0  0  0  0  0  1  0  0  0  0  0  0
  187.3700  176.3740  136.1020 C   0  0  1  0  0  3  0  0  0  0  0  0
  184.4910  173.3580  137.3560 C   0  0  0  0  0  2  0  0  0  0  0  0
  186.3610  175.4440  136.7830 C   0  0  2  0  0  3  0  0  0  0  0  0
  186.8280  173.9860  136.6730 C   0  0  0  0  0  2  0  0  0  0  0  0
  183.9060  174.7430  137.0000 C   0  0  1  0  0  0  0  0  0  0  0  0
  184.9290  175.6530  136.2700 C   0  0  0  0  0  2  0  0  0  0  0  0
  185.6840  172.9870  136.4800 C   0  0  0  0  0  2  0  0  0  0  0  0
  182.7110  174.5930  136.2450 O   0  0  0  0  0  0  0  0  0  0  0  0
  182.9900  174.0000  135.0000 C   0  0  0  0  0  1  0  0  0  0  0  0
  183.5390  175.3920  138.3390 C   0  0  0  0  0  2  0  0  0  0  0  0
  182.0500  175.6940  138.4700 C   0  0  0  0  0  2  0  0  0  0  0  0
  181.7990  176.7020  139.5770 C   0  0  0  0  0  2  0  0  0  0  0  0
  182.8840  177.7660  139.5640 C   0  0  0  0  0  2  0  0  0  0  0  0
  182.5170  178.8540  140.4570 N   0  0  0  0  0  2  0  0  0  0  0  0
  183.0790  178.5470  141.7610 C   0  0  0  0  0  2  0  0  0  0  0  0
  184.0190  179.5180  142.0990 O   0  0  0  0  0  0  0  0  0  0  0  0
  184.5250  179.1020  143.3320 C   0  0  0  0  0  2  0  0  0  0  0  0
  186.0430  179.0430  143.2750 C   0  0  2  0  0  3  0  0  0  0  0  0
  186.4870  179.0140  141.8470 C   0  0  0  0  0  3  0  0  0  0  0  0
  186.0830  178.1460  141.0910 O   0  0  0  0  0  0  0  0  0  0  0  0
  186.5330  177.7940  143.9900 C   0  0  0  0  0  2  0  0  0  0  0  0
  185.4000  179.0230  146.1020 O   0  0  0  0  0  0  0  0  0  0  0  0
  186.0840  176.6850  146.4030 O   0  0  0  0  0  0  0  0  0  0  0  0
  186.4440  177.9960  145.7610 S   0  0  0  0  0  0  0  0  0  0  0  0
  189.0660  177.4520  146.1440 C   0  0  0  0  0  1  0  0  0  0  0  0
  188.0300  178.5370  146.3590 C   0  0  0  0  0  2  0  0  0  0  0  0
  189.2250  176.3010  138.9790 C   0  0  0  0  0  2  0  0  0  0  0  0
  190.6320  176.1000  139.2990 N   0  0  0  0  0  0  0  0  0  0  0  0
  191.2270  177.3480  139.3570 O   0  0  0  0  0  0  0  0  0  0  0  0
  193.3320  178.1280  139.9030 O   0  0  0  0  0  0  0  0  0  0  0  0
  192.0270  177.3770  141.6710 N   0  0  0  0  0  2  0  0  0  0  0  0
  192.2290  177.6510  140.2850 C   0  0  0  0  0  0  0  0  0  0  0  0
  189.7230  176.5400  142.5700 C   0  0  0  0  0  3  0  0  0  0  0  0
  190.7900  176.9250  142.1580 C   0  0  0  0  0  0  0  0  0  0  0  0
  191.2220  175.4110  138.1600 C   0  0  0  0  0  2  0  0  0  0  0  0
  191.9670  176.3980  137.2730 C   0  0  0  0  0  2  0  0  0  0  0  0
  193.3070  175.8260  136.8300 C   0  0  1  0  0  3  0  0  0  0  0  0
  194.1400  176.8670  136.4160 O   0  0  0  0  0  1  0  0  0  0  0  0
  193.9250  175.1440  137.9600 N   0  0  0  0  0  2  0  0  0  0  0  0
  194.8840  173.0370  138.6860 C   0  0  0  0  0  1  0  0  0  0  0  0
  194.4410  173.8620  137.4930 C   0  0  2  0  0  3  0  0  0  0  0  0
  195.5970  174.0570  136.5590 C   0  0  0  0  0  0  0  0  0  0  0  0
  195.4590  174.4100  135.2640 N   0  0  0  0  0  0  0  0  0  0  0  0
  197.5770  174.2230  135.8430 C   0  0  0  0  0  0  0  0  0  0  0  0
  196.8800  173.9350  136.9570 N   0  0  0  0  0  0  0  0  0  0  0  0
  196.7210  174.4990  134.8000 C   0  0  0  0  0  2  0  0  0  0  0  0
  199.8690  172.9280  135.5880 C   0  0  2  0  0  3  0  0  0  0  0  0
  199.7760  175.2840  136.1820 O   0  0  0  0  0  1  0  0  0  0  0  0
  199.0710  174.1590  135.7530 C   0  0  2  0  0  0  0  0  0  0  0  0
  199.5110  173.7470  134.4110 N   0  0  0  0  0  2  0  0  0  0  0  0
  198.1190  171.6960  136.6500 O   0  0  0  0  0  1  0  0  0  0  0  0
  199.1030  171.5790  135.6640 C   0  0  2  0  0  0  0  0  0  0  0  0
  199.7200  169.9920  137.3760 O   0  0  0  0  0  1  0  0  0  0  0  0
  200.1080  170.5270  136.1440 C   0  0  0  0  0  2  0  0  0  0  0  0
  198.4140  171.1350  134.3500 C   0  0  0  0  0  2  0  0  0  0  0  0
  197.0970  170.4370  134.5210 C   0  0  0  0  0  0  0  0  0  0  0  0
  197.0240  169.0570  134.3850 O   0  0  0  0  0  0  0  0  0  0  0  0
  196.0590  171.0930  134.7930 O   0  0  0  0  0  1  0  0  0  0  0  0
  1  3  1  0  0  0  0
  1 35  1  1  0  0  0
  3  2  1  0  0  0  0
  4  5  1  6  0  0  0
  4  1  1  0  0  0  0
  6  5  1  0  0  0  0
  7  4  1  0  0  0  0
  9  8  1  6  0  0  0
  9  7  1  0  0  0  0
 11  9  1  6  0  0  0
 12 11  1  0  0  0  0
 13 10  1  0  0  0  0
 13 18  1  1  0  0  0
 14 11  1  0  0  0  0
 14 13  1  0  0  0  0
 15 12  1  0  0  0  0
 15 10  1  0  0  0  0
 16 13  1  0  0  0  0
 17 16  1  0  0  0  0
 18 19  1  0  0  0  0
 19 20  1  0  0  0  0
 21 20  1  0  0  0  0
 21 22  1  0  0  0  0
 22 23  1  0  0  0  0
 23 24  1  0  0  0  0
 24 25  1  0  0  0  0
 26 27  1  6  0  0  0
 26 25  1  0  0  0  0
 26 29  1  0  0  0  0
 28 27  2  0  0  0  0
 29 32  1  0  0  0  0
 32 30  2  0  0  0  0
 32 34  1  0  0  0  0
 32 31  2  0  0  0  0
 33 34  1  0  0  0  0
 35 36  1  0  0  0  0
 36 37  1  0  0  0  0
 37 40  1  0  0  0  0
 38 40  2  0  0  0  0
 39 42  1  0  0  0  0
 40 39  1  0  0  0  0
 42 41  3  0  0  0  0
 43 36  1  0  0  0  0
 44 43  1  0  0  0  0
 45 46  1  1  0  0  0
 45 44  1  0  0  0  0
 45 47  1  0  0  0  0
 49 47  1  0  0  0  0
 49 48  1  1  0  0  0
 50 53  1  0  0  0  0
 50 49  1  0  0  0  0
 51 50  2  0  0  0  0
 52 53  2  0  0  0  0
 54 51  1  0  0  0  0
 54 52  1  0  0  0  0
 55 60  1  6  0  0  0
 55 57  1  0  0  0  0
 57 52  1  0  0  0  0
 57 56  1  1  0  0  0
 58 55  1  0  0  0  0
 58 57  1  0  0  0  0
 60 62  1  0  0  0  0
 60 59  1  1  0  0  0
 62 61  1  0  0  0  0
 63 64  1  0  0  0  0
 63 60  1  0  0  0  0
 64 66  1  0  0  0  0
 65 64  2  0  0  0  0
M  END
>  <MODEL>
3

>  <REMARK>
 VINA RESULT:      -2.0      2.751      5.894
  Name = 
  36 active torsions:
  status: ('A' for Active; 'I' for Inactive)
    1  A    between atoms: C_4  and  C_44
    2  A    between atoms: C_6  and  N_25
    3  A    between atoms: C_6  and  C_62
    4  A    between atoms: C_8  and  C_29
    5  A    between atoms: C_8  and  C_49
    6  A    between atoms: N_9  and  C_61
    7  A    between atoms: C_10  and  C_33
    8  A    between atoms: C_10  and  S_48
    9  A    between atoms: C_11  and  C_34
   10  A    between atoms: C_11  and  N_42
   11  A    between atoms: O_14  and  C_45
   12  A    between atoms: C_15  and  C_58
   13  A    between atoms: C_18  and  C_24
   14  A    between atoms: C_18  and  C_50
   15  A    between atoms: C_19  and  C_30
   16  A    between atoms: C_22  and  C_33
   17  A    between atoms: N_25  and  C_46
   18  A    between atoms: N_25  and  O_54
   19  A    between atoms: C_26  and  S_48
   20  A    between atoms: C_27  and  C_45
   21  A    between atoms: C_27  and  C_49
   22  A    between atoms: C_28  and  O_54
   23  A    between atoms: C_29  and  N_56
   24  A    between atoms: C_30  and  O_36
   25  A    between atoms: C_31  and  O_52
   26  A    between atoms: C_31  and  N_56
   27  A    between atoms: C_33  and  C_64
   28  A    between atoms: C_34  and  C_46
   29  A    between atoms: O_36  and  C_39
   30  A    between atoms: C_39  and  O_41
   31  A    between atoms: C_39  and  C_62
   32  A    between atoms: O_40  and  C_62
   33  A    between atoms: N_42  and  C_44
   34  A    between atoms: C_43  and  C_50
   35  A    between atoms: C_50  and  C_60
   36  A    between atoms: O_52  and  C_64
                            x       y       z     vdW  Elec       q    Type
                         _______ _______ _______ _____ _____    ______ ____

>  <TORSDO>
F 36

$$$$
