=
 OpenBabel10232412133D

 68 74  0  0  1  0  0  0  0  0999 V2000
  188.3460  175.0420  136.2980 C   0  0  0  0  0  0  0  0  0  0  0  0
  184.6190  177.1510  136.8620 C   0  0  0  0  0  2  0  0  0  0  0  0
  181.7460  175.9260  136.4860 C   0  0  0  0  0  0  0  0  0  0  0  0
  184.7010  173.3500  134.8890 O   0  0  0  0  0  0  0  0  0  0  0  0
  185.6620  176.9160  137.9390 C   0  0  0  0  0  2  0  0  0  0  0  0
  184.6150  172.1840  135.3580 C   0  0  0  0  0  0  0  0  0  0  0  0
  181.5870  174.8130  137.2050 C   0  0  0  0  0  3  0  0  0  0  0  0
  182.5910  173.7080  137.2780 C   0  0  0  0  0  2  0  0  0  0  0  0
  182.2810  172.6580  136.2100 C   0  0  1  0  0  3  0  0  0  0  0  0
  187.3650  173.0570  135.3570 N   0  0  0  0  0  2  0  0  0  0  0  0
  185.7330  171.2310  135.2130 C   0  0  0  0  0  0  0  0  0  0  0  0
  188.0960  170.6930  135.0390 C   0  0  0  0  0  0  0  0  0  0  0  0
  183.4190  171.7700  136.0200 N   0  0  0  0  0  2  0  0  0  0  0  0
  186.4210  168.9600  135.0350 C   0  0  0  0  0  3  0  0  0  0  0  0
  182.9670  176.2240  135.7920 N   0  0  0  0  0  2  0  0  0  0  0  0
  188.5360  173.5830  136.0390 C   0  0  0  0  0  2  0  0  0  0  0  0
  187.3260  175.4080  137.0080 N   0  0  0  0  0  0  0  0  0  0  0  0
  187.0440  176.7990  137.3260 C   0  0  0  0  0  2  0  0  0  0  0  0
  187.0780  171.6620  135.1830 C   0  0  0  0  0  0  0  0  0  0  0  0
  189.5370  171.0550  134.9120 C   0  0  0  0  0  1  0  0  0  0  0  0
  187.7590  169.3420  134.9650 C   0  0  0  0  0  3  0  0  0  0  0  0
  185.4510  169.9010  135.1570 N   0  0  0  0  0  0  0  0  0  0  0  0
  184.1860  175.9400  136.3140 O   0  0  0  0  0  0  0  0  0  0  0  0
  180.0030  177.3910  137.6730 C   0  0  0  0  0  2  0  0  0  0  0  0
  180.9760  178.2110  138.5330 C   0  0  2  0  0  3  0  0  0  0  0  0
  181.6180  179.0260  135.5670 C   0  0  0  0  0  2  0  0  0  0  0  0
  180.2610  178.8770  139.5270 O   0  0  0  0  0  1  0  0  0  0  0  0
  181.8260  179.2210  137.7560 C   0  0  0  0  0  2  0  0  0  0  0  0
  181.1280  179.7440  136.6620 O   0  0  0  0  0  0  0  0  0  0  0  0
  180.6780  177.8740  135.2290 C   0  0  0  0  0  2  0  0  0  0  0  0
  180.5650  176.8410  136.3560 C   0  0  1  0  0  3  0  0  0  0  0  0
  180.3570  171.1230  135.6040 N   0  0  0  0  0  1  0  0  0  0  0  0
  181.0790  171.8540  136.5890 C   0  0  0  0  0  0  0  0  0  0  0  0
  180.7090  171.8160  137.7910 O   0  0  0  0  0  0  0  0  0  0  0  0
  189.2200  176.0080  135.7660 O   0  0  0  0  0  0  0  0  0  0  0  0
  190.5540  176.1210  136.1190 N   0  0  0  0  0  0  0  0  0  0  0  0
  192.6620  175.9790  136.0070 C   0  0  0  0  0  0  0  0  0  0  0  0
  191.5360  175.7360  135.3160 N   0  0  0  0  0  2  0  0  0  0  0  0
  190.9920  176.6050  137.2750 N   0  0  0  0  0  0  0  0  0  0  0  0
  192.3350  176.5430  137.2230 C   0  0  0  0  0  0  0  0  0  0  0  0
  193.8170  175.6990  135.5920 O   0  0  0  0  0  0  0  0  0  0  0  0
  193.8170  175.7010  138.9000 O   0  0  0  0  0  1  0  0  0  0  0  0
  193.2380  176.8640  138.3830 C   0  0  2  0  0  3  0  0  0  0  0  0
  192.5590  177.6120  139.4410 N   0  0  0  0  0  2  0  0  0  0  0  0
  191.2030  177.2410  139.4680 N   0  0  0  0  0  2  0  0  0  0  0  0
  190.8360  177.0560  140.8680 C   0  0  2  0  0  3  0  0  0  0  0  0
  189.3220  177.0520  141.0460 C   0  0  2  0  0  3  0  0  0  0  0  0
  188.7390  178.2820  140.3820 C   0  0  0  0  0  2  0  0  0  0  0  0
  188.8910  178.2440  141.8910 C   0  0  1  0  0  3  0  0  0  0  0  0
  183.0640  178.1300  144.4510 C   0  0  0  0  0  1  0  0  0  0  0  0
  188.8880  176.6100  144.3420 C   0  0  0  0  0  2  0  0  0  0  0  0
  187.5830  177.2050  143.8360 C   0  0  0  0  0  0  0  0  0  0  0  0
  186.5490  177.5210  141.6720 O   0  0  0  0  0  0  0  0  0  0  0  0
  183.2370  179.5960  142.1290 S   0  0  0  0  0  0  0  0  0  0  0  0
  185.4750  179.2960  145.5980 C   0  0  0  0  0  2  0  0  0  0  0  0
  187.9110  175.7500  143.5600 C   0  0  0  0  0  2  0  0  0  0  0  0
  186.7550  178.4770  145.5130 C   0  0  2  0  0  3  0  0  0  0  0  0
  185.6770  178.5810  141.4060 C   0  0  0  0  0  2  0  0  0  0  0  0
  183.5610  179.4720  143.9260 C   0  0  2  0  0  3  0  0  0  0  0  0
  184.2480  178.1480  141.6630 C   0  0  0  0  0  2  0  0  0  0  0  0
  187.5090  178.0520  142.5480 C   0  0  2  0  0  3  0  0  0  0  0  0
  185.0450  179.7130  144.2010 C   0  0  0  0  0  2  0  0  0  0  0  0
  186.5330  177.3070  144.7650 O   0  0  0  0  0  0  0  0  0  0  0  0
  187.2130  178.1320  146.8950 C   0  0  0  0  0  0  0  0  0  0  0  0
  186.4610  178.5360  147.9900 O   0  0  0  0  0  1  0  0  0  0  0  0
  188.2560  177.4460  147.0700 O   0  0  0  0  0  0  0  0  0  0  0  0
  191.9030  177.3800  142.7560 O   0  0  0  0  0  1  0  0  0  0  0  0
  191.4490  178.0200  141.6940 O   0  0  0  0  0  0  0  0  0  0  0  0
  1 17  2  0  0  0  0
  2  5  1  0  0  0  0
  3  7  2  0  0  0  0
  4  6  2  0  0  0  0
  6 13  1  0  0  0  0
  7  8  1  0  0  0  0
  9 33  1  1  0  0  0
  9  8  1  0  0  0  0
 10 16  1  0  0  0  0
 11  6  1  0  0  0  0
 12 19  2  0  0  0  0
 13  9  1  0  0  0  0
 14 22  1  0  0  0  0
 15 23  1  0  0  0  0
 15  3  1  0  0  0  0
 16  1  1  0  0  0  0
 17 18  1  0  0  0  0
 18  5  1  0  0  0  0
 19 11  1  0  0  0  0
 19 10  1  0  0  0  0
 20 12  1  0  0  0  0
 21 14  2  0  0  0  0
 21 12  1  0  0  0  0
 22 11  2  0  0  0  0
 23  2  1  0  0  0  0
 24 25  1  0  0  0  0
 25 27  1  1  0  0  0
 26 29  1  0  0  0  0
 28 25  1  0  0  0  0
 29 28  1  0  0  0  0
 30 26  1  0  0  0  0
 30 31  1  0  0  0  0
 31  3  1  1  0  0  0
 31 24  1  0  0  0  0
 32 33  1  0  0  0  0
 33 34  2  0  0  0  0
 35 36  1  0  0  0  0
 35  1  1  0  0  0  0
 36 39  1  0  0  0  0
 37 40  1  0  0  0  0
 38 37  1  0  0  0  0
 38 36  1  0  0  0  0
 40 39  2  0  0  0  0
 40 43  1  0  0  0  0
 41 37  2  0  0  0  0
 43 42  1  1  0  0  0
 43 44  1  0  0  0  0
 44 45  1  0  0  0  0
 46 45  1  6  0  0  0
 46 68  1  0  0  0  0
 47 46  1  6  0  0  0
 47 49  1  0  0  0  0
 48 47  1  0  0  0  0
 49 48  1  6  0  0  0
 49 61  1  0  0  0  0
 52 51  1  0  0  0  0
 52 63  1  0  0  0  0
 54 59  1  0  0  0  0
 56 52  1  0  0  0  0
 56 51  1  0  0  0  0
 57 55  1  0  0  0  0
 57 64  1  1  0  0  0
 58 60  1  0  0  0  0
 58 53  1  0  0  0  0
 59 62  1  0  0  0  0
 59 50  1  6  0  0  0
 60 54  1  0  0  0  0
 61 53  1  6  0  0  0
 61 52  1  0  0  0  0
 62 55  1  0  0  0  0
 63 57  1  0  0  0  0
 64 66  2  0  0  0  0
 64 65  1  0  0  0  0
 68 67  1  0  0  0  0
M  END
>  <MODEL>
1

>  <REMARK>
 VINA RESULT:      -6.4      0.000      0.000
  Name = 
  12 active torsions:
  status: ('A' for Active; 'I' for Inactive)
    1  A    between atoms: N_2  and  C_56
    2  A    between atoms: N_2  and  N_68
    3  A    between atoms: C_3  and  C_30
    4  A    between atoms: N_5  and  O_53
    5  A    between atoms: C_6  and  O_53
    6  A    between atoms: C_9  and  C_66
    7  A    between atoms: C_11  and  C_60
    8  A    between atoms: C_25  and  C_34
    9  A    between atoms: C_48  and  C_56
   10  A    between atoms: C_51  and  C_61
   11  A    between atoms: O_63  and  C_66
   12  A    between atoms: C_66  and  N_68
                            x       y       z     vdW  Elec       q    Type
                         _______ _______ _______ _____ _____    ______ ____

>  <TORSDO>
F 12

$$$$
=
 OpenBabel10232412133D

 68 74  0  0  1  0  0  0  0  0999 V2000
  188.3730  174.0410  135.5460 C   0  0  0  0  0  0  0  0  0  0  0  0
  184.8090  176.4630  135.8360 C   0  0  0  0  0  2  0  0  0  0  0  0
  181.8530  175.4030  135.6490 C   0  0  0  0  0  0  0  0  0  0  0  0
  184.6000  172.4330  134.4030 O   0  0  0  0  0  0  0  0  0  0  0  0
  185.8500  176.3050  136.9300 C   0  0  0  0  0  2  0  0  0  0  0  0
  184.4410  171.3500  135.0280 C   0  0  0  0  0  0  0  0  0  0  0  0
  181.6300  174.4120  136.5140 C   0  0  0  0  0  3  0  0  0  0  0  0
  182.5560  173.2600  136.7330 C   0  0  0  0  0  2  0  0  0  0  0  0
  182.1590  172.0980  135.8210 C   0  0  1  0  0  3  0  0  0  0  0  0
  187.2440  172.0200  134.8920 N   0  0  0  0  0  2  0  0  0  0  0  0
  185.4890  170.3100  135.0090 C   0  0  0  0  0  0  0  0  0  0  0  0
  187.8060  169.5890  134.8970 C   0  0  0  0  0  0  0  0  0  0  0  0
  183.2300  171.1150  135.7480 N   0  0  0  0  0  2  0  0  0  0  0  0
  186.0160  167.9940  135.1400 C   0  0  0  0  0  3  0  0  0  0  0  0
  183.0810  175.5170  134.9130 N   0  0  0  0  0  2  0  0  0  0  0  0
  188.4590  172.5510  135.4890 C   0  0  0  0  0  2  0  0  0  0  0  0
  187.3920  174.5720  136.2050 N   0  0  0  0  0  0  0  0  0  0  0  0
  187.2110  176.0090  136.3310 C   0  0  0  0  0  2  0  0  0  0  0  0
  186.8600  170.6380  134.9130 C   0  0  0  0  0  0  0  0  0  0  0  0
  189.2670  169.8290  134.7130 C   0  0  0  0  0  1  0  0  0  0  0  0
  187.3760  168.2680  135.0100 C   0  0  0  0  0  3  0  0  0  0  0  0
  185.1160  169.0080  135.1380 N   0  0  0  0  0  0  0  0  0  0  0  0
  184.2860  175.2220  135.4620 O   0  0  0  0  0  0  0  0  0  0  0  0
  180.0210  176.8950  136.6540 C   0  0  0  0  0  2  0  0  0  0  0  0
  180.8980  177.6390  137.6720 C   0  0  2  0  0  3  0  0  0  0  0  0
  181.9670  178.5380  134.8580 C   0  0  0  0  0  2  0  0  0  0  0  0
  180.0790  178.2960  138.5890 O   0  0  0  0  0  1  0  0  0  0  0  0
  181.8820  178.6400  137.0610 C   0  0  0  0  0  2  0  0  0  0  0  0
  181.3600  179.2340  135.9080 O   0  0  0  0  0  0  0  0  0  0  0  0
  181.0400  177.4420  134.3460 C   0  0  0  0  0  2  0  0  0  0  0  0
  180.7360  176.3720  135.4010 C   0  0  1  0  0  3  0  0  0  0  0  0
  180.5950  171.4320  137.7010 N   0  0  0  0  0  1  0  0  0  0  0  0
  180.9100  171.4400  136.3130 C   0  0  0  0  0  0  0  0  0  0  0  0
  180.1260  170.9000  135.4910 O   0  0  0  0  0  0  0  0  0  0  0  0
  189.3040  174.8620  134.8820 O   0  0  0  0  0  0  0  0  0  0  0  0
  190.6640  174.8540  135.1390 N   0  0  0  0  0  0  0  0  0  0  0  0
  192.7190  174.3840  134.9680 C   0  0  0  0  0  0  0  0  0  0  0  0
  191.5220  174.1620  134.4030 N   0  0  0  0  0  2  0  0  0  0  0  0
  191.2500  175.5110  136.1330 N   0  0  0  0  0  0  0  0  0  0  0  0
  192.5650  175.2430  136.0360 C   0  0  0  0  0  0  0  0  0  0  0  0
  193.7920  173.8540  134.5760 O   0  0  0  0  0  0  0  0  0  0  0  0
  193.9530  174.6090  137.8760 O   0  0  0  0  0  1  0  0  0  0  0  0
  193.5880  175.6760  137.0510 C   0  0  2  0  0  3  0  0  0  0  0  0
  193.1460  176.8170  137.8530 N   0  0  0  0  0  2  0  0  0  0  0  0
  191.9190  176.5010  138.4630 N   0  0  0  0  0  2  0  0  0  0  0  0
  192.0860  176.7120  139.8980 C   0  0  2  0  0  3  0  0  0  0  0  0
  190.7430  176.6880  140.6190 C   0  0  2  0  0  3  0  0  0  0  0  0
  190.0940  178.0510  140.5090 C   0  0  0  0  0  2  0  0  0  0  0  0
  190.7690  177.6430  141.8040 C   0  0  1  0  0  3  0  0  0  0  0  0
  186.2200  176.9910  146.2100 C   0  0  0  0  0  1  0  0  0  0  0  0
  191.5540  175.6090  143.7850 C   0  0  0  0  0  2  0  0  0  0  0  0
  190.1840  176.2620  143.8830 C   0  0  0  0  0  0  0  0  0  0  0  0
  188.4680  176.9320  142.3130 O   0  0  0  0  0  0  0  0  0  0  0  0
  185.6310  178.8410  144.2590 S   0  0  0  0  0  0  0  0  0  0  0  0
  188.9320  177.9810  146.6040 C   0  0  0  0  0  2  0  0  0  0  0  0
  190.3250  174.8820  143.2680 C   0  0  0  0  0  2  0  0  0  0  0  0
  190.0600  177.2100  145.9330 C   0  0  2  0  0  3  0  0  0  0  0  0
  187.6090  178.0070  142.5560 C   0  0  0  0  0  2  0  0  0  0  0  0
  186.5610  178.4120  145.7750 C   0  0  2  0  0  3  0  0  0  0  0  0
  186.3440  177.5130  143.2280 C   0  0  0  0  0  2  0  0  0  0  0  0
  189.7000  177.3180  142.8670 C   0  0  2  0  0  3  0  0  0  0  0  0
  188.0560  178.6260  145.5420 C   0  0  0  0  0  2  0  0  0  0  0  0
  189.5340  176.1840  145.1280 O   0  0  0  0  0  0  0  0  0  0  0  0
  190.9590  176.6370  146.9830 C   0  0  0  0  0  0  0  0  0  0  0  0
  191.8910  177.4540  147.6100 O   0  0  0  0  0  1  0  0  0  0  0  0
  190.8520  175.4300  147.3280 O   0  0  0  0  0  0  0  0  0  0  0  0
  194.0550  177.5620  140.3520 O   0  0  0  0  0  1  0  0  0  0  0  0
  192.7930  177.9020  140.1640 O   0  0  0  0  0  0  0  0  0  0  0  0
  1 17  2  0  0  0  0
  2  5  1  0  0  0  0
  3  7  2  0  0  0  0
  4  6  2  0  0  0  0
  6 13  1  0  0  0  0
  7  8  1  0  0  0  0
  9 33  1  1  0  0  0
  9  8  1  0  0  0  0
 10 19  1  0  0  0  0
 10 16  1  0  0  0  0
 11  6  1  0  0  0  0
 11 22  1  0  0  0  0
 12 19  1  0  0  0  0
 12 21  2  0  0  0  0
 13  9  1  0  0  0  0
 15 23  1  0  0  0  0
 15  3  1  0  0  0  0
 16  1  1  0  0  0  0
 17 18  1  0  0  0  0
 18  5  1  0  0  0  0
 19 11  2  0  0  0  0
 20 12  1  0  0  0  0
 21 14  1  0  0  0  0
 22 14  2  0  0  0  0
 23  2  1  0  0  0  0
 24 25  1  0  0  0  0
 25 27  1  1  0  0  0
 26 29  1  0  0  0  0
 28 25  1  0  0  0  0
 29 28  1  0  0  0  0
 30 26  1  0  0  0  0
 30 31  1  0  0  0  0
 31  3  1  1  0  0  0
 31 24  1  0  0  0  0
 33 32  1  0  0  0  0
 34 33  2  0  0  0  0
 35 36  1  0  0  0  0
 35  1  1  0  0  0  0
 36 39  1  0  0  0  0
 37 40  1  0  0  0  0
 38 37  1  0  0  0  0
 38 36  1  0  0  0  0
 40 39  2  0  0  0  0
 40 43  1  0  0  0  0
 41 37  2  0  0  0  0
 43 44  1  0  0  0  0
 43 42  1  1  0  0  0
 44 45  1  0  0  0  0
 46 45  1  6  0  0  0
 46 68  1  0  0  0  0
 47 46  1  6  0  0  0
 47 49  1  0  0  0  0
 48 47  1  0  0  0  0
 49 48  1  6  0  0  0
 49 61  1  0  0  0  0
 51 52  1  0  0  0  0
 52 63  1  0  0  0  0
 53 58  1  0  0  0  0
 54 59  1  0  0  0  0
 56 51  1  0  0  0  0
 56 52  1  0  0  0  0
 57 55  1  0  0  0  0
 57 64  1  1  0  0  0
 58 60  1  0  0  0  0
 59 50  1  6  0  0  0
 60 54  1  0  0  0  0
 61 53  1  6  0  0  0
 61 52  1  0  0  0  0
 62 59  1  0  0  0  0
 62 55  1  0  0  0  0
 63 57  1  0  0  0  0
 64 66  2  0  0  0  0
 64 65  1  0  0  0  0
 68 67  1  0  0  0  0
M  END
>  <MODEL>
2

>  <REMARK>
 VINA RESULT:      -6.1      1.699      2.086
  Name = 
  12 active torsions:
  status: ('A' for Active; 'I' for Inactive)
    1  A    between atoms: N_2  and  C_56
    2  A    between atoms: N_2  and  N_68
    3  A    between atoms: C_3  and  C_30
    4  A    between atoms: N_5  and  O_53
    5  A    between atoms: C_6  and  O_53
    6  A    between atoms: C_9  and  C_66
    7  A    between atoms: C_11  and  C_60
    8  A    between atoms: C_25  and  C_34
    9  A    between atoms: C_48  and  C_56
   10  A    between atoms: C_51  and  C_61
   11  A    between atoms: O_63  and  C_66
   12  A    between atoms: C_66  and  N_68
                            x       y       z     vdW  Elec       q    Type
                         _______ _______ _______ _____ _____    ______ ____

>  <TORSDO>
F 12

$$$$
=
 OpenBabel10232412133D

 68 74  0  0  1  0  0  0  0  0999 V2000
  189.3150  174.4300  136.2690 C   0  0  0  0  0  0  0  0  0  0  0  0
  185.1940  175.6890  136.5500 C   0  0  0  0  0  2  0  0  0  0  0  0
  182.6890  173.9520  135.7710 C   0  0  0  0  0  0  0  0  0  0  0  0
  186.2580  172.1750  134.3460 O   0  0  0  0  0  0  0  0  0  0  0  0
  186.1540  175.5740  137.7200 C   0  0  0  0  0  2  0  0  0  0  0  0
  186.3720  170.9770  134.7220 C   0  0  0  0  0  0  0  0  0  0  0  0
  182.6990  172.7700  136.3900 C   0  0  0  0  0  3  0  0  0  0  0  0
  183.8990  171.8860  136.5010 C   0  0  0  0  0  2  0  0  0  0  0  0
  183.9200  170.8960  135.3360 C   0  0  1  0  0  3  0  0  0  0  0  0
  188.8660  172.3810  135.0910 N   0  0  0  0  0  2  0  0  0  0  0  0
  187.6740  170.2850  134.6400 C   0  0  0  0  0  0  0  0  0  0  0  0
  190.1020  170.2490  134.6970 C   0  0  0  0  0  0  0  0  0  0  0  0
  185.2310  170.2750  135.2160 N   0  0  0  0  0  2  0  0  0  0  0  0
  188.8340  168.2240  134.3870 C   0  0  0  0  0  3  0  0  0  0  0  0
  183.8830  174.5500  135.2410 N   0  0  0  0  0  2  0  0  0  0  0  0
  189.8310  173.0680  135.9340 C   0  0  0  0  0  2  0  0  0  0  0  0
  188.1780  174.5190  136.8820 N   0  0  0  0  0  0  0  0  0  0  0  0
  187.5820  175.7910  137.2600 C   0  0  0  0  0  2  0  0  0  0  0  0
  188.8950  170.9780  134.7920 C   0  0  0  0  0  0  0  0  0  0  0  0
  191.4410  170.9030  134.7590 C   0  0  0  0  0  1  0  0  0  0  0  0
  190.0630  168.8710  134.4940 C   0  0  0  0  0  3  0  0  0  0  0  0
  187.6830  168.9360  134.4620 N   0  0  0  0  0  0  0  0  0  0  0  0
  185.0780  174.4700  135.8760 O   0  0  0  0  0  0  0  0  0  0  0  0
  180.4800  174.7320  136.8210 C   0  0  0  0  0  2  0  0  0  0  0  0
  181.0790  175.5110  138.0020 C   0  0  2  0  0  3  0  0  0  0  0  0
  181.9780  177.0910  135.4390 C   0  0  0  0  0  2  0  0  0  0  0  0
  180.0740  175.7770  138.9320 O   0  0  0  0  0  1  0  0  0  0  0  0
  181.7770  176.8190  137.6210 C   0  0  0  0  0  2  0  0  0  0  0  0
  181.1610  177.4280  136.5230 O   0  0  0  0  0  0  0  0  0  0  0  0
  181.4070  175.8830  134.7040 C   0  0  0  0  0  2  0  0  0  0  0  0
  181.3620  174.6190  135.5700 C   0  0  1  0  0  3  0  0  0  0  0  0
  181.5100  170.1140  135.2590 N   0  0  0  0  0  1  0  0  0  0  0  0
  182.8810  169.8370  135.5220 C   0  0  0  0  0  0  0  0  0  0  0  0
  183.2240  168.6880  135.9020 O   0  0  0  0  0  0  0  0  0  0  0  0
  190.0160  175.5950  135.9060 O   0  0  0  0  0  0  0  0  0  0  0  0
  191.2180  175.9830  136.4730 N   0  0  0  0  0  0  0  0  0  0  0  0
  193.2780  176.4250  136.6650 C   0  0  0  0  0  0  0  0  0  0  0  0
  192.3460  176.0350  135.7800 N   0  0  0  0  0  2  0  0  0  0  0  0
  191.3770  176.3290  137.7450 N   0  0  0  0  0  0  0  0  0  0  0  0
  192.6800  176.6330  137.8900 C   0  0  0  0  0  0  0  0  0  0  0  0
  194.5010  176.5450  136.3930 O   0  0  0  0  0  0  0  0  0  0  0  0
  193.5140  175.7800  139.9620 O   0  0  0  0  0  1  0  0  0  0  0  0
  193.3270  176.9450  139.2120 C   0  0  2  0  0  3  0  0  0  0  0  0
  192.5880  177.9400  139.9870 N   0  0  0  0  0  2  0  0  0  0  0  0
  191.2090  177.6870  139.8630 N   0  0  0  0  0  2  0  0  0  0  0  0
  190.7340  177.2520  141.1730 C   0  0  2  0  0  3  0  0  0  0  0  0
  189.2110  177.1760  141.2090 C   0  0  2  0  0  3  0  0  0  0  0  0
  188.6360  178.3160  140.3970 C   0  0  0  0  0  2  0  0  0  0  0  0
  188.6420  178.4020  141.9110 C   0  0  1  0  0  3  0  0  0  0  0  0
  182.6060  178.1480  143.9170 C   0  0  0  0  0  1  0  0  0  0  0  0
  188.4840  176.9730  144.4820 C   0  0  0  0  0  2  0  0  0  0  0  0
  187.2050  177.4470  143.8070 C   0  0  0  0  0  0  0  0  0  0  0  0
  186.3730  177.5260  141.5370 O   0  0  0  0  0  0  0  0  0  0  0  0
  182.9300  179.4300  141.5030 S   0  0  0  0  0  0  0  0  0  0  0  0
  184.8300  179.5450  145.1790 C   0  0  0  0  0  2  0  0  0  0  0  0
  187.6330  175.9970  143.6890 C   0  0  0  0  0  2  0  0  0  0  0  0
  186.1520  178.7990  145.2850 C   0  0  2  0  0  3  0  0  0  0  0  0
  185.4780  178.5070  141.1010 C   0  0  0  0  0  2  0  0  0  0  0  0
  183.0820  179.4710  143.3270 C   0  0  2  0  0  3  0  0  0  0  0  0
  184.0540  178.0120  141.2590 C   0  0  0  0  0  2  0  0  0  0  0  0
  187.2140  178.1820  142.4500 C   0  0  2  0  0  3  0  0  0  0  0  0
  184.5180  179.8210  143.7170 C   0  0  0  0  0  2  0  0  0  0  0  0
  186.0650  177.5610  144.6220 O   0  0  0  0  0  0  0  0  0  0  0  0
  186.4900  178.5940  146.7280 C   0  0  0  0  0  0  0  0  0  0  0  0
  186.0330  179.4980  147.6760 O   0  0  0  0  0  1  0  0  0  0  0  0
  187.1550  177.5870  147.0910 O   0  0  0  0  0  0  0  0  0  0  0  0
  191.9370  177.3010  143.0050 O   0  0  0  0  0  1  0  0  0  0  0  0
  191.2320  178.0770  142.2020 O   0  0  0  0  0  0  0  0  0  0  0  0
  1 17  2  0  0  0  0
  2  5  1  0  0  0  0
  3  7  2  0  0  0  0
  4  6  2  0  0  0  0
  6 13  1  0  0  0  0
  7  8  1  0  0  0  0
  9 33  1  1  0  0  0
  9  8  1  0  0  0  0
 10 16  1  0  0  0  0
 11  6  1  0  0  0  0
 11 19  1  0  0  0  0
 12 20  1  0  0  0  0
 12 19  2  0  0  0  0
 13  9  1  0  0  0  0
 14 22  1  0  0  0  0
 14 21  2  0  0  0  0
 15  3  1  0  0  0  0
 15 23  1  0  0  0  0
 16  1  1  0  0  0  0
 17 18  1  0  0  0  0
 18  5  1  0  0  0  0
 19 10  1  0  0  0  0
 21 12  1  0  0  0  0
 22 11  2  0  0  0  0
 23  2  1  0  0  0  0
 24 25  1  0  0  0  0
 25 27  1  1  0  0  0
 26 29  1  0  0  0  0
 28 25  1  0  0  0  0
 29 28  1  0  0  0  0
 30 26  1  0  0  0  0
 30 31  1  0  0  0  0
 31  3  1  1  0  0  0
 31 24  1  0  0  0  0
 32 33  1  0  0  0  0
 33 34  2  0  0  0  0
 35  1  1  0  0  0  0
 35 36  1  0  0  0  0
 36 39  1  0  0  0  0
 37 40  1  0  0  0  0
 38 36  1  0  0  0  0
 38 37  1  0  0  0  0
 39 40  2  0  0  0  0
 40 43  1  0  0  0  0
 41 37  2  0  0  0  0
 43 42  1  1  0  0  0
 43 44  1  0  0  0  0
 45 44  1  0  0  0  0
 46 45  1  6  0  0  0
 46 68  1  0  0  0  0
 47 46  1  6  0  0  0
 47 49  1  0  0  0  0
 48 47  1  0  0  0  0
 49 48  1  6  0  0  0
 49 61  1  0  0  0  0
 52 51  1  0  0  0  0
 52 63  1  0  0  0  0
 54 59  1  0  0  0  0
 55 57  1  0  0  0  0
 56 52  1  0  0  0  0
 56 51  1  0  0  0  0
 57 64  1  1  0  0  0
 58 60  1  0  0  0  0
 58 53  1  0  0  0  0
 59 62  1  0  0  0  0
 59 50  1  1  0  0  0
 60 54  1  0  0  0  0
 61 53  1  6  0  0  0
 61 52  1  0  0  0  0
 62 55  1  0  0  0  0
 63 57  1  0  0  0  0
 64 66  2  0  0  0  0
 64 65  1  0  0  0  0
 68 67  1  0  0  0  0
M  END
>  <MODEL>
3

>  <REMARK>
 VINA RESULT:      -5.7      1.371      1.694
  Name = 
  12 active torsions:
  status: ('A' for Active; 'I' for Inactive)
    1  A    between atoms: N_2  and  C_56
    2  A    between atoms: N_2  and  N_68
    3  A    between atoms: C_3  and  C_30
    4  A    between atoms: N_5  and  O_53
    5  A    between atoms: C_6  and  O_53
    6  A    between atoms: C_9  and  C_66
    7  A    between atoms: C_11  and  C_60
    8  A    between atoms: C_25  and  C_34
    9  A    between atoms: C_48  and  C_56
   10  A    between atoms: C_51  and  C_61
   11  A    between atoms: O_63  and  C_66
   12  A    between atoms: C_66  and  N_68
                            x       y       z     vdW  Elec       q    Type
                         _______ _______ _______ _____ _____    ______ ____

>  <TORSDO>
F 12

$$$$
=
 OpenBabel10232412133D

 68 74  0  0  1  0  0  0  0  0999 V2000
  188.2090  176.4280  134.7630 C   0  0  0  0  0  0  0  0  0  0  0  0
  192.3200  175.4290  135.6300 C   0  0  0  0  0  2  0  0  0  0  0  0
  193.4290  172.5350  136.1650 C   0  0  0  0  0  0  0  0  0  0  0  0
  189.1970  172.5690  136.2660 O   0  0  0  0  0  0  0  0  0  0  0  0
  191.8300  176.0810  134.3490 C   0  0  0  0  0  2  0  0  0  0  0  0
  188.6990  171.7150  135.4840 C   0  0  0  0  0  0  0  0  0  0  0  0
  193.1030  171.6930  135.1820 C   0  0  0  0  0  3  0  0  0  0  0  0
  191.7420  171.5970  134.5730 C   0  0  0  0  0  2  0  0  0  0  0  0
  190.9250  170.5290  135.3000 C   0  0  1  0  0  3  0  0  0  0  0  0
  187.3230  174.2370  135.2140 N   0  0  0  0  0  2  0  0  0  0  0  0
  187.2750  171.7870  135.1030 C   0  0  0  0  0  0  0  0  0  0  0  0
  185.2300  173.0120  134.6310 C   0  0  0  0  0  0  0  0  0  0  0  0
  189.5110  170.6560  134.9760 N   0  0  0  0  0  2  0  0  0  0  0  0
  185.3190  170.6120  134.4260 C   0  0  0  0  0  3  0  0  0  0  0  0
  192.5160  173.5250  136.6620 N   0  0  0  0  0  2  0  0  0  0  0  0
  187.0760  175.4870  134.5120 C   0  0  0  0  0  2  0  0  0  0  0  0
  189.4010  176.0560  134.4180 N   0  0  0  0  0  0  0  0  0  0  0  0
  190.5760  176.8910  134.6100 C   0  0  0  0  0  2  0  0  0  0  0  0
  186.5950  173.0210  134.9990 C   0  0  0  0  0  0  0  0  0  0  0  0
  184.4050  174.2530  134.5770 C   0  0  0  0  0  1  0  0  0  0  0  0
  184.5990  171.8020  134.3460 C   0  0  0  0  0  3  0  0  0  0  0  0
  186.6240  170.6320  134.7970 N   0  0  0  0  0  0  0  0  0  0  0  0
  191.6740  174.2090  135.8480 O   0  0  0  0  0  0  0  0  0  0  0  0
  195.9710  172.3730  135.8430 C   0  0  0  0  0  2  0  0  0  0  0  0
  196.1520  173.6410  134.9960 C   0  0  2  0  0  3  0  0  0  0  0  0
  195.2190  174.6640  137.8170 C   0  0  0  0  0  2  0  0  0  0  0  0
  197.4140  173.6220  134.4040 O   0  0  0  0  0  1  0  0  0  0  0  0
  195.9690  174.9550  135.7610 C   0  0  0  0  0  2  0  0  0  0  0  0
  196.3990  174.8400  137.0870 O   0  0  0  0  0  0  0  0  0  0  0  0
  194.9810  173.1830  138.0850 C   0  0  0  0  0  2  0  0  0  0  0  0
  194.7750  172.3660  136.8040 C   0  0  1  0  0  3  0  0  0  0  0  0
  190.4790  168.1720  134.4800 N   0  0  0  0  0  1  0  0  0  0  0  0
  191.3990  169.1580  134.9360 C   0  0  0  0  0  0  0  0  0  0  0  0
  192.6230  168.8800  135.0220 O   0  0  0  0  0  0  0  0  0  0  0  0
  188.0100  177.6750  135.3840 O   0  0  0  0  0  0  0  0  0  0  0  0
  187.6920  177.8300  136.7220 N   0  0  0  0  0  0  0  0  0  0  0  0
  186.5750  178.2650  138.4660 C   0  0  0  0  0  0  0  0  0  0  0  0
  186.4870  178.2050  137.1270 N   0  0  0  0  0  2  0  0  0  0  0  0
  188.5370  177.6370  137.7280 N   0  0  0  0  0  0  0  0  0  0  0  0
  187.8450  177.8900  138.8540 C   0  0  0  0  0  0  0  0  0  0  0  0
  185.6370  178.6340  139.2180 O   0  0  0  0  0  0  0  0  0  0  0  0
  189.1190  179.1370  140.4460 O   0  0  0  0  0  1  0  0  0  0  0  0
  188.4580  177.9260  140.2270 C   0  0  2  0  0  3  0  0  0  0  0  0
  189.3560  176.7990  140.4790 N   0  0  0  0  0  2  0  0  0  0  0  0
  190.5870  177.0420  139.8420 N   0  0  0  0  0  2  0  0  0  0  0  0
  191.5810  177.2450  140.8920 C   0  0  2  0  0  3  0  0  0  0  0  0
  190.9170  177.5850  142.2220 C   0  0  2  0  0  3  0  0  0  0  0  0
  191.9510  178.1700  143.1590 C   0  0  0  0  0  2  0  0  0  0  0  0
  191.5080  176.7300  143.3350 C   0  0  1  0  0  3  0  0  0  0  0  0
  187.5600  176.9430  148.3240 C   0  0  0  0  0  1  0  0  0  0  0  0
  192.5600  175.0790  145.5360 C   0  0  0  0  0  2  0  0  0  0  0  0
  191.2060  175.7560  145.6860 C   0  0  0  0  0  0  0  0  0  0  0  0
  189.2990  176.1510  144.2510 O   0  0  0  0  0  0  0  0  0  0  0  0
  186.7090  178.4150  146.1600 S   0  0  0  0  0  0  0  0  0  0  0  0
  190.2890  177.9540  148.1870 C   0  0  0  0  0  2  0  0  0  0  0  0
  191.2830  174.2860  145.3190 C   0  0  0  0  0  2  0  0  0  0  0  0
  191.3320  177.0610  147.5300 C   0  0  2  0  0  3  0  0  0  0  0  0
  188.4650  177.2620  144.4010 C   0  0  0  0  0  2  0  0  0  0  0  0
  187.8280  178.2570  147.6000 C   0  0  2  0  0  3  0  0  0  0  0  0
  187.3000  176.9140  145.3050 C   0  0  0  0  0  2  0  0  0  0  0  0
  190.5860  176.6160  144.5660 C   0  0  2  0  0  3  0  0  0  0  0  0
  189.2790  178.4070  147.1440 C   0  0  0  0  0  2  0  0  0  0  0  0
  190.7200  175.9120  146.9970 O   0  0  0  0  0  0  0  0  0  0  0  0
  192.3630  176.6770  148.5440 C   0  0  0  0  0  0  0  0  0  0  0  0
  192.9330  177.6550  149.3480 O   0  0  0  0  0  1  0  0  0  0  0  0
  192.6890  175.4700  148.6980 O   0  0  0  0  0  0  0  0  0  0  0  0
  193.4570  177.6060  139.8170 O   0  0  0  0  0  1  0  0  0  0  0  0
  192.5270  178.2220  140.5240 O   0  0  0  0  0  0  0  0  0  0  0  0
  1 35  1  0  0  0  0
  2 23  1  0  0  0  0
  3 15  1  0  0  0  0
  5 18  1  0  0  0  0
  5  2  1  0  0  0  0
  6  4  2  0  0  0  0
  7  3  2  0  0  0  0
  8  7  1  0  0  0  0
  8  9  1  0  0  0  0
  9 33  1  6  0  0  0
 11  6  1  0  0  0  0
 12 19  2  0  0  0  0
 13  9  1  0  0  0  0
 13  6  1  0  0  0  0
 14 22  1  0  0  0  0
 16  1  1  0  0  0  0
 16 10  1  0  0  0  0
 17 18  1  0  0  0  0
 17  1  2  0  0  0  0
 19 11  1  0  0  0  0
 19 10  1  0  0  0  0
 20 12  1  0  0  0  0
 21 14  2  0  0  0  0
 21 12  1  0  0  0  0
 22 11  2  0  0  0  0
 23 15  1  0  0  0  0
 24 31  1  0  0  0  0
 25 27  1  1  0  0  0
 25 28  1  0  0  0  0
 25 24  1  0  0  0  0
 26 30  1  0  0  0  0
 28 29  1  0  0  0  0
 29 26  1  0  0  0  0
 31  3  1  6  0  0  0
 31 30  1  0  0  0  0
 32 33  1  0  0  0  0
 33 34  2  0  0  0  0
 35 36  1  0  0  0  0
 36 38  1  0  0  0  0
 36 39  1  0  0  0  0
 37 40  1  0  0  0  0
 37 41  2  0  0  0  0
 38 37  1  0  0  0  0
 39 40  2  0  0  0  0
 40 43  1  0  0  0  0
 43 42  1  6  0  0  0
 43 44  1  0  0  0  0
 45 44  1  0  0  0  0
 46 45  1  6  0  0  0
 47 46  1  6  0  0  0
 47 48  1  0  0  0  0
 47 49  1  0  0  0  0
 49 48  1  1  0  0  0
 49 61  1  0  0  0  0
 51 52  1  0  0  0  0
 52 63  1  0  0  0  0
 53 58  1  0  0  0  0
 54 59  1  0  0  0  0
 56 51  1  0  0  0  0
 56 52  1  0  0  0  0
 57 55  1  0  0  0  0
 57 64  1  1  0  0  0
 58 60  1  0  0  0  0
 59 50  1  6  0  0  0
 60 54  1  0  0  0  0
 61 53  1  6  0  0  0
 61 52  1  0  0  0  0
 62 59  1  0  0  0  0
 62 55  1  0  0  0  0
 63 57  1  0  0  0  0
 64 66  2  0  0  0  0
 64 65  1  0  0  0  0
 67 68  1  0  0  0  0
 68 46  1  0  0  0  0
M  END
>  <MODEL>
4

>  <REMARK>
 VINA RESULT:      -5.6      3.396      7.819
  Name = 
  12 active torsions:
  status: ('A' for Active; 'I' for Inactive)
    1  A    between atoms: N_2  and  C_56
    2  A    between atoms: N_2  and  N_68
    3  A    between atoms: C_3  and  C_30
    4  A    between atoms: N_5  and  O_53
    5  A    between atoms: C_6  and  O_53
    6  A    between atoms: C_9  and  C_66
    7  A    between atoms: C_11  and  C_60
    8  A    between atoms: C_25  and  C_34
    9  A    between atoms: C_48  and  C_56
   10  A    between atoms: C_51  and  C_61
   11  A    between atoms: O_63  and  C_66
   12  A    between atoms: C_66  and  N_68
                            x       y       z     vdW  Elec       q    Type
                         _______ _______ _______ _____ _____    ______ ____

>  <TORSDO>
F 12

$$$$
=
 OpenBabel10232412133D

 68 74  0  0  1  0  0  0  0  0999 V2000
  186.3330  178.8860  140.7400 C   0  0  0  0  0  0  0  0  0  0  0  0
  186.7970  176.7430  137.0200 C   0  0  0  0  0  2  0  0  0  0  0  0
  184.5350  175.1370  135.5350 C   0  0  0  0  0  0  0  0  0  0  0  0
  183.3350  176.1430  139.4690 O   0  0  0  0  0  0  0  0  0  0  0  0
  186.9960  178.2370  137.1980 C   0  0  0  0  0  2  0  0  0  0  0  0
  182.2300  176.7490  139.4850 C   0  0  0  0  0  0  0  0  0  0  0  0
  183.4510  175.8880  135.3310 C   0  0  0  0  0  3  0  0  0  0  0  0
  182.8330  176.7740  136.3640 C   0  0  0  0  0  2  0  0  0  0  0  0
  181.7440  176.0080  137.1160 C   0  0  1  0  0  3  0  0  0  0  0  0
  184.1200  178.0720  141.2190 N   0  0  0  0  0  2  0  0  0  0  0  0
  181.7970  177.4880  140.6870 C   0  0  0  0  0  0  0  0  0  0  0  0
  182.2370  178.8000  142.6840 C   0  0  0  0  0  0  0  0  0  0  0  0
  181.3790  176.7070  138.3390 N   0  0  0  0  0  2  0  0  0  0  0  0
  179.9830  178.2810  142.0070 C   0  0  0  0  0  3  0  0  0  0  0  0
  185.2900  175.1950  136.7550 N   0  0  0  0  0  2  0  0  0  0  0  0
  185.0680  179.1400  141.4930 C   0  0  0  0  0  2  0  0  0  0  0  0
  186.2670  178.7910  139.4490 N   0  0  0  0  0  0  0  0  0  0  0  0
  187.4340  178.5500  138.6160 C   0  0  0  0  0  2  0  0  0  0  0  0
  182.7250  178.1120  141.5510 C   0  0  0  0  0  0  0  0  0  0  0  0
  183.1390  179.4160  143.6990 C   0  0  0  0  0  1  0  0  0  0  0  0
  180.8630  178.8800  142.9060 C   0  0  0  0  0  3  0  0  0  0  0  0
  180.4640  177.6090  140.9320 N   0  0  0  0  0  0  0  0  0  0  0  0
  185.5120  176.3590  137.4160 O   0  0  0  0  0  0  0  0  0  0  0  0
  186.3990  173.8030  134.3790 C   0  0  0  0  0  2  0  0  0  0  0  0
  187.0260  173.1910  135.6400 C   0  0  2  0  0  3  0  0  0  0  0  0
  184.1570  171.9250  135.4550 C   0  0  0  0  0  2  0  0  0  0  0  0
  188.2780  172.6660  135.3210 O   0  0  0  0  0  1  0  0  0  0  0  0
  186.1790  172.1110  136.3190 C   0  0  0  0  0  2  0  0  0  0  0  0
  185.4420  171.3760  135.3860 O   0  0  0  0  0  0  0  0  0  0  0  0
  183.9620  172.9530  134.3470 C   0  0  0  0  0  2  0  0  0  0  0  0
  184.9080  174.1530  134.4680 C   0  0  1  0  0  3  0  0  0  0  0  0
  179.9890  176.9320  135.5390 N   0  0  0  0  0  1  0  0  0  0  0  0
  180.5320  175.8320  136.2600 C   0  0  0  0  0  0  0  0  0  0  0  0
  179.9940  174.6980  136.1680 O   0  0  0  0  0  0  0  0  0  0  0  0
  187.5650  178.7190  141.3990 O   0  0  0  0  0  0  0  0  0  0  0  0
  187.6900  178.2770  142.7050 N   0  0  0  0  0  0  0  0  0  0  0  0
  187.1590  177.6730  144.6620 C   0  0  0  0  0  0  0  0  0  0  0  0
  186.6410  178.0640  143.4860 N   0  0  0  0  0  2  0  0  0  0  0  0
  188.8440  178.0340  143.3140 N   0  0  0  0  0  0  0  0  0  0  0  0
  188.5340  177.6290  144.5590 C   0  0  0  0  0  0  0  0  0  0  0  0
  186.4720  177.4210  145.6860 O   0  0  0  0  0  0  0  0  0  0  0  0
  189.2330  178.0960  146.7970 O   0  0  0  0  0  1  0  0  0  0  0  0
  189.5510  177.3800  145.6400 C   0  0  2  0  0  3  0  0  0  0  0  0
  190.9180  177.6740  145.2140 N   0  0  0  0  0  2  0  0  0  0  0  0
  190.9010  178.0840  143.8680 N   0  0  0  0  0  2  0  0  0  0  0  0
  191.6000  177.0590  143.0980 C   0  0  2  0  0  3  0  0  0  0  0  0
  191.4410  177.2910  141.6000 C   0  0  2  0  0  3  0  0  0  0  0  0
  190.2100  176.5580  141.1100 C   0  0  0  0  0  2  0  0  0  0  0  0
  191.5850  175.9740  140.8490 C   0  0  1  0  0  3  0  0  0  0  0  0
  192.6800  176.2130  134.5820 C   0  0  0  0  0  1  0  0  0  0  0  0
  194.4280  176.5510  140.3340 C   0  0  0  0  0  2  0  0  0  0  0  0
  193.4600  176.4410  139.1650 C   0  0  0  0  0  0  0  0  0  0  0  0
  191.1900  177.1490  138.7230 O   0  0  0  0  0  0  0  0  0  0  0  0
  190.0560  175.7090  135.2410 S   0  0  0  0  0  0  0  0  0  0  0  0
  193.7340  174.2770  136.4870 C   0  0  0  0  0  2  0  0  0  0  0  0
  193.8750  177.8060  139.6800 C   0  0  0  0  0  2  0  0  0  0  0  0
  194.2610  174.8150  137.8100 C   0  0  2  0  0  3  0  0  0  0  0  0
  190.3390  176.4470  137.8650 C   0  0  0  0  0  2  0  0  0  0  0  0
  191.7720  175.0950  135.0820 C   0  0  2  0  0  3  0  0  0  0  0  0
  190.4420  177.0110  136.4620 C   0  0  0  0  0  2  0  0  0  0  0  0
  191.9560  176.1620  139.3640 C   0  0  2  0  0  3  0  0  0  0  0  0
  192.2320  174.4970  136.4120 C   0  0  0  0  0  2  0  0  0  0  0  0
  194.0240  176.1980  137.8990 O   0  0  0  0  0  0  0  0  0  0  0  0
  195.7270  174.5310  137.9100 C   0  0  0  0  0  0  0  0  0  0  0  0
  196.2700  174.1430  139.1270 O   0  0  0  0  0  1  0  0  0  0  0  0
  196.4640  174.6070  136.8910 O   0  0  0  0  0  0  0  0  0  0  0  0
  192.1630  175.2340  144.1740 O   0  0  0  0  0  1  0  0  0  0  0  0
  191.1820  175.7640  143.4670 O   0  0  0  0  0  0  0  0  0  0  0  0
  1 35  1  0  0  0  0
  1 16  1  0  0  0  0
  2  5  1  0  0  0  0
  2 23  1  0  0  0  0
  3 15  1  0  0  0  0
  4  6  2  0  0  0  0
  5 18  1  0  0  0  0
  6 11  1  0  0  0  0
  7  3  2  0  0  0  0
  7  8  1  0  0  0  0
  8  9  1  0  0  0  0
  9 33  1  6  0  0  0
  9 13  1  0  0  0  0
 10 16  1  0  0  0  0
 10 19  1  0  0  0  0
 11 22  2  0  0  0  0
 11 19  1  0  0  0  0
 12 21  1  0  0  0  0
 12 20  1  0  0  0  0
 13  6  1  0  0  0  0
 14 21  2  0  0  0  0
 15 23  1  0  0  0  0
 17  1  2  0  0  0  0
 18 17  1  0  0  0  0
 19 12  2  0  0  0  0
 22 14  1  0  0  0  0
 24 31  1  0  0  0  0
 24 25  1  0  0  0  0
 25 27  1  6  0  0  0
 25 28  1  0  0  0  0
 29 26  1  0  0  0  0
 29 28  1  0  0  0  0
 30 31  1  0  0  0  0
 30 26  1  0  0  0  0
 31  3  1  1  0  0  0
 32 33  1  0  0  0  0
 34 33  2  0  0  0  0
 35 36  1  0  0  0  0
 36 39  1  0  0  0  0
 36 38  1  0  0  0  0
 37 41  2  0  0  0  0
 38 37  1  0  0  0  0
 39 40  2  0  0  0  0
 40 37  1  0  0  0  0
 40 43  1  0  0  0  0
 43 42  1  1  0  0  0
 44 43  1  0  0  0  0
 45 44  1  0  0  0  0
 46 68  1  1  0  0  0
 46 45  1  0  0  0  0
 47 46  1  1  0  0  0
 48 47  1  0  0  0  0
 49 48  1  6  0  0  0
 49 47  1  0  0  0  0
 52 61  1  0  0  0  0
 52 56  1  0  0  0  0
 52 51  1  0  0  0  0
 54 60  1  0  0  0  0
 55 57  1  0  0  0  0
 56 51  1  0  0  0  0
 57 63  1  0  0  0  0
 57 64  1  6  0  0  0
 58 53  1  0  0  0  0
 59 50  1  1  0  0  0
 59 54  1  0  0  0  0
 59 62  1  0  0  0  0
 60 58  1  0  0  0  0
 61 53  1  1  0  0  0
 61 49  1  0  0  0  0
 62 55  1  0  0  0  0
 63 52  1  0  0  0  0
 64 65  1  0  0  0  0
 66 64  2  0  0  0  0
 68 67  1  0  0  0  0
M  END
>  <MODEL>
5

>  <REMARK>
 VINA RESULT:      -5.1      3.045      8.328
  Name = 
  12 active torsions:
  status: ('A' for Active; 'I' for Inactive)
    1  A    between atoms: N_2  and  C_56
    2  A    between atoms: N_2  and  N_68
    3  A    between atoms: C_3  and  C_30
    4  A    between atoms: N_5  and  O_53
    5  A    between atoms: C_6  and  O_53
    6  A    between atoms: C_9  and  C_66
    7  A    between atoms: C_11  and  C_60
    8  A    between atoms: C_25  and  C_34
    9  A    between atoms: C_48  and  C_56
   10  A    between atoms: C_51  and  C_61
   11  A    between atoms: O_63  and  C_66
   12  A    between atoms: C_66  and  N_68
                            x       y       z     vdW  Elec       q    Type
                         _______ _______ _______ _____ _____    ______ ____

>  <TORSDO>
F 12

$$$$
=
 OpenBabel10232412133D

 68 74  0  0  1  0  0  0  0  0999 V2000
  189.8750  176.8310  137.5610 C   0  0  0  0  0  0  0  0  0  0  0  0
  194.0230  175.8250  138.2180 C   0  0  0  0  0  2  0  0  0  0  0  0
  195.3800  173.0790  137.5000 C   0  0  0  0  0  0  0  0  0  0  0  0
  191.1630  172.7830  137.2700 O   0  0  0  0  0  0  0  0  0  0  0  0
  193.5270  176.9490  137.3250 C   0  0  0  0  0  2  0  0  0  0  0  0
  190.7810  172.3400  136.1530 C   0  0  0  0  0  0  0  0  0  0  0  0
  195.1750  172.7490  136.2230 C   0  0  0  0  0  3  0  0  0  0  0  0
  193.8560  172.8460  135.5280 C   0  0  0  0  0  2  0  0  0  0  0  0
  193.1150  171.5130  135.6390 C   0  0  1  0  0  3  0  0  0  0  0  0
  189.1840  174.6170  136.9220 N   0  0  0  0  0  2  0  0  0  0  0  0
  189.3730  172.4800  135.7320 C   0  0  0  0  0  0  0  0  0  0  0  0
  187.2420  173.6470  135.6910 C   0  0  0  0  0  0  0  0  0  0  0  0
  191.7100  171.6780  135.2940 N   0  0  0  0  0  2  0  0  0  0  0  0
  187.5670  171.6060  134.4510 C   0  0  0  0  0  3  0  0  0  0  0  0
  194.3560  173.6780  138.3100 N   0  0  0  0  0  2  0  0  0  0  0  0
  188.8480  176.0290  136.8300 C   0  0  0  0  0  2  0  0  0  0  0  0
  191.1110  176.7330  137.1820 N   0  0  0  0  0  0  0  0  0  0  0  0
  192.1910  177.4690  137.8180 C   0  0  0  0  0  2  0  0  0  0  0  0
  188.5830  173.5810  136.1320 C   0  0  0  0  0  0  0  0  0  0  0  0
  186.3060  174.7230  136.1280 C   0  0  0  0  0  1  0  0  0  0  0  0
  186.7410  172.6550  134.8500 C   0  0  0  0  0  3  0  0  0  0  0  0
  188.8480  171.5440  134.8940 N   0  0  0  0  0  0  0  0  0  0  0  0
  193.4880  174.5970  137.8200 O   0  0  0  0  0  0  0  0  0  0  0  0
  197.7110  172.0600  137.1540 C   0  0  0  0  0  2  0  0  0  0  0  0
  198.1020  172.8630  135.9050 C   0  0  2  0  0  3  0  0  0  0  0  0
  197.8940  174.9870  138.2100 C   0  0  0  0  0  2  0  0  0  0  0  0
  199.2140  172.2690  135.3080 O   0  0  0  0  0  1  0  0  0  0  0  0
  198.3910  174.3450  136.1570 C   0  0  0  0  0  2  0  0  0  0  0  0
  198.9600  174.5480  137.4180 O   0  0  0  0  0  0  0  0  0  0  0  0
  197.3070  173.8220  138.9980 C   0  0  0  0  0  2  0  0  0  0  0  0
  196.7080  172.7320  138.1020 C   0  0  1  0  0  3  0  0  0  0  0  0
  195.0940  170.5970  134.3470 N   0  0  0  0  0  1  0  0  0  0  0  0
  193.7310  170.4870  134.7430 C   0  0  0  0  0  0  0  0  0  0  0  0
  193.0420  169.5120  134.3460 O   0  0  0  0  0  0  0  0  0  0  0  0
  189.5340  177.6500  138.6530 O   0  0  0  0  0  0  0  0  0  0  0  0
  189.9170  177.3970  139.9590 N   0  0  0  0  0  0  0  0  0  0  0  0
  190.2500  176.3560  141.7700 C   0  0  0  0  0  0  0  0  0  0  0  0
  189.8050  176.1980  140.5130 N   0  0  0  0  0  2  0  0  0  0  0  0
  190.4180  178.3040  140.7900 N   0  0  0  0  0  0  0  0  0  0  0  0
  190.6550  177.6620  141.9480 C   0  0  0  0  0  0  0  0  0  0  0  0
  190.2560  175.4410  142.6350 O   0  0  0  0  0  0  0  0  0  0  0  0
  191.6600  177.4280  144.1040 O   0  0  0  0  0  1  0  0  0  0  0  0
  191.0990  178.3460  143.2120 C   0  0  2  0  0  3  0  0  0  0  0  0
  190.0240  179.0980  143.8590 N   0  0  0  0  0  2  0  0  0  0  0  0
  189.7230  178.4980  145.0950 N   0  0  0  0  0  2  0  0  0  0  0  0
  188.6760  177.5110  144.8490 C   0  0  2  0  0  3  0  0  0  0  0  0
  187.3170  178.1800  144.6820 C   0  0  2  0  0  3  0  0  0  0  0  0
  186.2570  177.3270  145.3490 C   0  0  0  0  0  2  0  0  0  0  0  0
  186.4020  177.3010  143.8390 C   0  0  1  0  0  3  0  0  0  0  0  0
  181.1990  179.9750  141.3270 C   0  0  0  0  0  1  0  0  0  0  0  0
  187.0960  178.7630  141.3780 C   0  0  0  0  0  2  0  0  0  0  0  0
  185.6680  178.8070  141.8990 C   0  0  0  0  0  0  0  0  0  0  0  0
  184.6230  178.9860  144.0730 O   0  0  0  0  0  0  0  0  0  0  0  0
  180.7300  178.5890  143.6570 S   0  0  0  0  0  0  0  0  0  0  0  0
  182.8340  177.8600  140.1670 C   0  0  0  0  0  2  0  0  0  0  0  0
  186.6080  179.9680  142.1620 C   0  0  0  0  0  2  0  0  0  0  0  0
  184.3450  178.0290  140.2360 C   0  0  2  0  0  3  0  0  0  0  0  0
  183.3750  178.4210  144.3530 C   0  0  0  0  0  2  0  0  0  0  0  0
  181.0570  178.5530  141.8560 C   0  0  2  0  0  3  0  0  0  0  0  0
  182.2810  179.4410  144.1050 C   0  0  0  0  0  2  0  0  0  0  0  0
  185.2400  178.0830  143.1920 C   0  0  2  0  0  3  0  0  0  0  0  0
  182.2780  177.6800  141.5710 C   0  0  0  0  0  2  0  0  0  0  0  0
  184.6710  179.1780  140.9790 O   0  0  0  0  0  0  0  0  0  0  0  0
  184.8940  178.1330  138.8480 C   0  0  0  0  0  0  0  0  0  0  0  0
  184.6000  177.1470  137.9170 O   0  0  0  0  0  0  0  0  0  0  0  0
  185.5910  179.1270  138.5100 O   0  0  0  0  0  1  0  0  0  0  0  0
  189.3840  176.9840  146.8560 O   0  0  0  0  0  1  0  0  0  0  0  0
  188.6470  176.5280  145.8590 O   0  0  0  0  0  0  0  0  0  0  0  0
  1 35  1  0  0  0  0
  3 15  1  0  0  0  0
  5 18  1  0  0  0  0
  5  2  1  0  0  0  0
  6  4  2  0  0  0  0
  7  3  2  0  0  0  0
  8  9  1  0  0  0  0
  8  7  1  0  0  0  0
  9 33  1  6  0  0  0
 11 19  1  0  0  0  0
 11  6  1  0  0  0  0
 12 20  1  0  0  0  0
 12 19  2  0  0  0  0
 13  9  1  0  0  0  0
 13  6  1  0  0  0  0
 14 21  2  0  0  0  0
 14 22  1  0  0  0  0
 16 10  1  0  0  0  0
 16  1  1  0  0  0  0
 17  1  2  0  0  0  0
 17 18  1  0  0  0  0
 19 10  1  0  0  0  0
 21 12  1  0  0  0  0
 22 11  2  0  0  0  0
 23  2  1  0  0  0  0
 23 15  1  0  0  0  0
 24 31  1  0  0  0  0
 25 27  1  1  0  0  0
 25 28  1  0  0  0  0
 25 24  1  0  0  0  0
 26 30  1  0  0  0  0
 28 29  1  0  0  0  0
 29 26  1  0  0  0  0
 31  3  1  6  0  0  0
 31 30  1  0  0  0  0
 32 33  1  0  0  0  0
 34 33  2  0  0  0  0
 35 36  1  0  0  0  0
 36 38  1  0  0  0  0
 36 39  1  0  0  0  0
 37 40  1  0  0  0  0
 37 41  2  0  0  0  0
 38 37  1  0  0  0  0
 39 40  2  0  0  0  0
 40 43  1  0  0  0  0
 43 44  1  0  0  0  0
 43 42  1  1  0  0  0
 44 45  1  0  0  0  0
 46 45  1  1  0  0  0
 46 68  1  0  0  0  0
 47 46  1  1  0  0  0
 47 48  1  0  0  0  0
 49 47  1  0  0  0  0
 49 48  1  1  0  0  0
 51 52  1  0  0  0  0
 51 56  1  0  0  0  0
 52 56  1  0  0  0  0
 52 61  1  0  0  0  0
 53 58  1  0  0  0  0
 54 60  1  0  0  0  0
 55 57  1  0  0  0  0
 55 62  1  0  0  0  0
 57 64  1  6  0  0  0
 57 63  1  0  0  0  0
 59 50  1  1  0  0  0
 59 54  1  0  0  0  0
 60 58  1  0  0  0  0
 61 49  1  0  0  0  0
 61 53  1  1  0  0  0
 62 59  1  0  0  0  0
 63 52  1  0  0  0  0
 65 64  2  0  0  0  0
 66 64  1  0  0  0  0
 68 67  1  0  0  0  0
M  END
>  <MODEL>
6

>  <REMARK>
 VINA RESULT:      -4.7      3.236      8.966
  Name = 
  12 active torsions:
  status: ('A' for Active; 'I' for Inactive)
    1  A    between atoms: N_2  and  C_56
    2  A    between atoms: N_2  and  N_68
    3  A    between atoms: C_3  and  C_30
    4  A    between atoms: N_5  and  O_53
    5  A    between atoms: C_6  and  O_53
    6  A    between atoms: C_9  and  C_66
    7  A    between atoms: C_11  and  C_60
    8  A    between atoms: C_25  and  C_34
    9  A    between atoms: C_48  and  C_56
   10  A    between atoms: C_51  and  C_61
   11  A    between atoms: O_63  and  C_66
   12  A    between atoms: C_66  and  N_68
                            x       y       z     vdW  Elec       q    Type
                         _______ _______ _______ _____ _____    ______ ____

>  <TORSDO>
F 12

$$$$
=
 OpenBabel10232412133D

 68 74  0  0  1  0  0  0  0  0999 V2000
  190.3870  177.0380  137.5020 C   0  0  0  0  0  0  0  0  0  0  0  0
  194.1380  174.9060  137.6800 C   0  0  0  0  0  2  0  0  0  0  0  0
  194.5470  171.8570  137.0210 C   0  0  0  0  0  0  0  0  0  0  0  0
  190.4310  172.7820  137.3830 O   0  0  0  0  0  0  0  0  0  0  0  0
  193.8460  176.0860  136.7700 C   0  0  0  0  0  2  0  0  0  0  0  0
  189.7750  172.4210  136.3690 C   0  0  0  0  0  0  0  0  0  0  0  0
  194.0660  171.5460  135.8150 C   0  0  0  0  0  3  0  0  0  0  0  0
  192.7370  171.9910  135.2970 C   0  0  0  0  0  2  0  0  0  0  0  0
  191.6790  170.9340  135.6180 C   0  0  1  0  0  3  0  0  0  0  0  0
  189.0150  175.0930  137.1490 N   0  0  0  0  0  2  0  0  0  0  0  0
  188.4160  172.9440  136.1290 C   0  0  0  0  0  0  0  0  0  0  0  0
  186.7160  174.6740  136.2760 C   0  0  0  0  0  0  0  0  0  0  0  0
  190.3410  171.4840  135.4520 N   0  0  0  0  0  2  0  0  0  0  0  0
  186.2650  172.5760  135.1800 C   0  0  0  0  0  3  0  0  0  0  0  0
  193.8680  172.7600  137.9070 N   0  0  0  0  0  2  0  0  0  0  0  0
  189.0780  176.5370  136.9850 C   0  0  0  0  0  2  0  0  0  0  0  0
  191.4730  176.5720  136.9710 N   0  0  0  0  0  0  0  0  0  0  0  0
  192.8000  176.9900  137.3910 C   0  0  0  0  0  2  0  0  0  0  0  0
  188.0360  174.2420  136.5370 C   0  0  0  0  0  0  0  0  0  0  0  0
  186.1960  175.9920  136.7420 C   0  0  0  0  0  1  0  0  0  0  0  0
  185.8350  173.8340  135.5960 C   0  0  0  0  0  3  0  0  0  0  0  0
  187.5290  172.1650  135.4510 N   0  0  0  0  0  0  0  0  0  0  0  0
  193.2270  173.8690  137.4620 O   0  0  0  0  0  0  0  0  0  0  0  0
  195.6300  170.1470  138.6000 C   0  0  0  0  0  2  0  0  0  0  0  0
  194.6780  168.9760  138.3170 C   0  0  2  0  0  3  0  0  0  0  0  0
  196.2050  169.4610  135.6140 C   0  0  0  0  0  2  0  0  0  0  0  0
  194.8470  167.9990  139.2980 O   0  0  0  0  0  1  0  0  0  0  0  0
  194.8360  168.3390  136.9330 C   0  0  0  0  0  2  0  0  0  0  0  0
  196.1650  168.3800  136.5000 O   0  0  0  0  0  0  0  0  0  0  0  0
  196.7170  170.7080  136.3270 C   0  0  0  0  0  2  0  0  0  0  0  0
  195.8010  171.1670  137.4670 C   0  0  1  0  0  3  0  0  0  0  0  0
  193.1350  169.2930  134.3500 N   0  0  0  0  0  1  0  0  0  0  0  0
  191.8400  169.7370  134.7370 C   0  0  0  0  0  0  0  0  0  0  0  0
  190.8210  169.1110  134.3460 O   0  0  0  0  0  0  0  0  0  0  0  0
  190.4580  177.9660  138.5570 O   0  0  0  0  0  0  0  0  0  0  0  0
  190.4740  177.6150  139.8960 N   0  0  0  0  0  0  0  0  0  0  0  0
  190.1710  176.4940  141.6640 C   0  0  0  0  0  0  0  0  0  0  0  0
  190.0050  176.4550  140.3320 N   0  0  0  0  0  2  0  0  0  0  0  0
  190.9380  178.3850  140.8740 N   0  0  0  0  0  0  0  0  0  0  0  0
  190.7720  177.6860  142.0110 C   0  0  0  0  0  0  0  0  0  0  0  0
  189.7980  175.5820  142.4470 O   0  0  0  0  0  0  0  0  0  0  0  0
  191.5490  177.2510  144.2300 O   0  0  0  0  0  1  0  0  0  0  0  0
  191.0380  178.2400  143.3850 C   0  0  2  0  0  3  0  0  0  0  0  0
  189.8600  178.8660  143.9830 N   0  0  0  0  0  2  0  0  0  0  0  0
  189.7800  178.4940  145.3370 N   0  0  0  0  0  2  0  0  0  0  0  0
  188.7620  177.4530  145.4370 C   0  0  2  0  0  3  0  0  0  0  0  0
  187.3660  178.0230  145.2140 C   0  0  2  0  0  3  0  0  0  0  0  0
  186.3370  176.9530  145.5110 C   0  0  0  0  0  2  0  0  0  0  0  0
  186.6770  177.2890  144.0710 C   0  0  1  0  0  3  0  0  0  0  0  0
  181.5090  180.0700  141.6040 C   0  0  0  0  0  1  0  0  0  0  0  0
  187.3980  178.8180  141.6590 C   0  0  0  0  0  2  0  0  0  0  0  0
  185.9660  178.8560  142.1710 C   0  0  0  0  0  0  0  0  0  0  0  0
  184.9070  178.9770  144.3430 O   0  0  0  0  0  0  0  0  0  0  0  0
  181.0150  178.6180  143.8890 S   0  0  0  0  0  0  0  0  0  0  0  0
  183.1380  177.9800  140.3930 C   0  0  0  0  0  2  0  0  0  0  0  0
  186.9120  180.0030  142.4760 C   0  0  0  0  0  2  0  0  0  0  0  0
  184.6500  178.1360  140.4780 C   0  0  2  0  0  3  0  0  0  0  0  0
  183.6540  178.4130  144.5980 C   0  0  0  0  0  2  0  0  0  0  0  0
  181.3540  178.6340  142.0900 C   0  0  2  0  0  3  0  0  0  0  0  0
  182.5690  179.4470  144.3730 C   0  0  0  0  0  2  0  0  0  0  0  0
  185.5250  178.0970  143.4400 C   0  0  2  0  0  3  0  0  0  0  0  0
  182.5720  177.7620  141.7870 C   0  0  0  0  0  2  0  0  0  0  0  0
  184.9780  179.2610  141.2560 O   0  0  0  0  0  0  0  0  0  0  0  0
  185.2090  178.2780  139.0970 C   0  0  0  0  0  0  0  0  0  0  0  0
  186.5790  178.4180  138.9220 O   0  0  0  0  0  1  0  0  0  0  0  0
  184.4510  178.2340  138.0920 O   0  0  0  0  0  0  0  0  0  0  0  0
  190.1230  176.7490  147.0040 O   0  0  0  0  0  1  0  0  0  0  0  0
  188.8470  176.7640  146.6640 O   0  0  0  0  0  0  0  0  0  0  0  0
  1 35  1  0  0  0  0
  3 15  1  0  0  0  0
  5 18  1  0  0  0  0
  5  2  1  0  0  0  0
  6  4  2  0  0  0  0
  7  3  2  0  0  0  0
  8  9  1  0  0  0  0
  8  7  1  0  0  0  0
  9 33  1  6  0  0  0
 11  6  1  0  0  0  0
 11 19  1  0  0  0  0
 12 19  2  0  0  0  0
 12 20  1  0  0  0  0
 13  9  1  0  0  0  0
 13  6  1  0  0  0  0
 14 22  1  0  0  0  0
 14 21  2  0  0  0  0
 16 10  1  0  0  0  0
 16  1  1  0  0  0  0
 17 18  1  0  0  0  0
 17  1  2  0  0  0  0
 19 10  1  0  0  0  0
 21 12  1  0  0  0  0
 22 11  2  0  0  0  0
 23  2  1  0  0  0  0
 23 15  1  0  0  0  0
 25 24  1  0  0  0  0
 25 27  1  1  0  0  0
 26 30  1  0  0  0  0
 26 29  1  0  0  0  0
 28 25  1  0  0  0  0
 29 28  1  0  0  0  0
 30 31  1  0  0  0  0
 31  3  1  6  0  0  0
 31 24  1  0  0  0  0
 32 33  1  0  0  0  0
 34 33  2  0  0  0  0
 35 36  1  0  0  0  0
 36 38  1  0  0  0  0
 36 39  1  0  0  0  0
 37 40  1  0  0  0  0
 37 41  2  0  0  0  0
 38 37  1  0  0  0  0
 39 40  2  0  0  0  0
 40 43  1  0  0  0  0
 43 44  1  0  0  0  0
 43 42  1  1  0  0  0
 44 45  1  0  0  0  0
 46 45  1  1  0  0  0
 46 68  1  0  0  0  0
 47 46  1  1  0  0  0
 47 48  1  0  0  0  0
 49 47  1  0  0  0  0
 49 48  1  1  0  0  0
 51 52  1  0  0  0  0
 51 56  1  0  0  0  0
 52 56  1  0  0  0  0
 52 61  1  0  0  0  0
 53 58  1  0  0  0  0
 54 60  1  0  0  0  0
 55 57  1  0  0  0  0
 55 62  1  0  0  0  0
 57 64  1  6  0  0  0
 57 63  1  0  0  0  0
 59 50  1  1  0  0  0
 59 54  1  0  0  0  0
 60 58  1  0  0  0  0
 61 49  1  0  0  0  0
 61 53  1  1  0  0  0
 62 59  1  0  0  0  0
 63 52  1  0  0  0  0
 65 64  1  0  0  0  0
 66 64  2  0  0  0  0
 68 67  1  0  0  0  0
M  END
>  <MODEL>
7

>  <REMARK>
 VINA RESULT:      -4.3      3.469      8.611
  Name = 
  12 active torsions:
  status: ('A' for Active; 'I' for Inactive)
    1  A    between atoms: N_2  and  C_56
    2  A    between atoms: N_2  and  N_68
    3  A    between atoms: C_3  and  C_30
    4  A    between atoms: N_5  and  O_53
    5  A    between atoms: C_6  and  O_53
    6  A    between atoms: C_9  and  C_66
    7  A    between atoms: C_11  and  C_60
    8  A    between atoms: C_25  and  C_34
    9  A    between atoms: C_48  and  C_56
   10  A    between atoms: C_51  and  C_61
   11  A    between atoms: O_63  and  C_66
   12  A    between atoms: C_66  and  N_68
                            x       y       z     vdW  Elec       q    Type
                         _______ _______ _______ _____ _____    ______ ____

>  <TORSDO>
F 12

$$$$
=
 OpenBabel10232412133D

 68 74  0  0  1  0  0  0  0  0999 V2000
  189.3620  174.4180  136.1520 C   0  0  0  0  0  0  0  0  0  0  0  0
  193.0140  172.5750  134.7680 C   0  0  0  0  0  2  0  0  0  0  0  0
  195.8950  173.1370  135.9010 C   0  0  0  0  0  0  0  0  0  0  0  0
  193.1340  176.0230  137.3060 O   0  0  0  0  0  0  0  0  0  0  0  0
  191.8380  171.8330  135.3770 C   0  0  0  0  0  2  0  0  0  0  0  0
  193.1430  176.1120  138.5630 C   0  0  0  0  0  0  0  0  0  0  0  0
  195.9430  172.9740  137.2250 C   0  0  0  0  0  3  0  0  0  0  0  0
  194.9230  173.5080  138.1780 C   0  0  0  0  0  2  0  0  0  0  0  0
  195.3530  174.8890  138.6730 C   0  0  1  0  0  3  0  0  0  0  0  0
  190.4280  176.0280  137.5880 N   0  0  0  0  0  2  0  0  0  0  0  0
  192.0390  176.7860  139.2750 C   0  0  0  0  0  0  0  0  0  0  0  0
  189.7110  177.4380  139.5170 C   0  0  0  0  0  0  0  0  0  0  0  0
  194.2370  175.5760  139.3070 N   0  0  0  0  0  2  0  0  0  0  0  0
  191.3480  178.0260  141.1850 C   0  0  0  0  0  3  0  0  0  0  0  0
  194.7770  173.7560  135.2450 N   0  0  0  0  0  2  0  0  0  0  0  0
  189.1860  175.3150  137.3330 C   0  0  0  0  0  2  0  0  0  0  0  0
  190.2870  173.5120  136.2060 N   0  0  0  0  0  0  0  0  0  0  0  0
  190.5450  172.5820  135.1180 C   0  0  0  0  0  2  0  0  0  0  0  0
  190.7150  176.7680  138.7820 C   0  0  0  0  0  0  0  0  0  0  0  0
  188.3040  177.5480  139.0370 C   0  0  0  0  0  1  0  0  0  0  0  0
  190.0360  178.0650  140.7190 C   0  0  0  0  0  3  0  0  0  0  0  0
  192.3070  177.3940  140.4630 N   0  0  0  0  0  0  0  0  0  0  0  0
  193.4970  173.5510  135.6440 O   0  0  0  0  0  0  0  0  0  0  0  0
  198.0670  173.8450  134.7310 C   0  0  0  0  0  2  0  0  0  0  0  0
  198.6870  174.6220  135.9010 C   0  0  2  0  0  3  0  0  0  0  0  0
  198.5930  171.6320  136.8620 C   0  0  0  0  0  2  0  0  0  0  0  0
  199.7460  175.3960  135.4280 O   0  0  0  0  0  1  0  0  0  0  0  0
  199.1720  173.7530  137.0640 C   0  0  0  0  0  2  0  0  0  0  0  0
  199.6480  172.5170  136.6160 O   0  0  0  0  0  0  0  0  0  0  0  0
  197.7680  171.4310  135.5960 C   0  0  0  0  0  2  0  0  0  0  0  0
  197.0950  172.7190  135.1070 C   0  0  1  0  0  3  0  0  0  0  0  0
  196.9180  175.9110  140.3860 N   0  0  0  0  0  1  0  0  0  0  0  0
  196.4860  174.7760  139.6430 C   0  0  0  0  0  0  0  0  0  0  0  0
  197.0530  173.6660  139.8110 O   0  0  0  0  0  0  0  0  0  0  0  0
  188.5770  174.5580  134.9930 O   0  0  0  0  0  0  0  0  0  0  0  0
  187.2140  174.8000  135.0060 N   0  0  0  0  0  0  0  0  0  0  0  0
  185.3660  175.7940  134.7440 C   0  0  0  0  0  0  0  0  0  0  0  0
  186.6860  175.9210  134.5380 N   0  0  0  0  0  2  0  0  0  0  0  0
  186.3030  173.9620  135.4870 N   0  0  0  0  0  0  0  0  0  0  0  0
  185.1120  174.5640  135.3150 C   0  0  0  0  0  0  0  0  0  0  0  0
  184.5210  176.6860  134.4710 O   0  0  0  0  0  0  0  0  0  0  0  0
  183.3580  172.9600  135.0620 O   0  0  0  0  0  1  0  0  0  0  0  0
  183.8120  174.0240  135.8460 C   0  0  2  0  0  3  0  0  0  0  0  0
  182.7760  175.0490  135.9680 N   0  0  0  0  0  2  0  0  0  0  0  0
  182.8740  175.6530  137.2340 N   0  0  0  0  0  2  0  0  0  0  0  0
  182.4190  177.0320  137.0890 C   0  0  2  0  0  3  0  0  0  0  0  0
  183.1400  177.9560  138.0650 C   0  0  2  0  0  3  0  0  0  0  0  0
  184.5840  177.5190  138.1910 C   0  0  0  0  0  2  0  0  0  0  0  0
  183.5960  177.1720  139.2880 C   0  0  1  0  0  3  0  0  0  0  0  0
  184.9880  180.3080  144.6500 C   0  0  0  0  0  1  0  0  0  0  0  0
  181.3260  178.8670  140.0940 C   0  0  0  0  0  2  0  0  0  0  0  0
  182.6160  178.9090  140.8970 C   0  0  0  0  0  0  0  0  0  0  0  0
  184.9800  178.8880  140.3800 O   0  0  0  0  0  0  0  0  0  0  0  0
  187.0210  178.6930  143.7380 S   0  0  0  0  0  0  0  0  0  0  0  0
  182.9380  178.2710  144.2760 C   0  0  0  0  0  2  0  0  0  0  0  0
  182.3190  179.9960  139.8820 C   0  0  0  0  0  2  0  0  0  0  0  0
  182.0740  178.3720  143.0270 C   0  0  2  0  0  3  0  0  0  0  0  0
  185.9320  178.3460  141.2480 C   0  0  0  0  0  2  0  0  0  0  0  0
  185.4030  178.8430  144.5800 C   0  0  2  0  0  3  0  0  0  0  0  0
  186.4730  179.4290  142.1600 C   0  0  0  0  0  2  0  0  0  0  0  0
  183.8510  178.0650  140.5190 C   0  0  2  0  0  3  0  0  0  0  0  0
  184.3720  177.9590  143.8770 C   0  0  0  0  0  2  0  0  0  0  0  0
  182.5300  179.4180  142.2060 O   0  0  0  0  0  0  0  0  0  0  0  0
  180.6520  178.6070  143.4290 C   0  0  0  0  0  0  0  0  0  0  0  0
  180.0450  179.8190  143.1300 O   0  0  0  0  0  0  0  0  0  0  0  0
  179.9910  177.7000  144.0020 O   0  0  0  0  0  1  0  0  0  0  0  0
  180.6570  178.2510  136.6270 O   0  0  0  0  0  1  0  0  0  0  0  0
  181.0200  177.1300  137.2240 O   0  0  0  0  0  0  0  0  0  0  0  0
  1 17  2  0  0  0  0
  1 16  1  0  0  0  0
  2  5  1  0  0  0  0
  2 23  1  0  0  0  0
  3  7  2  0  0  0  0
  4  6  2  0  0  0  0
  6 11  1  0  0  0  0
  6 13  1  0  0  0  0
  7  8  1  0  0  0  0
  8  9  1  0  0  0  0
  9 13  1  0  0  0  0
  9 33  1  1  0  0  0
 10 19  1  0  0  0  0
 11 22  1  0  0  0  0
 12 21  2  0  0  0  0
 15 23  1  0  0  0  0
 15  3  1  0  0  0  0
 16 10  1  0  0  0  0
 18  5  1  0  0  0  0
 18 17  1  0  0  0  0
 19 11  2  0  0  0  0
 19 12  1  0  0  0  0
 20 12  1  0  0  0  0
 21 14  1  0  0  0  0
 22 14  2  0  0  0  0
 24 31  1  0  0  0  0
 24 25  1  0  0  0  0
 25 27  1  6  0  0  0
 25 28  1  0  0  0  0
 29 26  1  0  0  0  0
 29 28  1  0  0  0  0
 30 26  1  0  0  0  0
 31 30  1  0  0  0  0
 31  3  1  1  0  0  0
 33 34  2  0  0  0  0
 33 32  1  0  0  0  0
 35 36  1  0  0  0  0
 35  1  1  0  0  0  0
 36 39  1  0  0  0  0
 37 40  1  0  0  0  0
 38 37  1  0  0  0  0
 38 36  1  0  0  0  0
 40 39  2  0  0  0  0
 40 43  1  0  0  0  0
 41 37  2  0  0  0  0
 43 42  1  6  0  0  0
 43 44  1  0  0  0  0
 44 45  1  0  0  0  0
 46 68  1  1  0  0  0
 46 45  1  0  0  0  0
 47 46  1  6  0  0  0
 47 48  1  0  0  0  0
 47 49  1  0  0  0  0
 49 48  1  6  0  0  0
 49 61  1  0  0  0  0
 51 52  1  0  0  0  0
 52 63  1  0  0  0  0
 53 58  1  0  0  0  0
 54 59  1  0  0  0  0
 56 51  1  0  0  0  0
 56 52  1  0  0  0  0
 57 64  1  1  0  0  0
 57 55  1  0  0  0  0
 58 60  1  0  0  0  0
 59 50  1  6  0  0  0
 60 54  1  0  0  0  0
 61 53  1  6  0  0  0
 61 52  1  0  0  0  0
 62 55  1  0  0  0  0
 62 59  1  0  0  0  0
 63 57  1  0  0  0  0
 64 66  1  0  0  0  0
 65 64  2  0  0  0  0
 67 68  1  0  0  0  0
M  END
>  <MODEL>
8

>  <REMARK>
 VINA RESULT:      -4.0      3.198     10.538
  Name = 
  12 active torsions:
  status: ('A' for Active; 'I' for Inactive)
    1  A    between atoms: N_2  and  C_56
    2  A    between atoms: N_2  and  N_68
    3  A    between atoms: C_3  and  C_30
    4  A    between atoms: N_5  and  O_53
    5  A    between atoms: C_6  and  O_53
    6  A    between atoms: C_9  and  C_66
    7  A    between atoms: C_11  and  C_60
    8  A    between atoms: C_25  and  C_34
    9  A    between atoms: C_48  and  C_56
   10  A    between atoms: C_51  and  C_61
   11  A    between atoms: O_63  and  C_66
   12  A    between atoms: C_66  and  N_68
                            x       y       z     vdW  Elec       q    Type
                         _______ _______ _______ _____ _____    ______ ____

>  <TORSDO>
F 12

$$$$
=
 OpenBabel10232412133D

 68 74  0  0  1  0  0  0  0  0999 V2000
  188.5800  177.2420  138.9670 C   0  0  0  0  0  0  0  0  0  0  0  0
  189.9000  177.2640  143.0780 C   0  0  0  0  0  2  0  0  0  0  0  0
  188.2210  178.2790  145.5370 C   0  0  0  0  0  0  0  0  0  0  0  0
  186.4160  179.4530  141.8920 O   0  0  0  0  0  0  0  0  0  0  0  0
  189.7440  176.0230  142.2170 C   0  0  0  0  0  2  0  0  0  0  0  0
  185.2090  179.0950  141.8260 C   0  0  0  0  0  0  0  0  0  0  0  0
  187.0260  177.6880  145.5950 C   0  0  0  0  0  3  0  0  0  0  0  0
  186.1210  177.5010  144.4210 C   0  0  0  0  0  2  0  0  0  0  0  0
  185.1550  178.6820  144.3210 C   0  0  1  0  0  3  0  0  0  0  0  0
  186.5630  178.4980  139.3500 N   0  0  0  0  0  2  0  0  0  0  0  0
  184.4970  179.0890  140.5330 C   0  0  0  0  0  0  0  0  0  0  0  0
  184.4200  178.8380  138.1180 C   0  0  0  0  0  0  0  0  0  0  0  0
  184.5150  178.7100  143.0140 N   0  0  0  0  0  2  0  0  0  0  0  0
  182.4230  179.2940  139.3860 C   0  0  0  0  0  3  0  0  0  0  0  0
  188.8100  178.6990  144.2970 N   0  0  0  0  0  2  0  0  0  0  0  0
  187.2170  177.5640  138.4460 C   0  0  0  0  0  2  0  0  0  0  0  0
  188.6750  176.7200  140.1490 N   0  0  0  0  0  0  0  0  0  0  0  0
  189.9480  176.3630  140.7540 C   0  0  0  0  0  2  0  0  0  0  0  0
  185.1670  178.8240  139.3180 C   0  0  0  0  0  0  0  0  0  0  0  0
  185.0510  178.6550  136.7790 C   0  0  0  0  0  1  0  0  0  0  0  0
  183.0470  179.0740  138.1600 C   0  0  0  0  0  3  0  0  0  0  0  0
  183.1520  179.2950  140.5300 N   0  0  0  0  0  0  0  0  0  0  0  0
  188.6980  177.9720  143.1580 O   0  0  0  0  0  0  0  0  0  0  0  0
  188.3610  177.8350  148.0620 C   0  0  0  0  0  2  0  0  0  0  0  0
  188.3860  176.3010  147.9990 C   0  0  2  0  0  3  0  0  0  0  0  0
  191.0690  177.2200  146.6480 C   0  0  0  0  0  2  0  0  0  0  0  0
  188.1340  175.7850  149.2700 O   0  0  0  0  0  1  0  0  0  0  0  0
  189.6860  175.7010  147.4560 C   0  0  0  0  0  2  0  0  0  0  0  0
  190.7940  176.4810  147.8030 O   0  0  0  0  0  0  0  0  0  0  0  0
  190.4440  178.6070  146.7480 C   0  0  0  0  0  2  0  0  0  0  0  0
  188.9140  178.5710  146.8340 C   0  0  1  0  0  3  0  0  0  0  0  0
  184.4750  178.6260  146.7620 N   0  0  0  0  0  1  0  0  0  0  0  0
  184.1090  178.6040  145.3870 C   0  0  0  0  0  0  0  0  0  0  0  0
  182.8960  178.5290  145.0640 O   0  0  0  0  0  0  0  0  0  0  0  0
  189.7410  177.5220  138.2220 O   0  0  0  0  0  0  0  0  0  0  0  0
  190.3170  176.6370  137.3270 N   0  0  0  0  0  0  0  0  0  0  0  0
  191.1550  175.8760  135.5400 C   0  0  0  0  0  0  0  0  0  0  0  0
  190.6590  176.9930  136.0970 N   0  0  0  0  0  2  0  0  0  0  0  0
  190.5780  175.3610  137.5870 N   0  0  0  0  0  0  0  0  0  0  0  0
  191.1290  174.8560  136.4680 C   0  0  0  0  0  0  0  0  0  0  0  0
  191.5470  175.7990  134.3470 O   0  0  0  0  0  0  0  0  0  0  0  0
  192.5930  173.0430  137.0010 O   0  0  0  0  0  1  0  0  0  0  0  0
  191.4540  173.4000  136.2750 C   0  0  2  0  0  3  0  0  0  0  0  0
  191.6070  173.0330  134.8680 N   0  0  0  0  0  2  0  0  0  0  0  0
  190.3580  172.6360  134.3580 N   0  0  0  0  0  2  0  0  0  0  0  0
  190.2740  171.1870  134.5080 C   0  0  2  0  0  3  0  0  0  0  0  0
  188.9890  170.7800  135.2200 C   0  0  2  0  0  3  0  0  0  0  0  0
  188.3060  169.6840  134.4300 C   0  0  0  0  0  2  0  0  0  0  0  0
  187.7820  171.1050  134.3490 C   0  0  1  0  0  3  0  0  0  0  0  0
  182.0340  171.3940  137.0700 C   0  0  0  0  0  1  0  0  0  0  0  0
  187.6430  173.4000  136.1910 C   0  0  0  0  0  2  0  0  0  0  0  0
  186.4560  172.4530  136.0790 C   0  0  0  0  0  0  0  0  0  0  0  0
  186.1630  170.0600  135.8800 O   0  0  0  0  0  0  0  0  0  0  0  0
  182.3450  169.2810  135.3340 S   0  0  0  0  0  0  0  0  0  0  0  0
  183.2220  173.3260  135.2400 C   0  0  0  0  0  2  0  0  0  0  0  0
  187.4250  172.3230  137.2390 C   0  0  0  0  0  2  0  0  0  0  0  0
  184.6740  173.7130  135.4800 C   0  0  2  0  0  3  0  0  0  0  0  0
  185.0740  169.4920  135.2130 C   0  0  0  0  0  2  0  0  0  0  0  0
  182.0770  171.0750  135.5800 C   0  0  2  0  0  3  0  0  0  0  0  0
  183.9540  169.2190  136.1960 C   0  0  0  0  0  2  0  0  0  0  0  0
  186.4700  171.2210  135.1510 C   0  0  2  0  0  3  0  0  0  0  0  0
  183.1470  171.8650  134.8270 C   0  0  0  0  0  2  0  0  0  0  0  0
  185.2150  172.9410  136.5250 O   0  0  0  0  0  0  0  0  0  0  0  0
  184.7490  175.1690  135.8170 C   0  0  0  0  0  0  0  0  0  0  0  0
  185.3460  176.0500  134.9260 O   0  0  0  0  0  0  0  0  0  0  0  0
  184.2420  175.6050  136.8840 O   0  0  0  0  0  1  0  0  0  0  0  0
  191.7070  169.5290  134.5640 O   0  0  0  0  0  1  0  0  0  0  0  0
  191.4110  170.6700  135.1610 O   0  0  0  0  0  0  0  0  0  0  0  0
  1 17  2  0  0  0  0
  2 23  1  0  0  0  0
  3  7  2  0  0  0  0
  5  2  1  0  0  0  0
  6  4  2  0  0  0  0
  6 13  1  0  0  0  0
  8  7  1  0  0  0  0
  9  8  1  0  0  0  0
  9 33  1  1  0  0  0
 11  6  1  0  0  0  0
 12 21  2  0  0  0  0
 12 19  1  0  0  0  0
 13  9  1  0  0  0  0
 14 22  2  0  0  0  0
 15  3  1  0  0  0  0
 16  1  1  0  0  0  0
 16 10  1  0  0  0  0
 17 18  1  0  0  0  0
 18  5  1  0  0  0  0
 19 10  1  0  0  0  0
 19 11  2  0  0  0  0
 20 12  1  0  0  0  0
 21 14  1  0  0  0  0
 22 11  1  0  0  0  0
 23 15  1  0  0  0  0
 25 24  1  0  0  0  0
 25 27  1  1  0  0  0
 26 30  1  0  0  0  0
 26 29  1  0  0  0  0
 28 29  1  0  0  0  0
 28 25  1  0  0  0  0
 30 31  1  0  0  0  0
 31  3  1  6  0  0  0
 31 24  1  0  0  0  0
 33 32  1  0  0  0  0
 34 33  2  0  0  0  0
 35  1  1  0  0  0  0
 36 39  1  0  0  0  0
 36 35  1  0  0  0  0
 37 38  1  0  0  0  0
 37 40  1  0  0  0  0
 38 36  1  0  0  0  0
 40 39  2  0  0  0  0
 41 37  2  0  0  0  0
 43 40  1  0  0  0  0
 43 42  1  1  0  0  0
 44 43  1  0  0  0  0
 45 44  1  0  0  0  0
 46 45  1  1  0  0  0
 46 68  1  0  0  0  0
 47 46  1  6  0  0  0
 48 47  1  0  0  0  0
 49 48  1  6  0  0  0
 49 61  1  0  0  0  0
 49 47  1  0  0  0  0
 51 56  1  0  0  0  0
 52 51  1  0  0  0  0
 52 63  1  0  0  0  0
 52 56  1  0  0  0  0
 54 59  1  0  0  0  0
 54 60  1  0  0  0  0
 55 57  1  0  0  0  0
 57 64  1  1  0  0  0
 57 63  1  0  0  0  0
 58 53  1  0  0  0  0
 58 60  1  0  0  0  0
 59 50  1  1  0  0  0
 61 53  1  1  0  0  0
 61 52  1  0  0  0  0
 62 55  1  0  0  0  0
 62 59  1  0  0  0  0
 64 66  1  0  0  0  0
 65 64  2  0  0  0  0
 67 68  1  0  0  0  0
M  END
>  <MODEL>
9

>  <REMARK>
 VINA RESULT:      -3.6      3.286      9.787
  Name = 
  12 active torsions:
  status: ('A' for Active; 'I' for Inactive)
    1  A    between atoms: N_2  and  C_56
    2  A    between atoms: N_2  and  N_68
    3  A    between atoms: C_3  and  C_30
    4  A    between atoms: N_5  and  O_53
    5  A    between atoms: C_6  and  O_53
    6  A    between atoms: C_9  and  C_66
    7  A    between atoms: C_11  and  C_60
    8  A    between atoms: C_25  and  C_34
    9  A    between atoms: C_48  and  C_56
   10  A    between atoms: C_51  and  C_61
   11  A    between atoms: O_63  and  C_66
   12  A    between atoms: C_66  and  N_68
                            x       y       z     vdW  Elec       q    Type
                         _______ _______ _______ _____ _____    ______ ____

>  <TORSDO>
F 12

$$$$
