=
 OpenBabel10232412103D

 39 43  0  0  1  0  0  0  0  0999 V2000
  188.7290  177.3830  134.3590 O   0  0  0  0  0  0  0  0  0  0  0  0
  190.6030  176.6540  135.5180 N   0  0  0  0  0  0  0  0  0  0  0  0
  189.0150  177.4060  138.0050 C   0  0  1  0  0  3  0  0  0  0  0  0
  189.0800  178.7190  138.7010 C   0  0  0  0  0  2  0  0  0  0  0  0
  190.2610  176.2670  139.8350 C   0  0  0  0  0  3  0  0  0  0  0  0
  193.0370  174.7580  137.7180 C   0  0  0  0  0  3  0  0  0  0  0  0
  188.4990  177.4250  136.6700 N   0  0  0  0  0  2  0  0  0  0  0  0
  189.2510  177.1400  135.4730 C   0  0  0  0  0  0  0  0  0  0  0  0
  190.0990  175.2450  137.5510 C   0  0  0  0  0  2  0  0  0  0  0  0
  188.4170  178.6960  140.0370 C   0  0  0  0  0  3  0  0  0  0  0  0
  193.4720  176.2060  135.9480 C   0  0  0  0  0  3  0  0  0  0  0  0
  188.7830  177.9020  141.0480 C   0  0  0  0  0  0  0  0  0  0  0  0
  194.6010  175.8180  136.4390 N   0  0  0  0  0  0  0  0  0  0  0  0
  191.0840  175.8120  136.5690 C   0  0  0  0  0  0  0  0  0  0  0  0
  189.6970  176.3470  138.4770 C   0  0  2  0  0  3  0  0  0  0  0  0
  194.3400  174.9260  137.5290 C   0  0  0  0  0  2  0  0  0  0  0  0
  189.9000  176.9130  140.9570 C   0  0  0  0  0  0  0  0  0  0  0  0
  192.3950  175.5890  136.7100 C   0  0  0  0  0  0  0  0  0  0  0  0
  191.4890  177.3580  142.8160 C   0  0  0  0  0  0  0  0  0  0  0  0
  190.5660  176.4940  142.1520 N   0  0  0  0  0  2  0  0  0  0  0  0
  192.3010  178.0630  142.1470 O   0  0  0  0  0  0  0  0  0  0  0  0
  190.4210  176.9530  144.9550 C   0  0  0  0  0  3  0  0  0  0  0  0
  191.4310  177.4960  144.2750 C   0  0  0  0  0  3  0  0  0  0  0  0
  190.3940  176.9110  146.4570 C   0  0  0  0  0  2  0  0  0  0  0  0
  188.8660  177.6370  148.3670 C   0  0  1  0  0  3  0  0  0  0  0  0
  188.0800  177.7590  146.1230 N   0  0  0  0  0  2  0  0  0  0  0  0
  187.4730  178.2070  148.4030 C   0  0  0  0  0  2  0  0  0  0  0  0
  188.9610  176.9950  146.9940 C   0  0  1  0  0  3  0  0  0  0  0  0
  186.9550  178.1000  146.9830 C   0  0  0  0  0  2  0  0  0  0  0  0
  189.7810  178.6840  148.5040 O   0  0  0  0  0  1  0  0  0  0  0  0
  188.2050  178.1980  142.4000 C   0  0  0  0  0  2  0  0  0  0  0  0
  186.9600  177.3630  142.7500 C   0  0  0  0  0  2  0  0  0  0  0  0
  185.0340  178.6300  141.5250 C   0  0  0  0  0  2  0  0  0  0  0  0
  183.9550  179.3510  144.2340 C   0  0  0  0  0  2  0  0  0  0  0  0
  182.7140  179.0230  142.1460 N   0  0  0  0  0  2  0  0  0  0  0  0
  183.6060  178.0910  141.4660 C   0  0  0  0  0  2  0  0  0  0  0  0
  185.7160  178.2040  142.7980 C   0  0  0  0  0  0  0  0  0  0  0  0
  182.7280  178.7140  143.5690 C   0  0  0  0  0  2  0  0  0  0  0  0
  185.2200  178.5320  144.0100 C   0  0  0  0  0  3  0  0  0  0  0  0
  1  8  2  0  0  0  0
  2 14  2  0  0  0  0
  3 15  1  0  0  0  0
  3  4  1  6  0  0  0
  4 10  1  0  0  0  0
  5 17  2  0  0  0  0
  7  3  1  0  0  0  0
  8  2  1  0  0  0  0
  8  7  1  0  0  0  0
 10 12  2  0  0  0  0
 11 13  2  0  0  0  0
 11 18  1  0  0  0  0
 12 31  1  0  0  0  0
 13 16  1  0  0  0  0
 14 18  1  0  0  0  0
 14  9  1  0  0  0  0
 15  9  1  6  0  0  0
 15  5  1  0  0  0  0
 16  6  1  0  0  0  0
 17 12  1  0  0  0  0
 17 20  1  0  0  0  0
 18  6  2  0  0  0  0
 19 23  1  0  0  0  0
 20 19  1  0  0  0  0
 21 19  2  0  0  0  0
 22 24  1  0  0  0  0
 23 22  2  0  0  0  0
 25 27  1  0  0  0  0
 25 30  1  6  0  0  0
 26 29  1  0  0  0  0
 26 28  1  0  0  0  0
 28 24  1  6  0  0  0
 28 25  1  0  0  0  0
 29 27  1  0  0  0  0
 31 32  1  0  0  0  0
 32 37  1  0  0  0  0
 33 37  1  0  0  0  0
 35 38  1  0  0  0  0
 36 33  1  0  0  0  0
 36 35  1  0  0  0  0
 37 39  2  0  0  0  0
 38 34  1  0  0  0  0
 39 34  1  0  0  0  0
M  END
>  <MODEL>
1

>  <REMARK>
 VINA RESULT:      -9.2      0.000      0.000
  Name = 
  7 active torsions:
  status: ('A' for Active; 'I' for Inactive)
    1  A    between atoms: C_11  and  C_23
    2  A    between atoms: C_11  and  C_35
    3  A    between atoms: C_12  and  C_28
    4  A    between atoms: C_12  and  C_30
    5  A    between atoms: C_17  and  C_37
    6  A    between atoms: N_18  and  C_32
    7  A    between atoms: C_22  and  C_35
                            x       y       z     vdW  Elec       q    Type
                         _______ _______ _______ _____ _____    ______ ____

>  <TORSDO>
F 7

$$$$
=
 OpenBabel10232412103D

 39 43  0  0  1  0  0  0  0  0999 V2000
  192.3720  176.0720  136.5280 O   0  0  0  0  0  0  0  0  0  0  0  0
  190.0720  176.2270  136.8030 N   0  0  0  0  0  0  0  0  0  0  0  0
  190.7540  177.2350  139.5950 C   0  0  1  0  0  3  0  0  0  0  0  0
  190.8560  176.3870  140.8130 C   0  0  0  0  0  2  0  0  0  0  0  0
  188.6160  178.2520  140.3650 C   0  0  0  0  0  3  0  0  0  0  0  0
  186.5200  177.4500  137.2950 C   0  0  0  0  0  3  0  0  0  0  0  0
  191.7130  176.9740  138.5640 N   0  0  0  0  0  2  0  0  0  0  0  0
  191.4190  176.4330  137.2600 C   0  0  0  0  0  0  0  0  0  0  0  0
  189.2910  178.3350  137.9520 C   0  0  0  0  0  2  0  0  0  0  0  0
  190.9210  177.1900  142.0690 C   0  0  0  0  0  3  0  0  0  0  0  0
  187.2740  175.4370  136.4030 C   0  0  0  0  0  3  0  0  0  0  0  0
  189.9660  178.0320  142.4770 C   0  0  0  0  0  0  0  0  0  0  0  0
  185.9840  175.4130  136.4170 N   0  0  0  0  0  0  0  0  0  0  0  0
  188.9880  177.0710  137.2000 C   0  0  0  0  0  0  0  0  0  0  0  0
  189.6450  177.9550  139.3540 C   0  0  2  0  0  3  0  0  0  0  0  0
  185.5140  176.6500  136.9650 C   0  0  0  0  0  2  0  0  0  0  0  0
  188.7130  178.2940  141.7050 C   0  0  0  0  0  0  0  0  0  0  0  0
  187.7250  176.7040  136.9610 C   0  0  0  0  0  0  0  0  0  0  0  0
  186.2780  178.7910  141.7450 C   0  0  0  0  0  0  0  0  0  0  0  0
  187.5500  178.7610  142.3940 N   0  0  0  0  0  2  0  0  0  0  0  0
  186.1850  179.1550  140.5360 O   0  0  0  0  0  0  0  0  0  0  0  0
  184.1980  179.1780  142.9300 C   0  0  0  0  0  3  0  0  0  0  0  0
  185.0900  178.3080  142.4560 C   0  0  0  0  0  3  0  0  0  0  0  0
  182.8830  178.7440  143.5130 C   0  0  0  0  0  2  0  0  0  0  0  0
  180.5330  179.1320  142.5980 C   0  0  1  0  0  3  0  0  0  0  0  0
  182.3380  178.7740  141.0870 N   0  0  0  0  0  2  0  0  0  0  0  0
  179.9820  179.2300  141.2000 C   0  0  0  0  0  2  0  0  0  0  0  0
  181.8630  178.4210  142.4170 C   0  0  1  0  0  3  0  0  0  0  0  0
  181.1220  178.8230  140.2870 C   0  0  0  0  0  2  0  0  0  0  0  0
  180.7110  180.4240  143.1000 O   0  0  0  0  0  1  0  0  0  0  0  0
  190.0530  178.5420  143.8840 C   0  0  0  0  0  2  0  0  0  0  0  0
  190.3110  177.4490  144.9370 C   0  0  0  0  0  2  0  0  0  0  0  0
  189.4320  176.9420  147.3430 C   0  0  0  0  0  2  0  0  0  0  0  0
  186.6740  177.5680  146.3320 C   0  0  0  0  0  2  0  0  0  0  0  0
  187.5600  177.8550  148.5990 N   0  0  0  0  0  2  0  0  0  0  0  0
  188.9730  178.0440  148.2970 C   0  0  0  0  0  2  0  0  0  0  0  0
  189.1730  177.3300  145.9110 C   0  0  0  0  0  0  0  0  0  0  0  0
  186.7770  178.4950  147.5500 C   0  0  0  0  0  2  0  0  0  0  0  0
  187.9280  177.6120  145.4690 C   0  0  0  0  0  3  0  0  0  0  0  0
  1  8  2  0  0  0  0
  2 14  2  0  0  0  0
  2  8  1  0  0  0  0
  3  4  1  6  0  0  0
  4 10  1  0  0  0  0
  5 17  2  0  0  0  0
  7  3  1  0  0  0  0
  8  7  1  0  0  0  0
 10 12  2  0  0  0  0
 11 13  2  0  0  0  0
 11 18  1  0  0  0  0
 12 31  1  0  0  0  0
 13 16  1  0  0  0  0
 14  9  1  0  0  0  0
 15  9  1  6  0  0  0
 15  3  1  0  0  0  0
 15  5  1  0  0  0  0
 16  6  1  0  0  0  0
 17 20  1  0  0  0  0
 17 12  1  0  0  0  0
 18 14  1  0  0  0  0
 18  6  2  0  0  0  0
 19 20  1  0  0  0  0
 19 23  1  0  0  0  0
 21 19  2  0  0  0  0
 22 24  1  0  0  0  0
 23 22  2  0  0  0  0
 25 30  1  6  0  0  0
 26 28  1  0  0  0  0
 27 25  1  0  0  0  0
 28 25  1  0  0  0  0
 28 24  1  1  0  0  0
 29 26  1  0  0  0  0
 29 27  1  0  0  0  0
 31 32  1  0  0  0  0
 32 37  1  0  0  0  0
 33 36  1  0  0  0  0
 34 38  1  0  0  0  0
 36 35  1  0  0  0  0
 37 33  1  0  0  0  0
 38 35  1  0  0  0  0
 39 37  2  0  0  0  0
 39 34  1  0  0  0  0
M  END
>  <MODEL>
2

>  <REMARK>
 VINA RESULT:      -8.7      2.805      6.128
  Name = 
  7 active torsions:
  status: ('A' for Active; 'I' for Inactive)
    1  A    between atoms: C_11  and  C_23
    2  A    between atoms: C_11  and  C_35
    3  A    between atoms: C_12  and  C_28
    4  A    between atoms: C_12  and  C_30
    5  A    between atoms: C_17  and  C_37
    6  A    between atoms: N_18  and  C_32
    7  A    between atoms: C_22  and  C_35
                            x       y       z     vdW  Elec       q    Type
                         _______ _______ _______ _____ _____    ______ ____

>  <TORSDO>
F 7

$$$$
=
 OpenBabel10232412103D

 39 43  0  0  1  0  0  0  0  0999 V2000
  189.6040  176.6080  147.2060 O   0  0  0  0  0  0  0  0  0  0  0  0
  187.9980  177.4670  145.7680 N   0  0  0  0  0  2  0  0  0  0  0  0
  190.1480  177.1640  143.6330 C   0  0  1  0  0  3  0  0  0  0  0  0
  191.1050  178.2270  143.2200 C   0  0  0  0  0  2  0  0  0  0  0  0
  188.8650  177.3600  141.5080 C   0  0  0  0  0  3  0  0  0  0  0  0
  185.4290  177.9590  143.0260 C   0  0  0  0  0  3  0  0  0  0  0  0
  190.2660  176.7000  144.9820 N   0  0  0  0  0  2  0  0  0  0  0  0
  189.2900  176.8920  146.0260 C   0  0  0  0  0  0  0  0  0  0  0  0
  187.8500  176.2930  143.5380 C   0  0  0  0  0  2  0  0  0  0  0  0
  191.8410  177.8830  141.9690 C   0  0  0  0  0  3  0  0  0  0  0  0
  185.7060  179.1380  145.0140 C   0  0  0  0  0  3  0  0  0  0  0  0
  191.2580  177.6540  140.7890 C   0  0  0  0  0  0  0  0  0  0  0  0
  184.7310  179.6730  144.3590 N   0  0  0  0  0  0  0  0  0  0  0  0
  187.3080  177.2830  144.5290 C   0  0  0  0  0  0  0  0  0  0  0  0
  189.0530  176.9060  142.8960 C   0  0  2  0  0  3  0  0  0  0  0  0
  184.5550  178.9510  143.1350 C   0  0  0  0  0  3  0  0  0  0  0  0
  189.7780  177.6900  140.5790 C   0  0  0  0  0  0  0  0  0  0  0  0
  186.2380  178.0290  144.2340 C   0  0  0  0  0  0  0  0  0  0  0  0
  188.7940  176.8880  138.4410 C   0  0  0  0  0  0  0  0  0  0  0  0
  189.2610  177.9520  139.2720 N   0  0  0  0  0  2  0  0  0  0  0  0
  189.4210  175.7890  138.3970 O   0  0  0  0  0  0  0  0  0  0  0  0
  186.5330  177.7430  138.2470 C   0  0  0  0  0  3  0  0  0  0  0  0
  187.5310  177.0390  137.7120 C   0  0  0  0  0  3  0  0  0  0  0  0
  185.2840  178.0780  137.4820 C   0  0  0  0  0  2  0  0  0  0  0  0
  183.9630  178.9840  139.4680 C   0  0  1  0  0  3  0  0  0  0  0  0
  182.8000  178.0710  137.6010 N   0  0  0  0  0  2  0  0  0  0  0  0
  182.4890  179.1180  139.7400 C   0  0  0  0  0  2  0  0  0  0  0  0
  184.0360  177.9470  138.3600 C   0  0  1  0  0  3  0  0  0  0  0  0
  181.7990  178.3700  138.6160 C   0  0  0  0  0  2  0  0  0  0  0  0
  184.4530  180.2210  139.0390 O   0  0  0  0  0  1  0  0  0  0  0  0
  192.1450  177.6010  139.5810 C   0  0  0  0  0  2  0  0  0  0  0  0
  193.1940  176.4750  139.6170 C   0  0  0  0  0  2  0  0  0  0  0  0
  194.5600  174.9060  138.0380 C   0  0  0  0  0  2  0  0  0  0  0  0
  192.7890  175.8280  135.7950 C   0  0  0  0  0  2  0  0  0  0  0  0
  193.9140  173.6660  136.0480 N   0  0  0  0  0  2  0  0  0  0  0  0
  193.9960  173.5920  137.5010 C   0  0  0  0  0  2  0  0  0  0  0  0
  193.4610  175.9150  138.2480 C   0  0  0  0  0  0  0  0  0  0  0  0
  192.6540  174.3040  135.6920 C   0  0  0  0  0  2  0  0  0  0  0  0
  192.6700  176.3190  137.2320 C   0  0  0  0  0  3  0  0  0  0  0  0
  2  8  1  0  0  0  0
  3  4  1  1  0  0  0
  3  7  1  0  0  0  0
  6 16  2  0  0  0  0
  6 18  1  0  0  0  0
  7  8  1  0  0  0  0
  8  1  2  0  0  0  0
  9 14  1  0  0  0  0
 10  4  1  0  0  0  0
 12 10  2  0  0  0  0
 13 11  2  0  0  0  0
 14  2  1  0  0  0  0
 15  5  1  1  0  0  0
 15  9  1  0  0  0  0
 15  3  1  0  0  0  0
 16 13  1  0  0  0  0
 17 12  1  0  0  0  0
 17  5  2  0  0  0  0
 18 14  2  0  0  0  0
 18 11  1  0  0  0  0
 19 20  1  0  0  0  0
 20 17  1  0  0  0  0
 21 19  2  0  0  0  0
 23 22  2  0  0  0  0
 23 19  1  0  0  0  0
 24 22  1  0  0  0  0
 25 30  1  6  0  0  0
 25 27  1  0  0  0  0
 26 28  1  0  0  0  0
 26 29  1  0  0  0  0
 28 24  1  6  0  0  0
 28 25  1  0  0  0  0
 29 27  1  0  0  0  0
 31 32  1  0  0  0  0
 31 12  1  0  0  0  0
 33 37  1  0  0  0  0
 34 39  1  0  0  0  0
 35 36  1  0  0  0  0
 36 33  1  0  0  0  0
 37 32  1  0  0  0  0
 38 34  1  0  0  0  0
 38 35  1  0  0  0  0
 39 37  2  0  0  0  0
M  END
>  <MODEL>
3

>  <REMARK>
 VINA RESULT:      -8.1      2.388      9.246
  Name = 
  7 active torsions:
  status: ('A' for Active; 'I' for Inactive)
    1  A    between atoms: C_11  and  C_23
    2  A    between atoms: C_11  and  C_35
    3  A    between atoms: C_12  and  C_28
    4  A    between atoms: C_12  and  C_30
    5  A    between atoms: C_17  and  C_37
    6  A    between atoms: N_18  and  C_32
    7  A    between atoms: C_22  and  C_35
                            x       y       z     vdW  Elec       q    Type
                         _______ _______ _______ _____ _____    ______ ____

>  <TORSDO>
F 7

$$$$
=
 OpenBabel10232412103D

 39 43  0  0  1  0  0  0  0  0999 V2000
  193.8970  176.4960  137.0710 O   0  0  0  0  0  0  0  0  0  0  0  0
  191.6790  175.8190  137.1690 N   0  0  0  0  0  2  0  0  0  0  0  0
  191.6650  177.2110  139.8780 C   0  0  1  0  0  3  0  0  0  0  0  0
  191.9370  176.5520  141.1840 C   0  0  0  0  0  2  0  0  0  0  0  0
  189.2370  177.4300  140.3860 C   0  0  0  0  0  3  0  0  0  0  0  0
  187.8930  175.6920  137.2810 C   0  0  0  0  0  3  0  0  0  0  0  0
  192.7540  177.2430  138.9490 N   0  0  0  0  0  2  0  0  0  0  0  0
  192.8090  176.5370  137.6930 C   0  0  0  0  0  0  0  0  0  0  0  0
  190.0820  177.5750  138.0300 C   0  0  0  0  0  2  0  0  0  0  0  0
  191.5810  177.4130  142.3480 C   0  0  0  0  0  3  0  0  0  0  0  0
  189.4050  174.0340  136.6630 C   0  0  0  0  0  3  0  0  0  0  0  0
  190.3510  177.8760  142.5970 C   0  0  0  0  0  0  0  0  0  0  0  0
  188.2150  173.5420  136.5910 N   0  0  0  0  0  0  0  0  0  0  0  0
  190.3300  176.2360  137.3980 C   0  0  0  0  0  0  0  0  0  0  0  0
  190.4020  177.4550  139.4850 C   0  0  2  0  0  3  0  0  0  0  0  0
  187.2790  174.5580  136.9700 C   0  0  0  0  0  3  0  0  0  0  0  0
  189.1740  177.6040  141.7180 C   0  0  0  0  0  0  0  0  0  0  0  0
  189.3130  175.4160  137.1120 C   0  0  0  0  0  0  0  0  0  0  0  0
  186.8940  178.5920  141.7710 C   0  0  0  0  0  0  0  0  0  0  0  0
  187.8570  177.6630  142.2710 N   0  0  0  0  0  2  0  0  0  0  0  0
  187.2410  179.7720  141.4690 O   0  0  0  0  0  0  0  0  0  0  0  0
  184.5080  178.7040  142.1860 C   0  0  0  0  0  3  0  0  0  0  0  0
  185.5200  178.1470  141.5210 C   0  0  0  0  0  3  0  0  0  0  0  0
  183.0710  178.4160  141.8540 C   0  0  0  0  0  2  0  0  0  0  0  0
  181.6500  177.2960  140.0540 C   0  0  1  0  0  3  0  0  0  0  0  0
  182.7870  179.3280  139.5580 N   0  0  0  0  0  2  0  0  0  0  0  0
  181.3070  177.6750  138.6380 C   0  0  0  0  0  2  0  0  0  0  0  0
  182.8890  178.1190  140.3620 C   0  0  1  0  0  3  0  0  0  0  0  0
  182.1850  178.8670  138.3140 C   0  0  0  0  0  2  0  0  0  0  0  0
  180.5830  177.6530  140.8830 O   0  0  0  0  0  1  0  0  0  0  0  0
  190.1050  178.4850  143.9450 C   0  0  0  0  0  2  0  0  0  0  0  0
  190.4050  177.5460  145.1270 C   0  0  0  0  0  2  0  0  0  0  0  0
  189.4180  177.0020  147.4830 C   0  0  0  0  0  2  0  0  0  0  0  0
  186.7050  177.6200  146.3510 C   0  0  0  0  0  2  0  0  0  0  0  0
  187.4820  177.8850  148.6610 N   0  0  0  0  0  2  0  0  0  0  0  0
  188.9060  178.0880  148.4270 C   0  0  0  0  0  2  0  0  0  0  0  0
  189.2230  177.4060  146.0450 C   0  0  0  0  0  0  0  0  0  0  0  0
  186.7440  178.5320  147.5840 C   0  0  0  0  0  2  0  0  0  0  0  0
  187.9990  177.6840  145.5490 C   0  0  0  0  0  3  0  0  0  0  0  0
  1  8  2  0  0  0  0
  2 14  1  0  0  0  0
  2  8  1  0  0  0  0
  3  4  1  6  0  0  0
  4 10  1  0  0  0  0
  5 17  2  0  0  0  0
  7  3  1  0  0  0  0
  8  7  1  0  0  0  0
 10 12  2  0  0  0  0
 11 18  1  0  0  0  0
 12 31  1  0  0  0  0
 13 11  2  0  0  0  0
 13 16  1  0  0  0  0
 14  9  1  0  0  0  0
 15  9  1  6  0  0  0
 15  3  1  0  0  0  0
 15  5  1  0  0  0  0
 16  6  2  0  0  0  0
 17 20  1  0  0  0  0
 17 12  1  0  0  0  0
 18  6  1  0  0  0  0
 18 14  2  0  0  0  0
 19 20  1  0  0  0  0
 21 19  2  0  0  0  0
 23 19  1  0  0  0  0
 23 22  2  0  0  0  0
 24 22  1  0  0  0  0
 25 28  1  0  0  0  0
 25 30  1  1  0  0  0
 26 28  1  0  0  0  0
 27 25  1  0  0  0  0
 28 24  1  1  0  0  0
 29 27  1  0  0  0  0
 29 26  1  0  0  0  0
 31 32  1  0  0  0  0
 32 37  1  0  0  0  0
 33 36  1  0  0  0  0
 34 38  1  0  0  0  0
 36 35  1  0  0  0  0
 37 33  1  0  0  0  0
 38 35  1  0  0  0  0
 39 37  2  0  0  0  0
 39 34  1  0  0  0  0
M  END
>  <MODEL>
4

>  <REMARK>
 VINA RESULT:      -7.9      2.787      6.175
  Name = 
  7 active torsions:
  status: ('A' for Active; 'I' for Inactive)
    1  A    between atoms: C_11  and  C_23
    2  A    between atoms: C_11  and  C_35
    3  A    between atoms: C_12  and  C_28
    4  A    between atoms: C_12  and  C_30
    5  A    between atoms: C_17  and  C_37
    6  A    between atoms: N_18  and  C_32
    7  A    between atoms: C_22  and  C_35
                            x       y       z     vdW  Elec       q    Type
                         _______ _______ _______ _____ _____    ______ ____

>  <TORSDO>
F 7

$$$$
=
 OpenBabel10232412103D

 39 43  0  0  1  0  0  0  0  0999 V2000
  190.0930  176.9380  146.9510 O   0  0  0  0  0  0  0  0  0  0  0  0
  188.3110  177.6150  145.6270 N   0  0  0  0  0  2  0  0  0  0  0  0
  190.1870  177.0440  143.2970 C   0  0  1  0  0  3  0  0  0  0  0  0
  191.0710  178.0450  142.6410 C   0  0  0  0  0  2  0  0  0  0  0  0
  188.6500  176.9780  141.3390 C   0  0  0  0  0  3  0  0  0  0  0  0
  185.4190  177.7680  143.1830 C   0  0  0  0  0  3  0  0  0  0  0  0
  190.4750  176.7510  144.6680 N   0  0  0  0  0  2  0  0  0  0  0  0
  189.6320  177.0740  145.7930 C   0  0  0  0  0  0  0  0  0  0  0  0
  187.9050  176.1740  143.5940 C   0  0  0  0  0  2  0  0  0  0  0  0
  191.6530  177.5470  141.3610 C   0  0  0  0  0  3  0  0  0  0  0  0
  185.9220  179.1850  144.9600 C   0  0  0  0  0  3  0  0  0  0  0  0
  190.9320  177.1740  140.2990 C   0  0  0  0  0  0  0  0  0  0  0  0
  184.8670  179.6360  144.3700 N   0  0  0  0  0  0  0  0  0  0  0  0
  187.4770  177.2800  144.5150 C   0  0  0  0  0  0  0  0  0  0  0  0
  189.0130  176.6990  142.7390 C   0  0  2  0  0  3  0  0  0  0  0  0
  184.5520  178.7680  143.2760 C   0  0  0  0  0  3  0  0  0  0  0  0
  189.4380  177.1870  140.2700 C   0  0  0  0  0  0  0  0  0  0  0  0
  186.3690  177.9860  144.2650 C   0  0  0  0  0  0  0  0  0  0  0  0
  188.9380  178.4290  138.1760 C   0  0  0  0  0  0  0  0  0  0  0  0
  188.7610  177.2860  139.0140 N   0  0  0  0  0  2  0  0  0  0  0  0
  188.9930  179.5890  138.6800 O   0  0  0  0  0  0  0  0  0  0  0  0
  189.3890  177.0290  136.2490 C   0  0  0  0  0  3  0  0  0  0  0  0
  189.1490  178.2460  136.7370 C   0  0  0  0  0  3  0  0  0  0  0  0
  189.4440  176.7510  134.7730 C   0  0  0  0  0  2  0  0  0  0  0  0
  189.0880  174.2500  134.4100 C   0  0  1  0  0  3  0  0  0  0  0  0
  187.2980  175.5830  135.2390 N   0  0  0  0  0  2  0  0  0  0  0  0
  187.9160  173.3370  134.6530 C   0  0  0  0  0  2  0  0  0  0  0  0
  188.4690  175.6370  134.3760 C   0  0  1  0  0  3  0  0  0  0  0  0
  186.7590  174.2500  135.0080 C   0  0  0  0  0  2  0  0  0  0  0  0
  189.9850  174.1190  135.4730 O   0  0  0  0  0  1  0  0  0  0  0  0
  191.6650  176.9700  139.0070 C   0  0  0  0  0  2  0  0  0  0  0  0
  193.1420  176.5690  139.1750 C   0  0  0  0  0  2  0  0  0  0  0  0
  194.7930  174.8390  138.1270 C   0  0  0  0  0  2  0  0  0  0  0  0
  193.4380  175.3290  135.4920 C   0  0  0  0  0  2  0  0  0  0  0  0
  194.5340  173.2820  136.2760 N   0  0  0  0  0  2  0  0  0  0  0  0
  194.3550  173.4340  137.7140 C   0  0  0  0  0  2  0  0  0  0  0  0
  193.6590  175.8190  137.9800 C   0  0  0  0  0  0  0  0  0  0  0  0
  193.3480  173.8030  135.6090 C   0  0  0  0  0  2  0  0  0  0  0  0
  193.0560  176.0280  136.7910 C   0  0  0  0  0  3  0  0  0  0  0  0
  2  8  1  0  0  0  0
  3  4  1  1  0  0  0
  3  7  1  0  0  0  0
  6 16  2  0  0  0  0
  6 18  1  0  0  0  0
  7  8  1  0  0  0  0
  8  1  2  0  0  0  0
  9 14  1  0  0  0  0
 10  4  1  0  0  0  0
 12 10  2  0  0  0  0
 13 11  2  0  0  0  0
 14  2  1  0  0  0  0
 15  5  1  1  0  0  0
 15  3  1  0  0  0  0
 15  9  1  0  0  0  0
 16 13  1  0  0  0  0
 17 12  1  0  0  0  0
 17  5  2  0  0  0  0
 18 14  2  0  0  0  0
 18 11  1  0  0  0  0
 19 21  2  0  0  0  0
 19 20  1  0  0  0  0
 20 17  1  0  0  0  0
 22 23  2  0  0  0  0
 23 19  1  0  0  0  0
 24 22  1  0  0  0  0
 25 27  1  0  0  0  0
 25 30  1  1  0  0  0
 27 29  1  0  0  0  0
 28 25  1  0  0  0  0
 28 24  1  1  0  0  0
 28 26  1  0  0  0  0
 29 26  1  0  0  0  0
 31 32  1  0  0  0  0
 31 12  1  0  0  0  0
 34 38  1  0  0  0  0
 34 39  1  0  0  0  0
 35 36  1  0  0  0  0
 36 33  1  0  0  0  0
 37 33  1  0  0  0  0
 37 32  1  0  0  0  0
 38 35  1  0  0  0  0
 39 37  2  0  0  0  0
M  END
>  <MODEL>
5

>  <REMARK>
 VINA RESULT:      -7.7      2.093      9.957
  Name = 
  7 active torsions:
  status: ('A' for Active; 'I' for Inactive)
    1  A    between atoms: C_11  and  C_23
    2  A    between atoms: C_11  and  C_35
    3  A    between atoms: C_12  and  C_28
    4  A    between atoms: C_12  and  C_30
    5  A    between atoms: C_17  and  C_37
    6  A    between atoms: N_18  and  C_32
    7  A    between atoms: C_22  and  C_35
                            x       y       z     vdW  Elec       q    Type
                         _______ _______ _______ _____ _____    ______ ____

>  <TORSDO>
F 7

$$$$
=
 OpenBabel10232412103D

 39 43  0  0  1  0  0  0  0  0999 V2000
  192.5390  176.8670  139.5340 O   0  0  0  0  0  0  0  0  0  0  0  0
  190.3820  177.0520  138.6970 N   0  0  0  0  0  2  0  0  0  0  0  0
  189.5560  177.1950  141.6240 C   0  0  1  0  0  3  0  0  0  0  0  0
  189.1460  176.0340  142.4590 C   0  0  0  0  0  2  0  0  0  0  0  0
  187.2230  178.0590  141.5100 C   0  0  0  0  0  3  0  0  0  0  0  0
  186.9260  178.2630  137.7240 C   0  0  0  0  0  3  0  0  0  0  0  0
  190.9090  177.1890  141.1570 N   0  0  0  0  0  2  0  0  0  0  0  0
  191.3240  177.0530  139.7830 C   0  0  0  0  0  0  0  0  0  0  0  0
  188.9540  178.7860  139.8480 C   0  0  0  0  0  2  0  0  0  0  0  0
  188.5300  176.4450  143.7530 C   0  0  0  0  0  3  0  0  0  0  0  0
  188.2000  176.5480  136.8000 C   0  0  0  0  0  3  0  0  0  0  0  0
  187.4210  177.1840  143.8610 C   0  0  0  0  0  0  0  0  0  0  0  0
  187.0670  176.5870  136.1830 N   0  0  0  0  0  0  0  0  0  0  0  0
  189.1660  177.8030  138.7330 C   0  0  0  0  0  0  0  0  0  0  0  0
  188.6320  178.0090  141.0830 C   0  0  2  0  0  3  0  0  0  0  0  0
  186.2780  177.6410  136.7480 C   0  0  0  0  0  3  0  0  0  0  0  0
  186.6670  177.7160  142.6850 C   0  0  0  0  0  0  0  0  0  0  0  0
  188.2090  177.5830  137.8250 C   0  0  0  0  0  0  0  0  0  0  0  0
  184.5510  178.6260  141.7500 C   0  0  0  0  0  0  0  0  0  0  0  0
  185.2780  178.0270  142.8240 N   0  0  0  0  0  2  0  0  0  0  0  0
  185.0830  179.5320  141.0440 O   0  0  0  0  0  0  0  0  0  0  0  0
  182.9750  177.6610  140.1800 C   0  0  0  0  0  3  0  0  0  0  0  0
  183.2180  178.1190  141.4080 C   0  0  0  0  0  3  0  0  0  0  0  0
  181.6880  176.9740  139.8180 C   0  0  0  0  0  2  0  0  0  0  0  0
  181.4310  176.5180  137.3200 C   0  0  1  0  0  3  0  0  0  0  0  0
  183.2780  175.5870  138.5000 N   0  0  0  0  0  2  0  0  0  0  0  0
  182.2690  175.7590  136.3270 C   0  0  0  0  0  2  0  0  0  0  0  0
  181.8870  175.9820  138.6670 C   0  0  1  0  0  3  0  0  0  0  0  0
  183.3240  175.0460  137.1490 C   0  0  0  0  0  2  0  0  0  0  0  0
  181.7120  177.8810  137.1940 O   0  0  0  0  0  1  0  0  0  0  0  0
  186.7800  177.2710  145.2140 C   0  0  0  0  0  2  0  0  0  0  0  0
  187.3930  178.3400  146.1350 C   0  0  0  0  0  2  0  0  0  0  0  0
  189.3820  177.5710  147.6420 C   0  0  0  0  0  2  0  0  0  0  0  0
  191.2090  178.2250  145.3500 C   0  0  0  0  0  2  0  0  0  0  0  0
  191.5100  176.5290  147.0920 N   0  0  0  0  0  2  0  0  0  0  0  0
  190.1170  176.2510  147.4190 C   0  0  0  0  0  2  0  0  0  0  0  0
  188.8660  178.1250  146.3410 C   0  0  0  0  0  0  0  0  0  0  0  0
  191.6050  176.7760  145.6600 C   0  0  0  0  0  2  0  0  0  0  0  0
  189.6970  178.4130  145.3160 C   0  0  0  0  0  3  0  0  0  0  0  0
  1  8  2  0  0  0  0
  2 14  1  0  0  0  0
  2  8  1  0  0  0  0
  3  4  1  6  0  0  0
  4 10  1  0  0  0  0
  5 17  2  0  0  0  0
  6 18  1  0  0  0  0
  7  3  1  0  0  0  0
  8  7  1  0  0  0  0
 10 12  2  0  0  0  0
 11 18  1  0  0  0  0
 12 31  1  0  0  0  0
 13 16  1  0  0  0  0
 13 11  2  0  0  0  0
 14  9  1  0  0  0  0
 15  9  1  6  0  0  0
 15  5  1  0  0  0  0
 15  3  1  0  0  0  0
 16  6  2  0  0  0  0
 17 20  1  0  0  0  0
 17 12  1  0  0  0  0
 18 14  2  0  0  0  0
 19 20  1  0  0  0  0
 21 19  2  0  0  0  0
 22 23  2  0  0  0  0
 23 19  1  0  0  0  0
 24 22  1  0  0  0  0
 25 30  1  1  0  0  0
 25 28  1  0  0  0  0
 26 28  1  0  0  0  0
 27 29  1  0  0  0  0
 27 25  1  0  0  0  0
 28 24  1  1  0  0  0
 29 26  1  0  0  0  0
 31 32  1  0  0  0  0
 32 37  1  0  0  0  0
 34 38  1  0  0  0  0
 35 36  1  0  0  0  0
 36 33  1  0  0  0  0
 37 33  1  0  0  0  0
 38 35  1  0  0  0  0
 39 34  1  0  0  0  0
 39 37  2  0  0  0  0
M  END
>  <MODEL>
6

>  <REMARK>
 VINA RESULT:      -7.4      2.956      7.532
  Name = 
  7 active torsions:
  status: ('A' for Active; 'I' for Inactive)
    1  A    between atoms: C_11  and  C_23
    2  A    between atoms: C_11  and  C_35
    3  A    between atoms: C_12  and  C_28
    4  A    between atoms: C_12  and  C_30
    5  A    between atoms: C_17  and  C_37
    6  A    between atoms: N_18  and  C_32
    7  A    between atoms: C_22  and  C_35
                            x       y       z     vdW  Elec       q    Type
                         _______ _______ _______ _____ _____    ______ ____

>  <TORSDO>
F 7

$$$$
=
 OpenBabel10232412103D

 39 43  0  0  1  0  0  0  0  0999 V2000
  193.3520  176.8250  139.6150 O   0  0  0  0  0  0  0  0  0  0  0  0
  191.7390  176.2070  138.0660 N   0  0  0  0  0  2  0  0  0  0  0  0
  189.8110  177.6920  139.8960 C   0  0  1  0  0  3  0  0  0  0  0  0
  189.0160  177.0730  140.9910 C   0  0  0  0  0  2  0  0  0  0  0  0
  187.7920  177.9880  138.4690 C   0  0  0  0  0  3  0  0  0  0  0  0
  189.0680  176.1770  135.3770 C   0  0  0  0  0  3  0  0  0  0  0  0
  191.2330  177.6650  140.0580 N   0  0  0  0  0  2  0  0  0  0  0  0
  192.1570  176.9140  139.2450 C   0  0  0  0  0  0  0  0  0  0  0  0
  190.0950  178.0300  137.4770 C   0  0  0  0  0  2  0  0  0  0  0  0
  187.9590  177.9820  141.5210 C   0  0  0  0  0  3  0  0  0  0  0  0
  190.4810  174.4610  136.0690 C   0  0  0  0  0  3  0  0  0  0  0  0
  186.9580  178.4840  140.7900 C   0  0  0  0  0  0  0  0  0  0  0  0
  189.7000  173.9960  135.1530 N   0  0  0  0  0  0  0  0  0  0  0  0
  190.6690  176.6640  137.2340 C   0  0  0  0  0  0  0  0  0  0  0  0
  189.2460  177.9540  138.7040 C   0  0  2  0  0  3  0  0  0  0  0  0
  188.8290  175.0480  134.7230 C   0  0  0  0  0  3  0  0  0  0  0  0
  186.7850  178.2100  139.3310 C   0  0  0  0  0  0  0  0  0  0  0  0
  190.1480  175.8600  136.3010 C   0  0  0  0  0  0  0  0  0  0  0  0
  184.8860  177.2090  138.0770 C   0  0  0  0  0  0  0  0  0  0  0  0
  185.4850  178.3210  138.7450 N   0  0  0  0  0  2  0  0  0  0  0  0
  185.5840  176.4580  137.3340 O   0  0  0  0  0  0  0  0  0  0  0  0
  182.9250  177.1920  139.5030 C   0  0  0  0  0  3  0  0  0  0  0  0
  183.4790  176.8850  138.3300 C   0  0  0  0  0  3  0  0  0  0  0  0
  181.4520  177.0440  139.7610 C   0  0  0  0  0  2  0  0  0  0  0  0
  180.2170  178.9480  140.9280 C   0  0  1  0  0  3  0  0  0  0  0  0
  181.5530  179.4130  139.0130 N   0  0  0  0  0  2  0  0  0  0  0  0
  180.1610  180.4320  140.6840 C   0  0  0  0  0  2  0  0  0  0  0  0
  180.7190  178.3810  139.6110 C   0  0  1  0  0  3  0  0  0  0  0  0
  180.8750  180.6530  139.3660 C   0  0  0  0  0  2  0  0  0  0  0  0
  181.1180  178.6980  141.9660 O   0  0  0  0  0  1  0  0  0  0  0  0
  185.8330  179.1460  141.5270 C   0  0  0  0  0  2  0  0  0  0  0  0
  185.1050  178.2270  142.5240 C   0  0  0  0  0  2  0  0  0  0  0  0
  184.7400  179.4780  144.7880 C   0  0  0  0  0  2  0  0  0  0  0  0
  187.1030  177.9660  145.8600 C   0  0  0  0  0  2  0  0  0  0  0  0
  185.1530  178.7990  147.0870 N   0  0  0  0  0  2  0  0  0  0  0  0
  184.1590  178.7880  146.0210 C   0  0  0  0  0  2  0  0  0  0  0  0
  185.5170  178.5020  143.9430 C   0  0  0  0  0  0  0  0  0  0  0  0
  186.0300  177.6500  146.9090 C   0  0  0  0  0  2  0  0  0  0  0  0
  186.5760  177.8260  144.4380 C   0  0  0  0  0  3  0  0  0  0  0  0
  2  8  1  0  0  0  0
  3  7  1  0  0  0  0
  3  4  1  6  0  0  0
  4 10  1  0  0  0  0
  5 15  1  0  0  0  0
  5 17  2  0  0  0  0
  6 18  1  0  0  0  0
  8  1  2  0  0  0  0
  8  7  1  0  0  0  0
 11 18  1  0  0  0  0
 12 10  2  0  0  0  0
 12 31  1  0  0  0  0
 13 11  2  0  0  0  0
 14  9  1  0  0  0  0
 14  2  1  0  0  0  0
 15  9  1  6  0  0  0
 15  3  1  0  0  0  0
 16 13  1  0  0  0  0
 16  6  2  0  0  0  0
 17 12  1  0  0  0  0
 18 14  2  0  0  0  0
 19 23  1  0  0  0  0
 19 20  1  0  0  0  0
 20 17  1  0  0  0  0
 21 19  2  0  0  0  0
 22 24  1  0  0  0  0
 23 22  2  0  0  0  0
 25 30  1  1  0  0  0
 26 29  1  0  0  0  0
 26 28  1  0  0  0  0
 27 25  1  0  0  0  0
 28 24  1  1  0  0  0
 28 25  1  0  0  0  0
 29 27  1  0  0  0  0
 31 32  1  0  0  0  0
 32 37  1  0  0  0  0
 33 36  1  0  0  0  0
 34 38  1  0  0  0  0
 36 35  1  0  0  0  0
 37 39  2  0  0  0  0
 37 33  1  0  0  0  0
 38 35  1  0  0  0  0
 39 34  1  0  0  0  0
M  END
>  <MODEL>
7

>  <REMARK>
 VINA RESULT:      -7.1      2.970      6.316
  Name = 
  7 active torsions:
  status: ('A' for Active; 'I' for Inactive)
    1  A    between atoms: C_11  and  C_23
    2  A    between atoms: C_11  and  C_35
    3  A    between atoms: C_12  and  C_28
    4  A    between atoms: C_12  and  C_30
    5  A    between atoms: C_17  and  C_37
    6  A    between atoms: N_18  and  C_32
    7  A    between atoms: C_22  and  C_35
                            x       y       z     vdW  Elec       q    Type
                         _______ _______ _______ _____ _____    ______ ____

>  <TORSDO>
F 7

$$$$
=
 OpenBabel10232412103D

 39 43  0  0  1  0  0  0  0  0999 V2000
  191.9820  177.2010  148.2670 O   0  0  0  0  0  0  0  0  0  0  0  0
  189.8380  177.7440  147.5630 N   0  0  0  0  0  2  0  0  0  0  0  0
  190.9150  177.1890  144.7690 C   0  0  1  0  0  3  0  0  0  0  0  0
  191.4890  178.2100  143.8510 C   0  0  0  0  0  2  0  0  0  0  0  0
  188.8470  176.9810  143.3980 C   0  0  0  0  0  3  0  0  0  0  0  0
  186.3210  177.6730  146.1560 C   0  0  0  0  0  3  0  0  0  0  0  0
  191.6370  176.9570  145.9830 N   0  0  0  0  0  2  0  0  0  0  0  0
  191.1740  177.2750  147.3120 C   0  0  0  0  0  0  0  0  0  0  0  0
  188.8980  176.2170  145.7870 C   0  0  0  0  0  2  0  0  0  0  0  0
  191.6660  177.6990  142.4610 C   0  0  0  0  0  3  0  0  0  0  0  0
  187.2750  179.1710  147.6600 C   0  0  0  0  0  3  0  0  0  0  0  0
  190.6710  177.2550  141.6880 C   0  0  0  0  0  0  0  0  0  0  0  0
  186.0640  179.5500  147.4270 N   0  0  0  0  0  0  0  0  0  0  0  0
  188.7170  177.3310  146.7770 C   0  0  0  0  0  0  0  0  0  0  0  0
  189.6480  176.7680  144.6160 C   0  0  2  0  0  3  0  0  0  0  0  0
  185.4710  178.6310  146.5020 C   0  0  0  0  0  3  0  0  0  0  0  0
  189.2450  177.1930  142.1330 C   0  0  0  0  0  0  0  0  0  0  0  0
  187.5490  177.9730  146.8790 C   0  0  0  0  0  0  0  0  0  0  0  0
  188.0680  178.3190  140.2550 C   0  0  0  0  0  0  0  0  0  0  0  0
  188.2030  177.2170  141.1540 N   0  0  0  0  0  2  0  0  0  0  0  0
  188.2410  179.5040  140.6660 O   0  0  0  0  0  0  0  0  0  0  0  0
  188.6160  178.6090  137.9110 C   0  0  0  0  0  3  0  0  0  0  0  0
  187.8200  178.0670  138.8320 C   0  0  0  0  0  3  0  0  0  0  0  0
  188.5200  178.2520  136.4540 C   0  0  0  0  0  2  0  0  0  0  0  0
  186.4240  177.2150  135.4330 C   0  0  1  0  0  3  0  0  0  0  0  0
  188.4300  175.9370  135.5510 N   0  0  0  0  0  2  0  0  0  0  0  0
  186.1480  175.8770  134.8010 C   0  0  0  0  0  2  0  0  0  0  0  0
  187.6890  176.9830  136.2410 C   0  0  1  0  0  3  0  0  0  0  0  0
  187.3890  175.0450  135.0570 C   0  0  0  0  0  2  0  0  0  0  0  0
  186.6330  178.1540  134.4190 O   0  0  0  0  0  1  0  0  0  0  0  0
  190.9710  177.0440  140.2340 C   0  0  0  0  0  2  0  0  0  0  0  0
  192.4500  177.2460  139.8590 C   0  0  0  0  0  2  0  0  0  0  0  0
  194.1560  176.1530  138.2110 C   0  0  0  0  0  2  0  0  0  0  0  0
  191.9270  175.9950  136.2050 C   0  0  0  0  0  2  0  0  0  0  0  0
  193.8600  174.5080  136.4430 N   0  0  0  0  0  2  0  0  0  0  0  0
  194.1250  174.6650  137.8680 C   0  0  0  0  0  2  0  0  0  0  0  0
  192.7710  176.6630  138.5110 C   0  0  0  0  0  0  0  0  0  0  0  0
  192.4190  174.5420  136.2390 C   0  0  0  0  0  2  0  0  0  0  0  0
  191.7760  176.5830  137.6010 C   0  0  0  0  0  3  0  0  0  0  0  0
  3  4  1  1  0  0  0
  3  7  1  0  0  0  0
  6 16  2  0  0  0  0
  6 18  1  0  0  0  0
  7  8  1  0  0  0  0
  8  2  1  0  0  0  0
  8  1  2  0  0  0  0
  9 14  1  0  0  0  0
 10  4  1  0  0  0  0
 12 17  1  0  0  0  0
 12 10  2  0  0  0  0
 13 11  2  0  0  0  0
 14 18  2  0  0  0  0
 14  2  1  0  0  0  0
 15  5  1  1  0  0  0
 15  3  1  0  0  0  0
 15  9  1  0  0  0  0
 16 13  1  0  0  0  0
 17  5  2  0  0  0  0
 18 11  1  0  0  0  0
 19 21  2  0  0  0  0
 19 20  1  0  0  0  0
 20 17  1  0  0  0  0
 22 23  2  0  0  0  0
 23 19  1  0  0  0  0
 24 22  1  0  0  0  0
 25 30  1  6  0  0  0
 25 28  1  0  0  0  0
 26 28  1  0  0  0  0
 27 29  1  0  0  0  0
 27 25  1  0  0  0  0
 28 24  1  6  0  0  0
 29 26  1  0  0  0  0
 31 12  1  0  0  0  0
 32 31  1  0  0  0  0
 33 37  1  0  0  0  0
 34 38  1  0  0  0  0
 34 39  1  0  0  0  0
 35 36  1  0  0  0  0
 36 33  1  0  0  0  0
 37 32  1  0  0  0  0
 38 35  1  0  0  0  0
 39 37  2  0  0  0  0
M  END
>  <MODEL>
8

>  <REMARK>
 VINA RESULT:      -7.1      2.282      9.990
  Name = 
  7 active torsions:
  status: ('A' for Active; 'I' for Inactive)
    1  A    between atoms: C_11  and  C_23
    2  A    between atoms: C_11  and  C_35
    3  A    between atoms: C_12  and  C_28
    4  A    between atoms: C_12  and  C_30
    5  A    between atoms: C_17  and  C_37
    6  A    between atoms: N_18  and  C_32
    7  A    between atoms: C_22  and  C_35
                            x       y       z     vdW  Elec       q    Type
                         _______ _______ _______ _____ _____    ______ ____

>  <TORSDO>
F 7

$$$$
=
 OpenBabel10232412103D

 39 43  0  0  1  0  0  0  0  0999 V2000
  188.8670  178.3430  149.2980 O   0  0  0  0  0  0  0  0  0  0  0  0
  189.9520  177.1830  147.6060 N   0  0  0  0  0  2  0  0  0  0  0  0
  187.6300  178.1080  145.8650 C   0  0  1  0  0  3  0  0  0  0  0  0
  186.3840  177.3340  145.6130 C   0  0  0  0  0  2  0  0  0  0  0  0
  188.4620  177.7010  143.5530 C   0  0  0  0  0  3  0  0  0  0  0  0
  191.8360  176.2020  144.4680 C   0  0  0  0  0  3  0  0  0  0  0  0
  187.8520  178.5220  147.2170 N   0  0  0  0  0  2  0  0  0  0  0  0
  188.9050  178.0460  148.0810 C   0  0  0  0  0  0  0  0  0  0  0  0
  190.0270  178.3880  145.3890 C   0  0  0  0  0  2  0  0  0  0  0  0
  185.5650  177.9070  144.5060 C   0  0  0  0  0  3  0  0  0  0  0  0
  191.5970  175.0350  146.4680 C   0  0  0  0  0  3  0  0  0  0  0  0
  185.9890  178.0410  143.2450 C   0  0  0  0  0  0  0  0  0  0  0  0
  192.2880  174.3080  145.6570 N   0  0  0  0  0  0  0  0  0  0  0  0
  190.4560  177.2490  146.2690 C   0  0  0  0  0  0  0  0  0  0  0  0
  188.6210  178.1220  144.9560 C   0  0  2  0  0  3  0  0  0  0  0  0
  192.4390  175.0210  144.4240 C   0  0  0  0  0  3  0  0  0  0  0  0
  187.3580  177.6510  142.7890 C   0  0  0  0  0  0  0  0  0  0  0  0
  191.2420  176.2770  145.7950 C   0  0  0  0  0  0  0  0  0  0  0  0
  188.3580  178.1840  140.5770 C   0  0  0  0  0  0  0  0  0  0  0  0
  187.5740  177.3310  141.4120 N   0  0  0  0  0  2  0  0  0  0  0  0
  188.2540  179.4420  140.6710 O   0  0  0  0  0  0  0  0  0  0  0  0
  190.6300  177.5200  140.0500 C   0  0  0  0  0  3  0  0  0  0  0  0
  189.3530  177.5970  139.6740 C   0  0  0  0  0  3  0  0  0  0  0  0
  191.6610  176.7790  139.2470 C   0  0  0  0  0  2  0  0  0  0  0  0
  191.8700  176.4090  136.7310 C   0  0  1  0  0  3  0  0  0  0  0  0
  190.8930  174.7160  138.0900 N   0  0  0  0  0  2  0  0  0  0  0  0
  191.5190  175.2530  135.8330 C   0  0  0  0  0  2  0  0  0  0  0  0
  191.0510  176.1590  137.9850 C   0  0  1  0  0  3  0  0  0  0  0  0
  190.7470  174.2830  136.7060 C   0  0  0  0  0  2  0  0  0  0  0  0
  193.2400  176.3670  137.0000 O   0  0  0  0  0  1  0  0  0  0  0  0
  184.9600  178.3680  142.2050 C   0  0  0  0  0  2  0  0  0  0  0  0
  183.5720  178.7100  142.7750 C   0  0  0  0  0  2  0  0  0  0  0  0
  181.0570  178.8250  142.0830 C   0  0  0  0  0  2  0  0  0  0  0  0
  181.8170  177.4000  139.5510 C   0  0  0  0  0  2  0  0  0  0  0  0
  179.9920  178.9980  139.9020 N   0  0  0  0  0  2  0  0  0  0  0  0
  180.5470  179.7770  141.0020 C   0  0  0  0  0  2  0  0  0  0  0  0
  182.4730  178.3990  141.7980 C   0  0  0  0  0  0  0  0  0  0  0  0
  181.0800  178.6310  139.0070 C   0  0  0  0  0  2  0  0  0  0  0  0
  182.8020  177.7620  140.6550 C   0  0  0  0  0  3  0  0  0  0  0  0
  2  8  1  0  0  0  0
  3  4  1  1  0  0  0
  3  7  1  0  0  0  0
  6 18  1  0  0  0  0
  7  8  1  0  0  0  0
  8  1  2  0  0  0  0
  9 14  1  0  0  0  0
 10  4  1  0  0  0  0
 12 10  2  0  0  0  0
 13 11  2  0  0  0  0
 14  2  1  0  0  0  0
 15  5  1  1  0  0  0
 15  9  1  0  0  0  0
 15  3  1  0  0  0  0
 16  6  2  0  0  0  0
 16 13  1  0  0  0  0
 17 12  1  0  0  0  0
 17  5  2  0  0  0  0
 18 14  2  0  0  0  0
 18 11  1  0  0  0  0
 19 21  2  0  0  0  0
 19 20  1  0  0  0  0
 20 17  1  0  0  0  0
 23 22  2  0  0  0  0
 23 19  1  0  0  0  0
 24 22  1  0  0  0  0
 25 30  1  1  0  0  0
 25 28  1  0  0  0  0
 27 29  1  0  0  0  0
 27 25  1  0  0  0  0
 28 26  1  0  0  0  0
 28 24  1  1  0  0  0
 29 26  1  0  0  0  0
 31 32  1  0  0  0  0
 31 12  1  0  0  0  0
 34 39  1  0  0  0  0
 35 36  1  0  0  0  0
 36 33  1  0  0  0  0
 37 33  1  0  0  0  0
 37 32  1  0  0  0  0
 38 34  1  0  0  0  0
 38 35  1  0  0  0  0
 39 37  2  0  0  0  0
M  END
>  <MODEL>
9

>  <REMARK>
 VINA RESULT:      -7.1      2.248      8.041
  Name = 
  7 active torsions:
  status: ('A' for Active; 'I' for Inactive)
    1  A    between atoms: C_11  and  C_23
    2  A    between atoms: C_11  and  C_35
    3  A    between atoms: C_12  and  C_28
    4  A    between atoms: C_12  and  C_30
    5  A    between atoms: C_17  and  C_37
    6  A    between atoms: N_18  and  C_32
    7  A    between atoms: C_22  and  C_35
                            x       y       z     vdW  Elec       q    Type
                         _______ _______ _______ _____ _____    ______ ____

>  <TORSDO>
F 7

$$$$
