=
 OpenBabel10222422023D

 44 48  0  0  1  0  0  0  0  0999 V2000
  192.5050  174.9010  136.3310 C   0  0  0  0  0  0  0  0  0  0  0  0
  189.3810  177.3180  140.7600 C   0  0  2  0  0  3  0  0  0  0  0  0
  187.1210  177.4690  137.7230 C   0  0  1  0  0  3  0  0  0  0  0  0
  187.9350  178.0330  135.4320 C   0  0  0  0  0  3  0  0  0  0  0  0
  187.0040  178.1380  136.3860 C   0  0  0  0  0  3  0  0  0  0  0  0
  190.8240  175.8810  139.3340 N   0  0  0  0  0  2  0  0  0  0  0  0
  190.7610  177.1310  140.0930 C   0  0  0  0  0  2  0  0  0  0  0  0
  188.3390  177.9810  138.4550 C   0  0  1  0  0  3  0  0  0  0  0  0
  188.3620  178.1000  139.9270 C   0  0  0  0  0  0  0  0  0  0  0  0
  189.8550  177.2460  136.7080 C   0  0  0  0  0  0  0  0  0  0  0  0
  189.1660  177.3150  135.6050 N   0  0  0  0  0  0  0  0  0  0  0  0
  189.4970  177.9440  137.8910 N   0  0  0  0  0  2  0  0  0  0  0  0
  187.4520  178.7550  140.5040 O   0  0  0  0  0  0  0  0  0  0  0  0
  190.9890  176.3250  136.8400 C   0  0  0  0  0  0  0  0  0  0  0  0
  191.4340  175.7590  138.0340 C   0  0  0  0  0  0  0  0  0  0  0  0
  191.6530  175.8010  135.7960 N   0  0  0  0  0  0  0  0  0  0  0  0
  192.3860  174.8160  137.7140 C   0  0  0  0  0  2  0  0  0  0  0  0
  185.9520  177.7000  138.4530 O   0  0  0  0  0  0  0  0  0  0  0  0
  184.9260  177.1510  137.6780 C   0  0  0  0  0  2  0  0  0  0  0  0
  183.6230  177.8900  137.9320 C   0  0  0  0  0  2  0  0  0  0  0  0
  183.3340  177.9380  139.3590 N   0  0  0  0  0  2  0  0  0  0  0  0
  184.4700  179.9450  139.7270 O   0  0  0  0  0  0  0  0  0  0  0  0
  183.8190  178.9800  140.2130 C   0  0  0  0  0  0  0  0  0  0  0  0
  182.2390  178.8320  142.1370 C   0  0  0  0  0  3  0  0  0  0  0  0
  183.5520  178.9340  141.6590 C   0  0  0  0  0  0  0  0  0  0  0  0
  184.3860  178.9480  143.8930 C   0  0  0  0  0  0  0  0  0  0  0  0
  184.5870  178.9890  142.5440 N   0  0  0  0  0  0  0  0  0  0  0  0
  182.0110  178.7880  143.5120 C   0  0  0  0  0  3  0  0  0  0  0  0
  183.0880  178.8460  144.3970 C   0  0  0  0  0  3  0  0  0  0  0  0
  185.3420  178.6120  146.1370 C   0  0  0  0  0  1  0  0  0  0  0  0
  185.4630  179.0070  144.7790 O   0  0  0  0  0  0  0  0  0  0  0  0
  193.4540  174.0900  135.4930 C   0  0  0  0  0  3  0  0  0  0  0  0
  195.1820  175.4730  135.4190 C   0  0  0  0  0  1  0  0  0  0  0  0
  194.7890  174.2230  135.9010 O   0  0  0  0  0  0  0  0  0  0  0  0
  194.1330  172.0020  134.8420 C   0  0  0  0  0  1  0  0  0  0  0  0
  193.0670  172.7350  135.3840 O   0  0  0  0  0  0  0  0  0  0  0  0
  189.5730  177.9700  142.1220 C   0  0  0  0  0  2  0  0  0  0  0  0
  190.3670  177.1060  142.9830 N   0  0  0  0  0  2  0  0  0  0  0  0
  188.8630  177.3710  146.4000 C   0  0  0  0  0  3  0  0  0  0  0  0
  190.2120  177.0760  144.4020 C   0  0  0  0  0  0  0  0  0  0  0  0
  189.9570  177.0080  147.1920 C   0  0  0  0  0  3  0  0  0  0  0  0
  191.3030  176.7130  145.2010 C   0  0  0  0  0  3  0  0  0  0  0  0
  191.1750  176.6780  146.5930 C   0  0  0  0  0  3  0  0  0  0  0  0
  188.9900  177.4060  145.0090 C   0  0  0  0  0  3  0  0  0  0  0  0
  1 17  1  0  0  0  0
  2 37  1  1  0  0  0
  3 18  1  1  0  0  0
  3  8  1  0  0  0  0
  4 11  1  0  0  0  0
  4  5  2  0  0  0  0
  5  3  1  0  0  0  0
  6  7  1  0  0  0  0
  7  2  1  0  0  0  0
  8 12  1  1  0  0  0
  8  9  1  0  0  0  0
  9 13  2  0  0  0  0
  9  2  1  0  0  0  0
 10 14  1  0  0  0  0
 10 12  1  0  0  0  0
 11 10  2  0  0  0  0
 14 15  2  0  0  0  0
 15  6  1  0  0  0  0
 16  1  2  0  0  0  0
 16 14  1  0  0  0  0
 17 15  1  0  0  0  0
 19 20  1  0  0  0  0
 19 18  1  0  0  0  0
 20 21  1  0  0  0  0
 21 23  1  0  0  0  0
 22 23  2  0  0  0  0
 23 25  1  0  0  0  0
 24 28  1  0  0  0  0
 25 24  2  0  0  0  0
 25 27  1  0  0  0  0
 26 29  1  0  0  0  0
 26 31  1  0  0  0  0
 27 26  2  0  0  0  0
 28 29  2  0  0  0  0
 31 30  1  0  0  0  0
 32 34  1  0  0  0  0
 32  1  1  0  0  0  0
 33 34  1  0  0  0  0
 35 36  1  0  0  0  0
 36 32  1  0  0  0  0
 37 38  1  0  0  0  0
 38 40  1  0  0  0  0
 39 41  1  0  0  0  0
 40 44  1  0  0  0  0
 40 42  2  0  0  0  0
 42 43  1  0  0  0  0
 43 41  2  0  0  0  0
 44 39  2  0  0  0  0
M  END
>  <MODEL>
1

>  <REMARK>
 VINA RESULT:      -8.7      0.000      0.000
  Name = 
  12 active torsions:
  status: ('A' for Active; 'I' for Inactive)
    1  A    between atoms: C_1  and  C_25
    2  A    between atoms: C_5  and  C_44
    3  A    between atoms: N_6  and  C_32
    4  A    between atoms: C_7  and  C_41
    5  A    between atoms: C_9  and  O_17
    6  A    between atoms: C_14  and  O_43
    7  A    between atoms: C_15  and  O_17
    8  A    between atoms: C_15  and  C_32
    9  A    between atoms: O_21  and  C_25
   10  A    between atoms: C_23  and  N_27
   11  A    between atoms: C_25  and  O_31
   12  A    between atoms: N_27  and  C_44
                            x       y       z     vdW  Elec       q    Type
                         _______ _______ _______ _____ _____    ______ ____

>  <TORSDO>
F 12

$$$$
=
 OpenBabel10222422023D

 44 48  0  0  1  0  0  0  0  0999 V2000
  189.2630  177.0990  145.8460 C   0  0  0  0  0  0  0  0  0  0  0  0
  186.0750  178.3000  140.9870 C   0  0  2  0  0  3  0  0  0  0  0  0
  189.3870  176.9640  139.7230 C   0  0  1  0  0  3  0  0  0  0  0  0
  191.5850  177.5420  140.7550 C   0  0  0  0  0  3  0  0  0  0  0  0
  190.8440  177.3160  139.6650 C   0  0  0  0  0  3  0  0  0  0  0  0
  186.8790  177.5460  143.2160 N   0  0  0  0  0  2  0  0  0  0  0  0
  186.4500  178.7040  142.4290 C   0  0  0  0  0  2  0  0  0  0  0  0
  188.6080  178.0820  140.3730 C   0  0  1  0  0  3  0  0  0  0  0  0
  187.2190  178.3890  139.9740 C   0  0  0  0  0  0  0  0  0  0  0  0
  189.8700  177.9330  142.4410 C   0  0  0  0  0  0  0  0  0  0  0  0
  191.0550  177.5230  142.0900 N   0  0  0  0  0  0  0  0  0  0  0  0
  188.9540  178.5260  141.5320 N   0  0  0  0  0  2  0  0  0  0  0  0
  186.9630  178.6030  138.7570 O   0  0  0  0  0  0  0  0  0  0  0  0
  189.3480  177.6860  143.7890 C   0  0  0  0  0  0  0  0  0  0  0  0
  188.0000  177.5600  144.1210 C   0  0  0  0  0  0  0  0  0  0  0  0
  190.1220  177.4090  144.8520 N   0  0  0  0  0  0  0  0  0  0  0  0
  187.9360  177.1480  145.4350 C   0  0  0  0  0  2  0  0  0  0  0  0
  188.9280  176.7050  138.4290 O   0  0  0  0  0  0  0  0  0  0  0  0
  189.8750  177.2920  137.5850 C   0  0  0  0  0  2  0  0  0  0  0  0
  190.1890  176.3640  136.4230 C   0  0  0  0  0  2  0  0  0  0  0  0
  191.6200  176.1020  136.3510 N   0  0  0  0  0  2  0  0  0  0  0  0
  191.5730  174.3120  137.8500 O   0  0  0  0  0  0  0  0  0  0  0  0
  192.2600  175.0800  137.1200 C   0  0  0  0  0  0  0  0  0  0  0  0
  194.3540  173.9140  137.8080 C   0  0  0  0  0  3  0  0  0  0  0  0
  193.7200  174.9120  137.0570 C   0  0  0  0  0  0  0  0  0  0  0  0
  195.8220  175.6090  136.1720 C   0  0  0  0  0  0  0  0  0  0  0  0
  194.4670  175.7300  136.2620 N   0  0  0  0  0  0  0  0  0  0  0  0
  195.7400  173.7710  137.7300 C   0  0  0  0  0  3  0  0  0  0  0  0
  196.4800  174.6220  136.9090 C   0  0  0  0  0  3  0  0  0  0  0  0
  196.0540  177.7060  134.9020 C   0  0  0  0  0  1  0  0  0  0  0  0
  196.5640  176.4600  135.3520 O   0  0  0  0  0  0  0  0  0  0  0  0
  189.7270  176.7330  147.2290 C   0  0  0  0  0  3  0  0  0  0  0  0
  191.8000  176.0380  147.5800 C   0  0  0  0  0  1  0  0  0  0  0  0
  191.0220  177.1950  147.5070 O   0  0  0  0  0  0  0  0  0  0  0  0
  188.8670  178.5000  148.4060 C   0  0  0  0  0  1  0  0  0  0  0  0
  188.8050  177.1090  148.2320 O   0  0  0  0  0  0  0  0  0  0  0  0
  184.8880  179.1360  140.5310 C   0  0  0  0  0  2  0  0  0  0  0  0
  183.6720  178.3370  140.5600 N   0  0  0  0  0  2  0  0  0  0  0  0
  181.9670  178.9820  143.8290 C   0  0  0  0  0  3  0  0  0  0  0  0
  182.6560  178.5120  141.5480 C   0  0  0  0  0  0  0  0  0  0  0  0
  180.6270  178.8420  143.4540 C   0  0  0  0  0  3  0  0  0  0  0  0
  181.3130  178.3740  141.1790 C   0  0  0  0  0  3  0  0  0  0  0  0
  180.3000  178.5400  142.1290 C   0  0  0  0  0  3  0  0  0  0  0  0
  182.9790  178.8180  142.8790 C   0  0  0  0  0  3  0  0  0  0  0  0
  1 32  1  0  0  0  0
  2 37  1  6  0  0  0
  2  7  1  0  0  0  0
  3 18  1  6  0  0  0
  3  8  1  0  0  0  0
  4 11  1  0  0  0  0
  5  3  1  0  0  0  0
  5  4  2  0  0  0  0
  6 15  1  0  0  0  0
  7  6  1  0  0  0  0
  8  9  1  1  0  0  0
  8 12  1  0  0  0  0
  9  2  1  0  0  0  0
 10 14  1  0  0  0  0
 11 10  2  0  0  0  0
 12 10  1  0  0  0  0
 13  9  2  0  0  0  0
 14 15  2  0  0  0  0
 14 16  1  0  0  0  0
 15 17  1  0  0  0  0
 16  1  2  0  0  0  0
 17  1  1  0  0  0  0
 19 18  1  0  0  0  0
 20 19  1  0  0  0  0
 21 20  1  0  0  0  0
 21 23  1  0  0  0  0
 23 22  2  0  0  0  0
 25 23  1  0  0  0  0
 25 24  2  0  0  0  0
 26 27  2  0  0  0  0
 26 29  1  0  0  0  0
 27 25  1  0  0  0  0
 28 24  1  0  0  0  0
 29 28  2  0  0  0  0
 30 31  1  0  0  0  0
 31 26  1  0  0  0  0
 32 34  1  0  0  0  0
 32 36  1  0  0  0  0
 34 33  1  0  0  0  0
 36 35  1  0  0  0  0
 37 38  1  0  0  0  0
 38 40  1  0  0  0  0
 40 44  1  0  0  0  0
 41 39  1  0  0  0  0
 42 40  2  0  0  0  0
 42 43  1  0  0  0  0
 43 41  2  0  0  0  0
 44 39  2  0  0  0  0
M  END
>  <MODEL>
2

>  <REMARK>
 VINA RESULT:      -8.3      2.119      9.724
  Name = 
  12 active torsions:
  status: ('A' for Active; 'I' for Inactive)
    1  A    between atoms: C_1  and  C_25
    2  A    between atoms: C_5  and  C_44
    3  A    between atoms: N_6  and  C_32
    4  A    between atoms: C_7  and  C_41
    5  A    between atoms: C_9  and  O_17
    6  A    between atoms: C_14  and  O_43
    7  A    between atoms: C_15  and  O_17
    8  A    between atoms: C_15  and  C_32
    9  A    between atoms: O_21  and  C_25
   10  A    between atoms: C_23  and  N_27
   11  A    between atoms: C_25  and  O_31
   12  A    between atoms: N_27  and  C_44
                            x       y       z     vdW  Elec       q    Type
                         _______ _______ _______ _____ _____    ______ ____

>  <TORSDO>
F 12

$$$$
=
 OpenBabel10222422023D

 44 48  0  0  1  0  0  0  0  0999 V2000
  188.9580  177.1250  145.5000 C   0  0  0  0  0  0  0  0  0  0  0  0
  185.6220  178.4140  140.7660 C   0  0  2  0  0  3  0  0  0  0  0  0
  188.8290  176.9520  139.3790 C   0  0  1  0  0  3  0  0  0  0  0  0
  191.0870  177.4560  140.3170 C   0  0  0  0  0  3  0  0  0  0  0  0
  190.2940  177.2510  139.2600 C   0  0  0  0  0  3  0  0  0  0  0  0
  186.4870  177.6440  142.9650 N   0  0  0  0  0  2  0  0  0  0  0  0
  186.0690  178.8120  142.1880 C   0  0  0  0  0  2  0  0  0  0  0  0
  188.1180  178.1010  140.0510 C   0  0  1  0  0  3  0  0  0  0  0  0
  186.7260  178.4560  139.7060 C   0  0  0  0  0  0  0  0  0  0  0  0
  189.4570  177.9180  142.0670 C   0  0  0  0  0  0  0  0  0  0  0  0
  190.6110  177.4640  141.6720 N   0  0  0  0  0  0  0  0  0  0  0  0
  188.5260  178.5390  141.1920 N   0  0  0  0  0  2  0  0  0  0  0  0
  186.4280  178.6720  138.5000 O   0  0  0  0  0  0  0  0  0  0  0  0
  188.9810  177.6980  143.4380 C   0  0  0  0  0  0  0  0  0  0  0  0
  187.6440  177.6230  143.8240 C   0  0  0  0  0  0  0  0  0  0  0  0
  189.7870  177.3980  144.4700 N   0  0  0  0  0  0  0  0  0  0  0  0
  187.6180  177.2210  145.1420 C   0  0  0  0  0  2  0  0  0  0  0  0
  188.3090  176.7030  138.1060 O   0  0  0  0  0  0  0  0  0  0  0  0
  189.1040  175.6780  137.5840 C   0  0  0  0  0  2  0  0  0  0  0  0
  188.2470  174.6960  136.8020 C   0  0  0  0  0  2  0  0  0  0  0  0
  186.8370  175.0410  136.9200 N   0  0  0  0  0  2  0  0  0  0  0  0
  186.1650  172.9120  137.6060 O   0  0  0  0  0  0  0  0  0  0  0  0
  185.8360  174.0900  137.2940 C   0  0  0  0  0  0  0  0  0  0  0  0
  184.0510  175.7900  137.6720 C   0  0  0  0  0  3  0  0  0  0  0  0
  184.4180  174.4830  137.3270 C   0  0  0  0  0  0  0  0  0  0  0  0
  182.1260  173.8950  137.0340 C   0  0  0  0  0  0  0  0  0  0  0  0
  183.4510  173.5740  137.0180 N   0  0  0  0  0  0  0  0  0  0  0  0
  182.7010  176.1410  137.6940 C   0  0  0  0  0  3  0  0  0  0  0  0
  181.7310  175.1900  137.3730 C   0  0  0  0  0  3  0  0  0  0  0  0
  180.6830  172.0020  137.6650 C   0  0  0  0  0  1  0  0  0  0  0  0
  181.1550  172.9450  136.7150 O   0  0  0  0  0  0  0  0  0  0  0  0
  189.4650  176.7510  146.8660 C   0  0  0  0  0  3  0  0  0  0  0  0
  191.5860  176.2120  147.2070 C   0  0  0  0  0  1  0  0  0  0  0  0
  190.7210  177.3070  147.1510 O   0  0  0  0  0  0  0  0  0  0  0  0
  188.8400  178.2470  148.4840 C   0  0  0  0  0  1  0  0  0  0  0  0
  188.5250  177.0150  147.8890 O   0  0  0  0  0  0  0  0  0  0  0  0
  184.4480  179.2900  140.3510 C   0  0  0  0  0  2  0  0  0  0  0  0
  183.2160  178.5140  140.3580 N   0  0  0  0  0  2  0  0  0  0  0  0
  179.9830  178.4680  142.2430 C   0  0  0  0  0  3  0  0  0  0  0  0
  182.2650  178.5830  141.4220 C   0  0  0  0  0  0  0  0  0  0  0  0
  180.4360  178.7350  143.5390 C   0  0  0  0  0  3  0  0  0  0  0  0
  182.7120  178.8490  142.7210 C   0  0  0  0  0  3  0  0  0  0  0  0
  181.8000  178.9240  143.7780 C   0  0  0  0  0  3  0  0  0  0  0  0
  180.8950  178.3930  141.1870 C   0  0  0  0  0  3  0  0  0  0  0  0
  1 32  1  0  0  0  0
  2 37  1  6  0  0  0
  2  7  1  0  0  0  0
  3 18  1  6  0  0  0
  3  8  1  0  0  0  0
  4 11  1  0  0  0  0
  5  3  1  0  0  0  0
  5  4  2  0  0  0  0
  6 15  1  0  0  0  0
  7  6  1  0  0  0  0
  8  9  1  1  0  0  0
  8 12  1  0  0  0  0
  9  2  1  0  0  0  0
 10 14  1  0  0  0  0
 11 10  2  0  0  0  0
 12 10  1  0  0  0  0
 13  9  2  0  0  0  0
 14 15  2  0  0  0  0
 14 16  1  0  0  0  0
 15 17  1  0  0  0  0
 16  1  2  0  0  0  0
 17  1  1  0  0  0  0
 19 18  1  0  0  0  0
 20 21  1  0  0  0  0
 20 19  1  0  0  0  0
 21 23  1  0  0  0  0
 23 25  1  0  0  0  0
 23 22  2  0  0  0  0
 24 28  1  0  0  0  0
 25 24  2  0  0  0  0
 26 29  1  0  0  0  0
 27 26  2  0  0  0  0
 27 25  1  0  0  0  0
 29 28  2  0  0  0  0
 31 26  1  0  0  0  0
 31 30  1  0  0  0  0
 32 34  1  0  0  0  0
 32 36  1  0  0  0  0
 34 33  1  0  0  0  0
 36 35  1  0  0  0  0
 37 38  1  0  0  0  0
 38 40  1  0  0  0  0
 39 41  1  0  0  0  0
 40 42  2  0  0  0  0
 41 43  2  0  0  0  0
 42 43  1  0  0  0  0
 44 40  1  0  0  0  0
 44 39  2  0  0  0  0
M  END
>  <MODEL>
3

>  <REMARK>
 VINA RESULT:      -8.3      3.087      8.109
  Name = 
  12 active torsions:
  status: ('A' for Active; 'I' for Inactive)
    1  A    between atoms: C_1  and  C_25
    2  A    between atoms: C_5  and  C_44
    3  A    between atoms: N_6  and  C_32
    4  A    between atoms: C_7  and  C_41
    5  A    between atoms: C_9  and  O_17
    6  A    between atoms: C_14  and  O_43
    7  A    between atoms: C_15  and  O_17
    8  A    between atoms: C_15  and  C_32
    9  A    between atoms: O_21  and  C_25
   10  A    between atoms: C_23  and  N_27
   11  A    between atoms: C_25  and  O_31
   12  A    between atoms: N_27  and  C_44
                            x       y       z     vdW  Elec       q    Type
                         _______ _______ _______ _____ _____    ______ ____

>  <TORSDO>
F 12

$$$$
=
 OpenBabel10222422023D

 44 48  0  0  1  0  0  0  0  0999 V2000
  182.7300  173.6150  136.2810 C   0  0  0  0  0  0  0  0  0  0  0  0
  187.7860  176.4410  137.5650 C   0  0  2  0  0  3  0  0  0  0  0  0
  185.0620  178.3760  139.3490 C   0  0  1  0  0  3  0  0  0  0  0  0
  182.8210  178.8320  138.3480 C   0  0  0  0  0  3  0  0  0  0  0  0
  183.8690  179.2420  139.0700 C   0  0  0  0  0  3  0  0  0  0  0  0
  186.0070  174.7550  137.1530 N   0  0  0  0  0  2  0  0  0  0  0  0
  186.9610  175.6650  136.5170 C   0  0  0  0  0  2  0  0  0  0  0  0
  185.7380  177.9910  138.0550 C   0  0  1  0  0  3  0  0  0  0  0  0
  187.2000  177.7940  137.9760 C   0  0  0  0  0  0  0  0  0  0  0  0
  183.7490  176.9000  137.1910 C   0  0  0  0  0  0  0  0  0  0  0  0
  182.7480  177.5420  137.7210 N   0  0  0  0  0  0  0  0  0  0  0  0
  185.0610  177.4390  137.1080 N   0  0  0  0  0  2  0  0  0  0  0  0
  187.9650  178.7140  138.3750 O   0  0  0  0  0  0  0  0  0  0  0  0
  183.6140  175.5050  136.7570 C   0  0  0  0  0  0  0  0  0  0  0  0
  184.6490  174.5730  136.7060 C   0  0  0  0  0  0  0  0  0  0  0  0
  182.4370  174.9160  136.4900 N   0  0  0  0  0  2  0  0  0  0  0  0
  184.0850  173.3450  136.4340 C   0  0  0  0  0  3  0  0  0  0  0  0
  185.9350  179.0610  140.1980 O   0  0  0  0  0  0  0  0  0  0  0  0
  185.2060  179.2720  141.3720 C   0  0  0  0  0  2  0  0  0  0  0  0
  185.0560  177.9690  142.1400 C   0  0  0  0  0  2  0  0  0  0  0  0
  185.7680  178.0390  143.4080 N   0  0  0  0  0  2  0  0  0  0  0  0
  187.7020  177.0010  142.6100 O   0  0  0  0  0  0  0  0  0  0  0  0
  187.0820  177.5010  143.5890 C   0  0  0  0  0  0  0  0  0  0  0  0
  186.9720  177.8580  146.0540 C   0  0  0  0  0  3  0  0  0  0  0  0
  187.7200  177.5390  144.9140 C   0  0  0  0  0  0  0  0  0  0  0  0
  189.6800  177.2800  146.2470 C   0  0  0  0  0  0  0  0  0  0  0  0
  189.0480  177.2590  145.0390 N   0  0  0  0  0  0  0  0  0  0  0  0
  187.5980  177.8850  147.3000 C   0  0  0  0  0  3  0  0  0  0  0  0
  188.9590  177.5950  147.4010 C   0  0  0  0  0  3  0  0  0  0  0  0
  191.6000  176.3900  147.5060 C   0  0  0  0  0  1  0  0  0  0  0  0
  191.0420  176.9920  146.3480 O   0  0  0  0  0  0  0  0  0  0  0  0
  181.6780  172.5960  135.9350 C   0  0  0  0  0  3  0  0  0  0  0  0
  181.8070  170.5830  135.0190 C   0  0  0  0  0  1  0  0  0  0  0  0
  181.9340  171.9410  134.7210 O   0  0  0  0  0  0  0  0  0  0  0  0
  180.4700  172.2330  137.8470 C   0  0  0  0  0  1  0  0  0  0  0  0
  181.4340  171.6840  136.9870 O   0  0  0  0  0  0  0  0  0  0  0  0
  189.2090  176.6080  137.0510 C   0  0  0  0  0  2  0  0  0  0  0  0
  190.1310  175.8300  137.8650 N   0  0  0  0  0  2  0  0  0  0  0  0
  193.0540  177.2710  139.7040 C   0  0  0  0  0  3  0  0  0  0  0  0
  190.9330  176.4110  138.8940 C   0  0  0  0  0  0  0  0  0  0  0  0
  192.4690  177.5470  140.9440 C   0  0  0  0  0  3  0  0  0  0  0  0
  190.3530  176.6900  140.1370 C   0  0  0  0  0  3  0  0  0  0  0  0
  191.1190  177.2580  141.1600 C   0  0  0  0  0  3  0  0  0  0  0  0
  192.2890  176.7050  138.6820 C   0  0  0  0  0  3  0  0  0  0  0  0
  1 17  2  0  0  0  0
  1 16  1  0  0  0  0
  2 37  1  6  0  0  0
  2  9  1  0  0  0  0
  3 18  1  1  0  0  0
  4  5  2  0  0  0  0
  5  3  1  0  0  0  0
  7  6  1  0  0  0  0
  7  2  1  0  0  0  0
  8 12  1  1  0  0  0
  8  3  1  0  0  0  0
  9  8  1  0  0  0  0
  9 13  2  0  0  0  0
 10 11  2  0  0  0  0
 11  4  1  0  0  0  0
 12 10  1  0  0  0  0
 14 10  1  0  0  0  0
 15 14  2  0  0  0  0
 15  6  1  0  0  0  0
 16 14  1  0  0  0  0
 17 15  1  0  0  0  0
 18 19  1  0  0  0  0
 19 20  1  0  0  0  0
 20 21  1  0  0  0  0
 21 23  1  0  0  0  0
 22 23  2  0  0  0  0
 23 25  1  0  0  0  0
 24 28  1  0  0  0  0
 25 27  1  0  0  0  0
 25 24  2  0  0  0  0
 26 31  1  0  0  0  0
 26 29  1  0  0  0  0
 27 26  2  0  0  0  0
 28 29  2  0  0  0  0
 31 30  1  0  0  0  0
 32  1  1  0  0  0  0
 32 36  1  0  0  0  0
 34 33  1  0  0  0  0
 34 32  1  0  0  0  0
 36 35  1  0  0  0  0
 37 38  1  0  0  0  0
 38 40  1  0  0  0  0
 39 41  1  0  0  0  0
 40 42  2  0  0  0  0
 41 43  2  0  0  0  0
 42 43  1  0  0  0  0
 44 40  1  0  0  0  0
 44 39  2  0  0  0  0
M  END
>  <MODEL>
4

>  <REMARK>
 VINA RESULT:      -8.1      3.278      7.062
  Name = 
  12 active torsions:
  status: ('A' for Active; 'I' for Inactive)
    1  A    between atoms: C_1  and  C_25
    2  A    between atoms: C_5  and  C_44
    3  A    between atoms: N_6  and  C_32
    4  A    between atoms: C_7  and  C_41
    5  A    between atoms: C_9  and  O_17
    6  A    between atoms: C_14  and  O_43
    7  A    between atoms: C_15  and  O_17
    8  A    between atoms: C_15  and  C_32
    9  A    between atoms: O_21  and  C_25
   10  A    between atoms: C_23  and  N_27
   11  A    between atoms: C_25  and  O_31
   12  A    between atoms: N_27  and  C_44
                            x       y       z     vdW  Elec       q    Type
                         _______ _______ _______ _____ _____    ______ ____

>  <TORSDO>
F 12

$$$$
=
 OpenBabel10222422023D

 44 48  0  0  1  0  0  0  0  0999 V2000
  187.1540  173.8480  136.3450 C   0  0  0  0  0  0  0  0  0  0  0  0
  192.7890  175.1480  137.6720 C   0  0  2  0  0  3  0  0  0  0  0  0
  190.6940  176.9620  140.2540 C   0  0  1  0  0  3  0  0  0  0  0  0
  188.5450  178.1130  139.7180 C   0  0  0  0  0  3  0  0  0  0  0  0
  189.7070  178.0840  140.3800 C   0  0  0  0  0  3  0  0  0  0  0  0
  190.6560  174.0310  137.0550 N   0  0  0  0  0  2  0  0  0  0  0  0
  191.7400  174.8860  136.5700 C   0  0  0  0  0  2  0  0  0  0  0  0
  191.1750  176.8500  138.8280 C   0  0  1  0  0  3  0  0  0  0  0  0
  192.5480  176.4070  138.5070 C   0  0  0  0  0  0  0  0  0  0  0  0
  188.9380  176.4630  137.9690 C   0  0  0  0  0  0  0  0  0  0  0  0
  188.1440  177.1020  138.7800 N   0  0  0  0  0  0  0  0  0  0  0  0
  190.3270  176.7400  137.8640 N   0  0  0  0  0  2  0  0  0  0  0  0
  193.5240  177.0050  139.0360 O   0  0  0  0  0  0  0  0  0  0  0  0
  188.4660  175.3090  137.1950 C   0  0  0  0  0  0  0  0  0  0  0  0
  189.2630  174.2520  136.7580 C   0  0  0  0  0  0  0  0  0  0  0  0
  187.1720  175.0620  136.9350 N   0  0  0  0  0  2  0  0  0  0  0  0
  188.4230  173.2900  136.2400 C   0  0  0  0  0  3  0  0  0  0  0  0
  191.7550  177.1870  141.1360 O   0  0  0  0  0  0  0  0  0  0  0  0
  191.1780  177.8060  142.2480 C   0  0  0  0  0  2  0  0  0  0  0  0
  191.0200  176.8080  143.3820 C   0  0  0  0  0  2  0  0  0  0  0  0
  190.0580  177.2960  144.3620 N   0  0  0  0  0  2  0  0  0  0  0  0
  188.2070  176.3100  143.3350 O   0  0  0  0  0  0  0  0  0  0  0  0
  188.6540  177.0410  144.2620 C   0  0  0  0  0  0  0  0  0  0  0  0
  187.9850  177.5150  146.6170 C   0  0  0  0  0  3  0  0  0  0  0  0
  187.7260  177.6220  145.2440 C   0  0  0  0  0  0  0  0  0  0  0  0
  185.7180  178.8260  145.6970 C   0  0  0  0  0  0  0  0  0  0  0  0
  186.6050  178.2720  144.8220 N   0  0  0  0  0  0  0  0  0  0  0  0
  187.0920  178.0760  147.5300 C   0  0  0  0  0  3  0  0  0  0  0  0
  185.9520  178.7360  147.0700 C   0  0  0  0  0  3  0  0  0  0  0  0
  183.4770  178.7840  144.6790 C   0  0  0  0  0  1  0  0  0  0  0  0
  184.5760  179.4850  145.2390 O   0  0  0  0  0  0  0  0  0  0  0  0
  185.8810  173.1960  135.8770 C   0  0  0  0  0  3  0  0  0  0  0  0
  184.8720  172.7470  137.7970 C   0  0  0  0  0  1  0  0  0  0  0  0
  184.7710  173.5490  136.6590 O   0  0  0  0  0  0  0  0  0  0  0  0
  184.4910  174.1830  134.3480 C   0  0  0  0  0  1  0  0  0  0  0  0
  185.6410  173.3930  134.4980 O   0  0  0  0  0  0  0  0  0  0  0  0
  194.1740  175.1820  137.0400 C   0  0  0  0  0  2  0  0  0  0  0  0
  195.0200  174.1570  137.6330 N   0  0  0  0  0  2  0  0  0  0  0  0
  197.0490  175.2320  140.5880 C   0  0  0  0  0  3  0  0  0  0  0  0
  196.1320  174.4640  138.4750 C   0  0  0  0  0  0  0  0  0  0  0  0
  198.3440  175.0590  140.0890 C   0  0  0  0  0  3  0  0  0  0  0  0
  197.4300  174.2930  137.9810 C   0  0  0  0  0  3  0  0  0  0  0  0
  198.5340  174.5880  138.7860 C   0  0  0  0  0  3  0  0  0  0  0  0
  195.9460  174.9350  139.7830 C   0  0  0  0  0  3  0  0  0  0  0  0
  1 16  1  0  0  0  0
  2 37  1  6  0  0  0
  2  9  1  0  0  0  0
  3  5  1  0  0  0  0
  3 18  1  1  0  0  0
  4  5  2  0  0  0  0
  7  6  1  0  0  0  0
  7  2  1  0  0  0  0
  8 12  1  6  0  0  0
  8  3  1  0  0  0  0
  9  8  1  0  0  0  0
  9 13  2  0  0  0  0
 10 11  2  0  0  0  0
 11  4  1  0  0  0  0
 12 10  1  0  0  0  0
 14 10  1  0  0  0  0
 15  6  1  0  0  0  0
 15 14  2  0  0  0  0
 16 14  1  0  0  0  0
 17  1  2  0  0  0  0
 17 15  1  0  0  0  0
 18 19  1  0  0  0  0
 19 20  1  0  0  0  0
 20 21  1  0  0  0  0
 22 23  2  0  0  0  0
 23 21  1  0  0  0  0
 23 25  1  0  0  0  0
 24 28  1  0  0  0  0
 25 24  2  0  0  0  0
 26 29  1  0  0  0  0
 27 25  1  0  0  0  0
 27 26  2  0  0  0  0
 29 28  2  0  0  0  0
 30 31  1  0  0  0  0
 31 26  1  0  0  0  0
 32  1  1  0  0  0  0
 32 34  1  0  0  0  0
 34 33  1  0  0  0  0
 35 36  1  0  0  0  0
 36 32  1  0  0  0  0
 37 38  1  0  0  0  0
 38 40  1  0  0  0  0
 40 44  1  0  0  0  0
 41 39  1  0  0  0  0
 42 40  2  0  0  0  0
 42 43  1  0  0  0  0
 43 41  2  0  0  0  0
 44 39  2  0  0  0  0
M  END
>  <MODEL>
5

>  <REMARK>
 VINA RESULT:      -8.0      3.092      6.660
  Name = 
  12 active torsions:
  status: ('A' for Active; 'I' for Inactive)
    1  A    between atoms: C_1  and  C_25
    2  A    between atoms: C_5  and  C_44
    3  A    between atoms: N_6  and  C_32
    4  A    between atoms: C_7  and  C_41
    5  A    between atoms: C_9  and  O_17
    6  A    between atoms: C_14  and  O_43
    7  A    between atoms: C_15  and  O_17
    8  A    between atoms: C_15  and  C_32
    9  A    between atoms: O_21  and  C_25
   10  A    between atoms: C_23  and  N_27
   11  A    between atoms: C_25  and  O_31
   12  A    between atoms: N_27  and  C_44
                            x       y       z     vdW  Elec       q    Type
                         _______ _______ _______ _____ _____    ______ ____

>  <TORSDO>
F 12

$$$$
=
 OpenBabel10222422023D

 44 48  0  0  1  0  0  0  0  0999 V2000
  188.9990  177.1160  145.9450 C   0  0  0  0  0  0  0  0  0  0  0  0
  186.1100  178.3210  140.9040 C   0  0  2  0  0  3  0  0  0  0  0  0
  189.4820  176.9610  139.8410 C   0  0  1  0  0  3  0  0  0  0  0  0
  191.6190  177.5290  140.9980 C   0  0  0  0  0  3  0  0  0  0  0  0
  190.9420  177.3050  139.8670 C   0  0  0  0  0  3  0  0  0  0  0  0
  186.7760  177.5700  143.1780 N   0  0  0  0  0  2  0  0  0  0  0  0
  186.4020  178.7270  142.3640 C   0  0  0  0  0  2  0  0  0  0  0  0
  188.6730  178.0860  140.4400 C   0  0  1  0  0  3  0  0  0  0  0  0
  187.3120  178.4000  139.9590 C   0  0  0  0  0  0  0  0  0  0  0  0
  189.8110  177.9360  142.5790 C   0  0  0  0  0  0  0  0  0  0  0  0
  191.0120  177.5180  142.2990 N   0  0  0  0  0  0  0  0  0  0  0  0
  188.9530  178.5320  141.6160 N   0  0  0  0  0  2  0  0  0  0  0  0
  187.1290  178.6120  138.7290 O   0  0  0  0  0  0  0  0  0  0  0  0
  189.2090  177.6960  143.8950 C   0  0  0  0  0  0  0  0  0  0  0  0
  187.8430  177.5790  144.1480 C   0  0  0  0  0  0  0  0  0  0  0  0
  189.9170  177.4170  145.0020 N   0  0  0  0  0  0  0  0  0  0  0  0
  187.6990  177.1720  145.4560 C   0  0  0  0  0  2  0  0  0  0  0  0
  189.0980  176.7020  138.5220 O   0  0  0  0  0  0  0  0  0  0  0  0
  190.2960  176.6120  137.8070 C   0  0  0  0  0  2  0  0  0  0  0  0
  190.4310  175.2350  137.1780 C   0  0  0  0  0  2  0  0  0  0  0  0
  191.6910  174.6170  137.5680 N   0  0  0  0  0  2  0  0  0  0  0  0
  192.9930  175.8610  136.0800 O   0  0  0  0  0  0  0  0  0  0  0  0
  192.9390  174.9500  136.9520 C   0  0  0  0  0  0  0  0  0  0  0  0
  194.3000  172.8660  137.0980 C   0  0  0  0  0  3  0  0  0  0  0  0
  194.1670  174.2390  137.3400 C   0  0  0  0  0  0  0  0  0  0  0  0
  196.3440  174.2990  138.3110 C   0  0  0  0  0  0  0  0  0  0  0  0
  195.1880  174.9170  137.9370 N   0  0  0  0  0  0  0  0  0  0  0  0
  195.4750  172.2130  137.4720 C   0  0  0  0  0  3  0  0  0  0  0  0
  196.5040  172.9310  138.0820 C   0  0  0  0  0  3  0  0  0  0  0  0
  197.4850  175.1180  140.3340 C   0  0  0  0  0  1  0  0  0  0  0  0
  197.3740  175.0160  138.9230 O   0  0  0  0  0  0  0  0  0  0  0  0
  189.3790  176.7510  147.3540 C   0  0  0  0  0  3  0  0  0  0  0  0
  191.5320  176.2340  147.2900 C   0  0  0  0  0  1  0  0  0  0  0  0
  190.6480  177.2280  147.7150 O   0  0  0  0  0  0  0  0  0  0  0  0
  188.6860  178.3910  148.7950 C   0  0  0  0  0  1  0  0  0  0  0  0
  188.3900  177.1120  148.2970 O   0  0  0  0  0  0  0  0  0  0  0  0
  184.9570  179.1630  140.3760 C   0  0  0  0  0  2  0  0  0  0  0  0
  183.7730  178.9640  141.2000 N   0  0  0  0  0  2  0  0  0  0  0  0
  180.1750  178.1090  140.6320 C   0  0  0  0  0  3  0  0  0  0  0  0
  182.5910  178.3270  140.7130 C   0  0  0  0  0  0  0  0  0  0  0  0
  180.3010  177.0420  139.7360 C   0  0  0  0  0  3  0  0  0  0  0  0
  182.7110  177.2600  139.8160 C   0  0  0  0  0  3  0  0  0  0  0  0
  181.5690  176.6190  139.3270 C   0  0  0  0  0  3  0  0  0  0  0  0
  181.3160  178.7500  141.1190 C   0  0  0  0  0  3  0  0  0  0  0  0
  1 32  1  0  0  0  0
  2 37  1  6  0  0  0
  2  7  1  0  0  0  0
  3 18  1  6  0  0  0
  3  5  1  0  0  0  0
  3  8  1  0  0  0  0
  4 11  1  0  0  0  0
  5  4  2  0  0  0  0
  6 15  1  0  0  0  0
  7  6  1  0  0  0  0
  8  9  1  1  0  0  0
  8 12  1  0  0  0  0
  9  2  1  0  0  0  0
 10 14  1  0  0  0  0
 11 10  2  0  0  0  0
 12 10  1  0  0  0  0
 13  9  2  0  0  0  0
 14 15  2  0  0  0  0
 14 16  1  0  0  0  0
 15 17  1  0  0  0  0
 16  1  2  0  0  0  0
 17  1  1  0  0  0  0
 19 18  1  0  0  0  0
 20 21  1  0  0  0  0
 20 19  1  0  0  0  0
 22 23  2  0  0  0  0
 23 25  1  0  0  0  0
 23 21  1  0  0  0  0
 24 25  2  0  0  0  0
 24 28  1  0  0  0  0
 25 27  1  0  0  0  0
 26 31  1  0  0  0  0
 27 26  2  0  0  0  0
 28 29  2  0  0  0  0
 29 26  1  0  0  0  0
 31 30  1  0  0  0  0
 32 34  1  0  0  0  0
 32 36  1  0  0  0  0
 33 34  1  0  0  0  0
 36 35  1  0  0  0  0
 37 38  1  0  0  0  0
 39 44  1  0  0  0  0
 40 44  2  0  0  0  0
 40 38  1  0  0  0  0
 41 39  2  0  0  0  0
 42 40  1  0  0  0  0
 43 41  1  0  0  0  0
 43 42  2  0  0  0  0
M  END
>  <MODEL>
6

>  <REMARK>
 VINA RESULT:      -7.9      2.552      9.937
  Name = 
  12 active torsions:
  status: ('A' for Active; 'I' for Inactive)
    1  A    between atoms: C_1  and  C_25
    2  A    between atoms: C_5  and  C_44
    3  A    between atoms: N_6  and  C_32
    4  A    between atoms: C_7  and  C_41
    5  A    between atoms: C_9  and  O_17
    6  A    between atoms: C_14  and  O_43
    7  A    between atoms: C_15  and  O_17
    8  A    between atoms: C_15  and  C_32
    9  A    between atoms: O_21  and  C_25
   10  A    between atoms: C_23  and  N_27
   11  A    between atoms: C_25  and  O_31
   12  A    between atoms: N_27  and  C_44
                            x       y       z     vdW  Elec       q    Type
                         _______ _______ _______ _____ _____    ______ ____

>  <TORSDO>
F 12

$$$$
=
 OpenBabel10222422023D

 44 48  0  0  1  0  0  0  0  0999 V2000
  194.4840  175.8050  135.7790 C   0  0  0  0  0  0  0  0  0  0  0  0
  188.5590  176.1120  135.8000 C   0  0  2  0  0  3  0  0  0  0  0  0
  189.6860  178.0490  138.8540 C   0  0  1  0  0  3  0  0  0  0  0  0
  191.5640  177.3200  140.3270 C   0  0  0  0  0  3  0  0  0  0  0  0
  190.3450  177.8500  140.1860 C   0  0  0  0  0  3  0  0  0  0  0  0
  190.9680  176.1110  135.1900 N   0  0  0  0  0  2  0  0  0  0  0  0
  189.8160  175.2660  135.5050 C   0  0  0  0  0  2  0  0  0  0  0  0
  189.5010  176.7200  138.1620 C   0  0  1  0  0  3  0  0  0  0  0  0
  188.3480  176.4650  137.2740 C   0  0  0  0  0  0  0  0  0  0  0  0
  191.8810  176.2430  138.1650 C   0  0  0  0  0  0  0  0  0  0  0  0
  192.3480  176.8380  139.2250 N   0  0  0  0  0  0  0  0  0  0  0  0
  190.5060  175.9320  137.9930 N   0  0  0  0  0  2  0  0  0  0  0  0
  187.1820  176.6640  137.7110 O   0  0  0  0  0  0  0  0  0  0  0  0
  192.7380  175.9700  137.0060 C   0  0  0  0  0  0  0  0  0  0  0  0
  192.3010  175.8710  135.6860 C   0  0  0  0  0  0  0  0  0  0  0  0
  194.0790  175.9230  137.0610 N   0  0  0  0  0  2  0  0  0  0  0  0
  193.4200  175.7990  134.8850 C   0  0  0  0  0  3  0  0  0  0  0  0
  188.4640  178.7020  139.0420 O   0  0  0  0  0  0  0  0  0  0  0  0
  188.2350  178.6530  140.4190 C   0  0  0  0  0  2  0  0  0  0  0  0
  186.7660  178.3790  140.6980 C   0  0  0  0  0  2  0  0  0  0  0  0
  186.4640  178.6010  142.1060 N   0  0  0  0  0  2  0  0  0  0  0  0
  187.7050  176.7750  142.8680 O   0  0  0  0  0  0  0  0  0  0  0  0
  186.9370  177.7380  143.1440 C   0  0  0  0  0  0  0  0  0  0  0  0
  185.2380  178.3980  144.8460 C   0  0  0  0  0  3  0  0  0  0  0  0
  186.5370  177.9740  144.5400 C   0  0  0  0  0  0  0  0  0  0  0  0
  187.1060  177.9840  146.8560 C   0  0  0  0  0  0  0  0  0  0  0  0
  187.4340  177.7780  145.5480 N   0  0  0  0  0  0  0  0  0  0  0  0
  184.8810  178.6130  146.1770 C   0  0  0  0  0  3  0  0  0  0  0  0
  185.8180  178.4060  147.1900 C   0  0  0  0  0  3  0  0  0  0  0  0
  189.3930  177.4380  147.5900 C   0  0  0  0  0  1  0  0  0  0  0  0
  188.0430  177.7780  147.8700 O   0  0  0  0  0  0  0  0  0  0  0  0
  195.9360  175.7060  135.3970 C   0  0  0  0  0  3  0  0  0  0  0  0
  196.2990  177.7600  134.6530 C   0  0  0  0  0  1  0  0  0  0  0  0
  196.6520  176.8790  135.6770 O   0  0  0  0  0  0  0  0  0  0  0  0
  197.9570  174.7290  135.8530 C   0  0  0  0  0  1  0  0  0  0  0  0
  196.5660  174.5600  135.9350 O   0  0  0  0  0  0  0  0  0  0  0  0
  187.3370  175.3970  135.2400 C   0  0  0  0  0  2  0  0  0  0  0  0
  187.4090  173.9740  135.5380 N   0  0  0  0  0  2  0  0  0  0  0  0
  184.7840  171.3180  135.7850 C   0  0  0  0  0  3  0  0  0  0  0  0
  186.2810  173.2190  135.9830 C   0  0  0  0  0  0  0  0  0  0  0  0
  184.0570  171.7750  136.8880 C   0  0  0  0  0  3  0  0  0  0  0  0
  185.5490  173.6720  137.0870 C   0  0  0  0  0  3  0  0  0  0  0  0
  184.4400  172.9510  137.5390 C   0  0  0  0  0  3  0  0  0  0  0  0
  185.8940  172.0380  135.3330 C   0  0  0  0  0  3  0  0  0  0  0  0
  1 16  1  0  0  0  0
  2 37  1  1  0  0  0
  2  9  1  0  0  0  0
  3 18  1  1  0  0  0
  3  5  1  0  0  0  0
  5  4  2  0  0  0  0
  6  7  1  0  0  0  0
  6 15  1  0  0  0  0
  7  2  1  0  0  0  0
  8  9  1  6  0  0  0
  8  3  1  0  0  0  0
  9 13  2  0  0  0  0
 10 11  2  0  0  0  0
 11  4  1  0  0  0  0
 12  8  1  0  0  0  0
 12 10  1  0  0  0  0
 14 16  1  0  0  0  0
 14 10  1  0  0  0  0
 15 14  2  0  0  0  0
 17 15  1  0  0  0  0
 17  1  2  0  0  0  0
 18 19  1  0  0  0  0
 19 20  1  0  0  0  0
 20 21  1  0  0  0  0
 21 23  1  0  0  0  0
 22 23  2  0  0  0  0
 23 25  1  0  0  0  0
 24 28  1  0  0  0  0
 25 24  2  0  0  0  0
 25 27  1  0  0  0  0
 26 29  1  0  0  0  0
 26 31  1  0  0  0  0
 27 26  2  0  0  0  0
 28 29  2  0  0  0  0
 30 31  1  0  0  0  0
 32 34  1  0  0  0  0
 32  1  1  0  0  0  0
 32 36  1  0  0  0  0
 33 34  1  0  0  0  0
 35 36  1  0  0  0  0
 37 38  1  0  0  0  0
 38 40  1  0  0  0  0
 39 41  1  0  0  0  0
 40 42  2  0  0  0  0
 41 43  2  0  0  0  0
 42 43  1  0  0  0  0
 44 39  2  0  0  0  0
 44 40  1  0  0  0  0
M  END
>  <MODEL>
7

>  <REMARK>
 VINA RESULT:      -7.9      2.686      5.843
  Name = 
  12 active torsions:
  status: ('A' for Active; 'I' for Inactive)
    1  A    between atoms: C_1  and  C_25
    2  A    between atoms: C_5  and  C_44
    3  A    between atoms: N_6  and  C_32
    4  A    between atoms: C_7  and  C_41
    5  A    between atoms: C_9  and  O_17
    6  A    between atoms: C_14  and  O_43
    7  A    between atoms: C_15  and  O_17
    8  A    between atoms: C_15  and  C_32
    9  A    between atoms: O_21  and  C_25
   10  A    between atoms: C_23  and  N_27
   11  A    between atoms: C_25  and  O_31
   12  A    between atoms: N_27  and  C_44
                            x       y       z     vdW  Elec       q    Type
                         _______ _______ _______ _____ _____    ______ ____

>  <TORSDO>
F 12

$$$$
=
 OpenBabel10222422023D

 44 48  0  0  1  0  0  0  0  0999 V2000
  189.7090  177.3980  146.2150 C   0  0  0  0  0  0  0  0  0  0  0  0
  186.4390  178.2780  141.3420 C   0  0  2  0  0  3  0  0  0  0  0  0
  189.7580  176.9340  140.1080 C   0  0  1  0  0  3  0  0  0  0  0  0
  191.9580  177.6050  141.0760 C   0  0  0  0  0  3  0  0  0  0  0  0
  191.2070  177.3070  140.0110 C   0  0  0  0  0  3  0  0  0  0  0  0
  187.2840  177.6610  143.5970 N   0  0  0  0  0  2  0  0  0  0  0  0
  186.8240  178.7670  142.7550 C   0  0  0  0  0  2  0  0  0  0  0  0
  188.9670  178.0720  140.7060 C   0  0  1  0  0  3  0  0  0  0  0  0
  187.5670  178.3320  140.3100 C   0  0  0  0  0  0  0  0  0  0  0  0
  190.2580  178.0570  142.7610 C   0  0  0  0  0  0  0  0  0  0  0  0
  191.4460  177.6490  142.4170 N   0  0  0  0  0  0  0  0  0  0  0  0
  189.3190  178.5840  141.8350 N   0  0  0  0  0  2  0  0  0  0  0  0
  187.2920  178.4750  139.0870 O   0  0  0  0  0  0  0  0  0  0  0  0
  189.7570  177.8750  144.1280 C   0  0  0  0  0  0  0  0  0  0  0  0
  188.4160  177.7440  144.4850 C   0  0  0  0  0  0  0  0  0  0  0  0
  190.5490  177.6690  145.1940 N   0  0  0  0  0  0  0  0  0  0  0  0
  188.3760  177.4030  145.8200 C   0  0  0  0  0  2  0  0  0  0  0  0
  189.2870  176.5970  138.8350 O   0  0  0  0  0  0  0  0  0  0  0  0
  190.2070  177.1630  137.9480 C   0  0  0  0  0  2  0  0  0  0  0  0
  189.7860  176.8920  136.5120 C   0  0  0  0  0  2  0  0  0  0  0  0
  188.4710  176.2660  136.4750 N   0  0  0  0  0  2  0  0  0  0  0  0
  187.3480  178.1990  135.7990 O   0  0  0  0  0  0  0  0  0  0  0  0
  187.2800  176.9870  136.1430 C   0  0  0  0  0  0  0  0  0  0  0  0
  185.8620  174.9510  135.8950 C   0  0  0  0  0  3  0  0  0  0  0  0
  185.9720  176.3150  136.1930 C   0  0  0  0  0  0  0  0  0  0  0  0
  183.6250  176.4380  136.5930 C   0  0  0  0  0  0  0  0  0  0  0  0
  184.8560  177.0210  136.5330 N   0  0  0  0  0  0  0  0  0  0  0  0
  184.6120  174.3350  135.9520 C   0  0  0  0  0  3  0  0  0  0  0  0
  183.4850  175.0800  136.3020 C   0  0  0  0  0  3  0  0  0  0  0  0
  182.5910  178.3860  137.6890 C   0  0  0  0  0  1  0  0  0  0  0  0
  182.4970  177.1830  136.9430 O   0  0  0  0  0  0  0  0  0  0  0  0
  190.1970  177.1170  147.6100 C   0  0  0  0  0  3  0  0  0  0  0  0
  191.7460  175.5440  147.4280 C   0  0  0  0  0  1  0  0  0  0  0  0
  191.5830  176.9100  147.6680 O   0  0  0  0  0  0  0  0  0  0  0  0
  188.3780  177.9610  148.7160 C   0  0  0  0  0  1  0  0  0  0  0  0
  189.7660  178.0840  148.5450 O   0  0  0  0  0  0  0  0  0  0  0  0
  185.2310  179.0680  140.8570 C   0  0  0  0  0  2  0  0  0  0  0  0
  184.0400  178.2330  140.8920 N   0  0  0  0  0  2  0  0  0  0  0  0
  182.2180  178.8570  144.1010 C   0  0  0  0  0  3  0  0  0  0  0  0
  182.9880  178.4250  141.8390 C   0  0  0  0  0  0  0  0  0  0  0  0
  180.8910  178.7900  143.6620 C   0  0  0  0  0  3  0  0  0  0  0  0
  181.6590  178.3610  141.4060 C   0  0  0  0  0  3  0  0  0  0  0  0
  180.6120  178.5440  142.3150 C   0  0  0  0  0  3  0  0  0  0  0  0
  183.2630  178.6740  143.1930 C   0  0  0  0  0  3  0  0  0  0  0  0
  1 32  1  0  0  0  0
  2 37  1  6  0  0  0
  2  7  1  0  0  0  0
  3 18  1  6  0  0  0
  3  8  1  0  0  0  0
  4 11  1  0  0  0  0
  5  3  1  0  0  0  0
  5  4  2  0  0  0  0
  6 15  1  0  0  0  0
  7  6  1  0  0  0  0
  8  9  1  1  0  0  0
  8 12  1  0  0  0  0
  9  2  1  0  0  0  0
 10 14  1  0  0  0  0
 11 10  2  0  0  0  0
 12 10  1  0  0  0  0
 13  9  2  0  0  0  0
 14 15  2  0  0  0  0
 14 16  1  0  0  0  0
 15 17  1  0  0  0  0
 16  1  2  0  0  0  0
 17  1  1  0  0  0  0
 19 18  1  0  0  0  0
 20 19  1  0  0  0  0
 21 20  1  0  0  0  0
 22 23  2  0  0  0  0
 23 25  1  0  0  0  0
 23 21  1  0  0  0  0
 24 28  1  0  0  0  0
 24 25  2  0  0  0  0
 25 27  1  0  0  0  0
 26 31  1  0  0  0  0
 27 26  2  0  0  0  0
 28 29  2  0  0  0  0
 29 26  1  0  0  0  0
 31 30  1  0  0  0  0
 32 34  1  0  0  0  0
 32 36  1  0  0  0  0
 33 34  1  0  0  0  0
 36 35  1  0  0  0  0
 37 38  1  0  0  0  0
 38 40  1  0  0  0  0
 40 44  1  0  0  0  0
 41 39  1  0  0  0  0
 42 40  2  0  0  0  0
 42 43  1  0  0  0  0
 43 41  2  0  0  0  0
 44 39  2  0  0  0  0
M  END
>  <MODEL>
8

>  <REMARK>
 VINA RESULT:      -7.9      2.807      8.112
  Name = 
  12 active torsions:
  status: ('A' for Active; 'I' for Inactive)
    1  A    between atoms: C_1  and  C_25
    2  A    between atoms: C_5  and  C_44
    3  A    between atoms: N_6  and  C_32
    4  A    between atoms: C_7  and  C_41
    5  A    between atoms: C_9  and  O_17
    6  A    between atoms: C_14  and  O_43
    7  A    between atoms: C_15  and  O_17
    8  A    between atoms: C_15  and  C_32
    9  A    between atoms: O_21  and  C_25
   10  A    between atoms: C_23  and  N_27
   11  A    between atoms: C_25  and  O_31
   12  A    between atoms: N_27  and  C_44
                            x       y       z     vdW  Elec       q    Type
                         _______ _______ _______ _____ _____    ______ ____

>  <TORSDO>
F 12

$$$$
=
 OpenBabel10222422023D

 44 48  0  0  1  0  0  0  0  0999 V2000
  186.7350  173.4260  136.5150 C   0  0  0  0  0  0  0  0  0  0  0  0
  192.4290  174.6760  137.6190 C   0  0  2  0  0  3  0  0  0  0  0  0
  190.4310  176.9570  139.8890 C   0  0  1  0  0  3  0  0  0  0  0  0
  188.3290  178.1010  139.1820 C   0  0  0  0  0  3  0  0  0  0  0  0
  189.4930  178.1260  139.8390 C   0  0  0  0  0  3  0  0  0  0  0  0
  190.2470  173.5690  137.1860 N   0  0  0  0  0  2  0  0  0  0  0  0
  191.3620  174.2910  136.5730 C   0  0  0  0  0  2  0  0  0  0  0  0
  190.8970  176.6050  138.4970 C   0  0  1  0  0  3  0  0  0  0  0  0
  192.2470  176.0590  138.2490 C   0  0  0  0  0  0  0  0  0  0  0  0
  188.6390  176.1840  137.7110 C   0  0  0  0  0  0  0  0  0  0  0  0
  187.8790  176.9750  138.4130 N   0  0  0  0  0  0  0  0  0  0  0  0
  190.0380  176.3820  137.5630 N   0  0  0  0  0  2  0  0  0  0  0  0
  193.2520  176.6900  138.6770 O   0  0  0  0  0  0  0  0  0  0  0  0
  188.1140  174.9450  137.1260 C   0  0  0  0  0  0  0  0  0  0  0  0
  188.8620  173.8000  136.8590 C   0  0  0  0  0  0  0  0  0  0  0  0
  186.8090  174.7150  136.9090 N   0  0  0  0  0  2  0  0  0  0  0  0
  187.9790  172.8060  136.4980 C   0  0  0  0  0  3  0  0  0  0  0  0
  191.5070  177.2720  140.7240 O   0  0  0  0  0  0  0  0  0  0  0  0
  190.9250  177.6860  141.9250 C   0  0  0  0  0  2  0  0  0  0  0  0
  191.1890  176.6620  143.0170 C   0  0  0  0  0  2  0  0  0  0  0  0
  190.5730  177.0810  144.2690 N   0  0  0  0  0  2  0  0  0  0  0  0
  188.4540  176.2550  143.7370 O   0  0  0  0  0  0  0  0  0  0  0  0
  189.1860  176.8790  144.5550 C   0  0  0  0  0  0  0  0  0  0  0  0
  189.3510  177.3660  146.9950 C   0  0  0  0  0  3  0  0  0  0  0  0
  188.6070  177.3880  145.8080 C   0  0  0  0  0  0  0  0  0  0  0  0
  186.7650  178.3730  146.9570 C   0  0  0  0  0  0  0  0  0  0  0  0
  187.3400  177.8890  145.8190 N   0  0  0  0  0  0  0  0  0  0  0  0
  188.7830  177.8580  148.1700 C   0  0  0  0  0  3  0  0  0  0  0  0
  187.4830  178.3640  148.1550 C   0  0  0  0  0  3  0  0  0  0  0  0
  184.6330  178.7860  145.7970 C   0  0  0  0  0  1  0  0  0  0  0  0
  185.4640  178.8790  146.9430 O   0  0  0  0  0  0  0  0  0  0  0  0
  185.4320  172.7650  136.1560 C   0  0  0  0  0  3  0  0  0  0  0  0
  183.5550  173.6290  136.9520 C   0  0  0  0  0  1  0  0  0  0  0  0
  184.4190  173.6880  135.8570 O   0  0  0  0  0  0  0  0  0  0  0  0
  184.6910  170.7320  135.4050 C   0  0  0  0  0  1  0  0  0  0  0  0
  185.5760  171.7900  135.1430 O   0  0  0  0  0  0  0  0  0  0  0  0
  193.8090  174.5520  136.9890 C   0  0  0  0  0  2  0  0  0  0  0  0
  193.8440  173.4180  136.0770 N   0  0  0  0  0  2  0  0  0  0  0  0
  195.3530  170.5350  137.9260 C   0  0  0  0  0  3  0  0  0  0  0  0
  194.1410  172.0890  136.5070 C   0  0  0  0  0  0  0  0  0  0  0  0
  194.6960  169.4630  137.3130 C   0  0  0  0  0  3  0  0  0  0  0  0
  193.4870  171.0120  135.8980 C   0  0  0  0  0  3  0  0  0  0  0  0
  193.7630  169.7020  136.3000 C   0  0  0  0  0  3  0  0  0  0  0  0
  195.0760  171.8450  137.5240 C   0  0  0  0  0  3  0  0  0  0  0  0
  1 16  1  0  0  0  0
  2 37  1  6  0  0  0
  2  9  1  0  0  0  0
  3 18  1  1  0  0  0
  4  5  2  0  0  0  0
  5  3  1  0  0  0  0
  7  6  1  0  0  0  0
  7  2  1  0  0  0  0
  8 12  1  1  0  0  0
  8  3  1  0  0  0  0
  9  8  1  0  0  0  0
  9 13  2  0  0  0  0
 10 11  2  0  0  0  0
 11  4  1  0  0  0  0
 12 10  1  0  0  0  0
 14 10  1  0  0  0  0
 15 14  2  0  0  0  0
 15  6  1  0  0  0  0
 16 14  1  0  0  0  0
 17  1  2  0  0  0  0
 17 15  1  0  0  0  0
 18 19  1  0  0  0  0
 19 20  1  0  0  0  0
 20 21  1  0  0  0  0
 21 23  1  0  0  0  0
 22 23  2  0  0  0  0
 23 25  1  0  0  0  0
 24 28  1  0  0  0  0
 25 27  1  0  0  0  0
 25 24  2  0  0  0  0
 26 29  1  0  0  0  0
 27 26  2  0  0  0  0
 29 28  2  0  0  0  0
 30 31  1  0  0  0  0
 31 26  1  0  0  0  0
 32  1  1  0  0  0  0
 34 32  1  0  0  0  0
 34 33  1  0  0  0  0
 36 35  1  0  0  0  0
 36 32  1  0  0  0  0
 38 40  1  0  0  0  0
 38 37  1  0  0  0  0
 40 44  2  0  0  0  0
 41 39  2  0  0  0  0
 42 43  2  0  0  0  0
 42 40  1  0  0  0  0
 43 41  1  0  0  0  0
 44 39  1  0  0  0  0
M  END
>  <MODEL>
9

>  <REMARK>
 VINA RESULT:      -7.8      3.040      7.320
  Name = 
  12 active torsions:
  status: ('A' for Active; 'I' for Inactive)
    1  A    between atoms: C_1  and  C_25
    2  A    between atoms: C_5  and  C_44
    3  A    between atoms: N_6  and  C_32
    4  A    between atoms: C_7  and  C_41
    5  A    between atoms: C_9  and  O_17
    6  A    between atoms: C_14  and  O_43
    7  A    between atoms: C_15  and  O_17
    8  A    between atoms: C_15  and  C_32
    9  A    between atoms: O_21  and  C_25
   10  A    between atoms: C_23  and  N_27
   11  A    between atoms: C_25  and  O_31
   12  A    between atoms: N_27  and  C_44
                            x       y       z     vdW  Elec       q    Type
                         _______ _______ _______ _____ _____    ______ ____

>  <TORSDO>
F 12

$$$$
