=
 OpenBabel10232412023D

 41 46  0  0  1  0  0  0  0  0999 V2000
  184.9240  177.5520  137.0370 O   0  0  0  0  0  0  0  0  0  0  0  0
  182.5330  179.1960  139.2810 N   0  0  0  0  0  0  0  0  0  0  0  0
  187.3100  178.6230  142.0480 C   0  0  0  0  0  3  0  0  0  0  0  0
  186.5110  175.6420  136.6390 C   0  0  1  0  0  3  0  0  0  0  0  0
  187.5870  178.6470  136.9460 C   0  0  0  0  0  2  0  0  0  0  0  0
  187.5840  176.1590  137.6090 C   0  0  1  0  0  3  0  0  0  0  0  0
  186.2880  174.2200  136.8600 N   0  0  0  0  0  0  0  0  0  0  0  0
  182.8950  178.6170  138.0430 C   0  0  0  0  0  0  0  0  0  0  0  0
  184.3750  175.2880  137.4530 N   0  0  0  0  0  0  0  0  0  0  0  0
  189.0230  175.8330  137.1970 C   0  0  2  0  0  3  0  0  0  0  0  0
  188.5010  178.2390  141.4420 C   0  0  0  0  0  0  0  0  0  0  0  0
  186.1350  178.6700  141.3050 C   0  0  0  0  0  3  0  0  0  0  0  0
  185.2000  176.1910  137.0440 C   0  0  0  0  0  0  0  0  0  0  0  0
  185.0850  174.0630  137.3160 C   0  0  0  0  0  3  0  0  0  0  0  0
  187.4260  177.5850  137.9400 N   0  0  0  0  0  0  0  0  0  0  0  0
  186.0960  178.3400  139.9380 C   0  0  0  0  0  0  0  0  0  0  0  0
  182.1200  178.5170  137.0580 O   0  0  0  0  0  0  0  0  0  0  0  0
  188.9380  177.5020  135.2090 C   0  0  0  0  0  2  0  0  0  0  0  0
  187.3260  177.9460  139.3190 C   0  0  0  0  0  0  0  0  0  0  0  0
  188.5090  177.9040  140.0850 C   0  0  0  0  0  0  0  0  0  0  0  0
  189.6840  177.5630  139.4990 F   0  0  0  0  0  0  0  0  0  0  0  0
  184.7420  178.4960  139.2980 C   0  0  0  0  0  0  0  0  0  0  0  0
  183.6030  179.1280  140.0120 C   0  0  0  0  0  3  0  0  0  0  0  0
  184.2680  178.1740  138.0880 C   0  0  0  0  0  0  0  0  0  0  0  0
  188.9530  178.5860  136.2740 C   0  0  0  0  0  2  0  0  0  0  0  0
  189.3560  176.1200  135.7240 C   0  0  0  0  0  2  0  0  0  0  0  0
  189.7190  178.2050  142.1910 N   0  0  0  0  0  2  0  0  0  0  0  0
  190.3780  177.0470  142.4350 O   0  0  0  0  0  0  0  0  0  0  0  0
  189.7370  176.4830  143.5420 C   0  0  0  0  0  2  0  0  0  0  0  0
  190.3220  177.0430  144.8350 C   0  0  0  0  0  2  0  0  0  0  0  0
  187.2290  178.0070  147.6530 C   0  0  0  0  0  3  0  0  0  0  0  0
  187.9370  177.5550  145.3800 C   0  0  0  0  0  3  0  0  0  0  0  0
  189.5500  177.4930  147.1870 C   0  0  0  0  0  3  0  0  0  0  0  0
  189.2500  177.3640  145.8240 C   0  0  0  0  0  0  0  0  0  0  0  0
  186.9260  177.8740  146.2940 C   0  0  0  0  0  3  0  0  0  0  0  0
  188.5400  177.8150  148.1000 C   0  0  0  0  0  3  0  0  0  0  0  0
  189.3400  174.4530  137.5190 N   0  0  0  0  0  2  0  0  0  0  0  0
  190.1700  173.9450  136.4400 C   0  0  0  0  0  2  0  0  0  0  0  0
  192.4260  172.8980  136.2560 O   0  0  0  0  0  0  0  0  0  0  0  0
  191.9630  174.3810  137.9410 O   0  0  0  0  0  1  0  0  0  0  0  0
  191.5640  173.7570  136.9250 C   0  0  0  0  0  0  0  0  0  0  0  0
  1 13  1  0  0  0  0
  1 24  1  0  0  0  0
  2 23  2  0  0  0  0
  4  7  1  1  0  0  0
  4 13  1  0  0  0  0
  4  6  1  0  0  0  0
  5 15  1  0  0  0  0
  6 15  1  6  0  0  0
  7 14  2  0  0  0  0
  8 24  1  0  0  0  0
  8  2  1  0  0  0  0
 10 37  1  6  0  0  0
 10  6  1  0  0  0  0
 11  3  1  0  0  0  0
 11 27  1  0  0  0  0
 12  3  2  0  0  0  0
 13  9  2  0  0  0  0
 14  9  1  0  0  0  0
 15 19  1  0  0  0  0
 16 12  1  0  0  0  0
 17  8  2  0  0  0  0
 18 26  1  0  0  0  0
 18 25  1  0  0  0  0
 19 16  2  0  0  0  0
 19 20  1  0  0  0  0
 20 11  2  0  0  0  0
 21 20  1  0  0  0  0
 22 16  1  0  0  0  0
 22 23  1  0  0  0  0
 24 22  2  0  0  0  0
 25  5  1  0  0  0  0
 26 10  1  0  0  0  0
 27 28  1  0  0  0  0
 28 29  1  0  0  0  0
 29 30  1  0  0  0  0
 30 34  1  0  0  0  0
 31 36  1  0  0  0  0
 32 34  2  0  0  0  0
 32 35  1  0  0  0  0
 33 36  2  0  0  0  0
 34 33  1  0  0  0  0
 35 31  2  0  0  0  0
 38 41  1  0  0  0  0
 38 37  1  0  0  0  0
 39 41  2  0  0  0  0
 41 40  1  0  0  0  0
M  END
>  <MODEL>
1

>  <REMARK>
 VINA RESULT:      -8.5      0.000      0.000
  Name = 
  8 active torsions:
  status: ('A' for Active; 'I' for Inactive)
    1  A    between atoms: N_3  and  O_14
    2  A    between atoms: N_3  and  C_21
    3  A    between atoms: N_9  and  C_20
    4  A    between atoms: N_9  and  C_29
    5  A    between atoms: O_14  and  C_41
    6  A    between atoms: C_17  and  C_27
    7  A    between atoms: C_24  and  C_29
    8  A    between atoms: C_27  and  C_41
                            x       y       z     vdW  Elec       q    Type
                         _______ _______ _______ _____ _____    ______ ____

>  <TORSDO>
F 8

$$$$
=
 OpenBabel10232412023D

 41 46  0  0  1  0  0  0  0  0999 V2000
  181.2360  175.4730  137.7710 O   0  0  0  0  0  0  0  0  0  0  0  0
  183.0350  172.5710  136.4310 N   0  0  0  0  0  0  0  0  0  0  0  0
  186.7310  176.6480  137.1570 C   0  0  0  0  0  3  0  0  0  0  0  0
  180.6450  177.9070  137.5470 C   0  0  1  0  0  3  0  0  0  0  0  0
  182.4710  176.8670  139.9700 C   0  0  0  0  0  2  0  0  0  0  0  0
  182.0330  178.4170  137.9620 C   0  0  1  0  0  3  0  0  0  0  0  0
  180.1880  178.6210  136.3640 N   0  0  0  0  0  0  0  0  0  0  0  0
  181.8620  173.2200  136.8790 C   0  0  0  0  0  0  0  0  0  0  0  0
  180.4990  176.4590  135.7500 N   0  0  0  0  0  0  0  0  0  0  0  0
  182.0200  179.7460  138.7250 C   0  0  2  0  0  3  0  0  0  0  0  0
  186.4480  177.8190  137.8500 C   0  0  0  0  0  0  0  0  0  0  0  0
  185.7310  175.7040  136.9480 C   0  0  0  0  0  3  0  0  0  0  0  0
  180.7840  176.5390  137.0050 C   0  0  0  0  0  0  0  0  0  0  0  0
  180.1200  177.7790  135.3810 C   0  0  0  0  0  3  0  0  0  0  0  0
  182.8390  177.4020  138.6580 N   0  0  0  0  0  0  0  0  0  0  0  0
  184.4170  175.8850  137.4170 C   0  0  0  0  0  0  0  0  0  0  0  0
  180.7260  172.6820  136.9110 O   0  0  0  0  0  0  0  0  0  0  0  0
  180.9660  178.6440  140.8270 C   0  0  0  0  0  2  0  0  0  0  0  0
  184.1300  177.0930  138.1300 C   0  0  0  0  0  0  0  0  0  0  0  0
  185.1550  178.0400  138.3350 C   0  0  0  0  0  0  0  0  0  0  0  0
  184.9020  179.1730  139.0370 F   0  0  0  0  0  0  0  0  0  0  0  0
  183.4900  174.7330  137.1310 C   0  0  0  0  0  0  0  0  0  0  0  0
  183.9820  173.4460  136.5750 C   0  0  0  0  0  3  0  0  0  0  0  0
  182.1710  174.5690  137.2920 C   0  0  0  0  0  0  0  0  0  0  0  0
  182.3180  177.9730  141.0050 C   0  0  0  0  0  2  0  0  0  0  0  0
  180.9860  179.8320  139.8590 C   0  0  0  0  0  2  0  0  0  0  0  0
  187.4730  178.7890  138.0880 N   0  0  0  0  0  2  0  0  0  0  0  0
  188.4150  178.6140  139.0450 O   0  0  0  0  0  0  0  0  0  0  0  0
  187.7050  178.3330  140.2160 C   0  0  0  0  0  2  0  0  0  0  0  0
  188.6420  177.7870  141.2870 C   0  0  0  0  0  2  0  0  0  0  0  0
  186.6930  177.6490  145.1110 C   0  0  0  0  0  3  0  0  0  0  0  0
  186.6180  178.0720  142.7260 C   0  0  0  0  0  3  0  0  0  0  0  0
  188.6800  177.3320  143.7620 C   0  0  0  0  0  3  0  0  0  0  0  0
  187.9690  177.7230  142.6190 C   0  0  0  0  0  0  0  0  0  0  0  0
  185.9800  178.0330  143.9710 C   0  0  0  0  0  3  0  0  0  0  0  0
  188.0430  177.2970  145.0070 C   0  0  0  0  0  3  0  0  0  0  0  0
  181.8430  180.8550  137.8040 N   0  0  0  0  0  2  0  0  0  0  0  0
  180.9430  181.7990  138.4460 C   0  0  0  0  0  2  0  0  0  0  0  0
  180.0260  182.3140  136.1840 O   0  0  0  0  0  0  0  0  0  0  0  0
  180.3420  183.9850  137.7220 O   0  0  0  0  0  1  0  0  0  0  0  0
  180.4250  182.7630  137.4370 C   0  0  0  0  0  0  0  0  0  0  0  0
  2 23  2  0  0  0  0
  2  8  1  0  0  0  0
  3 11  1  0  0  0  0
  4  7  1  6  0  0  0
  4  6  1  0  0  0  0
  5 25  1  0  0  0  0
  6 15  1  1  0  0  0
  6 10  1  0  0  0  0
  8 17  2  0  0  0  0
  8 24  1  0  0  0  0
  9 13  2  0  0  0  0
 10 37  1  6  0  0  0
 10 26  1  0  0  0  0
 11 27  1  0  0  0  0
 11 20  2  0  0  0  0
 12  3  2  0  0  0  0
 12 16  1  0  0  0  0
 13  4  1  0  0  0  0
 13  1  1  0  0  0  0
 14  9  1  0  0  0  0
 14  7  2  0  0  0  0
 15  5  1  0  0  0  0
 16 19  2  0  0  0  0
 18 25  1  0  0  0  0
 19 20  1  0  0  0  0
 19 15  1  0  0  0  0
 20 21  1  0  0  0  0
 22 24  2  0  0  0  0
 22 16  1  0  0  0  0
 23 22  1  0  0  0  0
 24  1  1  0  0  0  0
 26 18  1  0  0  0  0
 27 28  1  0  0  0  0
 28 29  1  0  0  0  0
 29 30  1  0  0  0  0
 30 34  1  0  0  0  0
 32 35  1  0  0  0  0
 33 36  2  0  0  0  0
 34 32  2  0  0  0  0
 34 33  1  0  0  0  0
 35 31  2  0  0  0  0
 36 31  1  0  0  0  0
 37 38  1  0  0  0  0
 39 41  2  0  0  0  0
 41 40  1  0  0  0  0
 41 38  1  0  0  0  0
M  END
>  <MODEL>
2

>  <REMARK>
 VINA RESULT:      -7.0      3.018      7.023
  Name = 
  8 active torsions:
  status: ('A' for Active; 'I' for Inactive)
    1  A    between atoms: N_3  and  O_14
    2  A    between atoms: N_3  and  C_21
    3  A    between atoms: N_9  and  C_20
    4  A    between atoms: N_9  and  C_29
    5  A    between atoms: O_14  and  C_41
    6  A    between atoms: C_17  and  C_27
    7  A    between atoms: C_24  and  C_29
    8  A    between atoms: C_27  and  C_41
                            x       y       z     vdW  Elec       q    Type
                         _______ _______ _______ _____ _____    ______ ____

>  <TORSDO>
F 8

$$$$
=
 OpenBabel10232412023D

 41 46  0  0  1  0  0  0  0  0999 V2000
  185.8900  176.3680  135.6280 O   0  0  0  0  0  0  0  0  0  0  0  0
  183.0310  177.9640  137.2780 N   0  0  0  0  0  0  0  0  0  0  0  0
  187.3950  178.4150  140.6780 C   0  0  0  0  0  3  0  0  0  0  0  0
  187.7260  174.6520  135.7270 C   0  0  1  0  0  3  0  0  0  0  0  0
  188.3960  177.7880  135.7060 C   0  0  0  0  0  2  0  0  0  0  0  0
  188.5830  175.4340  136.7330 C   0  0  1  0  0  3  0  0  0  0  0  0
  187.6380  173.2560  136.1310 N   0  0  0  0  0  0  0  0  0  0  0  0
  183.6300  177.2770  136.1980 C   0  0  0  0  0  0  0  0  0  0  0  0
  185.5500  174.1280  136.3110 N   0  0  0  0  0  0  0  0  0  0  0  0
  190.0940  175.2520  136.5590 C   0  0  2  0  0  3  0  0  0  0  0  0
  188.6960  178.1160  140.2910 C   0  0  0  0  0  0  0  0  0  0  0  0
  186.3410  178.2030  139.7950 C   0  0  0  0  0  3  0  0  0  0  0  0
  186.3160  175.0700  135.8760 C   0  0  0  0  0  0  0  0  0  0  0  0
  186.4080  173.0020  136.4510 C   0  0  0  0  0  3  0  0  0  0  0  0
  188.2170  176.8570  136.8220 N   0  0  0  0  0  0  0  0  0  0  0  0
  186.5370  177.6900  138.4990 C   0  0  0  0  0  0  0  0  0  0  0  0
  183.0210  176.9420  135.1510 O   0  0  0  0  0  0  0  0  0  0  0  0
  190.1050  176.6110  134.3460 C   0  0  0  0  0  2  0  0  0  0  0  0
  187.8790  177.3840  138.1060 C   0  0  0  0  0  0  0  0  0  0  0  0
  188.9370  177.6050  139.0130 C   0  0  0  0  0  0  0  0  0  0  0  0
  190.2160  177.3490  138.6370 F   0  0  0  0  0  0  0  0  0  0  0  0
  185.2790  177.5750  137.6790 C   0  0  0  0  0  0  0  0  0  0  0  0
  183.9850  178.1390  138.1400 C   0  0  0  0  0  3  0  0  0  0  0  0
  185.0240  177.0320  136.4820 C   0  0  0  0  0  0  0  0  0  0  0  0
  189.8420  177.8200  135.2280 C   0  0  0  0  0  2  0  0  0  0  0  0
  190.6000  175.3790  135.1130 C   0  0  0  0  0  2  0  0  0  0  0  0
  189.7900  178.3470  141.1830 N   0  0  0  0  0  2  0  0  0  0  0  0
  190.8300  177.4840  141.2800 O   0  0  0  0  0  0  0  0  0  0  0  0
  190.8020  177.0180  142.5980 C   0  0  0  0  0  2  0  0  0  0  0  0
  189.5390  176.2010  142.8460 C   0  0  0  0  0  2  0  0  0  0  0  0
  187.2490  177.7970  146.1090 C   0  0  0  0  0  3  0  0  0  0  0  0
  189.3880  177.2640  145.1030 C   0  0  0  0  0  3  0  0  0  0  0  0
  187.3350  176.7890  143.9080 C   0  0  0  0  0  3  0  0  0  0  0  0
  188.7340  176.7670  143.9700 C   0  0  0  0  0  0  0  0  0  0  0  0
  188.6460  177.7810  146.1710 C   0  0  0  0  0  3  0  0  0  0  0  0
  186.5930  177.3020  144.9770 C   0  0  0  0  0  3  0  0  0  0  0  0
  190.5170  173.9830  137.1250 N   0  0  0  0  0  2  0  0  0  0  0  0
  191.9600  173.9080  136.9650 C   0  0  0  0  0  2  0  0  0  0  0  0
  193.5590  172.0730  136.4180 O   0  0  0  0  0  1  0  0  0  0  0  0
  191.4940  172.1550  135.4260 O   0  0  0  0  0  0  0  0  0  0  0  0
  192.3190  172.6680  136.2240 C   0  0  0  0  0  0  0  0  0  0  0  0
  1 13  1  0  0  0  0
  1 24  1  0  0  0  0
  2 23  2  0  0  0  0
  4 13  1  1  0  0  0
  4  7  1  0  0  0  0
  4  6  1  0  0  0  0
  5 15  1  0  0  0  0
  6 15  1  6  0  0  0
  7 14  2  0  0  0  0
  8 24  1  0  0  0  0
  8  2  1  0  0  0  0
  9 14  1  0  0  0  0
 10  6  1  0  0  0  0
 10 37  1  6  0  0  0
 11  3  1  0  0  0  0
 11 27  1  0  0  0  0
 12  3  2  0  0  0  0
 13  9  2  0  0  0  0
 15 19  1  0  0  0  0
 16 12  1  0  0  0  0
 17  8  2  0  0  0  0
 18 26  1  0  0  0  0
 18 25  1  0  0  0  0
 19 16  2  0  0  0  0
 19 20  1  0  0  0  0
 20 11  2  0  0  0  0
 21 20  1  0  0  0  0
 22 23  1  0  0  0  0
 22 16  1  0  0  0  0
 24 22  2  0  0  0  0
 25  5  1  0  0  0  0
 26 10  1  0  0  0  0
 27 28  1  0  0  0  0
 28 29  1  0  0  0  0
 29 30  1  0  0  0  0
 30 34  1  0  0  0  0
 31 35  1  0  0  0  0
 32 35  2  0  0  0  0
 33 34  2  0  0  0  0
 33 36  1  0  0  0  0
 34 32  1  0  0  0  0
 36 31  2  0  0  0  0
 38 37  1  0  0  0  0
 40 41  2  0  0  0  0
 41 39  1  0  0  0  0
 41 38  1  0  0  0  0
M  END
>  <MODEL>
3

>  <REMARK>
 VINA RESULT:      -6.7      1.443      1.958
  Name = 
  8 active torsions:
  status: ('A' for Active; 'I' for Inactive)
    1  A    between atoms: N_3  and  O_14
    2  A    between atoms: N_3  and  C_21
    3  A    between atoms: N_9  and  C_20
    4  A    between atoms: N_9  and  C_29
    5  A    between atoms: O_14  and  C_41
    6  A    between atoms: C_17  and  C_27
    7  A    between atoms: C_24  and  C_29
    8  A    between atoms: C_27  and  C_41
                            x       y       z     vdW  Elec       q    Type
                         _______ _______ _______ _____ _____    ______ ____

>  <TORSDO>
F 8

$$$$
=
 OpenBabel10232412023D

 41 46  0  0  1  0  0  0  0  0999 V2000
  188.5020  175.6060  135.2160 O   0  0  0  0  0  0  0  0  0  0  0  0
  185.5230  177.3380  136.4700 N   0  0  0  0  0  0  0  0  0  0  0  0
  189.3750  177.5260  140.4610 C   0  0  0  0  0  3  0  0  0  0  0  0
  190.2150  173.7940  135.5470 C   0  0  1  0  0  3  0  0  0  0  0  0
  191.0410  176.8900  135.6720 C   0  0  0  0  0  2  0  0  0  0  0  0
  190.9580  174.5210  136.6770 C   0  0  1  0  0  3  0  0  0  0  0  0
  189.9980  172.4010  135.9130 N   0  0  0  0  0  0  0  0  0  0  0  0
  186.2340  176.6290  135.4750 C   0  0  0  0  0  0  0  0  0  0  0  0
  187.9540  173.3810  135.8080 N   0  0  0  0  0  0  0  0  0  0  0  0
  192.4680  174.2600  136.7160 C   0  0  2  0  0  3  0  0  0  0  0  0
  190.7020  177.1620  140.2580 C   0  0  0  0  0  0  0  0  0  0  0  0
  188.4480  177.3790  139.4340 C   0  0  0  0  0  3  0  0  0  0  0  0
  188.8220  174.2850  135.5020 C   0  0  0  0  0  0  0  0  0  0  0  0
  188.7240  172.2100  136.0500 C   0  0  0  0  0  3  0  0  0  0  0  0
  190.6570  175.9610  136.7360 N   0  0  0  0  0  0  0  0  0  0  0  0
  188.8000  176.8670  138.1710 C   0  0  0  0  0  0  0  0  0  0  0  0
  185.7640  176.3360  134.3460 O   0  0  0  0  0  0  0  0  0  0  0  0
  192.8630  175.6350  134.5490 C   0  0  0  0  0  2  0  0  0  0  0  0
  190.1680  176.4930  137.9680 C   0  0  0  0  0  0  0  0  0  0  0  0
  191.0950  176.6500  139.0180 C   0  0  0  0  0  0  0  0  0  0  0  0
  192.3990  176.3290  138.8240 F   0  0  0  0  0  0  0  0  0  0  0  0
  187.6680  176.8260  137.1790 C   0  0  0  0  0  0  0  0  0  0  0  0
  186.3520  177.4540  137.4610 C   0  0  0  0  0  3  0  0  0  0  0  0
  187.5590  176.3080  135.9490 C   0  0  0  0  0  0  0  0  0  0  0  0
  192.5400  176.8500  135.4050 C   0  0  0  0  0  2  0  0  0  0  0  0
  193.1800  174.3730  135.3590 C   0  0  0  0  0  2  0  0  0  0  0  0
  191.6670  177.3270  141.3000 N   0  0  0  0  0  2  0  0  0  0  0  0
  191.4130  178.0750  142.4000 O   0  0  0  0  0  0  0  0  0  0  0  0
  191.8480  177.3020  143.4810 C   0  0  0  0  0  2  0  0  0  0  0  0
  190.8680  176.1660  143.7510 C   0  0  0  0  0  2  0  0  0  0  0  0
  187.1070  177.6270  145.2220 C   0  0  0  0  0  3  0  0  0  0  0  0
  189.5020  177.3560  145.4740 C   0  0  0  0  0  3  0  0  0  0  0  0
  188.3840  176.4860  143.5080 C   0  0  0  0  0  3  0  0  0  0  0  0
  189.5580  176.6830  144.2480 C   0  0  0  0  0  0  0  0  0  0  0  0
  188.2780  177.8300  145.9600 C   0  0  0  0  0  3  0  0  0  0  0  0
  187.1600  176.9560  143.9960 C   0  0  0  0  0  3  0  0  0  0  0  0
  192.7400  172.9650  137.3160 N   0  0  0  0  0  2  0  0  0  0  0  0
  194.0720  172.5710  136.8860 C   0  0  0  0  0  2  0  0  0  0  0  0
  195.5330  171.0900  138.2620 O   0  0  0  0  0  0  0  0  0  0  0  0
  195.1160  173.2480  138.9140 O   0  0  0  0  0  1  0  0  0  0  0  0
  194.9310  172.3280  138.0770 C   0  0  0  0  0  0  0  0  0  0  0  0
  1 13  1  0  0  0  0
  1 24  1  0  0  0  0
  2 23  2  0  0  0  0
  4 13  1  1  0  0  0
  4  7  1  0  0  0  0
  4  6  1  0  0  0  0
  5 15  1  0  0  0  0
  6 10  1  0  0  0  0
  6 15  1  6  0  0  0
  7 14  2  0  0  0  0
  8 24  1  0  0  0  0
  8  2  1  0  0  0  0
  9 14  1  0  0  0  0
 10 37  1  6  0  0  0
 11  3  1  0  0  0  0
 11 27  1  0  0  0  0
 12  3  2  0  0  0  0
 13  9  2  0  0  0  0
 15 19  1  0  0  0  0
 16 12  1  0  0  0  0
 17  8  2  0  0  0  0
 18 26  1  0  0  0  0
 18 25  1  0  0  0  0
 19 16  2  0  0  0  0
 19 20  1  0  0  0  0
 20 11  2  0  0  0  0
 21 20  1  0  0  0  0
 22 23  1  0  0  0  0
 22 16  1  0  0  0  0
 24 22  2  0  0  0  0
 25  5  1  0  0  0  0
 26 10  1  0  0  0  0
 27 28  1  0  0  0  0
 28 29  1  0  0  0  0
 29 30  1  0  0  0  0
 30 34  1  0  0  0  0
 31 35  1  0  0  0  0
 32 35  2  0  0  0  0
 33 36  1  0  0  0  0
 33 34  2  0  0  0  0
 34 32  1  0  0  0  0
 36 31  2  0  0  0  0
 38 37  1  0  0  0  0
 38 41  1  0  0  0  0
 41 39  2  0  0  0  0
 41 40  1  0  0  0  0
M  END
>  <MODEL>
4

>  <REMARK>
 VINA RESULT:      -6.4      2.436      3.677
  Name = 
  8 active torsions:
  status: ('A' for Active; 'I' for Inactive)
    1  A    between atoms: N_3  and  O_14
    2  A    between atoms: N_3  and  C_21
    3  A    between atoms: N_9  and  C_20
    4  A    between atoms: N_9  and  C_29
    5  A    between atoms: O_14  and  C_41
    6  A    between atoms: C_17  and  C_27
    7  A    between atoms: C_24  and  C_29
    8  A    between atoms: C_27  and  C_41
                            x       y       z     vdW  Elec       q    Type
                         _______ _______ _______ _____ _____    ______ ____

>  <TORSDO>
F 8

$$$$
=
 OpenBabel10232412023D

 41 46  0  0  1  0  0  0  0  0999 V2000
  194.6890  174.5700  136.9240 O   0  0  0  0  0  0  0  0  0  0  0  0
  196.8020  174.8320  139.9100 N   0  0  0  0  0  0  0  0  0  0  0  0
  192.0350  177.4600  140.9940 C   0  0  0  0  0  3  0  0  0  0  0  0
  193.3440  175.7440  135.1520 C   0  0  1  0  0  3  0  0  0  0  0  0
  191.9230  173.8840  137.3450 C   0  0  0  0  0  2  0  0  0  0  0  0
  192.1880  176.1180  136.0920 C   0  0  1  0  0  3  0  0  0  0  0  0
  193.7200  176.8970  134.3470 N   0  0  0  0  0  0  0  0  0  0  0  0
  196.5490  174.3990  138.5890 C   0  0  0  0  0  0  0  0  0  0  0  0
  195.4790  176.4400  135.7070 N   0  0  0  0  0  0  0  0  0  0  0  0
  190.8090  176.1450  135.4240 C   0  0  2  0  0  3  0  0  0  0  0  0
  190.9160  177.3770  140.1730 C   0  0  0  0  0  0  0  0  0  0  0  0
  193.2210  176.8360  140.6180 C   0  0  0  0  0  3  0  0  0  0  0  0
  194.5700  175.5600  135.9570 C   0  0  0  0  0  0  0  0  0  0  0  0
  194.9180  177.2570  134.6860 C   0  0  0  0  0  3  0  0  0  0  0  0
  192.1720  175.3270  137.3330 N   0  0  0  0  0  0  0  0  0  0  0  0
  193.3410  176.1110  139.4180 C   0  0  0  0  0  0  0  0  0  0  0  0
  197.3620  173.7340  137.8970 O   0  0  0  0  0  0  0  0  0  0  0  0
  190.7680  173.5610  135.1730 C   0  0  0  0  0  2  0  0  0  0  0  0
  192.1850  176.0300  138.5760 C   0  0  0  0  0  0  0  0  0  0  0  0
  190.9900  176.6660  138.9720 C   0  0  0  0  0  0  0  0  0  0  0  0
  189.8810  176.5670  138.1970 F   0  0  0  0  0  0  0  0  0  0  0  0
  194.6890  175.4730  139.2090 C   0  0  0  0  0  0  0  0  0  0  0  0
  195.7250  175.4570  140.2740 C   0  0  0  0  0  3  0  0  0  0  0  0
  195.2350  174.8260  138.1720 C   0  0  0  0  0  0  0  0  0  0  0  0
  190.5960  173.5370  136.6830 C   0  0  0  0  0  2  0  0  0  0  0  0
  190.4940  174.9290  134.5380 C   0  0  0  0  0  2  0  0  0  0  0  0
  189.6860  177.9980  140.5580 N   0  0  0  0  0  2  0  0  0  0  0  0
  188.6880  177.3020  141.1530 O   0  0  0  0  0  0  0  0  0  0  0  0
  188.8800  177.4800  142.5260 C   0  0  0  0  0  2  0  0  0  0  0  0
  187.8400  176.6930  143.3150 C   0  0  0  0  0  2  0  0  0  0  0  0
  187.5350  178.0830  147.3660 C   0  0  0  0  0  3  0  0  0  0  0  0
  188.8620  177.2120  145.5350 C   0  0  0  0  0  3  0  0  0  0  0  0
  186.4950  177.6220  145.2270 C   0  0  0  0  0  3  0  0  0  0  0  0
  187.7270  177.1910  144.7180 C   0  0  0  0  0  0  0  0  0  0  0  0
  188.7670  177.6600  146.8580 C   0  0  0  0  0  3  0  0  0  0  0  0
  186.3990  178.0660  146.5500 C   0  0  0  0  0  3  0  0  0  0  0  0
  190.6420  177.3720  134.6640 N   0  0  0  0  0  2  0  0  0  0  0  0
  189.2280  177.4840  134.3470 C   0  0  0  0  0  2  0  0  0  0  0  0
  187.4110  176.8490  135.9350 O   0  0  0  0  0  0  0  0  0  0  0  0
  188.7390  178.6720  136.3500 O   0  0  0  0  0  1  0  0  0  0  0  0
  188.4500  177.7070  135.5970 C   0  0  0  0  0  0  0  0  0  0  0  0
  1 24  1  0  0  0  0
  2 23  2  0  0  0  0
  4  7  1  6  0  0  0
  4 13  1  0  0  0  0
  4  6  1  0  0  0  0
  6 15  1  1  0  0  0
  7 14  2  0  0  0  0
  8  2  1  0  0  0  0
  9 13  2  0  0  0  0
 10 37  1  6  0  0  0
 10  6  1  0  0  0  0
 11 27  1  0  0  0  0
 11  3  2  0  0  0  0
 12  3  1  0  0  0  0
 13  1  1  0  0  0  0
 14  9  1  0  0  0  0
 15  5  1  0  0  0  0
 15 19  1  0  0  0  0
 16 12  2  0  0  0  0
 17  8  2  0  0  0  0
 18 25  1  0  0  0  0
 19 20  2  0  0  0  0
 19 16  1  0  0  0  0
 20 11  1  0  0  0  0
 21 20  1  0  0  0  0
 22 16  1  0  0  0  0
 22 23  1  0  0  0  0
 24  8  1  0  0  0  0
 24 22  2  0  0  0  0
 25  5  1  0  0  0  0
 26 18  1  0  0  0  0
 26 10  1  0  0  0  0
 27 28  1  0  0  0  0
 28 29  1  0  0  0  0
 29 30  1  0  0  0  0
 30 34  1  0  0  0  0
 32 35  2  0  0  0  0
 33 36  1  0  0  0  0
 34 33  2  0  0  0  0
 34 32  1  0  0  0  0
 35 31  1  0  0  0  0
 36 31  2  0  0  0  0
 38 37  1  0  0  0  0
 38 41  1  0  0  0  0
 41 39  2  0  0  0  0
 41 40  1  0  0  0  0
M  END
>  <MODEL>
5

>  <REMARK>
 VINA RESULT:      -6.3      3.427      7.249
  Name = 
  8 active torsions:
  status: ('A' for Active; 'I' for Inactive)
    1  A    between atoms: N_3  and  O_14
    2  A    between atoms: N_3  and  C_21
    3  A    between atoms: N_9  and  C_20
    4  A    between atoms: N_9  and  C_29
    5  A    between atoms: O_14  and  C_41
    6  A    between atoms: C_17  and  C_27
    7  A    between atoms: C_24  and  C_29
    8  A    between atoms: C_27  and  C_41
                            x       y       z     vdW  Elec       q    Type
                         _______ _______ _______ _____ _____    ______ ____

>  <TORSDO>
F 8

$$$$
=
 OpenBabel10232412023D

 41 46  0  0  1  0  0  0  0  0999 V2000
  190.8800  176.9820  137.5540 O   0  0  0  0  0  0  0  0  0  0  0  0
  193.2130  174.1790  137.1640 N   0  0  0  0  0  0  0  0  0  0  0  0
  188.0690  172.1690  136.6140 C   0  0  0  0  0  3  0  0  0  0  0  0
  188.8970  177.9570  138.7570 C   0  0  1  0  0  3  0  0  0  0  0  0
  188.7160  177.1470  135.6590 C   0  0  0  0  0  2  0  0  0  0  0  0
  187.8710  177.0300  138.0880 C   0  0  1  0  0  3  0  0  0  0  0  0
  188.6500  178.0180  140.1900 N   0  0  0  0  0  0  0  0  0  0  0  0
  192.9210  175.5450  137.3830 C   0  0  0  0  0  0  0  0  0  0  0  0
  190.6560  176.9940  139.9100 N   0  0  0  0  0  0  0  0  0  0  0  0
  186.4950  177.6660  137.8590 C   0  0  2  0  0  3  0  0  0  0  0  0
  186.9440  172.9760  136.4860 C   0  0  0  0  0  0  0  0  0  0  0  0
  189.3180  172.7440  136.8260 C   0  0  0  0  0  3  0  0  0  0  0  0
  190.2190  177.2950  138.7350 C   0  0  0  0  0  0  0  0  0  0  0  0
  189.6530  177.4700  140.8000 C   0  0  0  0  0  3  0  0  0  0  0  0
  188.3800  176.3890  136.8650 N   0  0  0  0  0  0  0  0  0  0  0  0
  189.4980  174.1360  136.9200 C   0  0  0  0  0  0  0  0  0  0  0  0
  193.7930  176.4320  137.5640 O   0  0  0  0  0  0  0  0  0  0  0  0
  187.4160  179.2320  136.0030 C   0  0  0  0  0  2  0  0  0  0  0  0
  188.3360  174.9630  136.7890 C   0  0  0  0  0  0  0  0  0  0  0  0
  187.0780  174.3650  136.5730 C   0  0  0  0  0  0  0  0  0  0  0  0
  185.9770  175.1420  136.4140 F   0  0  0  0  0  0  0  0  0  0  0  0
  190.9290  174.5670  137.1070 C   0  0  0  0  0  0  0  0  0  0  0  0
  192.0590  173.6080  137.0040 C   0  0  0  0  0  3  0  0  0  0  0  0
  191.4930  175.7550  137.3600 C   0  0  0  0  0  0  0  0  0  0  0  0
  187.5340  177.9700  135.1640 C   0  0  0  0  0  2  0  0  0  0  0  0
  186.5260  179.0730  137.2410 C   0  0  0  0  0  2  0  0  0  0  0  0
  185.6580  172.3970  136.2490 N   0  0  0  0  0  2  0  0  0  0  0  0
  184.7430  172.2550  137.2380 O   0  0  0  0  0  0  0  0  0  0  0  0
  183.5030  172.2340  136.5930 C   0  0  0  0  0  2  0  0  0  0  0  0
  183.0820  173.6480  136.2070 C   0  0  0  0  0  2  0  0  0  0  0  0
  181.2130  175.6510  139.5140 C   0  0  0  0  0  3  0  0  0  0  0  0
  183.1640  175.2310  138.1390 C   0  0  0  0  0  3  0  0  0  0  0  0
  181.0680  174.1240  137.6380 C   0  0  0  0  0  3  0  0  0  0  0  0
  182.4200  174.3510  137.3460 C   0  0  0  0  0  0  0  0  0  0  0  0
  182.5610  175.8820  139.2210 C   0  0  0  0  0  3  0  0  0  0  0  0
  180.4660  174.7720  138.7220 C   0  0  0  0  0  3  0  0  0  0  0  0
  185.7350  177.6820  139.0960 N   0  0  0  0  0  2  0  0  0  0  0  0
  184.8540  178.8370  139.0370 C   0  0  0  0  0  2  0  0  0  0  0  0
  185.2590  179.5380  141.3970 O   0  0  0  0  0  1  0  0  0  0  0  0
  183.1330  179.1040  140.6580 O   0  0  0  0  0  0  0  0  0  0  0  0
  184.3630  179.1630  140.4040 C   0  0  0  0  0  0  0  0  0  0  0  0
  1 13  1  0  0  0  0
  2  8  1  0  0  0  0
  3 12  1  0  0  0  0
  4 13  1  1  0  0  0
  4  7  1  0  0  0  0
  5 15  1  0  0  0  0
  6 15  1  6  0  0  0
  6  4  1  0  0  0  0
  7 14  2  0  0  0  0
  8 17  2  0  0  0  0
  9 14  1  0  0  0  0
 10  6  1  0  0  0  0
 10 37  1  1  0  0  0
 11 20  1  0  0  0  0
 11  3  2  0  0  0  0
 12 16  2  0  0  0  0
 13  9  2  0  0  0  0
 16 22  1  0  0  0  0
 18 26  1  0  0  0  0
 19 15  1  0  0  0  0
 19 16  1  0  0  0  0
 20 19  2  0  0  0  0
 21 20  1  0  0  0  0
 22 24  2  0  0  0  0
 23 22  1  0  0  0  0
 23  2  2  0  0  0  0
 24  8  1  0  0  0  0
 24  1  1  0  0  0  0
 25  5  1  0  0  0  0
 25 18  1  0  0  0  0
 26 10  1  0  0  0  0
 27 11  1  0  0  0  0
 27 28  1  0  0  0  0
 29 28  1  0  0  0  0
 30 29  1  0  0  0  0
 30 34  1  0  0  0  0
 32 35  2  0  0  0  0
 33 36  1  0  0  0  0
 34 33  2  0  0  0  0
 34 32  1  0  0  0  0
 35 31  1  0  0  0  0
 36 31  2  0  0  0  0
 38 37  1  0  0  0  0
 38 41  1  0  0  0  0
 41 40  2  0  0  0  0
 41 39  1  0  0  0  0
M  END
>  <MODEL>
6

>  <REMARK>
 VINA RESULT:      -6.1      3.355      8.150
  Name = 
  8 active torsions:
  status: ('A' for Active; 'I' for Inactive)
    1  A    between atoms: N_3  and  O_14
    2  A    between atoms: N_3  and  C_21
    3  A    between atoms: N_9  and  C_20
    4  A    between atoms: N_9  and  C_29
    5  A    between atoms: O_14  and  C_41
    6  A    between atoms: C_17  and  C_27
    7  A    between atoms: C_24  and  C_29
    8  A    between atoms: C_27  and  C_41
                            x       y       z     vdW  Elec       q    Type
                         _______ _______ _______ _____ _____    ______ ____

>  <TORSDO>
F 8

$$$$
=
 OpenBabel10232412023D

 41 46  0  0  1  0  0  0  0  0999 V2000
  183.8110  178.1360  137.4360 O   0  0  0  0  0  0  0  0  0  0  0  0
  182.3410  179.4010  140.5490 N   0  0  0  0  0  0  0  0  0  0  0  0
  187.6530  178.1710  141.5820 C   0  0  0  0  0  3  0  0  0  0  0  0
  185.0390  176.2870  136.2530 C   0  0  1  0  0  3  0  0  0  0  0  0
  186.4130  179.1470  136.7220 C   0  0  0  0  0  2  0  0  0  0  0  0
  186.3910  176.5800  136.9210 C   0  0  1  0  0  3  0  0  0  0  0  0
  184.7700  174.8570  136.2870 N   0  0  0  0  0  0  0  0  0  0  0  0
  182.2700  179.0540  139.1800 C   0  0  0  0  0  0  0  0  0  0  0  0
  183.2170  175.8520  137.6090 N   0  0  0  0  0  0  0  0  0  0  0  0
  187.6110  176.2940  136.0390 C   0  0  2  0  0  3  0  0  0  0  0  0
  188.5750  177.8720  140.5850 C   0  0  0  0  0  0  0  0  0  0  0  0
  186.3200  178.3930  141.2540 C   0  0  0  0  0  3  0  0  0  0  0  0
  183.9590  176.7900  137.1270 C   0  0  0  0  0  0  0  0  0  0  0  0
  183.7460  174.6540  137.0550 C   0  0  0  0  0  3  0  0  0  0  0  0
  186.4620  177.9220  137.5220 N   0  0  0  0  0  0  0  0  0  0  0  0
  185.8510  178.3280  139.9290 C   0  0  0  0  0  0  0  0  0  0  0  0
  181.2330  179.1650  138.4780 O   0  0  0  0  0  0  0  0  0  0  0  0
  187.0880  178.3080  134.4870 C   0  0  0  0  0  2  0  0  0  0  0  0
  186.8050  178.0200  138.9060 C   0  0  0  0  0  0  0  0  0  0  0  0
  188.1530  177.7980  139.2540 C   0  0  0  0  0  0  0  0  0  0  0  0
  189.0690  177.5380  138.2880 F   0  0  0  0  0  0  0  0  0  0  0  0
  184.3870  178.6430  139.7700 C   0  0  0  0  0  0  0  0  0  0  0  0
  183.5680  179.1630  140.8950 C   0  0  0  0  0  3  0  0  0  0  0  0
  183.5510  178.5690  138.7270 C   0  0  0  0  0  0  0  0  0  0  0  0
  187.5090  179.1710  135.6650 C   0  0  0  0  0  2  0  0  0  0  0  0
  187.5180  176.8420  134.6060 C   0  0  0  0  0  2  0  0  0  0  0  0
  189.9520  177.6610  140.9080 N   0  0  0  0  0  2  0  0  0  0  0  0
  190.4920  176.4190  140.9620 O   0  0  0  0  0  0  0  0  0  0  0  0
  190.4620  176.0610  142.3120 C   0  0  0  0  0  2  0  0  0  0  0  0
  191.1510  177.1260  143.1600 C   0  0  0  0  0  2  0  0  0  0  0  0
  189.8480  176.9950  147.2490 C   0  0  0  0  0  3  0  0  0  0  0  0
  189.3730  177.3600  144.9010 C   0  0  0  0  0  3  0  0  0  0  0  0
  191.6040  176.7290  145.6020 C   0  0  0  0  0  3  0  0  0  0  0  0
  190.7030  177.0640  144.5830 C   0  0  0  0  0  0  0  0  0  0  0  0
  188.9450  177.3240  146.2330 C   0  0  0  0  0  3  0  0  0  0  0  0
  191.1770  176.6960  146.9340 C   0  0  0  0  0  3  0  0  0  0  0  0
  187.8890  174.8680  136.0100 N   0  0  0  0  0  2  0  0  0  0  0  0
  187.8580  174.4030  137.3870 C   0  0  0  0  0  2  0  0  0  0  0  0
  188.0880  172.0040  136.7420 O   0  0  0  0  0  0  0  0  0  0  0  0
  186.3640  172.6890  138.0890 O   0  0  0  0  0  1  0  0  0  0  0  0
  187.3900  172.9900  137.4270 C   0  0  0  0  0  0  0  0  0  0  0  0
  1 24  1  0  0  0  0
  2 23  2  0  0  0  0
  4  7  1  1  0  0  0
  4  6  1  0  0  0  0
  4 13  1  0  0  0  0
  5 15  1  0  0  0  0
  6 15  1  6  0  0  0
  7 14  2  0  0  0  0
  8  2  1  0  0  0  0
 10 37  1  6  0  0  0
 10  6  1  0  0  0  0
 11 27  1  0  0  0  0
 11  3  2  0  0  0  0
 12  3  1  0  0  0  0
 13  1  1  0  0  0  0
 13  9  2  0  0  0  0
 14  9  1  0  0  0  0
 15 19  1  0  0  0  0
 16 12  2  0  0  0  0
 17  8  2  0  0  0  0
 18 26  1  0  0  0  0
 18 25  1  0  0  0  0
 19 20  2  0  0  0  0
 19 16  1  0  0  0  0
 20 11  1  0  0  0  0
 21 20  1  0  0  0  0
 22 16  1  0  0  0  0
 22 23  1  0  0  0  0
 24  8  1  0  0  0  0
 24 22  2  0  0  0  0
 25  5  1  0  0  0  0
 26 10  1  0  0  0  0
 27 28  1  0  0  0  0
 28 29  1  0  0  0  0
 29 30  1  0  0  0  0
 30 34  1  0  0  0  0
 32 35  1  0  0  0  0
 33 36  2  0  0  0  0
 34 32  2  0  0  0  0
 34 33  1  0  0  0  0
 35 31  2  0  0  0  0
 36 31  1  0  0  0  0
 37 38  1  0  0  0  0
 38 41  1  0  0  0  0
 39 41  2  0  0  0  0
 41 40  1  0  0  0  0
M  END
>  <MODEL>
7

>  <REMARK>
 VINA RESULT:      -6.1      1.728      2.078
  Name = 
  8 active torsions:
  status: ('A' for Active; 'I' for Inactive)
    1  A    between atoms: N_3  and  O_14
    2  A    between atoms: N_3  and  C_21
    3  A    between atoms: N_9  and  C_20
    4  A    between atoms: N_9  and  C_29
    5  A    between atoms: O_14  and  C_41
    6  A    between atoms: C_17  and  C_27
    7  A    between atoms: C_24  and  C_29
    8  A    between atoms: C_27  and  C_41
                            x       y       z     vdW  Elec       q    Type
                         _______ _______ _______ _____ _____    ______ ____

>  <TORSDO>
F 8

$$$$
=
 OpenBabel10232412023D

 41 46  0  0  1  0  0  0  0  0999 V2000
  190.6770  177.2370  137.7010 O   0  0  0  0  0  0  0  0  0  0  0  0
  193.1750  174.5760  137.3440 N   0  0  0  0  0  0  0  0  0  0  0  0
  188.1660  172.2630  136.7460 C   0  0  0  0  0  3  0  0  0  0  0  0
  188.6270  178.0960  138.8800 C   0  0  1  0  0  3  0  0  0  0  0  0
  188.5270  177.2680  135.7830 C   0  0  0  0  0  2  0  0  0  0  0  0
  187.6640  177.1090  138.2030 C   0  0  1  0  0  3  0  0  0  0  0  0
  188.3610  178.1450  140.3100 N   0  0  0  0  0  0  0  0  0  0  0  0
  192.8010  175.9230  137.5560 C   0  0  0  0  0  0  0  0  0  0  0  0
  190.4270  177.2420  140.0550 N   0  0  0  0  0  0  0  0  0  0  0  0
  186.2560  177.6610  137.9580 C   0  0  2  0  0  3  0  0  0  0  0  0
  186.9970  173.0030  136.6050 C   0  0  0  0  0  0  0  0  0  0  0  0
  189.3760  172.9120  136.9700 C   0  0  0  0  0  3  0  0  0  0  0  0
  189.9860  177.5130  138.8740 C   0  0  0  0  0  0  0  0  0  0  0  0
  189.3890  177.6600  140.9320 C   0  0  0  0  0  3  0  0  0  0  0  0
  188.2240  176.4950  136.9880 N   0  0  0  0  0  0  0  0  0  0  0  0
  189.4730  174.3120  137.0620 C   0  0  0  0  0  0  0  0  0  0  0  0
  193.6170  176.8610  137.7430 O   0  0  0  0  0  0  0  0  0  0  0  0
  187.1030  179.2740  136.1070 C   0  0  0  0  0  2  0  0  0  0  0  0
  188.2650  175.0690  136.9160 C   0  0  0  0  0  0  0  0  0  0  0  0
  187.0470  174.3970  136.6880 C   0  0  0  0  0  0  0  0  0  0  0  0
  185.9030  175.1070  136.5160 F   0  0  0  0  0  0  0  0  0  0  0  0
  190.8730  174.8280  137.2620 C   0  0  0  0  0  0  0  0  0  0  0  0
  192.0590  173.9370  137.1730 C   0  0  0  0  0  3  0  0  0  0  0  0
  191.3630  176.0470  137.5180 C   0  0  0  0  0  0  0  0  0  0  0  0
  187.3040  178.0190  135.2730 C   0  0  0  0  0  2  0  0  0  0  0  0
  186.2110  179.0660  137.3360 C   0  0  0  0  0  2  0  0  0  0  0  0
  185.7490  172.3480  136.3560 N   0  0  0  0  0  2  0  0  0  0  0  0
  184.7360  172.3710  137.2550 O   0  0  0  0  0  0  0  0  0  0  0  0
  183.5940  172.0110  136.5340 C   0  0  0  0  0  2  0  0  0  0  0  0
  182.4180  172.9010  136.9220 C   0  0  0  0  0  2  0  0  0  0  0  0
  183.1270  176.9650  135.7280 C   0  0  0  0  0  3  0  0  0  0  0  0
  182.9340  174.6130  135.1760 C   0  0  0  0  0  3  0  0  0  0  0  0
  182.6000  175.3530  137.4580 C   0  0  0  0  0  3  0  0  0  0  0  0
  182.6490  174.3190  136.5130 C   0  0  0  0  0  0  0  0  0  0  0  0
  183.1710  175.9360  134.7830 C   0  0  0  0  0  3  0  0  0  0  0  0
  182.8400  176.6740  137.0660 C   0  0  0  0  0  3  0  0  0  0  0  0
  185.4830  177.6360  139.1870 N   0  0  0  0  0  2  0  0  0  0  0  0
  184.9160  178.9630  139.3590 C   0  0  0  0  0  2  0  0  0  0  0  0
  183.2030  178.8880  141.1710 O   0  0  0  0  0  0  0  0  0  0  0  0
  185.3510  179.5520  141.6230 O   0  0  0  0  0  1  0  0  0  0  0  0
  184.5090  179.1540  140.7780 C   0  0  0  0  0  0  0  0  0  0  0  0
  1 13  1  0  0  0  0
  2  8  1  0  0  0  0
  3 12  1  0  0  0  0
  4 13  1  1  0  0  0
  4  7  1  0  0  0  0
  5 15  1  0  0  0  0
  6 15  1  6  0  0  0
  6  4  1  0  0  0  0
  7 14  2  0  0  0  0
  8 17  2  0  0  0  0
  9 14  1  0  0  0  0
 10  6  1  0  0  0  0
 10 37  1  1  0  0  0
 11 20  1  0  0  0  0
 11  3  2  0  0  0  0
 12 16  2  0  0  0  0
 13  9  2  0  0  0  0
 16 22  1  0  0  0  0
 18 26  1  0  0  0  0
 19 15  1  0  0  0  0
 19 16  1  0  0  0  0
 20 19  2  0  0  0  0
 21 20  1  0  0  0  0
 22 24  2  0  0  0  0
 23 22  1  0  0  0  0
 23  2  2  0  0  0  0
 24  8  1  0  0  0  0
 24  1  1  0  0  0  0
 25  5  1  0  0  0  0
 25 18  1  0  0  0  0
 26 10  1  0  0  0  0
 27 11  1  0  0  0  0
 27 28  1  0  0  0  0
 29 30  1  0  0  0  0
 29 28  1  0  0  0  0
 31 36  1  0  0  0  0
 32 34  2  0  0  0  0
 34 30  1  0  0  0  0
 34 33  1  0  0  0  0
 35 32  1  0  0  0  0
 35 31  2  0  0  0  0
 36 33  2  0  0  0  0
 37 38  1  0  0  0  0
 38 41  1  0  0  0  0
 41 39  2  0  0  0  0
 41 40  1  0  0  0  0
M  END
>  <MODEL>
8

>  <REMARK>
 VINA RESULT:      -6.1      3.318      8.347
  Name = 
  8 active torsions:
  status: ('A' for Active; 'I' for Inactive)
    1  A    between atoms: N_3  and  O_14
    2  A    between atoms: N_3  and  C_21
    3  A    between atoms: N_9  and  C_20
    4  A    between atoms: N_9  and  C_29
    5  A    between atoms: O_14  and  C_41
    6  A    between atoms: C_17  and  C_27
    7  A    between atoms: C_24  and  C_29
    8  A    between atoms: C_27  and  C_41
                            x       y       z     vdW  Elec       q    Type
                         _______ _______ _______ _____ _____    ______ ____

>  <TORSDO>
F 8

$$$$
