=
 OpenBabel10222422093D

 47 52  0  0  1  0  0  0  0  0999 V2000
  183.9270  178.5250  144.7070 C   0  0  0  0  0  1  0  0  0  0  0  0
  184.8290  178.7800  141.2250 C   0  0  0  0  0  0  0  0  0  0  0  0
  184.9970  178.8410  138.8680 N   0  0  0  0  0  0  0  0  0  0  0  0
  181.4830  178.7690  142.7200 C   0  0  0  0  0  1  0  0  0  0  0  0
  182.9290  178.7800  142.3630 C   0  0  0  0  0  0  0  0  0  0  0  0
  184.0200  178.6790  143.2250 C   0  0  0  0  0  0  0  0  0  0  0  0
  183.6310  178.9060  138.7720 C   0  0  0  0  0  3  0  0  0  0  0  0
  182.8550  178.9010  139.8970 N   0  0  0  0  0  0  0  0  0  0  0  0
  183.4740  178.8410  141.1020 C   0  0  0  0  0  0  0  0  0  0  0  0
  185.6240  178.7660  140.0800 C   0  0  0  0  0  0  0  0  0  0  0  0
  185.1850  178.6880  142.5220 N   0  0  0  0  0  0  0  0  0  0  0  0
  187.7500  177.6630  145.0790 C   0  0  0  0  0  2  0  0  0  0  0  0
  190.3910  176.0420  143.1580 C   0  0  2  0  0  3  0  0  0  0  0  0
  188.9460  177.7460  144.1270 C   0  0  2  0  0  3  0  0  0  0  0  0
  186.5440  178.5220  143.0310 C   0  0  2  0  0  3  0  0  0  0  0  0
  189.2220  176.2310  142.2170 C   0  0  0  0  0  2  0  0  0  0  0  0
  190.6360  174.6940  143.3450 F   0  0  0  0  0  0  0  0  0  0  0  0
  188.5280  177.5040  142.6610 C   0  0  1  0  0  3  0  0  0  0  0  0
  187.1330  177.3580  142.5020 O   0  0  0  0  0  0  0  0  0  0  0  0
  186.5820  178.5140  144.5670 C   0  0  0  0  0  2  0  0  0  0  0  0
  189.9790  176.6850  144.4690 C   0  0  2  0  0  3  0  0  0  0  0  0
  191.1790  177.2570  145.2340 C   0  0  0  0  0  2  0  0  0  0  0  0
  190.0620  176.6360  147.4720 C   0  0  0  0  0  1  0  0  0  0  0  0
  191.3060  176.7360  146.6400 C   0  0  0  0  0  0  0  0  0  0  0  0
  192.4640  176.3830  147.0910 N   0  0  0  0  0  0  0  0  0  0  0  0
  192.6810  175.8800  148.4280 C   0  0  0  0  0  2  0  0  0  0  0  0
  193.2220  176.9560  149.3030 C   0  0  0  0  0  0  0  0  0  0  0  0
  194.4220  176.7420  150.0360 N   0  0  0  0  0  1  0  0  0  0  0  0
  192.6050  178.0480  149.4130 O   0  0  0  0  0  0  0  0  0  0  0  0
  187.0190  178.7090  140.1760 O   0  0  0  0  0  0  0  0  0  0  0  0
  187.7990  177.8590  139.4140 N   0  0  0  0  0  2  0  0  0  0  0  0
  188.8950  178.2840  138.5940 C   0  0  0  0  0  0  0  0  0  0  0  0
  189.0900  179.5140  138.3890 O   0  0  0  0  0  0  0  0  0  0  0  0
  188.9170  177.5400  135.5330 C   0  0  0  0  0  1  0  0  0  0  0  0
  190.7730  175.9960  136.2540 C   0  0  0  0  0  3  0  0  0  0  0  0
  190.9370  176.3830  138.7390 S   0  0  0  0  0  0  0  0  0  0  0  0
  191.4870  175.5790  137.3700 C   0  0  0  0  0  0  0  0  0  0  0  0
  189.8080  176.9590  136.5760 C   0  0  0  0  0  0  0  0  0  0  0  0
  189.7670  177.2940  137.9360 C   0  0  0  0  0  0  0  0  0  0  0  0
  192.5440  174.6180  137.3710 N   0  0  0  0  0  2  0  0  0  0  0  0
  195.9950  175.6740  136.5690 O   0  0  0  0  0  0  0  0  0  0  0  0
  193.9270  174.9800  137.6420 C   0  0  1  0  0  3  0  0  0  0  0  0
  194.6760  173.7820  138.2160 C   0  0  0  0  0  2  0  0  0  0  0  0
  198.0130  175.0650  137.4800 O   0  0  0  0  0  0  0  0  0  0  0  0
  196.7610  174.9620  137.5010 C   0  0  0  0  0  0  0  0  0  0  0  0
  196.0990  174.1820  138.5970 C   0  0  0  0  0  2  0  0  0  0  0  0
  194.6100  175.3910  136.3450 C   0  0  0  0  0  2  0  0  0  0  0  0
  2 11  1  0  0  0  0
  3 10  2  0  0  0  0
  5  4  1  0  0  0  0
  5  6  2  0  0  0  0
  6  1  1  0  0  0  0
  7  3  1  0  0  0  0
  7  8  2  0  0  0  0
  8  9  1  0  0  0  0
  9  2  2  0  0  0  0
  9  5  1  0  0  0  0
 10 30  1  0  0  0  0
 10  2  1  0  0  0  0
 11  6  1  0  0  0  0
 13 17  1  1  0  0  0
 13 21  1  0  0  0  0
 14 21  1  0  0  0  0
 14 12  1  1  0  0  0
 15 11  1  1  0  0  0
 15 20  1  0  0  0  0
 16 13  1  0  0  0  0
 18 16  1  1  0  0  0
 18 14  1  0  0  0  0
 19 18  1  0  0  0  0
 19 15  1  0  0  0  0
 20 12  1  0  0  0  0
 21 22  1  6  0  0  0
 22 24  1  0  0  0  0
 24 25  2  0  0  0  0
 24 23  1  0  0  0  0
 25 26  1  0  0  0  0
 26 27  1  0  0  0  0
 27 29  2  0  0  0  0
 27 28  1  0  0  0  0
 31 30  1  0  0  0  0
 32 31  1  0  0  0  0
 33 32  2  0  0  0  0
 34 38  1  0  0  0  0
 35 38  1  0  0  0  0
 35 37  2  0  0  0  0
 37 40  1  0  0  0  0
 37 36  1  0  0  0  0
 38 39  2  0  0  0  0
 39 32  1  0  0  0  0
 39 36  1  0  0  0  0
 41 45  1  0  0  0  0
 42 40  1  6  0  0  0
 42 43  1  0  0  0  0
 43 46  1  0  0  0  0
 44 45  2  0  0  0  0
 45 46  1  0  0  0  0
 47 41  1  0  0  0  0
 47 42  1  0  0  0  0
M  END
>  <MODEL>
1

>  <REMARK>
 VINA RESULT:      -9.7      0.000      0.000
  Name = 
  10 active torsions:
  status: ('A' for Active; 'I' for Inactive)
    1  A    between atoms: C_2  and  C_34
    2  A    between atoms: C_2  and  C_46
    3  A    between atoms: N_6  and  O_10
    4  A    between atoms: C_7  and  N_29
    5  A    between atoms: C_8  and  C_31
    6  A    between atoms: O_10  and  C_42
    7  A    between atoms: C_18  and  N_47
    8  A    between atoms: C_19  and  C_45
    9  A    between atoms: N_29  and  C_37
   10  A    between atoms: C_31  and  N_38
                            x       y       z     vdW  Elec       q    Type
                         _______ _______ _______ _____ _____    ______ ____

>  <TORSDO>
F 10

$$$$
=
 OpenBabel10222422093D

 47 52  0  0  1  0  0  0  0  0999 V2000
  191.3730  171.8790  134.9390 C   0  0  0  0  0  1  0  0  0  0  0  0
  193.3390  174.0840  137.0070 C   0  0  0  0  0  0  0  0  0  0  0  0
  194.8750  175.1700  138.4390 N   0  0  0  0  0  0  0  0  0  0  0  0
  194.2430  170.7890  135.6840 C   0  0  0  0  0  1  0  0  0  0  0  0
  193.6580  172.1020  136.0720 C   0  0  0  0  0  0  0  0  0  0  0  0
  192.3980  172.6020  135.7480 C   0  0  0  0  0  0  0  0  0  0  0  0
  195.7560  174.1320  138.2820 C   0  0  0  0  0  3  0  0  0  0  0  0
  195.4350  173.0620  137.4950 N   0  0  0  0  0  0  0  0  0  0  0  0
  194.2310  173.0630  136.8710 C   0  0  0  0  0  0  0  0  0  0  0  0
  193.6540  175.1690  137.8220 C   0  0  0  0  0  0  0  0  0  0  0  0
  192.2100  173.8240  136.3180 N   0  0  0  0  0  0  0  0  0  0  0  0
  189.4250  175.7210  134.6410 C   0  0  0  0  0  2  0  0  0  0  0  0
  186.4430  174.9120  136.5780 C   0  0  2  0  0  3  0  0  0  0  0  0
  188.5750  175.8780  135.9050 C   0  0  2  0  0  3  0  0  0  0  0  0
  191.0060  174.6500  136.2970 C   0  0  2  0  0  3  0  0  0  0  0  0
  187.5320  173.9710  137.0430 C   0  0  0  0  0  2  0  0  0  0  0  0
  185.4200  174.1960  135.9820 F   0  0  0  0  0  0  0  0  0  0  0  0
  188.8330  174.7390  136.9150 C   0  0  1  0  0  3  0  0  0  0  0  0
  189.8590  173.8610  136.5040 O   0  0  0  0  0  0  0  0  0  0  0  0
  190.8940  175.4620  134.9980 C   0  0  0  0  0  2  0  0  0  0  0  0
  187.0940  175.8340  135.5650 C   0  0  2  0  0  3  0  0  0  0  0  0
  186.4510  177.2270  135.5550 C   0  0  0  0  0  2  0  0  0  0  0  0
  183.9330  176.9190  136.0060 C   0  0  0  0  0  1  0  0  0  0  0  0
  185.2810  177.3620  136.4910 C   0  0  0  0  0  0  0  0  0  0  0  0
  185.4600  177.8400  137.6770 N   0  0  0  0  0  0  0  0  0  0  0  0
  184.3960  178.0130  138.6390 C   0  0  0  0  0  2  0  0  0  0  0  0
  184.5480  179.3110  139.3510 C   0  0  0  0  0  0  0  0  0  0  0  0
  185.2650  179.3710  140.5790 N   0  0  0  0  0  1  0  0  0  0  0  0
  184.0240  180.3530  138.8800 O   0  0  0  0  0  0  0  0  0  0  0  0
  192.7600  176.2340  137.9770 O   0  0  0  0  0  0  0  0  0  0  0  0
  191.7320  176.2370  138.9020 N   0  0  0  0  0  2  0  0  0  0  0  0
  191.6450  177.1400  140.0110 C   0  0  0  0  0  0  0  0  0  0  0  0
  192.6240  177.8820  140.3010 O   0  0  0  0  0  0  0  0  0  0  0  0
  188.8770  178.4620  139.2930 C   0  0  0  0  0  1  0  0  0  0  0  0
  188.2320  177.5740  141.5600 C   0  0  0  0  0  3  0  0  0  0  0  0
  190.3400  176.4700  142.3890 S   0  0  0  0  0  0  0  0  0  0  0  0
  188.7320  176.8790  142.6530 C   0  0  0  0  0  0  0  0  0  0  0  0
  189.1930  177.7350  140.5550 C   0  0  0  0  0  0  0  0  0  0  0  0
  190.4380  177.1710  140.8590 C   0  0  0  0  0  0  0  0  0  0  0  0
  188.0000  176.5430  143.8340 N   0  0  0  0  0  2  0  0  0  0  0  0
  189.1370  177.6840  147.1610 O   0  0  0  0  0  0  0  0  0  0  0  0
  188.0160  177.3770  145.0260 C   0  0  1  0  0  3  0  0  0  0  0  0
  186.7020  177.2260  145.7840 C   0  0  0  0  0  2  0  0  0  0  0  0
  187.9710  178.5260  148.9510 O   0  0  0  0  0  0  0  0  0  0  0  0
  187.9470  178.1040  147.7680 C   0  0  0  0  0  0  0  0  0  0  0  0
  186.6710  178.1730  146.9820 C   0  0  0  0  0  2  0  0  0  0  0  0
  189.1480  176.9340  145.9430 C   0  0  0  0  0  2  0  0  0  0  0  0
  1  6  1  0  0  0  0
  2 10  1  0  0  0  0
  4  5  1  0  0  0  0
  5  9  1  0  0  0  0
  6  5  2  0  0  0  0
  6 11  1  0  0  0  0
  7  3  1  0  0  0  0
  8  7  2  0  0  0  0
  9  2  2  0  0  0  0
  9  8  1  0  0  0  0
 10 30  1  0  0  0  0
 10  3  2  0  0  0  0
 11  2  1  0  0  0  0
 12 20  1  0  0  0  0
 13 17  1  6  0  0  0
 13 16  1  0  0  0  0
 14 12  1  6  0  0  0
 14 18  1  0  0  0  0
 15 20  1  6  0  0  0
 15 11  1  0  0  0  0
 15 19  1  0  0  0  0
 18 16  1  6  0  0  0
 19 18  1  0  0  0  0
 21 22  1  1  0  0  0
 21 14  1  0  0  0  0
 21 13  1  0  0  0  0
 22 24  1  0  0  0  0
 23 24  1  0  0  0  0
 24 25  2  0  0  0  0
 25 26  1  0  0  0  0
 26 27  1  0  0  0  0
 27 28  1  0  0  0  0
 29 27  2  0  0  0  0
 30 31  1  0  0  0  0
 31 32  1  0  0  0  0
 32 33  2  0  0  0  0
 32 39  1  0  0  0  0
 34 38  1  0  0  0  0
 35 37  2  0  0  0  0
 36 37  1  0  0  0  0
 37 40  1  0  0  0  0
 38 39  2  0  0  0  0
 38 35  1  0  0  0  0
 39 36  1  0  0  0  0
 41 45  1  0  0  0  0
 42 40  1  6  0  0  0
 42 43  1  0  0  0  0
 42 47  1  0  0  0  0
 43 46  1  0  0  0  0
 45 44  2  0  0  0  0
 46 45  1  0  0  0  0
 47 41  1  0  0  0  0
M  END
>  <MODEL>
2

>  <REMARK>
 VINA RESULT:      -9.6      3.323     10.551
  Name = 
  10 active torsions:
  status: ('A' for Active; 'I' for Inactive)
    1  A    between atoms: C_2  and  C_34
    2  A    between atoms: C_2  and  C_46
    3  A    between atoms: N_6  and  O_10
    4  A    between atoms: C_7  and  N_29
    5  A    between atoms: C_8  and  C_31
    6  A    between atoms: O_10  and  C_42
    7  A    between atoms: C_18  and  N_47
    8  A    between atoms: C_19  and  C_45
    9  A    between atoms: N_29  and  C_37
   10  A    between atoms: C_31  and  N_38
                            x       y       z     vdW  Elec       q    Type
                         _______ _______ _______ _____ _____    ______ ____

>  <TORSDO>
F 10

$$$$
=
 OpenBabel10222422093D

 47 52  0  0  1  0  0  0  0  0999 V2000
  186.1690  178.7190  147.3790 C   0  0  0  0  0  1  0  0  0  0  0  0
  188.5300  177.2630  145.0750 C   0  0  0  0  0  0  0  0  0  0  0  0
  190.3840  176.4760  143.8370 N   0  0  0  0  0  0  0  0  0  0  0  0
  189.1100  178.4350  148.4980 C   0  0  0  0  0  1  0  0  0  0  0  0
  188.6180  178.0080  147.1580 C   0  0  0  0  0  0  0  0  0  0  0  0
  187.3250  178.1200  146.6500 C   0  0  0  0  0  0  0  0  0  0  0  0
  191.1960  176.6820  144.9220 C   0  0  0  0  0  3  0  0  0  0  0  0
  190.6860  177.1850  146.0850 N   0  0  0  0  0  0  0  0  0  0  0  0
  189.3600  177.4630  146.1370 C   0  0  0  0  0  0  0  0  0  0  0  0
  189.0480  176.7670  143.8800 C   0  0  0  0  0  0  0  0  0  0  0  0
  187.2740  177.6530  145.3730 N   0  0  0  0  0  0  0  0  0  0  0  0
  183.9780  178.9190  144.0690 C   0  0  0  0  0  2  0  0  0  0  0  0
  184.3670  178.9820  140.4440 C   0  0  2  0  0  3  0  0  0  0  0  0
  184.0630  178.1880  142.7260 C   0  0  2  0  0  3  0  0  0  0  0  0
  186.1370  177.6640  144.4560 C   0  0  2  0  0  3  0  0  0  0  0  0
  185.7420  178.7390  141.0250 C   0  0  0  0  0  2  0  0  0  0  0  0
  184.3410  180.1950  139.7800 F   0  0  0  0  0  0  0  0  0  0  0  0
  185.5250  177.9440  142.2980 C   0  0  1  0  0  3  0  0  0  0  0  0
  186.4610  178.3540  143.2730 O   0  0  0  0  0  0  0  0  0  0  0  0
  184.8790  178.2500  145.1140 C   0  0  0  0  0  2  0  0  0  0  0  0
  183.4160  179.0120  141.6250 C   0  0  2  0  0  3  0  0  0  0  0  0
  182.0170  178.5030  141.2530 C   0  0  0  0  0  2  0  0  0  0  0  0
  181.4770  178.6960  138.7410 C   0  0  0  0  0  1  0  0  0  0  0  0
  181.9460  177.8600  139.8950 C   0  0  0  0  0  0  0  0  0  0  0  0
  182.2950  176.6250  139.7510 N   0  0  0  0  0  0  0  0  0  0  0  0
  182.2530  175.9250  138.4880 C   0  0  0  0  0  2  0  0  0  0  0  0
  183.6340  175.6680  137.9930 C   0  0  0  0  0  0  0  0  0  0  0  0
  184.4340  176.7460  137.5220 N   0  0  0  0  0  1  0  0  0  0  0  0
  184.0870  174.4940  137.9720 O   0  0  0  0  0  0  0  0  0  0  0  0
  188.2200  176.5480  142.7740 O   0  0  0  0  0  0  0  0  0  0  0  0
  188.6960  176.3820  141.4870 N   0  0  0  0  0  2  0  0  0  0  0  0
  189.1670  177.4500  140.6560 C   0  0  0  0  0  0  0  0  0  0  0  0
  188.9980  178.6500  141.0110 O   0  0  0  0  0  0  0  0  0  0  0  0
  187.9140  177.9470  137.8090 C   0  0  0  0  0  1  0  0  0  0  0  0
  190.1320  177.0400  137.0310 C   0  0  0  0  0  3  0  0  0  0  0  0
  191.3460  176.5190  139.1760 S   0  0  0  0  0  0  0  0  0  0  0  0
  191.3380  176.5350  137.4960 C   0  0  0  0  0  0  0  0  0  0  0  0
  189.2700  177.3920  138.0770 C   0  0  0  0  0  0  0  0  0  0  0  0
  189.7990  177.1640  139.3540 C   0  0  0  0  0  0  0  0  0  0  0  0
  192.4290  176.0990  136.6820 N   0  0  0  0  0  2  0  0  0  0  0  0
  196.0510  175.3600  136.7180 O   0  0  0  0  0  0  0  0  0  0  0  0
  193.6970  175.6620  137.2450 C   0  0  1  0  0  3  0  0  0  0  0  0
  193.6280  174.1790  137.5930 C   0  0  0  0  0  2  0  0  0  0  0  0
  197.2410  173.6790  137.7340 O   0  0  0  0  0  0  0  0  0  0  0  0
  196.1270  174.2260  137.5370 C   0  0  0  0  0  0  0  0  0  0  0  0
  194.9190  173.7360  138.2770 C   0  0  0  0  0  2  0  0  0  0  0  0
  194.8060  175.8590  136.2200 C   0  0  0  0  0  2  0  0  0  0  0  0
  2 11  1  0  0  0  0
  2  9  2  0  0  0  0
  3 10  2  0  0  0  0
  3  7  1  0  0  0  0
  5  4  1  0  0  0  0
  6  5  2  0  0  0  0
  6  1  1  0  0  0  0
  7  8  2  0  0  0  0
  8  9  1  0  0  0  0
  9  5  1  0  0  0  0
 10  2  1  0  0  0  0
 11  6  1  0  0  0  0
 12 20  1  0  0  0  0
 13 17  1  1  0  0  0
 13 16  1  0  0  0  0
 13 21  1  0  0  0  0
 14 12  1  1  0  0  0
 15 20  1  1  0  0  0
 15 11  1  0  0  0  0
 18 16  1  6  0  0  0
 18 14  1  0  0  0  0
 18 19  1  0  0  0  0
 19 15  1  0  0  0  0
 21 22  1  6  0  0  0
 21 14  1  0  0  0  0
 23 24  1  0  0  0  0
 24 22  1  0  0  0  0
 25 24  2  0  0  0  0
 26 25  1  0  0  0  0
 27 26  1  0  0  0  0
 28 27  1  0  0  0  0
 29 27  2  0  0  0  0
 30 10  1  0  0  0  0
 31 30  1  0  0  0  0
 32 33  2  0  0  0  0
 32 31  1  0  0  0  0
 34 38  1  0  0  0  0
 35 37  2  0  0  0  0
 35 38  1  0  0  0  0
 36 39  1  0  0  0  0
 37 36  1  0  0  0  0
 38 39  2  0  0  0  0
 39 32  1  0  0  0  0
 40 37  1  0  0  0  0
 41 45  1  0  0  0  0
 42 40  1  6  0  0  0
 42 43  1  0  0  0  0
 43 46  1  0  0  0  0
 45 44  2  0  0  0  0
 45 46  1  0  0  0  0
 47 41  1  0  0  0  0
 47 42  1  0  0  0  0
M  END
>  <MODEL>
3

>  <REMARK>
 VINA RESULT:      -9.3      2.579      7.085
  Name = 
  10 active torsions:
  status: ('A' for Active; 'I' for Inactive)
    1  A    between atoms: C_2  and  C_34
    2  A    between atoms: C_2  and  C_46
    3  A    between atoms: N_6  and  O_10
    4  A    between atoms: C_7  and  N_29
    5  A    between atoms: C_8  and  C_31
    6  A    between atoms: O_10  and  C_42
    7  A    between atoms: C_18  and  N_47
    8  A    between atoms: C_19  and  C_45
    9  A    between atoms: N_29  and  C_37
   10  A    between atoms: C_31  and  N_38
                            x       y       z     vdW  Elec       q    Type
                         _______ _______ _______ _____ _____    ______ ____

>  <TORSDO>
F 10

$$$$
=
 OpenBabel10222422093D

 47 52  0  0  1  0  0  0  0  0999 V2000
  185.9920  178.6570  147.1760 C   0  0  0  0  0  1  0  0  0  0  0  0
  188.4390  177.3020  144.9000 C   0  0  0  0  0  0  0  0  0  0  0  0
  190.3380  176.5870  143.6880 N   0  0  0  0  0  0  0  0  0  0  0  0
  188.9180  178.4450  148.3480 C   0  0  0  0  0  1  0  0  0  0  0  0
  188.4650  178.0220  146.9940 C   0  0  0  0  0  0  0  0  0  0  0  0
  187.1790  178.1020  146.4620 C   0  0  0  0  0  0  0  0  0  0  0  0
  191.1230  176.8020  144.7910 C   0  0  0  0  0  3  0  0  0  0  0  0
  190.5760  177.2740  145.9510 N   0  0  0  0  0  0  0  0  0  0  0  0
  189.2420  177.5120  145.9800 C   0  0  0  0  0  0  0  0  0  0  0  0
  188.9940  176.8370  143.7090 C   0  0  0  0  0  0  0  0  0  0  0  0
  187.1670  177.6510  145.1780 N   0  0  0  0  0  0  0  0  0  0  0  0
  183.8350  178.8000  143.8580 C   0  0  0  0  0  2  0  0  0  0  0  0
  184.2860  179.0250  140.2460 C   0  0  2  0  0  3  0  0  0  0  0  0
  183.9810  178.1280  142.4890 C   0  0  2  0  0  3  0  0  0  0  0  0
  186.0480  177.6400  144.2400 C   0  0  2  0  0  3  0  0  0  0  0  0
  185.6610  178.8280  140.8450 C   0  0  0  0  0  2  0  0  0  0  0  0
  184.2100  180.2600  139.6280 F   0  0  0  0  0  0  0  0  0  0  0  0
  185.4620  177.9740  142.0820 C   0  0  1  0  0  3  0  0  0  0  0  0
  186.3570  178.3920  143.0900 O   0  0  0  0  0  0  0  0  0  0  0  0
  184.7490  178.1370  144.8940 C   0  0  0  0  0  2  0  0  0  0  0  0
  183.3130  178.9610  141.4080 C   0  0  2  0  0  3  0  0  0  0  0  0
  181.9490  178.3970  140.9890 C   0  0  0  0  0  2  0  0  0  0  0  0
  180.1470  180.2100  141.3150 C   0  0  0  0  0  1  0  0  0  0  0  0
  181.0270  179.4220  140.3890 C   0  0  0  0  0  0  0  0  0  0  0  0
  181.0170  179.6070  139.1110 N   0  0  0  0  0  0  0  0  0  0  0  0
  180.1610  180.5640  138.4480 C   0  0  0  0  0  2  0  0  0  0  0  0
  180.9770  181.6390  137.8200 C   0  0  0  0  0  0  0  0  0  0  0  0
  180.6450  182.1200  136.5220 N   0  0  0  0  0  1  0  0  0  0  0  0
  181.9750  182.1090  138.4260 O   0  0  0  0  0  0  0  0  0  0  0  0
  188.1940  176.6090  142.5850 O   0  0  0  0  0  0  0  0  0  0  0  0
  188.7040  176.4040  141.3160 N   0  0  0  0  0  2  0  0  0  0  0  0
  189.1490  177.4520  140.4450 C   0  0  0  0  0  0  0  0  0  0  0  0
  188.9240  178.6580  140.7410 O   0  0  0  0  0  0  0  0  0  0  0  0
  187.9090  177.6870  137.5590 C   0  0  0  0  0  1  0  0  0  0  0  0
  190.1960  176.8930  136.8630 C   0  0  0  0  0  3  0  0  0  0  0  0
  191.4100  176.5880  139.0510 S   0  0  0  0  0  0  0  0  0  0  0  0
  191.4280  176.5030  137.3730 C   0  0  0  0  0  0  0  0  0  0  0  0
  189.2960  177.2460  137.8760 C   0  0  0  0  0  0  0  0  0  0  0  0
  189.8190  177.1330  139.1710 C   0  0  0  0  0  0  0  0  0  0  0  0
  192.5590  176.0960  136.5990 N   0  0  0  0  0  2  0  0  0  0  0  0
  196.1650  175.2980  136.7420 O   0  0  0  0  0  0  0  0  0  0  0  0
  193.8080  175.6710  137.2090 C   0  0  1  0  0  3  0  0  0  0  0  0
  193.7060  174.2120  137.6420 C   0  0  0  0  0  2  0  0  0  0  0  0
  197.3080  173.6590  137.8750 O   0  0  0  0  0  0  0  0  0  0  0  0
  196.2070  174.2130  137.6260 C   0  0  0  0  0  0  0  0  0  0  0  0
  194.9780  173.7880  138.3730 C   0  0  0  0  0  2  0  0  0  0  0  0
  194.9380  175.7880  136.1940 C   0  0  0  0  0  2  0  0  0  0  0  0
  2 11  1  0  0  0  0
  2  9  2  0  0  0  0
  3 10  2  0  0  0  0
  3  7  1  0  0  0  0
  5  4  1  0  0  0  0
  6  5  2  0  0  0  0
  6  1  1  0  0  0  0
  7  8  2  0  0  0  0
  8  9  1  0  0  0  0
  9  5  1  0  0  0  0
 10  2  1  0  0  0  0
 11  6  1  0  0  0  0
 12 20  1  0  0  0  0
 13 17  1  1  0  0  0
 13 16  1  0  0  0  0
 13 21  1  0  0  0  0
 14 12  1  1  0  0  0
 15 20  1  1  0  0  0
 15 11  1  0  0  0  0
 18 16  1  6  0  0  0
 18 14  1  0  0  0  0
 18 19  1  0  0  0  0
 19 15  1  0  0  0  0
 21 22  1  6  0  0  0
 21 14  1  0  0  0  0
 24 22  1  0  0  0  0
 24 23  1  0  0  0  0
 25 24  2  0  0  0  0
 26 25  1  0  0  0  0
 27 29  2  0  0  0  0
 27 26  1  0  0  0  0
 28 27  1  0  0  0  0
 30 10  1  0  0  0  0
 31 30  1  0  0  0  0
 32 33  2  0  0  0  0
 32 31  1  0  0  0  0
 34 38  1  0  0  0  0
 35 37  2  0  0  0  0
 35 38  1  0  0  0  0
 36 39  1  0  0  0  0
 37 36  1  0  0  0  0
 38 39  2  0  0  0  0
 39 32  1  0  0  0  0
 40 37  1  0  0  0  0
 41 45  1  0  0  0  0
 42 40  1  6  0  0  0
 42 43  1  0  0  0  0
 43 46  1  0  0  0  0
 45 44  2  0  0  0  0
 45 46  1  0  0  0  0
 47 41  1  0  0  0  0
 47 42  1  0  0  0  0
M  END
>  <MODEL>
4

>  <REMARK>
 VINA RESULT:      -9.2      2.649      7.622
  Name = 
  10 active torsions:
  status: ('A' for Active; 'I' for Inactive)
    1  A    between atoms: C_2  and  C_34
    2  A    between atoms: C_2  and  C_46
    3  A    between atoms: N_6  and  O_10
    4  A    between atoms: C_7  and  N_29
    5  A    between atoms: C_8  and  C_31
    6  A    between atoms: O_10  and  C_42
    7  A    between atoms: C_18  and  N_47
    8  A    between atoms: C_19  and  C_45
    9  A    between atoms: N_29  and  C_37
   10  A    between atoms: C_31  and  N_38
                            x       y       z     vdW  Elec       q    Type
                         _______ _______ _______ _____ _____    ______ ____

>  <TORSDO>
F 10

$$$$
=
 OpenBabel10222422093D

 47 52  0  0  1  0  0  0  0  0999 V2000
  191.5890  176.5210  143.2530 C   0  0  0  0  0  1  0  0  0  0  0  0
  188.5980  177.8880  141.7700 C   0  0  0  0  0  0  0  0  0  0  0  0
  186.4430  178.6500  141.1730 N   0  0  0  0  0  0  0  0  0  0  0  0
  189.2140  177.0190  145.2760 C   0  0  0  0  0  1  0  0  0  0  0  0
  189.2210  177.3160  143.8170 C   0  0  0  0  0  0  0  0  0  0  0  0
  190.2600  177.1090  142.9110 C   0  0  0  0  0  0  0  0  0  0  0  0
  186.0490  178.5660  142.4830 C   0  0  0  0  0  3  0  0  0  0  0  0
  186.9210  178.1370  143.4430 N   0  0  0  0  0  0  0  0  0  0  0  0
  188.1810  177.8090  143.0640 C   0  0  0  0  0  0  0  0  0  0  0  0
  187.7080  178.3080  140.7840 C   0  0  0  0  0  0  0  0  0  0  0  0
  189.8750  177.4700  141.6560 N   0  0  0  0  0  0  0  0  0  0  0  0
  192.9940  176.9340  139.6180 C   0  0  0  0  0  2  0  0  0  0  0  0
  191.9800  174.6930  136.9260 C   0  0  2  0  0  3  0  0  0  0  0  0
  192.2620  176.6870  138.2950 C   0  0  2  0  0  3  0  0  0  0  0  0
  190.6290  177.3370  140.4120 C   0  0  2  0  0  3  0  0  0  0  0  0
  190.8390  174.7250  137.9200 C   0  0  0  0  0  2  0  0  0  0  0  0
  192.5180  173.4200  136.8640 F   0  0  0  0  0  0  0  0  0  0  0  0
  190.8470  176.1160  138.5220 C   0  0  1  0  0  3  0  0  0  0  0  0
  190.4960  176.0380  139.8870 O   0  0  0  0  0  0  0  0  0  0  0  0
  192.1070  177.7130  140.5970 C   0  0  0  0  0  2  0  0  0  0  0  0
  193.0130  175.6730  137.4480 C   0  0  2  0  0  3  0  0  0  0  0  0
  193.8110  176.3290  136.3140 C   0  0  0  0  0  2  0  0  0  0  0  0
  195.0420  174.9900  134.4880 C   0  0  0  0  0  1  0  0  0  0  0  0
  195.0160  175.5380  135.8840 C   0  0  0  0  0  0  0  0  0  0  0  0
  195.9930  175.3580  136.7100 N   0  0  0  0  0  0  0  0  0  0  0  0
  197.1850  174.6080  136.3870 C   0  0  0  0  0  2  0  0  0  0  0  0
  198.0520  174.4720  137.5890 C   0  0  0  0  0  0  0  0  0  0  0  0
  198.0010  175.4530  138.6190 N   0  0  0  0  0  1  0  0  0  0  0  0
  198.8470  173.5010  137.6870 O   0  0  0  0  0  0  0  0  0  0  0  0
  188.1100  178.4030  139.4470 O   0  0  0  0  0  0  0  0  0  0  0  0
  187.6740  177.5400  138.4590 N   0  0  0  0  0  2  0  0  0  0  0  0
  186.5080  177.7550  137.6540 C   0  0  0  0  0  0  0  0  0  0  0  0
  185.7040  178.6840  137.9420 O   0  0  0  0  0  0  0  0  0  0  0  0
  187.6710  177.9560  134.7340 C   0  0  0  0  0  1  0  0  0  0  0  0
  186.2580  175.9020  134.3760 C   0  0  0  0  0  3  0  0  0  0  0  0
  185.1630  175.5360  136.6170 S   0  0  0  0  0  0  0  0  0  0  0  0
  185.3750  175.0470  135.0240 C   0  0  0  0  0  0  0  0  0  0  0  0
  186.7210  176.9180  135.2220 C   0  0  0  0  0  0  0  0  0  0  0  0
  186.2030  176.8600  136.5220 C   0  0  0  0  0  0  0  0  0  0  0  0
  184.7400  173.9080  134.4400 N   0  0  0  0  0  2  0  0  0  0  0  0
  185.1870  170.3590  135.3730 O   0  0  0  0  0  0  0  0  0  0  0  0
  184.4970  172.6830  135.1860 C   0  0  1  0  0  3  0  0  0  0  0  0
  183.0730  172.1970  134.9410 C   0  0  0  0  0  2  0  0  0  0  0  0
  183.6720  168.7700  136.0480 O   0  0  0  0  0  0  0  0  0  0  0  0
  183.8870  169.9620  135.7120 C   0  0  0  0  0  0  0  0  0  0  0  0
  182.7790  170.9680  135.7980 C   0  0  0  0  0  2  0  0  0  0  0  0
  185.4580  171.5990  134.7140 C   0  0  0  0  0  2  0  0  0  0  0  0
  2  9  2  0  0  0  0
  3  7  1  0  0  0  0
  5  4  1  0  0  0  0
  6  1  1  0  0  0  0
  6  5  2  0  0  0  0
  7  8  2  0  0  0  0
  9  8  1  0  0  0  0
  9  5  1  0  0  0  0
 10  3  2  0  0  0  0
 10  2  1  0  0  0  0
 11  2  1  0  0  0  0
 11  6  1  0  0  0  0
 12 20  1  0  0  0  0
 13 17  1  1  0  0  0
 13 21  1  0  0  0  0
 13 16  1  0  0  0  0
 14 18  1  0  0  0  0
 14 12  1  1  0  0  0
 15 20  1  1  0  0  0
 15 11  1  0  0  0  0
 18 16  1  1  0  0  0
 18 19  1  0  0  0  0
 19 15  1  0  0  0  0
 21 22  1  6  0  0  0
 21 14  1  0  0  0  0
 23 24  1  0  0  0  0
 24 22  1  0  0  0  0
 24 25  2  0  0  0  0
 26 25  1  0  0  0  0
 26 27  1  0  0  0  0
 27 29  2  0  0  0  0
 27 28  1  0  0  0  0
 30 10  1  0  0  0  0
 31 30  1  0  0  0  0
 32 33  2  0  0  0  0
 32 31  1  0  0  0  0
 34 38  1  0  0  0  0
 35 37  2  0  0  0  0
 35 38  1  0  0  0  0
 37 36  1  0  0  0  0
 38 39  2  0  0  0  0
 39 36  1  0  0  0  0
 39 32  1  0  0  0  0
 40 37  1  0  0  0  0
 41 45  1  0  0  0  0
 42 40  1  6  0  0  0
 43 42  1  0  0  0  0
 43 46  1  0  0  0  0
 45 46  1  0  0  0  0
 45 44  2  0  0  0  0
 47 42  1  0  0  0  0
 47 41  1  0  0  0  0
M  END
>  <MODEL>
5

>  <REMARK>
 VINA RESULT:      -9.0      4.279      8.394
  Name = 
  10 active torsions:
  status: ('A' for Active; 'I' for Inactive)
    1  A    between atoms: C_2  and  C_34
    2  A    between atoms: C_2  and  C_46
    3  A    between atoms: N_6  and  O_10
    4  A    between atoms: C_7  and  N_29
    5  A    between atoms: C_8  and  C_31
    6  A    between atoms: O_10  and  C_42
    7  A    between atoms: C_18  and  N_47
    8  A    between atoms: C_19  and  C_45
    9  A    between atoms: N_29  and  C_37
   10  A    between atoms: C_31  and  N_38
                            x       y       z     vdW  Elec       q    Type
                         _______ _______ _______ _____ _____    ______ ____

>  <TORSDO>
F 10

$$$$
=
 OpenBabel10222422093D

 47 52  0  0  1  0  0  0  0  0999 V2000
  191.3940  176.2210  143.0910 C   0  0  0  0  0  1  0  0  0  0  0  0
  188.5700  177.8990  141.6020 C   0  0  0  0  0  0  0  0  0  0  0  0
  186.5000  178.8570  140.9840 N   0  0  0  0  0  0  0  0  0  0  0  0
  188.9830  176.7600  145.0610 C   0  0  0  0  0  1  0  0  0  0  0  0
  189.0690  177.1500  143.6260 C   0  0  0  0  0  0  0  0  0  0  0  0
  190.1260  176.9270  142.7440 C   0  0  0  0  0  0  0  0  0  0  0  0
  186.0500  178.7170  142.2710 C   0  0  0  0  0  3  0  0  0  0  0  0
  186.8510  178.1620  143.2290 N   0  0  0  0  0  0  0  0  0  0  0  0
  188.0980  177.7670  142.8730 C   0  0  0  0  0  0  0  0  0  0  0  0
  187.7520  178.4480  140.6170 C   0  0  0  0  0  0  0  0  0  0  0  0
  189.8180  177.3960  141.5050 N   0  0  0  0  0  0  0  0  0  0  0  0
  192.9970  176.9080  139.5500 C   0  0  0  0  0  2  0  0  0  0  0  0
  192.0700  174.7170  136.7870 C   0  0  2  0  0  3  0  0  0  0  0  0
  192.3060  176.6850  138.2020 C   0  0  2  0  0  3  0  0  0  0  0  0
  190.6080  177.2900  140.2810 C   0  0  2  0  0  3  0  0  0  0  0  0
  190.9010  174.7270  137.7460 C   0  0  0  0  0  2  0  0  0  0  0  0
  192.6140  173.4480  136.7150 F   0  0  0  0  0  0  0  0  0  0  0  0
  190.8860  176.1070  138.3750 C   0  0  1  0  0  3  0  0  0  0  0  0
  190.4950  176.0010  139.7280 O   0  0  0  0  0  0  0  0  0  0  0  0
  192.0800  177.6650  140.5180 C   0  0  0  0  0  2  0  0  0  0  0  0
  193.0850  175.6890  137.3580 C   0  0  2  0  0  3  0  0  0  0  0  0
  193.9150  176.3690  136.2610 C   0  0  0  0  0  2  0  0  0  0  0  0
  196.0090  176.1330  134.7790 C   0  0  0  0  0  1  0  0  0  0  0  0
  195.2160  175.6750  135.9670 C   0  0  0  0  0  0  0  0  0  0  0  0
  195.6220  174.7200  136.7360 N   0  0  0  0  0  0  0  0  0  0  0  0
  196.8530  173.9930  136.5270 C   0  0  0  0  0  2  0  0  0  0  0  0
  198.0120  174.7840  137.0270 C   0  0  0  0  0  0  0  0  0  0  0  0
  197.9820  175.3410  138.3360 N   0  0  0  0  0  1  0  0  0  0  0  0
  199.0090  174.9790  136.2840 O   0  0  0  0  0  0  0  0  0  0  0  0
  188.2120  178.6000  139.3040 O   0  0  0  0  0  0  0  0  0  0  0  0
  187.3950  178.4940  138.1940 N   0  0  0  0  0  2  0  0  0  0  0  0
  187.0040  177.2530  137.5940 C   0  0  0  0  0  0  0  0  0  0  0  0
  187.5480  176.1750  137.9600 O   0  0  0  0  0  0  0  0  0  0  0  0
  187.5610  177.6930  134.5250 C   0  0  0  0  0  1  0  0  0  0  0  0
  185.0800  177.2920  134.3480 C   0  0  0  0  0  3  0  0  0  0  0  0
  184.3630  176.9370  136.7370 S   0  0  0  0  0  0  0  0  0  0  0  0
  183.9510  177.0300  135.1110 C   0  0  0  0  0  0  0  0  0  0  0  0
  186.2330  177.4030  135.1350 C   0  0  0  0  0  0  0  0  0  0  0  0
  186.0080  177.2280  136.5070 C   0  0  0  0  0  0  0  0  0  0  0  0
  182.6260  176.8510  134.6050 N   0  0  0  0  0  2  0  0  0  0  0  0
  180.5200  174.6280  136.6780 O   0  0  0  0  0  0  0  0  0  0  0  0
  181.8260  175.6760  134.9140 C   0  0  1  0  0  3  0  0  0  0  0  0
  182.6990  174.4260  134.8760 C   0  0  0  0  0  2  0  0  0  0  0  0
  180.4150  172.3380  136.8120 O   0  0  0  0  0  0  0  0  0  0  0  0
  180.9200  173.3510  136.2660 C   0  0  0  0  0  0  0  0  0  0  0  0
  181.8470  173.1790  135.0990 C   0  0  0  0  0  2  0  0  0  0  0  0
  181.2450  175.8070  136.3160 C   0  0  0  0  0  2  0  0  0  0  0  0
  2  9  2  0  0  0  0
  3  7  1  0  0  0  0
  5  4  1  0  0  0  0
  6  1  1  0  0  0  0
  6  5  2  0  0  0  0
  7  8  2  0  0  0  0
  9  8  1  0  0  0  0
  9  5  1  0  0  0  0
 10  3  2  0  0  0  0
 10  2  1  0  0  0  0
 11  2  1  0  0  0  0
 11  6  1  0  0  0  0
 12 20  1  0  0  0  0
 13 17  1  1  0  0  0
 13 21  1  0  0  0  0
 13 16  1  0  0  0  0
 14 18  1  0  0  0  0
 14 12  1  1  0  0  0
 15 20  1  1  0  0  0
 15 11  1  0  0  0  0
 18 16  1  1  0  0  0
 18 19  1  0  0  0  0
 19 15  1  0  0  0  0
 21 22  1  6  0  0  0
 21 14  1  0  0  0  0
 23 24  1  0  0  0  0
 24 22  1  0  0  0  0
 24 25  2  0  0  0  0
 26 25  1  0  0  0  0
 26 27  1  0  0  0  0
 27 28  1  0  0  0  0
 29 27  2  0  0  0  0
 30 10  1  0  0  0  0
 31 30  1  0  0  0  0
 32 33  2  0  0  0  0
 32 31  1  0  0  0  0
 34 38  1  0  0  0  0
 35 37  2  0  0  0  0
 35 38  1  0  0  0  0
 37 36  1  0  0  0  0
 38 39  2  0  0  0  0
 39 36  1  0  0  0  0
 39 32  1  0  0  0  0
 40 37  1  0  0  0  0
 42 40  1  1  0  0  0
 42 47  1  0  0  0  0
 43 42  1  0  0  0  0
 43 46  1  0  0  0  0
 45 41  1  0  0  0  0
 45 44  2  0  0  0  0
 46 45  1  0  0  0  0
 47 41  1  0  0  0  0
M  END
>  <MODEL>
6

>  <REMARK>
 VINA RESULT:      -8.7      3.799      9.024
  Name = 
  10 active torsions:
  status: ('A' for Active; 'I' for Inactive)
    1  A    between atoms: C_2  and  C_34
    2  A    between atoms: C_2  and  C_46
    3  A    between atoms: N_6  and  O_10
    4  A    between atoms: C_7  and  N_29
    5  A    between atoms: C_8  and  C_31
    6  A    between atoms: O_10  and  C_42
    7  A    between atoms: C_18  and  N_47
    8  A    between atoms: C_19  and  C_45
    9  A    between atoms: N_29  and  C_37
   10  A    between atoms: C_31  and  N_38
                            x       y       z     vdW  Elec       q    Type
                         _______ _______ _______ _____ _____    ______ ____

>  <TORSDO>
F 10

$$$$
=
 OpenBabel10222422093D

 47 52  0  0  1  0  0  0  0  0999 V2000
  189.8490  177.2930  145.8060 C   0  0  0  0  0  1  0  0  0  0  0  0
  186.4560  178.1520  144.9360 C   0  0  0  0  0  0  0  0  0  0  0  0
  184.1490  178.6440  144.7940 N   0  0  0  0  0  0  0  0  0  0  0  0
  187.9930  178.0140  148.2590 C   0  0  0  0  0  1  0  0  0  0  0  0
  187.6150  178.0250  146.8190 C   0  0  0  0  0  0  0  0  0  0  0  0
  188.4200  177.7160  145.7240 C   0  0  0  0  0  0  0  0  0  0  0  0
  184.0960  178.7880  146.1560 C   0  0  0  0  0  3  0  0  0  0  0  0
  185.2160  178.6080  146.9170 N   0  0  0  0  0  0  0  0  0  0  0  0
  186.3750  178.2960  146.2880 C   0  0  0  0  0  0  0  0  0  0  0  0
  185.3130  178.3160  144.1560 C   0  0  0  0  0  0  0  0  0  0  0  0
  187.7060  177.8040  144.5690 N   0  0  0  0  0  0  0  0  0  0  0  0
  188.4400  178.5970  140.9630 C   0  0  0  0  0  2  0  0  0  0  0  0
  191.6000  176.9190  140.2600 C   0  0  2  0  0  3  0  0  0  0  0  0
  189.2370  177.3180  140.6920 C   0  0  2  0  0  3  0  0  0  0  0  0
  188.1470  177.4840  143.2130 C   0  0  2  0  0  3  0  0  0  0  0  0
  191.3980  176.8560  141.7580 C   0  0  0  0  0  2  0  0  0  0  0  0
  192.7200  177.6760  139.9640 F   0  0  0  0  0  0  0  0  0  0  0  0
  189.9000  176.7730  141.9760 C   0  0  1  0  0  3  0  0  0  0  0  0
  189.5520  177.5080  143.1300 O   0  0  0  0  0  0  0  0  0  0  0  0
  187.5130  178.4200  142.1710 C   0  0  0  0  0  2  0  0  0  0  0  0
  190.3570  177.5830  139.7000 C   0  0  2  0  0  3  0  0  0  0  0  0
  190.0230  177.0840  138.2880 C   0  0  0  0  0  2  0  0  0  0  0  0
  188.9900  179.1870  137.2150 C   0  0  0  0  0  1  0  0  0  0  0  0
  188.8330  177.7670  137.6690 C   0  0  0  0  0  0  0  0  0  0  0  0
  187.7220  177.1220  137.5360 N   0  0  0  0  0  0  0  0  0  0  0  0
  186.5280  177.6980  136.9610 C   0  0  0  0  0  2  0  0  0  0  0  0
  186.2620  177.1060  135.6210 C   0  0  0  0  0  0  0  0  0  0  0  0
  186.5200  177.8620  134.4440 N   0  0  0  0  0  1  0  0  0  0  0  0
  185.7900  175.9430  135.5290 O   0  0  0  0  0  0  0  0  0  0  0  0
  185.3670  178.1790  142.7650 O   0  0  0  0  0  0  0  0  0  0  0  0
  184.2460  178.0150  141.9720 N   0  0  0  0  0  2  0  0  0  0  0  0
  184.0590  178.6420  140.6970 C   0  0  0  0  0  0  0  0  0  0  0  0
  184.8590  179.5380  140.3100 O   0  0  0  0  0  0  0  0  0  0  0  0
  181.0260  179.2050  141.3380 C   0  0  0  0  0  1  0  0  0  0  0  0
  180.6840  178.1160  139.0920 C   0  0  0  0  0  3  0  0  0  0  0  0
  183.0210  177.5240  138.3570 S   0  0  0  0  0  0  0  0  0  0  0  0
  181.3710  177.5220  138.0410 C   0  0  0  0  0  0  0  0  0  0  0  0
  181.5480  178.5470  140.1070 C   0  0  0  0  0  0  0  0  0  0  0  0
  182.9010  178.2920  139.8530 C   0  0  0  0  0  0  0  0  0  0  0  0
  180.7790  176.9920  136.8530 N   0  0  0  0  0  2  0  0  0  0  0  0
  180.2410  173.4680  137.8320 O   0  0  0  0  0  0  0  0  0  0  0  0
  180.5820  175.5650  136.6500 C   0  0  1  0  0  3  0  0  0  0  0  0
  181.8240  174.9540  136.0110 C   0  0  0  0  0  2  0  0  0  0  0  0
  181.0420  171.5110  136.9370 O   0  0  0  0  0  0  0  0  0  0  0  0
  180.9790  172.7640  136.8720 C   0  0  0  0  0  0  0  0  0  0  0  0
  181.5880  173.4770  135.7020 C   0  0  0  0  0  2  0  0  0  0  0  0
  180.3560  174.8850  137.9930 C   0  0  0  0  0  2  0  0  0  0  0  0
  2  9  2  0  0  0  0
  3  7  1  0  0  0  0
  5  4  1  0  0  0  0
  6  1  1  0  0  0  0
  6  5  2  0  0  0  0
  7  8  2  0  0  0  0
  9  5  1  0  0  0  0
  9  8  1  0  0  0  0
 10  3  2  0  0  0  0
 10  2  1  0  0  0  0
 11  2  1  0  0  0  0
 11  6  1  0  0  0  0
 12 20  1  0  0  0  0
 13 17  1  1  0  0  0
 13 16  1  0  0  0  0
 14 12  1  1  0  0  0
 14 18  1  0  0  0  0
 15 20  1  6  0  0  0
 15 11  1  0  0  0  0
 18 16  1  6  0  0  0
 18 19  1  0  0  0  0
 19 15  1  0  0  0  0
 21 22  1  6  0  0  0
 21 13  1  0  0  0  0
 21 14  1  0  0  0  0
 23 24  1  0  0  0  0
 24 22  1  0  0  0  0
 25 24  2  0  0  0  0
 26 25  1  0  0  0  0
 27 26  1  0  0  0  0
 28 27  1  0  0  0  0
 29 27  2  0  0  0  0
 30 10  1  0  0  0  0
 31 30  1  0  0  0  0
 32 31  1  0  0  0  0
 33 32  2  0  0  0  0
 35 38  1  0  0  0  0
 36 39  1  0  0  0  0
 37 36  1  0  0  0  0
 37 35  2  0  0  0  0
 38 34  1  0  0  0  0
 39 38  2  0  0  0  0
 39 32  1  0  0  0  0
 40 37  1  0  0  0  0
 41 47  1  0  0  0  0
 42 40  1  1  0  0  0
 42 47  1  0  0  0  0
 43 42  1  0  0  0  0
 45 44  2  0  0  0  0
 45 41  1  0  0  0  0
 46 43  1  0  0  0  0
 46 45  1  0  0  0  0
M  END
>  <MODEL>
7

>  <REMARK>
 VINA RESULT:      -8.6      4.015      9.421
  Name = 
  10 active torsions:
  status: ('A' for Active; 'I' for Inactive)
    1  A    between atoms: C_2  and  C_34
    2  A    between atoms: C_2  and  C_46
    3  A    between atoms: N_6  and  O_10
    4  A    between atoms: C_7  and  N_29
    5  A    between atoms: C_8  and  C_31
    6  A    between atoms: O_10  and  C_42
    7  A    between atoms: C_18  and  N_47
    8  A    between atoms: C_19  and  C_45
    9  A    between atoms: N_29  and  C_37
   10  A    between atoms: C_31  and  N_38
                            x       y       z     vdW  Elec       q    Type
                         _______ _______ _______ _____ _____    ______ ____

>  <TORSDO>
F 10

$$$$
=
 OpenBabel10222422093D

 47 52  0  0  1  0  0  0  0  0999 V2000
  186.0650  178.6580  147.3620 C   0  0  0  0  0  1  0  0  0  0  0  0
  188.5630  177.2730  145.1600 C   0  0  0  0  0  0  0  0  0  0  0  0
  190.4880  176.5360  144.0040 N   0  0  0  0  0  0  0  0  0  0  0  0
  188.9560  178.4230  148.6170 C   0  0  0  0  0  1  0  0  0  0  0  0
  188.5370  178.0000  147.2520 C   0  0  0  0  0  0  0  0  0  0  0  0
  187.2670  178.0900  146.6840 C   0  0  0  0  0  0  0  0  0  0  0  0
  191.2440  176.7490  145.1280 C   0  0  0  0  0  3  0  0  0  0  0  0
  190.6690  177.2300  146.2700 N   0  0  0  0  0  0  0  0  0  0  0  0
  189.3370  177.4790  146.2610 C   0  0  0  0  0  0  0  0  0  0  0  0
  189.1470  176.7990  143.9870 C   0  0  0  0  0  0  0  0  0  0  0  0
  187.2860  177.6340  145.4010 N   0  0  0  0  0  0  0  0  0  0  0  0
  183.9910  178.7900  143.9990 C   0  0  0  0  0  2  0  0  0  0  0  0
  184.5420  179.0480  140.4040 C   0  0  2  0  0  3  0  0  0  0  0  0
  184.1760  178.1310  142.6300 C   0  0  2  0  0  3  0  0  0  0  0  0
  186.1940  177.6310  144.4320 C   0  0  2  0  0  3  0  0  0  0  0  0
  185.9000  178.8490  141.0390 C   0  0  0  0  0  2  0  0  0  0  0  0
  184.4810  180.2890  139.7950 F   0  0  0  0  0  0  0  0  0  0  0  0
  185.6670  177.9830  142.2620 C   0  0  1  0  0  3  0  0  0  0  0  0
  186.5340  178.3930  143.2990 O   0  0  0  0  0  0  0  0  0  0  0  0
  184.8770  178.1190  145.0550 C   0  0  0  0  0  2  0  0  0  0  0  0
  183.5370  178.9720  141.5370 C   0  0  2  0  0  3  0  0  0  0  0  0
  182.1860  178.4100  141.0750 C   0  0  0  0  0  2  0  0  0  0  0  0
  181.5620  178.7930  138.6040 C   0  0  0  0  0  1  0  0  0  0  0  0
  182.1870  177.9210  139.6530 C   0  0  0  0  0  0  0  0  0  0  0  0
  182.7260  176.7830  139.3660 N   0  0  0  0  0  0  0  0  0  0  0  0
  182.7670  176.2310  138.0320 C   0  0  0  0  0  2  0  0  0  0  0  0
  184.1760  176.1130  137.5640 C   0  0  0  0  0  0  0  0  0  0  0  0
  184.9240  177.2820  137.2530 N   0  0  0  0  0  1  0  0  0  0  0  0
  184.6990  174.9770  137.4230 O   0  0  0  0  0  0  0  0  0  0  0  0
  188.3760  176.5740  142.8410 O   0  0  0  0  0  0  0  0  0  0  0  0
  188.9190  176.3810  141.5840 N   0  0  0  0  0  2  0  0  0  0  0  0
  189.3630  177.4380  140.7250 C   0  0  0  0  0  0  0  0  0  0  0  0
  189.1080  178.6390  141.0160 O   0  0  0  0  0  0  0  0  0  0  0  0
  192.4810  177.2880  140.3060 C   0  0  0  0  0  1  0  0  0  0  0  0
  191.8120  176.7050  137.9490 C   0  0  0  0  0  3  0  0  0  0  0  0
  189.2940  176.7910  138.0080 S   0  0  0  0  0  0  0  0  0  0  0  0
  190.7030  176.5300  137.1310 C   0  0  0  0  0  0  0  0  0  0  0  0
  191.4510  177.0430  139.2590 C   0  0  0  0  0  0  0  0  0  0  0  0
  190.0680  177.1330  139.4660 C   0  0  0  0  0  0  0  0  0  0  0  0
  190.7360  176.1700  135.7480 N   0  0  0  0  0  2  0  0  0  0  0  0
  187.8290  174.1920  134.6070 O   0  0  0  0  0  0  0  0  0  0  0  0
  190.0340  175.0070  135.2280 C   0  0  1  0  0  3  0  0  0  0  0  0
  190.1370  173.8520  136.2180 C   0  0  0  0  0  2  0  0  0  0  0  0
  187.3260  171.9640  134.8520 O   0  0  0  0  0  0  0  0  0  0  0  0
  188.1420  172.8990  135.0480 C   0  0  0  0  0  0  0  0  0  0  0  0
  189.4890  172.5980  135.6350 C   0  0  0  0  0  2  0  0  0  0  0  0
  188.5600  175.3430  135.0410 C   0  0  0  0  0  2  0  0  0  0  0  0
  2 11  1  0  0  0  0
  2  9  2  0  0  0  0
  3  7  1  0  0  0  0
  5  4  1  0  0  0  0
  6  5  2  0  0  0  0
  6  1  1  0  0  0  0
  7  8  2  0  0  0  0
  9  8  1  0  0  0  0
  9  5  1  0  0  0  0
 10  3  2  0  0  0  0
 10  2  1  0  0  0  0
 11  6  1  0  0  0  0
 12 20  1  0  0  0  0
 13 17  1  1  0  0  0
 13 16  1  0  0  0  0
 13 21  1  0  0  0  0
 14 12  1  1  0  0  0
 15 20  1  1  0  0  0
 15 11  1  0  0  0  0
 18 16  1  6  0  0  0
 18 14  1  0  0  0  0
 18 19  1  0  0  0  0
 19 15  1  0  0  0  0
 21 22  1  6  0  0  0
 21 14  1  0  0  0  0
 23 24  1  0  0  0  0
 24 22  1  0  0  0  0
 25 24  2  0  0  0  0
 26 25  1  0  0  0  0
 27 26  1  0  0  0  0
 28 27  1  0  0  0  0
 29 27  2  0  0  0  0
 30 10  1  0  0  0  0
 31 30  1  0  0  0  0
 32 33  2  0  0  0  0
 32 31  1  0  0  0  0
 35 38  1  0  0  0  0
 36 39  1  0  0  0  0
 37 35  2  0  0  0  0
 37 36  1  0  0  0  0
 38 39  2  0  0  0  0
 38 34  1  0  0  0  0
 39 32  1  0  0  0  0
 40 37  1  0  0  0  0
 41 47  1  0  0  0  0
 41 45  1  0  0  0  0
 42 40  1  1  0  0  0
 42 43  1  0  0  0  0
 44 45  2  0  0  0  0
 45 46  1  0  0  0  0
 46 43  1  0  0  0  0
 47 42  1  0  0  0  0
M  END
>  <MODEL>
8

>  <REMARK>
 VINA RESULT:      -8.6      3.522      7.750
  Name = 
  10 active torsions:
  status: ('A' for Active; 'I' for Inactive)
    1  A    between atoms: C_2  and  C_34
    2  A    between atoms: C_2  and  C_46
    3  A    between atoms: N_6  and  O_10
    4  A    between atoms: C_7  and  N_29
    5  A    between atoms: C_8  and  C_31
    6  A    between atoms: O_10  and  C_42
    7  A    between atoms: C_18  and  N_47
    8  A    between atoms: C_19  and  C_45
    9  A    between atoms: N_29  and  C_37
   10  A    between atoms: C_31  and  N_38
                            x       y       z     vdW  Elec       q    Type
                         _______ _______ _______ _____ _____    ______ ____

>  <TORSDO>
F 10

$$$$
=
 OpenBabel10222422093D

 47 52  0  0  1  0  0  0  0  0999 V2000
  185.9960  178.6230  147.2820 C   0  0  0  0  0  1  0  0  0  0  0  0
  188.5460  177.2690  145.1210 C   0  0  0  0  0  0  0  0  0  0  0  0
  190.5000  176.5570  143.9970 N   0  0  0  0  0  0  0  0  0  0  0  0
  188.8680  178.4250  148.5830 C   0  0  0  0  0  1  0  0  0  0  0  0
  188.4770  177.9960  147.2120 C   0  0  0  0  0  0  0  0  0  0  0  0
  187.2160  178.0700  146.6230 C   0  0  0  0  0  0  0  0  0  0  0  0
  191.2340  176.7790  145.1330 C   0  0  0  0  0  3  0  0  0  0  0  0
  190.6350  177.2530  146.2650 N   0  0  0  0  0  0  0  0  0  0  0  0
  189.3000  177.4860  146.2350 C   0  0  0  0  0  0  0  0  0  0  0  0
  189.1550  176.8030  143.9570 C   0  0  0  0  0  0  0  0  0  0  0  0
  187.2620  177.6140  145.3410 N   0  0  0  0  0  0  0  0  0  0  0  0
  183.9570  178.7020  143.9050 C   0  0  0  0  0  2  0  0  0  0  0  0
  184.5580  179.0360  140.3240 C   0  0  2  0  0  3  0  0  0  0  0  0
  184.1830  178.0710  142.5280 C   0  0  2  0  0  3  0  0  0  0  0  0
  186.1850  177.5970  144.3540 C   0  0  2  0  0  3  0  0  0  0  0  0
  185.9110  178.8630  140.9780 C   0  0  0  0  0  2  0  0  0  0  0  0
  184.4720  180.2840  139.7340 F   0  0  0  0  0  0  0  0  0  0  0  0
  185.6840  177.9710  142.1830 C   0  0  1  0  0  3  0  0  0  0  0  0
  186.5210  178.3870  143.2390 O   0  0  0  0  0  0  0  0  0  0  0  0
  184.8450  178.0380  144.9640 C   0  0  0  0  0  2  0  0  0  0  0  0
  183.5380  178.9130  141.4390 C   0  0  2  0  0  3  0  0  0  0  0  0
  182.2110  178.3210  140.9460 C   0  0  0  0  0  2  0  0  0  0  0  0
  181.6640  178.6560  138.4500 C   0  0  0  0  0  1  0  0  0  0  0  0
  182.2630  177.8080  139.5330 C   0  0  0  0  0  0  0  0  0  0  0  0
  182.8230  176.6710  139.2840 N   0  0  0  0  0  0  0  0  0  0  0  0
  182.9130  176.0970  137.9610 C   0  0  0  0  0  2  0  0  0  0  0  0
  184.3190  176.1420  137.4730 C   0  0  0  0  0  0  0  0  0  0  0  0
  185.0220  174.9330  137.2130 N   0  0  0  0  0  1  0  0  0  0  0  0
  184.8940  177.2500  137.3100 O   0  0  0  0  0  0  0  0  0  0  0  0
  188.4060  176.5680  142.7990 O   0  0  0  0  0  0  0  0  0  0  0  0
  188.9730  176.3170  141.5640 N   0  0  0  0  0  2  0  0  0  0  0  0
  189.3590  177.3330  140.6300 C   0  0  0  0  0  0  0  0  0  0  0  0
  189.0260  178.5340  140.8300 O   0  0  0  0  0  0  0  0  0  0  0  0
  192.4870  177.2860  140.2620 C   0  0  0  0  0  1  0  0  0  0  0  0
  191.8780  176.5330  137.9370 C   0  0  0  0  0  3  0  0  0  0  0  0
  189.3580  176.5200  137.9580 S   0  0  0  0  0  0  0  0  0  0  0  0
  190.7900  176.2630  137.1170 C   0  0  0  0  0  0  0  0  0  0  0  0
  191.4840  176.9350  139.2190 C   0  0  0  0  0  0  0  0  0  0  0  0
  190.0960  176.9810  139.4020 C   0  0  0  0  0  0  0  0  0  0  0  0
  190.8590  175.8210  135.7600 N   0  0  0  0  0  2  0  0  0  0  0  0
  192.2320  172.4050  136.0890 O   0  0  0  0  0  0  0  0  0  0  0  0
  191.6070  174.6390  135.3620 C   0  0  1  0  0  3  0  0  0  0  0  0
  193.0910  174.9740  135.2540 C   0  0  0  0  0  2  0  0  0  0  0  0
  194.2480  171.5160  135.4420 O   0  0  0  0  0  0  0  0  0  0  0  0
  193.4840  172.5140  135.4720 C   0  0  0  0  0  0  0  0  0  0  0  0
  193.8690  173.7650  134.7400 C   0  0  0  0  0  2  0  0  0  0  0  0
  191.4400  173.5510  136.4140 C   0  0  0  0  0  2  0  0  0  0  0  0
  2 11  1  0  0  0  0
  2  9  2  0  0  0  0
  3  7  1  0  0  0  0
  5  4  1  0  0  0  0
  6  5  2  0  0  0  0
  6  1  1  0  0  0  0
  7  8  2  0  0  0  0
  9  8  1  0  0  0  0
  9  5  1  0  0  0  0
 10  3  2  0  0  0  0
 10  2  1  0  0  0  0
 11  6  1  0  0  0  0
 12 20  1  0  0  0  0
 13 17  1  1  0  0  0
 13 16  1  0  0  0  0
 13 21  1  0  0  0  0
 14 12  1  1  0  0  0
 15 20  1  1  0  0  0
 15 11  1  0  0  0  0
 18 16  1  6  0  0  0
 18 14  1  0  0  0  0
 18 19  1  0  0  0  0
 19 15  1  0  0  0  0
 21 22  1  6  0  0  0
 21 14  1  0  0  0  0
 23 24  1  0  0  0  0
 24 22  1  0  0  0  0
 25 24  2  0  0  0  0
 26 25  1  0  0  0  0
 27 26  1  0  0  0  0
 28 27  1  0  0  0  0
 29 27  2  0  0  0  0
 30 10  1  0  0  0  0
 31 30  1  0  0  0  0
 32 33  2  0  0  0  0
 32 31  1  0  0  0  0
 35 38  1  0  0  0  0
 36 39  1  0  0  0  0
 37 35  2  0  0  0  0
 37 36  1  0  0  0  0
 38 39  2  0  0  0  0
 38 34  1  0  0  0  0
 39 32  1  0  0  0  0
 40 37  1  0  0  0  0
 41 47  1  0  0  0  0
 42 40  1  1  0  0  0
 42 47  1  0  0  0  0
 43 42  1  0  0  0  0
 44 45  2  0  0  0  0
 45 41  1  0  0  0  0
 46 43  1  0  0  0  0
 46 45  1  0  0  0  0
M  END
>  <MODEL>
9

>  <REMARK>
 VINA RESULT:      -8.6      3.036      7.311
  Name = 
  10 active torsions:
  status: ('A' for Active; 'I' for Inactive)
    1  A    between atoms: C_2  and  C_34
    2  A    between atoms: C_2  and  C_46
    3  A    between atoms: N_6  and  O_10
    4  A    between atoms: C_7  and  N_29
    5  A    between atoms: C_8  and  C_31
    6  A    between atoms: O_10  and  C_42
    7  A    between atoms: C_18  and  N_47
    8  A    between atoms: C_19  and  C_45
    9  A    between atoms: N_29  and  C_37
   10  A    between atoms: C_31  and  N_38
                            x       y       z     vdW  Elec       q    Type
                         _______ _______ _______ _____ _____    ______ ____

>  <TORSDO>
F 10

$$$$
