=
 OpenBabel10232409253D

 52 60  0  0  1  0  0  0  0  0999 V2000
  186.5500  178.4030  139.9780 C   0  0  0  0  0  0  0  0  0  0  0  0
  187.1890  177.7730  143.5700 O   0  0  0  0  0  0  0  0  0  0  0  0
  187.1900  177.9510  141.1640 C   0  0  0  0  0  0  0  0  0  0  0  0
  187.3090  178.5130  138.7120 C   0  0  0  0  0  0  0  0  0  0  0  0
  183.0450  178.8590  141.2590 C   0  0  0  0  0  0  0  0  0  0  0  0
  183.0950  178.6690  143.6810 C   0  0  0  0  0  3  0  0  0  0  0  0
  185.1420  178.1560  144.9620 C   0  0  0  0  0  3  0  0  0  0  0  0
  188.6610  177.5970  141.2310 C   0  0  0  0  0  2  0  0  0  0  0  0
  186.6170  177.9920  144.8210 C   0  0  0  0  0  0  0  0  0  0  0  0
  187.3560  178.0470  145.8820 N   0  0  0  0  0  2  0  0  0  0  0  0
  188.8070  178.1150  137.2570 C   0  0  0  0  0  0  0  0  0  0  0  0
  185.1750  178.7090  139.9960 C   0  0  0  0  0  0  0  0  0  0  0  0
  189.0820  176.5420  140.3050 N   0  0  0  0  0  2  0  0  0  0  0  0
  184.4440  178.6520  141.2080 C   0  0  0  0  0  0  0  0  0  0  0  0
  184.5480  179.0630  138.8050 O   0  0  0  0  0  1  0  0  0  0  0  0
  185.1440  178.3780  142.4140 C   0  0  0  0  0  0  0  0  0  0  0  0
  182.3950  178.8730  142.4980 C   0  0  0  0  0  3  0  0  0  0  0  0
  184.4670  178.4310  143.6490 C   0  0  0  0  0  0  0  0  0  0  0  0
  188.2450  179.2420  136.7800 N   0  0  0  0  0  0  0  0  0  0  0  0
  189.9970  177.5540  136.9690 N   0  0  0  0  0  0  0  0  0  0  0  0
  188.2700  177.6860  138.3580 N   0  0  0  0  0  0  0  0  0  0  0  0
  189.0570  176.7800  138.9000 C   0  0  1  0  0  3  0  0  0  0  0  0
  186.5010  178.0230  142.3810 C   0  0  0  0  0  0  0  0  0  0  0  0
  190.1360  176.6750  138.0140 C   0  0  0  0  0  0  0  0  0  0  0  0
  187.2600  179.4900  137.7060 C   0  0  0  0  0  3  0  0  0  0  0  0
  190.5590  177.2400  144.5940 C   0  0  2  0  0  3  0  0  0  0  0  0
  191.4860  177.4450  145.8210 C   0  0  0  0  0  2  0  0  0  0  0  0
  188.8130  177.9900  145.8240 C   0  0  2  0  0  3  0  0  0  0  0  0
  189.2190  176.9530  144.9630 O   0  0  0  0  0  0  0  0  0  0  0  0
  189.3890  177.7280  147.2220 C   0  0  0  0  0  2  0  0  0  0  0  0
  190.7820  177.0850  147.1340 C   0  0  0  0  0  2  0  0  0  0  0  0
  189.9380  175.3210  143.0860 C   0  0  0  0  0  1  0  0  0  0  0  0
  191.8430  176.7850  142.4710 C   0  0  0  0  0  1  0  0  0  0  0  0
  192.0210  175.2290  144.3820 C   0  0  0  0  0  1  0  0  0  0  0  0
  191.0850  176.1570  143.6330 C   0  0  0  0  0  0  0  0  0  0  0  0
  181.6480  177.8110  139.4060 C   0  0  0  0  0  0  0  0  0  0  0  0
  181.0230  177.9950  138.1340 N   0  0  0  0  0  2  0  0  0  0  0  0
  182.2640  178.9310  140.0550 N   0  0  0  0  0  2  0  0  0  0  0  0
  181.6900  176.6590  139.9210 O   0  0  0  0  0  0  0  0  0  0  0  0
  180.5190  176.8650  137.3660 C   0  0  0  0  0  2  0  0  0  0  0  0
  181.4420  176.5170  136.1840 C   0  0  1  0  0  3  0  0  0  0  0  0
  183.4790  175.7670  134.3460 C   0  0  0  0  0  2  0  0  0  0  0  0
  183.3070  177.2580  134.6590 C   0  0  0  0  0  2  0  0  0  0  0  0
  182.5960  177.5100  135.9930 C   0  0  0  0  0  2  0  0  0  0  0  0
  183.2030  174.9020  135.5740 C   0  0  0  0  0  2  0  0  0  0  0  0
  181.8140  175.0760  136.0270 N   0  0  1  0  0  0  0  0  0  0  0  0
  181.6530  174.2960  137.2570 C   0  0  0  0  0  3  0  0  0  0  0  0
  180.6760  173.1580  137.0080 C   0  0  0  0  0  2  0  0  0  0  0  0
  182.1580  172.8780  137.0500 C   0  0  0  0  0  2  0  0  0  0  0  0
  191.3290  175.8430  138.2090 C   0  0  0  0  0  0  0  0  0  0  0  0
  192.5930  176.4460  138.4580 N   0  0  0  0  0  1  0  0  0  0  0  0
  191.2460  174.5960  138.1020 O   0  0  0  0  0  0  0  0  0  0  0  0
  1 12  2  0  0  0  0
  1  3  1  0  0  0  0
  2  9  1  0  0  0  0
  3  8  1  0  0  0  0
  3 23  2  0  0  0  0
  4  1  1  0  0  0  0
  5 17  1  0  0  0  0
  9  7  2  0  0  0  0
  9 10  1  0  0  0  0
 11 21  1  0  0  0  0
 12 14  1  0  0  0  0
 13  8  1  0  0  0  0
 14  5  2  0  0  0  0
 14 16  1  0  0  0  0
 15 12  1  0  0  0  0
 16 18  2  0  0  0  0
 17  6  2  0  0  0  0
 18  6  1  0  0  0  0
 18  7  1  0  0  0  0
 19 11  2  0  0  0  0
 19 25  1  0  0  0  0
 20 11  1  0  0  0  0
 20 24  2  0  0  0  0
 21  4  1  0  0  0  0
 21 22  1  0  0  0  0
 22 24  1  1  0  0  0
 22 13  1  0  0  0  0
 23 16  1  0  0  0  0
 23  2  1  0  0  0  0
 24 50  1  0  0  0  0
 25  4  2  0  0  0  0
 26 35  1  1  0  0  0
 26 29  1  0  0  0  0
 26 27  1  0  0  0  0
 27 31  1  0  0  0  0
 28 10  1  1  0  0  0
 28 30  1  0  0  0  0
 29 28  1  0  0  0  0
 31 30  1  0  0  0  0
 32 35  1  0  0  0  0
 33 35  1  0  0  0  0
 35 34  1  0  0  0  0
 36 39  2  0  0  0  0
 36 38  1  0  0  0  0
 37 36  1  0  0  0  0
 38  5  1  0  0  0  0
 40 37  1  0  0  0  0
 41 40  1  1  0  0  0
 42 43  1  0  0  0  0
 42 45  1  0  0  0  0
 43 44  1  0  0  0  0
 44 41  1  0  0  0  0
 45 46  1  0  0  0  0
 46 41  1  0  0  0  0
 46 47  1  1  0  0  0
 48 49  1  0  0  0  0
 48 47  1  0  0  0  0
 49 47  1  0  0  0  0
 50 51  1  0  0  0  0
 52 50  2  0  0  0  0
M  END
>  <MODEL>
1

>  <REMARK>
 VINA RESULT:      -9.0      0.000      0.000
  Name = 
  7 active torsions:
  status: ('A' for Active; 'I' for Inactive)
    1  A    between atoms: C_5  and  C_29
    2  A    between atoms: C_6  and  N_45
    3  A    between atoms: C_9  and  C_28
    4  A    between atoms: N_10  and  C_28
    5  A    between atoms: C_12  and  N_23
    6  A    between atoms: C_13  and  C_51
    7  A    between atoms: C_14  and  N_24
                            x       y       z     vdW  Elec       q    Type
                         _______ _______ _______ _____ _____    ______ ____

>  <TORSDO>
F 7

$$$$
=
 OpenBabel10232409253D

 52 60  0  0  1  0  0  0  0  0999 V2000
  190.3900  177.5640  141.2410 C   0  0  0  0  0  0  0  0  0  0  0  0
  187.2970  177.2240  139.2340 O   0  0  0  0  0  0  0  0  0  0  0  0
  189.0160  177.3960  140.9180 C   0  0  0  0  0  0  0  0  0  0  0  0
  190.7970  177.9680  142.6050 C   0  0  0  0  0  0  0  0  0  0  0  0
  191.9540  176.6000  137.9590 C   0  0  0  0  0  0  0  0  0  0  0  0
  190.1860  176.4380  136.3000 C   0  0  0  0  0  3  0  0  0  0  0  0
  187.7960  176.7670  136.8220 C   0  0  0  0  0  3  0  0  0  0  0  0
  187.8950  177.6490  141.9040 C   0  0  0  0  0  2  0  0  0  0  0  0
  186.8700  177.1960  137.9080 C   0  0  0  0  0  0  0  0  0  0  0  0
  185.6590  177.5340  137.6000 N   0  0  0  0  0  2  0  0  0  0  0  0
  190.7020  178.1960  144.7170 C   0  0  0  0  0  0  0  0  0  0  0  0
  191.3750  177.3040  140.2670 C   0  0  0  0  0  0  0  0  0  0  0  0
  187.9620  176.8480  143.1300 N   0  0  0  0  0  2  0  0  0  0  0  0
  191.0030  176.9610  138.9450 C   0  0  0  0  0  0  0  0  0  0  0  0
  192.7180  177.3870  140.6280 O   0  0  0  0  0  1  0  0  0  0  0  0
  189.6250  176.9790  138.5970 C   0  0  0  0  0  0  0  0  0  0  0  0
  191.5280  176.3530  136.6490 C   0  0  0  0  0  3  0  0  0  0  0  0
  189.2320  176.7580  137.2620 C   0  0  0  0  0  0  0  0  0  0  0  0
  191.7220  179.0120  144.3920 N   0  0  0  0  0  0  0  0  0  0  0  0
  189.9540  178.1490  145.8360 N   0  0  0  0  0  0  0  0  0  0  0  0
  190.1730  177.5870  143.7000 N   0  0  0  0  0  0  0  0  0  0  0  0
  189.0200  177.0610  144.0600 C   0  0  1  0  0  3  0  0  0  0  0  0
  188.6490  177.1870  139.5830 C   0  0  0  0  0  0  0  0  0  0  0  0
  188.8900  177.3920  145.4150 C   0  0  0  0  0  0  0  0  0  0  0  0
  191.8020  178.8490  143.0300 C   0  0  0  0  0  3  0  0  0  0  0  0
  182.7410  177.6450  139.6100 C   0  0  2  0  0  3  0  0  0  0  0  0
  182.6960  179.1260  140.0720 C   0  0  0  0  0  2  0  0  0  0  0  0
  184.7170  178.0550  138.5860 C   0  0  2  0  0  3  0  0  0  0  0  0
  183.4500  177.4720  138.3940 O   0  0  0  0  0  0  0  0  0  0  0  0
  184.5910  179.5770  138.4460 C   0  0  0  0  0  2  0  0  0  0  0  0
  183.2460  180.0730  139.0010 C   0  0  0  0  0  2  0  0  0  0  0  0
  180.6630  177.4490  138.2010 C   0  0  0  0  0  1  0  0  0  0  0  0
  181.4130  175.5010  139.5390 C   0  0  0  0  0  1  0  0  0  0  0  0
  180.4770  177.4990  140.6490 C   0  0  0  0  0  1  0  0  0  0  0  0
  181.3370  177.0210  139.4960 C   0  0  0  0  0  0  0  0  0  0  0  0
  194.0010  175.1030  138.1890 C   0  0  0  0  0  0  0  0  0  0  0  0
  195.3240  174.9650  138.7100 N   0  0  0  0  0  2  0  0  0  0  0  0
  193.3270  176.3630  138.3100 N   0  0  0  0  0  2  0  0  0  0  0  0
  193.4250  174.1070  137.6700 O   0  0  0  0  0  0  0  0  0  0  0  0
  195.9920  173.6720  138.7490 C   0  0  0  0  0  2  0  0  0  0  0  0
  196.8630  173.4380  137.5020 C   0  0  1  0  0  3  0  0  0  0  0  0
  198.6840  172.6520  135.4630 C   0  0  0  0  0  2  0  0  0  0  0  0
  199.0640  173.8480  136.3440 C   0  0  0  0  0  2  0  0  0  0  0  0
  198.3270  173.8590  137.6880 C   0  0  0  0  0  2  0  0  0  0  0  0
  197.9250  171.5920  136.2580 C   0  0  0  0  0  2  0  0  0  0  0  0
  196.6640  172.1430  136.7790 N   0  0  1  0  0  0  0  0  0  0  0  0
  196.0400  171.1050  137.6050 C   0  0  0  0  0  3  0  0  0  0  0  0
  194.7310  170.6700  136.9660 C   0  0  0  0  0  2  0  0  0  0  0  0
  195.9560  169.7990  136.8340 C   0  0  0  0  0  2  0  0  0  0  0  0
  187.7310  177.0950  146.2630 C   0  0  0  0  0  0  0  0  0  0  0  0
  186.4130  177.3550  145.7950 N   0  0  0  0  0  1  0  0  0  0  0  0
  187.9010  176.6600  147.4270 O   0  0  0  0  0  0  0  0  0  0  0  0
  1  4  1  0  0  0  0
  2 23  1  0  0  0  0
  3  1  1  0  0  0  0
  3  8  1  0  0  0  0
  4 25  2  0  0  0  0
  4 21  1  0  0  0  0
  5 38  1  0  0  0  0
  5 14  1  0  0  0  0
  6 17  1  0  0  0  0
  6 18  2  0  0  0  0
  7 18  1  0  0  0  0
  7  9  2  0  0  0  0
  8 13  1  0  0  0  0
  9  2  1  0  0  0  0
 10  9  1  0  0  0  0
 11 20  1  0  0  0  0
 12 15  1  0  0  0  0
 12  1  2  0  0  0  0
 14 12  1  0  0  0  0
 16 14  2  0  0  0  0
 16 23  1  0  0  0  0
 17  5  2  0  0  0  0
 18 16  1  0  0  0  0
 19 11  2  0  0  0  0
 21 22  1  0  0  0  0
 21 11  1  0  0  0  0
 22 13  1  6  0  0  0
 22 24  1  0  0  0  0
 23  3  2  0  0  0  0
 24 20  2  0  0  0  0
 24 50  1  0  0  0  0
 25 19  1  0  0  0  0
 26 35  1  6  0  0  0
 26 27  1  0  0  0  0
 28 10  1  6  0  0  0
 29 28  1  0  0  0  0
 29 26  1  0  0  0  0
 30 28  1  0  0  0  0
 30 31  1  0  0  0  0
 31 27  1  0  0  0  0
 32 35  1  0  0  0  0
 35 33  1  0  0  0  0
 35 34  1  0  0  0  0
 36 38  1  0  0  0  0
 36 37  1  0  0  0  0
 37 40  1  0  0  0  0
 39 36  2  0  0  0  0
 41 44  1  0  0  0  0
 41 40  1  1  0  0  0
 42 45  1  0  0  0  0
 42 43  1  0  0  0  0
 43 44  1  0  0  0  0
 45 46  1  0  0  0  0
 46 41  1  0  0  0  0
 46 47  1  1  0  0  0
 48 47  1  0  0  0  0
 49 48  1  0  0  0  0
 49 47  1  0  0  0  0
 50 52  2  0  0  0  0
 51 50  1  0  0  0  0
M  END
>  <MODEL>
2

>  <REMARK>
 VINA RESULT:      -8.4      3.648     10.391
  Name = 
  7 active torsions:
  status: ('A' for Active; 'I' for Inactive)
    1  A    between atoms: C_5  and  C_29
    2  A    between atoms: C_6  and  N_45
    3  A    between atoms: C_9  and  C_28
    4  A    between atoms: N_10  and  C_28
    5  A    between atoms: C_12  and  N_23
    6  A    between atoms: C_13  and  C_51
    7  A    between atoms: C_14  and  N_24
                            x       y       z     vdW  Elec       q    Type
                         _______ _______ _______ _____ _____    ______ ____

>  <TORSDO>
F 7

$$$$
=
 OpenBabel10232409253D

 52 60  0  0  1  0  0  0  0  0999 V2000
  188.6500  176.9790  138.7090 C   0  0  0  0  0  0  0  0  0  0  0  0
  189.0040  177.7510  142.3130 O   0  0  0  0  0  0  0  0  0  0  0  0
  188.3320  177.4350  140.0170 C   0  0  0  0  0  0  0  0  0  0  0  0
  187.5770  176.7230  137.7230 C   0  0  0  0  0  0  0  0  0  0  0  0
  192.4040  176.9390  138.9250 C   0  0  0  0  0  0  0  0  0  0  0  0
  193.0300  177.2630  141.2500 C   0  0  0  0  0  3  0  0  0  0  0  0
  191.3930  177.6480  143.0580 C   0  0  0  0  0  3  0  0  0  0  0  0
  186.9130  177.6480  140.5010 C   0  0  0  0  0  2  0  0  0  0  0  0
  189.9320  177.6610  143.3490 C   0  0  0  0  0  0  0  0  0  0  0  0
  189.5380  177.5960  144.5800 N   0  0  0  0  0  2  0  0  0  0  0  0
  185.6900  176.8890  136.7570 C   0  0  0  0  0  0  0  0  0  0  0  0
  189.9980  176.8090  138.3350 C   0  0  0  0  0  0  0  0  0  0  0  0
  186.1310  178.6020  139.7090 N   0  0  0  0  0  2  0  0  0  0  0  0
  191.0350  177.0060  139.2790 C   0  0  0  0  0  0  0  0  0  0  0  0
  190.2920  176.4490  137.0220 O   0  0  0  0  0  1  0  0  0  0  0  0
  190.6850  177.2810  140.6280 C   0  0  0  0  0  0  0  0  0  0  0  0
  193.3790  177.0600  139.9220 C   0  0  0  0  0  3  0  0  0  0  0  0
  191.6890  177.3650  141.6140 C   0  0  0  0  0  0  0  0  0  0  0  0
  186.2110  175.7970  136.1680 N   0  0  0  0  0  0  0  0  0  0  0  0
  184.4140  177.3150  136.8140 N   0  0  0  0  0  0  0  0  0  0  0  0
  186.4700  177.4310  137.6420 N   0  0  0  0  0  0  0  0  0  0  0  0
  185.7780  178.2860  138.3650 C   0  0  1  0  0  3  0  0  0  0  0  0
  189.3450  177.5000  140.9820 C   0  0  0  0  0  0  0  0  0  0  0  0
  184.4850  178.2350  137.8290 C   0  0  0  0  0  0  0  0  0  0  0  0
  187.4420  175.6990  136.7730 C   0  0  0  0  0  3  0  0  0  0  0  0
  186.0340  178.0360  144.2710 C   0  0  2  0  0  3  0  0  0  0  0  0
  185.5260  177.7890  145.7170 C   0  0  0  0  0  2  0  0  0  0  0  0
  188.1290  177.5090  144.9480 C   0  0  2  0  0  3  0  0  0  0  0  0
  187.3850  178.4660  144.2320 O   0  0  0  0  0  0  0  0  0  0  0  0
  187.9560  177.7670  146.4500 C   0  0  0  0  0  2  0  0  0  0  0  0
  186.5370  178.2670  146.7650 C   0  0  0  0  0  2  0  0  0  0  0  0
  185.9880  179.9310  142.6130 C   0  0  0  0  0  1  0  0  0  0  0  0
  184.1370  178.2810  142.6270 C   0  0  0  0  0  1  0  0  0  0  0  0
  184.3880  179.9000  144.4760 C   0  0  0  0  0  1  0  0  0  0  0  0
  185.1430  179.0240  143.4950 C   0  0  0  0  0  0  0  0  0  0  0  0
  193.1840  175.6740  136.8570 C   0  0  0  0  0  0  0  0  0  0  0  0
  193.7090  175.7650  135.5310 N   0  0  0  0  0  2  0  0  0  0  0  0
  192.8090  176.8730  137.5480 N   0  0  0  0  0  2  0  0  0  0  0  0
  193.1000  174.5480  137.4210 O   0  0  0  0  0  0  0  0  0  0  0  0
  194.2450  174.5980  134.8460 C   0  0  0  0  0  2  0  0  0  0  0  0
  195.7720  174.6820  134.6790 C   0  0  1  0  0  3  0  0  0  0  0  0
  198.5990  174.9500  134.8480 C   0  0  0  0  0  2  0  0  0  0  0  0
  197.7930  176.1530  134.3460 C   0  0  0  0  0  2  0  0  0  0  0  0
  196.3240  176.1110  134.7810 C   0  0  0  0  0  2  0  0  0  0  0  0
  197.8410  174.1770  135.9250 C   0  0  0  0  0  2  0  0  0  0  0  0
  196.5830  173.6390  135.3840 N   0  0  1  0  0  0  0  0  0  0  0  0
  195.8680  172.9990  136.4910 C   0  0  0  0  0  3  0  0  0  0  0  0
  195.8480  171.4940  136.2750 C   0  0  0  0  0  2  0  0  0  0  0  0
  196.8080  172.0960  137.2710 C   0  0  0  0  0  2  0  0  0  0  0  0
  183.3150  178.9580  138.3400 C   0  0  0  0  0  0  0  0  0  0  0  0
  183.4550  180.2730  138.8620 N   0  0  0  0  0  1  0  0  0  0  0  0
  182.1940  178.3950  138.3670 O   0  0  0  0  0  0  0  0  0  0  0  0
  1  3  1  0  0  0  0
  2  9  1  0  0  0  0
  3  8  1  0  0  0  0
  3 23  2  0  0  0  0
  4  1  1  0  0  0  0
  5 14  2  0  0  0  0
  5 17  1  0  0  0  0
  6 18  1  0  0  0  0
  7  9  2  0  0  0  0
  9 10  1  0  0  0  0
 11 20  1  0  0  0  0
 11 21  1  0  0  0  0
 12  1  2  0  0  0  0
 12 14  1  0  0  0  0
 13  8  1  0  0  0  0
 14 16  1  0  0  0  0
 15 12  1  0  0  0  0
 16 23  1  0  0  0  0
 16 18  2  0  0  0  0
 17  6  2  0  0  0  0
 18  7  1  0  0  0  0
 19 11  2  0  0  0  0
 19 25  1  0  0  0  0
 20 24  2  0  0  0  0
 21  4  1  0  0  0  0
 21 22  1  0  0  0  0
 22 24  1  1  0  0  0
 22 13  1  0  0  0  0
 23  2  1  0  0  0  0
 24 50  1  0  0  0  0
 25  4  2  0  0  0  0
 26 35  1  1  0  0  0
 26 27  1  0  0  0  0
 27 31  1  0  0  0  0
 28 10  1  6  0  0  0
 28 30  1  0  0  0  0
 29 26  1  0  0  0  0
 29 28  1  0  0  0  0
 30 31  1  0  0  0  0
 32 35  1  0  0  0  0
 33 35  1  0  0  0  0
 35 34  1  0  0  0  0
 36 39  2  0  0  0  0
 36 38  1  0  0  0  0
 37 36  1  0  0  0  0
 38  5  1  0  0  0  0
 40 37  1  0  0  0  0
 41 44  1  0  0  0  0
 41 40  1  1  0  0  0
 41 46  1  0  0  0  0
 42 45  1  0  0  0  0
 43 44  1  0  0  0  0
 43 42  1  0  0  0  0
 46 45  1  0  0  0  0
 46 47  1  1  0  0  0
 47 49  1  0  0  0  0
 48 47  1  0  0  0  0
 48 49  1  0  0  0  0
 50 52  2  0  0  0  0
 50 51  1  0  0  0  0
M  END
>  <MODEL>
3

>  <REMARK>
 VINA RESULT:      -7.7      3.342      8.852
  Name = 
  7 active torsions:
  status: ('A' for Active; 'I' for Inactive)
    1  A    between atoms: C_5  and  C_29
    2  A    between atoms: C_6  and  N_45
    3  A    between atoms: C_9  and  C_28
    4  A    between atoms: N_10  and  C_28
    5  A    between atoms: C_12  and  N_23
    6  A    between atoms: C_13  and  C_51
    7  A    between atoms: C_14  and  N_24
                            x       y       z     vdW  Elec       q    Type
                         _______ _______ _______ _____ _____    ______ ____

>  <TORSDO>
F 7

$$$$
=
 OpenBabel10232409253D

 52 60  0  0  1  0  0  0  0  0999 V2000
  190.0760  177.5950  141.2690 C   0  0  0  0  0  0  0  0  0  0  0  0
  186.9330  177.4120  139.3190 O   0  0  0  0  0  0  0  0  0  0  0  0
  188.6890  177.4990  140.9720 C   0  0  0  0  0  0  0  0  0  0  0  0
  190.5270  177.9820  142.6240 C   0  0  0  0  0  0  0  0  0  0  0  0
  191.5270  176.5370  137.9650 C   0  0  0  0  0  0  0  0  0  0  0  0
  189.7240  176.4620  136.3380 C   0  0  0  0  0  3  0  0  0  0  0  0
  187.3640  176.9200  136.9010 C   0  0  0  0  0  3  0  0  0  0  0  0
  187.6010  177.8150  141.9760 C   0  0  0  0  0  2  0  0  0  0  0  0
  186.4810  177.4020  138.0010 C   0  0  0  0  0  0  0  0  0  0  0  0
  185.2850  177.8020  137.7130 N   0  0  0  0  0  2  0  0  0  0  0  0
  190.4820  178.2230  144.7360 C   0  0  0  0  0  0  0  0  0  0  0  0
  191.0280  177.2800  140.2800 C   0  0  0  0  0  0  0  0  0  0  0  0
  187.6470  177.0160  143.2040 N   0  0  0  0  0  2  0  0  0  0  0  0
  190.6140  176.9520  138.9660 C   0  0  0  0  0  0  0  0  0  0  0  0
  192.3790  177.2920  140.6160 O   0  0  0  0  0  1  0  0  0  0  0  0
  189.2330  177.0420  138.6420 C   0  0  0  0  0  0  0  0  0  0  0  0
  191.0650  176.3080  136.6640 C   0  0  0  0  0  3  0  0  0  0  0  0
  188.8050  176.8360  137.3150 C   0  0  0  0  0  0  0  0  0  0  0  0
  191.5380  178.9830  144.3900 N   0  0  0  0  0  0  0  0  0  0  0  0
  189.7530  178.2200  145.8690 N   0  0  0  0  0  0  0  0  0  0  0  0
  189.9030  177.6390  143.7310 N   0  0  0  0  0  0  0  0  0  0  0  0
  188.7310  177.1770  144.1150 C   0  0  1  0  0  3  0  0  0  0  0  0
  188.2870  177.3050  139.6450 C   0  0  0  0  0  0  0  0  0  0  0  0
  188.6430  177.5200  145.4700 C   0  0  0  0  0  0  0  0  0  0  0  0
  191.5850  178.8110  143.0270 C   0  0  0  0  0  3  0  0  0  0  0  0
  182.4860  178.0060  139.8790 C   0  0  2  0  0  3  0  0  0  0  0  0
  182.4330  179.5160  140.2350 C   0  0  0  0  0  2  0  0  0  0  0  0
  184.3900  178.3760  138.7130 C   0  0  2  0  0  3  0  0  0  0  0  0
  183.1270  177.7580  138.6380 O   0  0  0  0  0  0  0  0  0  0  0  0
  184.2210  179.8820  138.4710 C   0  0  0  0  0  2  0  0  0  0  0  0
  182.9000  180.3920  139.0670 C   0  0  0  0  0  2  0  0  0  0  0  0
  180.3570  177.6760  141.1840 C   0  0  0  0  0  1  0  0  0  0  0  0
  180.2570  177.8240  138.7110 C   0  0  0  0  0  1  0  0  0  0  0  0
  181.2420  175.8440  139.8100 C   0  0  0  0  0  1  0  0  0  0  0  0
  181.0920  177.3500  139.8930 C   0  0  0  0  0  0  0  0  0  0  0  0
  193.8380  175.6310  137.3960 C   0  0  0  0  0  0  0  0  0  0  0  0
  195.1200  175.2400  137.8910 N   0  0  0  0  0  2  0  0  0  0  0  0
  192.8910  176.2290  138.2930 N   0  0  0  0  0  2  0  0  0  0  0  0
  193.5360  175.4050  136.1910 O   0  0  0  0  0  0  0  0  0  0  0  0
  196.0560  174.4940  137.0620 C   0  0  0  0  0  2  0  0  0  0  0  0
  196.1110  173.0070  137.4550 C   0  0  1  0  0  3  0  0  0  0  0  0
  196.3660  170.1860  137.7200 C   0  0  0  0  0  2  0  0  0  0  0  0
  194.9810  170.7540  137.3950 C   0  0  0  0  0  2  0  0  0  0  0  0
  195.0390  172.1510  136.7660 C   0  0  0  0  0  2  0  0  0  0  0  0
  197.4740  170.9930  137.0450 C   0  0  0  0  0  2  0  0  0  0  0  0
  197.4690  172.3820  137.5290 N   0  0  1  0  0  0  0  0  0  0  0  0
  198.4870  173.1140  136.7720 C   0  0  0  0  0  3  0  0  0  0  0  0
  199.5740  173.5950  137.7210 C   0  0  0  0  0  2  0  0  0  0  0  0
  199.8200  172.3890  136.8480 C   0  0  0  0  0  2  0  0  0  0  0  0
  187.4850  177.2880  146.3400 C   0  0  0  0  0  0  0  0  0  0  0  0
  186.1680  177.5450  145.8660 N   0  0  0  0  0  1  0  0  0  0  0  0
  187.6560  176.9130  147.5250 O   0  0  0  0  0  0  0  0  0  0  0  0
  1  4  1  0  0  0  0
  2 23  1  0  0  0  0
  3  1  1  0  0  0  0
  3  8  1  0  0  0  0
  4 25  2  0  0  0  0
  4 21  1  0  0  0  0
  5 38  1  0  0  0  0
  5 14  1  0  0  0  0
  6 17  1  0  0  0  0
  6 18  2  0  0  0  0
  7 18  1  0  0  0  0
  7  9  2  0  0  0  0
  8 13  1  0  0  0  0
  9  2  1  0  0  0  0
 10  9  1  0  0  0  0
 11 20  1  0  0  0  0
 12 15  1  0  0  0  0
 12  1  2  0  0  0  0
 14 12  1  0  0  0  0
 16 14  2  0  0  0  0
 16 23  1  0  0  0  0
 17  5  2  0  0  0  0
 18 16  1  0  0  0  0
 19 11  2  0  0  0  0
 21 22  1  0  0  0  0
 21 11  1  0  0  0  0
 22 13  1  6  0  0  0
 22 24  1  0  0  0  0
 23  3  2  0  0  0  0
 24 20  2  0  0  0  0
 24 50  1  0  0  0  0
 25 19  1  0  0  0  0
 26 35  1  6  0  0  0
 26 27  1  0  0  0  0
 28 10  1  6  0  0  0
 29 28  1  0  0  0  0
 29 26  1  0  0  0  0
 30 28  1  0  0  0  0
 30 31  1  0  0  0  0
 31 27  1  0  0  0  0
 33 35  1  0  0  0  0
 34 35  1  0  0  0  0
 35 32  1  0  0  0  0
 36 37  1  0  0  0  0
 36 38  1  0  0  0  0
 39 36  2  0  0  0  0
 40 37  1  0  0  0  0
 41 40  1  6  0  0  0
 41 46  1  0  0  0  0
 43 42  1  0  0  0  0
 44 43  1  0  0  0  0
 44 41  1  0  0  0  0
 45 46  1  0  0  0  0
 45 42  1  0  0  0  0
 46 47  1  6  0  0  0
 47 49  1  0  0  0  0
 47 48  1  0  0  0  0
 49 48  1  0  0  0  0
 50 52  2  0  0  0  0
 51 50  1  0  0  0  0
M  END
>  <MODEL>
4

>  <REMARK>
 VINA RESULT:      -7.5      3.657     10.485
  Name = 
  7 active torsions:
  status: ('A' for Active; 'I' for Inactive)
    1  A    between atoms: C_5  and  C_29
    2  A    between atoms: C_6  and  N_45
    3  A    between atoms: C_9  and  C_28
    4  A    between atoms: N_10  and  C_28
    5  A    between atoms: C_12  and  N_23
    6  A    between atoms: C_13  and  C_51
    7  A    between atoms: C_14  and  N_24
                            x       y       z     vdW  Elec       q    Type
                         _______ _______ _______ _____ _____    ______ ____

>  <TORSDO>
F 7

$$$$
=
 OpenBabel10232409253D

 52 60  0  0  1  0  0  0  0  0999 V2000
  188.5030  177.1030  138.9500 C   0  0  0  0  0  0  0  0  0  0  0  0
  188.8060  177.8480  142.5650 O   0  0  0  0  0  0  0  0  0  0  0  0
  188.1680  177.5520  140.2560 C   0  0  0  0  0  0  0  0  0  0  0  0
  187.4440  176.8620  137.9460 C   0  0  0  0  0  0  0  0  0  0  0  0
  192.2530  177.0350  139.2250 C   0  0  0  0  0  0  0  0  0  0  0  0
  192.8440  177.3380  141.5620 C   0  0  0  0  0  3  0  0  0  0  0  0
  191.1820  177.7230  143.3460 C   0  0  0  0  0  3  0  0  0  0  0  0
  186.7430  177.7720  140.7190 C   0  0  0  0  0  2  0  0  0  0  0  0
  189.7160  177.7450  143.6140 C   0  0  0  0  0  0  0  0  0  0  0  0
  189.3030  177.6740  144.8390 N   0  0  0  0  0  2  0  0  0  0  0  0
  185.5730  177.0480  136.9510 C   0  0  0  0  0  0  0  0  0  0  0  0
  189.8550  176.9270  138.5960 C   0  0  0  0  0  0  0  0  0  0  0  0
  185.9800  178.7370  139.9220 N   0  0  0  0  0  2  0  0  0  0  0  0
  190.8780  177.1100  139.5570 C   0  0  0  0  0  0  0  0  0  0  0  0
  190.1670  176.5730  137.2850 O   0  0  0  0  0  1  0  0  0  0  0  0
  190.5100  177.3780  140.9030 C   0  0  0  0  0  0  0  0  0  0  0  0
  193.2130  177.1420  140.2370 C   0  0  0  0  0  3  0  0  0  0  0  0
  191.4990  177.4480  141.9050 C   0  0  0  0  0  0  0  0  0  0  0  0
  186.0960  175.9560  136.3630 N   0  0  0  0  0  0  0  0  0  0  0  0
  184.2990  177.4830  136.9910 N   0  0  0  0  0  0  0  0  0  0  0  0
  186.3440  177.5780  137.8520 N   0  0  0  0  0  0  0  0  0  0  0  0
  185.6450  178.4340  138.5700 C   0  0  1  0  0  3  0  0  0  0  0  0
  189.1660  177.6040  141.2370 C   0  0  0  0  0  0  0  0  0  0  0  0
  184.3610  178.3950  138.0130 C   0  0  0  0  0  0  0  0  0  0  0  0
  187.3160  175.8460  136.9870 C   0  0  0  0  0  3  0  0  0  0  0  0
  185.8040  178.0950  144.4540 C   0  0  2  0  0  3  0  0  0  0  0  0
  185.2710  177.8900  145.8970 C   0  0  0  0  0  2  0  0  0  0  0  0
  187.8870  177.5940  145.1840 C   0  0  2  0  0  3  0  0  0  0  0  0
  187.1550  178.5280  144.4260 O   0  0  0  0  0  0  0  0  0  0  0  0
  187.6870  177.8960  146.6740 C   0  0  0  0  0  2  0  0  0  0  0  0
  186.2620  178.4020  146.9480 C   0  0  0  0  0  2  0  0  0  0  0  0
  184.0950  178.2910  142.6150 C   0  0  0  0  0  1  0  0  0  0  0  0
  183.9930  179.8500  144.5420 C   0  0  0  0  0  1  0  0  0  0  0  0
  185.8090  180.0290  142.8770 C   0  0  0  0  0  1  0  0  0  0  0  0
  184.9250  179.0580  143.6330 C   0  0  0  0  0  0  0  0  0  0  0  0
  193.0510  175.7780  137.1590 C   0  0  0  0  0  0  0  0  0  0  0  0
  193.5970  175.8740  135.8420 N   0  0  0  0  0  2  0  0  0  0  0  0
  192.6790  176.9760  137.8540 N   0  0  0  0  0  2  0  0  0  0  0  0
  192.9440  174.6490  137.7110 O   0  0  0  0  0  0  0  0  0  0  0  0
  194.1300  174.7060  135.1550 C   0  0  0  0  0  2  0  0  0  0  0  0
  195.2090  173.9930  135.9900 C   0  0  1  0  0  3  0  0  0  0  0  0
  197.3490  172.4860  137.1030 C   0  0  0  0  0  2  0  0  0  0  0  0
  195.9450  171.8740  137.1410 C   0  0  0  0  0  2  0  0  0  0  0  0
  195.0020  172.4760  136.0920 C   0  0  0  0  0  2  0  0  0  0  0  0
  197.5710  173.3000  135.8300 C   0  0  0  0  0  2  0  0  0  0  0  0
  196.6240  174.4240  135.7660 N   0  0  1  0  0  0  0  0  0  0  0  0
  196.8300  175.0980  134.4810 C   0  0  0  0  0  3  0  0  0  0  0  0
  197.2180  176.5480  134.7270 C   0  0  0  0  0  2  0  0  0  0  0  0
  198.2760  175.5420  134.3460 C   0  0  0  0  0  2  0  0  0  0  0  0
  183.1880  179.1230  138.5110 C   0  0  0  0  0  0  0  0  0  0  0  0
  183.2930  180.4960  138.8690 N   0  0  0  0  0  1  0  0  0  0  0  0
  182.1000  178.5200  138.6750 O   0  0  0  0  0  0  0  0  0  0  0  0
  1  3  1  0  0  0  0
  2  9  1  0  0  0  0
  3  8  1  0  0  0  0
  3 23  2  0  0  0  0
  4  1  1  0  0  0  0
  5 14  2  0  0  0  0
  5 17  1  0  0  0  0
  6 18  1  0  0  0  0
  7  9  2  0  0  0  0
  9 10  1  0  0  0  0
 11 20  1  0  0  0  0
 11 21  1  0  0  0  0
 12  1  2  0  0  0  0
 12 14  1  0  0  0  0
 13  8  1  0  0  0  0
 14 16  1  0  0  0  0
 15 12  1  0  0  0  0
 16 23  1  0  0  0  0
 16 18  2  0  0  0  0
 17  6  2  0  0  0  0
 18  7  1  0  0  0  0
 19 11  2  0  0  0  0
 19 25  1  0  0  0  0
 20 24  2  0  0  0  0
 21  4  1  0  0  0  0
 21 22  1  0  0  0  0
 22 24  1  1  0  0  0
 22 13  1  0  0  0  0
 23  2  1  0  0  0  0
 24 50  1  0  0  0  0
 25  4  2  0  0  0  0
 26 35  1  1  0  0  0
 26 27  1  0  0  0  0
 27 31  1  0  0  0  0
 28 10  1  6  0  0  0
 28 30  1  0  0  0  0
 29 26  1  0  0  0  0
 29 28  1  0  0  0  0
 30 31  1  0  0  0  0
 32 35  1  0  0  0  0
 34 35  1  0  0  0  0
 35 33  1  0  0  0  0
 36 39  2  0  0  0  0
 36 38  1  0  0  0  0
 37 36  1  0  0  0  0
 38  5  1  0  0  0  0
 40 37  1  0  0  0  0
 41 40  1  6  0  0  0
 41 44  1  0  0  0  0
 42 43  1  0  0  0  0
 44 43  1  0  0  0  0
 45 42  1  0  0  0  0
 46 47  1  6  0  0  0
 46 45  1  0  0  0  0
 46 41  1  0  0  0  0
 47 48  1  0  0  0  0
 49 47  1  0  0  0  0
 49 48  1  0  0  0  0
 50 52  2  0  0  0  0
 50 51  1  0  0  0  0
M  END
>  <MODEL>
5

>  <REMARK>
 VINA RESULT:      -7.3      3.241      8.897
  Name = 
  7 active torsions:
  status: ('A' for Active; 'I' for Inactive)
    1  A    between atoms: C_5  and  C_29
    2  A    between atoms: C_6  and  N_45
    3  A    between atoms: C_9  and  C_28
    4  A    between atoms: N_10  and  C_28
    5  A    between atoms: C_12  and  N_23
    6  A    between atoms: C_13  and  C_51
    7  A    between atoms: C_14  and  N_24
                            x       y       z     vdW  Elec       q    Type
                         _______ _______ _______ _____ _____    ______ ____

>  <TORSDO>
F 7

$$$$
=
 OpenBabel10232409253D

 52 60  0  0  1  0  0  0  0  0999 V2000
  188.7570  176.7170  138.5470 C   0  0  0  0  0  0  0  0  0  0  0  0
  189.7150  178.0660  141.8590 O   0  0  0  0  0  0  0  0  0  0  0  0
  188.6790  177.4250  139.7760 C   0  0  0  0  0  0  0  0  0  0  0  0
  187.5300  176.4060  137.7810 C   0  0  0  0  0  0  0  0  0  0  0  0
  192.4850  176.3210  138.2570 C   0  0  0  0  0  0  0  0  0  0  0  0
  193.4810  176.9790  140.3720 C   0  0  0  0  0  3  0  0  0  0  0  0
  192.1740  177.8450  142.2800 C   0  0  0  0  0  3  0  0  0  0  0  0
  187.3710  177.8680  140.3980 C   0  0  0  0  0  2  0  0  0  0  0  0
  190.7800  178.0620  142.7580 C   0  0  0  0  0  0  0  0  0  0  0  0
  190.5750  178.2560  144.0210 N   0  0  0  0  0  2  0  0  0  0  0  0
  185.5360  176.5980  137.0650 C   0  0  0  0  0  0  0  0  0  0  0  0
  190.0140  176.3430  138.0320 C   0  0  0  0  0  0  0  0  0  0  0  0
  186.5550  178.7450  139.5540 N   0  0  0  0  0  2  0  0  0  0  0  0
  191.1950  176.5920  138.7730 C   0  0  0  0  0  0  0  0  0  0  0  0
  190.0760  175.7300  136.7830 O   0  0  0  0  0  1  0  0  0  0  0  0
  191.0780  177.1350  140.0810 C   0  0  0  0  0  0  0  0  0  0  0  0
  193.6070  176.5110  139.0710 C   0  0  0  0  0  3  0  0  0  0  0  0
  192.2240  177.2840  140.8880 C   0  0  0  0  0  0  0  0  0  0  0  0
  185.8740  175.3710  136.6280 N   0  0  0  0  0  0  0  0  0  0  0  0
  184.3210  177.1590  137.2130 N   0  0  0  0  0  0  0  0  0  0  0  0
  186.4820  177.2010  137.7190 N   0  0  0  0  0  0  0  0  0  0  0  0
  185.9770  178.2380  138.3540 C   0  0  1  0  0  3  0  0  0  0  0  0
  189.8290  177.5520  140.5650 C   0  0  0  0  0  0  0  0  0  0  0  0
  184.6180  178.2300  138.0170 C   0  0  0  0  0  0  0  0  0  0  0  0
  187.1710  175.2520  137.0690 C   0  0  0  0  0  3  0  0  0  0  0  0
  188.0790  178.4730  146.5300 C   0  0  2  0  0  3  0  0  0  0  0  0
  186.7730  178.1810  145.7440 C   0  0  0  0  0  2  0  0  0  0  0  0
  189.2350  178.3820  144.5860 C   0  0  2  0  0  3  0  0  0  0  0  0
  189.2270  177.9110  145.9130 O   0  0  0  0  0  0  0  0  0  0  0  0
  188.2330  177.5640  143.7610 C   0  0  0  0  0  2  0  0  0  0  0  0
  187.0050  177.1830  144.6050 C   0  0  0  0  0  2  0  0  0  0  0  0
  189.0710  178.6980  148.8340 C   0  0  0  0  0  1  0  0  0  0  0  0
  186.6290  178.3410  148.5900 C   0  0  0  0  0  1  0  0  0  0  0  0
  188.2210  176.5220  148.0800 C   0  0  0  0  0  1  0  0  0  0  0  0
  187.9950  178.0190  148.0000 C   0  0  0  0  0  0  0  0  0  0  0  0
  193.4320  174.8540  136.4020 C   0  0  0  0  0  0  0  0  0  0  0  0
  193.6590  174.7040  135.0000 N   0  0  0  0  0  2  0  0  0  0  0  0
  192.6690  175.9730  136.8750 N   0  0  0  0  0  2  0  0  0  0  0  0
  193.9400  174.0290  137.2110 O   0  0  0  0  0  0  0  0  0  0  0  0
  194.5500  173.6760  134.4820 C   0  0  0  0  0  2  0  0  0  0  0  0
  196.0100  174.1590  134.4220 C   0  0  1  0  0  3  0  0  0  0  0  0
  198.6640  175.1120  134.7950 C   0  0  0  0  0  2  0  0  0  0  0  0
  197.5960  176.1180  134.3540 C   0  0  0  0  0  2  0  0  0  0  0  0
  196.1710  175.6620  134.6880 C   0  0  0  0  0  2  0  0  0  0  0  0
  198.0880  174.0650  135.7470 C   0  0  0  0  0  2  0  0  0  0  0  0
  197.0330  173.2870  135.0800 N   0  0  1  0  0  0  0  0  0  0  0  0
  196.4650  172.3750  136.0760 C   0  0  0  0  0  3  0  0  0  0  0  0
  197.3440  171.1400  136.1900 C   0  0  0  0  0  2  0  0  0  0  0  0
  197.4200  172.2140  137.2470 C   0  0  0  0  0  2  0  0  0  0  0  0
  183.6000  179.1500  138.5370 C   0  0  0  0  0  0  0  0  0  0  0  0
  182.2230  178.7960  138.4940 N   0  0  0  0  0  1  0  0  0  0  0  0
  183.9380  180.2770  138.9720 O   0  0  0  0  0  0  0  0  0  0  0  0
  1  3  1  0  0  0  0
  2  9  1  0  0  0  0
  3  8  1  0  0  0  0
  3 23  2  0  0  0  0
  4  1  1  0  0  0  0
  5 14  2  0  0  0  0
  5 17  1  0  0  0  0
  6 18  1  0  0  0  0
  7  9  2  0  0  0  0
  9 10  1  0  0  0  0
 11 20  1  0  0  0  0
 11 21  1  0  0  0  0
 12  1  2  0  0  0  0
 12 14  1  0  0  0  0
 13  8  1  0  0  0  0
 14 16  1  0  0  0  0
 15 12  1  0  0  0  0
 16 23  1  0  0  0  0
 16 18  2  0  0  0  0
 17  6  2  0  0  0  0
 18  7  1  0  0  0  0
 19 11  2  0  0  0  0
 19 25  1  0  0  0  0
 20 24  2  0  0  0  0
 21  4  1  0  0  0  0
 21 22  1  0  0  0  0
 22 24  1  1  0  0  0
 22 13  1  0  0  0  0
 23  2  1  0  0  0  0
 24 50  1  0  0  0  0
 25  4  2  0  0  0  0
 26 35  1  1  0  0  0
 27 26  1  0  0  0  0
 28 10  1  6  0  0  0
 28 29  1  0  0  0  0
 29 26  1  0  0  0  0
 30 28  1  0  0  0  0
 30 31  1  0  0  0  0
 31 27  1  0  0  0  0
 35 34  1  0  0  0  0
 35 33  1  0  0  0  0
 35 32  1  0  0  0  0
 36 38  1  0  0  0  0
 36 39  2  0  0  0  0
 37 36  1  0  0  0  0
 38  5  1  0  0  0  0
 40 37  1  0  0  0  0
 41 40  1  1  0  0  0
 41 44  1  0  0  0  0
 41 46  1  0  0  0  0
 42 45  1  0  0  0  0
 43 44  1  0  0  0  0
 43 42  1  0  0  0  0
 46 45  1  0  0  0  0
 46 47  1  1  0  0  0
 47 48  1  0  0  0  0
 47 49  1  0  0  0  0
 48 49  1  0  0  0  0
 50 52  2  0  0  0  0
 51 50  1  0  0  0  0
M  END
>  <MODEL>
6

>  <REMARK>
 VINA RESULT:      -6.9      3.606      9.097
  Name = 
  7 active torsions:
  status: ('A' for Active; 'I' for Inactive)
    1  A    between atoms: C_5  and  C_29
    2  A    between atoms: C_6  and  N_45
    3  A    between atoms: C_9  and  C_28
    4  A    between atoms: N_10  and  C_28
    5  A    between atoms: C_12  and  N_23
    6  A    between atoms: C_13  and  C_51
    7  A    between atoms: C_14  and  N_24
                            x       y       z     vdW  Elec       q    Type
                         _______ _______ _______ _____ _____    ______ ____

>  <TORSDO>
F 7

$$$$
=
 OpenBabel10232409253D

 52 60  0  0  1  0  0  0  0  0999 V2000
  189.3390  175.2140  137.2350 C   0  0  0  0  0  0  0  0  0  0  0  0
  192.9030  174.2330  137.4480 O   0  0  0  0  0  0  0  0  0  0  0  0
  190.5220  174.4370  137.1110 C   0  0  0  0  0  0  0  0  0  0  0  0
  188.1340  174.8760  136.4450 C   0  0  0  0  0  0  0  0  0  0  0  0
  190.4380  177.6610  139.8700 C   0  0  0  0  0  0  0  0  0  0  0  0
  192.8360  177.4160  140.1740 C   0  0  0  0  0  3  0  0  0  0  0  0
  194.1940  175.7380  138.9770 C   0  0  0  0  0  3  0  0  0  0  0  0
  190.6500  173.2650  136.1600 C   0  0  0  0  0  2  0  0  0  0  0  0
  194.1300  174.7200  137.8910 C   0  0  0  0  0  0  0  0  0  0  0  0
  195.2350  174.2900  137.3710 N   0  0  0  0  0  2  0  0  0  0  0  0
  186.7450  173.6920  135.3540 C   0  0  0  0  0  0  0  0  0  0  0  0
  189.2980  176.2870  138.1460 C   0  0  0  0  0  0  0  0  0  0  0  0
  189.6720  172.1940  136.3690 N   0  0  0  0  0  2  0  0  0  0  0  0
  190.4550  176.6520  138.8760 C   0  0  0  0  0  0  0  0  0  0  0  0
  188.1020  176.9800  138.3190 O   0  0  0  0  0  1  0  0  0  0  0  0
  191.6760  175.9800  138.6000 C   0  0  0  0  0  0  0  0  0  0  0  0
  191.6330  178.0320  140.4960 C   0  0  0  0  0  3  0  0  0  0  0  0
  192.8690  176.3990  139.2240 C   0  0  0  0  0  0  0  0  0  0  0  0
  186.3240  174.9410  135.0800 N   0  0  0  0  0  0  0  0  0  0  0  0
  186.4870  172.5340  134.7170 N   0  0  0  0  0  0  0  0  0  0  0  0
  187.7750  173.6460  136.1430 N   0  0  0  0  0  0  0  0  0  0  0  0
  188.2900  172.4350  136.1120 C   0  0  1  0  0  3  0  0  0  0  0  0
  191.6970  174.8790  137.7310 C   0  0  0  0  0  0  0  0  0  0  0  0
  187.4650  171.7230  135.2330 C   0  0  0  0  0  0  0  0  0  0  0  0
  187.2060  175.7100  135.8030 C   0  0  0  0  0  3  0  0  0  0  0  0
  194.7810  171.2460  135.6120 C   0  0  2  0  0  3  0  0  0  0  0  0
  195.6560  171.4440  134.3460 C   0  0  0  0  0  2  0  0  0  0  0  0
  195.2610  173.3660  136.2420 C   0  0  2  0  0  3  0  0  0  0  0  0
  195.2140  172.0380  136.7070 O   0  0  0  0  0  0  0  0  0  0  0  0
  196.5450  173.5620  135.4260 C   0  0  0  0  0  2  0  0  0  0  0  0
  196.9000  172.2890  134.6410 C   0  0  0  0  0  2  0  0  0  0  0  0
  195.6520  168.9140  135.2270 C   0  0  0  0  0  1  0  0  0  0  0  0
  195.0010  169.6070  137.5170 C   0  0  0  0  0  1  0  0  0  0  0  0
  193.2830  169.2560  135.7770 C   0  0  0  0  0  1  0  0  0  0  0  0
  194.6870  169.7670  136.0360 C   0  0  0  0  0  0  0  0  0  0  0  0
  188.4990  177.8080  141.5150 C   0  0  0  0  0  0  0  0  0  0  0  0
  187.2010  178.3430  141.7830 N   0  0  0  0  0  2  0  0  0  0  0  0
  189.1980  178.2210  140.3320 N   0  0  0  0  0  2  0  0  0  0  0  0
  188.9950  176.9480  142.2940 O   0  0  0  0  0  0  0  0  0  0  0  0
  186.3890  177.8450  142.8840 C   0  0  0  0  0  2  0  0  0  0  0  0
  185.0340  178.5680  142.9700 C   0  0  1  0  0  3  0  0  0  0  0  0
  182.3730  179.4970  143.3550 C   0  0  0  0  0  2  0  0  0  0  0  0
  182.7270  178.8740  142.0000 C   0  0  0  0  0  2  0  0  0  0  0  0
  183.9540  177.9580  142.0660 C   0  0  0  0  0  2  0  0  0  0  0  0
  183.1120  178.8060  144.4990 C   0  0  0  0  0  2  0  0  0  0  0  0
  184.5670  178.9570  144.3380 N   0  0  1  0  0  0  0  0  0  0  0  0
  185.2090  178.1930  145.4110 C   0  0  0  0  0  3  0  0  0  0  0  0
  185.7730  179.1510  146.4470 C   0  0  0  0  0  2  0  0  0  0  0  0
  184.4830  178.4210  146.7260 C   0  0  0  0  0  2  0  0  0  0  0  0
  187.6660  170.3350  134.8030 C   0  0  0  0  0  0  0  0  0  0  0  0
  186.5930  169.4030  134.8560 N   0  0  0  0  0  1  0  0  0  0  0  0
  188.8040  169.9510  134.4360 O   0  0  0  0  0  0  0  0  0  0  0  0
  1 12  1  0  0  0  0
  2 23  1  0  0  0  0
  2  9  1  0  0  0  0
  3  1  2  0  0  0  0
  3 23  1  0  0  0  0
  4  1  1  0  0  0  0
  5 38  1  0  0  0  0
  5 17  2  0  0  0  0
  6 17  1  0  0  0  0
  7 18  1  0  0  0  0
  8 13  1  0  0  0  0
  8  3  1  0  0  0  0
  9  7  2  0  0  0  0
 10  9  1  0  0  0  0
 11 21  1  0  0  0  0
 12 15  1  0  0  0  0
 12 14  2  0  0  0  0
 14  5  1  0  0  0  0
 16 14  1  0  0  0  0
 16 18  1  0  0  0  0
 18  6  2  0  0  0  0
 19 11  2  0  0  0  0
 19 25  1  0  0  0  0
 20 24  2  0  0  0  0
 20 11  1  0  0  0  0
 21  4  1  0  0  0  0
 22 24  1  6  0  0  0
 22 21  1  0  0  0  0
 22 13  1  0  0  0  0
 23 16  2  0  0  0  0
 25  4  2  0  0  0  0
 26 35  1  1  0  0  0
 26 29  1  0  0  0  0
 27 31  1  0  0  0  0
 27 26  1  0  0  0  0
 28 29  1  0  0  0  0
 28 10  1  1  0  0  0
 30 28  1  0  0  0  0
 31 30  1  0  0  0  0
 32 35  1  0  0  0  0
 34 35  1  0  0  0  0
 35 33  1  0  0  0  0
 36 37  1  0  0  0  0
 36 39  2  0  0  0  0
 37 40  1  0  0  0  0
 38 36  1  0  0  0  0
 41 40  1  1  0  0  0
 41 46  1  0  0  0  0
 42 45  1  0  0  0  0
 43 44  1  0  0  0  0
 43 42  1  0  0  0  0
 44 41  1  0  0  0  0
 46 45  1  0  0  0  0
 46 47  1  1  0  0  0
 47 48  1  0  0  0  0
 47 49  1  0  0  0  0
 48 49  1  0  0  0  0
 50 51  1  0  0  0  0
 50 24  1  0  0  0  0
 52 50  2  0  0  0  0
M  END
>  <MODEL>
7

>  <REMARK>
 VINA RESULT:      -6.8      4.235      8.944
  Name = 
  7 active torsions:
  status: ('A' for Active; 'I' for Inactive)
    1  A    between atoms: C_5  and  C_29
    2  A    between atoms: C_6  and  N_45
    3  A    between atoms: C_9  and  C_28
    4  A    between atoms: N_10  and  C_28
    5  A    between atoms: C_12  and  N_23
    6  A    between atoms: C_13  and  C_51
    7  A    between atoms: C_14  and  N_24
                            x       y       z     vdW  Elec       q    Type
                         _______ _______ _______ _____ _____    ______ ____

>  <TORSDO>
F 7

$$$$
=
 OpenBabel10232409253D

 52 60  0  0  1  0  0  0  0  0999 V2000
  187.4620  174.8050  136.6120 C   0  0  0  0  0  0  0  0  0  0  0  0
  191.0510  174.1040  137.1880 O   0  0  0  0  0  0  0  0  0  0  0  0
  188.6920  174.0980  136.6810 C   0  0  0  0  0  0  0  0  0  0  0  0
  186.3350  174.2740  135.8120 C   0  0  0  0  0  0  0  0  0  0  0  0
  188.2360  177.6890  138.8970 C   0  0  0  0  0  0  0  0  0  0  0  0
  190.6170  177.6510  139.3800 C   0  0  0  0  0  3  0  0  0  0  0  0
  192.1470  175.9040  138.5420 C   0  0  0  0  0  3  0  0  0  0  0  0
  188.9510  172.8070  135.9320 C   0  0  0  0  0  2  0  0  0  0  0  0
  192.2160  174.7320  137.6240 C   0  0  0  0  0  0  0  0  0  0  0  0
  193.3760  174.3020  137.2450 N   0  0  0  0  0  2  0  0  0  0  0  0
  185.0940  172.8510  134.8360 C   0  0  0  0  0  0  0  0  0  0  0  0
  187.2980  175.9990  137.3410 C   0  0  0  0  0  0  0  0  0  0  0  0
  188.0220  171.7180  136.2460 N   0  0  0  0  0  2  0  0  0  0  0  0
  188.3790  176.5450  138.0750 C   0  0  0  0  0  0  0  0  0  0  0  0
  186.0560  176.6300  137.3320 O   0  0  0  0  0  1  0  0  0  0  0  0
  189.6520  175.9200  137.9800 C   0  0  0  0  0  0  0  0  0  0  0  0
  189.3620  178.2280  139.5290 C   0  0  0  0  0  3  0  0  0  0  0  0
  190.7730  176.5060  138.6030 C   0  0  0  0  0  0  0  0  0  0  0  0
  184.6250  174.0140  134.3470 N   0  0  0  0  0  0  0  0  0  0  0  0
  184.9450  171.5950  134.3720 N   0  0  0  0  0  0  0  0  0  0  0  0
  186.0670  172.9920  135.6830 N   0  0  0  0  0  0  0  0  0  0  0  0
  186.6500  171.8260  135.8720 C   0  0  1  0  0  3  0  0  0  0  0  0
  189.7950  174.7040  137.2950 C   0  0  0  0  0  0  0  0  0  0  0  0
  185.9300  170.9370  135.0650 C   0  0  0  0  0  0  0  0  0  0  0  0
  185.4100  174.9380  134.9930 C   0  0  0  0  0  3  0  0  0  0  0  0
  193.9230  171.0020  136.0710 C   0  0  2  0  0  3  0  0  0  0  0  0
  194.2630  171.2200  134.5720 C   0  0  0  0  0  2  0  0  0  0  0  0
  193.5320  173.2220  136.2760 C   0  0  2  0  0  3  0  0  0  0  0  0
  194.2100  172.1390  136.8690 O   0  0  0  0  0  0  0  0  0  0  0  0
  194.3370  173.7090  135.0650 C   0  0  0  0  0  2  0  0  0  0  0  0
  195.0190  172.5330  134.3460 C   0  0  0  0  0  2  0  0  0  0  0  0
  193.5980  168.6760  136.9820 C   0  0  0  0  0  1  0  0  0  0  0  0
  195.6420  169.1980  135.6790 C   0  0  0  0  0  1  0  0  0  0  0  0
  195.3250  170.1330  137.9430 C   0  0  0  0  0  1  0  0  0  0  0  0
  194.6170  169.7570  136.6560 C   0  0  0  0  0  0  0  0  0  0  0  0
  186.4630  178.5630  140.5030 C   0  0  0  0  0  0  0  0  0  0  0  0
  185.1000  178.9540  140.6760 N   0  0  0  0  0  2  0  0  0  0  0  0
  186.9380  178.2290  139.1910 N   0  0  0  0  0  2  0  0  0  0  0  0
  187.2210  178.4720  141.5090 O   0  0  0  0  0  0  0  0  0  0  0  0
  184.5310  179.1540  142.0010 C   0  0  0  0  0  2  0  0  0  0  0  0
  183.0770  178.6560  142.0820 C   0  0  1  0  0  3  0  0  0  0  0  0
  180.2690  178.2030  142.1390 C   0  0  0  0  0  2  0  0  0  0  0  0
  180.9870  178.4280  143.4740 C   0  0  0  0  0  2  0  0  0  0  0  0
  182.3220  179.1650  143.3180 C   0  0  0  0  0  2  0  0  0  0  0  0
  180.8840  179.0470  141.0240 C   0  0  0  0  0  2  0  0  0  0  0  0
  182.2900  178.6730  140.8090 N   0  0  1  0  0  0  0  0  0  0  0  0
  182.8370  179.5840  139.8000 C   0  0  0  0  0  3  0  0  0  0  0  0
  182.7440  178.9330  138.4290 C   0  0  0  0  0  2  0  0  0  0  0  0
  181.7500  179.9980  138.8220 C   0  0  0  0  0  2  0  0  0  0  0  0
  186.2370  169.5160  134.8680 C   0  0  0  0  0  0  0  0  0  0  0  0
  185.2120  168.6050  134.4880 N   0  0  0  0  0  1  0  0  0  0  0  0
  187.3970  169.0900  135.0870 O   0  0  0  0  0  0  0  0  0  0  0  0
  1  3  2  0  0  0  0
  1 12  1  0  0  0  0
  2 23  1  0  0  0  0
  2  9  1  0  0  0  0
  3 23  1  0  0  0  0
  4  1  1  0  0  0  0
  5 38  1  0  0  0  0
  5 17  2  0  0  0  0
  6 17  1  0  0  0  0
  7 18  1  0  0  0  0
  8 13  1  0  0  0  0
  8  3  1  0  0  0  0
  9  7  2  0  0  0  0
 10  9  1  0  0  0  0
 11 21  1  0  0  0  0
 12 14  2  0  0  0  0
 14  5  1  0  0  0  0
 15 12  1  0  0  0  0
 16 14  1  0  0  0  0
 16 18  1  0  0  0  0
 18  6  2  0  0  0  0
 19 11  2  0  0  0  0
 19 25  1  0  0  0  0
 20 11  1  0  0  0  0
 20 24  2  0  0  0  0
 21  4  1  0  0  0  0
 21 22  1  0  0  0  0
 22 24  1  6  0  0  0
 22 13  1  0  0  0  0
 23 16  2  0  0  0  0
 25  4  2  0  0  0  0
 26 35  1  1  0  0  0
 26 29  1  0  0  0  0
 27 26  1  0  0  0  0
 28 29  1  0  0  0  0
 28 10  1  1  0  0  0
 30 28  1  0  0  0  0
 31 27  1  0  0  0  0
 31 30  1  0  0  0  0
 33 35  1  0  0  0  0
 35 32  1  0  0  0  0
 35 34  1  0  0  0  0
 36 37  1  0  0  0  0
 36 39  2  0  0  0  0
 37 40  1  0  0  0  0
 38 36  1  0  0  0  0
 41 40  1  6  0  0  0
 41 44  1  0  0  0  0
 42 43  1  0  0  0  0
 44 43  1  0  0  0  0
 45 42  1  0  0  0  0
 46 47  1  6  0  0  0
 46 45  1  0  0  0  0
 46 41  1  0  0  0  0
 48 49  1  0  0  0  0
 48 47  1  0  0  0  0
 49 47  1  0  0  0  0
 50 24  1  0  0  0  0
 50 52  2  0  0  0  0
 51 50  1  0  0  0  0
M  END
>  <MODEL>
8

>  <REMARK>
 VINA RESULT:      -6.3      4.003      8.206
  Name = 
  7 active torsions:
  status: ('A' for Active; 'I' for Inactive)
    1  A    between atoms: C_5  and  C_29
    2  A    between atoms: C_6  and  N_45
    3  A    between atoms: C_9  and  C_28
    4  A    between atoms: N_10  and  C_28
    5  A    between atoms: C_12  and  N_23
    6  A    between atoms: C_13  and  C_51
    7  A    between atoms: C_14  and  N_24
                            x       y       z     vdW  Elec       q    Type
                         _______ _______ _______ _____ _____    ______ ____

>  <TORSDO>
F 7

$$$$
