=
 OpenBabel10232411523D

 31 33  0  0  1  0  0  0  0  0999 V2000
  184.9020  179.0420  143.3850 C   0  0  0  0  0  2  0  0  0  0  0  0
  184.1330  178.1610  142.4050 C   0  0  0  0  0  2  0  0  0  0  0  0
  182.7330  178.7070  142.1610 C   0  0  0  0  0  2  0  0  0  0  0  0
  182.3060  178.5800  140.6880 C   0  0  0  0  0  2  0  0  0  0  0  0
  182.9870  177.5210  139.9220 N   0  0  0  0  0  0  0  0  0  0  0  0
  182.0160  176.4890  139.5880 C   0  0  0  0  0  1  0  0  0  0  0  0
  185.0480  178.2810  138.8640 C   0  0  1  0  0  3  0  0  0  0  0  0
  184.0780  179.4420  138.8840 C   0  0  0  0  0  2  0  0  0  0  0  0
  183.5620  178.0300  138.6770 C   0  0  2  0  0  3  0  0  0  0  0  0
  187.9050  177.6360  138.5370 N   0  0  0  0  0  2  0  0  0  0  0  0
  187.5660  177.8510  136.2340 O   0  0  0  0  0  0  0  0  0  0  0  0
  187.0800  177.8930  137.3960 C   0  0  0  0  0  0  0  0  0  0  0  0
  185.6940  178.1970  137.5640 N   0  0  0  0  0  2  0  0  0  0  0  0
  190.0120  177.5950  139.7560 C   0  0  0  0  0  1  0  0  0  0  0  0
  189.3260  177.3370  138.4270 C   0  0  1  0  0  3  0  0  0  0  0  0
  189.4900  175.9980  138.0770 O   0  0  0  0  0  1  0  0  0  0  0  0
  185.2960  178.2780  144.6430 C   0  0  2  0  0  3  0  0  0  0  0  0
  185.6150  178.5450  147.1040 C   0  0  0  0  0  1  0  0  0  0  0  0
  185.6630  179.2440  145.7610 C   0  0  0  0  0  2  0  0  0  0  0  0
  186.4050  177.3720  144.3620 N   0  0  0  0  0  0  0  0  0  0  0  0
  187.4540  177.7690  143.7580 N   0  0  0  0  0  0  0  0  0  0  0  0
  188.5360  176.8760  143.4880 C   0  0  0  0  0  0  0  0  0  0  0  0
  188.2830  175.6890  143.1510 O   0  0  0  0  0  0  0  0  0  0  0  0
  191.7050  175.9770  144.1500 N   0  0  0  0  0  0  0  0  0  0  0  0
  191.6430  176.2580  146.9740 S   0  0  0  0  0  0  0  0  0  0  0  0
  189.9300  176.8170  147.3130 C   0  0  0  0  0  2  0  0  0  0  0  0
  191.3830  176.7430  145.2860 C   0  0  2  0  0  3  0  0  0  0  0  0
  189.5230  177.8210  146.2330 C   0  0  0  0  0  2  0  0  0  0  0  0
  190.3680  177.5050  145.0550 C   0  0  2  0  0  3  0  0  0  0  0  0
  189.9600  177.3390  143.6260 C   0  0  1  0  0  3  0  0  0  0  0  0
  190.8950  176.3490  143.0630 N   0  0  0  0  0  0  0  0  0  0  0  0
  2  1  1  0  0  0  0
  3  2  1  0  0  0  0
  4  3  1  0  0  0  0
  5  4  1  0  0  0  0
  6  5  1  0  0  0  0
  7 13  1  6  0  0  0
  7  8  1  0  0  0  0
  9  7  1  0  0  0  0
  9  8  1  0  0  0  0
  9  5  1  1  0  0  0
 11 12  2  0  0  0  0
 12 13  1  0  0  0  0
 12 10  1  0  0  0  0
 15 10  1  0  0  0  0
 15 14  1  1  0  0  0
 16 15  1  0  0  0  0
 17  1  1  6  0  0  0
 17 19  1  0  0  0  0
 19 18  1  0  0  0  0
 20 17  1  0  0  0  0
 21 20  2  0  0  0  0
 22 21  1  0  0  0  0
 23 22  2  0  0  0  0
 25 26  1  0  0  0  0
 27 24  1  6  0  0  0
 27 25  1  0  0  0  0
 28 26  1  0  0  0  0
 29 27  1  0  0  0  0
 29 28  1  1  0  0  0
 30 22  1  1  0  0  0
 30 29  1  0  0  0  0
 31 30  1  0  0  0  0
 31 24  2  0  0  0  0
M  END
>  <MODEL>
1

>  <REMARK>
 VINA RESULT:      -7.0      0.000      0.000
  Name = 
  12 active torsions:
  status: ('A' for Active; 'I' for Inactive)
    1  A    between atoms: C_3  and  N_28
    2  A    between atoms: C_7  and  C_13
    3  A    between atoms: C_7  and  C_29
    4  A    between atoms: N_9  and  C_25
    5  A    between atoms: C_10  and  N_12
    6  A    between atoms: C_10  and  C_26
    7  A    between atoms: C_13  and  C_15
    8  A    between atoms: N_14  and  C_24
    9  A    between atoms: C_15  and  N_16
   10  A    between atoms: N_16  and  C_27
   11  A    between atoms: C_18  and  C_25
   12  A    between atoms: C_25  and  C_29
                            x       y       z     vdW  Elec       q    Type
                         _______ _______ _______ _____ _____    ______ ____

>  <TORSDO>
F 12

$$$$
=
 OpenBabel10232411523D

 31 33  0  0  1  0  0  0  0  0999 V2000
  185.1220  178.4300  144.0280 C   0  0  0  0  0  2  0  0  0  0  0  0
  185.3990  179.1360  145.3510 C   0  0  0  0  0  2  0  0  0  0  0  0
  186.0370  178.1860  146.3560 C   0  0  0  0  0  2  0  0  0  0  0  0
  187.0040  177.1950  145.6870 C   0  0  0  0  0  2  0  0  0  0  0  0
  188.3200  177.7460  145.3200 N   0  0  0  0  0  0  0  0  0  0  0  0
  189.1480  177.8130  146.5150 C   0  0  0  0  0  1  0  0  0  0  0  0
  188.9910  177.6020  142.9790 C   0  0  1  0  0  3  0  0  0  0  0  0
  188.0290  176.4680  143.2600 C   0  0  0  0  0  2  0  0  0  0  0  0
  189.0060  176.9120  144.3330 C   0  0  2  0  0  3  0  0  0  0  0  0
  189.1780  177.9210  140.0560 N   0  0  0  0  0  2  0  0  0  0  0  0
  191.2220  176.7950  140.1850 O   0  0  0  0  0  0  0  0  0  0  0  0
  190.2150  177.2570  140.7850 C   0  0  0  0  0  0  0  0  0  0  0  0
  190.1190  177.1140  142.2040 N   0  0  0  0  0  2  0  0  0  0  0  0
  188.2100  177.1470  137.9600 C   0  0  0  0  0  1  0  0  0  0  0  0
  189.2140  178.0820  138.6090 C   0  0  1  0  0  3  0  0  0  0  0  0
  188.8950  179.3980  138.2830 O   0  0  0  0  0  1  0  0  0  0  0  0
  184.0190  179.1230  143.2370 C   0  0  2  0  0  3  0  0  0  0  0  0
  181.5460  179.1050  142.9040 C   0  0  0  0  0  1  0  0  0  0  0  0
  182.6670  178.9040  143.9020 C   0  0  0  0  0  2  0  0  0  0  0  0
  183.9990  178.6400  141.8600 N   0  0  0  0  0  0  0  0  0  0  0  0
  184.5580  179.2880  140.9170 N   0  0  0  0  0  0  0  0  0  0  0  0
  184.5350  178.8060  139.5720 C   0  0  0  0  0  0  0  0  0  0  0  0
  185.3850  179.2410  138.7490 O   0  0  0  0  0  0  0  0  0  0  0  0
  183.0950  177.2430  136.9690 N   0  0  0  0  0  0  0  0  0  0  0  0
  181.0860  179.1620  136.3840 S   0  0  0  0  0  0  0  0  0  0  0  0
  181.3590  180.4670  137.6410 C   0  0  0  0  0  2  0  0  0  0  0  0
  182.0550  178.0830  137.4090 C   0  0  2  0  0  3  0  0  0  0  0  0
  181.6960  179.7970  138.9740 C   0  0  0  0  0  2  0  0  0  0  0  0
  182.2570  178.4690  138.6230 C   0  0  2  0  0  3  0  0  0  0  0  0
  183.4970  177.8100  139.1360 C   0  0  1  0  0  3  0  0  0  0  0  0
  183.9930  176.9840  138.0200 N   0  0  0  0  0  0  0  0  0  0  0  0
  1  2  1  0  0  0  0
  2  3  1  0  0  0  0
  4  3  1  0  0  0  0
  5  4  1  0  0  0  0
  5  6  1  0  0  0  0
  7 13  1  6  0  0  0
  7  8  1  0  0  0  0
  7  9  1  0  0  0  0
  8  9  1  0  0  0  0
  9  5  1  1  0  0  0
 10 12  1  0  0  0  0
 11 12  2  0  0  0  0
 12 13  1  0  0  0  0
 15 14  1  6  0  0  0
 15 10  1  0  0  0  0
 16 15  1  0  0  0  0
 17 19  1  1  0  0  0
 17  1  1  0  0  0  0
 18 19  1  0  0  0  0
 20 17  1  0  0  0  0
 21 20  2  0  0  0  0
 22 21  1  0  0  0  0
 23 22  2  0  0  0  0
 24 27  1  0  0  0  0
 24 31  2  0  0  0  0
 25 26  1  0  0  0  0
 26 28  1  0  0  0  0
 27 25  1  6  0  0  0
 27 29  1  0  0  0  0
 29 28  1  6  0  0  0
 29 30  1  0  0  0  0
 30 22  1  6  0  0  0
 31 30  1  0  0  0  0
M  END
>  <MODEL>
2

>  <REMARK>
 VINA RESULT:      -6.9      3.294      7.441
  Name = 
  12 active torsions:
  status: ('A' for Active; 'I' for Inactive)
    1  A    between atoms: C_3  and  N_28
    2  A    between atoms: C_7  and  C_13
    3  A    between atoms: C_7  and  C_29
    4  A    between atoms: N_9  and  C_25
    5  A    between atoms: C_10  and  N_12
    6  A    between atoms: C_10  and  C_26
    7  A    between atoms: C_13  and  C_15
    8  A    between atoms: N_14  and  C_24
    9  A    between atoms: C_15  and  N_16
   10  A    between atoms: N_16  and  C_27
   11  A    between atoms: C_18  and  C_25
   12  A    between atoms: C_25  and  C_29
                            x       y       z     vdW  Elec       q    Type
                         _______ _______ _______ _____ _____    ______ ____

>  <TORSDO>
F 12

$$$$
=
 OpenBabel10232411523D

 31 33  0  0  1  0  0  0  0  0999 V2000
  186.8790  177.6530  146.5290 C   0  0  0  0  0  2  0  0  0  0  0  0
  186.4310  178.0020  145.1130 C   0  0  0  0  0  2  0  0  0  0  0  0
  185.0320  178.6060  145.1160 C   0  0  0  0  0  2  0  0  0  0  0  0
  184.6340  179.1590  143.7370 C   0  0  0  0  0  2  0  0  0  0  0  0
  183.4610  178.5210  143.1150 N   0  0  0  0  0  0  0  0  0  0  0  0
  182.2770  178.8640  143.8890 C   0  0  0  0  0  1  0  0  0  0  0  0
  183.6560  177.8750  140.7710 C   0  0  1  0  0  3  0  0  0  0  0  0
  184.5870  179.0430  141.0130 C   0  0  0  0  0  2  0  0  0  0  0  0
  183.2560  178.9750  141.7390 C   0  0  2  0  0  3  0  0  0  0  0  0
  184.8490  177.3760  138.1230 N   0  0  0  0  0  2  0  0  0  0  0  0
  182.8040  178.0440  137.2100 O   0  0  0  0  0  0  0  0  0  0  0  0
  183.4990  177.8390  138.2400 C   0  0  0  0  0  0  0  0  0  0  0  0
  182.9270  178.0700  139.5290 N   0  0  0  0  0  2  0  0  0  0  0  0
  186.7010  178.0400  136.6880 C   0  0  0  0  0  1  0  0  0  0  0  0
  185.4890  177.1390  136.8360 C   0  0  1  0  0  3  0  0  0  0  0  0
  185.8930  175.8070  136.7610 O   0  0  0  0  0  1  0  0  0  0  0  0
  188.2590  177.0040  146.5410 C   0  0  2  0  0  3  0  0  0  0  0  0
  188.2200  178.3360  148.6520 C   0  0  0  0  0  1  0  0  0  0  0  0
  189.0890  177.5400  147.7000 C   0  0  0  0  0  2  0  0  0  0  0  0
  188.9400  177.2340  145.2720 N   0  0  0  0  0  0  0  0  0  0  0  0
  189.8660  178.1020  145.1590 N   0  0  0  0  0  0  0  0  0  0  0  0
  190.5300  178.3190  143.9130 C   0  0  0  0  0  0  0  0  0  0  0  0
  190.9020  179.4840  143.6100 O   0  0  0  0  0  0  0  0  0  0  0  0
  191.7910  177.3790  140.9430 N   0  0  0  0  0  0  0  0  0  0  0  0
  189.5020  177.8730  139.3370 S   0  0  0  0  0  0  0  0  0  0  0  0
  188.2600  178.4910  140.5370 C   0  0  0  0  0  2  0  0  0  0  0  0
  190.4080  177.2340  140.7250 C   0  0  2  0  0  3  0  0  0  0  0  0
  188.3790  177.6740  141.8250 C   0  0  0  0  0  2  0  0  0  0  0  0
  189.7700  177.1580  141.8440 C   0  0  2  0  0  3  0  0  0  0  0  0
  190.7620  177.1770  142.9620 C   0  0  1  0  0  3  0  0  0  0  0  0
  192.0810  177.2880  142.3160 N   0  0  0  0  0  0  0  0  0  0  0  0
  2  3  1  0  0  0  0
  2  1  1  0  0  0  0
  4  3  1  0  0  0  0
  5  4  1  0  0  0  0
  5  6  1  0  0  0  0
  7 13  1  6  0  0  0
  7  8  1  0  0  0  0
  7  9  1  0  0  0  0
  8  9  1  0  0  0  0
  9  5  1  1  0  0  0
 10 12  1  0  0  0  0
 11 12  2  0  0  0  0
 12 13  1  0  0  0  0
 15 14  1  1  0  0  0
 15 10  1  0  0  0  0
 16 15  1  0  0  0  0
 17  1  1  6  0  0  0
 17 19  1  0  0  0  0
 19 18  1  0  0  0  0
 20 17  1  0  0  0  0
 21 20  2  0  0  0  0
 22 21  1  0  0  0  0
 23 22  2  0  0  0  0
 24 31  2  0  0  0  0
 25 26  1  0  0  0  0
 26 28  1  0  0  0  0
 27 25  1  1  0  0  0
 27 24  1  0  0  0  0
 27 29  1  0  0  0  0
 29 28  1  1  0  0  0
 29 30  1  0  0  0  0
 30 22  1  1  0  0  0
 31 30  1  0  0  0  0
M  END
>  <MODEL>
3

>  <REMARK>
 VINA RESULT:      -6.9      2.522      4.001
  Name = 
  12 active torsions:
  status: ('A' for Active; 'I' for Inactive)
    1  A    between atoms: C_3  and  N_28
    2  A    between atoms: C_7  and  C_13
    3  A    between atoms: C_7  and  C_29
    4  A    between atoms: N_9  and  C_25
    5  A    between atoms: C_10  and  N_12
    6  A    between atoms: C_10  and  C_26
    7  A    between atoms: C_13  and  C_15
    8  A    between atoms: N_14  and  C_24
    9  A    between atoms: C_15  and  N_16
   10  A    between atoms: N_16  and  C_27
   11  A    between atoms: C_18  and  C_25
   12  A    between atoms: C_25  and  C_29
                            x       y       z     vdW  Elec       q    Type
                         _______ _______ _______ _____ _____    ______ ____

>  <TORSDO>
F 12

$$$$
=
 OpenBabel10232411523D

 31 33  0  0  1  0  0  0  0  0999 V2000
  184.8340  178.3430  143.8480 C   0  0  0  0  0  2  0  0  0  0  0  0
  185.2400  179.1960  145.0450 C   0  0  0  0  0  2  0  0  0  0  0  0
  185.6270  178.3240  146.2320 C   0  0  0  0  0  2  0  0  0  0  0  0
  186.6920  177.2770  145.8630 C   0  0  0  0  0  2  0  0  0  0  0  0
  188.0630  177.7960  145.7130 N   0  0  0  0  0  0  0  0  0  0  0  0
  188.7220  177.7550  147.0090 C   0  0  0  0  0  1  0  0  0  0  0  0
  188.9580  177.7280  143.4450 C   0  0  1  0  0  3  0  0  0  0  0  0
  187.9850  176.5800  143.5970 C   0  0  0  0  0  2  0  0  0  0  0  0
  188.8490  176.9970  144.7720 C   0  0  2  0  0  3  0  0  0  0  0  0
  189.3170  177.9110  140.5260 N   0  0  0  0  0  2  0  0  0  0  0  0
  191.4100  176.9200  140.8420 O   0  0  0  0  0  0  0  0  0  0  0  0
  190.3410  177.3490  141.3530 C   0  0  0  0  0  0  0  0  0  0  0  0
  190.1610  177.2720  142.7690 N   0  0  0  0  0  2  0  0  0  0  0  0
  188.6510  176.8810  138.4220 C   0  0  0  0  0  1  0  0  0  0  0  0
  189.4390  178.0010  139.0780 C   0  0  1  0  0  3  0  0  0  0  0  0
  188.9380  179.2280  138.6480 O   0  0  0  0  0  1  0  0  0  0  0  0
  183.7500  179.0170  143.0150 C   0  0  2  0  0  3  0  0  0  0  0  0
  181.3030  179.0000  142.5220 C   0  0  0  0  0  1  0  0  0  0  0  0
  182.3690  178.6520  143.5410 C   0  0  0  0  0  2  0  0  0  0  0  0
  183.8800  178.6430  141.6110 N   0  0  0  0  0  0  0  0  0  0  0  0
  184.4770  179.3930  140.7720 N   0  0  0  0  0  0  0  0  0  0  0  0
  184.6020  179.0180  139.3990 C   0  0  0  0  0  0  0  0  0  0  0  0
  185.7160  178.6120  138.9720 O   0  0  0  0  0  0  0  0  0  0  0  0
  181.2940  179.5470  139.1410 N   0  0  0  0  0  0  0  0  0  0  0  0
  180.4110  176.8690  139.4770 S   0  0  0  0  0  0  0  0  0  0  0  0
  181.9690  175.9270  139.6900 C   0  0  0  0  0  2  0  0  0  0  0  0
  181.3920  178.1850  138.8000 C   0  0  2  0  0  3  0  0  0  0  0  0
  183.0120  176.4860  138.7210 C   0  0  0  0  0  2  0  0  0  0  0  0
  182.5970  177.8840  138.4500 C   0  0  2  0  0  3  0  0  0  0  0  0
  183.4260  179.1280  138.4680 C   0  0  1  0  0  3  0  0  0  0  0  0
  182.5130  180.2030  138.8950 N   0  0  0  0  0  0  0  0  0  0  0  0
  1  2  1  0  0  0  0
  2  3  1  0  0  0  0
  4  3  1  0  0  0  0
  5  4  1  0  0  0  0
  5  6  1  0  0  0  0
  7 13  1  6  0  0  0
  7  8  1  0  0  0  0
  7  9  1  0  0  0  0
  8  9  1  0  0  0  0
  9  5  1  1  0  0  0
 10 12  1  0  0  0  0
 11 12  2  0  0  0  0
 12 13  1  0  0  0  0
 15 14  1  6  0  0  0
 15 10  1  0  0  0  0
 16 15  1  0  0  0  0
 17 19  1  1  0  0  0
 17  1  1  0  0  0  0
 18 19  1  0  0  0  0
 20 17  1  0  0  0  0
 21 20  2  0  0  0  0
 22 21  1  0  0  0  0
 23 22  2  0  0  0  0
 25 26  1  0  0  0  0
 27 24  1  1  0  0  0
 27 25  1  0  0  0  0
 28 26  1  0  0  0  0
 29 30  1  0  0  0  0
 29 28  1  1  0  0  0
 29 27  1  0  0  0  0
 30 31  1  0  0  0  0
 30 22  1  1  0  0  0
 31 24  2  0  0  0  0
M  END
>  <MODEL>
4

>  <REMARK>
 VINA RESULT:      -6.8      3.086      7.334
  Name = 
  12 active torsions:
  status: ('A' for Active; 'I' for Inactive)
    1  A    between atoms: C_3  and  N_28
    2  A    between atoms: C_7  and  C_13
    3  A    between atoms: C_7  and  C_29
    4  A    between atoms: N_9  and  C_25
    5  A    between atoms: C_10  and  N_12
    6  A    between atoms: C_10  and  C_26
    7  A    between atoms: C_13  and  C_15
    8  A    between atoms: N_14  and  C_24
    9  A    between atoms: C_15  and  N_16
   10  A    between atoms: N_16  and  C_27
   11  A    between atoms: C_18  and  C_25
   12  A    between atoms: C_25  and  C_29
                            x       y       z     vdW  Elec       q    Type
                         _______ _______ _______ _____ _____    ______ ____

>  <TORSDO>
F 12

$$$$
=
 OpenBabel10232411523D

 31 33  0  0  1  0  0  0  0  0999 V2000
  188.0960  178.7580  141.5340 C   0  0  0  0  0  2  0  0  0  0  0  0
  186.8280  178.6890  140.6880 C   0  0  0  0  0  2  0  0  0  0  0  0
  185.6120  179.1400  141.4880 C   0  0  0  0  0  2  0  0  0  0  0  0
  185.4000  178.2920  142.7530 C   0  0  0  0  0  2  0  0  0  0  0  0
  185.2510  179.0530  144.0070 N   0  0  0  0  0  0  0  0  0  0  0  0
  183.8810  179.5360  144.0990 C   0  0  0  0  0  1  0  0  0  0  0  0
  186.9760  178.4050  145.6050 C   0  0  1  0  0  3  0  0  0  0  0  0
  186.5570  177.1670  144.8420 C   0  0  0  0  0  2  0  0  0  0  0  0
  185.5270  178.2280  145.1830 C   0  0  2  0  0  3  0  0  0  0  0  0
  189.4190  177.3000  146.8270 N   0  0  0  0  0  2  0  0  0  0  0  0
  188.2630  177.3130  148.8590 O   0  0  0  0  0  0  0  0  0  0  0  0
  188.2580  177.5590  147.6230 C   0  0  0  0  0  0  0  0  0  0  0  0
  187.0800  178.1020  147.0230 N   0  0  0  0  0  2  0  0  0  0  0  0
  191.6060  176.3910  146.2610 C   0  0  0  0  0  1  0  0  0  0  0  0
  190.6410  176.7340  147.3810 C   0  0  1  0  0  3  0  0  0  0  0  0
  191.2360  177.6620  148.2330 O   0  0  0  0  0  1  0  0  0  0  0  0
  188.9230  177.4820  141.4180 C   0  0  2  0  0  3  0  0  0  0  0  0
  190.0970  178.2650  143.4760 C   0  0  0  0  0  1  0  0  0  0  0  0
  190.2730  177.6580  142.0990 C   0  0  0  0  0  2  0  0  0  0  0  0
  189.0990  177.1150  140.0170 N   0  0  0  0  0  0  0  0  0  0  0  0
  189.9900  177.6640  139.2900 N   0  0  0  0  0  0  0  0  0  0  0  0
  190.1570  177.2980  137.9190 C   0  0  0  0  0  0  0  0  0  0  0  0
  190.9750  176.3870  137.6220 O   0  0  0  0  0  0  0  0  0  0  0  0
  187.4580  179.1630  137.1940 N   0  0  0  0  0  0  0  0  0  0  0  0
  185.6000  177.0620  136.7480 S   0  0  0  0  0  0  0  0  0  0  0  0
  186.5940  175.5450  137.0200 C   0  0  0  0  0  2  0  0  0  0  0  0
  187.1340  177.9400  136.5760 C   0  0  2  0  0  3  0  0  0  0  0  0
  187.9800  175.7550  136.4080 C   0  0  0  0  0  2  0  0  0  0  0  0
  188.1910  177.2240  136.3910 C   0  0  2  0  0  3  0  0  0  0  0  0
  189.3840  178.0050  136.8400 C   0  0  1  0  0  3  0  0  0  0  0  0
  188.8510  179.2890  137.3270 N   0  0  0  0  0  0  0  0  0  0  0  0
  2  3  1  0  0  0  0
  2  1  1  0  0  0  0
  3  4  1  0  0  0  0
  4  5  1  0  0  0  0
  5  6  1  0  0  0  0
  7 13  1  1  0  0  0
  8  9  1  0  0  0  0
  8  7  1  0  0  0  0
  9  5  1  6  0  0  0
  9  7  1  0  0  0  0
 10 15  1  0  0  0  0
 10 12  1  0  0  0  0
 12 11  2  0  0  0  0
 13 12  1  0  0  0  0
 15 14  1  6  0  0  0
 15 16  1  0  0  0  0
 17  1  1  6  0  0  0
 17 19  1  0  0  0  0
 19 18  1  0  0  0  0
 20 17  1  0  0  0  0
 21 20  2  0  0  0  0
 22 21  1  0  0  0  0
 23 22  2  0  0  0  0
 24 31  2  0  0  0  0
 25 26  1  0  0  0  0
 27 25  1  1  0  0  0
 27 24  1  0  0  0  0
 28 26  1  0  0  0  0
 29 28  1  1  0  0  0
 29 27  1  0  0  0  0
 29 30  1  0  0  0  0
 30 31  1  0  0  0  0
 30 22  1  1  0  0  0
M  END
>  <MODEL>
5

>  <REMARK>
 VINA RESULT:      -6.7      3.423      7.705
  Name = 
  12 active torsions:
  status: ('A' for Active; 'I' for Inactive)
    1  A    between atoms: C_3  and  N_28
    2  A    between atoms: C_7  and  C_13
    3  A    between atoms: C_7  and  C_29
    4  A    between atoms: N_9  and  C_25
    5  A    between atoms: C_10  and  N_12
    6  A    between atoms: C_10  and  C_26
    7  A    between atoms: C_13  and  C_15
    8  A    between atoms: N_14  and  C_24
    9  A    between atoms: C_15  and  N_16
   10  A    between atoms: N_16  and  C_27
   11  A    between atoms: C_18  and  C_25
   12  A    between atoms: C_25  and  C_29
                            x       y       z     vdW  Elec       q    Type
                         _______ _______ _______ _____ _____    ______ ____

>  <TORSDO>
F 12

$$$$
=
 OpenBabel10232411523D

 31 33  0  0  1  0  0  0  0  0999 V2000
  186.9300  178.5370  146.6770 C   0  0  0  0  0  2  0  0  0  0  0  0
  185.4790  178.1700  146.3850 C   0  0  0  0  0  2  0  0  0  0  0  0
  184.7980  179.2510  145.5550 C   0  0  0  0  0  2  0  0  0  0  0  0
  183.3710  178.8550  145.1390 C   0  0  0  0  0  2  0  0  0  0  0  0
  183.2160  178.4260  143.7380 N   0  0  0  0  0  0  0  0  0  0  0  0
  181.8690  178.7560  143.2960 C   0  0  0  0  0  1  0  0  0  0  0  0
  184.5190  178.1850  141.6900 C   0  0  1  0  0  3  0  0  0  0  0  0
  185.4860  178.3470  142.8430 C   0  0  0  0  0  2  0  0  0  0  0  0
  184.1680  179.0980  142.8520 C   0  0  2  0  0  3  0  0  0  0  0  0
  182.6240  179.3070  139.7320 N   0  0  0  0  0  2  0  0  0  0  0  0
  184.4760  180.2480  138.6610 O   0  0  0  0  0  0  0  0  0  0  0  0
  184.0290  179.5520  139.6110 C   0  0  0  0  0  0  0  0  0  0  0  0
  184.9400  179.0100  140.5700 N   0  0  0  0  0  2  0  0  0  0  0  0
  181.2840  178.7360  137.7810 C   0  0  0  0  0  1  0  0  0  0  0  0
  181.6530  179.8200  138.7770 C   0  0  1  0  0  3  0  0  0  0  0  0
  180.5070  180.2280  139.4580 O   0  0  0  0  0  1  0  0  0  0  0  0
  187.8810  177.3930  146.3420 C   0  0  2  0  0  3  0  0  0  0  0  0
  188.5040  178.0220  148.6760 C   0  0  0  0  0  1  0  0  0  0  0  0
  188.8770  177.1800  147.4730 C   0  0  0  0  0  2  0  0  0  0  0  0
  188.5760  177.6600  145.0880 N   0  0  0  0  0  0  0  0  0  0  0  0
  189.8270  177.9030  145.0570 N   0  0  0  0  0  0  0  0  0  0  0  0
  190.5010  178.1610  143.8240 C   0  0  0  0  0  0  0  0  0  0  0  0
  190.7920  179.3490  143.5210 O   0  0  0  0  0  0  0  0  0  0  0  0
  191.9020  177.3000  140.8940 N   0  0  0  0  0  0  0  0  0  0  0  0
  189.6270  177.6200  139.2270 S   0  0  0  0  0  0  0  0  0  0  0  0
  188.3140  178.1530  140.3900 C   0  0  0  0  0  2  0  0  0  0  0  0
  190.5400  177.0550  140.6410 C   0  0  2  0  0  3  0  0  0  0  0  0
  188.4570  177.3530  141.6860 C   0  0  0  0  0  2  0  0  0  0  0  0
  189.8810  176.9390  141.7440 C   0  0  2  0  0  3  0  0  0  0  0  0
  190.8390  177.0340  142.8880 C   0  0  1  0  0  3  0  0  0  0  0  0
  192.1630  177.2360  142.2740 N   0  0  0  0  0  0  0  0  0  0  0  0
  2  1  1  0  0  0  0
  3  2  1  0  0  0  0
  4  3  1  0  0  0  0
  5  4  1  0  0  0  0
  6  5  1  0  0  0  0
  7 13  1  6  0  0  0
  7  8  1  0  0  0  0
  7  9  1  0  0  0  0
  8  9  1  0  0  0  0
  9  5  1  1  0  0  0
 11 12  2  0  0  0  0
 12 10  1  0  0  0  0
 12 13  1  0  0  0  0
 15 14  1  6  0  0  0
 15 16  1  0  0  0  0
 15 10  1  0  0  0  0
 17  1  1  1  0  0  0
 17 19  1  0  0  0  0
 19 18  1  0  0  0  0
 20 17  1  0  0  0  0
 21 20  2  0  0  0  0
 22 21  1  0  0  0  0
 23 22  2  0  0  0  0
 24 31  2  0  0  0  0
 25 26  1  0  0  0  0
 26 28  1  0  0  0  0
 27 25  1  6  0  0  0
 27 24  1  0  0  0  0
 27 29  1  0  0  0  0
 29 28  1  1  0  0  0
 29 30  1  0  0  0  0
 30 22  1  1  0  0  0
 31 30  1  0  0  0  0
M  END
>  <MODEL>
6

>  <REMARK>
 VINA RESULT:      -6.5      2.915      4.905
  Name = 
  12 active torsions:
  status: ('A' for Active; 'I' for Inactive)
    1  A    between atoms: C_3  and  N_28
    2  A    between atoms: C_7  and  C_13
    3  A    between atoms: C_7  and  C_29
    4  A    between atoms: N_9  and  C_25
    5  A    between atoms: C_10  and  N_12
    6  A    between atoms: C_10  and  C_26
    7  A    between atoms: C_13  and  C_15
    8  A    between atoms: N_14  and  C_24
    9  A    between atoms: C_15  and  N_16
   10  A    between atoms: N_16  and  C_27
   11  A    between atoms: C_18  and  C_25
   12  A    between atoms: C_25  and  C_29
                            x       y       z     vdW  Elec       q    Type
                         _______ _______ _______ _____ _____    ______ ____

>  <TORSDO>
F 12

$$$$
=
 OpenBabel10232411523D

 31 33  0  0  1  0  0  0  0  0999 V2000
  189.4720  178.2160  144.6670 C   0  0  0  0  0  2  0  0  0  0  0  0
  189.0070  177.2530  145.7550 C   0  0  0  0  0  2  0  0  0  0  0  0
  187.7600  177.7790  146.4540 C   0  0  0  0  0  2  0  0  0  0  0  0
  186.4660  177.3010  145.7750 C   0  0  0  0  0  2  0  0  0  0  0  0
  185.5720  178.3690  145.2940 N   0  0  0  0  0  0  0  0  0  0  0  0
  185.6550  179.4950  146.2120 C   0  0  0  0  0  1  0  0  0  0  0  0
  184.8770  178.4350  142.9570 C   0  0  1  0  0  3  0  0  0  0  0  0
  186.1690  177.6510  143.0390 C   0  0  0  0  0  2  0  0  0  0  0  0
  185.9460  178.8360  143.9590 C   0  0  2  0  0  3  0  0  0  0  0  0
  183.7610  177.7980  140.3050 N   0  0  0  0  0  2  0  0  0  0  0  0
  184.4930  179.9100  139.6230 O   0  0  0  0  0  0  0  0  0  0  0  0
  184.3970  179.0570  140.5460 C   0  0  0  0  0  0  0  0  0  0  0  0
  184.9280  179.3600  141.8370 N   0  0  0  0  0  2  0  0  0  0  0  0
  182.5860  176.0500  139.0840 C   0  0  0  0  0  1  0  0  0  0  0  0
  183.2160  177.4280  139.0060 C   0  0  1  0  0  3  0  0  0  0  0  0
  182.2480  178.3570  138.6310 O   0  0  0  0  0  1  0  0  0  0  0  0
  189.9910  177.4740  143.4400 C   0  0  2  0  0  3  0  0  0  0  0  0
  191.9750  178.8390  144.0960 C   0  0  0  0  0  1  0  0  0  0  0  0
  191.5020  177.6220  143.3270 C   0  0  0  0  0  2  0  0  0  0  0  0
  189.3350  177.9640  142.2330 N   0  0  0  0  0  0  0  0  0  0  0  0
  189.4130  177.3330  141.1290 N   0  0  0  0  0  0  0  0  0  0  0  0
  188.7650  177.8190  139.9510 C   0  0  0  0  0  0  0  0  0  0  0  0
  187.5060  177.8300  139.9020 O   0  0  0  0  0  0  0  0  0  0  0  0
  188.6820  179.1570  136.8700 N   0  0  0  0  0  0  0  0  0  0  0  0
  188.4400  176.7560  135.3740 S   0  0  0  0  0  0  0  0  0  0  0  0
  188.4330  175.4480  136.6580 C   0  0  0  0  0  2  0  0  0  0  0  0
  189.1180  177.8460  136.6000 C   0  0  2  0  0  3  0  0  0  0  0  0
  189.4560  175.8170  137.7340 C   0  0  0  0  0  2  0  0  0  0  0  0
  189.5960  177.2920  137.6620 C   0  0  2  0  0  3  0  0  0  0  0  0
  189.5750  178.2910  138.7750 C   0  0  1  0  0  3  0  0  0  0  0  0
  188.9960  179.5150  138.1920 N   0  0  0  0  0  0  0  0  0  0  0  0
  1  2  1  0  0  0  0
  2  3  1  0  0  0  0
  4  3  1  0  0  0  0
  5  4  1  0  0  0  0
  5  6  1  0  0  0  0
  7 13  1  6  0  0  0
  7  8  1  0  0  0  0
  7  9  1  0  0  0  0
  8  9  1  0  0  0  0
  9  5  1  1  0  0  0
 10 12  1  0  0  0  0
 11 12  2  0  0  0  0
 12 13  1  0  0  0  0
 15 14  1  1  0  0  0
 15 10  1  0  0  0  0
 16 15  1  0  0  0  0
 17 19  1  6  0  0  0
 17  1  1  0  0  0  0
 19 18  1  0  0  0  0
 20 17  1  0  0  0  0
 21 20  2  0  0  0  0
 22 21  1  0  0  0  0
 23 22  2  0  0  0  0
 24 31  2  0  0  0  0
 25 26  1  0  0  0  0
 26 28  1  0  0  0  0
 27 25  1  1  0  0  0
 27 24  1  0  0  0  0
 27 29  1  0  0  0  0
 29 28  1  1  0  0  0
 29 30  1  0  0  0  0
 30 22  1  1  0  0  0
 31 30  1  0  0  0  0
M  END
>  <MODEL>
7

>  <REMARK>
 VINA RESULT:      -6.5      3.094      6.587
  Name = 
  12 active torsions:
  status: ('A' for Active; 'I' for Inactive)
    1  A    between atoms: C_3  and  N_28
    2  A    between atoms: C_7  and  C_13
    3  A    between atoms: C_7  and  C_29
    4  A    between atoms: N_9  and  C_25
    5  A    between atoms: C_10  and  N_12
    6  A    between atoms: C_10  and  C_26
    7  A    between atoms: C_13  and  C_15
    8  A    between atoms: N_14  and  C_24
    9  A    between atoms: C_15  and  N_16
   10  A    between atoms: N_16  and  C_27
   11  A    between atoms: C_18  and  C_25
   12  A    between atoms: C_25  and  C_29
                            x       y       z     vdW  Elec       q    Type
                         _______ _______ _______ _____ _____    ______ ____

>  <TORSDO>
F 12

$$$$
=
 OpenBabel10232411523D

 31 33  0  0  1  0  0  0  0  0999 V2000
  188.5010  178.5260  137.6760 C   0  0  0  0  0  2  0  0  0  0  0  0
  189.3430  178.5990  138.9450 C   0  0  0  0  0  2  0  0  0  0  0  0
  189.9370  177.2380  139.2860 C   0  0  0  0  0  2  0  0  0  0  0  0
  190.8330  177.2890  140.5350 C   0  0  0  0  0  2  0  0  0  0  0  0
  190.1390  177.5880  141.8000 N   0  0  0  0  0  0  0  0  0  0  0  0
  188.8450  176.9220  141.7900 C   0  0  0  0  0  1  0  0  0  0  0  0
  190.7030  178.0760  144.1220 C   0  0  1  0  0  3  0  0  0  0  0  0
  191.9820  178.1070  143.3140 C   0  0  0  0  0  2  0  0  0  0  0  0
  190.8910  177.1130  142.9620 C   0  0  2  0  0  3  0  0  0  0  0  0
  188.5870  177.6930  146.1360 N   0  0  0  0  0  2  0  0  0  0  0  0
  190.1690  176.5280  147.4020 O   0  0  0  0  0  0  0  0  0  0  0  0
  189.9000  177.1620  146.3480 C   0  0  0  0  0  0  0  0  0  0  0  0
  190.9170  177.3460  145.3610 N   0  0  0  0  0  2  0  0  0  0  0  0
  187.7840  178.4440  148.3090 C   0  0  0  0  0  1  0  0  0  0  0  0
  187.5160  177.5490  147.1130 C   0  0  1  0  0  3  0  0  0  0  0  0
  186.3050  177.9150  146.5270 O   0  0  0  0  0  1  0  0  0  0  0  0
  187.2420  177.6920  137.8790 C   0  0  2  0  0  3  0  0  0  0  0  0
  187.3110  178.0670  135.4130 C   0  0  0  0  0  1  0  0  0  0  0  0
  186.6280  177.3170  136.5380 C   0  0  0  0  0  2  0  0  0  0  0  0
  186.2780  178.4170  138.7000 N   0  0  0  0  0  0  0  0  0  0  0  0
  185.0230  178.2970  138.5180 N   0  0  0  0  0  0  0  0  0  0  0  0
  184.0850  179.0090  139.3280 C   0  0  0  0  0  0  0  0  0  0  0  0
  184.0900  180.2690  139.3090 O   0  0  0  0  0  0  0  0  0  0  0  0
  181.6780  179.2680  141.6580 N   0  0  0  0  0  0  0  0  0  0  0  0
  183.3280  179.2870  143.9690 S   0  0  0  0  0  0  0  0  0  0  0  0
  185.0240  179.1440  143.2870 C   0  0  0  0  0  2  0  0  0  0  0  0
  182.7340  178.7050  142.4000 C   0  0  2  0  0  3  0  0  0  0  0  0
  185.0000  178.1500  142.1260 C   0  0  0  0  0  2  0  0  0  0  0  0
  183.6050  178.1600  141.6200 C   0  0  2  0  0  3  0  0  0  0  0  0
  183.1200  178.2670  140.2100 C   0  0  1  0  0  3  0  0  0  0  0  0
  181.8290  178.9740  140.2920 N   0  0  0  0  0  0  0  0  0  0  0  0
  1 17  1  0  0  0  0
  1  2  1  0  0  0  0
  2  3  1  0  0  0  0
  3  4  1  0  0  0  0
  4  5  1  0  0  0  0
  6  5  1  0  0  0  0
  7 13  1  1  0  0  0
  8  7  1  0  0  0  0
  9  5  1  6  0  0  0
  9  8  1  0  0  0  0
  9  7  1  0  0  0  0
 10 12  1  0  0  0  0
 10 15  1  0  0  0  0
 12 11  2  0  0  0  0
 13 12  1  0  0  0  0
 15 14  1  1  0  0  0
 16 15  1  0  0  0  0
 17 19  1  6  0  0  0
 17 20  1  0  0  0  0
 18 19  1  0  0  0  0
 21 20  2  0  0  0  0
 21 22  1  0  0  0  0
 23 22  2  0  0  0  0
 26 25  1  0  0  0  0
 27 24  1  6  0  0  0
 27 25  1  0  0  0  0
 28 26  1  0  0  0  0
 29 28  1  6  0  0  0
 29 27  1  0  0  0  0
 30 22  1  6  0  0  0
 30 31  1  0  0  0  0
 30 29  1  0  0  0  0
 31 24  2  0  0  0  0
M  END
>  <MODEL>
8

>  <REMARK>
 VINA RESULT:      -6.4      2.848      8.399
  Name = 
  12 active torsions:
  status: ('A' for Active; 'I' for Inactive)
    1  A    between atoms: C_3  and  N_28
    2  A    between atoms: C_7  and  C_13
    3  A    between atoms: C_7  and  C_29
    4  A    between atoms: N_9  and  C_25
    5  A    between atoms: C_10  and  N_12
    6  A    between atoms: C_10  and  C_26
    7  A    between atoms: C_13  and  C_15
    8  A    between atoms: N_14  and  C_24
    9  A    between atoms: C_15  and  N_16
   10  A    between atoms: N_16  and  C_27
   11  A    between atoms: C_18  and  C_25
   12  A    between atoms: C_25  and  C_29
                            x       y       z     vdW  Elec       q    Type
                         _______ _______ _______ _____ _____    ______ ____

>  <TORSDO>
F 12

$$$$
=
 OpenBabel10232411523D

 31 33  0  0  1  0  0  0  0  0999 V2000
  188.9210  178.1690  144.5480 C   0  0  0  0  0  2  0  0  0  0  0  0
  188.4500  177.7610  145.9410 C   0  0  0  0  0  2  0  0  0  0  0  0
  187.0110  177.2610  145.9070 C   0  0  0  0  0  2  0  0  0  0  0  0
  186.4320  177.2490  144.4820 C   0  0  0  0  0  2  0  0  0  0  0  0
  185.2200  178.0620  144.2850 N   0  0  0  0  0  0  0  0  0  0  0  0
  184.9600  178.8150  145.5030 C   0  0  0  0  0  1  0  0  0  0  0  0
  184.8670  178.3850  141.8930 C   0  0  1  0  0  3  0  0  0  0  0  0
  186.3530  178.4680  142.1620 C   0  0  0  0  0  2  0  0  0  0  0  0
  185.3710  179.0120  143.1820 C   0  0  2  0  0  3  0  0  0  0  0  0
  184.7900  178.0610  138.9660 N   0  0  0  0  0  2  0  0  0  0  0  0
  184.0840  180.2860  138.8580 O   0  0  0  0  0  0  0  0  0  0  0  0
  184.4330  179.3070  139.5710 C   0  0  0  0  0  0  0  0  0  0  0  0
  184.4650  179.4530  140.9920 N   0  0  0  0  0  2  0  0  0  0  0  0
  185.7930  176.7820  137.1520 C   0  0  0  0  0  1  0  0  0  0  0  0
  184.7910  177.8590  137.5230 C   0  0  1  0  0  3  0  0  0  0  0  0
  183.5190  177.4660  137.1120 O   0  0  0  0  0  1  0  0  0  0  0  0
  190.0140  177.2420  144.0270 C   0  0  2  0  0  3  0  0  0  0  0  0
  191.6280  176.3900  145.7290 C   0  0  0  0  0  1  0  0  0  0  0  0
  191.3270  177.5070  144.7510 C   0  0  0  0  0  2  0  0  0  0  0  0
  190.1780  177.4090  142.5870 N   0  0  0  0  0  0  0  0  0  0  0  0
  191.0630  176.7620  141.9380 N   0  0  0  0  0  0  0  0  0  0  0  0
  191.2160  176.9290  140.5270 C   0  0  0  0  0  0  0  0  0  0  0  0
  192.0810  177.7370  140.0950 O   0  0  0  0  0  0  0  0  0  0  0  0
  190.6800  176.0790  137.3210 N   0  0  0  0  0  0  0  0  0  0  0  0
  189.0920  178.3040  136.5530 S   0  0  0  0  0  0  0  0  0  0  0  0
  188.9830  179.3030  138.0870 C   0  0  0  0  0  2  0  0  0  0  0  0
  189.5960  176.9390  137.5720 C   0  0  2  0  0  3  0  0  0  0  0  0
  188.8080  178.3540  139.2740 C   0  0  0  0  0  2  0  0  0  0  0  0
  189.3880  177.0600  138.8400 C   0  0  2  0  0  3  0  0  0  0  0  0
  190.3420  176.1690  139.5690 C   0  0  1  0  0  3  0  0  0  0  0  0
  191.1480  175.5170  138.5210 N   0  0  0  0  0  0  0  0  0  0  0  0
  1  2  1  0  0  0  0
  3  2  1  0  0  0  0
  4  3  1  0  0  0  0
  5  4  1  0  0  0  0
  5  6  1  0  0  0  0
  7 13  1  6  0  0  0
  7  8  1  0  0  0  0
  7  9  1  0  0  0  0
  8  9  1  0  0  0  0
  9  5  1  1  0  0  0
 10 12  1  0  0  0  0
 11 12  2  0  0  0  0
 12 13  1  0  0  0  0
 15 14  1  1  0  0  0
 15 10  1  0  0  0  0
 16 15  1  0  0  0  0
 17  1  1  1  0  0  0
 17 19  1  0  0  0  0
 19 18  1  0  0  0  0
 20 17  1  0  0  0  0
 21 20  2  0  0  0  0
 22 21  1  0  0  0  0
 23 22  2  0  0  0  0
 24 27  1  0  0  0  0
 24 31  2  0  0  0  0
 25 26  1  0  0  0  0
 26 28  1  0  0  0  0
 27 25  1  1  0  0  0
 27 29  1  0  0  0  0
 29 28  1  1  0  0  0
 29 30  1  0  0  0  0
 30 22  1  1  0  0  0
 31 30  1  0  0  0  0
M  END
>  <MODEL>
9

>  <REMARK>
 VINA RESULT:      -6.4      2.905      5.741
  Name = 
  12 active torsions:
  status: ('A' for Active; 'I' for Inactive)
    1  A    between atoms: C_3  and  N_28
    2  A    between atoms: C_7  and  C_13
    3  A    between atoms: C_7  and  C_29
    4  A    between atoms: N_9  and  C_25
    5  A    between atoms: C_10  and  N_12
    6  A    between atoms: C_10  and  C_26
    7  A    between atoms: C_13  and  C_15
    8  A    between atoms: N_14  and  C_24
    9  A    between atoms: C_15  and  N_16
   10  A    between atoms: N_16  and  C_27
   11  A    between atoms: C_18  and  C_25
   12  A    between atoms: C_25  and  C_29
                            x       y       z     vdW  Elec       q    Type
                         _______ _______ _______ _____ _____    ______ ____

>  <TORSDO>
F 12

$$$$
