=
 OpenBabel10232409353D

 33 37  0  0  1  0  0  0  0  0999 V2000
  187.2800  177.6640  143.8670 C   0  0  0  0  0  0  0  0  0  0  0  0
  187.7430  178.1200  148.4300 C   0  0  0  0  0  3  0  0  0  0  0  0
  184.6060  178.3500  142.3950 C   0  0  0  0  0  0  0  0  0  0  0  0
  184.2580  178.5670  143.7690 C   0  0  0  0  0  0  0  0  0  0  0  0
  183.6100  178.5600  141.4080 C   0  0  0  0  0  0  0  0  0  0  0  0
  187.0020  177.6260  142.5180 C   0  0  0  0  0  3  0  0  0  0  0  0
  185.0720  178.4270  144.8860 C   0  0  0  0  0  3  0  0  0  0  0  0
  182.9570  178.9700  144.0860 C   0  0  0  0  0  3  0  0  0  0  0  0
  182.3200  178.9590  141.7700 C   0  0  0  0  0  3  0  0  0  0  0  0
  186.7680  178.2410  147.4240 C   0  0  0  0  0  3  0  0  0  0  0  0
  187.1400  177.9440  146.1110 C   0  0  0  0  0  0  0  0  0  0  0  0
  188.4200  177.5350  145.7990 C   0  0  0  0  0  0  0  0  0  0  0  0
  185.8220  177.9360  141.9360 N   0  0  0  0  0  0  0  0  0  0  0  0
  181.9930  179.1670  143.1030 C   0  0  0  0  0  0  0  0  0  0  0  0
  189.0550  177.7230  148.1080 C   0  0  0  0  0  3  0  0  0  0  0  0
  188.5070  177.3360  144.4290 C   0  0  0  0  0  0  0  0  0  0  0  0
  189.4080  177.4310  146.7800 C   0  0  0  0  0  3  0  0  0  0  0  0
  186.3920  178.0350  144.9520 C   0  0  0  0  0  0  0  0  0  0  0  0
  191.7340  177.3540  142.5820 N   0  0  0  0  0  1  0  0  0  0  0  0
  189.6860  177.0040  143.6760 N   0  0  0  0  0  0  0  0  0  0  0  0
  190.6630  179.1630  143.8510 N   0  0  0  0  0  1  0  0  0  0  0  0
  190.6380  177.8270  143.3550 C   0  0  0  0  0  0  0  0  0  0  0  0
  183.4920  177.1830  139.3160 C   0  0  0  0  0  0  0  0  0  0  0  0
  183.9040  178.3760  140.0120 N   0  0  0  0  0  0  0  0  0  0  0  0
  182.8440  176.2890  139.9300 O   0  0  0  0  0  0  0  0  0  0  0  0
  184.5430  179.4690  139.2890 C   0  0  0  0  0  1  0  0  0  0  0  0
  182.6390  177.1930  137.0960 C   0  0  0  0  0  0  0  0  0  0  0  0
  183.2080  175.8420  137.3980 O   0  0  0  0  0  0  0  0  0  0  0  0
  183.7810  177.0020  137.8500 C   0  0  2  0  0  3  0  0  0  0  0  0
  181.7240  177.9680  136.5360 C   0  0  0  0  0  2  0  0  0  0  0  0
  180.6120  179.5740  143.4810 C   0  0  0  0  0  2  0  0  0  0  0  0
  179.9820  178.5210  144.3730 C   0  0  0  0  0  2  0  0  0  0  0  0
  179.9830  177.1880  143.6580 C   0  0  0  0  0  1  0  0  0  0  0  0
  1 16  1  0  0  0  0
  1 18  1  0  0  0  0
  3  4  1  0  0  0  0
  4  8  1  0  0  0  0
  4  7  2  0  0  0  0
  5  9  2  0  0  0  0
  5  3  1  0  0  0  0
  6  1  2  0  0  0  0
  7 18  1  0  0  0  0
  9 14  1  0  0  0  0
 10  2  2  0  0  0  0
 11 10  1  0  0  0  0
 12 11  1  0  0  0  0
 12 17  1  0  0  0  0
 13  3  2  0  0  0  0
 13  6  1  0  0  0  0
 14 31  1  0  0  0  0
 14  8  2  0  0  0  0
 15  2  1  0  0  0  0
 16 12  2  0  0  0  0
 17 15  2  0  0  0  0
 18 11  2  0  0  0  0
 19 22  1  0  0  0  0
 20 16  1  0  0  0  0
 22 20  2  0  0  0  0
 22 21  1  0  0  0  0
 23 25  2  0  0  0  0
 23 24  1  0  0  0  0
 24  5  1  0  0  0  0
 26 24  1  0  0  0  0
 27 28  1  0  0  0  0
 27 29  1  0  0  0  0
 28 29  1  0  0  0  0
 29 23  1  1  0  0  0
 30 27  2  0  0  0  0
 31 32  1  0  0  0  0
 33 32  1  0  0  0  0
M  END
>  <MODEL>
1

>  <REMARK>
 VINA RESULT:      -9.7      0.000      0.000
  Name = 
  5 active torsions:
  status: ('A' for Active; 'I' for Inactive)
    1  A    between atoms: C_4  and  C_30
    2  A    between atoms: C_8  and  C_14
    3  A    between atoms: N_10  and  C_27
    4  A    between atoms: C_11  and  N_16
    5  A    between atoms: C_14  and  C_23
                            x       y       z     vdW  Elec       q    Type
                         _______ _______ _______ _____ _____    ______ ____

>  <TORSDO>
F 5

$$$$
=
 OpenBabel10232409353D

 33 37  0  0  1  0  0  0  0  0999 V2000
  190.4210  177.1810  144.4680 C   0  0  0  0  0  0  0  0  0  0  0  0
  186.7920  178.2680  147.0930 C   0  0  0  0  0  3  0  0  0  0  0  0
  190.2970  177.2870  141.3430 C   0  0  0  0  0  0  0  0  0  0  0  0
  188.9530  177.6220  141.7100 C   0  0  0  0  0  0  0  0  0  0  0  0
  190.6240  177.2260  139.9650 C   0  0  0  0  0  0  0  0  0  0  0  0
  191.4230  176.9350  143.5550 C   0  0  0  0  0  3  0  0  0  0  0  0
  188.4230  177.7420  142.9880 C   0  0  0  0  0  3  0  0  0  0  0  0
  188.0150  177.8710  140.7020 C   0  0  0  0  0  3  0  0  0  0  0  0
  189.6530  177.4780  138.9900 C   0  0  0  0  0  3  0  0  0  0  0  0
  187.1420  178.1210  145.7400 C   0  0  0  0  0  3  0  0  0  0  0  0
  188.4450  177.7180  145.4390 C   0  0  0  0  0  0  0  0  0  0  0  0
  189.3680  177.4600  146.4330 C   0  0  0  0  0  0  0  0  0  0  0  0
  191.3110  176.9970  142.2080 N   0  0  0  0  0  0  0  0  0  0  0  0
  188.3540  177.8030  139.3550 C   0  0  0  0  0  0  0  0  0  0  0  0
  187.7390  178.0260  148.1060 C   0  0  0  0  0  3  0  0  0  0  0  0
  190.5740  177.1060  145.8460 C   0  0  0  0  0  0  0  0  0  0  0  0
  189.0460  177.6240  147.7810 C   0  0  0  0  0  3  0  0  0  0  0  0
  189.0440  177.5550  144.2040 C   0  0  0  0  0  0  0  0  0  0  0  0
  193.3480  175.7570  147.9210 N   0  0  0  0  0  1  0  0  0  0  0  0
  191.8210  176.8540  146.5150 N   0  0  0  0  0  0  0  0  0  0  0  0
  191.1220  174.8080  147.5020 N   0  0  0  0  0  1  0  0  0  0  0  0
  192.0670  175.8590  147.3110 C   0  0  0  0  0  0  0  0  0  0  0  0
  192.2170  175.8060  138.6480 C   0  0  0  0  0  0  0  0  0  0  0  0
  191.9600  176.9120  139.5360 N   0  0  0  0  0  0  0  0  0  0  0  0
  191.2550  175.1080  138.2200 O   0  0  0  0  0  0  0  0  0  0  0  0
  193.0430  177.8010  139.9390 C   0  0  0  0  0  1  0  0  0  0  0  0
  193.6760  175.4610  136.8030 C   0  0  0  0  0  0  0  0  0  0  0  0
  193.6590  174.2290  137.6530 O   0  0  0  0  0  0  0  0  0  0  0  0
  193.6120  175.4920  138.1830 C   0  0  2  0  0  3  0  0  0  0  0  0
  193.7130  176.0550  135.6200 C   0  0  0  0  0  2  0  0  0  0  0  0
  187.3230  178.0520  138.3110 C   0  0  0  0  0  2  0  0  0  0  0  0
  187.9800  178.5380  137.0320 C   0  0  0  0  0  2  0  0  0  0  0  0
  187.1250  178.1480  135.8460 C   0  0  0  0  0  1  0  0  0  0  0  0
  1 16  2  0  0  0  0
  2 15  1  0  0  0  0
  3  4  2  0  0  0  0
  3 13  1  0  0  0  0
  4  7  1  0  0  0  0
  5  3  1  0  0  0  0
  6  1  1  0  0  0  0
  7 18  2  0  0  0  0
  8  4  1  0  0  0  0
  9 14  1  0  0  0  0
  9  5  2  0  0  0  0
 10  2  2  0  0  0  0
 11 10  1  0  0  0  0
 11 12  2  0  0  0  0
 12 17  1  0  0  0  0
 13  6  2  0  0  0  0
 14  8  2  0  0  0  0
 16 12  1  0  0  0  0
 16 20  1  0  0  0  0
 17 15  2  0  0  0  0
 18  1  1  0  0  0  0
 18 11  1  0  0  0  0
 20 22  2  0  0  0  0
 22 21  1  0  0  0  0
 22 19  1  0  0  0  0
 23 24  1  0  0  0  0
 24 26  1  0  0  0  0
 24  5  1  0  0  0  0
 25 23  2  0  0  0  0
 27 28  1  0  0  0  0
 27 29  1  0  0  0  0
 28 29  1  0  0  0  0
 29 23  1  6  0  0  0
 30 27  2  0  0  0  0
 31 14  1  0  0  0  0
 32 31  1  0  0  0  0
 33 32  1  0  0  0  0
M  END
>  <MODEL>
2

>  <REMARK>
 VINA RESULT:      -9.3      4.441      6.882
  Name = 
  5 active torsions:
  status: ('A' for Active; 'I' for Inactive)
    1  A    between atoms: C_4  and  C_30
    2  A    between atoms: C_8  and  C_14
    3  A    between atoms: N_10  and  C_27
    4  A    between atoms: C_11  and  N_16
    5  A    between atoms: C_14  and  C_23
                            x       y       z     vdW  Elec       q    Type
                         _______ _______ _______ _____ _____    ______ ____

>  <TORSDO>
F 5

$$$$
=
 OpenBabel10232409353D

 33 37  0  0  1  0  0  0  0  0999 V2000
  185.0000  178.6790  140.8070 C   0  0  0  0  0  0  0  0  0  0  0  0
  183.7900  178.6620  145.2540 C   0  0  0  0  0  3  0  0  0  0  0  0
  187.9280  178.0790  139.8840 C   0  0  0  0  0  0  0  0  0  0  0  0
  188.0480  178.0380  141.3110 C   0  0  0  0  0  0  0  0  0  0  0  0
  189.0920  177.8560  139.1040 C   0  0  0  0  0  0  0  0  0  0  0  0
  185.5030  178.6000  139.5270 C   0  0  0  0  0  3  0  0  0  0  0  0
  187.0470  178.2220  142.2560 C   0  0  0  0  0  3  0  0  0  0  0  0
  189.3000  177.7860  141.8820 C   0  0  0  0  0  3  0  0  0  0  0  0
  190.3240  177.6110  139.7170 C   0  0  0  0  0  3  0  0  0  0  0  0
  184.9290  178.5230  144.4430 C   0  0  0  0  0  3  0  0  0  0  0  0
  184.7700  178.6470  143.0610 C   0  0  0  0  0  0  0  0  0  0  0  0
  183.5370  178.9080  142.4980 C   0  0  0  0  0  0  0  0  0  0  0  0
  186.7840  178.3350  139.1860 N   0  0  0  0  0  0  0  0  0  0  0  0
  190.4300  177.5730  141.1010 C   0  0  0  0  0  0  0  0  0  0  0  0
  182.5290  178.9080  144.6780 C   0  0  0  0  0  3  0  0  0  0  0  0
  183.6750  178.9540  141.1180 C   0  0  0  0  0  0  0  0  0  0  0  0
  182.3910  179.0260  143.2850 C   0  0  0  0  0  3  0  0  0  0  0  0
  185.7110  178.5010  142.0590 C   0  0  0  0  0  0  0  0  0  0  0  0
  180.9900  178.4350  138.5990 N   0  0  0  0  0  1  0  0  0  0  0  0
  182.6240  179.1010  140.1490 N   0  0  0  0  0  0  0  0  0  0  0  0
  182.2100  176.7710  139.9300 N   0  0  0  0  0  1  0  0  0  0  0  0
  181.9940  178.1300  139.5590 C   0  0  0  0  0  0  0  0  0  0  0  0
  188.7720  176.6590  136.9240 C   0  0  0  0  0  0  0  0  0  0  0  0
  189.0310  177.8670  137.6670 N   0  0  0  0  0  0  0  0  0  0  0  0
  188.5740  175.5730  137.5380 O   0  0  0  0  0  0  0  0  0  0  0  0
  189.1370  179.1480  136.9800 C   0  0  0  0  0  1  0  0  0  0  0  0
  187.3690  176.6860  135.0040 C   0  0  0  0  0  0  0  0  0  0  0  0
  188.2360  175.4670  134.9630 O   0  0  0  0  0  0  0  0  0  0  0  0
  188.6860  176.6760  135.4220 C   0  0  2  0  0  3  0  0  0  0  0  0
  186.2110  177.2940  134.8000 C   0  0  0  0  0  2  0  0  0  0  0  0
  191.7500  177.3300  141.7440 C   0  0  0  0  0  2  0  0  0  0  0  0
  191.6160  177.3930  143.2540 C   0  0  0  0  0  2  0  0  0  0  0  0
  191.6510  175.9910  143.8220 C   0  0  0  0  0  1  0  0  0  0  0  0
  1 16  1  0  0  0  0
  1 18  1  0  0  0  0
  3  4  1  0  0  0  0
  4  8  1  0  0  0  0
  4  7  2  0  0  0  0
  5  9  2  0  0  0  0
  5  3  1  0  0  0  0
  6  1  2  0  0  0  0
  9 14  1  0  0  0  0
 10  2  2  0  0  0  0
 11 10  1  0  0  0  0
 12 11  1  0  0  0  0
 12 17  1  0  0  0  0
 13  6  1  0  0  0  0
 13  3  2  0  0  0  0
 14 31  1  0  0  0  0
 14  8  2  0  0  0  0
 15  2  1  0  0  0  0
 16 12  2  0  0  0  0
 17 15  2  0  0  0  0
 18  7  1  0  0  0  0
 18 11  2  0  0  0  0
 19 22  1  0  0  0  0
 20 16  1  0  0  0  0
 22 21  1  0  0  0  0
 22 20  2  0  0  0  0
 23 25  2  0  0  0  0
 23 24  1  0  0  0  0
 24  5  1  0  0  0  0
 26 24  1  0  0  0  0
 27 29  1  0  0  0  0
 28 27  1  0  0  0  0
 28 29  1  0  0  0  0
 29 23  1  1  0  0  0
 30 27  2  0  0  0  0
 31 32  1  0  0  0  0
 32 33  1  0  0  0  0
M  END
>  <MODEL>
3

>  <REMARK>
 VINA RESULT:      -8.8      3.252      6.971
  Name = 
  5 active torsions:
  status: ('A' for Active; 'I' for Inactive)
    1  A    between atoms: C_4  and  C_30
    2  A    between atoms: C_8  and  C_14
    3  A    between atoms: N_10  and  C_27
    4  A    between atoms: C_11  and  N_16
    5  A    between atoms: C_14  and  C_23
                            x       y       z     vdW  Elec       q    Type
                         _______ _______ _______ _____ _____    ______ ____

>  <TORSDO>
F 5

$$$$
=
 OpenBabel10232409353D

 33 37  0  0  1  0  0  0  0  0999 V2000
  189.2970  176.9050  143.2440 C   0  0  0  0  0  0  0  0  0  0  0  0
  185.5520  178.7000  145.2410 C   0  0  0  0  0  3  0  0  0  0  0  0
  189.7870  177.1020  140.1600 C   0  0  0  0  0  0  0  0  0  0  0  0
  188.4990  177.7150  140.3010 C   0  0  0  0  0  0  0  0  0  0  0  0
  190.3460  177.0020  138.8610 C   0  0  0  0  0  0  0  0  0  0  0  0
  190.3780  176.4660  142.5110 C   0  0  0  0  0  3  0  0  0  0  0  0
  187.7750  177.9200  141.4690 C   0  0  0  0  0  3  0  0  0  0  0  0
  187.8400  178.1840  139.1590 C   0  0  0  0  0  3  0  0  0  0  0  0
  189.6510  177.4810  137.7460 C   0  0  0  0  0  3  0  0  0  0  0  0
  186.1110  178.5090  143.9660 C   0  0  0  0  0  3  0  0  0  0  0  0
  187.3320  177.8380  143.8790 C   0  0  0  0  0  0  0  0  0  0  0  0
  187.9770  177.3640  145.0030 C   0  0  0  0  0  0  0  0  0  0  0  0
  190.5370  176.5800  141.1730 N   0  0  0  0  0  0  0  0  0  0  0  0
  188.4040  178.0730  137.8930 C   0  0  0  0  0  0  0  0  0  0  0  0
  186.2190  178.2350  146.3900 C   0  0  0  0  0  3  0  0  0  0  0  0
  189.1700  176.7680  144.6200 C   0  0  0  0  0  0  0  0  0  0  0  0
  187.4490  177.5650  146.2800 C   0  0  0  0  0  3  0  0  0  0  0  0
  188.1050  177.5750  142.7630 C   0  0  0  0  0  0  0  0  0  0  0  0
  192.2220  176.1630  146.6540 N   0  0  0  0  0  1  0  0  0  0  0  0
  190.1880  176.2370  145.4840 N   0  0  0  0  0  0  0  0  0  0  0  0
  191.5610  178.1750  145.4110 N   0  0  0  0  0  1  0  0  0  0  0  0
  191.2980  176.8300  145.8030 C   0  0  0  0  0  0  0  0  0  0  0  0
  191.7870  175.1340  138.0120 C   0  0  0  0  0  0  0  0  0  0  0  0
  191.6430  176.4140  138.6590 N   0  0  0  0  0  0  0  0  0  0  0  0
  190.7640  174.5210  137.5960 O   0  0  0  0  0  0  0  0  0  0  0  0
  192.8200  177.1880  139.0340 C   0  0  0  0  0  1  0  0  0  0  0  0
  193.5840  174.7800  136.4960 C   0  0  0  0  0  0  0  0  0  0  0  0
  193.0460  173.4550  136.9370 O   0  0  0  0  0  0  0  0  0  0  0  0
  193.1460  174.5300  137.7820 C   0  0  2  0  0  3  0  0  0  0  0  0
  194.0870  175.5780  135.5660 C   0  0  0  0  0  2  0  0  0  0  0  0
  187.6630  178.5630  136.6980 C   0  0  0  0  0  2  0  0  0  0  0  0
  187.0490  177.3960  135.9490 C   0  0  0  0  0  2  0  0  0  0  0  0
  185.5860  177.2740  136.3170 C   0  0  0  0  0  1  0  0  0  0  0  0
  1 16  2  0  0  0  0
  2 15  1  0  0  0  0
  3  4  2  0  0  0  0
  3 13  1  0  0  0  0
  4  7  1  0  0  0  0
  5  3  1  0  0  0  0
  6  1  1  0  0  0  0
  7 18  2  0  0  0  0
  8  4  1  0  0  0  0
  9 14  1  0  0  0  0
  9  5  2  0  0  0  0
 10  2  2  0  0  0  0
 11 10  1  0  0  0  0
 11 12  2  0  0  0  0
 12 17  1  0  0  0  0
 13  6  2  0  0  0  0
 14  8  2  0  0  0  0
 16 12  1  0  0  0  0
 16 20  1  0  0  0  0
 17 15  2  0  0  0  0
 18  1  1  0  0  0  0
 18 11  1  0  0  0  0
 20 22  2  0  0  0  0
 21 22  1  0  0  0  0
 22 19  1  0  0  0  0
 23 24  1  0  0  0  0
 24  5  1  0  0  0  0
 24 26  1  0  0  0  0
 25 23  2  0  0  0  0
 27 28  1  0  0  0  0
 27 29  1  0  0  0  0
 28 29  1  0  0  0  0
 29 23  1  6  0  0  0
 30 27  2  0  0  0  0
 31 14  1  0  0  0  0
 32 33  1  0  0  0  0
 32 31  1  0  0  0  0
M  END
>  <MODEL>
4

>  <REMARK>
 VINA RESULT:      -8.8      4.311      6.817
  Name = 
  5 active torsions:
  status: ('A' for Active; 'I' for Inactive)
    1  A    between atoms: C_4  and  C_30
    2  A    between atoms: C_8  and  C_14
    3  A    between atoms: N_10  and  C_27
    4  A    between atoms: C_11  and  N_16
    5  A    between atoms: C_14  and  C_23
                            x       y       z     vdW  Elec       q    Type
                         _______ _______ _______ _____ _____    ______ ____

>  <TORSDO>
F 5

$$$$
=
 OpenBabel10232409353D

 33 37  0  0  1  0  0  0  0  0999 V2000
  187.5230  177.7190  143.6660 C   0  0  0  0  0  0  0  0  0  0  0  0
  189.4930  177.7040  147.8330 C   0  0  0  0  0  3  0  0  0  0  0  0
  189.1930  177.3890  141.0420 C   0  0  0  0  0  0  0  0  0  0  0  0
  190.2130  177.3990  142.0490 C   0  0  0  0  0  0  0  0  0  0  0  0
  189.5880  177.2610  139.6860 C   0  0  0  0  0  0  0  0  0  0  0  0
  187.0800  177.6560  142.3630 C   0  0  0  0  0  3  0  0  0  0  0  0
  190.0520  177.5080  143.4240 C   0  0  0  0  0  3  0  0  0  0  0  0
  191.5530  177.2880  141.6620 C   0  0  0  0  0  3  0  0  0  0  0  0
  190.9400  177.1570  139.3440 C   0  0  0  0  0  3  0  0  0  0  0  0
  189.8410  177.6560  146.4720 C   0  0  0  0  0  3  0  0  0  0  0  0
  188.8140  177.7270  145.5290 C   0  0  0  0  0  0  0  0  0  0  0  0
  187.4920  177.8490  145.9100 C   0  0  0  0  0  0  0  0  0  0  0  0
  187.8530  177.5110  141.2630 N   0  0  0  0  0  0  0  0  0  0  0  0
  191.9200  177.1670  140.3270 C   0  0  0  0  0  0  0  0  0  0  0  0
  188.1440  177.8070  148.2220 C   0  0  0  0  0  3  0  0  0  0  0  0
  186.6970  177.8710  144.7730 C   0  0  0  0  0  0  0  0  0  0  0  0
  187.1250  177.8740  147.2560 C   0  0  0  0  0  3  0  0  0  0  0  0
  188.8880  177.6480  144.1510 C   0  0  0  0  0  0  0  0  0  0  0  0
  183.1060  178.7880  144.4870 N   0  0  0  0  0  1  0  0  0  0  0  0
  185.2610  177.8860  144.7220 N   0  0  0  0  0  0  0  0  0  0  0  0
  185.0960  180.1730  144.0960 N   0  0  0  0  0  1  0  0  0  0  0  0
  184.5220  178.9250  144.4790 C   0  0  0  0  0  0  0  0  0  0  0  0
  188.2020  178.4320  137.9560 C   0  0  0  0  0  0  0  0  0  0  0  0
  188.6100  177.2270  138.6330 N   0  0  0  0  0  0  0  0  0  0  0  0
  188.7220  179.5380  138.2740 O   0  0  0  0  0  0  0  0  0  0  0  0
  188.1100  175.9290  138.1930 C   0  0  0  0  0  1  0  0  0  0  0  0
  187.8210  178.2550  135.6150 C   0  0  0  0  0  0  0  0  0  0  0  0
  187.2550  179.5490  136.1090 O   0  0  0  0  0  0  0  0  0  0  0  0
  187.1950  178.3920  136.8390 C   0  0  2  0  0  3  0  0  0  0  0  0
  188.4530  177.5390  134.6980 C   0  0  0  0  0  2  0  0  0  0  0  0
  193.3580  177.0740  139.9510 C   0  0  0  0  0  2  0  0  0  0  0  0
  193.4950  176.8570  138.4560 C   0  0  0  0  0  2  0  0  0  0  0  0
  193.8570  175.4130  138.1880 C   0  0  0  0  0  1  0  0  0  0  0  0
  1 18  1  0  0  0  0
  1 16  1  0  0  0  0
  2 15  1  0  0  0  0
  3 13  2  0  0  0  0
  3  4  1  0  0  0  0
  4  7  2  0  0  0  0
  5  3  1  0  0  0  0
  6  1  2  0  0  0  0
  7 18  1  0  0  0  0
  8  4  1  0  0  0  0
  9  5  2  0  0  0  0
  9 14  1  0  0  0  0
 10  2  2  0  0  0  0
 11 12  1  0  0  0  0
 11 10  1  0  0  0  0
 12 17  1  0  0  0  0
 13  6  1  0  0  0  0
 14  8  2  0  0  0  0
 16 12  2  0  0  0  0
 17 15  2  0  0  0  0
 18 11  2  0  0  0  0
 20 16  1  0  0  0  0
 21 22  1  0  0  0  0
 22 19  1  0  0  0  0
 22 20  2  0  0  0  0
 23 25  2  0  0  0  0
 23 24  1  0  0  0  0
 24  5  1  0  0  0  0
 26 24  1  0  0  0  0
 27 28  1  0  0  0  0
 27 29  1  0  0  0  0
 28 29  1  0  0  0  0
 29 23  1  1  0  0  0
 30 27  2  0  0  0  0
 31 14  1  0  0  0  0
 32 31  1  0  0  0  0
 33 32  1  0  0  0  0
M  END
>  <MODEL>
5

>  <REMARK>
 VINA RESULT:      -8.6      3.454      6.742
  Name = 
  5 active torsions:
  status: ('A' for Active; 'I' for Inactive)
    1  A    between atoms: C_4  and  C_30
    2  A    between atoms: C_8  and  C_14
    3  A    between atoms: N_10  and  C_27
    4  A    between atoms: C_11  and  N_16
    5  A    between atoms: C_14  and  C_23
                            x       y       z     vdW  Elec       q    Type
                         _______ _______ _______ _____ _____    ______ ____

>  <TORSDO>
F 5

$$$$
=
 OpenBabel10232409353D

 33 37  0  0  1  0  0  0  0  0999 V2000
  187.2760  177.8620  142.8350 C   0  0  0  0  0  0  0  0  0  0  0  0
  189.1130  177.1680  147.0040 C   0  0  0  0  0  3  0  0  0  0  0  0
  188.9740  177.6340  140.2170 C   0  0  0  0  0  0  0  0  0  0  0  0
  189.9590  177.4180  141.2350 C   0  0  0  0  0  0  0  0  0  0  0  0
  189.3900  177.6110  138.8620 C   0  0  0  0  0  0  0  0  0  0  0  0
  186.8670  177.9920  141.5260 C   0  0  0  0  0  3  0  0  0  0  0  0
  189.7720  177.3930  142.6110 C   0  0  0  0  0  3  0  0  0  0  0  0
  191.2890  177.1990  140.8600 C   0  0  0  0  0  3  0  0  0  0  0  0
  190.7310  177.3920  138.5320 C   0  0  0  0  0  3  0  0  0  0  0  0
  189.4920  177.2300  145.6530 C   0  0  0  0  0  3  0  0  0  0  0  0
  188.5060  177.5200  144.7070 C   0  0  0  0  0  0  0  0  0  0  0  0
  187.1960  177.7480  145.0780 C   0  0  0  0  0  0  0  0  0  0  0  0
  187.6490  177.8820  140.4290 N   0  0  0  0  0  0  0  0  0  0  0  0
  191.6780  177.1830  139.5250 C   0  0  0  0  0  0  0  0  0  0  0  0
  187.7730  177.3800  147.3810 C   0  0  0  0  0  3  0  0  0  0  0  0
  186.4410  177.9840  143.9380 C   0  0  0  0  0  0  0  0  0  0  0  0
  186.7960  177.6670  146.4130 C   0  0  0  0  0  3  0  0  0  0  0  0
  188.6110  177.5840  143.3300 C   0  0  0  0  0  0  0  0  0  0  0  0
  182.9700  179.3140  143.9380 N   0  0  0  0  0  1  0  0  0  0  0  0
  185.0180  178.1680  143.8670 N   0  0  0  0  0  0  0  0  0  0  0  0
  185.0950  180.5280  144.1330 N   0  0  0  0  0  1  0  0  0  0  0  0
  184.3900  179.2950  144.0120 C   0  0  0  0  0  0  0  0  0  0  0  0
  187.7040  176.6940  137.2480 C   0  0  0  0  0  0  0  0  0  0  0  0
  188.4440  177.8030  137.7960 N   0  0  0  0  0  0  0  0  0  0  0  0
  187.8680  175.5340  137.7210 O   0  0  0  0  0  0  0  0  0  0  0  0
  188.1760  179.1640  137.3460 C   0  0  0  0  0  1  0  0  0  0  0  0
  185.4090  176.8040  136.6350 C   0  0  0  0  0  0  0  0  0  0  0  0
  186.0750  175.7170  135.8520 O   0  0  0  0  0  0  0  0  0  0  0  0
  186.6980  176.9000  136.1480 C   0  0  2  0  0  3  0  0  0  0  0  0
  184.3700  177.2880  137.2980 C   0  0  0  0  0  2  0  0  0  0  0  0
  193.1070  176.9700  139.1640 C   0  0  0  0  0  2  0  0  0  0  0  0
  193.2180  176.4870  137.7310 C   0  0  0  0  0  2  0  0  0  0  0  0
  193.5730  175.0160  137.7210 C   0  0  0  0  0  1  0  0  0  0  0  0
  1 18  1  0  0  0  0
  1 16  1  0  0  0  0
  2 15  1  0  0  0  0
  3 13  2  0  0  0  0
  3  4  1  0  0  0  0
  4  7  2  0  0  0  0
  5  3  1  0  0  0  0
  6  1  2  0  0  0  0
  7 18  1  0  0  0  0
  8  4  1  0  0  0  0
  9  5  2  0  0  0  0
  9 14  1  0  0  0  0
 10  2  2  0  0  0  0
 11 12  1  0  0  0  0
 11 10  1  0  0  0  0
 12 17  1  0  0  0  0
 13  6  1  0  0  0  0
 14  8  2  0  0  0  0
 16 12  2  0  0  0  0
 17 15  2  0  0  0  0
 18 11  2  0  0  0  0
 19 22  1  0  0  0  0
 20 16  1  0  0  0  0
 20 22  2  0  0  0  0
 22 21  1  0  0  0  0
 23 25  2  0  0  0  0
 23 24  1  0  0  0  0
 24  5  1  0  0  0  0
 26 24  1  0  0  0  0
 27 30  2  0  0  0  0
 28 29  1  0  0  0  0
 28 27  1  0  0  0  0
 29 27  1  0  0  0  0
 29 23  1  1  0  0  0
 31 14  1  0  0  0  0
 32 31  1  0  0  0  0
 33 32  1  0  0  0  0
M  END
>  <MODEL>
6

>  <REMARK>
 VINA RESULT:      -8.6      3.231      6.530
  Name = 
  5 active torsions:
  status: ('A' for Active; 'I' for Inactive)
    1  A    between atoms: C_4  and  C_30
    2  A    between atoms: C_8  and  C_14
    3  A    between atoms: N_10  and  C_27
    4  A    between atoms: C_11  and  N_16
    5  A    between atoms: C_14  and  C_23
                            x       y       z     vdW  Elec       q    Type
                         _______ _______ _______ _____ _____    ______ ____

>  <TORSDO>
F 5

$$$$
=
 OpenBabel10232409353D

 33 37  0  0  1  0  0  0  0  0999 V2000
  186.9500  177.8610  143.3060 C   0  0  0  0  0  0  0  0  0  0  0  0
  191.2270  177.4300  144.9680 C   0  0  0  0  0  3  0  0  0  0  0  0
  186.3850  178.1640  140.2440 C   0  0  0  0  0  0  0  0  0  0  0  0
  187.8170  178.1410  140.2850 C   0  0  0  0  0  0  0  0  0  0  0  0
  185.7500  178.3040  138.9840 C   0  0  0  0  0  0  0  0  0  0  0  0
  185.7390  177.9500  142.6560 C   0  0  0  0  0  3  0  0  0  0  0  0
  188.6350  178.0090  141.4000 C   0  0  0  0  0  3  0  0  0  0  0  0
  188.5340  178.2630  139.0910 C   0  0  0  0  0  3  0  0  0  0  0  0
  186.5060  178.4260  137.8140 C   0  0  0  0  0  3  0  0  0  0  0  0
  190.5560  177.6430  143.7520 C   0  0  0  0  0  3  0  0  0  0  0  0
  189.1630  177.7340  143.7780 C   0  0  0  0  0  0  0  0  0  0  0  0
  188.4550  177.6260  144.9580 C   0  0  0  0  0  0  0  0  0  0  0  0
  185.5540  178.0800  141.3230 N   0  0  0  0  0  0  0  0  0  0  0  0
  187.8930  178.4020  137.8640 C   0  0  0  0  0  0  0  0  0  0  0  0
  190.5040  177.3000  146.1690 C   0  0  0  0  0  3  0  0  0  0  0  0
  187.0990  177.7290  144.6800 C   0  0  0  0  0  0  0  0  0  0  0  0
  189.1020  177.3910  146.1730 C   0  0  0  0  0  3  0  0  0  0  0  0
  188.2790  177.8850  142.7260 C   0  0  0  0  0  0  0  0  0  0  0  0
  184.3360  178.2210  147.1180 N   0  0  0  0  0  1  0  0  0  0  0  0
  186.0120  177.5720  145.6070 N   0  0  0  0  0  0  0  0  0  0  0  0
  185.6310  179.9020  145.8820 N   0  0  0  0  0  1  0  0  0  0  0  0
  185.3790  178.5360  146.2040 C   0  0  0  0  0  0  0  0  0  0  0  0
  183.5790  179.5540  138.8720 C   0  0  0  0  0  0  0  0  0  0  0  0
  184.3160  178.3150  138.8770 N   0  0  0  0  0  0  0  0  0  0  0  0
  184.1980  180.6530  138.9430 O   0  0  0  0  0  0  0  0  0  0  0  0
  183.6270  177.0470  138.6710 C   0  0  0  0  0  1  0  0  0  0  0  0
  181.5940  180.8580  138.7630 C   0  0  0  0  0  0  0  0  0  0  0  0
  181.5040  179.9230  139.9280 O   0  0  0  0  0  0  0  0  0  0  0  0
  182.0810  179.5660  138.7380 C   0  0  2  0  0  3  0  0  0  0  0  0
  181.3750  182.0370  138.2010 C   0  0  0  0  0  2  0  0  0  0  0  0
  188.6900  178.5510  136.6160 C   0  0  0  0  0  2  0  0  0  0  0  0
  189.6160  177.3630  136.4410 C   0  0  0  0  0  2  0  0  0  0  0  0
  188.8160  176.1640  135.9790 C   0  0  0  0  0  1  0  0  0  0  0  0
  1 16  2  0  0  0  0
  2 15  1  0  0  0  0
  3  4  2  0  0  0  0
  3 13  1  0  0  0  0
  4  7  1  0  0  0  0
  5  3  1  0  0  0  0
  6  1  1  0  0  0  0
  7 18  2  0  0  0  0
  8  4  1  0  0  0  0
  9 14  1  0  0  0  0
  9  5  2  0  0  0  0
 10 11  1  0  0  0  0
 10  2  2  0  0  0  0
 11 12  2  0  0  0  0
 12 17  1  0  0  0  0
 13  6  2  0  0  0  0
 14  8  2  0  0  0  0
 15 17  2  0  0  0  0
 16 12  1  0  0  0  0
 16 20  1  0  0  0  0
 18  1  1  0  0  0  0
 18 11  1  0  0  0  0
 20 22  2  0  0  0  0
 21 22  1  0  0  0  0
 22 19  1  0  0  0  0
 23 24  1  0  0  0  0
 23 25  2  0  0  0  0
 24  5  1  0  0  0  0
 26 24  1  0  0  0  0
 27 28  1  0  0  0  0
 29 27  1  0  0  0  0
 29 23  1  1  0  0  0
 29 28  1  0  0  0  0
 30 27  2  0  0  0  0
 31 14  1  0  0  0  0
 32 31  1  0  0  0  0
 33 32  1  0  0  0  0
M  END
>  <MODEL>
7

>  <REMARK>
 VINA RESULT:      -8.6      3.028      5.455
  Name = 
  5 active torsions:
  status: ('A' for Active; 'I' for Inactive)
    1  A    between atoms: C_4  and  C_30
    2  A    between atoms: C_8  and  C_14
    3  A    between atoms: N_10  and  C_27
    4  A    between atoms: C_11  and  N_16
    5  A    between atoms: C_14  and  C_23
                            x       y       z     vdW  Elec       q    Type
                         _______ _______ _______ _____ _____    ______ ____

>  <TORSDO>
F 5

$$$$
=
 OpenBabel10232409353D

 33 37  0  0  1  0  0  0  0  0999 V2000
  187.7480  177.6420  143.0470 C   0  0  0  0  0  0  0  0  0  0  0  0
  184.9980  178.6680  146.6000 C   0  0  0  0  0  3  0  0  0  0  0  0
  186.8540  178.0780  140.0800 C   0  0  0  0  0  0  0  0  0  0  0  0
  185.6780  178.4540  140.8070 C   0  0  0  0  0  0  0  0  0  0  0  0
  186.8180  178.1410  138.6640 C   0  0  0  0  0  0  0  0  0  0  0  0
  188.4640  177.4320  141.8890 C   0  0  0  0  0  3  0  0  0  0  0  0
  185.4970  178.4720  142.1850 C   0  0  0  0  0  3  0  0  0  0  0  0
  184.5420  178.8620  140.1010 C   0  0  0  0  0  3  0  0  0  0  0  0
  185.6590  178.5500  137.9980 C   0  0  0  0  0  3  0  0  0  0  0  0
  184.9840  178.6410  145.1950 C   0  0  0  0  0  3  0  0  0  0  0  0
  186.1310  178.1940  144.5360 C   0  0  0  0  0  0  0  0  0  0  0  0
  187.2490  177.7790  145.2330 C   0  0  0  0  0  0  0  0  0  0  0  0
  188.0240  177.6390  140.6270 N   0  0  0  0  0  0  0  0  0  0  0  0
  184.5250  178.9130  138.7110 C   0  0  0  0  0  0  0  0  0  0  0  0
  186.1450  178.2650  147.3110 C   0  0  0  0  0  3  0  0  0  0  0  0
  188.2340  177.4160  144.3270 C   0  0  0  0  0  0  0  0  0  0  0  0
  187.2900  177.8210  146.6280 C   0  0  0  0  0  3  0  0  0  0  0  0
  186.3860  178.1230  143.1790 C   0  0  0  0  0  0  0  0  0  0  0  0
  191.9080  177.2460  144.8740 N   0  0  0  0  0  1  0  0  0  0  0  0
  189.5830  177.0220  144.6290 N   0  0  0  0  0  0  0  0  0  0  0  0
  190.5120  179.1860  144.3100 N   0  0  0  0  0  1  0  0  0  0  0  0
  190.6290  177.7890  144.5690 C   0  0  0  0  0  0  0  0  0  0  0  0
  188.1570  176.4540  137.3790 C   0  0  0  0  0  0  0  0  0  0  0  0
  187.9730  177.7930  137.8800 N   0  0  0  0  0  0  0  0  0  0  0  0
  187.2840  175.5710  137.6100 O   0  0  0  0  0  0  0  0  0  0  0  0
  188.9080  178.8520  137.5180 C   0  0  0  0  0  1  0  0  0  0  0  0
  189.7370  174.7880  136.7610 C   0  0  0  0  0  0  0  0  0  0  0  0
  190.4620  175.9650  137.3350 O   0  0  0  0  0  0  0  0  0  0  0  0
  189.3540  176.0980  136.5400 C   0  0  2  0  0  3  0  0  0  0  0  0
  189.5850  173.4830  136.6020 C   0  0  0  0  0  2  0  0  0  0  0  0
  183.2900  179.3310  137.9920 C   0  0  0  0  0  2  0  0  0  0  0  0
  182.2320  179.7750  138.9850 C   0  0  0  0  0  2  0  0  0  0  0  0
  181.6780  181.1190  138.5630 C   0  0  0  0  0  1  0  0  0  0  0  0
  1 18  1  0  0  0  0
  1 16  1  0  0  0  0
  2 15  1  0  0  0  0
  3 13  2  0  0  0  0
  3  4  1  0  0  0  0
  4  7  2  0  0  0  0
  5  3  1  0  0  0  0
  6  1  2  0  0  0  0
  7 18  1  0  0  0  0
  8  4  1  0  0  0  0
  9  5  2  0  0  0  0
  9 14  1  0  0  0  0
 10  2  2  0  0  0  0
 11 10  1  0  0  0  0
 11 12  1  0  0  0  0
 12 17  1  0  0  0  0
 13  6  1  0  0  0  0
 14  8  2  0  0  0  0
 16 20  1  0  0  0  0
 16 12  2  0  0  0  0
 17 15  2  0  0  0  0
 18 11  2  0  0  0  0
 21 22  1  0  0  0  0
 22 20  2  0  0  0  0
 22 19  1  0  0  0  0
 23 25  2  0  0  0  0
 23 24  1  0  0  0  0
 24  5  1  0  0  0  0
 26 24  1  0  0  0  0
 27 28  1  0  0  0  0
 29 27  1  0  0  0  0
 29 28  1  0  0  0  0
 29 23  1  1  0  0  0
 30 27  2  0  0  0  0
 31 14  1  0  0  0  0
 31 32  1  0  0  0  0
 33 32  1  0  0  0  0
M  END
>  <MODEL>
8

>  <REMARK>
 VINA RESULT:      -8.4      3.130      4.314
  Name = 
  5 active torsions:
  status: ('A' for Active; 'I' for Inactive)
    1  A    between atoms: C_4  and  C_30
    2  A    between atoms: C_8  and  C_14
    3  A    between atoms: N_10  and  C_27
    4  A    between atoms: C_11  and  N_16
    5  A    between atoms: C_14  and  C_23
                            x       y       z     vdW  Elec       q    Type
                         _______ _______ _______ _____ _____    ______ ____

>  <TORSDO>
F 5

$$$$
=
 OpenBabel10232409353D

 33 37  0  0  1  0  0  0  0  0999 V2000
  185.0510  178.5530  140.5380 C   0  0  0  0  0  0  0  0  0  0  0  0
  183.1580  178.8380  144.7300 C   0  0  0  0  0  3  0  0  0  0  0  0
  188.1100  178.0400  140.1330 C   0  0  0  0  0  0  0  0  0  0  0  0
  188.0050  178.1240  141.5600 C   0  0  0  0  0  0  0  0  0  0  0  0
  189.3900  177.8170  139.5640 C   0  0  0  0  0  0  0  0  0  0  0  0
  185.7520  178.3970  139.3630 C   0  0  0  0  0  3  0  0  0  0  0  0
  186.8610  178.3300  142.3190 C   0  0  0  0  0  3  0  0  0  0  0  0
  189.1610  177.9880  142.3360 C   0  0  0  0  0  3  0  0  0  0  0  0
  190.5200  177.6910  140.3790 C   0  0  0  0  0  3  0  0  0  0  0  0
  184.4150  178.6940  144.1200 C   0  0  0  0  0  3  0  0  0  0  0  0
  184.4710  178.6960  142.7240 C   0  0  0  0  0  0  0  0  0  0  0  0
  183.3330  178.8420  141.9570 C   0  0  0  0  0  0  0  0  0  0  0  0
  187.0810  178.1750  139.2480 N   0  0  0  0  0  0  0  0  0  0  0  0
  190.4080  177.7730  141.7600 C   0  0  0  0  0  0  0  0  0  0  0  0
  181.9940  178.9660  143.9480 C   0  0  0  0  0  3  0  0  0  0  0  0
  183.6830  178.7810  140.6160 C   0  0  0  0  0  0  0  0  0  0  0  0
  182.0720  178.9620  142.5450 C   0  0  0  0  0  3  0  0  0  0  0  0
  185.5630  178.5190  141.8950 C   0  0  0  0  0  0  0  0  0  0  0  0
  181.5890  179.6800  137.6790 N   0  0  0  0  0  1  0  0  0  0  0  0
  182.7930  178.7900  139.4880 N   0  0  0  0  0  0  0  0  0  0  0  0
  183.1900  181.0650  138.9240 N   0  0  0  0  0  1  0  0  0  0  0  0
  182.5130  179.8220  138.7510 C   0  0  0  0  0  0  0  0  0  0  0  0
  189.9100  176.4500  137.5270 C   0  0  0  0  0  0  0  0  0  0  0  0
  189.5560  177.7060  138.1400 N   0  0  0  0  0  0  0  0  0  0  0  0
  190.0600  175.4210  138.2440 O   0  0  0  0  0  0  0  0  0  0  0  0
  189.2600  178.8720  137.3160 C   0  0  0  0  0  1  0  0  0  0  0  0
  190.2810  175.0170  135.6660 C   0  0  0  0  0  0  0  0  0  0  0  0
  191.3640  176.0500  135.7150 O   0  0  0  0  0  0  0  0  0  0  0  0
  190.0610  176.3310  136.0350 C   0  0  2  0  0  3  0  0  0  0  0  0
  189.8670  173.7800  135.4440 C   0  0  0  0  0  2  0  0  0  0  0  0
  191.6190  177.6560  142.6170 C   0  0  0  0  0  2  0  0  0  0  0  0
  191.3200  178.1590  144.0170 C   0  0  0  0  0  2  0  0  0  0  0  0
  191.3890  177.0050  144.9930 C   0  0  0  0  0  1  0  0  0  0  0  0
  1 16  2  0  0  0  0
  1 18  1  0  0  0  0
  3  4  1  0  0  0  0
  4  7  1  0  0  0  0
  4  8  2  0  0  0  0
  5  3  2  0  0  0  0
  5  9  1  0  0  0  0
  6  1  1  0  0  0  0
  9 14  2  0  0  0  0
 10  2  1  0  0  0  0
 11 10  2  0  0  0  0
 12 17  2  0  0  0  0
 12 11  1  0  0  0  0
 13  6  2  0  0  0  0
 13  3  1  0  0  0  0
 14  8  1  0  0  0  0
 14 31  1  0  0  0  0
 15  2  2  0  0  0  0
 16 12  1  0  0  0  0
 17 15  1  0  0  0  0
 18  7  2  0  0  0  0
 18 11  1  0  0  0  0
 19 22  1  0  0  0  0
 20 16  1  0  0  0  0
 22 21  1  0  0  0  0
 22 20  2  0  0  0  0
 23 24  1  0  0  0  0
 23 25  2  0  0  0  0
 24  5  1  0  0  0  0
 26 24  1  0  0  0  0
 27 28  1  0  0  0  0
 27 29  1  0  0  0  0
 28 29  1  0  0  0  0
 29 23  1  1  0  0  0
 30 27  2  0  0  0  0
 31 32  1  0  0  0  0
 32 33  1  0  0  0  0
M  END
>  <MODEL>
9

>  <REMARK>
 VINA RESULT:      -8.4      3.660      7.393
  Name = 
  5 active torsions:
  status: ('A' for Active; 'I' for Inactive)
    1  A    between atoms: C_4  and  C_30
    2  A    between atoms: C_8  and  C_14
    3  A    between atoms: N_10  and  C_27
    4  A    between atoms: C_11  and  N_16
    5  A    between atoms: C_14  and  C_23
                            x       y       z     vdW  Elec       q    Type
                         _______ _______ _______ _____ _____    ______ ____

>  <TORSDO>
F 5

$$$$
