=
 OpenBabel10232409333D

 33 39  0  0  1  0  0  0  0  0999 V2000
  187.6430  178.7820  140.3420 O   0  0  0  0  0  0  0  0  0  0  0  0
  189.2720  177.5470  141.4400 N   0  0  0  0  0  2  0  0  0  0  0  0
  188.6840  178.0810  140.2530 C   0  0  0  0  0  0  0  0  0  0  0  0
  190.4040  176.7170  141.3770 N   0  0  0  0  0  0  0  0  0  0  0  0
  191.1560  176.7310  142.6600 C   0  0  1  0  0  3  0  0  0  0  0  0
  191.5780  177.5870  141.5570 C   0  0  0  0  0  2  0  0  0  0  0  0
  190.5190  177.5690  143.7710 C   0  0  2  0  0  3  0  0  0  0  0  0
  191.4850  177.7410  144.9200 C   0  0  1  0  0  3  0  0  0  0  0  0
  190.4080  176.7340  145.0250 C   0  0  2  0  0  0  0  0  0  0  0  0
  191.7230  176.4730  145.6260 N   0  0  0  0  0  2  0  0  0  0  0  0
  187.5510  178.1570  147.9590 C   0  0  0  0  0  3  0  0  0  0  0  0
  189.3300  177.2160  145.9840 C   0  0  0  0  0  0  0  0  0  0  0  0
  187.9580  177.4430  145.6730 C   0  0  0  0  0  0  0  0  0  0  0  0
  188.8940  177.9550  148.2690 C   0  0  0  0  0  3  0  0  0  0  0  0
  189.7740  177.4920  147.2880 C   0  0  0  0  0  3  0  0  0  0  0  0
  187.0870  177.9010  146.6680 C   0  0  0  0  0  3  0  0  0  0  0  0
  187.3850  177.2130  144.3690 C   0  0  0  0  0  0  0  0  0  0  0  0
  186.9200  177.0280  143.3240 N   0  0  0  0  0  0  0  0  0  0  0  0
  189.2930  177.8000  138.9090 C   0  0  2  0  0  3  0  0  0  0  0  0
  188.9740  179.6270  137.3520 N   0  0  0  0  0  2  0  0  0  0  0  0
  188.5530  178.5050  137.8090 C   0  0  0  0  0  0  0  0  0  0  0  0
  187.3250  177.8860  137.2320 C   0  0  0  0  0  1  0  0  0  0  0  0
  189.3450  176.3670  138.6570 N   0  0  0  0  0  2  0  0  0  0  0  0
  190.7280  174.6230  137.6780 C   0  0  2  0  0  0  0  0  0  0  0  0
  189.6520  173.9780  136.8310 C   0  0  0  0  0  2  0  0  0  0  0  0
  190.5030  176.1170  137.8120 C   0  0  1  0  0  3  0  0  0  0  0  0
  190.0660  175.4070  136.5500 C   0  0  1  0  0  3  0  0  0  0  0  0
  194.7430  173.6640  136.6070 C   0  0  0  0  0  3  0  0  0  0  0  0
  194.4440  174.7900  137.3690 C   0  0  0  0  0  3  0  0  0  0  0  0
  193.6900  172.8580  136.1840 C   0  0  0  0  0  3  0  0  0  0  0  0
  192.1330  174.2830  137.2630 C   0  0  0  0  0  0  0  0  0  0  0  0
  192.4110  173.1750  136.5180 N   0  0  0  0  0  0  0  0  0  0  0  0
  193.1530  175.0790  137.6820 N   0  0  0  0  0  0  0  0  0  0  0  0
  3  1  2  0  0  0  0
  3  2  1  0  0  0  0
  4  2  1  0  0  0  0
  4  6  1  0  0  0  0
  4  5  1  0  0  0  0
  5  6  1  6  0  0  0
  7  5  1  6  0  0  0
  7  8  1  0  0  0  0
  7  9  1  0  0  0  0
  8  9  1  0  0  0  0
  8 10  1  6  0  0  0
  9 10  1  0  0  0  0
  9 12  1  1  0  0  0
 11 14  1  0  0  0  0
 12 15  1  0  0  0  0
 13 12  2  0  0  0  0
 13 16  1  0  0  0  0
 15 14  2  0  0  0  0
 16 11  2  0  0  0  0
 17 13  1  0  0  0  0
 18 17  3  0  0  0  0
 19 21  1  6  0  0  0
 19  3  1  0  0  0  0
 20 21  2  0  0  0  0
 22 21  1  0  0  0  0
 23 19  1  0  0  0  0
 24 31  1  6  0  0  0
 24 26  1  0  0  0  0
 25 24  1  0  0  0  0
 26 23  1  1  0  0  0
 27 25  1  1  0  0  0
 27 24  1  0  0  0  0
 27 26  1  0  0  0  0
 28 29  1  0  0  0  0
 29 33  2  0  0  0  0
 30 32  1  0  0  0  0
 30 28  2  0  0  0  0
 31 33  1  0  0  0  0
 32 31  2  0  0  0  0
M  END
>  <MODEL>
1

>  <REMARK>
 VINA RESULT:      -8.3      0.000      0.000
  Name = 
  9 active torsions:
  status: ('A' for Active; 'I' for Inactive)
    1  A    between atoms: C_1  and  C_22
    2  A    between atoms: C_3  and  C_7
    3  A    between atoms: C_5  and  C_25
    4  A    between atoms: N_6  and  C_20
    5  A    between atoms: N_6  and  C_23
    6  A    between atoms: N_9  and  N_13
    7  A    between atoms: C_12  and  C_15
    8  A    between atoms: C_14  and  C_20
    9  A    between atoms: C_20  and  C_28
                            x       y       z     vdW  Elec       q    Type
                         _______ _______ _______ _____ _____    ______ ____

>  <TORSDO>
F 9

$$$$
=
 OpenBabel10232409333D

 33 39  0  0  1  0  0  0  0  0999 V2000
  189.2030  178.9220  138.8900 O   0  0  0  0  0  0  0  0  0  0  0  0
  189.8490  177.6360  140.7100 N   0  0  0  0  0  2  0  0  0  0  0  0
  189.5740  177.7980  139.3190 C   0  0  0  0  0  0  0  0  0  0  0  0
  190.2160  176.3850  141.2350 N   0  0  0  0  0  0  0  0  0  0  0  0
  189.6560  176.1850  142.5980 C   0  0  1  0  0  3  0  0  0  0  0  0
  191.0280  176.6510  142.4340 C   0  0  0  0  0  2  0  0  0  0  0  0
  188.7640  177.3220  143.1000 C   0  0  2  0  0  3  0  0  0  0  0  0
  189.3520  177.9390  144.3480 C   0  0  1  0  0  3  0  0  0  0  0  0
  188.2380  176.9750  144.4740 C   0  0  2  0  0  0  0  0  0  0  0  0
  189.2980  177.0150  145.4910 N   0  0  0  0  0  2  0  0  0  0  0  0
  184.4830  179.0060  145.2230 C   0  0  0  0  0  3  0  0  0  0  0  0
  186.9520  177.7020  144.8360 C   0  0  0  0  0  0  0  0  0  0  0  0
  186.5330  178.0830  146.1430 C   0  0  0  0  0  0  0  0  0  0  0  0
  184.8750  178.6220  143.9430 C   0  0  0  0  0  3  0  0  0  0  0  0
  186.0970  177.9720  143.7540 C   0  0  0  0  0  3  0  0  0  0  0  0
  185.3080  178.7390  146.3150 C   0  0  0  0  0  3  0  0  0  0  0  0
  187.3120  177.8460  147.3340 C   0  0  0  0  0  0  0  0  0  0  0  0
  187.9360  177.6500  148.2890 N   0  0  0  0  0  0  0  0  0  0  0  0
  189.7150  176.6380  138.3740 C   0  0  2  0  0  3  0  0  0  0  0  0
  192.1320  176.7390  138.4900 N   0  0  0  0  0  2  0  0  0  0  0  0
  191.0850  176.5870  137.7630 C   0  0  0  0  0  0  0  0  0  0  0  0
  191.2320  176.3420  136.2990 C   0  0  0  0  0  1  0  0  0  0  0  0
  188.6930  176.6910  137.3400 N   0  0  0  0  0  2  0  0  0  0  0  0
  186.4770  177.6940  137.3220 C   0  0  2  0  0  0  0  0  0  0  0  0
  186.0530  177.1980  135.9560 C   0  0  0  0  0  2  0  0  0  0  0  0
  187.3990  176.7040  138.0070 C   0  0  1  0  0  3  0  0  0  0  0  0
  186.3340  176.1990  137.0590 C   0  0  1  0  0  3  0  0  0  0  0  0
  183.3050  179.0440  139.8330 C   0  0  0  0  0  3  0  0  0  0  0  0
  184.6360  179.1410  140.2280 C   0  0  0  0  0  3  0  0  0  0  0  0
  183.0280  178.4750  138.5920 C   0  0  0  0  0  3  0  0  0  0  0  0
  185.3410  178.1350  138.2040 C   0  0  0  0  0  0  0  0  0  0  0  0
  184.0420  178.0360  137.8010 N   0  0  0  0  0  0  0  0  0  0  0  0
  185.6250  178.6880  139.4130 N   0  0  0  0  0  0  0  0  0  0  0  0
  1  3  2  0  0  0  0
  2  4  1  0  0  0  0
  3  2  1  0  0  0  0
  4  6  1  0  0  0  0
  4  5  1  0  0  0  0
  5  6  1  1  0  0  0
  7  5  1  1  0  0  0
  7  8  1  0  0  0  0
  7  9  1  0  0  0  0
  8  9  1  0  0  0  0
  8 10  1  1  0  0  0
  9 12  1  1  0  0  0
  9 10  1  0  0  0  0
 11 16  1  0  0  0  0
 12 13  1  0  0  0  0
 13 16  2  0  0  0  0
 13 17  1  0  0  0  0
 14 11  2  0  0  0  0
 15 14  1  0  0  0  0
 15 12  2  0  0  0  0
 17 18  3  0  0  0  0
 19 23  1  6  0  0  0
 19  3  1  0  0  0  0
 21 19  1  0  0  0  0
 21 20  2  0  0  0  0
 22 21  1  0  0  0  0
 24 26  1  0  0  0  0
 24 31  1  1  0  0  0
 25 24  1  0  0  0  0
 26 23  1  6  0  0  0
 27 25  1  6  0  0  0
 27 24  1  0  0  0  0
 27 26  1  0  0  0  0
 28 29  1  0  0  0  0
 30 28  2  0  0  0  0
 31 33  1  0  0  0  0
 32 31  2  0  0  0  0
 32 30  1  0  0  0  0
 33 29  2  0  0  0  0
M  END
>  <MODEL>
2

>  <REMARK>
 VINA RESULT:      -8.2      2.477      5.402
  Name = 
  9 active torsions:
  status: ('A' for Active; 'I' for Inactive)
    1  A    between atoms: C_1  and  C_22
    2  A    between atoms: C_3  and  C_7
    3  A    between atoms: C_5  and  C_25
    4  A    between atoms: N_6  and  C_20
    5  A    between atoms: N_6  and  C_23
    6  A    between atoms: N_9  and  N_13
    7  A    between atoms: C_12  and  C_15
    8  A    between atoms: C_14  and  C_20
    9  A    between atoms: C_20  and  C_28
                            x       y       z     vdW  Elec       q    Type
                         _______ _______ _______ _____ _____    ______ ____

>  <TORSDO>
F 9

$$$$
=
 OpenBabel10232409333D

 33 39  0  0  1  0  0  0  0  0999 V2000
  187.4450  178.7630  140.1730 O   0  0  0  0  0  0  0  0  0  0  0  0
  189.2310  177.7240  141.2270 N   0  0  0  0  0  2  0  0  0  0  0  0
  188.3750  177.9180  140.1010 C   0  0  0  0  0  0  0  0  0  0  0  0
  190.2480  176.7540  141.2050 N   0  0  0  0  0  0  0  0  0  0  0  0
  190.9050  176.6290  142.5330 C   0  0  1  0  0  3  0  0  0  0  0  0
  191.5090  177.4550  141.4940 C   0  0  0  0  0  2  0  0  0  0  0  0
  190.3060  177.5090  143.6330 C   0  0  2  0  0  3  0  0  0  0  0  0
  191.3310  177.7730  144.7110 C   0  0  1  0  0  3  0  0  0  0  0  0
  190.2960  176.7420  144.9350 C   0  0  2  0  0  0  0  0  0  0  0  0
  191.6520  176.5550  145.4690 N   0  0  0  0  0  2  0  0  0  0  0  0
  187.5670  178.2130  147.9650 C   0  0  0  0  0  3  0  0  0  0  0  0
  189.2610  177.2440  145.9290 C   0  0  0  0  0  0  0  0  0  0  0  0
  187.8910  177.5270  145.6570 C   0  0  0  0  0  0  0  0  0  0  0  0
  188.9090  177.9560  148.2380 C   0  0  0  0  0  3  0  0  0  0  0  0
  189.7470  177.4800  147.2260 C   0  0  0  0  0  3  0  0  0  0  0  0
  187.0620  177.9980  146.6820 C   0  0  0  0  0  3  0  0  0  0  0  0
  187.2780  177.3430  144.3640 C   0  0  0  0  0  0  0  0  0  0  0  0
  186.7850  177.2010  143.3260 N   0  0  0  0  0  0  0  0  0  0  0  0
  188.5720  177.1160  138.8470 C   0  0  2  0  0  3  0  0  0  0  0  0
  190.7100  177.2680  137.7180 N   0  0  0  0  0  2  0  0  0  0  0  0
  189.5490  177.7770  137.9170 C   0  0  0  0  0  0  0  0  0  0  0  0
  189.1590  179.0290  137.2060 C   0  0  0  0  0  1  0  0  0  0  0  0
  187.3010  176.8860  138.1780 N   0  0  0  0  0  2  0  0  0  0  0  0
  186.1850  175.1250  136.9250 C   0  0  2  0  0  0  0  0  0  0  0  0
  185.2610  176.0170  136.1230 C   0  0  0  0  0  2  0  0  0  0  0  0
  187.5050  175.8150  137.2140 C   0  0  1  0  0  3  0  0  0  0  0  0
  186.7590  176.1340  135.9360 C   0  0  1  0  0  3  0  0  0  0  0  0
  186.7150  171.1710  135.4180 C   0  0  0  0  0  3  0  0  0  0  0  0
  187.6830  171.7830  136.2090 C   0  0  0  0  0  3  0  0  0  0  0  0
  185.5640  171.8920  135.1140 C   0  0  0  0  0  3  0  0  0  0  0  0
  186.3650  173.7440  136.3580 C   0  0  0  0  0  0  0  0  0  0  0  0
  185.4060  173.1570  135.5870 N   0  0  0  0  0  0  0  0  0  0  0  0
  187.4940  173.0510  136.6620 N   0  0  0  0  0  0  0  0  0  0  0  0
  3  1  2  0  0  0  0
  3  2  1  0  0  0  0
  4  2  1  0  0  0  0
  4  6  1  0  0  0  0
  4  5  1  0  0  0  0
  5  6  1  6  0  0  0
  7  5  1  6  0  0  0
  7  8  1  0  0  0  0
  7  9  1  0  0  0  0
  8  9  1  0  0  0  0
  8 10  1  6  0  0  0
  9 10  1  0  0  0  0
  9 12  1  1  0  0  0
 11 14  1  0  0  0  0
 12 15  1  0  0  0  0
 13 12  2  0  0  0  0
 13 16  1  0  0  0  0
 15 14  2  0  0  0  0
 16 11  2  0  0  0  0
 17 13  1  0  0  0  0
 18 17  3  0  0  0  0
 19 21  1  6  0  0  0
 19  3  1  0  0  0  0
 20 21  2  0  0  0  0
 22 21  1  0  0  0  0
 23 19  1  0  0  0  0
 24 31  1  6  0  0  0
 24 26  1  0  0  0  0
 25 24  1  0  0  0  0
 26 23  1  1  0  0  0
 27 25  1  1  0  0  0
 27 24  1  0  0  0  0
 27 26  1  0  0  0  0
 28 29  1  0  0  0  0
 29 33  2  0  0  0  0
 30 28  2  0  0  0  0
 30 32  1  0  0  0  0
 31 33  1  0  0  0  0
 32 31  2  0  0  0  0
M  END
>  <MODEL>
3

>  <REMARK>
 VINA RESULT:      -8.2      2.561      3.507
  Name = 
  9 active torsions:
  status: ('A' for Active; 'I' for Inactive)
    1  A    between atoms: C_1  and  C_22
    2  A    between atoms: C_3  and  C_7
    3  A    between atoms: C_5  and  C_25
    4  A    between atoms: N_6  and  C_20
    5  A    between atoms: N_6  and  C_23
    6  A    between atoms: N_9  and  N_13
    7  A    between atoms: C_12  and  C_15
    8  A    between atoms: C_14  and  C_20
    9  A    between atoms: C_20  and  C_28
                            x       y       z     vdW  Elec       q    Type
                         _______ _______ _______ _____ _____    ______ ____

>  <TORSDO>
F 9

$$$$
=
 OpenBabel10232409333D

 33 39  0  0  1  0  0  0  0  0999 V2000
  186.6140  178.8970  139.7390 O   0  0  0  0  0  0  0  0  0  0  0  0
  188.3900  177.7530  140.6980 N   0  0  0  0  0  2  0  0  0  0  0  0
  187.5660  178.0890  139.5820 C   0  0  0  0  0  0  0  0  0  0  0  0
  189.4310  176.8160  140.5740 N   0  0  0  0  0  0  0  0  0  0  0  0
  190.1640  176.6490  141.8570 C   0  0  1  0  0  3  0  0  0  0  0  0
  190.6860  177.5420  140.8290 C   0  0  0  0  0  2  0  0  0  0  0  0
  189.6030  177.4580  143.0290 C   0  0  2  0  0  3  0  0  0  0  0  0
  190.7100  178.2190  143.7210 C   0  0  1  0  0  3  0  0  0  0  0  0
  190.2140  176.9600  144.3180 C   0  0  2  0  0  0  0  0  0  0  0  0
  191.6360  177.3160  144.4220 N   0  0  0  0  0  2  0  0  0  0  0  0
  187.5750  177.8460  147.6410 C   0  0  0  0  0  3  0  0  0  0  0  0
  189.3700  177.2580  145.5480 C   0  0  0  0  0  0  0  0  0  0  0  0
  189.7690  177.1070  146.9070 C   0  0  0  0  0  0  0  0  0  0  0  0
  187.1690  177.9810  146.3150 C   0  0  0  0  0  3  0  0  0  0  0  0
  188.0590  177.6850  145.2800 C   0  0  0  0  0  3  0  0  0  0  0  0
  188.8680  177.4120  147.9340 C   0  0  0  0  0  3  0  0  0  0  0  0
  191.0810  176.6600  147.3110 C   0  0  0  0  0  0  0  0  0  0  0  0
  192.1340  176.3070  147.6370 N   0  0  0  0  0  0  0  0  0  0  0  0
  187.8240  177.4790  138.2340 C   0  0  2  0  0  3  0  0  0  0  0  0
  189.0320  179.3970  137.3770 N   0  0  0  0  0  2  0  0  0  0  0  0
  188.9950  178.1250  137.5500 C   0  0  0  0  0  0  0  0  0  0  0  0
  190.1330  177.2830  137.0810 C   0  0  0  0  0  1  0  0  0  0  0  0
  186.6350  177.5560  137.3980 N   0  0  0  0  0  2  0  0  0  0  0  0
  184.8290  176.0790  136.7100 C   0  0  2  0  0  0  0  0  0  0  0  0
  184.4210  176.8420  135.4680 C   0  0  0  0  0  2  0  0  0  0  0  0
  186.3190  176.2020  136.9690 C   0  0  1  0  0  3  0  0  0  0  0  0
  185.8030  176.2290  135.5460 C   0  0  1  0  0  3  0  0  0  0  0  0
  183.4850  172.0380  136.9370 C   0  0  0  0  0  3  0  0  0  0  0  0
  184.7280  172.4200  137.4350 C   0  0  0  0  0  3  0  0  0  0  0  0
  182.6890  173.0130  136.3420 C   0  0  0  0  0  3  0  0  0  0  0  0
  184.3490  174.6550  136.7520 C   0  0  0  0  0  0  0  0  0  0  0  0
  183.1270  174.2970  136.2620 N   0  0  0  0  0  0  0  0  0  0  0  0
  185.1370  173.7120  137.3340 N   0  0  0  0  0  0  0  0  0  0  0  0
  3  1  2  0  0  0  0
  3  2  1  0  0  0  0
  4  2  1  0  0  0  0
  4  6  1  0  0  0  0
  4  5  1  0  0  0  0
  5  6  1  6  0  0  0
  7  5  1  6  0  0  0
  7  8  1  0  0  0  0
  7  9  1  0  0  0  0
  8  9  1  0  0  0  0
  8 10  1  6  0  0  0
  9 10  1  0  0  0  0
  9 12  1  1  0  0  0
 11 16  1  0  0  0  0
 12 13  1  0  0  0  0
 13 17  1  0  0  0  0
 13 16  2  0  0  0  0
 14 11  2  0  0  0  0
 15 12  2  0  0  0  0
 15 14  1  0  0  0  0
 17 18  3  0  0  0  0
 19 23  1  6  0  0  0
 19  3  1  0  0  0  0
 20 21  2  0  0  0  0
 21 19  1  0  0  0  0
 22 21  1  0  0  0  0
 24 31  1  1  0  0  0
 24 26  1  0  0  0  0
 25 24  1  0  0  0  0
 26 23  1  1  0  0  0
 27 25  1  1  0  0  0
 27 24  1  0  0  0  0
 27 26  1  0  0  0  0
 28 29  1  0  0  0  0
 30 28  2  0  0  0  0
 31 33  1  0  0  0  0
 32 30  1  0  0  0  0
 32 31  2  0  0  0  0
 33 29  2  0  0  0  0
M  END
>  <MODEL>
4

>  <REMARK>
 VINA RESULT:      -8.1      2.908      4.951
  Name = 
  9 active torsions:
  status: ('A' for Active; 'I' for Inactive)
    1  A    between atoms: C_1  and  C_22
    2  A    between atoms: C_3  and  C_7
    3  A    between atoms: C_5  and  C_25
    4  A    between atoms: N_6  and  C_20
    5  A    between atoms: N_6  and  C_23
    6  A    between atoms: N_9  and  N_13
    7  A    between atoms: C_12  and  C_15
    8  A    between atoms: C_14  and  C_20
    9  A    between atoms: C_20  and  C_28
                            x       y       z     vdW  Elec       q    Type
                         _______ _______ _______ _____ _____    ______ ____

>  <TORSDO>
F 9

$$$$
=
 OpenBabel10232409333D

 33 39  0  0  1  0  0  0  0  0999 V2000
  189.6390  178.4090  138.9820 O   0  0  0  0  0  0  0  0  0  0  0  0
  189.8820  177.2290  140.9640 N   0  0  0  0  0  2  0  0  0  0  0  0
  190.1190  177.4040  139.5680 C   0  0  0  0  0  0  0  0  0  0  0  0
  190.3580  176.0930  141.6440 N   0  0  0  0  0  0  0  0  0  0  0  0
  189.8550  176.0500  143.0430 C   0  0  1  0  0  3  0  0  0  0  0  0
  191.1830  176.5830  142.7600 C   0  0  0  0  0  2  0  0  0  0  0  0
  188.8970  177.1820  143.4170 C   0  0  2  0  0  3  0  0  0  0  0  0
  189.4710  178.0060  144.5460 C   0  0  1  0  0  3  0  0  0  0  0  0
  188.4360  176.9940  144.8450 C   0  0  2  0  0  0  0  0  0  0  0  0
  189.5170  177.2490  145.8060 N   0  0  0  0  0  2  0  0  0  0  0  0
  184.5750  178.8750  145.4360 C   0  0  0  0  0  3  0  0  0  0  0  0
  187.1100  177.6730  145.1510 C   0  0  0  0  0  0  0  0  0  0  0  0
  186.6450  178.0860  146.4330 C   0  0  0  0  0  0  0  0  0  0  0  0
  185.0130  178.4600  144.1800 C   0  0  0  0  0  3  0  0  0  0  0  0
  186.2670  177.8610  144.0430 C   0  0  0  0  0  3  0  0  0  0  0  0
  185.3880  178.6890  146.5550 C   0  0  0  0  0  3  0  0  0  0  0  0
  187.4080  177.9320  147.6480 C   0  0  0  0  0  0  0  0  0  0  0  0
  188.0180  177.8030  148.6240 N   0  0  0  0  0  0  0  0  0  0  0  0
  190.9240  176.3940  138.8000 C   0  0  2  0  0  3  0  0  0  0  0  0
  192.9480  177.3520  139.7250 N   0  0  0  0  0  2  0  0  0  0  0  0
  192.3730  176.7830  138.7280 C   0  0  0  0  0  0  0  0  0  0  0  0
  193.1560  176.4900  137.4930 C   0  0  0  0  0  1  0  0  0  0  0  0
  190.3760  176.2080  137.4650 N   0  0  0  0  0  2  0  0  0  0  0  0
  189.6910  174.3530  136.0490 C   0  0  2  0  0  0  0  0  0  0  0  0
  191.0770  173.9020  135.6400 C   0  0  0  0  0  2  0  0  0  0  0  0
  189.6890  174.9250  137.4530 C   0  0  1  0  0  3  0  0  0  0  0  0
  190.6680  173.8280  137.0960 C   0  0  1  0  0  3  0  0  0  0  0  0
  186.7130  171.3540  135.4830 C   0  0  0  0  0  3  0  0  0  0  0  0
  187.9440  171.2860  134.8380 C   0  0  0  0  0  3  0  0  0  0  0  0
  186.4660  172.4430  136.3140 C   0  0  0  0  0  3  0  0  0  0  0  0
  188.6150  173.3230  135.8400 C   0  0  0  0  0  0  0  0  0  0  0  0
  187.4150  173.4020  136.4810 N   0  0  0  0  0  0  0  0  0  0  0  0
  188.8680  172.2640  135.0250 N   0  0  0  0  0  0  0  0  0  0  0  0
  1  3  2  0  0  0  0
  2  4  1  0  0  0  0
  3  2  1  0  0  0  0
  4  6  1  0  0  0  0
  4  5  1  0  0  0  0
  5  6  1  1  0  0  0
  7  5  1  1  0  0  0
  7  8  1  0  0  0  0
  7  9  1  0  0  0  0
  8  9  1  0  0  0  0
  8 10  1  1  0  0  0
  9 12  1  1  0  0  0
  9 10  1  0  0  0  0
 11 16  1  0  0  0  0
 12 13  1  0  0  0  0
 13 16  2  0  0  0  0
 13 17  1  0  0  0  0
 14 11  2  0  0  0  0
 15 14  1  0  0  0  0
 15 12  2  0  0  0  0
 17 18  3  0  0  0  0
 19 23  1  6  0  0  0
 19  3  1  0  0  0  0
 21 19  1  0  0  0  0
 21 20  2  0  0  0  0
 22 21  1  0  0  0  0
 24 31  1  6  0  0  0
 24 27  1  0  0  0  0
 24 26  1  0  0  0  0
 25 24  1  0  0  0  0
 26 23  1  6  0  0  0
 27 25  1  6  0  0  0
 27 26  1  0  0  0  0
 28 30  2  0  0  0  0
 29 33  2  0  0  0  0
 29 28  1  0  0  0  0
 30 32  1  0  0  0  0
 31 32  2  0  0  0  0
 33 31  1  0  0  0  0
M  END
>  <MODEL>
5

>  <REMARK>
 VINA RESULT:      -7.9      2.321      3.949
  Name = 
  9 active torsions:
  status: ('A' for Active; 'I' for Inactive)
    1  A    between atoms: C_1  and  C_22
    2  A    between atoms: C_3  and  C_7
    3  A    between atoms: C_5  and  C_25
    4  A    between atoms: N_6  and  C_20
    5  A    between atoms: N_6  and  C_23
    6  A    between atoms: N_9  and  N_13
    7  A    between atoms: C_12  and  C_15
    8  A    between atoms: C_14  and  C_20
    9  A    between atoms: C_20  and  C_28
                            x       y       z     vdW  Elec       q    Type
                         _______ _______ _______ _____ _____    ______ ____

>  <TORSDO>
F 9

$$$$
=
 OpenBabel10232409333D

 33 39  0  0  1  0  0  0  0  0999 V2000
  189.0370  178.8220  138.9750 O   0  0  0  0  0  0  0  0  0  0  0  0
  189.6500  177.5620  140.8230 N   0  0  0  0  0  2  0  0  0  0  0  0
  189.5060  177.7400  139.4150 C   0  0  0  0  0  0  0  0  0  0  0  0
  190.1220  176.3500  141.3560 N   0  0  0  0  0  0  0  0  0  0  0  0
  189.6730  176.1660  142.7620 C   0  0  1  0  0  3  0  0  0  0  0  0
  191.0030  176.6970  142.4840 C   0  0  0  0  0  2  0  0  0  0  0  0
  188.7590  177.2710  143.2960 C   0  0  2  0  0  3  0  0  0  0  0  0
  189.3930  177.9470  144.4890 C   0  0  1  0  0  3  0  0  0  0  0  0
  188.3390  176.9330  144.7080 C   0  0  2  0  0  0  0  0  0  0  0  0
  189.4580  177.0500  145.6530 N   0  0  0  0  0  2  0  0  0  0  0  0
  184.5420  178.7990  145.6510 C   0  0  0  0  0  3  0  0  0  0  0  0
  187.0440  177.6040  145.1360 C   0  0  0  0  0  0  0  0  0  0  0  0
  186.6830  177.9850  146.4600 C   0  0  0  0  0  0  0  0  0  0  0  0
  184.8780  178.4150  144.3540 C   0  0  0  0  0  3  0  0  0  0  0  0
  186.1160  177.8200  144.1030 C   0  0  0  0  0  3  0  0  0  0  0  0
  185.4410  178.5850  146.6960 C   0  0  0  0  0  3  0  0  0  0  0  0
  187.5400  177.8010  147.6070 C   0  0  0  0  0  0  0  0  0  0  0  0
  188.2320  177.6520  148.5230 N   0  0  0  0  0  0  0  0  0  0  0  0
  189.9010  176.6460  138.4640 C   0  0  2  0  0  3  0  0  0  0  0  0
  192.1790  177.2860  138.9820 N   0  0  0  0  0  2  0  0  0  0  0  0
  191.3850  176.4150  138.4740 C   0  0  0  0  0  0  0  0  0  0  0  0
  191.9400  175.1540  137.9010 C   0  0  0  0  0  1  0  0  0  0  0  0
  189.4360  176.9410  137.1180 N   0  0  0  0  0  2  0  0  0  0  0  0
  187.0990  176.2810  136.9860 C   0  0  2  0  0  0  0  0  0  0  0  0
  186.6500  177.3570  136.0200 C   0  0  0  0  0  2  0  0  0  0  0  0
  188.5350  175.8680  136.7240 C   0  0  1  0  0  3  0  0  0  0  0  0
  187.6690  176.3300  135.5720 C   0  0  1  0  0  3  0  0  0  0  0  0
  184.5000  172.9210  137.3640 C   0  0  0  0  0  3  0  0  0  0  0  0
  185.8810  172.7890  137.4820 C   0  0  0  0  0  3  0  0  0  0  0  0
  183.9820  174.1860  137.1010 C   0  0  0  0  0  3  0  0  0  0  0  0
  186.1660  175.1050  137.0850 C   0  0  0  0  0  0  0  0  0  0  0  0
  184.8160  175.2510  136.9690 N   0  0  0  0  0  0  0  0  0  0  0  0
  186.6850  173.8750  137.3410 N   0  0  0  0  0  0  0  0  0  0  0  0
  1  3  2  0  0  0  0
  2  4  1  0  0  0  0
  3  2  1  0  0  0  0
  4  6  1  0  0  0  0
  4  5  1  0  0  0  0
  5  6  1  1  0  0  0
  7  5  1  1  0  0  0
  7  8  1  0  0  0  0
  7  9  1  0  0  0  0
  8  9  1  0  0  0  0
  8 10  1  1  0  0  0
  9 12  1  1  0  0  0
  9 10  1  0  0  0  0
 11 16  1  0  0  0  0
 12 13  1  0  0  0  0
 13 16  2  0  0  0  0
 13 17  1  0  0  0  0
 14 11  2  0  0  0  0
 15 14  1  0  0  0  0
 15 12  2  0  0  0  0
 17 18  3  0  0  0  0
 19 23  1  6  0  0  0
 19 21  1  0  0  0  0
 19  3  1  0  0  0  0
 21 20  2  0  0  0  0
 22 21  1  0  0  0  0
 24 31  1  1  0  0  0
 25 24  1  0  0  0  0
 26 24  1  0  0  0  0
 26 23  1  1  0  0  0
 27 25  1  1  0  0  0
 27 26  1  0  0  0  0
 27 24  1  0  0  0  0
 28 29  1  0  0  0  0
 30 28  2  0  0  0  0
 31 33  1  0  0  0  0
 32 31  2  0  0  0  0
 32 30  1  0  0  0  0
 33 29  2  0  0  0  0
M  END
>  <MODEL>
6

>  <REMARK>
 VINA RESULT:      -7.8      2.509      4.565
  Name = 
  9 active torsions:
  status: ('A' for Active; 'I' for Inactive)
    1  A    between atoms: C_1  and  C_22
    2  A    between atoms: C_3  and  C_7
    3  A    between atoms: C_5  and  C_25
    4  A    between atoms: N_6  and  C_20
    5  A    between atoms: N_6  and  C_23
    6  A    between atoms: N_9  and  N_13
    7  A    between atoms: C_12  and  C_15
    8  A    between atoms: C_14  and  C_20
    9  A    between atoms: C_20  and  C_28
                            x       y       z     vdW  Elec       q    Type
                         _______ _______ _______ _____ _____    ______ ____

>  <TORSDO>
F 9

$$$$
=
 OpenBabel10232409333D

 33 39  0  0  1  0  0  0  0  0999 V2000
  186.7430  178.8250  139.6790 O   0  0  0  0  0  0  0  0  0  0  0  0
  188.5450  177.7930  140.7130 N   0  0  0  0  0  2  0  0  0  0  0  0
  187.7150  178.0330  139.5760 C   0  0  0  0  0  0  0  0  0  0  0  0
  189.6090  176.8770  140.6530 N   0  0  0  0  0  0  0  0  0  0  0  0
  190.2710  176.7290  141.9760 C   0  0  1  0  0  3  0  0  0  0  0  0
  190.8330  177.6280  140.9750 C   0  0  0  0  0  2  0  0  0  0  0  0
  189.6280  177.5300  143.1110 C   0  0  2  0  0  3  0  0  0  0  0  0
  190.6750  178.3370  143.8430 C   0  0  1  0  0  3  0  0  0  0  0  0
  190.1960  177.0680  144.4330 C   0  0  2  0  0  0  0  0  0  0  0  0
  191.5980  177.4750  144.5970 N   0  0  0  0  0  2  0  0  0  0  0  0
  187.3750  177.8930  147.6190 C   0  0  0  0  0  3  0  0  0  0  0  0
  189.2860  177.3500  145.6180 C   0  0  0  0  0  0  0  0  0  0  0  0
  189.6310  177.2410  146.9970 C   0  0  0  0  0  0  0  0  0  0  0  0
  187.0230  177.9860  146.2750 C   0  0  0  0  0  3  0  0  0  0  0  0
  187.9700  177.7120  145.2860 C   0  0  0  0  0  3  0  0  0  0  0  0
  188.6720  177.5240  147.9770 C   0  0  0  0  0  3  0  0  0  0  0  0
  190.9420  176.8620  147.4650 C   0  0  0  0  0  0  0  0  0  0  0  0
  191.9960  176.5590  147.8360 N   0  0  0  0  0  0  0  0  0  0  0  0
  187.9910  177.3410  138.2720 C   0  0  2  0  0  3  0  0  0  0  0  0
  188.9590  179.2360  137.1130 N   0  0  0  0  0  2  0  0  0  0  0  0
  189.0900  178.0210  137.5080 C   0  0  0  0  0  0  0  0  0  0  0  0
  190.3540  177.2840  137.2180 C   0  0  0  0  0  1  0  0  0  0  0  0
  186.7820  177.2580  137.4680 N   0  0  0  0  0  2  0  0  0  0  0  0
  186.6510  174.8760  136.9890 C   0  0  2  0  0  0  0  0  0  0  0  0
  185.1550  174.7280  137.1670 C   0  0  0  0  0  2  0  0  0  0  0  0
  187.0090  176.2470  136.4460 C   0  0  1  0  0  3  0  0  0  0  0  0
  185.6910  175.6110  136.0600 C   0  0  1  0  0  3  0  0  0  0  0  0
  188.5730  171.7050  134.8840 C   0  0  0  0  0  3  0  0  0  0  0  0
  189.2610  172.8600  135.2450 C   0  0  0  0  0  3  0  0  0  0  0  0
  187.2240  171.6140  135.2160 C   0  0  0  0  0  3  0  0  0  0  0  0
  187.3010  173.7590  136.2200 C   0  0  0  0  0  0  0  0  0  0  0  0
  186.6140  172.6330  135.8760 N   0  0  0  0  0  0  0  0  0  0  0  0
  188.6190  173.8610  135.9020 N   0  0  0  0  0  0  0  0  0  0  0  0
  3  1  2  0  0  0  0
  3  2  1  0  0  0  0
  4  2  1  0  0  0  0
  4  6  1  0  0  0  0
  4  5  1  0  0  0  0
  5  6  1  6  0  0  0
  7  5  1  6  0  0  0
  7  8  1  0  0  0  0
  7  9  1  0  0  0  0
  8  9  1  0  0  0  0
  8 10  1  6  0  0  0
  9 10  1  0  0  0  0
  9 12  1  1  0  0  0
 11 16  1  0  0  0  0
 12 13  1  0  0  0  0
 13 17  1  0  0  0  0
 13 16  2  0  0  0  0
 14 11  2  0  0  0  0
 15 12  2  0  0  0  0
 15 14  1  0  0  0  0
 17 18  3  0  0  0  0
 19 23  1  6  0  0  0
 19  3  1  0  0  0  0
 20 21  2  0  0  0  0
 21 19  1  0  0  0  0
 22 21  1  0  0  0  0
 24 31  1  6  0  0  0
 24 25  1  0  0  0  0
 26 24  1  0  0  0  0
 26 23  1  1  0  0  0
 27 26  1  0  0  0  0
 27 24  1  0  0  0  0
 27 25  1  1  0  0  0
 28 30  2  0  0  0  0
 28 29  1  0  0  0  0
 29 33  2  0  0  0  0
 30 32  1  0  0  0  0
 32 31  2  0  0  0  0
 33 31  1  0  0  0  0
M  END
>  <MODEL>
7

>  <REMARK>
 VINA RESULT:      -7.7      2.332      3.514
  Name = 
  9 active torsions:
  status: ('A' for Active; 'I' for Inactive)
    1  A    between atoms: C_1  and  C_22
    2  A    between atoms: C_3  and  C_7
    3  A    between atoms: C_5  and  C_25
    4  A    between atoms: N_6  and  C_20
    5  A    between atoms: N_6  and  C_23
    6  A    between atoms: N_9  and  N_13
    7  A    between atoms: C_12  and  C_15
    8  A    between atoms: C_14  and  C_20
    9  A    between atoms: C_20  and  C_28
                            x       y       z     vdW  Elec       q    Type
                         _______ _______ _______ _____ _____    ______ ____

>  <TORSDO>
F 9

$$$$
=
 OpenBabel10232409333D

 33 39  0  0  1  0  0  0  0  0999 V2000
  188.5460  175.4930  142.9780 O   0  0  0  0  0  0  0  0  0  0  0  0
  188.9160  176.9210  141.1890 N   0  0  0  0  0  2  0  0  0  0  0  0
  189.1870  176.4710  142.5160 C   0  0  0  0  0  0  0  0  0  0  0  0
  189.5750  178.0430  140.6550 N   0  0  0  0  0  0  0  0  0  0  0  0
  189.0510  178.3860  139.3060 C   0  0  1  0  0  3  0  0  0  0  0  0
  190.2650  177.5880  139.4370 C   0  0  0  0  0  2  0  0  0  0  0  0
  187.8900  177.5130  138.8250 C   0  0  2  0  0  3  0  0  0  0  0  0
  188.2000  176.9260  137.4670 C   0  0  1  0  0  3  0  0  0  0  0  0
  187.3110  178.1040  137.5600 C   0  0  2  0  0  0  0  0  0  0  0  0
  188.2270  177.9590  136.4200 N   0  0  0  0  0  2  0  0  0  0  0  0
  183.3020  176.7600  136.6080 C   0  0  0  0  0  3  0  0  0  0  0  0
  185.8690  177.6960  137.3010 C   0  0  0  0  0  0  0  0  0  0  0  0
  184.7360  178.0390  138.0930 C   0  0  0  0  0  0  0  0  0  0  0  0
  184.4060  176.4050  135.8360 C   0  0  0  0  0  3  0  0  0  0  0  0
  185.6770  176.8670  136.1840 C   0  0  0  0  0  3  0  0  0  0  0  0
  183.4670  177.5730  137.7290 C   0  0  0  0  0  3  0  0  0  0  0  0
  184.8050  178.8690  139.2720 C   0  0  0  0  0  0  0  0  0  0  0  0
  184.8570  179.5380  140.2150 N   0  0  0  0  0  0  0  0  0  0  0  0
  190.2200  177.1640  143.3590 C   0  0  2  0  0  3  0  0  0  0  0  0
  192.3920  176.9620  142.3040 N   0  0  0  0  0  2  0  0  0  0  0  0
  191.5750  176.5360  143.1970 C   0  0  0  0  0  0  0  0  0  0  0  0
  191.9810  175.4160  144.0960 C   0  0  0  0  0  1  0  0  0  0  0  0
  189.8210  177.1720  144.7580 N   0  0  0  0  0  2  0  0  0  0  0  0
  187.5380  177.3070  145.5860 C   0  0  2  0  0  0  0  0  0  0  0  0
  187.8550  177.1110  147.0530 C   0  0  0  0  0  2  0  0  0  0  0  0
  188.6590  178.0400  144.8720 C   0  0  1  0  0  3  0  0  0  0  0  0
  188.3860  178.3320  146.3320 C   0  0  1  0  0  3  0  0  0  0  0  0
  183.6820  178.9270  144.7570 C   0  0  0  0  0  3  0  0  0  0  0  0
  184.5420  178.5380  143.7340 C   0  0  0  0  0  3  0  0  0  0  0  0
  184.1200  178.7890  146.0710 C   0  0  0  0  0  3  0  0  0  0  0  0
  186.1870  177.9090  145.3160 C   0  0  0  0  0  0  0  0  0  0  0  0
  185.3550  178.2830  146.3290 N   0  0  0  0  0  0  0  0  0  0  0  0
  185.7710  178.0400  144.0280 N   0  0  0  0  0  0  0  0  0  0  0  0
  2  3  1  0  0  0  0
  3  1  2  0  0  0  0
  4  2  1  0  0  0  0
  5  6  1  6  0  0  0
  5  4  1  0  0  0  0
  6  4  1  0  0  0  0
  7  5  1  6  0  0  0
  8 10  1  6  0  0  0
  8  9  1  0  0  0  0
  8  7  1  0  0  0  0
  9 12  1  6  0  0  0
  9  7  1  0  0  0  0
 10  9  1  0  0  0  0
 11 16  1  0  0  0  0
 12 13  1  0  0  0  0
 13 17  1  0  0  0  0
 14 15  1  0  0  0  0
 14 11  2  0  0  0  0
 15 12  2  0  0  0  0
 16 13  2  0  0  0  0
 17 18  3  0  0  0  0
 19  3  1  6  0  0  0
 19 23  1  0  0  0  0
 20 21  2  0  0  0  0
 21 19  1  0  0  0  0
 21 22  1  0  0  0  0
 24 31  1  6  0  0  0
 24 27  1  0  0  0  0
 24 25  1  0  0  0  0
 26 23  1  1  0  0  0
 26 24  1  0  0  0  0
 26 27  1  0  0  0  0
 27 25  1  1  0  0  0
 28 30  2  0  0  0  0
 29 33  2  0  0  0  0
 29 28  1  0  0  0  0
 30 32  1  0  0  0  0
 31 32  2  0  0  0  0
 33 31  1  0  0  0  0
M  END
>  <MODEL>
8

>  <REMARK>
 VINA RESULT:      -7.7      3.051      8.968
  Name = 
  9 active torsions:
  status: ('A' for Active; 'I' for Inactive)
    1  A    between atoms: C_1  and  C_22
    2  A    between atoms: C_3  and  C_7
    3  A    between atoms: C_5  and  C_25
    4  A    between atoms: N_6  and  C_20
    5  A    between atoms: N_6  and  C_23
    6  A    between atoms: N_9  and  N_13
    7  A    between atoms: C_12  and  C_15
    8  A    between atoms: C_14  and  C_20
    9  A    between atoms: C_20  and  C_28
                            x       y       z     vdW  Elec       q    Type
                         _______ _______ _______ _____ _____    ______ ____

>  <TORSDO>
F 9

$$$$
=
 OpenBabel10232409333D

 33 39  0  0  1  0  0  0  0  0999 V2000
  189.4210  178.6250  138.9390 O   0  0  0  0  0  0  0  0  0  0  0  0
  189.9260  177.4820  140.8930 N   0  0  0  0  0  2  0  0  0  0  0  0
  189.8500  177.5690  139.4700 C   0  0  0  0  0  0  0  0  0  0  0  0
  190.3520  176.3010  141.5250 N   0  0  0  0  0  0  0  0  0  0  0  0
  189.7860  176.1870  142.8960 C   0  0  1  0  0  3  0  0  0  0  0  0
  191.1340  176.7090  142.7040 C   0  0  0  0  0  2  0  0  0  0  0  0
  188.8290  177.3140  143.2930 C   0  0  2  0  0  3  0  0  0  0  0  0
  189.2360  177.9040  144.6230 C   0  0  1  0  0  3  0  0  0  0  0  0
  188.1190  176.9380  144.5730 C   0  0  2  0  0  0  0  0  0  0  0  0
  189.0270  176.9570  145.7280 N   0  0  0  0  0  2  0  0  0  0  0  0
  184.3800  178.9610  145.4220 C   0  0  0  0  0  3  0  0  0  0  0  0
  186.7920  177.6560  144.7670 C   0  0  0  0  0  0  0  0  0  0  0  0
  186.0150  178.2900  143.7550 C   0  0  0  0  0  0  0  0  0  0  0  0
  185.1400  178.3590  146.4210 C   0  0  0  0  0  3  0  0  0  0  0  0
  186.3380  177.7170  146.0950 C   0  0  0  0  0  3  0  0  0  0  0  0
  184.8150  178.9250  144.0970 C   0  0  0  0  0  3  0  0  0  0  0  0
  186.3840  178.3130  142.3600 C   0  0  0  0  0  0  0  0  0  0  0  0
  186.6810  178.3360  141.2420 N   0  0  0  0  0  0  0  0  0  0  0  0
  190.2690  176.4080  138.6130 C   0  0  2  0  0  3  0  0  0  0  0  0
  192.6030  176.8820  139.0540 N   0  0  0  0  0  2  0  0  0  0  0  0
  191.7110  176.5120  138.2090 C   0  0  0  0  0  0  0  0  0  0  0  0
  192.1130  176.1680  136.8140 C   0  0  0  0  0  1  0  0  0  0  0  0
  189.4130  176.2990  137.4410 N   0  0  0  0  0  2  0  0  0  0  0  0
  188.0710  174.6520  136.2580 C   0  0  2  0  0  0  0  0  0  0  0  0
  189.1770  174.0930  135.3880 C   0  0  0  0  0  2  0  0  0  0  0  0
  188.6020  175.1020  137.6050 C   0  0  1  0  0  3  0  0  0  0  0  0
  189.2620  173.9420  136.8920 C   0  0  1  0  0  3  0  0  0  0  0  0
  184.7140  172.0430  136.5900 C   0  0  0  0  0  3  0  0  0  0  0  0
  185.6180  171.9330  135.5370 C   0  0  0  0  0  3  0  0  0  0  0  0
  184.9240  173.0450  137.5340 C   0  0  0  0  0  3  0  0  0  0  0  0
  186.8640  173.7630  136.3770 C   0  0  0  0  0  0  0  0  0  0  0  0
  185.9880  173.8810  137.4160 N   0  0  0  0  0  0  0  0  0  0  0  0
  186.6700  172.7890  135.4480 N   0  0  0  0  0  0  0  0  0  0  0  0
  1  3  2  0  0  0  0
  2  4  1  0  0  0  0
  3  2  1  0  0  0  0
  4  6  1  0  0  0  0
  4  5  1  0  0  0  0
  5  6  1  1  0  0  0
  7  5  1  1  0  0  0
  7  9  1  0  0  0  0
  7  8  1  0  0  0  0
  8 10  1  1  0  0  0
  9  8  1  0  0  0  0
  9 12  1  1  0  0  0
  9 10  1  0  0  0  0
 11 14  1  0  0  0  0
 12 15  1  0  0  0  0
 13 16  1  0  0  0  0
 13 12  2  0  0  0  0
 15 14  2  0  0  0  0
 16 11  2  0  0  0  0
 17 13  1  0  0  0  0
 18 17  3  0  0  0  0
 19 23  1  6  0  0  0
 19  3  1  0  0  0  0
 21 19  1  0  0  0  0
 21 20  2  0  0  0  0
 22 21  1  0  0  0  0
 24 31  1  6  0  0  0
 24 27  1  0  0  0  0
 24 26  1  0  0  0  0
 25 24  1  0  0  0  0
 26 23  1  6  0  0  0
 27 25  1  6  0  0  0
 27 26  1  0  0  0  0
 28 30  2  0  0  0  0
 29 28  1  0  0  0  0
 31 32  2  0  0  0  0
 32 30  1  0  0  0  0
 33 29  2  0  0  0  0
 33 31  1  0  0  0  0
M  END
>  <MODEL>
9

>  <REMARK>
 VINA RESULT:      -7.6      2.563      4.285
  Name = 
  9 active torsions:
  status: ('A' for Active; 'I' for Inactive)
    1  A    between atoms: C_1  and  C_22
    2  A    between atoms: C_3  and  C_7
    3  A    between atoms: C_5  and  C_25
    4  A    between atoms: N_6  and  C_20
    5  A    between atoms: N_6  and  C_23
    6  A    between atoms: N_9  and  N_13
    7  A    between atoms: C_12  and  C_15
    8  A    between atoms: C_14  and  C_20
    9  A    between atoms: C_20  and  C_28
                            x       y       z     vdW  Elec       q    Type
                         _______ _______ _______ _____ _____    ______ ____

>  <TORSDO>
F 9

$$$$
