=
 OpenBabel10232410533D

 49 55  0  0  1  0  0  0  0  0999 V2000
  187.5570  176.2240  134.3460 O   0  0  0  0  0  0  0  0  0  0  0  0
  186.8360  176.0700  137.1060 C   0  0  2  0  0  3  0  0  0  0  0  0
  184.0750  178.2530  142.6260 C   0  0  0  0  0  1  0  0  0  0  0  0
  189.4930  176.6720  141.2930 C   0  0  0  0  0  2  0  0  0  0  0  0
  191.2790  176.7890  139.5270 C   0  0  0  0  0  0  0  0  0  0  0  0
  189.4840  177.8740  142.2410 C   0  0  1  0  0  3  0  0  0  0  0  0
  185.8640  177.1560  136.6590 C   0  0  0  0  0  2  0  0  0  0  0  0
  184.5480  178.3780  141.3900 C   0  0  0  0  0  0  0  0  0  0  0  0
  189.8300  176.7960  134.7140 C   0  0  0  0  0  2  0  0  0  0  0  0
  185.9440  178.9010  141.1520 C   0  0  0  0  0  0  0  0  0  0  0  0
  184.1480  178.1360  139.0050 N   0  0  0  0  0  0  0  0  0  0  0  0
  188.1910  176.3390  136.6110 N   0  0  0  0  0  0  0  0  0  0  0  0
  188.3370  178.8320  141.9120 C   0  0  0  0  0  2  0  0  0  0  0  0
  186.3430  174.7090  136.6440 C   0  0  0  0  0  1  0  0  0  0  0  0
  191.6130  176.5630  138.2450 C   0  0  0  0  0  0  0  0  0  0  0  0
  183.6970  178.1140  140.3130 O   0  0  0  0  0  0  0  0  0  0  0  0
  189.8560  177.1230  139.8840 C   0  0  1  0  0  3  0  0  0  0  0  0
  192.0380  176.2350  135.3350 O   0  0  0  0  0  0  0  0  0  0  0  0
  190.8720  176.4860  135.7370 C   0  0  0  0  0  0  0  0  0  0  0  0
  188.9400  176.5760  138.9360 O   0  0  0  0  0  0  0  0  0  0  0  0
  186.3470  178.8100  139.7050 C   0  0  0  0  0  3  0  0  0  0  0  0
  190.5490  176.5270  137.1860 C   0  0  0  0  0  0  0  0  0  0  0  0
  186.9710  178.1550  142.0000 C   0  0  0  0  0  2  0  0  0  0  0  0
  185.5280  178.4410  138.7220 C   0  0  0  0  0  0  0  0  0  0  0  0
  192.2580  176.7960  140.5180 O   0  0  0  0  0  1  0  0  0  0  0  0
  188.4700  176.4180  135.1960 C   0  0  0  0  0  0  0  0  0  0  0  0
  189.2540  176.4930  137.5720 C   0  0  0  0  0  0  0  0  0  0  0  0
  186.0530  178.3280  137.4350 O   0  0  0  0  0  0  0  0  0  0  0  0
  180.0850  174.6830  137.8670 C   0  0  0  0  0  3  0  0  0  0  0  0
  180.7790  178.3390  138.3340 C   0  0  0  0  0  3  0  0  0  0  0  0
  182.4570  176.7470  137.9220 C   0  0  0  0  0  0  0  0  0  0  0  0
  182.5620  174.2370  137.7460 C   0  0  0  0  0  3  0  0  0  0  0  0
  181.2880  173.8520  137.7980 C   0  0  0  0  0  3  0  0  0  0  0  0
  182.0880  179.0890  138.0980 C   0  0  0  0  0  3  0  0  0  0  0  0
  181.0680  176.9260  138.1620 N   0  0  0  0  0  0  0  0  0  0  0  0
  183.1020  175.5980  137.7480 C   0  0  0  0  0  3  0  0  0  0  0  0
  179.9840  176.0010  138.0270 C   0  0  0  0  0  3  0  0  0  0  0  0
  183.1850  178.0420  137.9070 C   0  0  1  0  0  3  0  0  0  0  0  0
  193.3750  174.8560  137.8920 C   0  0  0  0  0  1  0  0  0  0  0  0
  193.0560  176.3410  137.9040 C   0  0  0  0  0  2  0  0  0  0  0  0
  189.5050  177.4920  143.6950 C   0  0  0  0  0  0  0  0  0  0  0  0
  190.5830  177.0760  144.2010 O   0  0  0  0  0  0  0  0  0  0  0  0
  189.4340  177.6390  146.6530 C   0  0  0  0  0  3  0  0  0  0  0  0
  188.3100  177.5750  144.4900 N   0  0  0  0  0  0  0  0  0  0  0  0
  188.2380  177.7100  145.7840 C   0  0  0  0  0  0  0  0  0  0  0  0
  189.3220  177.7440  147.9770 C   0  0  0  0  0  3  0  0  0  0  0  0
  186.8780  177.7360  146.4200 C   0  0  0  0  0  2  0  0  0  0  0  0
  188.0450  177.9780  148.5770 N   0  0  0  0  0  2  0  0  0  0  0  0
  186.9110  178.4430  147.7780 C   0  0  0  0  0  2  0  0  0  0  0  0
  1 26  2  0  0  0  0
  2 14  1  6  0  0  0
  4  6  1  0  0  0  0
  5 17  1  0  0  0  0
  5 25  1  0  0  0  0
  6 41  1  1  0  0  0
  7  2  1  0  0  0  0
  7 28  1  0  0  0  0
  8  3  1  0  0  0  0
  9 26  1  0  0  0  0
  9 19  1  0  0  0  0
 10  8  2  0  0  0  0
 10 23  1  0  0  0  0
 11 16  1  0  0  0  0
 12  2  1  0  0  0  0
 12 27  1  0  0  0  0
 13 23  1  0  0  0  0
 13  6  1  0  0  0  0
 15  5  2  0  0  0  0
 16  8  1  0  0  0  0
 17  4  1  1  0  0  0
 18 19  2  0  0  0  0
 19 22  1  0  0  0  0
 20 17  1  0  0  0  0
 21 10  1  0  0  0  0
 22 27  2  0  0  0  0
 22 15  1  0  0  0  0
 24 11  1  0  0  0  0
 24 21  2  0  0  0  0
 26 12  1  0  0  0  0
 27 20  1  0  0  0  0
 28 24  1  0  0  0  0
 29 37  2  0  0  0  0
 31 35  1  0  0  0  0
 32 36  1  0  0  0  0
 32 33  2  0  0  0  0
 33 29  1  0  0  0  0
 34 30  2  0  0  0  0
 35 30  1  0  0  0  0
 36 31  2  0  0  0  0
 37 35  1  0  0  0  0
 38 31  1  0  0  0  0
 38 34  1  1  0  0  0
 38 11  1  0  0  0  0
 39 40  1  0  0  0  0
 40 15  1  0  0  0  0
 41 42  2  0  0  0  0
 41 44  1  0  0  0  0
 43 46  2  0  0  0  0
 44 45  2  0  0  0  0
 45 47  1  0  0  0  0
 45 43  1  0  0  0  0
 46 48  1  0  0  0  0
 47 49  1  0  0  0  0
 49 48  1  0  0  0  0
M  END
>  <MODEL>
1

>  <REMARK>
 VINA RESULT:      -9.9      0.000      0.000
  Name = 
  4 active torsions:
  status: ('A' for Active; 'I' for Inactive)
    1  A    between atoms: C_4  and  C_13
    2  A    between atoms: C_4  and  N_16
    3  A    between atoms: C_10  and  C_25
    4  A    between atoms: N_20  and  C_44
                            x       y       z     vdW  Elec       q    Type
                         _______ _______ _______ _____ _____    ______ ____

>  <TORSDO>
F 4

$$$$
=
 OpenBabel10232410533D

 49 55  0  0  1  0  0  0  0  0999 V2000
  191.6260  176.1270  145.0940 O   0  0  0  0  0  0  0  0  0  0  0  0
  189.7000  175.8310  143.0060 C   0  0  2  0  0  3  0  0  0  0  0  0
  187.1960  176.9810  137.0660 C   0  0  0  0  0  1  0  0  0  0  0  0
  185.0900  177.6660  142.4260 C   0  0  0  0  0  2  0  0  0  0  0  0
  185.6520  178.4080  144.7620 C   0  0  0  0  0  0  0  0  0  0  0  0
  184.6470  178.8080  141.5060 C   0  0  1  0  0  3  0  0  0  0  0  0
  190.8550  176.4060  142.1940 C   0  0  0  0  0  2  0  0  0  0  0  0
  187.9970  177.2250  138.0980 C   0  0  0  0  0  0  0  0  0  0  0  0
  190.3200  177.5870  146.4320 C   0  0  0  0  0  2  0  0  0  0  0  0
  187.6210  178.2560  139.1350 C   0  0  0  0  0  0  0  0  0  0  0  0
  190.0820  176.7220  139.2430 N   0  0  0  0  0  0  0  0  0  0  0  0
  189.4850  176.6010  144.2360 N   0  0  0  0  0  0  0  0  0  0  0  0
  185.7610  179.2010  140.5330 C   0  0  0  0  0  2  0  0  0  0  0  0
  189.9600  174.3650  143.3130 C   0  0  0  0  0  1  0  0  0  0  0  0
  186.4660  178.2740  145.8220 C   0  0  0  0  0  0  0  0  0  0  0  0
  189.2390  176.5850  138.1540 O   0  0  0  0  0  0  0  0  0  0  0  0
  186.1770  178.1550  143.3750 C   0  0  1  0  0  3  0  0  0  0  0  0
  188.5350  178.0020  147.9200 O   0  0  0  0  0  0  0  0  0  0  0  0
  188.8700  177.7780  146.7280 C   0  0  0  0  0  0  0  0  0  0  0  0
  187.2700  177.2370  143.3930 O   0  0  0  0  0  0  0  0  0  0  0  0
  188.5710  178.2640  140.3020 C   0  0  0  0  0  3  0  0  0  0  0  0
  187.8630  177.7570  145.6360 C   0  0  0  0  0  0  0  0  0  0  0  0
  186.2020  178.0340  139.6530 C   0  0  0  0  0  2  0  0  0  0  0  0
  189.6910  177.5460  140.3590 C   0  0  0  0  0  0  0  0  0  0  0  0
  184.3450  178.8610  144.9320 O   0  0  0  0  0  1  0  0  0  0  0  0
  190.5190  176.7150  145.2380 C   0  0  0  0  0  0  0  0  0  0  0  0
  188.2000  177.2210  144.4420 C   0  0  0  0  0  0  0  0  0  0  0  0
  190.4430  177.5910  141.5330 O   0  0  0  0  0  0  0  0  0  0  0  0
  193.0140  174.4350  135.2560 C   0  0  0  0  0  3  0  0  0  0  0  0
  193.1230  177.2580  137.7230 C   0  0  0  0  0  3  0  0  0  0  0  0
  191.6720  175.4210  137.9230 C   0  0  0  0  0  0  0  0  0  0  0  0
  191.0640  173.4350  136.4990 C   0  0  0  0  0  3  0  0  0  0  0  0
  191.9190  173.4900  135.4800 C   0  0  0  0  0  3  0  0  0  0  0  0
  192.4400  177.3470  139.0860 C   0  0  0  0  0  3  0  0  0  0  0  0
  192.6460  176.0380  137.0940 N   0  0  0  0  0  0  0  0  0  0  0  0
  190.9880  174.3090  137.6710 C   0  0  0  0  0  3  0  0  0  0  0  0
  193.3290  175.5310  135.9420 C   0  0  0  0  0  3  0  0  0  0  0  0
  191.4440  176.1910  139.1720 C   0  0  1  0  0  3  0  0  0  0  0  0
  186.1660  180.1170  147.4510 C   0  0  0  0  0  1  0  0  0  0  0  0
  185.9480  178.6390  147.1810 C   0  0  0  0  0  2  0  0  0  0  0  0
  183.3460  178.5390  140.8020 C   0  0  0  0  0  0  0  0  0  0  0  0
  182.5370  179.4920  140.6330 O   0  0  0  0  0  0  0  0  0  0  0  0
  183.0980  177.7190  137.9660 C   0  0  0  0  0  3  0  0  0  0  0  0
  183.0180  177.2140  140.3500 N   0  0  0  0  0  0  0  0  0  0  0  0
  182.9670  176.7970  139.1170 C   0  0  0  0  0  0  0  0  0  0  0  0
  183.0050  177.2660  136.7160 C   0  0  0  0  0  3  0  0  0  0  0  0
  182.5640  175.3730  138.8650 C   0  0  0  0  0  2  0  0  0  0  0  0
  182.8250  175.8700  136.4660 N   0  0  0  0  0  2  0  0  0  0  0  0
  183.0790  174.8790  137.5120 C   0  0  0  0  0  2  0  0  0  0  0  0
  1 26  2  0  0  0  0
  2 14  1  1  0  0  0
  2 12  1  0  0  0  0
  3  8  1  0  0  0  0
  5 25  1  0  0  0  0
  5 15  2  0  0  0  0
  6 41  1  6  0  0  0
  6  4  1  0  0  0  0
  7  2  1  0  0  0  0
  8 16  1  0  0  0  0
  8 10  2  0  0  0  0
  9 19  1  0  0  0  0
 10 23  1  0  0  0  0
 10 21  1  0  0  0  0
 11 24  1  0  0  0  0
 12 27  1  0  0  0  0
 12 26  1  0  0  0  0
 13  6  1  0  0  0  0
 15 40  1  0  0  0  0
 16 11  1  0  0  0  0
 17  4  1  6  0  0  0
 17 20  1  0  0  0  0
 17  5  1  0  0  0  0
 19 18  2  0  0  0  0
 20 27  1  0  0  0  0
 21 24  2  0  0  0  0
 22 15  1  0  0  0  0
 22 19  1  0  0  0  0
 23 13  1  0  0  0  0
 24 28  1  0  0  0  0
 26  9  1  0  0  0  0
 27 22  2  0  0  0  0
 28  7  1  0  0  0  0
 29 33  1  0  0  0  0
 29 37  2  0  0  0  0
 30 34  2  0  0  0  0
 31 38  1  0  0  0  0
 32 36  1  0  0  0  0
 33 32  2  0  0  0  0
 35 30  1  0  0  0  0
 35 31  1  0  0  0  0
 36 31  2  0  0  0  0
 37 35  1  0  0  0  0
 38 34  1  6  0  0  0
 38 11  1  0  0  0  0
 40 39  1  0  0  0  0
 42 41  2  0  0  0  0
 43 45  1  0  0  0  0
 44 41  1  0  0  0  0
 45 44  2  0  0  0  0
 46 43  2  0  0  0  0
 47 45  1  0  0  0  0
 48 46  1  0  0  0  0
 48 49  1  0  0  0  0
 49 47  1  0  0  0  0
M  END
>  <MODEL>
2

>  <REMARK>
 VINA RESULT:      -8.1      2.045      9.024
  Name = 
  4 active torsions:
  status: ('A' for Active; 'I' for Inactive)
    1  A    between atoms: C_4  and  C_13
    2  A    between atoms: C_4  and  N_16
    3  A    between atoms: C_10  and  C_25
    4  A    between atoms: N_20  and  C_44
                            x       y       z     vdW  Elec       q    Type
                         _______ _______ _______ _____ _____    ______ ____

>  <TORSDO>
F 4

$$$$
=
 OpenBabel10232410533D

 49 55  0  0  1  0  0  0  0  0999 V2000
  189.3090  176.2340  136.2010 O   0  0  0  0  0  0  0  0  0  0  0  0
  187.1260  176.1470  138.0420 C   0  0  2  0  0  3  0  0  0  0  0  0
  181.4040  178.1330  140.5270 C   0  0  0  0  0  1  0  0  0  0  0  0
  186.7110  177.5980  142.8030 C   0  0  0  0  0  2  0  0  0  0  0  0
  189.1630  177.9430  142.3700 C   0  0  0  0  0  0  0  0  0  0  0  0
  185.9990  178.8420  143.3430 C   0  0  1  0  0  3  0  0  0  0  0  0
  186.4800  176.9730  136.9350 C   0  0  0  0  0  2  0  0  0  0  0  0
  182.4940  178.2580  139.7770 C   0  0  0  0  0  0  0  0  0  0  0  0
  190.8380  177.2850  137.6780 C   0  0  0  0  0  2  0  0  0  0  0  0
  183.6870  179.0360  140.2790 C   0  0  0  0  0  0  0  0  0  0  0  0
  183.6090  177.7570  137.6760 N   0  0  0  0  0  0  0  0  0  0  0  0
  188.4680  176.6490  138.3610 N   0  0  0  0  0  0  0  0  0  0  0  0
  185.1600  179.5170  142.2560 C   0  0  0  0  0  2  0  0  0  0  0  0
  187.1700  174.6820  137.6380 C   0  0  0  0  0  1  0  0  0  0  0  0
  190.2120  177.6930  141.5680 C   0  0  0  0  0  0  0  0  0  0  0  0
  182.4810  177.7430  138.4760 O   0  0  0  0  0  0  0  0  0  0  0  0
  187.7750  178.0050  141.7930 C   0  0  1  0  0  3  0  0  0  0  0  0
  192.3060  177.2380  139.5270 O   0  0  0  0  0  0  0  0  0  0  0  0
  191.1070  177.2740  139.1460 C   0  0  0  0  0  0  0  0  0  0  0  0
  187.6680  177.2110  140.6120 O   0  0  0  0  0  0  0  0  0  0  0  0
  184.8720  178.9190  139.3590 C   0  0  0  0  0  3  0  0  0  0  0  0
  189.9900  177.3590  140.1230 C   0  0  0  0  0  0  0  0  0  0  0  0
  184.0980  178.5830  141.6770 C   0  0  0  0  0  2  0  0  0  0  0  0
  184.8400  178.3160  138.1720 C   0  0  0  0  0  0  0  0  0  0  0  0
  189.3610  178.2260  143.7200 O   0  0  0  0  0  1  0  0  0  0  0  0
  189.5140  176.6750  137.3650 C   0  0  0  0  0  0  0  0  0  0  0  0
  188.7320  177.0910  139.7070 C   0  0  0  0  0  0  0  0  0  0  0  0
  186.0320  178.2150  137.4540 O   0  0  0  0  0  0  0  0  0  0  0  0
  181.2240  173.6020  135.0740 C   0  0  0  0  0  3  0  0  0  0  0  0
  181.2990  177.3500  135.1570 C   0  0  0  0  0  3  0  0  0  0  0  0
  182.9770  176.0020  136.0990 C   0  0  0  0  0  0  0  0  0  0  0  0
  183.3050  173.5370  136.4930 C   0  0  0  0  0  3  0  0  0  0  0  0
  182.2760  172.9670  135.8700 C   0  0  0  0  0  3  0  0  0  0  0  0
  182.4470  178.2620  135.5850 C   0  0  0  0  0  3  0  0  0  0  0  0
  181.7120  175.9900  135.4540 N   0  0  0  0  0  0  0  0  0  0  0  0
  183.6610  174.9560  136.5500 C   0  0  0  0  0  3  0  0  0  0  0  0
  180.9750  174.8970  134.8940 C   0  0  0  0  0  3  0  0  0  0  0  0
  183.4960  177.3840  136.2650 C   0  0  1  0  0  3  0  0  0  0  0  0
  191.8330  176.5490  143.0540 C   0  0  0  0  0  1  0  0  0  0  0  0
  191.5930  177.7460  142.1500 C   0  0  0  0  0  2  0  0  0  0  0  0
  185.2060  178.5840  144.5940 C   0  0  0  0  0  0  0  0  0  0  0  0
  184.0760  178.0330  144.4980 O   0  0  0  0  0  0  0  0  0  0  0  0
  187.3690  177.1990  146.0710 C   0  0  0  0  0  3  0  0  0  0  0  0
  185.7170  178.9830  145.8790 N   0  0  0  0  0  0  0  0  0  0  0  0
  186.7100  178.4440  146.5280 C   0  0  0  0  0  0  0  0  0  0  0  0
  188.3580  176.6540  146.7780 C   0  0  0  0  0  3  0  0  0  0  0  0
  187.0550  178.9950  147.8810 C   0  0  0  0  0  2  0  0  0  0  0  0
  188.8330  177.2910  147.9680 N   0  0  0  0  0  2  0  0  0  0  0  0
  188.5080  178.6890  148.2540 C   0  0  0  0  0  2  0  0  0  0  0  0
  1 26  2  0  0  0  0
  2 14  1  6  0  0  0
  2 12  1  0  0  0  0
  4  6  1  0  0  0  0
  5 25  1  0  0  0  0
  6 41  1  1  0  0  0
  7 28  1  0  0  0  0
  7  2  1  0  0  0  0
  8 10  2  0  0  0  0
  8  3  1  0  0  0  0
  9 19  1  0  0  0  0
 10 23  1  0  0  0  0
 11 24  1  0  0  0  0
 11 16  1  0  0  0  0
 12 27  1  0  0  0  0
 13  6  1  0  0  0  0
 15 40  1  0  0  0  0
 15  5  2  0  0  0  0
 16  8  1  0  0  0  0
 17  5  1  0  0  0  0
 17  4  1  1  0  0  0
 19 18  2  0  0  0  0
 19 22  1  0  0  0  0
 20 17  1  0  0  0  0
 21 10  1  0  0  0  0
 22 15  1  0  0  0  0
 23 13  1  0  0  0  0
 24 21  2  0  0  0  0
 26  9  1  0  0  0  0
 26 12  1  0  0  0  0
 27 22  2  0  0  0  0
 27 20  1  0  0  0  0
 28 24  1  0  0  0  0
 29 33  1  0  0  0  0
 30 35  1  0  0  0  0
 30 34  2  0  0  0  0
 31 38  1  0  0  0  0
 31 36  2  0  0  0  0
 32 36  1  0  0  0  0
 33 32  2  0  0  0  0
 35 31  1  0  0  0  0
 37 29  2  0  0  0  0
 37 35  1  0  0  0  0
 38 34  1  6  0  0  0
 38 11  1  0  0  0  0
 40 39  1  0  0  0  0
 41 44  1  0  0  0  0
 42 41  2  0  0  0  0
 43 45  1  0  0  0  0
 43 46  2  0  0  0  0
 44 45  2  0  0  0  0
 45 47  1  0  0  0  0
 46 48  1  0  0  0  0
 47 49  1  0  0  0  0
 48 49  1  0  0  0  0
M  END
>  <MODEL>
3

>  <REMARK>
 VINA RESULT:      -8.0      1.821      2.967
  Name = 
  4 active torsions:
  status: ('A' for Active; 'I' for Inactive)
    1  A    between atoms: C_4  and  C_13
    2  A    between atoms: C_4  and  N_16
    3  A    between atoms: C_10  and  C_25
    4  A    between atoms: N_20  and  C_44
                            x       y       z     vdW  Elec       q    Type
                         _______ _______ _______ _____ _____    ______ ____

>  <TORSDO>
F 4

$$$$
