=
 OpenBabel10232411283D

 36 40  0  0  1  0  0  0  0  0999 V2000
  181.4520  179.6270  139.7930 N   0  0  0  0  0  2  0  0  0  0  0  0
  182.4230  180.0650  138.8380 C   0  0  0  0  0  3  0  0  0  0  0  0
  183.4130  179.2920  138.5020 N   0  0  0  0  0  0  0  0  0  0  0  0
  183.5490  177.9050  138.9770 C   0  0  1  0  0  3  0  0  0  0  0  0
  180.8490  178.0260  141.3750 O   0  0  0  0  0  0  0  0  0  0  0  0
  181.7090  178.4520  140.5610 C   0  0  0  0  0  0  0  0  0  0  0  0
  183.0340  177.7630  140.4270 C   0  0  2  0  0  3  0  0  0  0  0  0
  182.9750  175.6180  138.6020 C   0  0  0  0  0  2  0  0  0  0  0  0
  183.5170  176.9970  136.7720 C   0  0  1  0  0  3  0  0  0  0  0  0
  182.8180  174.5050  136.3810 C   0  0  0  0  0  2  0  0  0  0  0  0
  183.6920  174.7310  137.6050 C   0  0  1  0  0  3  0  0  0  0  0  0
  182.8460  176.9800  138.0730 N   0  0  2  0  0  0  0  0  0  0  0  0
  183.8840  175.5790  136.3850 C   0  0  2  0  0  0  0  0  0  0  0  0
  182.6030  177.6140  135.7250 C   0  0  0  0  0  1  0  0  0  0  0  0
  185.2000  175.2850  135.6930 C   0  0  0  0  0  2  0  0  0  0  0  0
  186.2460  175.1030  136.6840 N   0  0  0  0  0  2  0  0  0  0  0  0
  187.1410  176.2420  136.5610 C   0  0  0  0  0  2  0  0  0  0  0  0
  186.9010  177.2370  137.6930 C   0  0  2  0  0  3  0  0  0  0  0  0
  186.4300  178.4280  137.1640 F   0  0  0  0  0  0  0  0  0  0  0  0
  188.1650  177.4760  138.5300 C   0  0  1  0  0  3  0  0  0  0  0  0
  189.0550  179.5370  137.4440 O   0  0  0  0  0  1  0  0  0  0  0  0
  189.2120  178.1880  137.7300 C   0  0  0  0  0  0  0  0  0  0  0  0
  190.2320  177.5760  137.3140 O   0  0  0  0  0  0  0  0  0  0  0  0
  187.8670  178.2710  139.7660 C   0  0  0  0  0  3  0  0  0  0  0  0
  188.5920  178.1490  140.8150 N   0  0  0  0  0  2  0  0  0  0  0  0
  185.2030  178.6070  143.1060 C   0  0  0  0  0  0  0  0  0  0  0  0
  184.7910  179.3580  141.1940 O   0  0  0  0  0  0  0  0  0  0  0  0
  185.5360  179.5780  142.2330 N   0  0  0  0  0  0  0  0  0  0  0  0
  184.0390  178.3040  141.4010 C   0  0  0  0  0  0  0  0  0  0  0  0
  184.2550  177.7780  142.6230 N   0  0  0  0  0  0  0  0  0  0  0  0
  185.8170  178.4580  144.4360 C   0  0  0  0  0  0  0  0  0  0  0  0
  185.1990  179.0120  145.5670 C   0  0  0  0  0  3  0  0  0  0  0  0
  187.0220  177.7570  144.5840 C   0  0  0  0  0  3  0  0  0  0  0  0
  185.7790  178.8620  146.8310 C   0  0  0  0  0  3  0  0  0  0  0  0
  186.9780  178.1610  146.9720 C   0  0  0  0  0  3  0  0  0  0  0  0
  187.6010  177.6090  145.8480 C   0  0  0  0  0  3  0  0  0  0  0  0
  1  6  1  0  0  0  0
  2  1  1  0  0  0  0
  3  2  2  0  0  0  0
  4  3  1  6  0  0  0
  4  7  1  0  0  0  0
  6  5  2  0  0  0  0
  7  6  1  0  0  0  0
  7 29  1  1  0  0  0
  9 14  1  6  0  0  0
  9 12  1  0  0  0  0
 10 13  1  0  0  0  0
 11 10  1  6  0  0  0
 11  8  1  0  0  0  0
 12  8  1  1  0  0  0
 12  4  1  0  0  0  0
 13 15  1  6  0  0  0
 13  9  1  0  0  0  0
 13 11  1  0  0  0  0
 15 16  1  0  0  0  0
 17 16  1  0  0  0  0
 17 18  1  0  0  0  0
 18 19  1  6  0  0  0
 18 20  1  0  0  0  0
 20 24  1  1  0  0  0
 21 22  1  0  0  0  0
 22 20  1  0  0  0  0
 23 22  2  0  0  0  0
 24 25  2  0  0  0  0
 26 31  1  0  0  0  0
 27 29  1  0  0  0  0
 27 28  1  0  0  0  0
 28 26  2  0  0  0  0
 29 30  2  0  0  0  0
 30 26  1  0  0  0  0
 31 33  2  0  0  0  0
 31 32  1  0  0  0  0
 32 34  2  0  0  0  0
 33 36  1  0  0  0  0
 34 35  1  0  0  0  0
 36 35  2  0  0  0  0
M  END
>  <MODEL>
1

>  <REMARK>
 VINA RESULT:      -7.5      0.000      0.000
  Name = 
  10 active torsions:
  status: ('A' for Active; 'I' for Inactive)
    1  A    between atoms: C_2  and  C_4
    2  A    between atoms: N_6  and  C_7
    3  A    between atoms: N_6  and  C_18
    4  A    between atoms: C_7  and  C_30
    5  A    between atoms: C_13  and  N_27
    6  A    between atoms: C_14  and  C_17
    7  A    between atoms: C_14  and  C_20
    8  A    between atoms: C_14  and  C_29
    9  A    between atoms: C_17  and  C_18
   10  A    between atoms: C_19  and  C_32
                            x       y       z     vdW  Elec       q    Type
                         _______ _______ _______ _____ _____    ______ ____

>  <TORSDO>
F 10

$$$$
=
 OpenBabel10232411283D

 36 40  0  0  1  0  0  0  0  0999 V2000
  192.0250  177.3810  144.7260 N   0  0  0  0  0  2  0  0  0  0  0  0
  191.3840  178.6590  144.6760 C   0  0  0  0  0  3  0  0  0  0  0  0
  190.1830  178.7750  144.1900 N   0  0  0  0  0  0  0  0  0  0  0  0
  189.3690  177.6220  143.7690 C   0  0  1  0  0  3  0  0  0  0  0  0
  191.9790  175.1430  144.0800 O   0  0  0  0  0  0  0  0  0  0  0  0
  191.4540  176.2840  144.0140 C   0  0  0  0  0  0  0  0  0  0  0  0
  190.2540  176.5190  143.1460 C   0  0  2  0  0  3  0  0  0  0  0  0
  187.3660  176.4790  144.3860 C   0  0  0  0  0  2  0  0  0  0  0  0
  188.1770  178.2230  145.7450 C   0  0  1  0  0  3  0  0  0  0  0  0
  186.0200  176.9100  146.4360 C   0  0  0  0  0  2  0  0  0  0  0  0
  186.1440  177.1800  144.9440 C   0  0  1  0  0  3  0  0  0  0  0  0
  188.5910  177.1000  144.9030 N   0  0  2  0  0  0  0  0  0  0  0  0
  186.6740  178.1780  145.9280 C   0  0  2  0  0  0  0  0  0  0  0  0
  188.8790  178.1510  147.0900 C   0  0  0  0  0  1  0  0  0  0  0  0
  185.8580  179.4560  145.9330 C   0  0  0  0  0  2  0  0  0  0  0  0
  184.5620  179.2130  145.3240 N   0  0  0  0  0  2  0  0  0  0  0  0
  184.5560  179.9290  144.0590 C   0  0  0  0  0  2  0  0  0  0  0  0
  183.7090  179.1890  143.0270 C   0  0  2  0  0  3  0  0  0  0  0  0
  183.0180  178.1640  143.6510 F   0  0  0  0  0  0  0  0  0  0  0  0
  184.5540  178.6490  141.8660 C   0  0  1  0  0  3  0  0  0  0  0  0
  184.4270  179.8610  139.6900 O   0  0  0  0  0  0  0  0  0  0  0  0
  183.8900  178.9140  140.5500 C   0  0  0  0  0  0  0  0  0  0  0  0
  182.8490  178.2860  140.2170 O   0  0  0  0  0  1  0  0  0  0  0  0
  185.9260  179.2560  141.8520 C   0  0  0  0  0  3  0  0  0  0  0  0
  186.9330  178.5900  141.4240 N   0  0  0  0  0  2  0  0  0  0  0  0
  190.6210  177.2030  139.6830 C   0  0  0  0  0  0  0  0  0  0  0  0
  191.8430  177.2840  141.3830 O   0  0  0  0  0  0  0  0  0  0  0  0
  191.8660  177.4980  140.1050 N   0  0  0  0  0  0  0  0  0  0  0  0
  190.6480  176.8830  141.7450 C   0  0  0  0  0  0  0  0  0  0  0  0
  189.8150  176.8050  140.6890 N   0  0  0  0  0  0  0  0  0  0  0  0
  190.1840  177.3160  138.2820 C   0  0  0  0  0  0  0  0  0  0  0  0
  189.2640  178.3060  137.9060 C   0  0  0  0  0  3  0  0  0  0  0  0
  190.6860  176.4400  137.3110 C   0  0  0  0  0  3  0  0  0  0  0  0
  188.8560  178.4190  136.5730 C   0  0  0  0  0  3  0  0  0  0  0  0
  189.3620  177.5440  135.6100 C   0  0  0  0  0  3  0  0  0  0  0  0
  190.2770  176.5530  135.9790 C   0  0  0  0  0  3  0  0  0  0  0  0
  2  1  1  0  0  0  0
  3  2  2  0  0  0  0
  4  3  1  1  0  0  0
  4 12  1  0  0  0  0
  6  5  2  0  0  0  0
  6  1  1  0  0  0  0
  7 29  1  6  0  0  0
  7  4  1  0  0  0  0
  7  6  1  0  0  0  0
  9 13  1  0  0  0  0
  9 14  1  1  0  0  0
 11  8  1  6  0  0  0
 11 13  1  0  0  0  0
 11 10  1  0  0  0  0
 12  8  1  6  0  0  0
 12  9  1  0  0  0  0
 13 15  1  1  0  0  0
 13 10  1  0  0  0  0
 16 15  1  0  0  0  0
 17 16  1  0  0  0  0
 18 19  1  1  0  0  0
 18 17  1  0  0  0  0
 20 24  1  6  0  0  0
 20 18  1  0  0  0  0
 21 22  2  0  0  0  0
 22 20  1  0  0  0  0
 23 22  1  0  0  0  0
 25 24  2  0  0  0  0
 26 28  2  0  0  0  0
 26 30  1  0  0  0  0
 27 29  1  0  0  0  0
 28 27  1  0  0  0  0
 30 29  2  0  0  0  0
 31 26  1  0  0  0  0
 32 31  1  0  0  0  0
 33 31  2  0  0  0  0
 34 32  2  0  0  0  0
 35 36  2  0  0  0  0
 35 34  1  0  0  0  0
 36 33  1  0  0  0  0
M  END
>  <MODEL>
2

>  <REMARK>
 VINA RESULT:      -7.3      3.594      8.723
  Name = 
  10 active torsions:
  status: ('A' for Active; 'I' for Inactive)
    1  A    between atoms: C_2  and  C_4
    2  A    between atoms: N_6  and  C_7
    3  A    between atoms: N_6  and  C_18
    4  A    between atoms: C_7  and  C_30
    5  A    between atoms: C_13  and  N_27
    6  A    between atoms: C_14  and  C_17
    7  A    between atoms: C_14  and  C_20
    8  A    between atoms: C_14  and  C_29
    9  A    between atoms: C_17  and  C_18
   10  A    between atoms: C_19  and  C_32
                            x       y       z     vdW  Elec       q    Type
                         _______ _______ _______ _____ _____    ______ ____

>  <TORSDO>
F 10

$$$$
=
 OpenBabel10232411283D

 36 40  0  0  1  0  0  0  0  0999 V2000
  190.0340  177.7160  136.7750 N   0  0  0  0  0  2  0  0  0  0  0  0
  190.0730  176.2890  136.8740 C   0  0  0  0  0  3  0  0  0  0  0  0
  189.0920  175.6390  137.4270 N   0  0  0  0  0  0  0  0  0  0  0  0
  187.8490  176.2880  137.8780 C   0  0  1  0  0  3  0  0  0  0  0  0
  188.9650  179.6910  137.3950 O   0  0  0  0  0  0  0  0  0  0  0  0
  189.0440  178.4400  137.5040 C   0  0  0  0  0  0  0  0  0  0  0  0
  188.1340  177.7000  138.4390 C   0  0  2  0  0  3  0  0  0  0  0  0
  186.1450  177.6150  136.8610 C   0  0  0  0  0  2  0  0  0  0  0  0
  185.8830  175.2780  136.9810 C   0  0  1  0  0  3  0  0  0  0  0  0
  184.0600  176.7470  135.8110 C   0  0  0  0  0  2  0  0  0  0  0  0
  184.6630  177.3670  137.0630 C   0  0  1  0  0  3  0  0  0  0  0  0
  186.8690  176.3420  136.7820 N   0  0  2  0  0  0  0  0  0  0  0  0
  184.4940  175.8810  136.9750 C   0  0  2  0  0  0  0  0  0  0  0  0
  186.0160  174.2350  135.8840 C   0  0  0  0  0  1  0  0  0  0  0  0
  183.4290  175.3750  137.9280 C   0  0  0  0  0  2  0  0  0  0  0  0
  182.3190  176.3110  137.9640 N   0  0  0  0  0  2  0  0  0  0  0  0
  182.2010  176.7650  139.3400 C   0  0  0  0  0  2  0  0  0  0  0  0
  181.7420  178.2190  139.3890 C   0  0  2  0  0  3  0  0  0  0  0  0
  181.9210  178.7980  138.1430 F   0  0  0  0  0  0  0  0  0  0  0  0
  182.4750  179.0210  140.4730 C   0  0  1  0  0  3  0  0  0  0  0  0
  182.7450  178.8180  142.9440 O   0  0  0  0  0  1  0  0  0  0  0  0
  181.9210  178.7190  141.8310 C   0  0  0  0  0  0  0  0  0  0  0  0
  180.7170  178.3750  141.9730 O   0  0  0  0  0  0  0  0  0  0  0  0
  183.9470  178.7360  140.4690 C   0  0  0  0  0  3  0  0  0  0  0  0
  184.7640  179.5100  139.8570 N   0  0  0  0  0  2  0  0  0  0  0  0
  188.9330  177.6080  141.8960 C   0  0  0  0  0  0  0  0  0  0  0  0
  189.9870  177.4600  140.0910 O   0  0  0  0  0  0  0  0  0  0  0  0
  190.1650  177.4460  141.3750 N   0  0  0  0  0  0  0  0  0  0  0  0
  188.7130  177.6140  139.8200 C   0  0  0  0  0  0  0  0  0  0  0  0
  187.9800  177.7220  140.9460 N   0  0  0  0  0  0  0  0  0  0  0  0
  188.6530  177.6400  143.3400 C   0  0  0  0  0  0  0  0  0  0  0  0
  187.3480  177.4360  143.8130 C   0  0  0  0  0  3  0  0  0  0  0  0
  189.6880  177.8710  144.2560 C   0  0  0  0  0  3  0  0  0  0  0  0
  187.0850  177.4580  145.1860 C   0  0  0  0  0  3  0  0  0  0  0  0
  188.1210  177.6860  146.0940 C   0  0  0  0  0  3  0  0  0  0  0  0
  189.4240  177.8940  145.6290 C   0  0  0  0  0  3  0  0  0  0  0  0
  1  2  1  0  0  0  0
  1  6  1  0  0  0  0
  2  3  2  0  0  0  0
  4  3  1  6  0  0  0
  4  7  1  0  0  0  0
  5  6  2  0  0  0  0
  6  7  1  0  0  0  0
  7 29  1  1  0  0  0
  8 11  1  0  0  0  0
  9 14  1  6  0  0  0
 10 13  1  0  0  0  0
 11 10  1  6  0  0  0
 12  8  1  1  0  0  0
 12  9  1  0  0  0  0
 12  4  1  0  0  0  0
 13  9  1  0  0  0  0
 13 11  1  0  0  0  0
 13 15  1  1  0  0  0
 15 16  1  0  0  0  0
 16 17  1  0  0  0  0
 17 18  1  0  0  0  0
 18 19  1  6  0  0  0
 18 20  1  0  0  0  0
 20 24  1  1  0  0  0
 20 22  1  0  0  0  0
 22 23  2  0  0  0  0
 22 21  1  0  0  0  0
 25 24  2  0  0  0  0
 26 31  1  0  0  0  0
 27 28  1  0  0  0  0
 28 26  2  0  0  0  0
 29 27  1  0  0  0  0
 29 30  2  0  0  0  0
 30 26  1  0  0  0  0
 31 32  2  0  0  0  0
 31 33  1  0  0  0  0
 32 34  1  0  0  0  0
 33 36  2  0  0  0  0
 34 35  2  0  0  0  0
 36 35  1  0  0  0  0
M  END
>  <MODEL>
3

>  <REMARK>
 VINA RESULT:      -7.2      1.849      5.490
  Name = 
  10 active torsions:
  status: ('A' for Active; 'I' for Inactive)
    1  A    between atoms: C_2  and  C_4
    2  A    between atoms: N_6  and  C_7
    3  A    between atoms: N_6  and  C_18
    4  A    between atoms: C_7  and  C_30
    5  A    between atoms: C_13  and  N_27
    6  A    between atoms: C_14  and  C_17
    7  A    between atoms: C_14  and  C_20
    8  A    between atoms: C_14  and  C_29
    9  A    between atoms: C_17  and  C_18
   10  A    between atoms: C_19  and  C_32
                            x       y       z     vdW  Elec       q    Type
                         _______ _______ _______ _____ _____    ______ ____

>  <TORSDO>
F 10

$$$$
=
 OpenBabel10232411283D

 36 40  0  0  1  0  0  0  0  0999 V2000
  190.1300  177.6280  137.1940 N   0  0  0  0  0  2  0  0  0  0  0  0
  190.0590  176.2240  137.4620 C   0  0  0  0  0  3  0  0  0  0  0  0
  188.9360  175.6770  137.8210 N   0  0  0  0  0  0  0  0  0  0  0  0
  187.6610  176.4130  137.8690 C   0  0  1  0  0  3  0  0  0  0  0  0
  189.0600  179.6950  137.2970 O   0  0  0  0  0  0  0  0  0  0  0  0
  189.0350  178.4650  137.5630 C   0  0  0  0  0  0  0  0  0  0  0  0
  187.8820  177.8750  138.3190 C   0  0  2  0  0  3  0  0  0  0  0  0
  186.2270  177.5990  136.3740 C   0  0  0  0  0  2  0  0  0  0  0  0
  186.0110  175.2640  136.5860 C   0  0  1  0  0  3  0  0  0  0  0  0
  184.4970  176.5770  134.9030 C   0  0  0  0  0  2  0  0  0  0  0  0
  184.7500  177.2970  136.2190 C   0  0  1  0  0  3  0  0  0  0  0  0
  186.9840  176.3570  136.5640 N   0  0  2  0  0  0  0  0  0  0  0  0
  184.6510  175.8020  136.1940 C   0  0  2  0  0  0  0  0  0  0  0  0
  186.4430  174.1640  135.6300 C   0  0  0  0  0  1  0  0  0  0  0  0
  183.3960  175.3070  136.8860 C   0  0  0  0  0  2  0  0  0  0  0  0
  183.2420  175.9800  138.1640 N   0  0  0  0  0  2  0  0  0  0  0  0
  181.8550  176.4110  138.2430 C   0  0  0  0  0  2  0  0  0  0  0  0
  181.7720  177.9260  138.4040 C   0  0  2  0  0  3  0  0  0  0  0  0
  182.0080  178.5310  137.1800 F   0  0  0  0  0  0  0  0  0  0  0  0
  182.7470  178.4490  139.4670 C   0  0  1  0  0  3  0  0  0  0  0  0
  182.4530  180.8210  138.7540 O   0  0  0  0  0  0  0  0  0  0  0  0
  183.3120  179.7780  139.0700 C   0  0  0  0  0  0  0  0  0  0  0  0
  184.5590  179.9580  139.0180 O   0  0  0  0  0  1  0  0  0  0  0  0
  182.0850  178.5790  140.8070 C   0  0  0  0  0  3  0  0  0  0  0  0
  180.8080  178.6220  140.9060 N   0  0  0  0  0  2  0  0  0  0  0  0
  188.9030  177.7280  141.7150 C   0  0  0  0  0  0  0  0  0  0  0  0
  187.2530  178.4680  140.6580 O   0  0  0  0  0  0  0  0  0  0  0  0
  187.7210  178.3560  141.8610 N   0  0  0  0  0  0  0  0  0  0  0  0
  188.0980  177.9460  139.8020 C   0  0  0  0  0  0  0  0  0  0  0  0
  189.1830  177.4450  140.4250 N   0  0  0  0  0  0  0  0  0  0  0  0
  189.8000  177.3990  142.8350 C   0  0  0  0  0  0  0  0  0  0  0  0
  189.8040  178.1900  143.9930 C   0  0  0  0  0  3  0  0  0  0  0  0
  190.6530  176.2900  142.7560 C   0  0  0  0  0  3  0  0  0  0  0  0
  190.6490  177.8720  145.0610 C   0  0  0  0  0  3  0  0  0  0  0  0
  191.4950  176.7650  144.9770 C   0  0  0  0  0  3  0  0  0  0  0  0
  191.4990  175.9730  143.8240 C   0  0  0  0  0  3  0  0  0  0  0  0
  1  2  1  0  0  0  0
  1  6  1  0  0  0  0
  2  3  2  0  0  0  0
  4  3  1  6  0  0  0
  4  7  1  0  0  0  0
  5  6  2  0  0  0  0
  6  7  1  0  0  0  0
  7 29  1  1  0  0  0
  9 14  1  6  0  0  0
 10 13  1  0  0  0  0
 11 10  1  6  0  0  0
 11  8  1  0  0  0  0
 12  8  1  1  0  0  0
 12  9  1  0  0  0  0
 12  4  1  0  0  0  0
 13 11  1  0  0  0  0
 13  9  1  0  0  0  0
 13 15  1  1  0  0  0
 15 16  1  0  0  0  0
 16 17  1  0  0  0  0
 17 18  1  0  0  0  0
 18 19  1  6  0  0  0
 18 20  1  0  0  0  0
 20 24  1  1  0  0  0
 21 22  2  0  0  0  0
 22 20  1  0  0  0  0
 23 22  1  0  0  0  0
 24 25  2  0  0  0  0
 26 28  2  0  0  0  0
 26 31  1  0  0  0  0
 27 28  1  0  0  0  0
 29 30  2  0  0  0  0
 29 27  1  0  0  0  0
 30 26  1  0  0  0  0
 31 32  1  0  0  0  0
 32 34  2  0  0  0  0
 33 31  2  0  0  0  0
 33 36  1  0  0  0  0
 35 34  1  0  0  0  0
 36 35  2  0  0  0  0
M  END
>  <MODEL>
4

>  <REMARK>
 VINA RESULT:      -6.6      2.492      5.432
  Name = 
  10 active torsions:
  status: ('A' for Active; 'I' for Inactive)
    1  A    between atoms: C_2  and  C_4
    2  A    between atoms: N_6  and  C_7
    3  A    between atoms: N_6  and  C_18
    4  A    between atoms: C_7  and  C_30
    5  A    between atoms: C_13  and  N_27
    6  A    between atoms: C_14  and  C_17
    7  A    between atoms: C_14  and  C_20
    8  A    between atoms: C_14  and  C_29
    9  A    between atoms: C_17  and  C_18
   10  A    between atoms: C_19  and  C_32
                            x       y       z     vdW  Elec       q    Type
                         _______ _______ _______ _____ _____    ______ ____

>  <TORSDO>
F 10

$$$$
=
 OpenBabel10232411283D

 36 40  0  0  1  0  0  0  0  0999 V2000
  187.5640  178.5410  136.2050 N   0  0  0  0  0  2  0  0  0  0  0  0
  186.6650  178.5530  137.3180 C   0  0  0  0  0  3  0  0  0  0  0  0
  186.8630  177.7670  138.3350 N   0  0  0  0  0  0  0  0  0  0  0  0
  188.0530  176.9110  138.4710 C   0  0  1  0  0  3  0  0  0  0  0  0
  189.3560  177.4900  135.1510 O   0  0  0  0  0  0  0  0  0  0  0  0
  188.5280  177.4950  136.0980 C   0  0  0  0  0  0  0  0  0  0  0  0
  188.5090  176.3740  137.0950 C   0  0  2  0  0  3  0  0  0  0  0  0
  190.4100  176.9680  138.8480 C   0  0  0  0  0  2  0  0  0  0  0  0
  188.9390  177.5620  140.5880 C   0  0  1  0  0  3  0  0  0  0  0  0
  191.5270  177.6810  140.9560 C   0  0  0  0  0  2  0  0  0  0  0  0
  191.0610  176.4910  140.1310 C   0  0  1  0  0  3  0  0  0  0  0  0
  189.1410  177.6420  139.1400 N   0  0  2  0  0  0  0  0  0  0  0  0
  190.1950  177.0180  141.2350 C   0  0  2  0  0  0  0  0  0  0  0  0
  188.6070  178.9370  141.1430 C   0  0  0  0  0  1  0  0  0  0  0  0
  190.1080  176.0480  142.3970 C   0  0  0  0  0  2  0  0  0  0  0  0
  191.1310  176.3640  143.3780 N   0  0  0  0  0  2  0  0  0  0  0  0
  190.4400  176.6280  144.6300 C   0  0  0  0  0  2  0  0  0  0  0  0
  189.6320  177.9190  144.5360 C   0  0  2  0  0  3  0  0  0  0  0  0
  190.4960  179.0020  144.5430 F   0  0  0  0  0  0  0  0  0  0  0  0
  188.6000  178.0380  145.6660 C   0  0  1  0  0  3  0  0  0  0  0  0
  187.0200  177.3140  143.8780 O   0  0  0  0  0  0  0  0  0  0  0  0
  187.2630  177.5260  145.2270 C   0  0  0  0  0  0  0  0  0  0  0  0
  186.3570  177.2880  146.0700 O   0  0  0  0  0  1  0  0  0  0  0  0
  189.0340  177.2890  146.8910 C   0  0  0  0  0  3  0  0  0  0  0  0
  189.2290  177.9010  147.9990 N   0  0  0  0  0  2  0  0  0  0  0  0
  185.9960  173.9680  136.3960 C   0  0  0  0  0  0  0  0  0  0  0  0
  188.0010  174.2650  135.8660 O   0  0  0  0  0  0  0  0  0  0  0  0
  187.0130  173.4460  135.6820 N   0  0  0  0  0  0  0  0  0  0  0  0
  187.6240  175.2490  136.6450 C   0  0  0  0  0  0  0  0  0  0  0  0
  186.3390  175.1110  137.0260 N   0  0  0  0  0  0  0  0  0  0  0  0
  184.6540  173.3670  136.4680 C   0  0  0  0  0  0  0  0  0  0  0  0
  184.4960  172.0400  136.8940 C   0  0  0  0  0  3  0  0  0  0  0  0
  183.5240  174.1160  136.1160 C   0  0  0  0  0  3  0  0  0  0  0  0
  183.2200  171.4720  136.9710 C   0  0  0  0  0  3  0  0  0  0  0  0
  182.0970  172.2250  136.6210 C   0  0  0  0  0  3  0  0  0  0  0  0
  182.2480  173.5470  136.1920 C   0  0  0  0  0  3  0  0  0  0  0  0
  1  2  1  0  0  0  0
  2  3  2  0  0  0  0
  4  3  1  6  0  0  0
  4 12  1  0  0  0  0
  5  6  2  0  0  0  0
  6  1  1  0  0  0  0
  6  7  1  0  0  0  0
  7 29  1  6  0  0  0
  7  4  1  0  0  0  0
  9 14  1  1  0  0  0
  9 13  1  0  0  0  0
 10 13  1  0  0  0  0
 11  8  1  6  0  0  0
 11 10  1  0  0  0  0
 11 13  1  0  0  0  0
 12  8  1  1  0  0  0
 12  9  1  0  0  0  0
 13 15  1  1  0  0  0
 15 16  1  0  0  0  0
 16 17  1  0  0  0  0
 18 19  1  1  0  0  0
 18 17  1  0  0  0  0
 18 20  1  0  0  0  0
 20 24  1  1  0  0  0
 21 22  2  0  0  0  0
 22 20  1  0  0  0  0
 22 23  1  0  0  0  0
 24 25  2  0  0  0  0
 26 31  1  0  0  0  0
 26 30  1  0  0  0  0
 27 29  1  0  0  0  0
 28 27  1  0  0  0  0
 28 26  2  0  0  0  0
 29 30  2  0  0  0  0
 31 32  1  0  0  0  0
 32 34  2  0  0  0  0
 33 36  1  0  0  0  0
 33 31  2  0  0  0  0
 35 34  1  0  0  0  0
 36 35  2  0  0  0  0
M  END
>  <MODEL>
5

>  <REMARK>
 VINA RESULT:      -6.3      3.565      8.426
  Name = 
  10 active torsions:
  status: ('A' for Active; 'I' for Inactive)
    1  A    between atoms: C_2  and  C_4
    2  A    between atoms: N_6  and  C_7
    3  A    between atoms: N_6  and  C_18
    4  A    between atoms: C_7  and  C_30
    5  A    between atoms: C_13  and  N_27
    6  A    between atoms: C_14  and  C_17
    7  A    between atoms: C_14  and  C_20
    8  A    between atoms: C_14  and  C_29
    9  A    between atoms: C_17  and  C_18
   10  A    between atoms: C_19  and  C_32
                            x       y       z     vdW  Elec       q    Type
                         _______ _______ _______ _____ _____    ______ ____

>  <TORSDO>
F 10

$$$$
=
 OpenBabel10232411283D

 36 40  0  0  1  0  0  0  0  0999 V2000
  190.0270  177.9480  137.1560 N   0  0  0  0  0  2  0  0  0  0  0  0
  189.9990  176.5190  137.2350 C   0  0  0  0  0  3  0  0  0  0  0  0
  188.9540  175.9050  137.7070 N   0  0  0  0  0  0  0  0  0  0  0  0
  187.7110  176.6010  138.0800 C   0  0  1  0  0  3  0  0  0  0  0  0
  189.0010  179.9580  137.7310 O   0  0  0  0  0  0  0  0  0  0  0  0
  189.0190  178.7040  137.8250 C   0  0  0  0  0  0  0  0  0  0  0  0
  188.0150  177.9920  138.6810 C   0  0  2  0  0  3  0  0  0  0  0  0
  185.6620  177.5390  137.2910 C   0  0  0  0  0  2  0  0  0  0  0  0
  186.2970  175.3810  136.5970 C   0  0  1  0  0  3  0  0  0  0  0  0
  184.0890  176.4570  135.6930 C   0  0  0  0  0  2  0  0  0  0  0  0
  184.3780  176.7450  137.1580 C   0  0  1  0  0  3  0  0  0  0  0  0
  186.8140  176.7120  136.9180 N   0  0  2  0  0  0  0  0  0  0  0  0
  184.7840  175.4310  136.5630 C   0  0  2  0  0  0  0  0  0  0  0  0
  186.8440  174.9200  135.2550 C   0  0  0  0  0  1  0  0  0  0  0  0
  183.9610  174.2830  137.1130 C   0  0  0  0  0  2  0  0  0  0  0  0
  182.9910  173.8550  136.1200 N   0  0  0  0  0  2  0  0  0  0  0  0
  181.9160  173.1970  136.8440 C   0  0  0  0  0  2  0  0  0  0  0  0
  182.0720  171.6800  136.7760 C   0  0  2  0  0  3  0  0  0  0  0  0
  183.0010  171.2720  137.7180 F   0  0  0  0  0  0  0  0  0  0  0  0
  182.4720  171.2030  135.3730 C   0  0  1  0  0  3  0  0  0  0  0  0
  183.2390  168.8320  135.4780 O   0  0  0  0  0  1  0  0  0  0  0  0
  183.5640  170.1810  135.4450 C   0  0  0  0  0  0  0  0  0  0  0  0
  184.7740  170.5330  135.4770 O   0  0  0  0  0  0  0  0  0  0  0  0
  181.3040  170.6210  134.6340 C   0  0  0  0  0  3  0  0  0  0  0  0
  180.1030  170.9080  134.9750 N   0  0  0  0  0  2  0  0  0  0  0  0
  188.5470  177.7340  142.1810 C   0  0  0  0  0  0  0  0  0  0  0  0
  189.7470  177.8060  140.4650 O   0  0  0  0  0  0  0  0  0  0  0  0
  189.8250  177.7200  141.7570 N   0  0  0  0  0  0  0  0  0  0  0  0
  188.4890  177.8640  140.0990 C   0  0  0  0  0  0  0  0  0  0  0  0
  187.6640  177.8280  141.1640 N   0  0  0  0  0  0  0  0  0  0  0  0
  188.1530  177.6420  143.5960 C   0  0  0  0  0  0  0  0  0  0  0  0
  189.1310  177.6010  144.6010 C   0  0  0  0  0  3  0  0  0  0  0  0
  186.7990  177.6000  143.9530 C   0  0  0  0  0  3  0  0  0  0  0  0
  188.7570  177.5230  145.9460 C   0  0  0  0  0  3  0  0  0  0  0  0
  187.4060  177.4840  146.2950 C   0  0  0  0  0  3  0  0  0  0  0  0
  186.4250  177.5210  145.2980 C   0  0  0  0  0  3  0  0  0  0  0  0
  1  2  1  0  0  0  0
  1  6  1  0  0  0  0
  2  3  2  0  0  0  0
  4  3  1  6  0  0  0
  4  7  1  0  0  0  0
  5  6  2  0  0  0  0
  6  7  1  0  0  0  0
  7 29  1  1  0  0  0
  9 14  1  6  0  0  0
  9 12  1  0  0  0  0
 10 13  1  0  0  0  0
 11 10  1  6  0  0  0
 11  8  1  0  0  0  0
 12  8  1  1  0  0  0
 12  4  1  0  0  0  0
 13  9  1  0  0  0  0
 13 15  1  1  0  0  0
 13 11  1  0  0  0  0
 16 17  1  0  0  0  0
 16 15  1  0  0  0  0
 18 17  1  0  0  0  0
 18 19  1  1  0  0  0
 20 24  1  1  0  0  0
 20 22  1  0  0  0  0
 20 18  1  0  0  0  0
 22 23  2  0  0  0  0
 22 21  1  0  0  0  0
 24 25  2  0  0  0  0
 26 31  1  0  0  0  0
 27 28  1  0  0  0  0
 28 26  2  0  0  0  0
 29 27  1  0  0  0  0
 29 30  2  0  0  0  0
 30 26  1  0  0  0  0
 31 33  2  0  0  0  0
 31 32  1  0  0  0  0
 32 34  2  0  0  0  0
 33 36  1  0  0  0  0
 34 35  1  0  0  0  0
 36 35  2  0  0  0  0
M  END
>  <MODEL>
6

>  <REMARK>
 VINA RESULT:      -6.2      3.632      6.417
  Name = 
  10 active torsions:
  status: ('A' for Active; 'I' for Inactive)
    1  A    between atoms: C_2  and  C_4
    2  A    between atoms: N_6  and  C_7
    3  A    between atoms: N_6  and  C_18
    4  A    between atoms: C_7  and  C_30
    5  A    between atoms: C_13  and  N_27
    6  A    between atoms: C_14  and  C_17
    7  A    between atoms: C_14  and  C_20
    8  A    between atoms: C_14  and  C_29
    9  A    between atoms: C_17  and  C_18
   10  A    between atoms: C_19  and  C_32
                            x       y       z     vdW  Elec       q    Type
                         _______ _______ _______ _____ _____    ______ ____

>  <TORSDO>
F 10

$$$$
=
 OpenBabel10232411283D

 36 40  0  0  1  0  0  0  0  0999 V2000
  189.0770  177.8340  136.4130 N   0  0  0  0  0  2  0  0  0  0  0  0
  188.6490  176.4730  136.5090 C   0  0  0  0  0  3  0  0  0  0  0  0
  187.7420  176.1260  137.3750 N   0  0  0  0  0  0  0  0  0  0  0  0
  187.0240  177.0950  138.2210 C   0  0  1  0  0  3  0  0  0  0  0  0
  189.0280  179.9700  137.3420 O   0  0  0  0  0  0  0  0  0  0  0  0
  188.6980  178.7590  137.4310 C   0  0  0  0  0  0  0  0  0  0  0  0
  187.9490  178.2630  138.6320 C   0  0  2  0  0  3  0  0  0  0  0  0
  185.0360  178.3910  138.4750 C   0  0  0  0  0  2  0  0  0  0  0  0
  184.9940  176.4420  137.1540 C   0  0  1  0  0  3  0  0  0  0  0  0
  182.8440  177.9170  137.3920 C   0  0  0  0  0  2  0  0  0  0  0  0
  183.6620  177.7820  138.6680 C   0  0  1  0  0  3  0  0  0  0  0  0
  185.8220  177.5890  137.5320 N   0  0  2  0  0  0  0  0  0  0  0  0
  183.5950  176.6390  137.7010 C   0  0  2  0  0  0  0  0  0  0  0  0
  184.9580  176.3030  135.6410 C   0  0  0  0  0  1  0  0  0  0  0  0
  182.8140  175.4680  138.2630 C   0  0  0  0  0  2  0  0  0  0  0  0
  181.4470  175.5100  137.7750 N   0  0  0  0  0  2  0  0  0  0  0  0
  181.1560  174.1920  137.2360 C   0  0  0  0  0  2  0  0  0  0  0  0
  182.1660  173.8200  136.1540 C   0  0  2  0  0  3  0  0  0  0  0  0
  181.9720  174.6300  135.0470 F   0  0  0  0  0  0  0  0  0  0  0  0
  182.0770  172.3380  135.7660 C   0  0  1  0  0  3  0  0  0  0  0  0
  183.9200  171.8160  137.3630 O   0  0  0  0  0  1  0  0  0  0  0  0
  183.3400  171.6140  136.1190 C   0  0  0  0  0  0  0  0  0  0  0  0
  183.8810  170.8250  135.2980 O   0  0  0  0  0  0  0  0  0  0  0  0
  180.9200  171.6600  136.4370 C   0  0  0  0  0  3  0  0  0  0  0  0
  180.2950  170.7030  135.8580 N   0  0  0  0  0  2  0  0  0  0  0  0
  189.7090  177.4420  141.6030 C   0  0  0  0  0  0  0  0  0  0  0  0
  190.1070  177.4110  139.5460 O   0  0  0  0  0  0  0  0  0  0  0  0
  190.6560  177.1480  140.6910 N   0  0  0  0  0  0  0  0  0  0  0  0
  188.8820  177.8400  139.7280 C   0  0  0  0  0  0  0  0  0  0  0  0
  188.5670  177.8880  141.0380 N   0  0  0  0  0  0  0  0  0  0  0  0
  189.8930  177.2810  143.0540 C   0  0  0  0  0  0  0  0  0  0  0  0
  188.8430  177.5750  143.9370 C   0  0  0  0  0  3  0  0  0  0  0  0
  191.1160  176.8270  143.5660 C   0  0  0  0  0  3  0  0  0  0  0  0
  189.0160  177.4130  145.3150 C   0  0  0  0  0  3  0  0  0  0  0  0
  190.2360  176.9590  145.8190 C   0  0  0  0  0  3  0  0  0  0  0  0
  191.2880  176.6660  144.9440 C   0  0  0  0  0  3  0  0  0  0  0  0
  1  2  1  0  0  0  0
  1  6  1  0  0  0  0
  2  3  2  0  0  0  0
  4  3  1  6  0  0  0
  4  7  1  0  0  0  0
  5  6  2  0  0  0  0
  6  7  1  0  0  0  0
  7 29  1  1  0  0  0
  8 11  1  0  0  0  0
  9 14  1  6  0  0  0
  9 12  1  0  0  0  0
  9 13  1  0  0  0  0
 10 13  1  0  0  0  0
 11 10  1  6  0  0  0
 12  4  1  0  0  0  0
 12  8  1  1  0  0  0
 13 15  1  1  0  0  0
 13 11  1  0  0  0  0
 16 15  1  0  0  0  0
 17 16  1  0  0  0  0
 18 19  1  6  0  0  0
 18 17  1  0  0  0  0
 20 22  1  0  0  0  0
 20 18  1  0  0  0  0
 20 24  1  1  0  0  0
 22 21  1  0  0  0  0
 23 22  2  0  0  0  0
 25 24  2  0  0  0  0
 26 31  1  0  0  0  0
 27 29  1  0  0  0  0
 27 28  1  0  0  0  0
 28 26  2  0  0  0  0
 29 30  2  0  0  0  0
 30 26  1  0  0  0  0
 31 33  2  0  0  0  0
 31 32  1  0  0  0  0
 32 34  2  0  0  0  0
 33 36  1  0  0  0  0
 34 35  1  0  0  0  0
 36 35  2  0  0  0  0
M  END
>  <MODEL>
7

>  <REMARK>
 VINA RESULT:      -6.2      3.313      6.184
  Name = 
  10 active torsions:
  status: ('A' for Active; 'I' for Inactive)
    1  A    between atoms: C_2  and  C_4
    2  A    between atoms: N_6  and  C_7
    3  A    between atoms: N_6  and  C_18
    4  A    between atoms: C_7  and  C_30
    5  A    between atoms: C_13  and  N_27
    6  A    between atoms: C_14  and  C_17
    7  A    between atoms: C_14  and  C_20
    8  A    between atoms: C_14  and  C_29
    9  A    between atoms: C_17  and  C_18
   10  A    between atoms: C_19  and  C_32
                            x       y       z     vdW  Elec       q    Type
                         _______ _______ _______ _____ _____    ______ ____

>  <TORSDO>
F 10

$$$$
=
 OpenBabel10232411283D

 36 40  0  0  1  0  0  0  0  0999 V2000
  189.8650  177.6150  136.0880 N   0  0  0  0  0  2  0  0  0  0  0  0
  188.5340  178.0150  136.4280 C   0  0  0  0  0  3  0  0  0  0  0  0
  187.9610  177.5560  137.5010 N   0  0  0  0  0  0  0  0  0  0  0  0
  188.6540  176.7010  138.4810 C   0  0  1  0  0  3  0  0  0  0  0  0
  191.6490  176.1840  136.5280 O   0  0  0  0  0  0  0  0  0  0  0  0
  190.4650  176.5230  136.7830 C   0  0  0  0  0  0  0  0  0  0  0  0
  189.6520  175.7530  137.7800 C   0  0  2  0  0  3  0  0  0  0  0  0
  190.6570  176.9560  139.7540 C   0  0  0  0  0  2  0  0  0  0  0  0
  188.5780  177.4390  140.7480 C   0  0  1  0  0  3  0  0  0  0  0  0
  190.7930  177.7760  142.1020 C   0  0  0  0  0  2  0  0  0  0  0  0
  190.7800  176.5450  141.2080 C   0  0  1  0  0  3  0  0  0  0  0  0
  189.3300  177.5260  139.4950 N   0  0  2  0  0  0  0  0  0  0  0  0
  189.5120  177.0060  141.8590 C   0  0  2  0  0  0  0  0  0  0  0  0
  187.9530  178.7860  141.0730 C   0  0  0  0  0  1  0  0  0  0  0  0
  189.0420  176.0410  142.9290 C   0  0  0  0  0  2  0  0  0  0  0  0
  187.7970  176.5150  143.5060 N   0  0  0  0  0  2  0  0  0  0  0  0
  188.1220  177.7030  144.2790 C   0  0  0  0  0  2  0  0  0  0  0  0
  187.8470  177.4700  145.7620 C   0  0  2  0  0  3  0  0  0  0  0  0
  186.7250  178.1900  146.1390 F   0  0  0  0  0  0  0  0  0  0  0  0
  189.0510  177.8410  146.6380 C   0  0  1  0  0  3  0  0  0  0  0  0
  187.9350  176.5710  148.4710 O   0  0  0  0  0  0  0  0  0  0  0  0
  188.7450  177.6310  148.0890 C   0  0  0  0  0  0  0  0  0  0  0  0
  189.2140  178.4060  148.9650 O   0  0  0  0  0  1  0  0  0  0  0  0
  190.2670  177.0420  146.2730 C   0  0  0  0  0  3  0  0  0  0  0  0
  191.0130  176.5310  147.1800 N   0  0  0  0  0  2  0  0  0  0  0  0
  187.4690  173.2170  136.5970 C   0  0  0  0  0  0  0  0  0  0  0  0
  189.4770  173.7420  136.3150 O   0  0  0  0  0  0  0  0  0  0  0  0
  188.5970  172.8630  135.9510 N   0  0  0  0  0  0  0  0  0  0  0  0
  188.9300  174.6060  137.1360 C   0  0  0  0  0  0  0  0  0  0  0  0
  187.6340  174.3160  137.3630 N   0  0  0  0  0  0  0  0  0  0  0  0
  186.1920  172.4960  136.4690 C   0  0  0  0  0  0  0  0  0  0  0  0
  186.0400  171.4940  135.4990 C   0  0  0  0  0  3  0  0  0  0  0  0
  185.1190  172.8000  137.3180 C   0  0  0  0  0  3  0  0  0  0  0  0
  184.8300  170.8020  135.3840 C   0  0  0  0  0  3  0  0  0  0  0  0
  183.7660  171.1090  136.2350 C   0  0  0  0  0  3  0  0  0  0  0  0
  183.9090  172.1090  137.2020 C   0  0  0  0  0  3  0  0  0  0  0  0
  1  2  1  0  0  0  0
  1  6  1  0  0  0  0
  2  3  2  0  0  0  0
  4  3  1  6  0  0  0
  4 12  1  0  0  0  0
  5  6  2  0  0  0  0
  6  7  1  0  0  0  0
  7 29  1  6  0  0  0
  7  4  1  0  0  0  0
  9 14  1  1  0  0  0
  9 13  1  0  0  0  0
 11  8  1  6  0  0  0
 11 13  1  0  0  0  0
 11 10  1  0  0  0  0
 12  8  1  1  0  0  0
 12  9  1  0  0  0  0
 13 10  1  0  0  0  0
 13 15  1  1  0  0  0
 15 16  1  0  0  0  0
 16 17  1  0  0  0  0
 17 18  1  0  0  0  0
 18 19  1  1  0  0  0
 18 20  1  0  0  0  0
 20 24  1  6  0  0  0
 20 22  1  0  0  0  0
 22 21  2  0  0  0  0
 22 23  1  0  0  0  0
 24 25  2  0  0  0  0
 26 30  1  0  0  0  0
 27 29  1  0  0  0  0
 28 27  1  0  0  0  0
 28 26  2  0  0  0  0
 29 30  2  0  0  0  0
 31 26  1  0  0  0  0
 31 33  1  0  0  0  0
 32 31  2  0  0  0  0
 34 32  1  0  0  0  0
 34 35  2  0  0  0  0
 35 36  1  0  0  0  0
 36 33  2  0  0  0  0
M  END
>  <MODEL>
8

>  <REMARK>
 VINA RESULT:      -6.0      4.443      9.098
  Name = 
  10 active torsions:
  status: ('A' for Active; 'I' for Inactive)
    1  A    between atoms: C_2  and  C_4
    2  A    between atoms: N_6  and  C_7
    3  A    between atoms: N_6  and  C_18
    4  A    between atoms: C_7  and  C_30
    5  A    between atoms: C_13  and  N_27
    6  A    between atoms: C_14  and  C_17
    7  A    between atoms: C_14  and  C_20
    8  A    between atoms: C_14  and  C_29
    9  A    between atoms: C_17  and  C_18
   10  A    between atoms: C_19  and  C_32
                            x       y       z     vdW  Elec       q    Type
                         _______ _______ _______ _____ _____    ______ ____

>  <TORSDO>
F 10

$$$$
=
 OpenBabel10232411283D

 36 40  0  0  1  0  0  0  0  0999 V2000
  182.9430  175.4150  135.6890 N   0  0  0  0  0  2  0  0  0  0  0  0
  183.0950  174.6980  136.9180 C   0  0  0  0  0  3  0  0  0  0  0  0
  183.4510  175.3170  138.0040 N   0  0  0  0  0  0  0  0  0  0  0  0
  183.6120  176.7790  138.0810 C   0  0  1  0  0  3  0  0  0  0  0  0
  183.2610  177.4180  134.5420 O   0  0  0  0  0  0  0  0  0  0  0  0
  183.4250  176.7550  135.5990 C   0  0  0  0  0  0  0  0  0  0  0  0
  184.1730  177.3450  136.7570 C   0  0  2  0  0  3  0  0  0  0  0  0
  182.4970  178.8750  138.3360 C   0  0  0  0  0  2  0  0  0  0  0  0
  182.0250  177.1170  139.8300 C   0  0  1  0  0  3  0  0  0  0  0  0
  180.7660  179.4010  140.0460 C   0  0  0  0  0  2  0  0  0  0  0  0
  182.2370  179.5230  139.6800 C   0  0  1  0  0  3  0  0  0  0  0  0
  182.3340  177.4200  138.4310 N   0  0  2  0  0  0  0  0  0  0  0  0
  181.7830  178.4120  140.5760 C   0  0  2  0  0  0  0  0  0  0  0  0
  180.8010  176.2200  139.9080 C   0  0  0  0  0  1  0  0  0  0  0  0
  182.2820  178.5890  141.9960 C   0  0  0  0  0  2  0  0  0  0  0  0
  183.7330  178.6540  142.0020 N   0  0  0  0  0  2  0  0  0  0  0  0
  184.1390  178.7860  143.3920 C   0  0  0  0  0  2  0  0  0  0  0  0
  185.6300  178.4990  143.5460 C   0  0  2  0  0  3  0  0  0  0  0  0
  186.0200  177.5740  142.5910 F   0  0  0  0  0  0  0  0  0  0  0  0
  185.9820  178.0080  144.9560 C   0  0  1  0  0  3  0  0  0  0  0  0
  188.0160  176.8180  144.1430 O   0  0  0  0  0  0  0  0  0  0  0  0
  187.4390  177.6820  145.0630 C   0  0  0  0  0  0  0  0  0  0  0  0
  188.1460  178.1820  145.9790 O   0  0  0  0  0  1  0  0  0  0  0  0
  185.6300  179.0270  145.9990 C   0  0  0  0  0  3  0  0  0  0  0  0
  184.8330  178.7350  146.9590 N   0  0  0  0  0  2  0  0  0  0  0  0
  187.6800  176.9130  137.0910 C   0  0  0  0  0  0  0  0  0  0  0  0
  186.2680  176.7220  135.5560 O   0  0  0  0  0  0  0  0  0  0  0  0
  187.5370  176.6000  135.7890 N   0  0  0  0  0  0  0  0  0  0  0  0
  185.6470  177.0850  136.6520 C   0  0  0  0  0  0  0  0  0  0  0  0
  186.5070  177.2310  137.6790 N   0  0  0  0  0  0  0  0  0  0  0  0
  188.9700  176.8970  137.8000 C   0  0  0  0  0  0  0  0  0  0  0  0
  189.0260  177.1710  139.1750 C   0  0  0  0  0  3  0  0  0  0  0  0
  190.1530  176.6020  137.1090 C   0  0  0  0  0  3  0  0  0  0  0  0
  190.2510  177.1460  139.8490 C   0  0  0  0  0  3  0  0  0  0  0  0
  191.4250  176.8490  139.1550 C   0  0  0  0  0  3  0  0  0  0  0  0
  191.3770  176.5780  137.7840 C   0  0  0  0  0  3  0  0  0  0  0  0
  1  2  1  0  0  0  0
  2  3  2  0  0  0  0
  4  3  1  6  0  0  0
  4 12  1  0  0  0  0
  5  6  2  0  0  0  0
  6  1  1  0  0  0  0
  6  7  1  0  0  0  0
  7 29  1  6  0  0  0
  7  4  1  0  0  0  0
  9 14  1  6  0  0  0
  9 13  1  0  0  0  0
 10 13  1  0  0  0  0
 11  8  1  6  0  0  0
 11 10  1  0  0  0  0
 11 13  1  0  0  0  0
 12  8  1  1  0  0  0
 12  9  1  0  0  0  0
 13 15  1  1  0  0  0
 15 16  1  0  0  0  0
 16 17  1  0  0  0  0
 17 18  1  0  0  0  0
 18 19  1  6  0  0  0
 18 20  1  0  0  0  0
 20 22  1  0  0  0  0
 20 24  1  1  0  0  0
 21 22  2  0  0  0  0
 22 23  1  0  0  0  0
 24 25  2  0  0  0  0
 26 30  1  0  0  0  0
 26 31  1  0  0  0  0
 27 28  1  0  0  0  0
 27 29  1  0  0  0  0
 28 26  2  0  0  0  0
 29 30  2  0  0  0  0
 31 32  1  0  0  0  0
 32 34  2  0  0  0  0
 33 36  1  0  0  0  0
 33 31  2  0  0  0  0
 35 34  1  0  0  0  0
 36 35  2  0  0  0  0
M  END
>  <MODEL>
9

>  <REMARK>
 VINA RESULT:      -6.0      2.664      6.490
  Name = 
  10 active torsions:
  status: ('A' for Active; 'I' for Inactive)
    1  A    between atoms: C_2  and  C_4
    2  A    between atoms: N_6  and  C_7
    3  A    between atoms: N_6  and  C_18
    4  A    between atoms: C_7  and  C_30
    5  A    between atoms: C_13  and  N_27
    6  A    between atoms: C_14  and  C_17
    7  A    between atoms: C_14  and  C_20
    8  A    between atoms: C_14  and  C_29
    9  A    between atoms: C_17  and  C_18
   10  A    between atoms: C_19  and  C_32
                            x       y       z     vdW  Elec       q    Type
                         _______ _______ _______ _____ _____    ______ ____

>  <TORSDO>
F 10

$$$$
