=
 OpenBabel10232412463D

 39 43  0  0  1  0  0  0  0  0999 V2000
  186.1980  178.4100  139.5310 C   0  0  0  0  0  0  0  0  0  0  0  0
  185.1700  179.1170  140.1980 C   0  0  0  0  0  0  0  0  0  0  0  0
  183.5990  178.4660  138.4570 C   0  0  0  0  0  3  0  0  0  0  0  0
  185.8970  177.7280  138.3440 C   0  0  0  0  0  3  0  0  0  0  0  0
  183.8790  179.1450  139.6450 C   0  0  0  0  0  3  0  0  0  0  0  0
  184.6060  177.7520  137.8090 C   0  0  0  0  0  3  0  0  0  0  0  0
  188.0550  179.3440  140.7000 O   0  0  0  0  0  0  0  0  0  0  0  0
  187.5930  178.3830  140.0280 C   0  0  0  0  0  0  0  0  0  0  0  0
  188.4350  177.2680  139.7380 N   0  0  0  0  0  2  0  0  0  0  0  0
  190.8770  176.9760  139.2530 C   0  0  0  0  0  0  0  0  0  0  0  0
  190.3780  175.0070  135.4180 C   0  0  0  0  0  2  0  0  0  0  0  0
  189.7790  177.2540  140.1360 N   0  0  0  0  0  2  0  0  0  0  0  0
  190.6990  176.5550  137.8820 N   0  0  0  0  0  0  0  0  0  0  0  0
  189.2480  175.2180  136.4330 C   0  0  1  0  0  3  0  0  0  0  0  0
  191.8840  176.1260  137.1240 C   0  0  0  0  0  2  0  0  0  0  0  0
  191.5770  175.9340  135.6390 C   0  0  0  0  0  2  0  0  0  0  0  0
  189.3770  176.5090  137.2540 C   0  0  2  0  0  3  0  0  0  0  0  0
  192.0460  177.0660  139.7180 O   0  0  0  0  0  0  0  0  0  0  0  0
  188.0000  175.1210  135.8180 O   0  0  0  0  0  1  0  0  0  0  0  0
  189.3390  178.9070  137.2160 O   0  0  0  0  0  1  0  0  0  0  0  0
  189.1390  177.7740  136.4280 C   0  0  0  0  0  2  0  0  0  0  0  0
  185.4390  179.7680  141.4080 O   0  0  0  0  0  0  0  0  0  0  0  0
  184.2950  177.9890  142.6310 C   0  0  0  0  0  2  0  0  0  0  0  0
  185.1940  179.1970  142.6900 C   0  0  1  0  0  0  0  0  0  0  0  0
  185.7750  177.8280  142.9820 C   0  0  1  0  0  3  0  0  0  0  0  0
  184.8800  180.0610  143.7440 O   0  0  0  0  0  1  0  0  0  0  0  0
  187.1930  177.7710  145.0730 C   0  0  0  0  0  0  0  0  0  0  0  0
  190.7080  177.3300  144.7420 C   0  0  0  0  0  0  0  0  0  0  0  0
  185.9330  177.6330  144.4160 N   0  0  0  0  0  2  0  0  0  0  0  0
  190.9570  177.3520  143.3770 O   0  0  0  0  0  1  0  0  0  0  0  0
  189.4390  177.8990  145.3010 C   0  0  2  0  0  3  0  0  0  0  0  0
  187.3360  177.6320  146.8580 S   0  0  0  0  0  0  0  0  0  0  0  0
  190.0680  177.3520  147.5880 C   0  0  0  0  0  2  0  0  0  0  0  0
  189.0300  177.1020  146.5110 C   0  0  2  0  0  3  0  0  0  0  0  0
  188.3000  177.8620  144.4130 N   0  0  0  0  0  0  0  0  0  0  0  0
  191.6410  176.8690  145.5890 C   0  0  0  0  0  3  0  0  0  0  0  0
  191.4380  176.8220  147.1030 C   0  0  2  0  0  3  0  0  0  0  0  0
  192.8100  175.5520  148.3040 C   0  0  0  0  0  1  0  0  0  0  0  0
  191.6250  175.5150  147.5660 O   0  0  0  0  0  0  0  0  0  0  0  0
  1  8  1  0  0  0  0
  1  2  1  0  0  0  0
  2 22  1  0  0  0  0
  3  5  1  0  0  0  0
  4  1  2  0  0  0  0
  5  2  2  0  0  0  0
  6  4  1  0  0  0  0
  6  3  2  0  0  0  0
  8  7  2  0  0  0  0
  9  8  1  0  0  0  0
  9 12  1  0  0  0  0
 10 18  2  0  0  0  0
 10 12  1  0  0  0  0
 11 16  1  0  0  0  0
 11 14  1  0  0  0  0
 13 10  1  0  0  0  0
 14 19  1  6  0  0  0
 14 17  1  0  0  0  0
 15 13  1  0  0  0  0
 16 15  1  0  0  0  0
 17 21  1  6  0  0  0
 17 13  1  0  0  0  0
 21 20  1  0  0  0  0
 22 24  1  0  0  0  0
 23 24  1  0  0  0  0
 23 25  1  0  0  0  0
 24 25  1  0  0  0  0
 24 26  1  1  0  0  0
 25 29  1  1  0  0  0
 27 32  1  0  0  0  0
 28 31  1  0  0  0  0
 28 36  2  0  0  0  0
 29 27  1  0  0  0  0
 30 28  1  0  0  0  0
 31 35  1  6  0  0  0
 31 34  1  0  0  0  0
 34 32  1  0  0  0  0
 34 33  1  1  0  0  0
 35 27  2  0  0  0  0
 36 37  1  0  0  0  0
 37 39  1  6  0  0  0
 37 33  1  0  0  0  0
 39 38  1  0  0  0  0
M  END
>  <MODEL>
1

>  <REMARK>
 VINA RESULT:      -8.8      0.000      0.000
  Name = 
  7 active torsions:
  status: ('A' for Active; 'I' for Inactive)
    1  A    between atoms: N_3  and  C_19
    2  A    between atoms: C_5  and  C_9
    3  A    between atoms: O_8  and  C_13
    4  A    between atoms: O_8  and  C_15
    5  A    between atoms: N_12  and  N_26
    6  A    between atoms: C_31  and  C_33
    7  A    between atoms: C_38  and  O_39
                            x       y       z     vdW  Elec       q    Type
                         _______ _______ _______ _____ _____    ______ ____

>  <TORSDO>
F 7

$$$$
=
 OpenBabel10232412463D

 39 43  0  0  1  0  0  0  0  0999 V2000
  184.6610  178.9280  142.1290 C   0  0  0  0  0  0  0  0  0  0  0  0
  183.2670  179.0080  141.8970 C   0  0  0  0  0  0  0  0  0  0  0  0
  182.8610  178.7540  144.2830 C   0  0  0  0  0  3  0  0  0  0  0  0
  185.1260  178.7800  143.4430 C   0  0  0  0  0  3  0  0  0  0  0  0
  182.3800  178.9100  142.9820 C   0  0  0  0  0  3  0  0  0  0  0  0
  184.2340  178.6950  144.5150 C   0  0  0  0  0  3  0  0  0  0  0  0
  185.3320  179.4110  139.8920 O   0  0  0  0  0  0  0  0  0  0  0  0
  185.6510  178.9690  141.0280 C   0  0  0  0  0  0  0  0  0  0  0  0
  186.9800  178.4960  141.2420 N   0  0  0  0  0  0  0  0  0  0  0  0
  189.2670  178.0060  140.3410 C   0  0  0  0  0  0  0  0  0  0  0  0
  191.2470  177.6920  144.1900 C   0  0  0  0  0  2  0  0  0  0  0  0
  187.9120  178.4580  140.1960 N   0  0  0  0  0  0  0  0  0  0  0  0
  189.8500  177.6600  141.6180 N   0  0  0  0  0  0  0  0  0  0  0  0
  189.8440  178.2750  143.9870 C   0  0  1  0  0  3  0  0  0  0  0  0
  191.2930  177.3830  141.6730 C   0  0  0  0  0  2  0  0  0  0  0  0
  191.7160  176.8130  143.0270 C   0  0  0  0  0  2  0  0  0  0  0  0
  189.0530  177.6220  142.8450 C   0  0  2  0  0  3  0  0  0  0  0  0
  189.9850  177.9530  139.3060 O   0  0  0  0  0  0  0  0  0  0  0  0
  189.1240  178.2710  145.1820 O   0  0  0  0  0  1  0  0  0  0  0  0
  187.3350  176.1700  143.6810 O   0  0  0  0  0  1  0  0  0  0  0  0
  188.6270  176.1860  143.1540 C   0  0  0  0  0  2  0  0  0  0  0  0
  182.7830  179.2010  140.5980 O   0  0  0  0  0  0  0  0  0  0  0  0
  181.0150  179.0150  138.9220 C   0  0  0  0  0  2  0  0  0  0  0  0
  181.8710  178.3200  139.9500 C   0  0  1  0  0  0  0  0  0  0  0  0
  182.0910  178.0230  138.4800 C   0  0  1  0  0  3  0  0  0  0  0  0
  181.1510  177.4200  140.7420 O   0  0  0  0  0  1  0  0  0  0  0  0
  182.2400  175.5460  138.0020 C   0  0  0  0  0  0  0  0  0  0  0  0
  185.3920  174.1670  137.0930 C   0  0  0  0  0  0  0  0  0  0  0  0
  181.4830  176.7500  138.1160 N   0  0  0  0  0  2  0  0  0  0  0  0
  186.3020  175.2080  137.2200 O   0  0  0  0  0  1  0  0  0  0  0  0
  184.0600  174.2230  137.7790 C   0  0  2  0  0  3  0  0  0  0  0  0
  181.4440  173.9720  137.6590 S   0  0  0  0  0  0  0  0  0  0  0  0
  183.3970  172.0470  136.9130 C   0  0  0  0  0  2  0  0  0  0  0  0
  183.0370  173.5200  136.9280 C   0  0  2  0  0  3  0  0  0  0  0  0
  183.5330  175.5500  138.0000 N   0  0  0  0  0  0  0  0  0  0  0  0
  185.7280  173.0580  136.4170 C   0  0  0  0  0  3  0  0  0  0  0  0
  184.7810  171.8720  136.2430 C   0  0  2  0  0  3  0  0  0  0  0  0
  185.3290  170.4210  134.6520 C   0  0  0  0  0  1  0  0  0  0  0  0
  184.6100  171.5970  134.8830 O   0  0  0  0  0  0  0  0  0  0  0  0
  1  4  1  0  0  0  0
  2  1  2  0  0  0  0
  2  5  1  0  0  0  0
  3  6  1  0  0  0  0
  4  6  2  0  0  0  0
  5  3  2  0  0  0  0
  7  8  2  0  0  0  0
  8  9  1  0  0  0  0
  8  1  1  0  0  0  0
 10 13  1  0  0  0  0
 12 10  1  0  0  0  0
 12  9  2  0  0  0  0
 13 15  1  0  0  0  0
 13 17  1  0  0  0  0
 14 11  1  0  0  0  0
 14 19  1  1  0  0  0
 15 16  1  0  0  0  0
 16 11  1  0  0  0  0
 17 21  1  1  0  0  0
 17 14  1  0  0  0  0
 18 10  2  0  0  0  0
 21 20  1  0  0  0  0
 22  2  1  0  0  0  0
 23 24  1  0  0  0  0
 24 22  1  0  0  0  0
 24 26  1  1  0  0  0
 25 29  1  1  0  0  0
 25 23  1  0  0  0  0
 25 24  1  0  0  0  0
 27 29  1  0  0  0  0
 28 30  1  0  0  0  0
 31 28  1  6  0  0  0
 31 35  1  0  0  0  0
 32 27  1  0  0  0  0
 34 33  1  1  0  0  0
 34 32  1  0  0  0  0
 34 31  1  0  0  0  0
 35 27  2  0  0  0  0
 36 28  2  0  0  0  0
 37 39  1  6  0  0  0
 37 36  1  0  0  0  0
 37 33  1  0  0  0  0
 38 39  1  0  0  0  0
M  END
>  <MODEL>
2

>  <REMARK>
 VINA RESULT:      -8.4      3.799      8.022
  Name = 
  7 active torsions:
  status: ('A' for Active; 'I' for Inactive)
    1  A    between atoms: N_3  and  C_19
    2  A    between atoms: C_5  and  C_9
    3  A    between atoms: O_8  and  C_13
    4  A    between atoms: O_8  and  C_15
    5  A    between atoms: N_12  and  N_26
    6  A    between atoms: C_31  and  C_33
    7  A    between atoms: C_38  and  O_39
                            x       y       z     vdW  Elec       q    Type
                         _______ _______ _______ _____ _____    ______ ____

>  <TORSDO>
F 7

$$$$
=
 OpenBabel10232412463D

 39 43  0  0  1  0  0  0  0  0999 V2000
  186.8260  175.9900  137.0580 C   0  0  0  0  0  0  0  0  0  0  0  0
  188.2090  175.6960  137.0020 C   0  0  0  0  0  0  0  0  0  0  0  0
  187.6930  173.3220  136.8630 C   0  0  0  0  0  3  0  0  0  0  0  0
  185.9020  174.9380  136.9970 C   0  0  0  0  0  3  0  0  0  0  0  0
  188.6270  174.3580  136.9150 C   0  0  0  0  0  3  0  0  0  0  0  0
  186.3300  173.6120  136.8970 C   0  0  0  0  0  3  0  0  0  0  0  0
  186.4490  178.2110  136.2740 O   0  0  0  0  0  0  0  0  0  0  0  0
  186.3150  177.3730  137.2050 C   0  0  0  0  0  0  0  0  0  0  0  0
  185.6730  177.7740  138.4150 N   0  0  0  0  0  2  0  0  0  0  0  0
  183.8690  179.4950  138.6760 C   0  0  0  0  0  0  0  0  0  0  0  0
  180.6180  177.0120  137.2280 C   0  0  0  0  0  2  0  0  0  0  0  0
  185.2470  179.0960  138.6040 N   0  0  0  0  0  2  0  0  0  0  0  0
  182.7720  178.5860  138.4330 N   0  0  0  0  0  0  0  0  0  0  0  0
  182.1030  176.6690  137.0660 C   0  0  1  0  0  3  0  0  0  0  0  0
  181.4120  179.1400  138.3570 C   0  0  0  0  0  2  0  0  0  0  0  0
  180.3470  178.0440  138.3270 C   0  0  0  0  0  2  0  0  0  0  0  0
  182.9880  177.1530  138.2230 C   0  0  2  0  0  3  0  0  0  0  0  0
  183.6180  180.7060  138.9230 O   0  0  0  0  0  0  0  0  0  0  0  0
  182.2770  175.3070  136.8180 O   0  0  0  0  0  1  0  0  0  0  0  0
  183.1260  177.1660  140.6180 O   0  0  0  0  0  1  0  0  0  0  0  0
  182.7500  176.3860  139.5240 C   0  0  0  0  0  2  0  0  0  0  0  0
  189.1470  176.7350  137.0170 O   0  0  0  0  0  0  0  0  0  0  0  0
  189.4660  178.4440  138.7330 C   0  0  0  0  0  2  0  0  0  0  0  0
  189.8950  177.1150  138.1670 C   0  0  1  0  0  0  0  0  0  0  0  0
  189.1780  177.1540  139.5020 C   0  0  1  0  0  3  0  0  0  0  0  0
  191.2850  176.9610  138.1270 O   0  0  0  0  0  1  0  0  0  0  0  0
  189.7070  176.7460  141.9390 C   0  0  0  0  0  0  0  0  0  0  0  0
  187.1760  177.3630  144.3630 C   0  0  0  0  0  0  0  0  0  0  0  0
  190.1240  177.0000  140.5980 N   0  0  0  0  0  2  0  0  0  0  0  0
  186.0360  177.6810  143.6370 O   0  0  0  0  0  1  0  0  0  0  0  0
  188.3190  176.6370  143.7210 C   0  0  2  0  0  3  0  0  0  0  0  0
  190.9000  176.4520  143.2490 S   0  0  0  0  0  0  0  0  0  0  0  0
  189.6180  176.6310  145.7790 C   0  0  0  0  0  2  0  0  0  0  0  0
  189.6100  177.1030  144.3380 C   0  0  2  0  0  3  0  0  0  0  0  0
  188.4700  176.8520  142.3010 N   0  0  0  0  0  0  0  0  0  0  0  0
  187.2340  177.6330  145.6760 C   0  0  0  0  0  3  0  0  0  0  0  0
  188.4510  177.3060  146.5390 C   0  0  2  0  0  3  0  0  0  0  0  0
  188.7850  178.2160  148.5380 C   0  0  0  0  0  1  0  0  0  0  0  0
  188.9120  178.4660  147.1690 O   0  0  0  0  0  0  0  0  0  0  0  0
  1  8  1  0  0  0  0
  2 22  1  0  0  0  0
  2  1  1  0  0  0  0
  3  6  2  0  0  0  0
  3  5  1  0  0  0  0
  4  1  2  0  0  0  0
  5  2  2  0  0  0  0
  6  4  1  0  0  0  0
  7  8  2  0  0  0  0
  8  9  1  0  0  0  0
  9 12  1  0  0  0  0
 10 18  2  0  0  0  0
 11 16  1  0  0  0  0
 12 10  1  0  0  0  0
 13 10  1  0  0  0  0
 14 19  1  1  0  0  0
 14 11  1  0  0  0  0
 14 17  1  0  0  0  0
 15 13  1  0  0  0  0
 16 15  1  0  0  0  0
 17 13  1  0  0  0  0
 17 21  1  1  0  0  0
 21 20  1  0  0  0  0
 22 24  1  0  0  0  0
 23 25  1  0  0  0  0
 24 26  1  1  0  0  0
 24 23  1  0  0  0  0
 24 25  1  0  0  0  0
 25 29  1  1  0  0  0
 27 35  2  0  0  0  0
 27 32  1  0  0  0  0
 28 36  2  0  0  0  0
 29 27  1  0  0  0  0
 30 28  1  0  0  0  0
 31 35  1  6  0  0  0
 31 34  1  0  0  0  0
 31 28  1  0  0  0  0
 32 34  1  0  0  0  0
 33 37  1  0  0  0  0
 34 33  1  1  0  0  0
 36 37  1  0  0  0  0
 37 39  1  6  0  0  0
 39 38  1  0  0  0  0
M  END
>  <MODEL>
3

>  <REMARK>
 VINA RESULT:      -8.4      2.785      6.174
  Name = 
  7 active torsions:
  status: ('A' for Active; 'I' for Inactive)
    1  A    between atoms: N_3  and  C_19
    2  A    between atoms: C_5  and  C_9
    3  A    between atoms: O_8  and  C_13
    4  A    between atoms: O_8  and  C_15
    5  A    between atoms: N_12  and  N_26
    6  A    between atoms: C_31  and  C_33
    7  A    between atoms: C_38  and  O_39
                            x       y       z     vdW  Elec       q    Type
                         _______ _______ _______ _____ _____    ______ ____

>  <TORSDO>
F 7

$$$$
=
 OpenBabel10232412463D

 39 43  0  0  1  0  0  0  0  0999 V2000
  185.4120  178.4510  138.9920 C   0  0  0  0  0  0  0  0  0  0  0  0
  184.7390  179.1580  140.0160 C   0  0  0  0  0  0  0  0  0  0  0  0
  182.6410  178.8960  138.8090 C   0  0  0  0  0  3  0  0  0  0  0  0
  184.6780  177.9650  137.9020 C   0  0  0  0  0  3  0  0  0  0  0  0
  183.3560  179.3810  139.9060 C   0  0  0  0  0  3  0  0  0  0  0  0
  183.3000  178.1820  137.8100 C   0  0  0  0  0  3  0  0  0  0  0  0
  187.4600  177.8990  140.0820 O   0  0  0  0  0  0  0  0  0  0  0  0
  186.8770  178.2270  139.0150 C   0  0  0  0  0  0  0  0  0  0  0  0
  187.6450  178.3950  137.8240 N   0  0  0  0  0  2  0  0  0  0  0  0
  189.7440  177.1280  137.3020 C   0  0  0  0  0  0  0  0  0  0  0  0
  187.8250  173.3180  136.5060 C   0  0  0  0  0  2  0  0  0  0  0  0
  189.0400  178.2580  137.8390 N   0  0  0  0  0  2  0  0  0  0  0  0
  189.0750  175.9480  136.8010 N   0  0  0  0  0  0  0  0  0  0  0  0
  187.1330  174.5070  137.1810 C   0  0  1  0  0  3  0  0  0  0  0  0
  189.8950  174.7810  136.4420 C   0  0  0  0  0  2  0  0  0  0  0  0
  189.0810  173.7080  135.7200 C   0  0  0  0  0  2  0  0  0  0  0  0
  187.6170  175.8780  136.6860 C   0  0  2  0  0  3  0  0  0  0  0  0
  191.0050  177.1590  137.3110 O   0  0  0  0  0  0  0  0  0  0  0  0
  185.7460  174.3900  137.0990 O   0  0  0  0  0  1  0  0  0  0  0  0
  188.0590  177.1070  134.6740 O   0  0  0  0  0  1  0  0  0  0  0  0
  187.1850  176.1860  135.2520 C   0  0  0  0  0  2  0  0  0  0  0  0
  185.4460  179.6140  141.1350 O   0  0  0  0  0  0  0  0  0  0  0  0
  184.2390  178.0120  142.5290 C   0  0  0  0  0  2  0  0  0  0  0  0
  185.2040  179.1680  142.4650 C   0  0  1  0  0  0  0  0  0  0  0  0
  185.7170  177.7980  142.8610 C   0  0  1  0  0  3  0  0  0  0  0  0
  184.9650  180.1340  143.4490 O   0  0  0  0  0  1  0  0  0  0  0  0
  187.1830  177.8370  144.9180 C   0  0  0  0  0  0  0  0  0  0  0  0
  190.6590  177.1690  144.5510 C   0  0  0  0  0  0  0  0  0  0  0  0
  185.9010  177.7160  144.3030 N   0  0  0  0  0  2  0  0  0  0  0  0
  190.8740  177.0610  143.1840 O   0  0  0  0  0  1  0  0  0  0  0  0
  189.4380  177.8540  145.0860 C   0  0  2  0  0  3  0  0  0  0  0  0
  187.3650  177.8400  146.7050 S   0  0  0  0  0  0  0  0  0  0  0  0
  190.0960  177.4670  147.3970 C   0  0  0  0  0  2  0  0  0  0  0  0
  189.0190  177.1860  146.3680 C   0  0  2  0  0  3  0  0  0  0  0  0
  188.2770  177.8080  144.2290 N   0  0  0  0  0  0  0  0  0  0  0  0
  191.5870  176.7290  145.4140 C   0  0  0  0  0  3  0  0  0  0  0  0
  191.4220  176.8200  146.9300 C   0  0  2  0  0  3  0  0  0  0  0  0
  192.7200  175.6000  148.2580 C   0  0  0  0  0  1  0  0  0  0  0  0
  191.5480  175.5490  147.4990 O   0  0  0  0  0  0  0  0  0  0  0  0
  1  8  1  0  0  0  0
  1  2  1  0  0  0  0
  2 22  1  0  0  0  0
  3  5  1  0  0  0  0
  4  1  2  0  0  0  0
  5  2  2  0  0  0  0
  6  4  1  0  0  0  0
  6  3  2  0  0  0  0
  8  7  2  0  0  0  0
  9 12  1  0  0  0  0
  9  8  1  0  0  0  0
 10 18  2  0  0  0  0
 10 12  1  0  0  0  0
 11 14  1  0  0  0  0
 13 10  1  0  0  0  0
 14 19  1  6  0  0  0
 15 13  1  0  0  0  0
 16 15  1  0  0  0  0
 16 11  1  0  0  0  0
 17 21  1  6  0  0  0
 17 13  1  0  0  0  0
 17 14  1  0  0  0  0
 20 21  1  0  0  0  0
 22 24  1  0  0  0  0
 23 25  1  0  0  0  0
 24 23  1  0  0  0  0
 24 25  1  0  0  0  0
 24 26  1  1  0  0  0
 25 29  1  1  0  0  0
 27 32  1  0  0  0  0
 28 31  1  0  0  0  0
 28 36  2  0  0  0  0
 29 27  1  0  0  0  0
 30 28  1  0  0  0  0
 31 35  1  6  0  0  0
 31 34  1  0  0  0  0
 34 32  1  0  0  0  0
 34 33  1  1  0  0  0
 35 27  2  0  0  0  0
 36 37  1  0  0  0  0
 37 33  1  0  0  0  0
 37 39  1  1  0  0  0
 39 38  1  0  0  0  0
M  END
>  <MODEL>
4

>  <REMARK>
 VINA RESULT:      -8.3      1.298      1.632
  Name = 
  7 active torsions:
  status: ('A' for Active; 'I' for Inactive)
    1  A    between atoms: N_3  and  C_19
    2  A    between atoms: C_5  and  C_9
    3  A    between atoms: O_8  and  C_13
    4  A    between atoms: O_8  and  C_15
    5  A    between atoms: N_12  and  N_26
    6  A    between atoms: C_31  and  C_33
    7  A    between atoms: C_38  and  O_39
                            x       y       z     vdW  Elec       q    Type
                         _______ _______ _______ _____ _____    ______ ____

>  <TORSDO>
F 7

$$$$
=
 OpenBabel10232412463D

 39 43  0  0  1  0  0  0  0  0999 V2000
  186.9180  178.4050  140.9600 C   0  0  0  0  0  0  0  0  0  0  0  0
  186.5600  178.6220  139.6080 C   0  0  0  0  0  0  0  0  0  0  0  0
  184.2180  178.7630  140.2580 C   0  0  0  0  0  3  0  0  0  0  0  0
  185.9140  178.3890  141.9370 C   0  0  0  0  0  3  0  0  0  0  0  0
  185.2060  178.7900  139.2710 C   0  0  0  0  0  3  0  0  0  0  0  0
  184.5730  178.5690  141.5920 C   0  0  0  0  0  3  0  0  0  0  0  0
  189.0740  177.4180  140.7040 O   0  0  0  0  0  0  0  0  0  0  0  0
  188.3190  178.1670  141.3790 C   0  0  0  0  0  0  0  0  0  0  0  0
  188.8240  178.7780  142.5660 N   0  0  0  0  0  2  0  0  0  0  0  0
  190.4240  177.9250  144.2980 C   0  0  0  0  0  0  0  0  0  0  0  0
  187.5860  177.8450  147.5800 C   0  0  0  0  0  2  0  0  0  0  0  0
  190.1230  178.5100  143.0210 N   0  0  0  0  0  2  0  0  0  0  0  0
  189.4180  177.6690  145.3040 N   0  0  0  0  0  0  0  0  0  0  0  0
  187.3400  178.5570  146.2450 C   0  0  1  0  0  3  0  0  0  0  0  0
  189.8600  177.2360  146.6370 C   0  0  0  0  0  2  0  0  0  0  0  0
  188.6900  176.7860  147.5120 C   0  0  0  0  0  2  0  0  0  0  0  0
  187.9920  177.8680  145.0380 C   0  0  2  0  0  3  0  0  0  0  0  0
  191.6300  177.6670  144.5590 O   0  0  0  0  0  0  0  0  0  0  0  0
  185.9780  178.7780  146.0400 O   0  0  0  0  0  1  0  0  0  0  0  0
  187.9840  175.9560  143.5890 O   0  0  0  0  0  1  0  0  0  0  0  0
  187.3300  176.5380  144.6760 C   0  0  0  0  0  2  0  0  0  0  0  0
  187.5510  178.6860  138.6220 O   0  0  0  0  0  0  0  0  0  0  0  0
  187.3610  178.3910  136.2040 C   0  0  0  0  0  2  0  0  0  0  0  0
  187.6590  177.7650  137.5420 C   0  0  1  0  0  0  0  0  0  0  0  0
  188.7880  177.9620  136.5490 C   0  0  1  0  0  3  0  0  0  0  0  0
  187.0790  176.5010  137.6950 O   0  0  0  0  0  1  0  0  0  0  0  0
  190.1390  175.8360  136.3470 C   0  0  0  0  0  0  0  0  0  0  0  0
  193.3250  175.6820  137.9260 C   0  0  0  0  0  0  0  0  0  0  0  0
  189.1100  176.7080  135.8820 N   0  0  0  0  0  2  0  0  0  0  0  0
  193.4430  176.8670  138.6380 O   0  0  0  0  0  1  0  0  0  0  0  0
  191.9830  175.1820  137.4820 C   0  0  2  0  0  3  0  0  0  0  0  0
  190.4400  174.2460  135.5690 S   0  0  0  0  0  0  0  0  0  0  0  0
  192.9410  173.2070  136.4310 C   0  0  0  0  0  2  0  0  0  0  0  0
  192.1330  174.4640  136.1680 C   0  0  2  0  0  3  0  0  0  0  0  0
  190.9880  176.2040  137.2510 N   0  0  0  0  0  0  0  0  0  0  0  0
  194.4080  174.9250  137.6940 C   0  0  0  0  0  3  0  0  0  0  0  0
  194.3520  173.6070  136.9240 C   0  0  2  0  0  3  0  0  0  0  0  0
  196.4060  174.2180  136.3400 C   0  0  0  0  0  1  0  0  0  0  0  0
  195.2310  173.6540  135.8380 O   0  0  0  0  0  0  0  0  0  0  0  0
  1  8  1  0  0  0  0
  1  4  1  0  0  0  0
  2  1  2  0  0  0  0
  3  6  1  0  0  0  0
  5  2  1  0  0  0  0
  5  3  2  0  0  0  0
  6  4  2  0  0  0  0
  7  8  2  0  0  0  0
  8  9  1  0  0  0  0
  9 12  1  0  0  0  0
 10 18  2  0  0  0  0
 10 13  1  0  0  0  0
 12 10  1  0  0  0  0
 13 15  1  0  0  0  0
 14 19  1  6  0  0  0
 14 11  1  0  0  0  0
 15 16  1  0  0  0  0
 16 11  1  0  0  0  0
 17 21  1  1  0  0  0
 17 13  1  0  0  0  0
 17 14  1  0  0  0  0
 20 21  1  0  0  0  0
 22  2  1  0  0  0  0
 23 25  1  0  0  0  0
 23 24  1  0  0  0  0
 24 26  1  1  0  0  0
 24 22  1  0  0  0  0
 25 29  1  6  0  0  0
 25 24  1  0  0  0  0
 27 35  2  0  0  0  0
 28 30  1  0  0  0  0
 29 27  1  0  0  0  0
 31 35  1  6  0  0  0
 31 28  1  0  0  0  0
 32 34  1  0  0  0  0
 32 27  1  0  0  0  0
 33 37  1  0  0  0  0
 34 33  1  1  0  0  0
 34 31  1  0  0  0  0
 36 28  2  0  0  0  0
 37 39  1  6  0  0  0
 37 36  1  0  0  0  0
 39 38  1  0  0  0  0
M  END
>  <MODEL>
5

>  <REMARK>
 VINA RESULT:      -8.0      2.928      8.060
  Name = 
  7 active torsions:
  status: ('A' for Active; 'I' for Inactive)
    1  A    between atoms: N_3  and  C_19
    2  A    between atoms: C_5  and  C_9
    3  A    between atoms: O_8  and  C_13
    4  A    between atoms: O_8  and  C_15
    5  A    between atoms: N_12  and  N_26
    6  A    between atoms: C_31  and  C_33
    7  A    between atoms: C_38  and  O_39
                            x       y       z     vdW  Elec       q    Type
                         _______ _______ _______ _____ _____    ______ ____

>  <TORSDO>
F 7

$$$$
=
 OpenBabel10232412463D

 39 43  0  0  1  0  0  0  0  0999 V2000
  186.9480  176.2620  136.3370 C   0  0  0  0  0  0  0  0  0  0  0  0
  187.8330  177.0260  137.1340 C   0  0  0  0  0  0  0  0  0  0  0  0
  189.0470  177.6960  135.1340 C   0  0  0  0  0  3  0  0  0  0  0  0
  187.1230  176.2470  134.9470 C   0  0  0  0  0  3  0  0  0  0  0  0
  188.8830  177.7290  136.5200 C   0  0  0  0  0  3  0  0  0  0  0  0
  188.1640  176.9610  134.3460 C   0  0  0  0  0  3  0  0  0  0  0  0
  186.0270  174.2350  137.1920 O   0  0  0  0  0  0  0  0  0  0  0  0
  185.8530  175.4530  136.9210 C   0  0  0  0  0  0  0  0  0  0  0  0
  184.5800  176.0470  137.1730 N   0  0  0  0  0  2  0  0  0  0  0  0
  182.5620  175.7520  138.6300 C   0  0  0  0  0  0  0  0  0  0  0  0
  183.3160  179.1690  141.1980 C   0  0  0  0  0  2  0  0  0  0  0  0
  183.5090  175.2840  137.6580 N   0  0  0  0  0  2  0  0  0  0  0  0
  182.6920  177.0230  139.3080 N   0  0  0  0  0  0  0  0  0  0  0  0
  184.3460  178.5740  140.2300 C   0  0  1  0  0  3  0  0  0  0  0  0
  181.7670  177.3220  140.4110 C   0  0  0  0  0  2  0  0  0  0  0  0
  181.8730  178.7760  140.8700 C   0  0  0  0  0  2  0  0  0  0  0  0
  183.7350  177.9850  138.9500 C   0  0  2  0  0  3  0  0  0  0  0  0
  181.6010  174.9940  138.9300 O   0  0  0  0  0  0  0  0  0  0  0  0
  185.3540  179.4940  139.9460 O   0  0  0  0  0  1  0  0  0  0  0  0
  182.0200  178.5770  137.3820 O   0  0  0  0  0  1  0  0  0  0  0  0
  183.1720  179.0510  138.0090 C   0  0  0  0  0  2  0  0  0  0  0  0
  187.6490  177.0900  138.5200 O   0  0  0  0  0  0  0  0  0  0  0  0
  189.1520  178.7780  139.4480 C   0  0  0  0  0  2  0  0  0  0  0  0
  188.6970  177.3420  139.4510 C   0  0  1  0  0  0  0  0  0  0  0  0
  188.3900  178.2180  140.6490 C   0  0  1  0  0  3  0  0  0  0  0  0
  189.7580  176.4320  139.5080 O   0  0  0  0  0  1  0  0  0  0  0  0
  188.8610  177.5530  143.0410 C   0  0  0  0  0  0  0  0  0  0  0  0
  186.2890  177.9630  145.4660 C   0  0  0  0  0  0  0  0  0  0  0  0
  189.3100  177.9360  141.7420 N   0  0  0  0  0  2  0  0  0  0  0  0
  185.1700  178.3740  144.7540 O   0  0  0  0  0  1  0  0  0  0  0  0
  187.4340  177.2860  144.7750 C   0  0  2  0  0  3  0  0  0  0  0  0
  190.0210  177.1060  144.3370 S   0  0  0  0  0  0  0  0  0  0  0  0
  188.6890  177.0470  146.8470 C   0  0  0  0  0  2  0  0  0  0  0  0
  188.7190  177.6650  145.4620 C   0  0  2  0  0  3  0  0  0  0  0  0
  187.6180  177.6440  143.3880 N   0  0  0  0  0  0  0  0  0  0  0  0
  186.3230  178.0960  146.8010 C   0  0  0  0  0  3  0  0  0  0  0  0
  187.5170  177.6610  147.6490 C   0  0  2  0  0  3  0  0  0  0  0  0
  189.2960  178.4130  148.7450 C   0  0  0  0  0  1  0  0  0  0  0  0
  187.9820  178.7420  148.4040 O   0  0  0  0  0  0  0  0  0  0  0  0
  1  8  1  0  0  0  0
  1  2  1  0  0  0  0
  2 22  1  0  0  0  0
  3  5  1  0  0  0  0
  4  1  2  0  0  0  0
  5  2  2  0  0  0  0
  6  4  1  0  0  0  0
  6  3  2  0  0  0  0
  8  9  1  0  0  0  0
  8  7  2  0  0  0  0
  9 12  1  0  0  0  0
 10 18  2  0  0  0  0
 10 13  1  0  0  0  0
 12 10  1  0  0  0  0
 13 15  1  0  0  0  0
 14 19  1  6  0  0  0
 14 11  1  0  0  0  0
 15 16  1  0  0  0  0
 16 11  1  0  0  0  0
 17 21  1  6  0  0  0
 17 13  1  0  0  0  0
 17 14  1  0  0  0  0
 20 21  1  0  0  0  0
 22 24  1  0  0  0  0
 23 24  1  0  0  0  0
 23 25  1  0  0  0  0
 24 26  1  1  0  0  0
 24 25  1  0  0  0  0
 25 29  1  1  0  0  0
 27 35  2  0  0  0  0
 27 32  1  0  0  0  0
 28 36  2  0  0  0  0
 29 27  1  0  0  0  0
 30 28  1  0  0  0  0
 31 35  1  6  0  0  0
 31 34  1  0  0  0  0
 31 28  1  0  0  0  0
 32 34  1  0  0  0  0
 33 37  1  0  0  0  0
 34 33  1  1  0  0  0
 36 37  1  0  0  0  0
 37 39  1  6  0  0  0
 39 38  1  0  0  0  0
M  END
>  <MODEL>
6

>  <REMARK>
 VINA RESULT:      -7.8      2.843      6.114
  Name = 
  7 active torsions:
  status: ('A' for Active; 'I' for Inactive)
    1  A    between atoms: N_3  and  C_19
    2  A    between atoms: C_5  and  C_9
    3  A    between atoms: O_8  and  C_13
    4  A    between atoms: O_8  and  C_15
    5  A    between atoms: N_12  and  N_26
    6  A    between atoms: C_31  and  C_33
    7  A    between atoms: C_38  and  O_39
                            x       y       z     vdW  Elec       q    Type
                         _______ _______ _______ _____ _____    ______ ____

>  <TORSDO>
F 7

$$$$
=
 OpenBabel10232412463D

 39 43  0  0  1  0  0  0  0  0999 V2000
  188.5210  174.4510  136.1960 C   0  0  0  0  0  0  0  0  0  0  0  0
  189.2890  175.4840  136.7820 C   0  0  0  0  0  0  0  0  0  0  0  0
  190.9290  175.2700  134.9970 C   0  0  0  0  0  3  0  0  0  0  0  0
  188.9680  173.8600  135.0070 C   0  0  0  0  0  3  0  0  0  0  0  0
  190.4950  175.8760  136.1780 C   0  0  0  0  0  3  0  0  0  0  0  0
  190.1630  174.2660  134.4080 C   0  0  0  0  0  3  0  0  0  0  0  0
  187.2910  173.0000  137.6340 O   0  0  0  0  0  0  0  0  0  0  0  0
  187.2680  173.9510  136.8080 C   0  0  0  0  0  0  0  0  0  0  0  0
  186.0150  174.5370  136.4560 N   0  0  0  0  0  2  0  0  0  0  0  0
  183.7680  174.8490  137.5220 C   0  0  0  0  0  0  0  0  0  0  0  0
  184.4160  178.9360  138.8320 C   0  0  0  0  0  2  0  0  0  0  0  0
  184.8110  174.0330  136.9680 N   0  0  0  0  0  2  0  0  0  0  0  0
  183.9060  176.2740  137.7260 N   0  0  0  0  0  0  0  0  0  0  0  0
  185.5280  178.0010  138.3420 C   0  0  1  0  0  3  0  0  0  0  0  0
  182.8460  176.9790  138.4620 C   0  0  0  0  0  2  0  0  0  0  0  0
  183.0140  178.4960  138.3980 C   0  0  0  0  0  2  0  0  0  0  0  0
  185.0810  177.0100  137.2570 C   0  0  2  0  0  3  0  0  0  0  0  0
  182.7020  174.2800  137.8820 O   0  0  0  0  0  0  0  0  0  0  0  0
  186.6520  178.7250  137.9470 O   0  0  0  0  0  1  0  0  0  0  0  0
  185.8820  177.5650  135.0640 O   0  0  0  0  0  1  0  0  0  0  0  0
  184.7830  177.6820  135.9150 C   0  0  0  0  0  2  0  0  0  0  0  0
  188.8380  176.1190  137.9460 O   0  0  0  0  0  0  0  0  0  0  0  0
  189.8720  178.0170  139.0840 C   0  0  0  0  0  2  0  0  0  0  0  0
  189.6900  176.5230  139.0130 C   0  0  1  0  0  0  0  0  0  0  0  0
  189.0730  177.2900  140.1660 C   0  0  1  0  0  3  0  0  0  0  0  0
  190.8830  175.8170  139.2050 O   0  0  0  0  0  1  0  0  0  0  0  0
  189.2950  176.9310  142.6570 C   0  0  0  0  0  0  0  0  0  0  0  0
  186.5100  177.6710  144.7440 C   0  0  0  0  0  0  0  0  0  0  0  0
  189.8760  177.1410  141.3710 N   0  0  0  0  0  2  0  0  0  0  0  0
  185.4740  177.9980  143.8800 O   0  0  0  0  0  1  0  0  0  0  0  0
  187.7010  176.9010  144.2610 C   0  0  2  0  0  3  0  0  0  0  0  0
  190.3140  176.6420  144.1070 S   0  0  0  0  0  0  0  0  0  0  0  0
  188.7440  176.9160  146.4600 C   0  0  0  0  0  2  0  0  0  0  0  0
  188.9210  177.3520  145.0180 C   0  0  2  0  0  3  0  0  0  0  0  0
  188.0270  177.0760  142.8650 N   0  0  0  0  0  0  0  0  0  0  0  0
  186.4170  177.9730  146.0490 C   0  0  0  0  0  3  0  0  0  0  0  0
  187.5130  177.6380  147.0590 C   0  0  2  0  0  3  0  0  0  0  0  0
  188.9460  178.3960  148.5780 C   0  0  0  0  0  1  0  0  0  0  0  0
  187.9270  178.8020  147.7140 O   0  0  0  0  0  0  0  0  0  0  0  0
  1  2  1  0  0  0  0
  1  8  1  0  0  0  0
  2 22  1  0  0  0  0
  3  5  1  0  0  0  0
  4  1  2  0  0  0  0
  5  2  2  0  0  0  0
  6  3  2  0  0  0  0
  6  4  1  0  0  0  0
  8  7  2  0  0  0  0
  9  8  1  0  0  0  0
  9 12  1  0  0  0  0
 10 13  1  0  0  0  0
 10 18  2  0  0  0  0
 12 10  1  0  0  0  0
 13 15  1  0  0  0  0
 14 19  1  6  0  0  0
 14 11  1  0  0  0  0
 16 15  1  0  0  0  0
 16 11  1  0  0  0  0
 17 21  1  6  0  0  0
 17 13  1  0  0  0  0
 17 14  1  0  0  0  0
 20 21  1  0  0  0  0
 22 24  1  0  0  0  0
 23 25  1  0  0  0  0
 24 23  1  0  0  0  0
 24 26  1  1  0  0  0
 24 25  1  0  0  0  0
 25 29  1  1  0  0  0
 27 35  2  0  0  0  0
 27 32  1  0  0  0  0
 28 36  2  0  0  0  0
 29 27  1  0  0  0  0
 30 28  1  0  0  0  0
 31 35  1  6  0  0  0
 31 28  1  0  0  0  0
 31 34  1  0  0  0  0
 32 34  1  0  0  0  0
 33 37  1  0  0  0  0
 34 33  1  1  0  0  0
 36 37  1  0  0  0  0
 37 39  1  6  0  0  0
 39 38  1  0  0  0  0
M  END
>  <MODEL>
7

>  <REMARK>
 VINA RESULT:      -7.7      2.574      6.028
  Name = 
  7 active torsions:
  status: ('A' for Active; 'I' for Inactive)
    1  A    between atoms: N_3  and  C_19
    2  A    between atoms: C_5  and  C_9
    3  A    between atoms: O_8  and  C_13
    4  A    between atoms: O_8  and  C_15
    5  A    between atoms: N_12  and  N_26
    6  A    between atoms: C_31  and  C_33
    7  A    between atoms: C_38  and  O_39
                            x       y       z     vdW  Elec       q    Type
                         _______ _______ _______ _____ _____    ______ ____

>  <TORSDO>
F 7

$$$$
=
 OpenBabel10232412463D

 39 43  0  0  1  0  0  0  0  0999 V2000
  193.2910  174.6320  136.6350 C   0  0  0  0  0  0  0  0  0  0  0  0
  192.1790  175.2800  136.0460 C   0  0  0  0  0  0  0  0  0  0  0  0
  191.9880  173.4710  134.4290 C   0  0  0  0  0  3  0  0  0  0  0  0
  193.7170  173.4020  136.1150 C   0  0  0  0  0  3  0  0  0  0  0  0
  191.5450  174.6930  134.9390 C   0  0  0  0  0  3  0  0  0  0  0  0
  193.0710  172.8220  135.0210 C   0  0  0  0  0  3  0  0  0  0  0  0
  193.8550  176.4170  138.1120 O   0  0  0  0  0  0  0  0  0  0  0  0
  194.0410  175.2190  137.7690 C   0  0  0  0  0  0  0  0  0  0  0  0
  194.9950  174.4320  138.4810 N   0  0  0  0  0  2  0  0  0  0  0  0
  197.2030  175.0380  139.5010 C   0  0  0  0  0  0  0  0  0  0  0  0
  199.6340  172.5400  136.9160 C   0  0  0  0  0  2  0  0  0  0  0  0
  195.7680  174.9870  139.5100 N   0  0  0  0  0  2  0  0  0  0  0  0
  198.0080  174.4040  138.4820 N   0  0  0  0  0  0  0  0  0  0  0  0
  198.1090  172.4340  137.0320 C   0  0  1  0  0  3  0  0  0  0  0  0
  199.4660  174.3660  138.6680 C   0  0  0  0  0  2  0  0  0  0  0  0
  200.1920  173.8770  137.4150 C   0  0  0  0  0  2  0  0  0  0  0  0
  197.4070  173.7710  137.3060 C   0  0  2  0  0  3  0  0  0  0  0  0
  197.7780  175.6300  140.4540 O   0  0  0  0  0  0  0  0  0  0  0  0
  197.5680  171.7840  135.9230 O   0  0  0  0  0  1  0  0  0  0  0  0
  197.4660  176.0490  136.5560 O   0  0  0  0  0  1  0  0  0  0  0  0
  197.4470  174.7270  136.1130 C   0  0  0  0  0  2  0  0  0  0  0  0
  191.7100  176.4870  136.5780 O   0  0  0  0  0  0  0  0  0  0  0  0
  189.8880  175.2970  137.6880 C   0  0  0  0  0  2  0  0  0  0  0  0
  190.4770  176.6210  137.2780 C   0  0  1  0  0  0  0  0  0  0  0  0
  190.4480  176.2480  138.7460 C   0  0  1  0  0  3  0  0  0  0  0  0
  189.5240  177.5080  136.7650 O   0  0  0  0  0  1  0  0  0  0  0  0
  189.4680  177.3820  140.7810 C   0  0  0  0  0  0  0  0  0  0  0  0
  190.8780  176.6800  143.9720 C   0  0  0  0  0  0  0  0  0  0  0  0
  189.3610  176.9350  139.4300 N   0  0  0  0  0  2  0  0  0  0  0  0
  191.9820  175.8770  143.7220 O   0  0  0  0  0  1  0  0  0  0  0  0
  190.2780  177.5230  142.8880 C   0  0  2  0  0  3  0  0  0  0  0  0
  188.1520  178.3220  141.5610 S   0  0  0  0  0  0  0  0  0  0  0  0
  188.5660  178.4130  144.3710 C   0  0  0  0  0  2  0  0  0  0  0  0
  188.7910  177.6170  143.1000 C   0  0  2  0  0  3  0  0  0  0  0  0
  190.4450  177.0160  141.5450 N   0  0  0  0  0  0  0  0  0  0  0  0
  190.3810  176.7720  145.2150 C   0  0  0  0  0  3  0  0  0  0  0  0
  189.1740  177.6410  145.5660 C   0  0  2  0  0  3  0  0  0  0  0  0
  187.1560  177.7460  146.4870 C   0  0  0  0  0  1  0  0  0  0  0  0
  188.1850  176.8570  146.1690 O   0  0  0  0  0  0  0  0  0  0  0  0
  1  8  1  0  0  0  0
  2 22  1  0  0  0  0
  2  1  2  0  0  0  0
  3  5  2  0  0  0  0
  3  6  1  0  0  0  0
  4  1  1  0  0  0  0
  5  2  1  0  0  0  0
  6  4  2  0  0  0  0
  8  7  2  0  0  0  0
  8  9  1  0  0  0  0
  9 12  1  0  0  0  0
 10 12  1  0  0  0  0
 10 18  2  0  0  0  0
 11 14  1  0  0  0  0
 11 16  1  0  0  0  0
 13 15  1  0  0  0  0
 13 10  1  0  0  0  0
 14 19  1  6  0  0  0
 14 17  1  0  0  0  0
 16 15  1  0  0  0  0
 17 21  1  6  0  0  0
 17 13  1  0  0  0  0
 21 20  1  0  0  0  0
 22 24  1  0  0  0  0
 23 25  1  0  0  0  0
 24 26  1  6  0  0  0
 24 23  1  0  0  0  0
 24 25  1  0  0  0  0
 25 29  1  1  0  0  0
 27 35  2  0  0  0  0
 27 32  1  0  0  0  0
 28 36  2  0  0  0  0
 29 27  1  0  0  0  0
 30 28  1  0  0  0  0
 31 35  1  6  0  0  0
 31 34  1  0  0  0  0
 31 28  1  0  0  0  0
 32 34  1  0  0  0  0
 33 37  1  0  0  0  0
 34 33  1  1  0  0  0
 36 37  1  0  0  0  0
 37 39  1  6  0  0  0
 39 38  1  0  0  0  0
M  END
>  <MODEL>
8

>  <REMARK>
 VINA RESULT:      -7.6      4.428      7.286
  Name = 
  7 active torsions:
  status: ('A' for Active; 'I' for Inactive)
    1  A    between atoms: N_3  and  C_19
    2  A    between atoms: C_5  and  C_9
    3  A    between atoms: O_8  and  C_13
    4  A    between atoms: O_8  and  C_15
    5  A    between atoms: N_12  and  N_26
    6  A    between atoms: C_31  and  C_33
    7  A    between atoms: C_38  and  O_39
                            x       y       z     vdW  Elec       q    Type
                         _______ _______ _______ _____ _____    ______ ____

>  <TORSDO>
F 7

$$$$
=
 OpenBabel10232412463D

 39 43  0  0  1  0  0  0  0  0999 V2000
  189.2250  177.9470  140.1590 C   0  0  0  0  0  0  0  0  0  0  0  0
  189.4540  177.7000  138.7840 C   0  0  0  0  0  0  0  0  0  0  0  0
  187.0870  178.0460  138.3350 C   0  0  0  0  0  3  0  0  0  0  0  0
  187.9290  178.2560  140.5900 C   0  0  0  0  0  3  0  0  0  0  0  0
  188.3740  177.7430  137.8860 C   0  0  0  0  0  3  0  0  0  0  0  0
  186.8640  178.3080  139.6860 C   0  0  0  0  0  3  0  0  0  0  0  0
  191.4550  177.4560  140.8500 O   0  0  0  0  0  0  0  0  0  0  0  0
  190.3060  177.8640  141.1690 C   0  0  0  0  0  0  0  0  0  0  0  0
  190.0510  178.2370  142.5220 N   0  0  0  0  0  2  0  0  0  0  0  0
  190.7720  177.7010  144.8630 C   0  0  0  0  0  0  0  0  0  0  0  0
  186.8180  177.8930  146.6420 C   0  0  0  0  0  2  0  0  0  0  0  0
  191.0380  178.0990  143.5090 N   0  0  0  0  0  2  0  0  0  0  0  0
  189.4350  177.5230  145.3840 N   0  0  0  0  0  0  0  0  0  0  0  0
  187.1590  178.4130  145.2410 C   0  0  1  0  0  3  0  0  0  0  0  0
  189.2740  177.2890  146.8260 C   0  0  0  0  0  2  0  0  0  0  0  0
  187.8430  176.8940  147.1880 C   0  0  0  0  0  2  0  0  0  0  0  0
  188.2530  177.6100  144.5230 C   0  0  2  0  0  3  0  0  0  0  0  0
  191.7550  177.5430  145.6350 O   0  0  0  0  0  0  0  0  0  0  0  0
  186.0100  178.5330  144.4590 O   0  0  0  0  0  1  0  0  0  0  0  0
  188.5000  175.7910  142.9790 O   0  0  0  0  0  1  0  0  0  0  0  0
  187.7970  176.2110  144.1080 C   0  0  0  0  0  2  0  0  0  0  0  0
  190.7490  177.4330  138.3260 O   0  0  0  0  0  0  0  0  0  0  0  0
  191.5270  176.0200  136.4910 C   0  0  0  0  0  2  0  0  0  0  0  0
  191.2120  176.1370  137.9600 C   0  0  1  0  0  0  0  0  0  0  0  0
  192.6570  175.9950  137.5220 C   0  0  1  0  0  3  0  0  0  0  0  0
  190.5240  175.0270  138.4610 O   0  0  0  0  0  1  0  0  0  0  0  0
  194.5080  174.2870  137.7240 C   0  0  0  0  0  0  0  0  0  0  0  0
  197.6910  175.0440  136.3240 C   0  0  0  0  0  0  0  0  0  0  0  0
  193.1230  174.6310  137.7240 N   0  0  0  0  0  2  0  0  0  0  0  0
  197.5980  176.3550  135.8790 O   0  0  0  0  0  1  0  0  0  0  0  0
  196.7250  174.5050  137.3360 C   0  0  2  0  0  3  0  0  0  0  0  0
  195.0550  172.6150  138.0830 S   0  0  0  0  0  0  0  0  0  0  0  0
  197.7830  172.3130  137.3440 C   0  0  0  0  0  2  0  0  0  0  0  0
  196.4850  173.0450  137.0610 C   0  0  2  0  0  3  0  0  0  0  0  0
  195.4170  175.1180  137.3310 N   0  0  0  0  0  0  0  0  0  0  0  0
  198.7010  174.2630  135.9110 C   0  0  0  0  0  3  0  0  0  0  0  0
  198.8700  172.8140  136.3640 C   0  0  2  0  0  3  0  0  0  0  0  0
  200.0030  172.4240  134.4930 C   0  0  0  0  0  1  0  0  0  0  0  0
  198.9200  171.9710  135.2500 O   0  0  0  0  0  0  0  0  0  0  0  0
  1  4  1  0  0  0  0
  1  8  1  0  0  0  0
  2  1  2  0  0  0  0
  3  6  1  0  0  0  0
  5  3  2  0  0  0  0
  5  2  1  0  0  0  0
  6  4  2  0  0  0  0
  7  8  2  0  0  0  0
  8  9  1  0  0  0  0
  9 12  1  0  0  0  0
 10 13  1  0  0  0  0
 10 18  2  0  0  0  0
 11 16  1  0  0  0  0
 12 10  1  0  0  0  0
 13 15  1  0  0  0  0
 14 19  1  6  0  0  0
 14 11  1  0  0  0  0
 15 16  1  0  0  0  0
 17 21  1  1  0  0  0
 17 14  1  0  0  0  0
 17 13  1  0  0  0  0
 20 21  1  0  0  0  0
 22  2  1  0  0  0  0
 23 25  1  0  0  0  0
 23 24  1  0  0  0  0
 24 22  1  0  0  0  0
 24 26  1  1  0  0  0
 25 29  1  1  0  0  0
 25 24  1  0  0  0  0
 27 32  1  0  0  0  0
 29 27  1  0  0  0  0
 30 28  1  0  0  0  0
 31 28  1  6  0  0  0
 34 31  1  0  0  0  0
 34 33  1  1  0  0  0
 34 32  1  0  0  0  0
 35 31  1  0  0  0  0
 35 27  2  0  0  0  0
 36 28  2  0  0  0  0
 36 37  1  0  0  0  0
 37 39  1  6  0  0  0
 37 33  1  0  0  0  0
 38 39  1  0  0  0  0
M  END
>  <MODEL>
9

>  <REMARK>
 VINA RESULT:      -7.6      4.420      9.314
  Name = 
  7 active torsions:
  status: ('A' for Active; 'I' for Inactive)
    1  A    between atoms: N_3  and  C_19
    2  A    between atoms: C_5  and  C_9
    3  A    between atoms: O_8  and  C_13
    4  A    between atoms: O_8  and  C_15
    5  A    between atoms: N_12  and  N_26
    6  A    between atoms: C_31  and  C_33
    7  A    between atoms: C_38  and  O_39
                            x       y       z     vdW  Elec       q    Type
                         _______ _______ _______ _____ _____    ______ ____

>  <TORSDO>
F 7

$$$$
