=
 OpenBabel10232407443D

 36 39  0  0  1  0  0  0  0  0999 V2000
  189.5630  177.3440  136.9970 C   0  0  0  0  0  3  0  0  0  0  0  0
  188.3920  177.1260  137.9170 C   0  0  1  0  0  3  0  0  0  0  0  0
  190.9020  175.9910  138.5430 C   0  0  0  0  0  2  0  0  0  0  0  0
  188.8250  177.2930  139.3860 C   0  0  0  0  0  2  0  0  0  0  0  0
  190.7500  176.8040  137.2900 C   0  0  0  0  0  3  0  0  0  0  0  0
  190.1920  176.6620  139.7310 C   0  0  2  0  0  3  0  0  0  0  0  0
  187.2570  178.0970  137.5820 C   0  0  2  0  0  3  0  0  0  0  0  0
  187.7830  179.2360  136.8450 N   0  0  0  0  0  1  0  0  0  0  0  0
  186.6400  178.5560  138.7530 O   0  0  0  0  0  0  0  0  0  0  0  0
  185.2670  178.5830  138.4690 C   0  0  1  0  0  3  0  0  0  0  0  0
  184.8630  177.2920  137.7810 C   0  0  0  0  0  1  0  0  0  0  0  0
  184.4350  178.7620  139.7410 C   0  0  1  0  0  3  0  0  0  0  0  0
  185.1260  179.5870  140.7230 N   0  0  0  0  0  2  0  0  0  0  0  0
  185.2990  178.7710  141.9120 C   0  0  0  0  0  2  0  0  0  0  0  0
  183.5920  178.8470  143.7130 C   0  0  0  0  0  2  0  0  0  0  0  0
  185.0390  179.4150  145.5760 F   0  0  0  0  0  0  0  0  0  0  0  0
  185.4900  177.4450  144.3080 F   0  0  0  0  0  0  0  0  0  0  0  0
  184.9330  178.7100  144.3920 C   0  0  0  0  0  0  0  0  0  0  0  0
  184.8160  179.5410  143.1280 C   0  0  1  0  0  3  0  0  0  0  0  0
  183.0430  179.3110  139.4490 C   0  0  0  0  0  2  0  0  0  0  0  0
  182.0770  178.3090  139.5510 O   0  0  0  0  0  0  0  0  0  0  0  0
  181.3420  178.6470  140.6870 C   0  0  0  0  0  1  0  0  0  0  0  0
  191.0920  177.6820  140.4290 C   0  0  0  0  0  2  0  0  0  0  0  0
  191.4900  177.2250  141.6920 O   0  0  0  0  0  0  0  0  0  0  0  0
  190.5270  176.2810  142.0620 C   0  0  0  0  0  2  0  0  0  0  0  0
  187.6690  177.9270  147.4230 C   0  0  0  0  0  3  0  0  0  0  0  0
  187.8850  177.6900  146.0530 C   0  0  0  0  0  3  0  0  0  0  0  0
  188.8570  177.7050  148.2170 C   0  0  0  0  0  0  0  0  0  0  0  0
  191.6260  176.8100  144.2390 C   0  0  0  0  0  2  0  0  0  0  0  0
  191.5190  176.6180  145.7500 C   0  0  0  0  0  2  0  0  0  0  0  0
  190.3680  176.2730  143.5730 C   0  0  1  0  0  3  0  0  0  0  0  0
  189.0850  177.2700  145.4830 C   0  0  0  0  0  0  0  0  0  0  0  0
  190.0870  177.3140  147.6280 N   0  0  0  0  0  0  0  0  0  0  0  0
  190.2090  177.1140  146.2980 C   0  0  0  0  0  0  0  0  0  0  0  0
  188.1250  177.9380  148.8670 C   0  0  0  0  0  1  0  0  0  0  0  0
  189.1660  177.1170  143.9920 C   0  0  0  0  0  2  0  0  0  0  0  0
  1  5  2  0  0  0  0
  1  2  1  0  0  0  0
  2  7  1  6  0  0  0
  2  4  1  0  0  0  0
  3  6  1  0  0  0  0
  4  6  1  0  0  0  0
  5  3  1  0  0  0  0
  6 23  1  6  0  0  0
  7  8  1  1  0  0  0
  7  9  1  0  0  0  0
 10 11  1  1  0  0  0
 10  9  1  0  0  0  0
 10 12  1  0  0  0  0
 12 20  1  6  0  0  0
 12 13  1  0  0  0  0
 13 14  1  0  0  0  0
 15 18  1  0  0  0  0
 17 18  1  0  0  0  0
 18 16  1  0  0  0  0
 19 14  1  6  0  0  0
 19 15  1  0  0  0  0
 19 18  1  0  0  0  0
 20 21  1  0  0  0  0
 21 22  1  0  0  0  0
 23 24  1  0  0  0  0
 24 25  1  0  0  0  0
 26 28  1  0  0  0  0
 27 26  2  0  0  0  0
 28 35  1  0  0  0  0
 29 30  1  0  0  0  0
 30 34  1  0  0  0  0
 31 25  1  6  0  0  0
 31 36  1  0  0  0  0
 31 29  1  0  0  0  0
 32 27  1  0  0  0  0
 32 34  2  0  0  0  0
 33 28  2  0  0  0  0
 34 33  1  0  0  0  0
 36 32  1  0  0  0  0
M  END
>  <MODEL>
1

>  <REMARK>
 VINA RESULT:      -8.8      0.000      0.000
  Name = 
  13 active torsions:
  status: ('A' for Active; 'I' for Inactive)
    1  A    between atoms: O_1  and  C_21
    2  A    between atoms: O_2  and  C_12
    3  A    between atoms: O_2  and  C_25
    4  A    between atoms: C_6  and  C_12
    5  A    between atoms: C_7  and  C_17
    6  A    between atoms: C_7  and  O_22
    7  A    between atoms: C_9  and  O_22
    8  A    between atoms: C_9  and  C_35
    9  A    between atoms: N_13  and  C_20
   10  A    between atoms: N_13  and  C_33
   11  A    between atoms: C_20  and  C_36
   12  A    between atoms: C_21  and  C_33
   13  A    between atoms: C_25  and  C_33
                            x       y       z     vdW  Elec       q    Type
                         _______ _______ _______ _____ _____    ______ ____

>  <TORSDO>
F 13

$$$$
=
 OpenBabel10232407443D

 36 39  0  0  1  0  0  0  0  0999 V2000
  189.8570  178.7820  142.8730 C   0  0  0  0  0  3  0  0  0  0  0  0
  190.4470  177.7580  141.9400 C   0  0  1  0  0  3  0  0  0  0  0  0
  191.9050  178.6010  144.2080 C   0  0  0  0  0  2  0  0  0  0  0  0
  191.1060  176.6190  142.7410 C   0  0  0  0  0  2  0  0  0  0  0  0
  190.5480  179.1840  143.9430 C   0  0  0  0  0  3  0  0  0  0  0  0
  191.9130  177.0810  143.9730 C   0  0  2  0  0  3  0  0  0  0  0  0
  189.3710  177.2000  141.0050 C   0  0  2  0  0  3  0  0  0  0  0  0
  189.9830  176.3360  140.0080 N   0  0  0  0  0  1  0  0  0  0  0  0
  188.6950  178.2410  140.3550 O   0  0  0  0  0  0  0  0  0  0  0  0
  187.3300  177.9810  140.5480 C   0  0  1  0  0  3  0  0  0  0  0  0
  186.7270  179.0540  141.4360 C   0  0  0  0  0  1  0  0  0  0  0  0
  186.5740  177.9390  139.2190 C   0  0  1  0  0  3  0  0  0  0  0  0
  185.6220  179.0350  139.1070 N   0  0  0  0  0  2  0  0  0  0  0  0
  184.3250  178.4400  138.8290 C   0  0  0  0  0  2  0  0  0  0  0  0
  182.0990  178.1490  139.8880 C   0  0  0  0  0  2  0  0  0  0  0  0
  182.5850  179.1280  142.0540 F   0  0  0  0  0  0  0  0  0  0  0  0
  183.8970  177.2900  141.2840 F   0  0  0  0  0  0  0  0  0  0  0  0
  183.0850  178.3770  141.0070 C   0  0  0  0  0  0  0  0  0  0  0  0
  183.2680  179.1070  139.6900 C   0  0  1  0  0  3  0  0  0  0  0  0
  187.5140  177.9070  138.0190 C   0  0  0  0  0  2  0  0  0  0  0  0
  187.6770  179.1830  137.4770 O   0  0  0  0  0  0  0  0  0  0  0  0
  189.0030  179.2110  137.0440 C   0  0  0  0  0  1  0  0  0  0  0  0
  191.4760  176.3110  145.2200 C   0  0  0  0  0  2  0  0  0  0  0  0
  191.2780  177.1750  146.3050 O   0  0  0  0  0  0  0  0  0  0  0  0
  190.5910  176.4170  147.2580 C   0  0  0  0  0  2  0  0  0  0  0  0
  185.1750  178.2180  144.6020 C   0  0  0  0  0  3  0  0  0  0  0  0
  186.4590  177.6630  144.7520 C   0  0  0  0  0  3  0  0  0  0  0  0
  184.7090  178.8670  145.8060 C   0  0  0  0  0  0  0  0  0  0  0  0
  188.9800  178.1040  148.1450 C   0  0  0  0  0  2  0  0  0  0  0  0
  187.4950  178.4080  148.3320 C   0  0  0  0  0  2  0  0  0  0  0  0
  189.1330  176.8470  147.3030 C   0  0  1  0  0  3  0  0  0  0  0  0
  187.2250  177.6960  145.9150 C   0  0  0  0  0  0  0  0  0  0  0  0
  185.5070  178.9320  146.9780 N   0  0  0  0  0  0  0  0  0  0  0  0
  186.7370  178.3770  147.0340 C   0  0  0  0  0  0  0  0  0  0  0  0
  183.9530  178.9300  145.1440 C   0  0  0  0  0  1  0  0  0  0  0  0
  188.6060  177.1060  145.8930 C   0  0  0  0  0  2  0  0  0  0  0  0
  1  5  2  0  0  0  0
  2  7  1  1  0  0  0
  2  4  1  0  0  0  0
  2  1  1  0  0  0  0
  4  6  1  0  0  0  0
  5  3  1  0  0  0  0
  6  3  1  0  0  0  0
  6 23  1  1  0  0  0
  7  8  1  6  0  0  0
  9 10  1  0  0  0  0
  9  7  1  0  0  0  0
 10 11  1  1  0  0  0
 12 20  1  6  0  0  0
 12 10  1  0  0  0  0
 13 12  1  0  0  0  0
 14 13  1  0  0  0  0
 15 18  1  0  0  0  0
 18 17  1  0  0  0  0
 18 16  1  0  0  0  0
 19 14  1  6  0  0  0
 19 15  1  0  0  0  0
 19 18  1  0  0  0  0
 21 20  1  0  0  0  0
 22 21  1  0  0  0  0
 23 24  1  0  0  0  0
 24 25  1  0  0  0  0
 26 27  2  0  0  0  0
 26 28  1  0  0  0  0
 27 32  1  0  0  0  0
 28 33  2  0  0  0  0
 29 30  1  0  0  0  0
 31 25  1  6  0  0  0
 31 29  1  0  0  0  0
 32 34  2  0  0  0  0
 33 34  1  0  0  0  0
 34 30  1  0  0  0  0
 35 28  1  0  0  0  0
 36 32  1  0  0  0  0
 36 31  1  0  0  0  0
M  END
>  <MODEL>
2

>  <REMARK>
 VINA RESULT:      -8.6      2.214      4.564
  Name = 
  13 active torsions:
  status: ('A' for Active; 'I' for Inactive)
    1  A    between atoms: O_1  and  C_21
    2  A    between atoms: O_2  and  C_12
    3  A    between atoms: O_2  and  C_25
    4  A    between atoms: C_6  and  C_12
    5  A    between atoms: C_7  and  C_17
    6  A    between atoms: C_7  and  O_22
    7  A    between atoms: C_9  and  O_22
    8  A    between atoms: C_9  and  C_35
    9  A    between atoms: N_13  and  C_20
   10  A    between atoms: N_13  and  C_33
   11  A    between atoms: C_20  and  C_36
   12  A    between atoms: C_21  and  C_33
   13  A    between atoms: C_25  and  C_33
                            x       y       z     vdW  Elec       q    Type
                         _______ _______ _______ _____ _____    ______ ____

>  <TORSDO>
F 13

$$$$
=
 OpenBabel10232407443D

 36 39  0  0  1  0  0  0  0  0999 V2000
  184.1350  176.9040  137.9570 C   0  0  0  0  0  3  0  0  0  0  0  0
  184.9450  178.1730  137.9680 C   0  0  1  0  0  3  0  0  0  0  0  0
  182.4840  178.0640  139.3510 C   0  0  0  0  0  2  0  0  0  0  0  0
  184.9760  178.7770  139.3850 C   0  0  0  0  0  2  0  0  0  0  0  0
  182.9690  176.8530  138.6070 C   0  0  0  0  0  3  0  0  0  0  0  0
  183.6280  178.7290  140.1360 C   0  0  2  0  0  3  0  0  0  0  0  0
  186.3680  177.9050  137.4710 C   0  0  2  0  0  3  0  0  0  0  0  0
  186.5390  176.4860  137.2020 N   0  0  0  0  0  1  0  0  0  0  0  0
  187.3080  178.3050  138.4310 O   0  0  0  0  0  0  0  0  0  0  0  0
  188.5620  178.0460  137.8590 C   0  0  1  0  0  3  0  0  0  0  0  0
  188.9900  179.2280  137.0090 C   0  0  0  0  0  1  0  0  0  0  0  0
  189.6220  177.7810  138.9300 C   0  0  1  0  0  3  0  0  0  0  0  0
  189.0390  177.7380  140.2650 N   0  0  0  0  0  2  0  0  0  0  0  0
  189.7330  176.6910  140.9940 C   0  0  0  0  0  2  0  0  0  0  0  0
  191.1660  176.3230  142.9870 C   0  0  0  0  0  2  0  0  0  0  0  0
  191.6990  178.6340  143.4970 F   0  0  0  0  0  0  0  0  0  0  0  0
  192.2370  177.7610  141.3420 F   0  0  0  0  0  0  0  0  0  0  0  0
  191.4640  177.7160  142.4910 C   0  0  0  0  0  0  0  0  0  0  0  0
  190.0490  177.1760  142.3970 C   0  0  1  0  0  3  0  0  0  0  0  0
  190.4300  176.5200  138.6460 C   0  0  0  0  0  2  0  0  0  0  0  0
  191.2040  176.6690  137.4950 O   0  0  0  0  0  0  0  0  0  0  0  0
  192.4190  176.0600  137.8110 C   0  0  0  0  0  1  0  0  0  0  0  0
  183.8070  178.1020  141.5190 C   0  0  0  0  0  2  0  0  0  0  0  0
  184.5350  178.9450  142.3670 O   0  0  0  0  0  0  0  0  0  0  0  0
  183.9530  178.7910  143.6290 C   0  0  0  0  0  2  0  0  0  0  0  0
  189.4560  177.1320  146.1970 C   0  0  0  0  0  3  0  0  0  0  0  0
  188.4400  177.3180  145.2420 C   0  0  0  0  0  3  0  0  0  0  0  0
  189.0440  177.5240  147.5260 C   0  0  0  0  0  0  0  0  0  0  0  0
  184.4410  178.5010  146.0590 C   0  0  0  0  0  2  0  0  0  0  0  0
  185.4830  178.7610  147.1440 C   0  0  0  0  0  2  0  0  0  0  0  0
  185.0270  178.8620  144.7020 C   0  0  1  0  0  3  0  0  0  0  0  0
  187.1720  177.8350  145.4980 C   0  0  0  0  0  0  0  0  0  0  0  0
  187.7390  178.0160  147.7900 N   0  0  0  0  0  0  0  0  0  0  0  0
  186.8190  178.1560  146.8110 C   0  0  0  0  0  0  0  0  0  0  0  0
  190.0090  177.2490  147.6020 C   0  0  0  0  0  1  0  0  0  0  0  0
  186.1800  177.9160  144.3740 C   0  0  0  0  0  2  0  0  0  0  0  0
  1  2  1  0  0  0  0
  1  5  2  0  0  0  0
  2  7  1  1  0  0  0
  2  4  1  0  0  0  0
  3  6  1  0  0  0  0
  4  6  1  0  0  0  0
  5  3  1  0  0  0  0
  6 23  1  1  0  0  0
  7  8  1  1  0  0  0
  7  9  1  0  0  0  0
 10 11  1  1  0  0  0
 10  9  1  0  0  0  0
 10 12  1  0  0  0  0
 12 20  1  6  0  0  0
 12 13  1  0  0  0  0
 13 14  1  0  0  0  0
 17 18  1  0  0  0  0
 18 15  1  0  0  0  0
 18 16  1  0  0  0  0
 19 14  1  6  0  0  0
 19 18  1  0  0  0  0
 19 15  1  0  0  0  0
 21 22  1  0  0  0  0
 21 20  1  0  0  0  0
 23 24  1  0  0  0  0
 24 25  1  0  0  0  0
 26 28  1  0  0  0  0
 27 32  1  0  0  0  0
 27 26  2  0  0  0  0
 28 35  1  0  0  0  0
 28 33  2  0  0  0  0
 29 30  1  0  0  0  0
 31 25  1  6  0  0  0
 31 29  1  0  0  0  0
 32 34  2  0  0  0  0
 34 30  1  0  0  0  0
 34 33  1  0  0  0  0
 36 31  1  0  0  0  0
 36 32  1  0  0  0  0
M  END
>  <MODEL>
3

>  <REMARK>
 VINA RESULT:      -8.4      2.380      5.874
  Name = 
  13 active torsions:
  status: ('A' for Active; 'I' for Inactive)
    1  A    between atoms: O_1  and  C_21
    2  A    between atoms: O_2  and  C_12
    3  A    between atoms: O_2  and  C_25
    4  A    between atoms: C_6  and  C_12
    5  A    between atoms: C_7  and  C_17
    6  A    between atoms: C_7  and  O_22
    7  A    between atoms: C_9  and  O_22
    8  A    between atoms: C_9  and  C_35
    9  A    between atoms: N_13  and  C_20
   10  A    between atoms: N_13  and  C_33
   11  A    between atoms: C_20  and  C_36
   12  A    between atoms: C_21  and  C_33
   13  A    between atoms: C_25  and  C_33
                            x       y       z     vdW  Elec       q    Type
                         _______ _______ _______ _____ _____    ______ ____

>  <TORSDO>
F 13

$$$$
=
 OpenBabel10232407443D

 36 39  0  0  1  0  0  0  0  0999 V2000
  190.1080  176.2710  139.2590 C   0  0  0  0  0  3  0  0  0  0  0  0
  189.9410  177.6130  139.9230 C   0  0  1  0  0  3  0  0  0  0  0  0
  190.0210  177.4370  137.1040 C   0  0  0  0  0  2  0  0  0  0  0  0
  188.8650  178.4400  139.1960 C   0  0  0  0  0  2  0  0  0  0  0  0
  190.1500  176.1880  137.9270 C   0  0  0  0  0  3  0  0  0  0  0  0
  188.9160  178.3540  137.6550 C   0  0  2  0  0  3  0  0  0  0  0  0
  189.5760  177.4400  141.3990 C   0  0  2  0  0  3  0  0  0  0  0  0
  188.5970  178.4450  141.7860 N   0  0  0  0  0  1  0  0  0  0  0  0
  190.7130  177.5750  142.2070 O   0  0  0  0  0  0  0  0  0  0  0  0
  190.4510  176.8120  143.3540 C   0  0  1  0  0  3  0  0  0  0  0  0
  191.0870  175.4410  143.2130 C   0  0  0  0  0  1  0  0  0  0  0  0
  190.9880  177.4930  144.6150 C   0  0  1  0  0  3  0  0  0  0  0  0
  189.9260  178.1540  145.3620 N   0  0  0  0  0  2  0  0  0  0  0  0
  188.7510  177.3040  145.2650 C   0  0  0  0  0  2  0  0  0  0  0  0
  186.3400  177.2110  145.8510 C   0  0  0  0  0  2  0  0  0  0  0  0
  186.2700  179.0480  147.4340 F   0  0  0  0  0  0  0  0  0  0  0  0
  187.7630  177.2290  147.8250 F   0  0  0  0  0  0  0  0  0  0  0  0
  187.0220  177.9980  146.9440 C   0  0  0  0  0  0  0  0  0  0  0  0
  187.5050  178.1350  145.5120 C   0  0  1  0  0  3  0  0  0  0  0  0
  191.7660  176.5320  145.5050 C   0  0  0  0  0  2  0  0  0  0  0  0
  191.8470  177.0140  146.8130 O   0  0  0  0  0  0  0  0  0  0  0  0
  191.9390  175.8680  147.6020 C   0  0  0  0  0  1  0  0  0  0  0  0
  187.5420  177.9890  137.0920 C   0  0  0  0  0  2  0  0  0  0  0  0
  186.6250  177.7350  138.1190 O   0  0  0  0  0  0  0  0  0  0  0  0
  185.4120  178.2660  137.6690 C   0  0  0  0  0  2  0  0  0  0  0  0
  184.4040  179.3200  143.7930 C   0  0  0  0  0  3  0  0  0  0  0  0
  185.0750  179.1560  142.5680 C   0  0  0  0  0  3  0  0  0  0  0  0
  182.9860  179.0540  143.6860 C   0  0  0  0  0  0  0  0  0  0  0  0
  183.3690  177.6690  138.9710 C   0  0  0  0  0  2  0  0  0  0  0  0
  182.4070  178.1660  140.0490 C   0  0  0  0  0  2  0  0  0  0  0  0
  184.5390  178.6340  138.8580 C   0  0  1  0  0  3  0  0  0  0  0  0
  184.4820  178.7980  141.3600 C   0  0  0  0  0  0  0  0  0  0  0  0
  182.3910  178.6520  142.4620 N   0  0  0  0  0  0  0  0  0  0  0  0
  183.1140  178.5120  141.3300 C   0  0  0  0  0  0  0  0  0  0  0  0
  183.1450  179.3490  144.6350 C   0  0  0  0  0  1  0  0  0  0  0  0
  185.3520  178.6080  140.1500 C   0  0  0  0  0  2  0  0  0  0  0  0
  1  2  1  0  0  0  0
  2  7  1  1  0  0  0
  3  6  1  0  0  0  0
  3  5  1  0  0  0  0
  4  2  1  0  0  0  0
  5  1  2  0  0  0  0
  6 23  1  1  0  0  0
  6  4  1  0  0  0  0
  7  8  1  1  0  0  0
  7  9  1  0  0  0  0
  9 10  1  0  0  0  0
 10 11  1  6  0  0  0
 10 12  1  0  0  0  0
 12 13  1  0  0  0  0
 12 20  1  1  0  0  0
 14 13  1  0  0  0  0
 15 18  1  0  0  0  0
 18 16  1  0  0  0  0
 18 17  1  0  0  0  0
 19 14  1  1  0  0  0
 19 15  1  0  0  0  0
 19 18  1  0  0  0  0
 20 21  1  0  0  0  0
 21 22  1  0  0  0  0
 23 24  1  0  0  0  0
 25 24  1  0  0  0  0
 27 26  2  0  0  0  0
 28 26  1  0  0  0  0
 28 35  1  0  0  0  0
 29 30  1  0  0  0  0
 30 34  1  0  0  0  0
 31 25  1  6  0  0  0
 31 29  1  0  0  0  0
 31 36  1  0  0  0  0
 32 27  1  0  0  0  0
 33 28  2  0  0  0  0
 34 32  2  0  0  0  0
 34 33  1  0  0  0  0
 36 32  1  0  0  0  0
M  END
>  <MODEL>
4

>  <REMARK>
 VINA RESULT:      -8.3      1.848      6.760
  Name = 
  13 active torsions:
  status: ('A' for Active; 'I' for Inactive)
    1  A    between atoms: O_1  and  C_21
    2  A    between atoms: O_2  and  C_12
    3  A    between atoms: O_2  and  C_25
    4  A    between atoms: C_6  and  C_12
    5  A    between atoms: C_7  and  C_17
    6  A    between atoms: C_7  and  O_22
    7  A    between atoms: C_9  and  O_22
    8  A    between atoms: C_9  and  C_35
    9  A    between atoms: N_13  and  C_20
   10  A    between atoms: N_13  and  C_33
   11  A    between atoms: C_20  and  C_36
   12  A    between atoms: C_21  and  C_33
   13  A    between atoms: C_25  and  C_33
                            x       y       z     vdW  Elec       q    Type
                         _______ _______ _______ _____ _____    ______ ____

>  <TORSDO>
F 13

$$$$
=
 OpenBabel10232407443D

 36 39  0  0  1  0  0  0  0  0999 V2000
  191.3540  178.4850  142.9160 C   0  0  0  0  0  3  0  0  0  0  0  0
  190.8970  177.1460  142.4010 C   0  0  1  0  0  3  0  0  0  0  0  0
  191.6110  177.4400  145.1180 C   0  0  0  0  0  2  0  0  0  0  0  0
  189.9200  176.4940  143.3970 C   0  0  0  0  0  2  0  0  0  0  0  0
  191.6960  178.6240  144.1990 C   0  0  0  0  0  3  0  0  0  0  0  0
  190.3160  176.6440  144.8810 C   0  0  2  0  0  3  0  0  0  0  0  0
  190.2390  177.2950  141.0270 C   0  0  2  0  0  3  0  0  0  0  0  0
  188.7920  177.3430  141.1750 N   0  0  0  0  0  1  0  0  0  0  0  0
  190.5780  176.2160  140.1990 O   0  0  0  0  0  0  0  0  0  0  0  0
  190.9590  176.7860  138.9760 C   0  0  1  0  0  3  0  0  0  0  0  0
  192.4430  176.5620  138.7480 C   0  0  0  0  0  1  0  0  0  0  0  0
  190.1700  176.1890  137.8090 C   0  0  1  0  0  3  0  0  0  0  0  0
  189.7600  177.2130  136.8570 N   0  0  0  0  0  2  0  0  0  0  0  0
  188.7590  178.0300  137.5220 C   0  0  0  0  0  2  0  0  0  0  0  0
  186.3340  178.1540  138.0380 C   0  0  0  0  0  2  0  0  0  0  0  0
  185.5220  176.5550  136.4050 F   0  0  0  0  0  0  0  0  0  0  0  0
  186.7810  178.4410  135.6640 F   0  0  0  0  0  0  0  0  0  0  0  0
  186.4540  177.5410  136.6640 C   0  0  0  0  0  0  0  0  0  0  0  0
  187.4930  177.2160  137.7210 C   0  0  1  0  0  3  0  0  0  0  0  0
  190.9290  175.0670  137.1100 C   0  0  0  0  0  2  0  0  0  0  0  0
  190.5010  173.8170  137.5580 O   0  0  0  0  0  0  0  0  0  0  0  0
  189.3100  173.5890  136.8680 C   0  0  0  0  0  1  0  0  0  0  0  0
  189.1480  177.2030  145.6950 C   0  0  0  0  0  2  0  0  0  0  0  0
  188.0060  177.3600  144.8990 O   0  0  0  0  0  0  0  0  0  0  0  0
  187.0580  177.9610  145.7320 C   0  0  0  0  0  2  0  0  0  0  0  0
  183.3040  178.3210  140.6920 C   0  0  0  0  0  3  0  0  0  0  0  0
  184.4570  178.1400  141.4780 C   0  0  0  0  0  3  0  0  0  0  0  0
  182.1650  178.7490  141.4730 C   0  0  0  0  0  0  0  0  0  0  0  0
  184.8320  179.0810  145.6050 C   0  0  0  0  0  2  0  0  0  0  0  0
  183.4180  178.9490  145.0430 C   0  0  0  0  0  2  0  0  0  0  0  0
  185.7010  177.9640  145.0480 C   0  0  1  0  0  3  0  0  0  0  0  0
  184.5350  178.3220  142.8560 C   0  0  0  0  0  0  0  0  0  0  0  0
  182.2570  178.9700  142.8710 N   0  0  0  0  0  0  0  0  0  0  0  0
  183.4100  178.7780  143.5490 C   0  0  0  0  0  0  0  0  0  0  0  0
  181.8310  178.6350  140.5300 C   0  0  0  0  0  1  0  0  0  0  0  0
  185.8600  178.1420  143.5390 C   0  0  0  0  0  2  0  0  0  0  0  0
  1  5  2  0  0  0  0
  2  7  1  6  0  0  0
  2  1  1  0  0  0  0
  2  4  1  0  0  0  0
  4  6  1  0  0  0  0
  5  3  1  0  0  0  0
  6  3  1  0  0  0  0
  6 23  1  1  0  0  0
  7  8  1  1  0  0  0
  9  7  1  0  0  0  0
 10 11  1  6  0  0  0
 10  9  1  0  0  0  0
 12 20  1  6  0  0  0
 12 10  1  0  0  0  0
 13 14  1  0  0  0  0
 13 12  1  0  0  0  0
 16 18  1  0  0  0  0
 17 18  1  0  0  0  0
 18 19  1  0  0  0  0
 18 15  1  0  0  0  0
 19 14  1  6  0  0  0
 19 15  1  0  0  0  0
 20 21  1  0  0  0  0
 22 21  1  0  0  0  0
 24 23  1  0  0  0  0
 24 25  1  0  0  0  0
 26 28  2  0  0  0  0
 26 27  1  0  0  0  0
 27 32  2  0  0  0  0
 28 33  1  0  0  0  0
 30 29  1  0  0  0  0
 31 29  1  0  0  0  0
 31 25  1  1  0  0  0
 32 36  1  0  0  0  0
 32 34  1  0  0  0  0
 33 34  2  0  0  0  0
 34 30  1  0  0  0  0
 35 28  1  0  0  0  0
 36 31  1  0  0  0  0
M  END
>  <MODEL>
5

>  <REMARK>
 VINA RESULT:      -8.2      3.188      7.079
  Name = 
  13 active torsions:
  status: ('A' for Active; 'I' for Inactive)
    1  A    between atoms: O_1  and  C_21
    2  A    between atoms: O_2  and  C_12
    3  A    between atoms: O_2  and  C_25
    4  A    between atoms: C_6  and  C_12
    5  A    between atoms: C_7  and  C_17
    6  A    between atoms: C_7  and  O_22
    7  A    between atoms: C_9  and  O_22
    8  A    between atoms: C_9  and  C_35
    9  A    between atoms: N_13  and  C_20
   10  A    between atoms: N_13  and  C_33
   11  A    between atoms: C_20  and  C_36
   12  A    between atoms: C_21  and  C_33
   13  A    between atoms: C_25  and  C_33
                            x       y       z     vdW  Elec       q    Type
                         _______ _______ _______ _____ _____    ______ ____

>  <TORSDO>
F 13

$$$$
=
 OpenBabel10232407443D

 36 39  0  0  1  0  0  0  0  0999 V2000
  191.1280  177.6670  141.3660 C   0  0  0  0  0  3  0  0  0  0  0  0
  189.7610  177.0500  141.2370 C   0  0  1  0  0  3  0  0  0  0  0  0
  191.6170  175.9850  143.0810 C   0  0  0  0  0  2  0  0  0  0  0  0
  189.1790  176.7410  142.6290 C   0  0  0  0  0  2  0  0  0  0  0  0
  192.0080  177.1610  142.2340 C   0  0  0  0  0  3  0  0  0  0  0  0
  190.1900  176.1480  143.6340 C   0  0  2  0  0  3  0  0  0  0  0  0
  188.8240  177.9790  140.4610 C   0  0  2  0  0  3  0  0  0  0  0  0
  187.8340  178.5470  141.3620 N   0  0  0  0  0  1  0  0  0  0  0  0
  188.1650  177.2750  139.4430 O   0  0  0  0  0  0  0  0  0  0  0  0
  187.8340  178.2350  138.4760 C   0  0  1  0  0  3  0  0  0  0  0  0
  189.0740  178.6120  137.6860 C   0  0  0  0  0  1  0  0  0  0  0  0
  186.7590  177.7180  137.5180 C   0  0  1  0  0  3  0  0  0  0  0  0
  186.8340  176.2720  137.3550 N   0  0  0  0  0  2  0  0  0  0  0  0
  187.5420  176.0240  136.1110 C   0  0  0  0  0  2  0  0  0  0  0  0
  189.3540  174.5170  135.3310 C   0  0  0  0  0  2  0  0  0  0  0  0
  189.6090  173.1720  137.3340 F   0  0  0  0  0  0  0  0  0  0  0  0
  189.8730  175.5390  137.4770 F   0  0  0  0  0  0  0  0  0  0  0  0
  189.3390  174.4330  136.8380 C   0  0  0  0  0  0  0  0  0  0  0  0
  188.0310  174.5870  136.0850 C   0  0  1  0  0  3  0  0  0  0  0  0
  185.3580  178.1480  137.9340 C   0  0  0  0  0  2  0  0  0  0  0  0
  185.4080  179.1780  138.8750 O   0  0  0  0  0  0  0  0  0  0  0  0
  184.0770  179.3800  139.2410 C   0  0  0  0  0  1  0  0  0  0  0  0
  190.1740  176.9390  144.9420 C   0  0  0  0  0  2  0  0  0  0  0  0
  189.0990  177.8360  144.9780 O   0  0  0  0  0  0  0  0  0  0  0  0
  188.4520  177.5860  146.1920 C   0  0  0  0  0  2  0  0  0  0  0  0
  183.2730  178.7760  142.8170 C   0  0  0  0  0  3  0  0  0  0  0  0
  184.6140  178.4920  143.1340 C   0  0  0  0  0  3  0  0  0  0  0  0
  182.4610  178.9920  143.9930 C   0  0  0  0  0  0  0  0  0  0  0  0
  186.3330  178.6130  147.0180 C   0  0  0  0  0  2  0  0  0  0  0  0
  184.8110  178.5340  146.9290 C   0  0  0  0  0  2  0  0  0  0  0  0
  186.9470  177.6670  145.9980 C   0  0  1  0  0  3  0  0  0  0  0  0
  185.1410  178.4010  144.4200 C   0  0  0  0  0  0  0  0  0  0  0  0
  183.0080  178.9350  145.3010 N   0  0  0  0  0  0  0  0  0  0  0  0
  184.3130  178.6620  145.5160 C   0  0  0  0  0  0  0  0  0  0  0  0
  181.8360  179.0520  143.2060 C   0  0  0  0  0  1  0  0  0  0  0  0
  186.6110  178.1460  144.5870 C   0  0  0  0  0  2  0  0  0  0  0  0
  1  5  2  0  0  0  0
  2  7  1  1  0  0  0
  2  1  1  0  0  0  0
  2  4  1  0  0  0  0
  3  6  1  0  0  0  0
  4  6  1  0  0  0  0
  5  3  1  0  0  0  0
  6 23  1  1  0  0  0
  7  8  1  1  0  0  0
  9  7  1  0  0  0  0
 10 11  1  6  0  0  0
 10  9  1  0  0  0  0
 12 20  1  1  0  0  0
 12 10  1  0  0  0  0
 13 12  1  0  0  0  0
 14 13  1  0  0  0  0
 15 19  1  0  0  0  0
 15 18  1  0  0  0  0
 18 16  1  0  0  0  0
 18 17  1  0  0  0  0
 19 14  1  1  0  0  0
 19 18  1  0  0  0  0
 20 21  1  0  0  0  0
 21 22  1  0  0  0  0
 23 24  1  0  0  0  0
 24 25  1  0  0  0  0
 26 27  2  0  0  0  0
 26 28  1  0  0  0  0
 27 32  1  0  0  0  0
 28 33  2  0  0  0  0
 30 29  1  0  0  0  0
 31 25  1  6  0  0  0
 31 29  1  0  0  0  0
 32 36  1  0  0  0  0
 32 34  2  0  0  0  0
 33 34  1  0  0  0  0
 34 30  1  0  0  0  0
 35 28  1  0  0  0  0
 36 31  1  0  0  0  0
M  END
>  <MODEL>
6

>  <REMARK>
 VINA RESULT:      -7.9      3.036      5.940
  Name = 
  13 active torsions:
  status: ('A' for Active; 'I' for Inactive)
    1  A    between atoms: O_1  and  C_21
    2  A    between atoms: O_2  and  C_12
    3  A    between atoms: O_2  and  C_25
    4  A    between atoms: C_6  and  C_12
    5  A    between atoms: C_7  and  C_17
    6  A    between atoms: C_7  and  O_22
    7  A    between atoms: C_9  and  O_22
    8  A    between atoms: C_9  and  C_35
    9  A    between atoms: N_13  and  C_20
   10  A    between atoms: N_13  and  C_33
   11  A    between atoms: C_20  and  C_36
   12  A    between atoms: C_21  and  C_33
   13  A    between atoms: C_25  and  C_33
                            x       y       z     vdW  Elec       q    Type
                         _______ _______ _______ _____ _____    ______ ____

>  <TORSDO>
F 13

$$$$
=
 OpenBabel10232407443D

 36 39  0  0  1  0  0  0  0  0999 V2000
  189.9040  178.7470  142.9050 C   0  0  0  0  0  3  0  0  0  0  0  0
  190.6690  177.7860  142.0340 C   0  0  1  0  0  3  0  0  0  0  0  0
  191.8290  178.7470  144.4230 C   0  0  0  0  0  2  0  0  0  0  0  0
  191.3520  176.7080  142.8960 C   0  0  0  0  0  2  0  0  0  0  0  0
  190.4540  179.2050  144.0330 C   0  0  0  0  0  3  0  0  0  0  0  0
  191.9970  177.2340  144.1960 C   0  0  2  0  0  3  0  0  0  0  0  0
  189.7390  177.1370  141.0050 C   0  0  2  0  0  3  0  0  0  0  0  0
  190.4770  176.1620  140.2180 N   0  0  0  0  0  1  0  0  0  0  0  0
  189.2010  178.1050  140.1470 O   0  0  0  0  0  0  0  0  0  0  0  0
  187.9090  177.6580  139.8380 C   0  0  1  0  0  3  0  0  0  0  0  0
  186.8890  178.4610  140.6240 C   0  0  0  0  0  1  0  0  0  0  0  0
  187.6140  177.7860  138.3420 C   0  0  1  0  0  3  0  0  0  0  0  0
  187.8420  176.5300  137.6400 N   0  0  0  0  0  2  0  0  0  0  0  0
  188.8880  176.7780  136.6620 C   0  0  0  0  0  2  0  0  0  0  0  0
  190.7320  175.7460  135.3580 C   0  0  0  0  0  2  0  0  0  0  0  0
  191.8360  174.5490  137.1560 F   0  0  0  0  0  0  0  0  0  0  0  0
  191.5470  176.9100  137.3340 F   0  0  0  0  0  0  0  0  0  0  0  0
  191.1440  175.6930  136.8090 C   0  0  0  0  0  0  0  0  0  0  0  0
  189.6850  175.5050  136.4400 C   0  0  1  0  0  3  0  0  0  0  0  0
  186.2100  178.3150  138.0720 C   0  0  0  0  0  2  0  0  0  0  0  0
  185.4450  177.3760  137.3780 O   0  0  0  0  0  0  0  0  0  0  0  0
  184.1600  177.5180  137.9020 C   0  0  0  0  0  1  0  0  0  0  0  0
  191.5180  176.4230  145.4000 C   0  0  0  0  0  2  0  0  0  0  0  0
  191.3100  177.2440  146.5140 O   0  0  0  0  0  0  0  0  0  0  0  0
  190.5700  176.4670  147.4110 C   0  0  0  0  0  2  0  0  0  0  0  0
  185.2990  178.2040  144.4420 C   0  0  0  0  0  3  0  0  0  0  0  0
  186.5770  177.6610  144.6680 C   0  0  0  0  0  3  0  0  0  0  0  0
  184.7610  178.8590  145.6130 C   0  0  0  0  0  0  0  0  0  0  0  0
  188.9000  178.1470  148.1930 C   0  0  0  0  0  2  0  0  0  0  0  0
  187.4040  178.4410  148.2950 C   0  0  0  0  0  2  0  0  0  0  0  0
  189.1100  176.8850  147.3710 C   0  0  1  0  0  3  0  0  0  0  0  0
  187.2760  177.7090  145.8720 C   0  0  0  0  0  0  0  0  0  0  0  0
  185.4910  178.9380  146.8270 N   0  0  0  0  0  0  0  0  0  0  0  0
  186.7200  178.3940  146.9560 C   0  0  0  0  0  0  0  0  0  0  0  0
  184.0430  178.9110  144.9090 C   0  0  0  0  0  1  0  0  0  0  0  0
  188.6600  177.1300  145.9320 C   0  0  0  0  0  2  0  0  0  0  0  0
  1  5  2  0  0  0  0
  2  7  1  6  0  0  0
  2  4  1  0  0  0  0
  2  1  1  0  0  0  0
  4  6  1  0  0  0  0
  5  3  1  0  0  0  0
  6  3  1  0  0  0  0
  6 23  1  1  0  0  0
  7  8  1  6  0  0  0
  9  7  1  0  0  0  0
 10  9  1  0  0  0  0
 10 11  1  1  0  0  0
 12 20  1  1  0  0  0
 12 10  1  0  0  0  0
 13 12  1  0  0  0  0
 14 13  1  0  0  0  0
 15 19  1  0  0  0  0
 15 18  1  0  0  0  0
 18 16  1  0  0  0  0
 18 17  1  0  0  0  0
 19 14  1  1  0  0  0
 19 18  1  0  0  0  0
 21 22  1  0  0  0  0
 21 20  1  0  0  0  0
 23 24  1  0  0  0  0
 24 25  1  0  0  0  0
 26 27  2  0  0  0  0
 26 28  1  0  0  0  0
 27 32  1  0  0  0  0
 28 33  2  0  0  0  0
 29 30  1  0  0  0  0
 31 25  1  6  0  0  0
 31 29  1  0  0  0  0
 32 36  1  0  0  0  0
 32 34  2  0  0  0  0
 33 34  1  0  0  0  0
 34 30  1  0  0  0  0
 35 28  1  0  0  0  0
 36 31  1  0  0  0  0
M  END
>  <MODEL>
7

>  <REMARK>
 VINA RESULT:      -7.9      3.151      5.825
  Name = 
  13 active torsions:
  status: ('A' for Active; 'I' for Inactive)
    1  A    between atoms: O_1  and  C_21
    2  A    between atoms: O_2  and  C_12
    3  A    between atoms: O_2  and  C_25
    4  A    between atoms: C_6  and  C_12
    5  A    between atoms: C_7  and  C_17
    6  A    between atoms: C_7  and  O_22
    7  A    between atoms: C_9  and  O_22
    8  A    between atoms: C_9  and  C_35
    9  A    between atoms: N_13  and  C_20
   10  A    between atoms: N_13  and  C_33
   11  A    between atoms: C_20  and  C_36
   12  A    between atoms: C_21  and  C_33
   13  A    between atoms: C_25  and  C_33
                            x       y       z     vdW  Elec       q    Type
                         _______ _______ _______ _____ _____    ______ ____

>  <TORSDO>
F 13

$$$$
=
 OpenBabel10232407443D

 36 39  0  0  1  0  0  0  0  0999 V2000
  190.6480  176.4310  139.5620 C   0  0  0  0  0  3  0  0  0  0  0  0
  190.4830  177.6260  140.4630 C   0  0  1  0  0  3  0  0  0  0  0  0
  189.6560  177.7730  137.7660 C   0  0  0  0  0  2  0  0  0  0  0  0
  189.1020  178.2720  140.2480 C   0  0  0  0  0  2  0  0  0  0  0  0
  190.2620  176.5020  138.2850 C   0  0  0  0  0  3  0  0  0  0  0  0
  188.6550  178.3640  138.7730 C   0  0  2  0  0  3  0  0  0  0  0  0
  190.6600  177.2220  141.9290 C   0  0  2  0  0  3  0  0  0  0  0  0
  190.3090  175.8210  142.1010 N   0  0  0  0  0  1  0  0  0  0  0  0
  189.8440  178.0030  142.7580 O   0  0  0  0  0  0  0  0  0  0  0  0
  190.5380  178.1150  143.9710 C   0  0  1  0  0  3  0  0  0  0  0  0
  191.2240  179.4670  144.0450 C   0  0  0  0  0  1  0  0  0  0  0  0
  189.6000  177.9550  145.1690 C   0  0  1  0  0  3  0  0  0  0  0  0
  188.3800  177.2460  144.8060 N   0  0  0  0  0  2  0  0  0  0  0  0
  187.2870  178.1940  144.9370 C   0  0  0  0  0  2  0  0  0  0  0  0
  186.2360  178.7880  147.1060 C   0  0  0  0  0  2  0  0  0  0  0  0
  183.9760  178.0370  146.6440 F   0  0  0  0  0  0  0  0  0  0  0  0
  184.9810  179.6580  145.2110 F   0  0  0  0  0  0  0  0  0  0  0  0
  185.1120  178.6150  146.1130 C   0  0  0  0  0  0  0  0  0  0  0  0
  186.3350  177.7220  146.0210 C   0  0  1  0  0  3  0  0  0  0  0  0
  190.2860  177.2890  146.3560 C   0  0  0  0  0  2  0  0  0  0  0  0
  189.3480  176.7610  147.2450 O   0  0  0  0  0  0  0  0  0  0  0  0
  189.2840  177.6950  148.2790 C   0  0  0  0  0  1  0  0  0  0  0  0
  187.2560  177.7710  138.5980 C   0  0  0  0  0  2  0  0  0  0  0  0
  186.2650  178.7220  138.8710 O   0  0  0  0  0  0  0  0  0  0  0  0
  185.1280  178.2740  138.1910 C   0  0  0  0  0  2  0  0  0  0  0  0
  182.0980  178.8000  143.6830 C   0  0  0  0  0  3  0  0  0  0  0  0
  183.1440  178.7580  142.7440 C   0  0  0  0  0  3  0  0  0  0  0  0
  180.8130  178.4950  143.0940 C   0  0  0  0  0  0  0  0  0  0  0  0
  182.8090  177.5050  138.6970 C   0  0  0  0  0  2  0  0  0  0  0  0
  181.5190  177.8810  139.4220 C   0  0  0  0  0  2  0  0  0  0  0  0
  183.8920  178.5160  139.0420 C   0  0  1  0  0  3  0  0  0  0  0  0
  183.0040  178.4770  141.3870 C   0  0  0  0  0  0  0  0  0  0  0  0
  180.6790  178.1720  141.7180 N   0  0  0  0  0  0  0  0  0  0  0  0
  181.7420  178.1480  140.8850 C   0  0  0  0  0  0  0  0  0  0  0  0
  180.6320  178.7190  144.0580 C   0  0  0  0  0  1  0  0  0  0  0  0
  184.2340  178.4150  140.5270 C   0  0  0  0  0  2  0  0  0  0  0  0
  1  2  1  0  0  0  0
  2  7  1  1  0  0  0
  3  5  1  0  0  0  0
  3  6  1  0  0  0  0
  4  2  1  0  0  0  0
  5  1  2  0  0  0  0
  6 23  1  1  0  0  0
  6  4  1  0  0  0  0
  7  8  1  6  0  0  0
  7  9  1  0  0  0  0
  9 10  1  0  0  0  0
 10 11  1  1  0  0  0
 10 12  1  0  0  0  0
 12 20  1  1  0  0  0
 13 14  1  0  0  0  0
 13 12  1  0  0  0  0
 17 18  1  0  0  0  0
 18 16  1  0  0  0  0
 18 15  1  0  0  0  0
 19 14  1  6  0  0  0
 19 18  1  0  0  0  0
 19 15  1  0  0  0  0
 20 21  1  0  0  0  0
 21 22  1  0  0  0  0
 23 24  1  0  0  0  0
 25 24  1  0  0  0  0
 27 26  2  0  0  0  0
 28 26  1  0  0  0  0
 28 35  1  0  0  0  0
 29 31  1  0  0  0  0
 29 30  1  0  0  0  0
 30 34  1  0  0  0  0
 31 25  1  6  0  0  0
 31 36  1  0  0  0  0
 32 27  1  0  0  0  0
 33 28  2  0  0  0  0
 34 32  2  0  0  0  0
 34 33  1  0  0  0  0
 36 32  1  0  0  0  0
M  END
>  <MODEL>
8

>  <REMARK>
 VINA RESULT:      -7.9      2.173      6.997
  Name = 
  13 active torsions:
  status: ('A' for Active; 'I' for Inactive)
    1  A    between atoms: O_1  and  C_21
    2  A    between atoms: O_2  and  C_12
    3  A    between atoms: O_2  and  C_25
    4  A    between atoms: C_6  and  C_12
    5  A    between atoms: C_7  and  C_17
    6  A    between atoms: C_7  and  O_22
    7  A    between atoms: C_9  and  O_22
    8  A    between atoms: C_9  and  C_35
    9  A    between atoms: N_13  and  C_20
   10  A    between atoms: N_13  and  C_33
   11  A    between atoms: C_20  and  C_36
   12  A    between atoms: C_21  and  C_33
   13  A    between atoms: C_25  and  C_33
                            x       y       z     vdW  Elec       q    Type
                         _______ _______ _______ _____ _____    ______ ____

>  <TORSDO>
F 13

$$$$
=
 OpenBabel10232407443D

 36 39  0  0  1  0  0  0  0  0999 V2000
  186.0440  176.2950  137.3000 C   0  0  0  0  0  3  0  0  0  0  0  0
  186.3840  177.7620  137.2850 C   0  0  1  0  0  3  0  0  0  0  0  0
  183.6810  176.9430  137.2070 C   0  0  0  0  0  2  0  0  0  0  0  0
  185.4490  178.5380  138.2310 C   0  0  0  0  0  2  0  0  0  0  0  0
  184.7660  175.9070  137.2590 C   0  0  0  0  0  3  0  0  0  0  0  0
  183.9690  178.0990  138.1800 C   0  0  2  0  0  3  0  0  0  0  0  0
  187.8460  177.9780  137.6840 C   0  0  2  0  0  3  0  0  0  0  0  0
  188.7030  177.8300  136.5180 N   0  0  0  0  0  1  0  0  0  0  0  0
  188.2340  177.0490  138.6580 O   0  0  0  0  0  0  0  0  0  0  0  0
  189.0120  177.7680  139.5760 C   0  0  1  0  0  3  0  0  0  0  0  0
  188.1180  178.3710  140.6430 C   0  0  0  0  0  1  0  0  0  0  0  0
  190.0650  176.8760  140.2380 C   0  0  1  0  0  3  0  0  0  0  0  0
  191.4090  177.1970  139.7760 N   0  0  0  0  0  2  0  0  0  0  0  0
  191.6380  176.4160  138.5730 C   0  0  0  0  0  2  0  0  0  0  0  0
  193.5530  175.1250  137.6620 C   0  0  0  0  0  2  0  0  0  0  0  0
  194.4690  176.8120  136.1780 F   0  0  0  0  0  0  0  0  0  0  0  0
  192.2010  176.1230  135.9020 F   0  0  0  0  0  0  0  0  0  0  0  0
  193.3140  176.2740  136.7130 C   0  0  0  0  0  0  0  0  0  0  0  0
  193.1090  176.4800  138.2020 C   0  0  1  0  0  3  0  0  0  0  0  0
  189.9850  176.9200  141.7590 C   0  0  0  0  0  2  0  0  0  0  0  0
  191.2580  177.0140  142.3260 O   0  0  0  0  0  0  0  0  0  0  0  0
  191.1570  178.0670  143.2350 C   0  0  0  0  0  1  0  0  0  0  0  0
  183.4480  177.8020  139.5860 C   0  0  0  0  0  2  0  0  0  0  0  0
  184.2150  178.4550  140.5590 O   0  0  0  0  0  0  0  0  0  0  0  0
  183.3190  178.7610  141.5880 C   0  0  0  0  0  2  0  0  0  0  0  0
  187.9450  177.4670  145.6560 C   0  0  0  0  0  3  0  0  0  0  0  0
  187.2130  177.5330  144.4570 C   0  0  0  0  0  3  0  0  0  0  0  0
  187.2100  177.9970  146.7830 C   0  0  0  0  0  0  0  0  0  0  0  0
  183.1580  178.7470  144.0780 C   0  0  0  0  0  2  0  0  0  0  0  0
  183.8890  179.1380  145.3610 C   0  0  0  0  0  2  0  0  0  0  0  0
  184.0800  178.9640  142.8880 C   0  0  1  0  0  3  0  0  0  0  0  0
  185.9310  178.0590  144.3180 C   0  0  0  0  0  0  0  0  0  0  0  0
  185.8890  178.4970  146.6450 N   0  0  0  0  0  0  0  0  0  0  0  0
  185.2560  178.5170  145.4530 C   0  0  0  0  0  0  0  0  0  0  0  0
  188.1180  177.7440  147.1350 C   0  0  0  0  0  1  0  0  0  0  0  0
  185.2630  178.0030  142.9740 C   0  0  0  0  0  2  0  0  0  0  0  0
  2  1  1  0  0  0  0
  2  7  1  1  0  0  0
  2  4  1  0  0  0  0
  3  5  1  0  0  0  0
  3  6  1  0  0  0  0
  5  1  2  0  0  0  0
  6  4  1  0  0  0  0
  6 23  1  1  0  0  0
  7  8  1  6  0  0  0
  7  9  1  0  0  0  0
  9 10  1  0  0  0  0
 10 12  1  0  0  0  0
 10 11  1  1  0  0  0
 12 20  1  1  0  0  0
 13 12  1  0  0  0  0
 14 13  1  0  0  0  0
 15 19  1  0  0  0  0
 16 18  1  0  0  0  0
 17 18  1  0  0  0  0
 18 15  1  0  0  0  0
 18 19  1  0  0  0  0
 19 14  1  6  0  0  0
 20 21  1  0  0  0  0
 21 22  1  0  0  0  0
 23 24  1  0  0  0  0
 24 25  1  0  0  0  0
 26 28  1  0  0  0  0
 27 26  2  0  0  0  0
 28 35  1  0  0  0  0
 29 30  1  0  0  0  0
 30 34  1  0  0  0  0
 31 25  1  6  0  0  0
 31 36  1  0  0  0  0
 31 29  1  0  0  0  0
 32 27  1  0  0  0  0
 32 34  2  0  0  0  0
 33 28  2  0  0  0  0
 34 33  1  0  0  0  0
 36 32  1  0  0  0  0
M  END
>  <MODEL>
9

>  <REMARK>
 VINA RESULT:      -7.8      3.329      6.964
  Name = 
  13 active torsions:
  status: ('A' for Active; 'I' for Inactive)
    1  A    between atoms: O_1  and  C_21
    2  A    between atoms: O_2  and  C_12
    3  A    between atoms: O_2  and  C_25
    4  A    between atoms: C_6  and  C_12
    5  A    between atoms: C_7  and  C_17
    6  A    between atoms: C_7  and  O_22
    7  A    between atoms: C_9  and  O_22
    8  A    between atoms: C_9  and  C_35
    9  A    between atoms: N_13  and  C_20
   10  A    between atoms: N_13  and  C_33
   11  A    between atoms: C_20  and  C_36
   12  A    between atoms: C_21  and  C_33
   13  A    between atoms: C_25  and  C_33
                            x       y       z     vdW  Elec       q    Type
                         _______ _______ _______ _____ _____    ______ ____

>  <TORSDO>
F 13

$$$$
