=
 OpenBabel10232409473D

 45 49  0  0  1  0  0  0  0  0999 V2000
  187.4830  178.2450  140.5160 C   0  0  0  0  0  0  0  0  0  0  0  0
  189.3970  177.4170  141.6300 C   0  0  0  0  0  0  0  0  0  0  0  0
  190.0190  177.1240  140.4520 C   0  0  0  0  0  3  0  0  0  0  0  0
  188.1020  177.9480  141.6420 C   0  0  0  0  0  3  0  0  0  0  0  0
  189.3910  177.4250  139.2740 C   0  0  0  0  0  0  0  0  0  0  0  0
  188.0980  177.9510  139.3530 C   0  0  0  0  0  3  0  0  0  0  0  0
  189.9870  177.0510  142.9430 C   0  0  0  0  0  0  0  0  0  0  0  0
  190.8950  176.6410  145.5810 N   0  0  0  0  0  0  0  0  0  0  0  0
  189.2560  177.3240  143.9530 N   0  0  0  0  0  0  0  0  0  0  0  0
  191.2720  176.5070  143.2220 C   0  0  0  0  0  3  0  0  0  0  0  0
  191.7450  176.3040  144.5540 C   0  0  0  0  0  3  0  0  0  0  0  0
  189.6640  177.1410  145.2630 C   0  0  0  0  0  0  0  0  0  0  0  0
  187.2740  177.9960  145.6790 C   0  0  0  0  0  2  0  0  0  0  0  0
  188.7240  177.7860  147.4980 C   0  0  0  0  0  3  0  0  0  0  0  0
  188.5300  177.6090  146.1280 C   0  0  0  0  0  0  0  0  0  0  0  0
  187.7640  178.3130  148.3590 N   0  0  0  0  0  2  0  0  0  0  0  0
  186.2610  178.5540  146.6160 C   0  0  0  0  0  0  0  0  0  0  0  0
  186.5780  178.6750  147.9150 N   0  0  0  0  0  0  0  0  0  0  0  0
  184.9100  179.1970  144.7120 C   0  0  0  0  0  1  0  0  0  0  0  0
  185.0170  178.9510  146.1030 O   0  0  0  0  0  0  0  0  0  0  0  0
  186.2230  178.9310  140.5190 N   0  0  0  0  0  2  0  0  0  0  0  0
  184.7920  178.7920  139.5120 S   0  0  0  0  0  0  0  0  0  0  0  0
  184.2740  180.1590  139.3000 O   0  0  0  0  0  0  0  0  0  0  0  0
  185.0500  178.1150  138.1900 O   0  0  0  0  0  0  0  0  0  0  0  0
  183.3960  178.4610  141.7200 N   0  0  0  0  0  1  0  0  0  0  0  0
  183.5600  177.8590  140.4160 C   0  0  1  0  0  3  0  0  0  0  0  0
  180.9780  177.6540  140.3730 C   0  0  1  0  0  3  0  0  0  0  0  0
  182.0280  176.0080  139.5560 C   0  0  0  0  0  2  0  0  0  0  0  0
  180.2260  176.1100  139.9020 S   0  0  0  0  0  0  0  0  0  0  0  0
  182.2730  177.4790  139.6680 C   0  0  2  0  0  3  0  0  0  0  0  0
  180.1870  178.8910  140.3940 C   0  0  0  0  0  3  0  0  0  0  0  0
  180.5070  179.9440  139.6350 C   0  0  0  0  0  2  0  0  0  0  0  0
  189.7430  176.6560  138.0810 C   0  0  0  0  0  2  0  0  0  0  0  0
  193.0380  173.3870  136.8770 C   0  0  0  0  0  2  0  0  0  0  0  0
  195.2480  174.5740  137.3160 C   0  0  2  0  0  3  0  0  0  0  0  0
  190.4980  174.2490  137.6430 O   0  0  0  0  0  0  0  0  0  0  0  0
  194.6010  173.3760  136.6670 C   0  0  0  0  0  2  0  0  0  0  0  0
  191.4460  175.1060  137.6750 C   0  0  0  0  0  0  0  0  0  0  0  0
  191.1480  176.4970  137.8250 N   0  0  0  0  0  2  0  0  0  0  0  0
  192.7740  174.6230  137.4810 N   0  0  0  0  0  0  0  0  0  0  0  0
  194.0030  175.4270  137.6300 C   0  0  0  0  0  2  0  0  0  0  0  0
  196.5360  175.0720  136.9230 O   0  0  0  0  0  0  0  0  0  0  0  0
  197.5720  175.0070  139.4770 O   0  0  0  0  0  0  0  0  0  0  0  0
  197.7540  174.6560  138.0130 P   0  0  0  0  0  0  0  0  0  0  0  0
  198.8020  173.5410  137.8020 O   0  0  0  0  0  0  0  0  0  0  0  0
  1 21  1  0  0  0  0
  1  4  1  0  0  0  0
  2  4  2  0  0  0  0
  2  7  1  0  0  0  0
  3  2  1  0  0  0  0
  5  6  1  0  0  0  0
  5  3  2  0  0  0  0
  6  1  2  0  0  0  0
  7 10  1  0  0  0  0
  7  9  2  0  0  0  0
  9 12  1  0  0  0  0
 10 11  2  0  0  0  0
 11  8  1  0  0  0  0
 12  8  2  0  0  0  0
 12 15  1  0  0  0  0
 13 15  1  0  0  0  0
 13 17  1  0  0  0  0
 14 16  1  0  0  0  0
 15 14  2  0  0  0  0
 17 18  2  0  0  0  0
 18 16  1  0  0  0  0
 19 20  1  0  0  0  0
 20 17  1  0  0  0  0
 22 26  1  0  0  0  0
 22 21  1  0  0  0  0
 23 22  2  0  0  0  0
 24 22  2  0  0  0  0
 26 25  1  1  0  0  0
 27 31  1  6  0  0  0
 28 30  1  0  0  0  0
 28 29  1  0  0  0  0
 29 27  1  0  0  0  0
 30 27  1  0  0  0  0
 30 26  1  1  0  0  0
 32 31  2  0  0  0  0
 33  5  1  0  0  0  0
 34 40  1  0  0  0  0
 35 42  1  6  0  0  0
 35 41  1  0  0  0  0
 36 38  2  0  0  0  0
 37 34  1  0  0  0  0
 37 35  1  0  0  0  0
 38 39  1  0  0  0  0
 39 33  1  0  0  0  0
 40 41  1  0  0  0  0
 40 38  1  0  0  0  0
 42 44  1  0  0  0  0
 44 43  2  0  0  0  0
 45 44  2  0  0  0  0
M  END
>  <MODEL>
1

>  <REMARK>
 VINA RESULT:      -9.1      0.000      0.000
  Name = 
  12 active torsions:
  status: ('A' for Active; 'I' for Inactive)
    1  A    between atoms: C_2  and  C_6
    2  A    between atoms: S_3  and  N_9
    3  A    between atoms: S_3  and  C_38
    4  A    between atoms: C_4  and  C_12
    5  A    between atoms: C_8  and  N_9
    6  A    between atoms: C_10  and  O_18
    7  A    between atoms: C_17  and  C_26
    8  A    between atoms: C_17  and  N_36
    9  A    between atoms: O_18  and  P_19
   10  A    between atoms: O_27  and  C_41
   11  A    between atoms: C_33  and  C_37
   12  A    between atoms: C_38  and  C_45
                            x       y       z     vdW  Elec       q    Type
                         _______ _______ _______ _____ _____    ______ ____

>  <TORSDO>
F 12

$$$$
=
 OpenBabel10232409473D

 45 49  0  0  1  0  0  0  0  0999 V2000
  188.9820  178.0290  140.4000 C   0  0  0  0  0  0  0  0  0  0  0  0
  186.8690  178.0880  139.3430 C   0  0  0  0  0  0  0  0  0  0  0  0
  187.3800  177.5970  138.1780 C   0  0  0  0  0  3  0  0  0  0  0  0
  187.6990  178.3350  140.4410 C   0  0  0  0  0  3  0  0  0  0  0  0
  188.7090  177.2750  138.1170 C   0  0  0  0  0  0  0  0  0  0  0  0
  189.4870  177.5470  139.2470 C   0  0  0  0  0  3  0  0  0  0  0  0
  185.4540  178.5270  139.4560 C   0  0  0  0  0  0  0  0  0  0  0  0
  182.7690  179.1830  140.0150 N   0  0  0  0  0  0  0  0  0  0  0  0
  185.0370  178.6860  140.6530 N   0  0  0  0  0  0  0  0  0  0  0  0
  184.4960  178.7220  138.4240 C   0  0  0  0  0  3  0  0  0  0  0  0
  183.1310  179.0460  138.6950 C   0  0  0  0  0  3  0  0  0  0  0  0
  183.7290  179.0060  140.9700 C   0  0  0  0  0  0  0  0  0  0  0  0
  184.7390  179.2680  143.3210 C   0  0  0  0  0  3  0  0  0  0  0  0
  182.4550  178.8180  143.1230 C   0  0  0  0  0  3  0  0  0  0  0  0
  183.6610  179.0700  142.4680 C   0  0  0  0  0  0  0  0  0  0  0  0
  182.3200  178.7540  144.5080 N   0  0  0  0  0  0  0  0  0  0  0  0
  184.5730  179.1980  144.7980 C   0  0  0  0  0  0  0  0  0  0  0  0
  183.3540  178.9440  145.3020 N   0  0  0  0  0  0  0  0  0  0  0  0
  185.6570  178.9020  146.9430 C   0  0  0  0  0  1  0  0  0  0  0  0
  185.7010  179.3820  145.6110 O   0  0  0  0  0  0  0  0  0  0  0  0
  189.8090  178.1320  141.5680 N   0  0  0  0  0  2  0  0  0  0  0  0
  191.1070  177.1330  142.1980 S   0  0  0  0  0  0  0  0  0  0  0  0
  190.6440  175.7320  142.1440 O   0  0  0  0  0  0  0  0  0  0  0  0
  192.4050  177.2880  141.4470 O   0  0  0  0  0  0  0  0  0  0  0  0
  191.4840  179.0100  144.0060 N   0  0  0  0  0  1  0  0  0  0  0  0
  191.3690  177.5720  143.9140 C   0  0  1  0  0  3  0  0  0  0  0  0
  189.2270  177.5710  145.3720 C   0  0  1  0  0  3  0  0  0  0  0  0
  190.9950  176.9630  146.3640 C   0  0  0  0  0  2  0  0  0  0  0  0
  189.3590  177.3040  147.1270 S   0  0  0  0  0  0  0  0  0  0  0  0
  190.4800  176.8860  144.9610 C   0  0  2  0  0  3  0  0  0  0  0  0
  187.9310  177.4390  144.6930 C   0  0  0  0  0  3  0  0  0  0  0  0
  187.7220  176.5170  143.7480 C   0  0  0  0  0  2  0  0  0  0  0  0
  189.3700  177.2910  136.8140 C   0  0  0  0  0  2  0  0  0  0  0  0
  191.5710  173.1760  135.7100 C   0  0  0  0  0  2  0  0  0  0  0  0
  193.9230  173.4890  136.6320 C   0  0  2  0  0  3  0  0  0  0  0  0
  189.3600  174.8090  136.1850 O   0  0  0  0  0  0  0  0  0  0  0  0
  193.0530  172.6390  135.7410 C   0  0  0  0  0  2  0  0  0  0  0  0
  190.5130  175.2800  136.4730 C   0  0  0  0  0  0  0  0  0  0  0  0
  190.6670  176.6740  136.7560 N   0  0  0  0  0  2  0  0  0  0  0  0
  191.6190  174.3820  136.4230 N   0  0  0  0  0  0  0  0  0  0  0  0
  192.9930  174.6970  136.8610 C   0  0  0  0  0  2  0  0  0  0  0  0
  195.3540  173.5360  136.5090 O   0  0  0  0  0  0  0  0  0  0  0  0
  195.7230  173.6080  139.2400 O   0  0  0  0  0  0  0  0  0  0  0  0
  196.1050  174.1650  137.8820 P   0  0  0  0  0  0  0  0  0  0  0  0
  197.4710  174.8850  137.9040 O   0  0  0  0  0  0  0  0  0  0  0  0
  1  4  1  0  0  0  0
  1 21  1  0  0  0  0
  2  7  1  0  0  0  0
  2  4  2  0  0  0  0
  3  2  1  0  0  0  0
  5  3  2  0  0  0  0
  5  6  1  0  0  0  0
  6  1  2  0  0  0  0
  7  9  2  0  0  0  0
  8 12  2  0  0  0  0
  9 12  1  0  0  0  0
 10 11  2  0  0  0  0
 10  7  1  0  0  0  0
 11  8  1  0  0  0  0
 12 15  1  0  0  0  0
 13 17  1  0  0  0  0
 14 16  2  0  0  0  0
 15 14  1  0  0  0  0
 15 13  2  0  0  0  0
 16 18  1  0  0  0  0
 17 18  2  0  0  0  0
 17 20  1  0  0  0  0
 20 19  1  0  0  0  0
 21 22  1  0  0  0  0
 22 26  1  0  0  0  0
 23 22  2  0  0  0  0
 24 22  2  0  0  0  0
 26 25  1  6  0  0  0
 27 31  1  6  0  0  0
 27 29  1  0  0  0  0
 28 29  1  0  0  0  0
 30 26  1  6  0  0  0
 30 27  1  0  0  0  0
 30 28  1  0  0  0  0
 32 31  2  0  0  0  0
 33  5  1  0  0  0  0
 34 37  1  0  0  0  0
 34 40  1  0  0  0  0
 35 42  1  6  0  0  0
 35 41  1  0  0  0  0
 36 38  2  0  0  0  0
 37 35  1  0  0  0  0
 38 39  1  0  0  0  0
 39 33  1  0  0  0  0
 40 38  1  0  0  0  0
 40 41  1  0  0  0  0
 42 44  1  0  0  0  0
 44 45  2  0  0  0  0
 44 43  2  0  0  0  0
M  END
>  <MODEL>
2

>  <REMARK>
 VINA RESULT:      -9.0      3.044      6.026
  Name = 
  12 active torsions:
  status: ('A' for Active; 'I' for Inactive)
    1  A    between atoms: C_2  and  C_6
    2  A    between atoms: S_3  and  N_9
    3  A    between atoms: S_3  and  C_38
    4  A    between atoms: C_4  and  C_12
    5  A    between atoms: C_8  and  N_9
    6  A    between atoms: C_10  and  O_18
    7  A    between atoms: C_17  and  C_26
    8  A    between atoms: C_17  and  N_36
    9  A    between atoms: O_18  and  P_19
   10  A    between atoms: O_27  and  C_41
   11  A    between atoms: C_33  and  C_37
   12  A    between atoms: C_38  and  C_45
                            x       y       z     vdW  Elec       q    Type
                         _______ _______ _______ _____ _____    ______ ____

>  <TORSDO>
F 12

$$$$
=
 OpenBabel10232409473D

 45 49  0  0  1  0  0  0  0  0999 V2000
  190.4270  177.3660  139.9700 C   0  0  0  0  0  0  0  0  0  0  0  0
  190.7620  176.1620  137.9640 C   0  0  0  0  0  0  0  0  0  0  0  0
  189.8370  176.9110  137.2990 C   0  0  0  0  0  3  0  0  0  0  0  0
  191.0190  176.3810  139.3220 C   0  0  0  0  0  3  0  0  0  0  0  0
  189.2130  177.9360  137.9560 C   0  0  0  0  0  0  0  0  0  0  0  0
  189.5100  178.1040  139.3120 C   0  0  0  0  0  3  0  0  0  0  0  0
  191.4230  174.9890  137.3350 C   0  0  0  0  0  0  0  0  0  0  0  0
  192.9920  172.9860  136.1200 N   0  0  0  0  0  0  0  0  0  0  0  0
  192.6870  174.9330  137.5040 N   0  0  0  0  0  0  0  0  0  0  0  0
  190.8500  173.9730  136.5220 C   0  0  0  0  0  3  0  0  0  0  0  0
  191.6350  172.9580  135.8950 C   0  0  0  0  0  3  0  0  0  0  0  0
  193.4940  173.9690  136.9240 C   0  0  0  0  0  0  0  0  0  0  0  0
  195.4080  174.1330  138.6340 C   0  0  0  0  0  3  0  0  0  0  0  0
  195.7880  174.8660  136.4480 C   0  0  0  0  0  3  0  0  0  0  0  0
  194.8990  174.2810  137.3510 C   0  0  0  0  0  0  0  0  0  0  0  0
  197.0740  175.2840  136.7830 N   0  0  0  0  0  0  0  0  0  0  0  0
  196.7860  174.5840  138.9710 C   0  0  0  0  0  0  0  0  0  0  0  0
  197.5410  175.1360  138.0060 N   0  0  0  0  0  0  0  0  0  0  0  0
  197.5960  175.5950  141.0160 C   0  0  0  0  0  1  0  0  0  0  0  0
  197.2400  174.4330  140.2890 O   0  0  0  0  0  0  0  0  0  0  0  0
  190.7960  177.6980  141.3160 N   0  0  0  0  0  2  0  0  0  0  0  0
  190.5930  176.8610  142.8450 S   0  0  0  0  0  0  0  0  0  0  0  0
  190.1690  175.4810  142.5340 O   0  0  0  0  0  0  0  0  0  0  0  0
  191.8380  176.8510  143.6950 O   0  0  0  0  0  0  0  0  0  0  0  0
  188.2040  177.9660  142.8290 N   0  0  0  0  0  1  0  0  0  0  0  0
  189.2730  177.6620  143.7520 C   0  0  1  0  0  3  0  0  0  0  0  0
  187.8970  177.7880  145.9430 C   0  0  1  0  0  3  0  0  0  0  0  0
  189.9010  177.1470  146.1710 C   0  0  0  0  0  2  0  0  0  0  0  0
  188.7160  177.5730  147.5100 S   0  0  0  0  0  0  0  0  0  0  0  0
  188.8650  177.0440  145.0970 C   0  0  2  0  0  3  0  0  0  0  0  0
  186.4350  177.6820  145.8470 C   0  0  0  0  0  3  0  0  0  0  0  0
  185.6240  178.3740  146.6550 C   0  0  0  0  0  2  0  0  0  0  0  0
  187.8940  178.3610  137.4900 C   0  0  0  0  0  2  0  0  0  0  0  0
  183.4290  177.0740  138.6760 C   0  0  0  0  0  2  0  0  0  0  0  0
  182.8410  178.6490  140.5880 C   0  0  2  0  0  3  0  0  0  0  0  0
  185.6400  177.2540  136.9850 O   0  0  0  0  0  0  0  0  0  0  0  0
  182.4300  177.3980  139.8530 C   0  0  0  0  0  2  0  0  0  0  0  0
  185.6680  177.9370  138.0660 C   0  0  0  0  0  0  0  0  0  0  0  0
  186.8910  178.5340  138.5050 N   0  0  0  0  0  2  0  0  0  0  0  0
  184.4640  178.0070  138.8280 N   0  0  0  0  0  0  0  0  0  0  0  0
  184.2550  178.8590  140.0140 C   0  0  0  0  0  2  0  0  0  0  0  0
  182.4230  178.9330  141.9330 O   0  0  0  0  0  0  0  0  0  0  0  0
  184.7460  177.7690  142.8550 O   0  0  0  0  0  0  0  0  0  0  0  0
  183.6930  178.8440  143.0400 P   0  0  0  0  0  0  0  0  0  0  0  0
  184.1890  180.0070  143.9280 O   0  0  0  0  0  0  0  0  0  0  0  0
  1 21  1  0  0  0  0
  2  4  2  0  0  0  0
  3  5  2  0  0  0  0
  3  2  1  0  0  0  0
  4  1  1  0  0  0  0
  5  6  1  0  0  0  0
  6  1  2  0  0  0  0
  7  9  2  0  0  0  0
  7  2  1  0  0  0  0
  8 12  2  0  0  0  0
 10  7  1  0  0  0  0
 11  8  1  0  0  0  0
 11 10  2  0  0  0  0
 12 15  1  0  0  0  0
 12  9  1  0  0  0  0
 13 17  1  0  0  0  0
 14 16  2  0  0  0  0
 14 15  1  0  0  0  0
 15 13  2  0  0  0  0
 16 18  1  0  0  0  0
 17 20  1  0  0  0  0
 18 17  2  0  0  0  0
 20 19  1  0  0  0  0
 21 22  1  0  0  0  0
 22 24  2  0  0  0  0
 22 26  1  0  0  0  0
 23 22  2  0  0  0  0
 26 25  1  6  0  0  0
 27 31  1  1  0  0  0
 27 29  1  0  0  0  0
 28 29  1  0  0  0  0
 30 26  1  6  0  0  0
 30 27  1  0  0  0  0
 30 28  1  0  0  0  0
 31 32  2  0  0  0  0
 33  5  1  0  0  0  0
 33 39  1  0  0  0  0
 34 40  1  0  0  0  0
 34 37  1  0  0  0  0
 35 42  1  1  0  0  0
 36 38  2  0  0  0  0
 37 35  1  0  0  0  0
 38 39  1  0  0  0  0
 38 40  1  0  0  0  0
 40 41  1  0  0  0  0
 41 35  1  0  0  0  0
 42 44  1  0  0  0  0
 43 44  2  0  0  0  0
 44 45  2  0  0  0  0
M  END
>  <MODEL>
3

>  <REMARK>
 VINA RESULT:      -9.0      3.777     10.016
  Name = 
  12 active torsions:
  status: ('A' for Active; 'I' for Inactive)
    1  A    between atoms: C_2  and  C_6
    2  A    between atoms: S_3  and  N_9
    3  A    between atoms: S_3  and  C_38
    4  A    between atoms: C_4  and  C_12
    5  A    between atoms: C_8  and  N_9
    6  A    between atoms: C_10  and  O_18
    7  A    between atoms: C_17  and  C_26
    8  A    between atoms: C_17  and  N_36
    9  A    between atoms: O_18  and  P_19
   10  A    between atoms: O_27  and  C_41
   11  A    between atoms: C_33  and  C_37
   12  A    between atoms: C_38  and  C_45
                            x       y       z     vdW  Elec       q    Type
                         _______ _______ _______ _____ _____    ______ ____

>  <TORSDO>
F 12

$$$$
=
 OpenBabel10232409473D

 45 49  0  0  1  0  0  0  0  0999 V2000
  186.8980  178.4110  140.9150 C   0  0  0  0  0  0  0  0  0  0  0  0
  189.0040  177.7090  141.7260 C   0  0  0  0  0  0  0  0  0  0  0  0
  189.5560  177.7490  140.4790 C   0  0  0  0  0  3  0  0  0  0  0  0
  187.6520  178.0100  141.9200 C   0  0  0  0  0  3  0  0  0  0  0  0
  188.7880  178.1620  139.4240 C   0  0  0  0  0  0  0  0  0  0  0  0
  187.4440  178.4470  139.6820 C   0  0  0  0  0  3  0  0  0  0  0  0
  189.7570  177.2010  142.9020 C   0  0  0  0  0  0  0  0  0  0  0  0
  191.0090  176.5160  145.3340 N   0  0  0  0  0  0  0  0  0  0  0  0
  189.1930  177.4090  144.0290 N   0  0  0  0  0  0  0  0  0  0  0  0
  191.0370  176.5840  142.9420 C   0  0  0  0  0  3  0  0  0  0  0  0
  191.6850  176.2410  144.1680 C   0  0  0  0  0  3  0  0  0  0  0  0
  189.7740  177.0910  145.2440 C   0  0  0  0  0  0  0  0  0  0  0  0
  187.4850  177.9080  146.0850 C   0  0  0  0  0  2  0  0  0  0  0  0
  189.2250  177.6610  147.6240 C   0  0  0  0  0  3  0  0  0  0  0  0
  188.8010  177.5220  146.3020 C   0  0  0  0  0  0  0  0  0  0  0  0
  188.4220  178.1530  148.6520 N   0  0  0  0  0  2  0  0  0  0  0  0
  186.6430  178.4290  147.1970 C   0  0  0  0  0  0  0  0  0  0  0  0
  187.1760  178.5160  148.4270 N   0  0  0  0  0  0  0  0  0  0  0  0
  184.9090  178.8590  145.5630 C   0  0  0  0  0  1  0  0  0  0  0  0
  185.3280  178.8270  146.9160 O   0  0  0  0  0  0  0  0  0  0  0  0
  185.5560  178.8700  141.1280 N   0  0  0  0  0  2  0  0  0  0  0  0
  184.1740  179.0410  140.0600 S   0  0  0  0  0  0  0  0  0  0  0  0
  182.9720  179.1300  140.9130 O   0  0  0  0  0  0  0  0  0  0  0  0
  184.2620  180.2390  139.1480 O   0  0  0  0  0  0  0  0  0  0  0  0
  182.9090  176.7950  139.5250 N   0  0  0  0  0  1  0  0  0  0  0  0
  184.0480  177.5570  139.0650 C   0  0  1  0  0  3  0  0  0  0  0  0
  183.2330  177.0070  136.6680 C   0  0  1  0  0  3  0  0  0  0  0  0
  185.3290  176.9280  136.9500 C   0  0  0  0  0  2  0  0  0  0  0  0
  184.3900  176.3780  135.4690 S   0  0  0  0  0  0  0  0  0  0  0  0
  184.2030  177.7120  137.5450 C   0  0  2  0  0  3  0  0  0  0  0  0
  181.9350  177.5440  136.2400 C   0  0  0  0  0  3  0  0  0  0  0  0
  181.5370  178.7750  136.5780 C   0  0  0  0  0  2  0  0  0  0  0  0
  189.1420  177.7000  138.0830 C   0  0  0  0  0  2  0  0  0  0  0  0
  192.1130  175.7670  134.8520 C   0  0  0  0  0  2  0  0  0  0  0  0
  193.8450  174.5630  136.2770 C   0  0  2  0  0  3  0  0  0  0  0  0
  189.7030  176.8670  135.7270 O   0  0  0  0  0  0  0  0  0  0  0  0
  193.5170  175.0510  134.8880 C   0  0  0  0  0  2  0  0  0  0  0  0
  190.5770  176.5790  136.6150 C   0  0  0  0  0  0  0  0  0  0  0  0
  190.4240  177.0620  137.9530 N   0  0  0  0  0  2  0  0  0  0  0  0
  191.7180  175.8350  136.1950 N   0  0  0  0  0  0  0  0  0  0  0  0
  192.7530  175.2830  137.0920 C   0  0  0  0  0  2  0  0  0  0  0  0
  195.1890  174.3000  136.7120 O   0  0  0  0  0  0  0  0  0  0  0  0
  195.4030  172.5550  138.8360 O   0  0  0  0  0  0  0  0  0  0  0  0
  195.2870  173.9930  138.3680 P   0  0  0  0  0  0  0  0  0  0  0  0
  195.7610  175.0000  139.4390 O   0  0  0  0  0  0  0  0  0  0  0  0
  1 21  1  0  0  0  0
  1  4  1  0  0  0  0
  2  4  2  0  0  0  0
  2  7  1  0  0  0  0
  3  2  1  0  0  0  0
  5  6  1  0  0  0  0
  5  3  2  0  0  0  0
  6  1  2  0  0  0  0
  7 10  1  0  0  0  0
  7  9  2  0  0  0  0
  9 12  1  0  0  0  0
 10 11  2  0  0  0  0
 11  8  1  0  0  0  0
 12  8  2  0  0  0  0
 12 15  1  0  0  0  0
 13 15  1  0  0  0  0
 13 17  1  0  0  0  0
 14 16  1  0  0  0  0
 15 14  2  0  0  0  0
 17 18  2  0  0  0  0
 18 16  1  0  0  0  0
 19 20  1  0  0  0  0
 20 17  1  0  0  0  0
 22 23  2  0  0  0  0
 22 21  1  0  0  0  0
 24 22  2  0  0  0  0
 26 25  1  6  0  0  0
 26 22  1  0  0  0  0
 27 31  1  6  0  0  0
 27 30  1  0  0  0  0
 28 30  1  0  0  0  0
 29 27  1  0  0  0  0
 29 28  1  0  0  0  0
 30 26  1  1  0  0  0
 31 32  2  0  0  0  0
 33  5  1  0  0  0  0
 34 37  1  0  0  0  0
 34 40  1  0  0  0  0
 35 42  1  1  0  0  0
 35 41  1  0  0  0  0
 36 38  2  0  0  0  0
 37 35  1  0  0  0  0
 38 39  1  0  0  0  0
 39 33  1  0  0  0  0
 40 38  1  0  0  0  0
 40 41  1  0  0  0  0
 42 44  1  0  0  0  0
 44 43  2  0  0  0  0
 44 45  2  0  0  0  0
M  END
>  <MODEL>
4

>  <REMARK>
 VINA RESULT:      -8.9      1.921      2.243
  Name = 
  12 active torsions:
  status: ('A' for Active; 'I' for Inactive)
    1  A    between atoms: C_2  and  C_6
    2  A    between atoms: S_3  and  N_9
    3  A    between atoms: S_3  and  C_38
    4  A    between atoms: C_4  and  C_12
    5  A    between atoms: C_8  and  N_9
    6  A    between atoms: C_10  and  O_18
    7  A    between atoms: C_17  and  C_26
    8  A    between atoms: C_17  and  N_36
    9  A    between atoms: O_18  and  P_19
   10  A    between atoms: O_27  and  C_41
   11  A    between atoms: C_33  and  C_37
   12  A    between atoms: C_38  and  C_45
                            x       y       z     vdW  Elec       q    Type
                         _______ _______ _______ _____ _____    ______ ____

>  <TORSDO>
F 12

$$$$
=
 OpenBabel10232409473D

 45 49  0  0  1  0  0  0  0  0999 V2000
  190.5640  177.2020  139.5860 C   0  0  0  0  0  0  0  0  0  0  0  0
  190.9580  176.3230  137.4270 C   0  0  0  0  0  0  0  0  0  0  0  0
  189.9990  177.1190  136.8720 C   0  0  0  0  0  3  0  0  0  0  0  0
  191.2020  176.3520  138.8050 C   0  0  0  0  0  3  0  0  0  0  0  0
  189.3270  178.0050  137.6680 C   0  0  0  0  0  0  0  0  0  0  0  0
  189.6140  177.9850  139.0360 C   0  0  0  0  0  3  0  0  0  0  0  0
  191.6740  175.2880  136.6380 C   0  0  0  0  0  0  0  0  0  0  0  0
  193.3430  173.5510  135.1730 N   0  0  0  0  0  0  0  0  0  0  0  0
  192.9300  175.2240  136.8550 N   0  0  0  0  0  0  0  0  0  0  0  0
  191.1620  174.4190  135.6360 C   0  0  0  0  0  3  0  0  0  0  0  0
  191.9990  173.5410  134.8810 C   0  0  0  0  0  3  0  0  0  0  0  0
  193.7840  174.3880  136.1570 C   0  0  0  0  0  0  0  0  0  0  0  0
  195.6050  174.3160  137.9730 C   0  0  0  0  0  3  0  0  0  0  0  0
  196.0890  175.3550  135.9380 C   0  0  0  0  0  3  0  0  0  0  0  0
  195.1610  174.6430  136.6990 C   0  0  0  0  0  0  0  0  0  0  0  0
  197.3500  175.7280  136.3960 N   0  0  0  0  0  0  0  0  0  0  0  0
  196.9580  174.7220  138.4440 C   0  0  0  0  0  0  0  0  0  0  0  0
  197.7550  175.4100  137.6100 N   0  0  0  0  0  0  0  0  0  0  0  0
  197.3890  175.4130  140.7240 C   0  0  0  0  0  1  0  0  0  0  0  0
  197.3440  174.3850  139.7500 O   0  0  0  0  0  0  0  0  0  0  0  0
  190.9150  177.3490  140.9690 N   0  0  0  0  0  2  0  0  0  0  0  0
  189.9790  177.2530  142.4510 S   0  0  0  0  0  0  0  0  0  0  0  0
  189.0600  178.4100  142.4610 O   0  0  0  0  0  0  0  0  0  0  0  0
  189.2070  175.9660  142.5930 O   0  0  0  0  0  0  0  0  0  0  0  0
  191.4000  178.8200  144.0180 N   0  0  0  0  0  1  0  0  0  0  0  0
  191.1030  177.4170  143.8350 C   0  0  1  0  0  3  0  0  0  0  0  0
  190.2840  177.3480  146.2920 C   0  0  1  0  0  3  0  0  0  0  0  0
  191.9820  176.1570  145.8730 C   0  0  0  0  0  2  0  0  0  0  0  0
  191.2740  176.5330  147.5260 S   0  0  0  0  0  0  0  0  0  0  0  0
  190.7830  176.6120  145.1030 C   0  0  2  0  0  3  0  0  0  0  0  0
  188.8750  177.6670  146.5590 C   0  0  0  0  0  3  0  0  0  0  0  0
  188.2400  177.2020  147.6400 C   0  0  0  0  0  2  0  0  0  0  0  0
  187.9900  178.4330  137.2590 C   0  0  0  0  0  2  0  0  0  0  0  0
  183.6410  176.9830  138.6670 C   0  0  0  0  0  2  0  0  0  0  0  0
  183.0680  178.5720  140.5720 C   0  0  2  0  0  3  0  0  0  0  0  0
  185.7670  177.2200  136.8770 O   0  0  0  0  0  0  0  0  0  0  0  0
  182.6810  177.2890  139.8800 C   0  0  0  0  0  2  0  0  0  0  0  0
  185.8110  177.9270  137.9410 C   0  0  0  0  0  0  0  0  0  0  0  0
  187.0250  178.5850  138.3140 N   0  0  0  0  0  2  0  0  0  0  0  0
  184.6400  177.9620  138.7540 N   0  0  0  0  0  0  0  0  0  0  0  0
  184.4460  178.8310  139.9320 C   0  0  0  0  0  2  0  0  0  0  0  0
  182.6970  178.8680  141.9270 O   0  0  0  0  0  0  0  0  0  0  0  0
  183.7760  179.1240  144.4520 O   0  0  0  0  0  0  0  0  0  0  0  0
  184.0050  178.7890  142.9910 P   0  0  0  0  0  0  0  0  0  0  0  0
  185.2870  177.9570  142.7720 O   0  0  0  0  0  0  0  0  0  0  0  0
  1 21  1  0  0  0  0
  2  4  1  0  0  0  0
  3  2  2  0  0  0  0
  3  5  1  0  0  0  0
  4  1  2  0  0  0  0
  5  6  2  0  0  0  0
  6  1  1  0  0  0  0
  7  9  2  0  0  0  0
  7  2  1  0  0  0  0
  8 12  2  0  0  0  0
 10  7  1  0  0  0  0
 11  8  1  0  0  0  0
 11 10  2  0  0  0  0
 12 15  1  0  0  0  0
 12  9  1  0  0  0  0
 13 17  1  0  0  0  0
 14 16  2  0  0  0  0
 14 15  1  0  0  0  0
 15 13  2  0  0  0  0
 16 18  1  0  0  0  0
 17 20  1  0  0  0  0
 18 17  2  0  0  0  0
 20 19  1  0  0  0  0
 21 22  1  0  0  0  0
 22 23  2  0  0  0  0
 22 24  2  0  0  0  0
 22 26  1  0  0  0  0
 26 25  1  1  0  0  0
 27 31  1  1  0  0  0
 27 29  1  0  0  0  0
 28 29  1  0  0  0  0
 30 26  1  6  0  0  0
 30 28  1  0  0  0  0
 30 27  1  0  0  0  0
 31 32  2  0  0  0  0
 33  5  1  0  0  0  0
 33 39  1  0  0  0  0
 34 40  1  0  0  0  0
 34 37  1  0  0  0  0
 35 42  1  1  0  0  0
 36 38  2  0  0  0  0
 37 35  1  0  0  0  0
 38 39  1  0  0  0  0
 38 40  1  0  0  0  0
 40 41  1  0  0  0  0
 41 35  1  0  0  0  0
 42 44  1  0  0  0  0
 44 43  2  0  0  0  0
 45 44  2  0  0  0  0
M  END
>  <MODEL>
5

>  <REMARK>
 VINA RESULT:      -8.6      3.775     10.392
  Name = 
  12 active torsions:
  status: ('A' for Active; 'I' for Inactive)
    1  A    between atoms: C_2  and  C_6
    2  A    between atoms: S_3  and  N_9
    3  A    between atoms: S_3  and  C_38
    4  A    between atoms: C_4  and  C_12
    5  A    between atoms: C_8  and  N_9
    6  A    between atoms: C_10  and  O_18
    7  A    between atoms: C_17  and  C_26
    8  A    between atoms: C_17  and  N_36
    9  A    between atoms: O_18  and  P_19
   10  A    between atoms: O_27  and  C_41
   11  A    between atoms: C_33  and  C_37
   12  A    between atoms: C_38  and  C_45
                            x       y       z     vdW  Elec       q    Type
                         _______ _______ _______ _____ _____    ______ ____

>  <TORSDO>
F 12

$$$$
=
 OpenBabel10232409473D

 45 49  0  0  1  0  0  0  0  0999 V2000
  185.9260  178.6580  140.7690 C   0  0  0  0  0  0  0  0  0  0  0  0
  183.5830  178.4350  140.5560 C   0  0  0  0  0  0  0  0  0  0  0  0
  183.3890  178.6390  141.8900 C   0  0  0  0  0  3  0  0  0  0  0  0
  184.8730  178.4110  140.0150 C   0  0  0  0  0  3  0  0  0  0  0  0
  184.4710  178.8960  142.6880 C   0  0  0  0  0  0  0  0  0  0  0  0
  185.7340  178.8560  142.0890 C   0  0  0  0  0  3  0  0  0  0  0  0
  182.4640  178.0790  139.6450 C   0  0  0  0  0  0  0  0  0  0  0  0
  180.2640  177.7800  137.9060 N   0  0  0  0  0  0  0  0  0  0  0  0
  182.1280  178.9980  138.8250 N   0  0  0  0  0  0  0  0  0  0  0  0
  181.6840  176.8900  139.6150 C   0  0  0  0  0  3  0  0  0  0  0  0
  180.5620  176.7310  138.7450 C   0  0  0  0  0  3  0  0  0  0  0  0
  181.0550  178.8920  137.9580 C   0  0  0  0  0  0  0  0  0  0  0  0
  181.0270  181.4570  137.7650 C   0  0  0  0  0  3  0  0  0  0  0  0
  180.7870  180.1810  135.8220 C   0  0  0  0  0  3  0  0  0  0  0  0
  180.9940  180.1880  137.2020 C   0  0  0  0  0  0  0  0  0  0  0  0
  180.6140  181.3320  135.0550 N   0  0  0  0  0  0  0  0  0  0  0  0
  180.8420  182.6740  136.9280 C   0  0  0  0  0  0  0  0  0  0  0  0
  180.6470  182.5280  135.6060 N   0  0  0  0  0  0  0  0  0  0  0  0
  181.1030  185.0750  136.7550 C   0  0  0  0  0  1  0  0  0  0  0  0
  180.8610  183.9290  137.5530 O   0  0  0  0  0  0  0  0  0  0  0  0
  187.2360  178.7890  140.1990 N   0  0  0  0  0  2  0  0  0  0  0  0
  187.8670  178.4880  138.5890 S   0  0  0  0  0  0  0  0  0  0  0  0
  186.7350  178.6110  137.6470 O   0  0  0  0  0  0  0  0  0  0  0  0
  188.9830  179.4220  138.1960 O   0  0  0  0  0  0  0  0  0  0  0  0
  188.5450  176.3940  137.1440 N   0  0  0  0  0  1  0  0  0  0  0  0
  188.4670  176.8020  138.5290 C   0  0  1  0  0  3  0  0  0  0  0  0
  189.8680  177.2300  140.6650 C   0  0  1  0  0  3  0  0  0  0  0  0
  190.9890  176.9160  138.8970 C   0  0  0  0  0  2  0  0  0  0  0  0
  191.6270  177.4720  140.5280 S   0  0  0  0  0  0  0  0  0  0  0  0
  189.6670  176.4480  139.4180 C   0  0  2  0  0  3  0  0  0  0  0  0
  189.2580  176.9190  141.9640 C   0  0  0  0  0  3  0  0  0  0  0  0
  189.8710  176.1410  142.8620 C   0  0  0  0  0  2  0  0  0  0  0  0
  184.3800  178.5690  144.1100 C   0  0  0  0  0  2  0  0  0  0  0  0
  187.1480  178.5810  148.0270 C   0  0  0  0  0  2  0  0  0  0  0  0
  189.1780  177.2120  147.3290 C   0  0  2  0  0  3  0  0  0  0  0  0
  185.1270  179.5390  146.3600 O   0  0  0  0  0  0  0  0  0  0  0  0
  188.4490  177.8250  148.4980 C   0  0  0  0  0  2  0  0  0  0  0  0
  185.8900  178.6240  145.8950 C   0  0  0  0  0  0  0  0  0  0  0  0
  185.5370  177.9420  144.6890 N   0  0  0  0  0  2  0  0  0  0  0  0
  187.0410  178.2790  146.6620 N   0  0  0  0  0  0  0  0  0  0  0  0
  188.1130  177.3620  146.2250 C   0  0  0  0  0  2  0  0  0  0  0  0
  190.0980  176.1180  147.4720 O   0  0  0  0  0  0  0  0  0  0  0  0
  192.7250  175.4380  146.9850 O   0  0  0  0  0  0  0  0  0  0  0  0
  191.6070  176.4440  146.7920 P   0  0  0  0  0  0  0  0  0  0  0  0
  191.8650  177.3890  145.5980 O   0  0  0  0  0  0  0  0  0  0  0  0
  1  6  1  0  0  0  0
  2  3  2  0  0  0  0
  3  5  1  0  0  0  0
  4  2  1  0  0  0  0
  4  1  2  0  0  0  0
  5 33  1  0  0  0  0
  6  5  2  0  0  0  0
  7  2  1  0  0  0  0
  8 12  2  0  0  0  0
  8 11  1  0  0  0  0
  9  7  2  0  0  0  0
 10  7  1  0  0  0  0
 11 10  2  0  0  0  0
 12  9  1  0  0  0  0
 14 15  1  0  0  0  0
 15 13  2  0  0  0  0
 15 12  1  0  0  0  0
 16 18  1  0  0  0  0
 16 14  2  0  0  0  0
 17 20  1  0  0  0  0
 17 13  1  0  0  0  0
 18 17  2  0  0  0  0
 19 20  1  0  0  0  0
 21  1  1  0  0  0  0
 22 21  1  0  0  0  0
 23 22  2  0  0  0  0
 24 22  2  0  0  0  0
 26 25  1  6  0  0  0
 26 22  1  0  0  0  0
 27 31  1  1  0  0  0
 28 30  1  0  0  0  0
 28 29  1  0  0  0  0
 29 27  1  0  0  0  0
 30 26  1  6  0  0  0
 30 27  1  0  0  0  0
 31 32  2  0  0  0  0
 33 39  1  0  0  0  0
 34 37  1  0  0  0  0
 35 42  1  1  0  0  0
 35 37  1  0  0  0  0
 38 36  2  0  0  0  0
 38 40  1  0  0  0  0
 39 38  1  0  0  0  0
 40 34  1  0  0  0  0
 41 40  1  0  0  0  0
 41 35  1  0  0  0  0
 44 43  2  0  0  0  0
 44 42  1  0  0  0  0
 45 44  2  0  0  0  0
M  END
>  <MODEL>
6

>  <REMARK>
 VINA RESULT:      -8.6      4.026      9.940
  Name = 
  12 active torsions:
  status: ('A' for Active; 'I' for Inactive)
    1  A    between atoms: C_2  and  C_6
    2  A    between atoms: S_3  and  N_9
    3  A    between atoms: S_3  and  C_38
    4  A    between atoms: C_4  and  C_12
    5  A    between atoms: C_8  and  N_9
    6  A    between atoms: C_10  and  O_18
    7  A    between atoms: C_17  and  C_26
    8  A    between atoms: C_17  and  N_36
    9  A    between atoms: O_18  and  P_19
   10  A    between atoms: O_27  and  C_41
   11  A    between atoms: C_33  and  C_37
   12  A    between atoms: C_38  and  C_45
                            x       y       z     vdW  Elec       q    Type
                         _______ _______ _______ _____ _____    ______ ____

>  <TORSDO>
F 12

$$$$
=
 OpenBabel10232409473D

 45 49  0  0  1  0  0  0  0  0999 V2000
  190.7050  176.8750  139.4580 C   0  0  0  0  0  0  0  0  0  0  0  0
  189.6160  177.2230  141.5270 C   0  0  0  0  0  0  0  0  0  0  0  0
  188.4810  177.6640  140.9150 C   0  0  0  0  0  3  0  0  0  0  0  0
  190.7420  176.8650  140.7770 C   0  0  0  0  0  3  0  0  0  0  0  0
  188.4260  177.6820  139.5480 C   0  0  0  0  0  0  0  0  0  0  0  0
  189.5830  177.3150  138.8540 C   0  0  0  0  0  3  0  0  0  0  0  0
  189.7720  177.2460  143.0050 C   0  0  0  0  0  0  0  0  0  0  0  0
  189.7700  177.5350  145.8100 N   0  0  0  0  0  0  0  0  0  0  0  0
  188.7010  177.5010  143.6520 N   0  0  0  0  0  0  0  0  0  0  0  0
  190.9550  177.0920  143.7790 C   0  0  0  0  0  3  0  0  0  0  0  0
  190.9680  177.2450  145.1990 C   0  0  0  0  0  3  0  0  0  0  0  0
  188.6570  177.6530  145.0270 C   0  0  0  0  0  0  0  0  0  0  0  0
  186.1860  178.0930  144.4640 C   0  0  0  0  0  2  0  0  0  0  0  0
  186.8810  178.2710  146.6880 C   0  0  0  0  0  3  0  0  0  0  0  0
  187.2310  177.9690  145.3710 C   0  0  0  0  0  0  0  0  0  0  0  0
  185.6080  178.6760  147.0820 N   0  0  0  0  0  2  0  0  0  0  0  0
  184.8320  178.5240  144.9070 C   0  0  0  0  0  0  0  0  0  0  0  0
  184.6290  178.7890  146.2080 N   0  0  0  0  0  0  0  0  0  0  0  0
  184.1460  178.4120  142.5870 C   0  0  0  0  0  1  0  0  0  0  0  0
  183.8200  178.6560  143.9440 O   0  0  0  0  0  0  0  0  0  0  0  0
  191.7970  176.3650  138.6800 N   0  0  0  0  0  2  0  0  0  0  0  0
  191.8660  175.3290  137.2650 S   0  0  0  0  0  0  0  0  0  0  0  0
  191.2810  174.0280  137.6480 O   0  0  0  0  0  0  0  0  0  0  0  0
  191.1480  175.8970  136.0670 O   0  0  0  0  0  0  0  0  0  0  0  0
  194.2840  176.3290  136.9680 N   0  0  0  0  0  1  0  0  0  0  0  0
  193.5880  175.0690  136.8450 C   0  0  1  0  0  3  0  0  0  0  0  0
  195.7660  173.7830  137.4040 C   0  0  1  0  0  3  0  0  0  0  0  0
  194.1990  172.6030  136.6110 C   0  0  0  0  0  2  0  0  0  0  0  0
  195.9380  172.0840  136.9000 S   0  0  0  0  0  0  0  0  0  0  0  0
  194.2820  173.8390  137.4480 C   0  0  2  0  0  3  0  0  0  0  0  0
  196.6630  174.3530  138.4180 C   0  0  0  0  0  3  0  0  0  0  0  0
  196.2330  174.6620  139.6460 C   0  0  0  0  0  2  0  0  0  0  0  0
  187.5120  178.6210  138.9000 C   0  0  0  0  0  2  0  0  0  0  0  0
  183.2990  176.9970  137.2840 C   0  0  0  0  0  2  0  0  0  0  0  0
  181.6100  177.9920  138.9090 C   0  0  2  0  0  3  0  0  0  0  0  0
  186.0010  177.6560  137.0710 O   0  0  0  0  0  0  0  0  0  0  0  0
  181.8130  176.9780  137.8110 C   0  0  0  0  0  2  0  0  0  0  0  0
  185.3860  178.0250  138.1300 C   0  0  0  0  0  0  0  0  0  0  0  0
  186.1250  178.5010  139.2580 N   0  0  0  0  0  2  0  0  0  0  0  0
  183.9690  177.8700  138.1520 N   0  0  0  0  0  0  0  0  0  0  0  0
  183.0730  178.3700  139.2140 C   0  0  0  0  0  2  0  0  0  0  0  0
  180.5440  177.9000  139.8670 O   0  0  0  0  0  0  0  0  0  0  0  0
  180.4240  180.5280  140.6930 O   0  0  0  0  0  0  0  0  0  0  0  0
  180.6490  179.0770  141.0710 P   0  0  0  0  0  0  0  0  0  0  0  0
  180.4630  178.8280  142.5840 O   0  0  0  0  0  0  0  0  0  0  0  0
  1  4  1  0  0  0  0
  2  7  1  0  0  0  0
  3  2  1  0  0  0  0
  4  2  2  0  0  0  0
  5  3  2  0  0  0  0
  6  1  2  0  0  0  0
  6  5  1  0  0  0  0
  7  9  2  0  0  0  0
  7 10  1  0  0  0  0
  9 12  1  0  0  0  0
 10 11  2  0  0  0  0
 11  8  1  0  0  0  0
 12 15  1  0  0  0  0
 12  8  2  0  0  0  0
 13 17  1  0  0  0  0
 13 15  1  0  0  0  0
 14 16  1  0  0  0  0
 15 14  2  0  0  0  0
 17 18  2  0  0  0  0
 18 16  1  0  0  0  0
 19 20  1  0  0  0  0
 20 17  1  0  0  0  0
 21  1  1  0  0  0  0
 22 23  2  0  0  0  0
 22 21  1  0  0  0  0
 24 22  2  0  0  0  0
 26 25  1  1  0  0  0
 26 22  1  0  0  0  0
 27 30  1  0  0  0  0
 27 31  1  1  0  0  0
 28 29  1  0  0  0  0
 28 30  1  0  0  0  0
 29 27  1  0  0  0  0
 30 26  1  6  0  0  0
 31 32  2  0  0  0  0
 33 39  1  0  0  0  0
 33  5  1  0  0  0  0
 34 37  1  0  0  0  0
 34 40  1  0  0  0  0
 35 41  1  0  0  0  0
 35 42  1  1  0  0  0
 36 38  2  0  0  0  0
 37 35  1  0  0  0  0
 38 40  1  0  0  0  0
 38 39  1  0  0  0  0
 40 41  1  0  0  0  0
 42 44  1  0  0  0  0
 43 44  2  0  0  0  0
 44 45  2  0  0  0  0
M  END
>  <MODEL>
7

>  <REMARK>
 VINA RESULT:      -8.5      4.117      9.584
  Name = 
  12 active torsions:
  status: ('A' for Active; 'I' for Inactive)
    1  A    between atoms: C_2  and  C_6
    2  A    between atoms: S_3  and  N_9
    3  A    between atoms: S_3  and  C_38
    4  A    between atoms: C_4  and  C_12
    5  A    between atoms: C_8  and  N_9
    6  A    between atoms: C_10  and  O_18
    7  A    between atoms: C_17  and  C_26
    8  A    between atoms: C_17  and  N_36
    9  A    between atoms: O_18  and  P_19
   10  A    between atoms: O_27  and  C_41
   11  A    between atoms: C_33  and  C_37
   12  A    between atoms: C_38  and  C_45
                            x       y       z     vdW  Elec       q    Type
                         _______ _______ _______ _____ _____    ______ ____

>  <TORSDO>
F 12

$$$$
=
 OpenBabel10232409473D

 45 49  0  0  1  0  0  0  0  0999 V2000
  184.9900  178.2820  138.5110 C   0  0  0  0  0  0  0  0  0  0  0  0
  183.2610  176.6890  138.7600 C   0  0  0  0  0  0  0  0  0  0  0  0
  182.8450  177.2480  139.9320 C   0  0  0  0  0  3  0  0  0  0  0  0
  184.3690  177.2020  138.0770 C   0  0  0  0  0  3  0  0  0  0  0  0
  183.4780  178.3680  140.3980 C   0  0  0  0  0  0  0  0  0  0  0  0
  184.5790  178.8310  139.6720 C   0  0  0  0  0  3  0  0  0  0  0  0
  182.6680  175.4320  138.2340 C   0  0  0  0  0  0  0  0  0  0  0  0
  181.8450  173.0360  136.9970 N   0  0  0  0  0  0  0  0  0  0  0  0
  183.5100  174.6100  137.7380 N   0  0  0  0  0  0  0  0  0  0  0  0
  181.2980  175.0610  138.1490 C   0  0  0  0  0  3  0  0  0  0  0  0
  180.8680  173.8540  137.5170 C   0  0  0  0  0  3  0  0  0  0  0  0
  183.1470  173.4260  137.1210 C   0  0  0  0  0  0  0  0  0  0  0  0
  185.6990  173.0970  137.1110 C   0  0  0  0  0  3  0  0  0  0  0  0
  184.3990  171.8510  135.6220 C   0  0  0  0  0  3  0  0  0  0  0  0
  184.4230  172.7820  136.6600 C   0  0  0  0  0  0  0  0  0  0  0  0
  185.5400  171.2810  135.0610 N   0  0  0  0  0  0  0  0  0  0  0  0
  186.9050  172.4750  136.5000 C   0  0  0  0  0  0  0  0  0  0  0  0
  186.7430  171.5920  135.5010 N   0  0  0  0  0  0  0  0  0  0  0  0
  189.2650  172.8140  136.0810 C   0  0  0  0  0  1  0  0  0  0  0  0
  188.1700  172.8480  136.9790 O   0  0  0  0  0  0  0  0  0  0  0  0
  186.0260  178.9050  137.7390 N   0  0  0  0  0  2  0  0  0  0  0  0
  187.6370  178.3860  137.2720 S   0  0  0  0  0  0  0  0  0  0  0  0
  187.4970  177.5940  136.0330 O   0  0  0  0  0  0  0  0  0  0  0  0
  188.5990  179.5270  137.0620 O   0  0  0  0  0  0  0  0  0  0  0  0
  188.9500  176.2000  137.9280 N   0  0  0  0  0  1  0  0  0  0  0  0
  188.2740  177.3130  138.5560 C   0  0  1  0  0  3  0  0  0  0  0  0
  190.1140  177.2390  140.3780 C   0  0  1  0  0  3  0  0  0  0  0  0
  188.2340  177.9620  141.0230 C   0  0  0  0  0  2  0  0  0  0  0  0
  189.6840  177.5550  142.0760 S   0  0  0  0  0  0  0  0  0  0  0  0
  188.9960  177.9770  139.7370 C   0  0  2  0  0  3  0  0  0  0  0  0
  191.5170  177.2870  139.9440 C   0  0  0  0  0  3  0  0  0  0  0  0
  192.5010  177.6360  140.7790 C   0  0  0  0  0  2  0  0  0  0  0  0
  183.4450  178.6400  141.8340 C   0  0  0  0  0  2  0  0  0  0  0  0
  185.3180  178.6260  146.2490 C   0  0  0  0  0  2  0  0  0  0  0  0
  187.6850  177.7590  145.8920 C   0  0  2  0  0  3  0  0  0  0  0  0
  183.5130  179.4150  144.2740 O   0  0  0  0  0  0  0  0  0  0  0  0
  186.6280  178.0640  146.9230 C   0  0  0  0  0  2  0  0  0  0  0  0
  184.5260  178.7280  143.9060 C   0  0  0  0  0  0  0  0  0  0  0  0
  184.5690  178.1620  142.5920 N   0  0  0  0  0  2  0  0  0  0  0  0
  185.5490  178.4980  144.8720 N   0  0  0  0  0  0  0  0  0  0  0  0
  186.8530  177.8610  144.5990 C   0  0  0  0  0  2  0  0  0  0  0  0
  188.7650  176.8430  146.1310 O   0  0  0  0  0  0  0  0  0  0  0  0
  191.1670  177.0250  147.4730 O   0  0  0  0  0  0  0  0  0  0  0  0
  189.6670  177.2440  147.5000 P   0  0  0  0  0  0  0  0  0  0  0  0
  189.2390  178.2510  148.5900 O   0  0  0  0  0  0  0  0  0  0  0  0
  1  6  1  0  0  0  0
  2  3  2  0  0  0  0
  3  5  1  0  0  0  0
  4  1  2  0  0  0  0
  4  2  1  0  0  0  0
  5 33  1  0  0  0  0
  6  5  2  0  0  0  0
  7  2  1  0  0  0  0
  8 12  2  0  0  0  0
  8 11  1  0  0  0  0
  9  7  2  0  0  0  0
 10  7  1  0  0  0  0
 11 10  2  0  0  0  0
 12  9  1  0  0  0  0
 14 15  1  0  0  0  0
 15 13  2  0  0  0  0
 15 12  1  0  0  0  0
 16 18  1  0  0  0  0
 16 14  2  0  0  0  0
 17 20  1  0  0  0  0
 17 13  1  0  0  0  0
 18 17  2  0  0  0  0
 19 20  1  0  0  0  0
 21  1  1  0  0  0  0
 22 21  1  0  0  0  0
 22 26  1  0  0  0  0
 23 22  2  0  0  0  0
 24 22  2  0  0  0  0
 26 25  1  6  0  0  0
 27 31  1  6  0  0  0
 27 29  1  0  0  0  0
 28 29  1  0  0  0  0
 30 26  1  6  0  0  0
 30 27  1  0  0  0  0
 30 28  1  0  0  0  0
 31 32  2  0  0  0  0
 33 39  1  0  0  0  0
 34 37  1  0  0  0  0
 35 42  1  1  0  0  0
 35 37  1  0  0  0  0
 38 36  2  0  0  0  0
 38 40  1  0  0  0  0
 39 38  1  0  0  0  0
 40 34  1  0  0  0  0
 41 40  1  0  0  0  0
 41 35  1  0  0  0  0
 42 44  1  0  0  0  0
 43 44  2  0  0  0  0
 44 45  2  0  0  0  0
M  END
>  <MODEL>
8

>  <REMARK>
 VINA RESULT:      -8.5      4.383     10.134
  Name = 
  12 active torsions:
  status: ('A' for Active; 'I' for Inactive)
    1  A    between atoms: C_2  and  C_6
    2  A    between atoms: S_3  and  N_9
    3  A    between atoms: S_3  and  C_38
    4  A    between atoms: C_4  and  C_12
    5  A    between atoms: C_8  and  N_9
    6  A    between atoms: C_10  and  O_18
    7  A    between atoms: C_17  and  C_26
    8  A    between atoms: C_17  and  N_36
    9  A    between atoms: O_18  and  P_19
   10  A    between atoms: O_27  and  C_41
   11  A    between atoms: C_33  and  C_37
   12  A    between atoms: C_38  and  C_45
                            x       y       z     vdW  Elec       q    Type
                         _______ _______ _______ _____ _____    ______ ____

>  <TORSDO>
F 12

$$$$
=
 OpenBabel10232409473D

 45 49  0  0  1  0  0  0  0  0999 V2000
  190.8980  177.1450  139.6460 C   0  0  0  0  0  0  0  0  0  0  0  0
  189.6890  177.2750  141.6730 C   0  0  0  0  0  0  0  0  0  0  0  0
  188.5340  177.5960  141.0230 C   0  0  0  0  0  3  0  0  0  0  0  0
  190.8810  177.0890  140.9630 C   0  0  0  0  0  3  0  0  0  0  0  0
  188.5340  177.6610  139.6560 C   0  0  0  0  0  0  0  0  0  0  0  0
  189.7560  177.4670  139.0050 C   0  0  0  0  0  3  0  0  0  0  0  0
  189.7790  177.2590  143.1560 C   0  0  0  0  0  0  0  0  0  0  0  0
  189.6560  177.4790  145.9640 N   0  0  0  0  0  0  0  0  0  0  0  0
  188.6840  177.5150  143.7610 N   0  0  0  0  0  0  0  0  0  0  0  0
  190.9240  177.0670  143.9770 C   0  0  0  0  0  3  0  0  0  0  0  0
  190.8750  177.1850  145.4000 C   0  0  0  0  0  3  0  0  0  0  0  0
  188.5810  177.6340  145.1360 C   0  0  0  0  0  0  0  0  0  0  0  0
  186.1680  178.2300  144.4750 C   0  0  0  0  0  2  0  0  0  0  0  0
  186.7200  178.1310  146.7430 C   0  0  0  0  0  3  0  0  0  0  0  0
  187.1460  177.9650  145.4250 C   0  0  0  0  0  0  0  0  0  0  0  0
  185.4360  178.5380  147.1010 N   0  0  0  0  0  2  0  0  0  0  0  0
  184.8010  178.6610  144.8780 C   0  0  0  0  0  0  0  0  0  0  0  0
  184.5210  178.7860  146.1860 N   0  0  0  0  0  0  0  0  0  0  0  0
  184.0840  178.4150  142.5790 C   0  0  0  0  0  1  0  0  0  0  0  0
  183.8600  178.9390  143.8760 O   0  0  0  0  0  0  0  0  0  0  0  0
  192.0760  176.8040  138.9020 N   0  0  0  0  0  2  0  0  0  0  0  0
  192.3690  175.6780  137.5880 S   0  0  0  0  0  0  0  0  0  0  0  0
  191.7970  174.3780  137.9930 O   0  0  0  0  0  0  0  0  0  0  0  0
  191.7830  176.1230  136.2720 O   0  0  0  0  0  0  0  0  0  0  0  0
  194.7270  175.3780  138.7190 N   0  0  0  0  0  1  0  0  0  0  0  0
  194.1390  175.4800  137.4030 C   0  0  1  0  0  3  0  0  0  0  0  0
  195.4600  173.3310  136.8110 C   0  0  1  0  0  3  0  0  0  0  0  0
  195.7570  174.9650  135.4990 C   0  0  0  0  0  2  0  0  0  0  0  0
  196.6920  173.3830  135.5270 S   0  0  0  0  0  0  0  0  0  0  0  0
  194.6300  174.4750  136.3520 C   0  0  2  0  0  3  0  0  0  0  0  0
  194.9350  172.0450  137.2890 C   0  0  0  0  0  3  0  0  0  0  0  0
  195.7420  171.0750  137.7290 C   0  0  0  0  0  2  0  0  0  0  0  0
  187.5380  178.5050  138.9990 C   0  0  0  0  0  2  0  0  0  0  0  0
  182.7920  178.7350  138.3480 C   0  0  0  0  0  2  0  0  0  0  0  0
  182.2040  176.4400  137.4170 C   0  0  2  0  0  3  0  0  0  0  0  0
  185.2290  179.5110  139.4630 O   0  0  0  0  0  0  0  0  0  0  0  0
  181.6990  177.8430  137.6430 C   0  0  0  0  0  2  0  0  0  0  0  0
  185.2110  178.4320  138.7770 C   0  0  0  0  0  0  0  0  0  0  0  0
  186.4390  177.8180  138.3770 N   0  0  0  0  0  2  0  0  0  0  0  0
  183.9380  177.9280  138.3800 N   0  0  0  0  0  0  0  0  0  0  0  0
  183.7030  176.6290  137.7190 C   0  0  0  0  0  2  0  0  0  0  0  0
  181.6460  175.5620  136.4260 O   0  0  0  0  0  0  0  0  0  0  0  0
  182.7300  173.0940  137.0040 O   0  0  0  0  0  0  0  0  0  0  0  0
  181.4960  173.9740  136.9750 P   0  0  0  0  0  0  0  0  0  0  0  0
  180.3780  173.4500  137.9030 O   0  0  0  0  0  0  0  0  0  0  0  0
  1  4  1  0  0  0  0
  2  7  1  0  0  0  0
  3  2  1  0  0  0  0
  4  2  2  0  0  0  0
  5  3  2  0  0  0  0
  6  1  2  0  0  0  0
  6  5  1  0  0  0  0
  7  9  2  0  0  0  0
  7 10  1  0  0  0  0
  9 12  1  0  0  0  0
 10 11  2  0  0  0  0
 11  8  1  0  0  0  0
 12 15  1  0  0  0  0
 12  8  2  0  0  0  0
 13 17  1  0  0  0  0
 13 15  1  0  0  0  0
 14 16  1  0  0  0  0
 15 14  2  0  0  0  0
 17 18  2  0  0  0  0
 18 16  1  0  0  0  0
 19 20  1  0  0  0  0
 20 17  1  0  0  0  0
 21  1  1  0  0  0  0
 22 23  2  0  0  0  0
 22 21  1  0  0  0  0
 24 22  2  0  0  0  0
 26 22  1  0  0  0  0
 26 25  1  1  0  0  0
 27 31  1  6  0  0  0
 28 29  1  0  0  0  0
 28 30  1  0  0  0  0
 29 27  1  0  0  0  0
 30 27  1  0  0  0  0
 30 26  1  1  0  0  0
 31 32  2  0  0  0  0
 33  5  1  0  0  0  0
 34 40  1  0  0  0  0
 35 42  1  6  0  0  0
 35 37  1  0  0  0  0
 35 41  1  0  0  0  0
 37 34  1  0  0  0  0
 38 36  2  0  0  0  0
 39 38  1  0  0  0  0
 39 33  1  0  0  0  0
 40 38  1  0  0  0  0
 41 40  1  0  0  0  0
 42 44  1  0  0  0  0
 44 43  2  0  0  0  0
 44 45  2  0  0  0  0
M  END
>  <MODEL>
9

>  <REMARK>
 VINA RESULT:      -8.4      4.032      9.440
  Name = 
  12 active torsions:
  status: ('A' for Active; 'I' for Inactive)
    1  A    between atoms: C_2  and  C_6
    2  A    between atoms: S_3  and  N_9
    3  A    between atoms: S_3  and  C_38
    4  A    between atoms: C_4  and  C_12
    5  A    between atoms: C_8  and  N_9
    6  A    between atoms: C_10  and  O_18
    7  A    between atoms: C_17  and  C_26
    8  A    between atoms: C_17  and  N_36
    9  A    between atoms: O_18  and  P_19
   10  A    between atoms: O_27  and  C_41
   11  A    between atoms: C_33  and  C_37
   12  A    between atoms: C_38  and  C_45
                            x       y       z     vdW  Elec       q    Type
                         _______ _______ _______ _____ _____    ______ ____

>  <TORSDO>
F 12

$$$$
