=
 OpenBabel10232408063D

 38 43  0  0  1  0  0  0  0  0999 V2000
  189.0760  179.1560  138.3650 C   0  0  0  0  0  1  0  0  0  0  0  0
  184.3700  178.9830  141.5730 C   0  0  1  0  0  3  0  0  0  0  0  0
  181.8300  176.1360  137.0640 C   0  0  0  0  0  2  0  0  0  0  0  0
  184.9650  179.3930  140.2040 C   0  0  1  0  0  3  0  0  0  0  0  0
  187.7180  177.6250  143.0070 C   0  0  0  0  0  0  0  0  0  0  0  0
  186.7390  178.0290  142.0700 C   0  0  0  0  0  0  0  0  0  0  0  0
  182.6260  176.0760  138.3720 C   0  0  0  0  0  2  0  0  0  0  0  0
  182.9950  178.3110  141.4880 C   0  0  0  0  0  2  0  0  0  0  0  0
  186.0170  178.4080  139.6710 C   0  0  0  0  0  2  0  0  0  0  0  0
  188.3730  177.7960  140.3050 C   0  0  0  0  0  0  0  0  0  0  0  0
  185.2970  178.1920  142.5150 C   0  0  1  0  0  3  0  0  0  0  0  0
  187.4460  177.6530  144.4870 C   0  0  0  0  0  2  0  0  0  0  0  0
  190.3400  177.2700  139.2330 N   0  0  0  0  0  0  0  0  0  0  0  0
  187.0630  178.1110  140.6950 C   0  0  0  0  0  0  0  0  0  0  0  0
  183.0420  177.1070  140.5560 C   0  0  0  0  0  2  0  0  0  0  0  0
  188.9900  177.7530  138.9430 C   0  0  2  0  0  3  0  0  0  0  0  0
  182.5590  177.4080  139.1260 C   0  0  0  0  0  0  0  0  0  0  0  0
  189.3090  177.4220  141.2190 C   0  0  0  0  0  0  0  0  0  0  0  0
  180.4880  176.4530  137.3370 O   0  0  0  0  0  0  0  0  0  0  0  0
  181.1010  177.9180  139.1480 C   0  0  0  0  0  2  0  0  0  0  0  0
  183.8790  179.6760  139.1430 C   0  0  0  0  0  2  0  0  0  0  0  0
  180.4810  177.8050  137.7490 C   0  0  0  0  0  2  0  0  0  0  0  0
  183.4600  178.4130  138.3740 C   0  0  0  0  0  2  0  0  0  0  0  0
  189.0190  177.3300  142.5740 C   0  0  0  0  0  3  0  0  0  0  0  0
  190.5170  177.0960  140.5060 C   0  0  0  0  0  3  0  0  0  0  0  0
  185.9650  177.7690  144.8620 C   0  0  2  0  0  3  0  0  0  0  0  0
  185.2150  178.7270  143.9370 C   0  0  0  0  0  2  0  0  0  0  0  0
  185.8200  178.1590  146.3320 C   0  0  2  0  0  3  0  0  0  0  0  0
  184.8560  179.1610  146.4680 O   0  0  0  0  0  1  0  0  0  0  0  0
  187.1410  178.5980  146.9390 C   0  0  0  0  0  2  0  0  0  0  0  0
  187.5540  177.6850  148.0800 C   0  0  0  0  0  2  0  0  0  0  0  0
  190.1000  177.5760  147.9470 C   0  0  0  0  0  0  0  0  0  0  0  0
  188.8830  178.0100  148.5730 N   0  0  0  0  0  2  0  0  0  0  0  0
  191.2050  178.0110  148.3770 O   0  0  0  0  0  0  0  0  0  0  0  0
  190.0850  176.5990  146.8090 C   0  0  0  0  0  2  0  0  0  0  0  0
  191.4240  176.5320  146.1540 C   0  0  0  0  0  0  0  0  0  0  0  0
  191.7020  177.3370  145.2310 O   0  0  0  0  0  0  0  0  0  0  0  0
  192.3790  175.6130  146.5710 O   0  0  0  0  0  1  0  0  0  0  0  0
  2  8  1  6  0  0  0
  2 11  1  0  0  0  0
  3 19  1  0  0  0  0
  3  7  1  0  0  0  0
  4 21  1  6  0  0  0
  4  2  1  0  0  0  0
  5 12  1  0  0  0  0
  6 11  1  0  0  0  0
  6  5  2  0  0  0  0
  7 17  1  0  0  0  0
  9  4  1  0  0  0  0
  9 14  1  0  0  0  0
 10 14  2  0  0  0  0
 10 18  1  0  0  0  0
 11 27  1  1  0  0  0
 12 26  1  0  0  0  0
 13 25  2  0  0  0  0
 14  6  1  0  0  0  0
 15  8  1  0  0  0  0
 16  1  1  1  0  0  0
 16 13  1  0  0  0  0
 16 10  1  0  0  0  0
 17 20  1  0  0  0  0
 17 15  1  0  0  0  0
 18 24  2  0  0  0  0
 19 22  1  0  0  0  0
 22 20  1  0  0  0  0
 23 17  1  0  0  0  0
 23 21  1  0  0  0  0
 24  5  1  0  0  0  0
 25 18  1  0  0  0  0
 26 28  1  1  0  0  0
 27 26  1  0  0  0  0
 28 29  1  6  0  0  0
 28 30  1  0  0  0  0
 30 31  1  0  0  0  0
 31 33  1  0  0  0  0
 32 34  2  0  0  0  0
 32 33  1  0  0  0  0
 35 32  1  0  0  0  0
 36 38  1  0  0  0  0
 36 35  1  0  0  0  0
 37 36  2  0  0  0  0
M  END
>  <MODEL>
1

>  <REMARK>
 VINA RESULT:      -9.2      0.000      0.000
  Name = 
  6 active torsions:
  status: ('A' for Active; 'I' for Inactive)
    1  A    between atoms: C_3  and  C_8
    2  A    between atoms: C_3  and  C_22
    3  A    between atoms: C_19  and  C_23
    4  A    between atoms: C_19  and  C_30
    5  A    between atoms: C_23  and  N_32
    6  A    between atoms: C_30  and  C_36
                            x       y       z     vdW  Elec       q    Type
                         _______ _______ _______ _____ _____    ______ ____

>  <TORSDO>
F 6

$$$$
=
 OpenBabel10232408063D

 38 43  0  0  1  0  0  0  0  0999 V2000
  186.9770  178.0650  134.9160 C   0  0  0  0  0  1  0  0  0  0  0  0
  186.0160  179.0620  140.4430 C   0  0  1  0  0  3  0  0  0  0  0  0
  180.6660  176.7150  139.5700 C   0  0  0  0  0  2  0  0  0  0  0  0
  185.5010  179.2820  138.9990 C   0  0  1  0  0  3  0  0  0  0  0  0
  189.1550  177.0330  139.3790 C   0  0  0  0  0  0  0  0  0  0  0  0
  187.8680  177.6150  139.3270 C   0  0  0  0  0  0  0  0  0  0  0  0
  182.1390  176.5200  139.9450 C   0  0  0  0  0  2  0  0  0  0  0  0
  184.9210  178.7150  141.4570 C   0  0  0  0  0  2  0  0  0  0  0  0
  185.7100  178.0690  138.0800 C   0  0  0  0  0  2  0  0  0  0  0  0
  187.6980  176.9630  137.0070 C   0  0  0  0  0  0  0  0  0  0  0  0
  187.2180  178.1130  140.6050 C   0  0  1  0  0  3  0  0  0  0  0  0
  190.0300  177.1690  140.5960 C   0  0  0  0  0  2  0  0  0  0  0  0
  188.2120  175.9720  134.9950 N   0  0  0  0  0  0  0  0  0  0  0  0
  187.1190  177.5780  138.1270 C   0  0  0  0  0  0  0  0  0  0  0  0
  184.1240  177.5020  140.9940 C   0  0  0  0  0  2  0  0  0  0  0  0
  187.1430  176.7370  135.6360 C   0  0  2  0  0  3  0  0  0  0  0  0
  182.8120  177.8570  140.2730 C   0  0  0  0  0  0  0  0  0  0  0  0
  188.9430  176.4170  137.0680 C   0  0  0  0  0  0  0  0  0  0  0  0
  179.9830  177.3350  140.6300 O   0  0  0  0  0  0  0  0  0  0  0  0
  181.8950  178.6830  141.2030 C   0  0  0  0  0  2  0  0  0  0  0  0
  184.0360  179.7680  138.9570 C   0  0  0  0  0  2  0  0  0  0  0  0
  180.4550  178.6670  140.6750 C   0  0  0  0  0  2  0  0  0  0  0  0
  183.0290  178.6080  138.9410 C   0  0  0  0  0  2  0  0  0  0  0  0
  189.7000  176.4370  138.2310 C   0  0  0  0  0  3  0  0  0  0  0  0
  189.2190  175.8040  135.7940 C   0  0  0  0  0  3  0  0  0  0  0  0
  189.2970  177.6280  141.8620 C   0  0  2  0  0  3  0  0  0  0  0  0
  188.2500  178.6990  141.5570 C   0  0  0  0  0  2  0  0  0  0  0  0
  190.3010  178.0890  142.9180 C   0  0  2  0  0  3  0  0  0  0  0  0
  191.2710  177.1040  143.1150 O   0  0  0  0  0  1  0  0  0  0  0  0
  189.6240  178.4480  144.2290 C   0  0  0  0  0  2  0  0  0  0  0  0
  189.2520  177.2030  145.0160 C   0  0  0  0  0  2  0  0  0  0  0  0
  187.8240  177.5030  147.1100 C   0  0  0  0  0  0  0  0  0  0  0  0
  189.0900  177.4920  146.4330 N   0  0  0  0  0  2  0  0  0  0  0  0
  187.7970  177.6420  148.3650 O   0  0  0  0  0  0  0  0  0  0  0  0
  186.5350  177.3760  146.3540 C   0  0  0  0  0  2  0  0  0  0  0  0
  185.9100  178.7150  146.1480 C   0  0  0  0  0  0  0  0  0  0  0  0
  185.6270  179.0920  144.9840 O   0  0  0  0  0  0  0  0  0  0  0  0
  185.6080  179.5370  147.2260 O   0  0  0  0  0  1  0  0  0  0  0  0
  2 11  1  0  0  0  0
  2  8  1  1  0  0  0
  3  7  1  0  0  0  0
  3 19  1  0  0  0  0
  4  9  1  6  0  0  0
  4  2  1  0  0  0  0
  5 12  1  0  0  0  0
  6  5  1  0  0  0  0
  6 11  1  0  0  0  0
  7 17  1  0  0  0  0
  9 14  1  0  0  0  0
 10 18  2  0  0  0  0
 10 14  1  0  0  0  0
 11 27  1  1  0  0  0
 12 26  1  0  0  0  0
 13 16  1  0  0  0  0
 13 25  2  0  0  0  0
 14  6  2  0  0  0  0
 15  8  1  0  0  0  0
 16  1  1  6  0  0  0
 16 10  1  0  0  0  0
 17 15  1  0  0  0  0
 17 20  1  0  0  0  0
 18 24  1  0  0  0  0
 19 22  1  0  0  0  0
 21  4  1  0  0  0  0
 22 20  1  0  0  0  0
 23 21  1  0  0  0  0
 23 17  1  0  0  0  0
 24  5  2  0  0  0  0
 25 18  1  0  0  0  0
 26 28  1  1  0  0  0
 27 26  1  0  0  0  0
 28 29  1  1  0  0  0
 28 30  1  0  0  0  0
 30 31  1  0  0  0  0
 31 33  1  0  0  0  0
 32 34  2  0  0  0  0
 33 32  1  0  0  0  0
 35 32  1  0  0  0  0
 36 35  1  0  0  0  0
 36 38  1  0  0  0  0
 37 36  2  0  0  0  0
M  END
>  <MODEL>
2

>  <REMARK>
 VINA RESULT:      -7.9      2.059      3.872
  Name = 
  6 active torsions:
  status: ('A' for Active; 'I' for Inactive)
    1  A    between atoms: C_3  and  C_8
    2  A    between atoms: C_3  and  C_22
    3  A    between atoms: C_19  and  C_23
    4  A    between atoms: C_19  and  C_30
    5  A    between atoms: C_23  and  N_32
    6  A    between atoms: C_30  and  C_36
                            x       y       z     vdW  Elec       q    Type
                         _______ _______ _______ _____ _____    ______ ____

>  <TORSDO>
F 6

$$$$
=
 OpenBabel10232408063D

 38 43  0  0  1  0  0  0  0  0999 V2000
  191.9750  177.9440  142.6080 C   0  0  0  0  0  1  0  0  0  0  0  0
  187.2310  178.6500  139.5330 C   0  0  1  0  0  3  0  0  0  0  0  0
  189.4700  174.6420  135.8160 C   0  0  0  0  0  2  0  0  0  0  0  0
  188.7790  178.6640  139.5100 C   0  0  1  0  0  3  0  0  0  0  0  0
  186.9540  177.7650  143.3070 C   0  0  0  0  0  0  0  0  0  0  0  0
  187.4930  177.8850  142.0050 C   0  0  0  0  0  0  0  0  0  0  0  0
  188.6190  174.9550  137.0510 C   0  0  0  0  0  2  0  0  0  0  0  0
  186.5880  177.9740  138.3170 C   0  0  0  0  0  2  0  0  0  0  0  0
  189.4170  177.5750  140.3860 C   0  0  0  0  0  2  0  0  0  0  0  0
  189.6400  177.1770  142.8600 C   0  0  0  0  0  0  0  0  0  0  0  0
  186.5690  178.1590  140.8330 C   0  0  1  0  0  3  0  0  0  0  0  0
  185.5480  178.2040  143.6180 C   0  0  0  0  0  2  0  0  0  0  0  0
  191.2330  176.3820  144.3180 N   0  0  0  0  0  0  0  0  0  0  0  0
  188.8550  177.5820  141.7700 C   0  0  0  0  0  0  0  0  0  0  0  0
  187.1220  176.5580  138.1440 C   0  0  0  0  0  2  0  0  0  0  0  0
  191.0740  176.7580  142.9130 C   0  0  2  0  0  3  0  0  0  0  0  0
  188.2670  176.4440  137.1220 C   0  0  0  0  0  0  0  0  0  0  0  0
  189.1100  177.0780  144.1100 C   0  0  0  0  0  0  0  0  0  0  0  0
  188.7760  175.0160  134.6520 O   0  0  0  0  0  0  0  0  0  0  0  0
  187.7970  176.9320  135.7340 C   0  0  0  0  0  2  0  0  0  0  0  0
  189.3540  178.6340  138.0770 C   0  0  0  0  0  2  0  0  0  0  0  0
  188.7540  176.4300  134.6460 C   0  0  0  0  0  2  0  0  0  0  0  0
  189.5430  177.2040  137.5460 C   0  0  0  0  0  2  0  0  0  0  0  0
  187.7780  177.3680  144.3710 C   0  0  0  0  0  3  0  0  0  0  0  0
  190.1360  176.5720  144.9840 C   0  0  0  0  0  3  0  0  0  0  0  0
  184.6570  178.4130  142.3890 C   0  0  2  0  0  3  0  0  0  0  0  0
  185.4190  179.0700  141.2370 C   0  0  0  0  0  2  0  0  0  0  0  0
  183.4030  179.1980  142.7700 C   0  0  2  0  0  3  0  0  0  0  0  0
  183.4260  179.5020  144.1330 O   0  0  0  0  0  1  0  0  0  0  0  0
  182.1320  178.4520  142.4070 C   0  0  0  0  0  2  0  0  0  0  0  0
  181.6790  178.7880  140.9960 C   0  0  0  0  0  2  0  0  0  0  0  0
  181.5670  176.5940  139.6970 C   0  0  0  0  0  0  0  0  0  0  0  0
  180.9460  177.6870  140.3910 N   0  0  0  0  0  2  0  0  0  0  0  0
  180.8570  175.6230  139.3130 O   0  0  0  0  0  0  0  0  0  0  0  0
  183.0370  176.5970  139.3980 C   0  0  0  0  0  2  0  0  0  0  0  0
  183.3140  175.8950  138.1110 C   0  0  0  0  0  0  0  0  0  0  0  0
  183.7500  174.7170  138.1310 O   0  0  0  0  0  1  0  0  0  0  0  0
  183.0680  176.5130  136.8920 O   0  0  0  0  0  0  0  0  0  0  0  0
  2  8  1  6  0  0  0
  2 11  1  0  0  0  0
  3  7  1  0  0  0  0
  4 21  1  6  0  0  0
  4  2  1  0  0  0  0
  4  9  1  0  0  0  0
  5 12  1  0  0  0  0
  5 24  1  0  0  0  0
  6  5  2  0  0  0  0
  7 17  1  0  0  0  0
  9 14  1  0  0  0  0
 10 16  1  0  0  0  0
 10 18  1  0  0  0  0
 11 27  1  1  0  0  0
 11  6  1  0  0  0  0
 13 25  2  0  0  0  0
 14  6  1  0  0  0  0
 14 10  2  0  0  0  0
 15  8  1  0  0  0  0
 16  1  1  1  0  0  0
 16 13  1  0  0  0  0
 17 23  1  0  0  0  0
 17 15  1  0  0  0  0
 18 24  2  0  0  0  0
 18 25  1  0  0  0  0
 19  3  1  0  0  0  0
 20 17  1  0  0  0  0
 22 19  1  0  0  0  0
 22 20  1  0  0  0  0
 23 21  1  0  0  0  0
 26 28  1  1  0  0  0
 26 12  1  0  0  0  0
 27 26  1  0  0  0  0
 28 29  1  1  0  0  0
 30 28  1  0  0  0  0
 31 30  1  0  0  0  0
 32 33  1  0  0  0  0
 33 31  1  0  0  0  0
 34 32  2  0  0  0  0
 35 32  1  0  0  0  0
 36 37  1  0  0  0  0
 36 35  1  0  0  0  0
 38 36  2  0  0  0  0
M  END
>  <MODEL>
3

>  <REMARK>
 VINA RESULT:      -7.8      3.288      6.929
  Name = 
  6 active torsions:
  status: ('A' for Active; 'I' for Inactive)
    1  A    between atoms: C_3  and  C_8
    2  A    between atoms: C_3  and  C_22
    3  A    between atoms: C_19  and  C_23
    4  A    between atoms: C_19  and  C_30
    5  A    between atoms: C_23  and  N_32
    6  A    between atoms: C_30  and  C_36
                            x       y       z     vdW  Elec       q    Type
                         _______ _______ _______ _____ _____    ______ ____

>  <TORSDO>
F 6

$$$$
=
 OpenBabel10232408063D

 38 43  0  0  1  0  0  0  0  0999 V2000
  191.8190  178.0510  142.9510 C   0  0  0  0  0  1  0  0  0  0  0  0
  187.1810  178.7160  139.7090 C   0  0  1  0  0  3  0  0  0  0  0  0
  189.6210  174.7840  136.0360 C   0  0  0  0  0  2  0  0  0  0  0  0
  188.7290  178.7540  139.7440 C   0  0  1  0  0  3  0  0  0  0  0  0
  186.7790  177.7860  143.4600 C   0  0  0  0  0  0  0  0  0  0  0  0
  187.3640  177.9280  142.1810 C   0  0  0  0  0  0  0  0  0  0  0  0
  188.7190  175.0700  137.2420 C   0  0  0  0  0  2  0  0  0  0  0  0
  186.5950  178.0430  138.4630 C   0  0  0  0  0  2  0  0  0  0  0  0
  189.3510  177.6660  140.6310 C   0  0  0  0  0  2  0  0  0  0  0  0
  189.4880  177.2440  143.1080 C   0  0  0  0  0  0  0  0  0  0  0  0
  186.4790  178.2000  140.9790 C   0  0  1  0  0  3  0  0  0  0  0  0
  185.3550  178.1990  143.7240 C   0  0  0  0  0  2  0  0  0  0  0  0
  191.0390  176.4590  144.6160 N   0  0  0  0  0  0  0  0  0  0  0  0
  188.7380  177.6490  141.9940 C   0  0  0  0  0  0  0  0  0  0  0  0
  187.1580  176.6370  138.2960 C   0  0  0  0  0  2  0  0  0  0  0  0
  190.9270  176.8480  143.2100 C   0  0  2  0  0  3  0  0  0  0  0  0
  188.3410  176.5530  137.3160 C   0  0  0  0  0  0  0  0  0  0  0  0
  188.9150  177.1240  144.3360 C   0  0  0  0  0  0  0  0  0  0  0  0
  188.9650  175.1600  134.8520 O   0  0  0  0  0  0  0  0  0  0  0  0
  187.9150  177.0490  135.9160 C   0  0  0  0  0  2  0  0  0  0  0  0
  189.3570  178.7490  138.3330 C   0  0  0  0  0  2  0  0  0  0  0  0
  188.9200  176.5730  134.8590 C   0  0  0  0  0  2  0  0  0  0  0  0
  189.5890  177.3280  137.7950 C   0  0  0  0  0  2  0  0  0  0  0  0
  187.5690  177.3890  144.5500 C   0  0  0  0  0  3  0  0  0  0  0  0
  189.9150  176.6240  145.2430 C   0  0  0  0  0  3  0  0  0  0  0  0
  184.5080  178.4070  142.4640 C   0  0  2  0  0  3  0  0  0  0  0  0
  185.3000  179.0880  141.3490 C   0  0  0  0  0  2  0  0  0  0  0  0
  183.2280  179.1680  142.8060 C   0  0  2  0  0  3  0  0  0  0  0  0
  183.1880  179.4450  144.1750 O   0  0  0  0  0  1  0  0  0  0  0  0
  181.9830  178.4130  142.3740 C   0  0  0  0  0  2  0  0  0  0  0  0
  181.3610  179.0370  141.1370 C   0  0  0  0  0  2  0  0  0  0  0  0
  182.4950  179.0810  138.8520 C   0  0  0  0  0  0  0  0  0  0  0  0
  181.8250  178.3920  139.9190 N   0  0  0  0  0  2  0  0  0  0  0  0
  182.9700  178.4140  137.8900 O   0  0  0  0  0  0  0  0  0  0  0  0
  182.6190  180.5750  138.8460 C   0  0  0  0  0  2  0  0  0  0  0  0
  181.4610  181.1980  138.1400 C   0  0  0  0  0  0  0  0  0  0  0  0
  180.4410  180.5070  137.8980 O   0  0  0  0  0  1  0  0  0  0  0  0
  181.4820  182.5380  137.7750 O   0  0  0  0  0  0  0  0  0  0  0  0
  2  8  1  6  0  0  0
  2  4  1  0  0  0  0
  2 11  1  0  0  0  0
  3  7  1  0  0  0  0
  4 21  1  6  0  0  0
  4  9  1  0  0  0  0
  5 12  1  0  0  0  0
  5 24  1  0  0  0  0
  6  5  2  0  0  0  0
  7 17  1  0  0  0  0
  9 14  1  0  0  0  0
 10 16  1  0  0  0  0
 10 18  1  0  0  0  0
 11 27  1  1  0  0  0
 11  6  1  0  0  0  0
 13 25  2  0  0  0  0
 14  6  1  0  0  0  0
 14 10  2  0  0  0  0
 15  8  1  0  0  0  0
 16  1  1  1  0  0  0
 16 13  1  0  0  0  0
 17 23  1  0  0  0  0
 17 15  1  0  0  0  0
 18 24  2  0  0  0  0
 18 25  1  0  0  0  0
 19 22  1  0  0  0  0
 19  3  1  0  0  0  0
 20 17  1  0  0  0  0
 22 20  1  0  0  0  0
 23 21  1  0  0  0  0
 26 28  1  1  0  0  0
 26 12  1  0  0  0  0
 27 26  1  0  0  0  0
 28 29  1  1  0  0  0
 30 28  1  0  0  0  0
 31 30  1  0  0  0  0
 32 33  1  0  0  0  0
 33 31  1  0  0  0  0
 34 32  2  0  0  0  0
 35 32  1  0  0  0  0
 36 35  1  0  0  0  0
 37 36  1  0  0  0  0
 38 36  2  0  0  0  0
M  END
>  <MODEL>
4

>  <REMARK>
 VINA RESULT:      -7.6      3.401      7.325
  Name = 
  6 active torsions:
  status: ('A' for Active; 'I' for Inactive)
    1  A    between atoms: C_3  and  C_8
    2  A    between atoms: C_3  and  C_22
    3  A    between atoms: C_19  and  C_23
    4  A    between atoms: C_19  and  C_30
    5  A    between atoms: C_23  and  N_32
    6  A    between atoms: C_30  and  C_36
                            x       y       z     vdW  Elec       q    Type
                         _______ _______ _______ _____ _____    ______ ____

>  <TORSDO>
F 6

$$$$
=
 OpenBabel10232408063D

 38 43  0  0  1  0  0  0  0  0999 V2000
  186.1660  177.7290  136.6560 C   0  0  0  0  0  1  0  0  0  0  0  0
  190.8540  177.6180  139.8920 C   0  0  1  0  0  3  0  0  0  0  0  0
  187.2350  176.7530  144.4800 C   0  0  0  0  0  2  0  0  0  0  0  0
  189.4650  178.2690  139.6820 C   0  0  1  0  0  3  0  0  0  0  0  0
  190.5910  175.2540  136.8190 C   0  0  0  0  0  0  0  0  0  0  0  0
  190.2020  176.0980  137.8840 C   0  0  0  0  0  0  0  0  0  0  0  0
  188.0950  176.1630  143.3580 C   0  0  0  0  0  2  0  0  0  0  0  0
  191.1840  177.2950  141.3530 C   0  0  0  0  0  2  0  0  0  0  0  0
  188.3900  177.2830  139.2010 C   0  0  0  0  0  2  0  0  0  0  0  0
  187.9320  176.0470  137.0580 C   0  0  0  0  0  0  0  0  0  0  0  0
  191.1940  176.4200  138.9870 C   0  0  1  0  0  3  0  0  0  0  0  0
  192.0370  174.9150  136.5740 C   0  0  0  0  0  2  0  0  0  0  0  0
  186.1020  175.4560  135.7940 N   0  0  0  0  0  0  0  0  0  0  0  0
  188.8520  176.5000  138.0150 C   0  0  0  0  0  0  0  0  0  0  0  0
  190.0980  176.4220  141.9700 C   0  0  0  0  0  2  0  0  0  0  0  0
  186.4560  176.2680  136.9580 C   0  0  2  0  0  3  0  0  0  0  0  0
  189.0520  177.2100  142.7790 C   0  0  0  0  0  0  0  0  0  0  0  0
  188.3230  175.2450  136.0300 C   0  0  0  0  0  0  0  0  0  0  0  0
  188.0620  177.2470  145.5040 O   0  0  0  0  0  0  0  0  0  0  0  0
  189.7340  177.9790  143.9320 C   0  0  0  0  0  2  0  0  0  0  0  0
  188.9840  179.0590  140.9180 C   0  0  0  0  0  2  0  0  0  0  0  0
  188.6920  178.3980  144.9770 C   0  0  0  0  0  2  0  0  0  0  0  0
  188.2140  178.1800  141.9170 C   0  0  0  0  0  2  0  0  0  0  0  0
  189.6400  174.8340  135.8770 C   0  0  0  0  0  3  0  0  0  0  0  0
  187.1490  174.8950  135.2730 C   0  0  0  0  0  3  0  0  0  0  0  0
  192.9730  175.2210  137.7480 C   0  0  2  0  0  3  0  0  0  0  0  0
  192.6100  176.5340  138.4410 C   0  0  0  0  0  2  0  0  0  0  0  0
  194.4290  175.1980  137.2860 C   0  0  2  0  0  3  0  0  0  0  0  0
  194.6060  176.0840  136.2210 O   0  0  0  0  0  1  0  0  0  0  0  0
  194.8840  173.8000  136.9040 C   0  0  0  0  0  2  0  0  0  0  0  0
  195.8290  173.2240  137.9440 C   0  0  0  0  0  2  0  0  0  0  0  0
  197.8820  174.6560  138.4370 C   0  0  0  0  0  0  0  0  0  0  0  0
  196.5210  174.2710  138.6800 N   0  0  0  0  0  2  0  0  0  0  0  0
  198.3570  175.6590  139.0410 O   0  0  0  0  0  0  0  0  0  0  0  0
  198.7570  173.8780  137.5000 C   0  0  0  0  0  2  0  0  0  0  0  0
  198.9490  174.6200  136.2190 C   0  0  0  0  0  0  0  0  0  0  0  0
  197.9570  174.8470  135.4830 O   0  0  0  0  0  0  0  0  0  0  0  0
  200.2010  175.0900  135.8460 O   0  0  0  0  0  1  0  0  0  0  0  0
  2  8  1  1  0  0  0
  3 19  1  0  0  0  0
  4  9  1  1  0  0  0
  4  2  1  0  0  0  0
  4 21  1  0  0  0  0
  5  6  1  0  0  0  0
  6 14  2  0  0  0  0
  6 11  1  0  0  0  0
  7  3  1  0  0  0  0
  8 15  1  0  0  0  0
 10 14  1  0  0  0  0
 11 27  1  6  0  0  0
 11  2  1  0  0  0  0
 12  5  1  0  0  0  0
 12 26  1  0  0  0  0
 13 16  1  0  0  0  0
 14  9  1  0  0  0  0
 15 17  1  0  0  0  0
 16  1  1  6  0  0  0
 16 10  1  0  0  0  0
 17  7  1  0  0  0  0
 17 20  1  0  0  0  0
 18 10  2  0  0  0  0
 20 22  1  0  0  0  0
 21 23  1  0  0  0  0
 22 19  1  0  0  0  0
 23 17  1  0  0  0  0
 24 18  1  0  0  0  0
 24  5  2  0  0  0  0
 25 13  2  0  0  0  0
 25 18  1  0  0  0  0
 26 28  1  6  0  0  0
 26 27  1  0  0  0  0
 28 29  1  6  0  0  0
 30 28  1  0  0  0  0
 30 31  1  0  0  0  0
 31 33  1  0  0  0  0
 32 33  1  0  0  0  0
 32 34  2  0  0  0  0
 35 32  1  0  0  0  0
 36 35  1  0  0  0  0
 37 36  2  0  0  0  0
 38 36  1  0  0  0  0
M  END
>  <MODEL>
5

>  <REMARK>
 VINA RESULT:      -7.6      5.441      9.322
  Name = 
  6 active torsions:
  status: ('A' for Active; 'I' for Inactive)
    1  A    between atoms: C_3  and  C_8
    2  A    between atoms: C_3  and  C_22
    3  A    between atoms: C_19  and  C_23
    4  A    between atoms: C_19  and  C_30
    5  A    between atoms: C_23  and  N_32
    6  A    between atoms: C_30  and  C_36
                            x       y       z     vdW  Elec       q    Type
                         _______ _______ _______ _____ _____    ______ ____

>  <TORSDO>
F 6

$$$$
=
 OpenBabel10232408063D

 38 43  0  0  1  0  0  0  0  0999 V2000
  185.2950  177.1080  136.6060 C   0  0  0  0  0  1  0  0  0  0  0  0
  190.6400  177.4860  138.5420 C   0  0  1  0  0  3  0  0  0  0  0  0
  188.3580  176.7440  143.9400 C   0  0  0  0  0  2  0  0  0  0  0  0
  189.2000  178.0430  138.6580 C   0  0  1  0  0  3  0  0  0  0  0  0
  189.7850  174.9010  135.7690 C   0  0  0  0  0  0  0  0  0  0  0  0
  189.6160  175.7950  136.8510 C   0  0  0  0  0  0  0  0  0  0  0  0
  188.9500  176.1260  142.6690 C   0  0  0  0  0  2  0  0  0  0  0  0
  191.3480  177.2850  139.8860 C   0  0  0  0  0  2  0  0  0  0  0  0
  188.1120  176.9670  138.5200 C   0  0  0  0  0  2  0  0  0  0  0  0
  187.2210  175.5600  136.6340 C   0  0  0  0  0  0  0  0  0  0  0  0
  190.8270  176.2480  137.6460 C   0  0  1  0  0  3  0  0  0  0  0  0
  191.1440  174.6270  135.1820 C   0  0  0  0  0  2  0  0  0  0  0  0
  185.1800  174.7810  135.9110 N   0  0  0  0  0  0  0  0  0  0  0  0
  188.3170  176.1290  137.3000 C   0  0  0  0  0  0  0  0  0  0  0  0
  190.5160  176.3990  140.8050 C   0  0  0  0  0  2  0  0  0  0  0  0
  185.7550  175.6900  136.9020 C   0  0  2  0  0  3  0  0  0  0  0  0
  189.6540  177.1810  141.8100 C   0  0  0  0  0  0  0  0  0  0  0  0
  187.3980  174.7110  135.5860 C   0  0  0  0  0  0  0  0  0  0  0  0
  189.3790  177.3540  144.6910 O   0  0  0  0  0  0  0  0  0  0  0  0
  190.5460  178.0660  142.7080 C   0  0  0  0  0  2  0  0  0  0  0  0
  188.9880  178.8880  139.9320 C   0  0  0  0  0  2  0  0  0  0  0  0
  189.7720  178.4990  143.9600 C   0  0  0  0  0  2  0  0  0  0  0  0
  188.5590  178.0410  141.1400 C   0  0  0  0  0  2  0  0  0  0  0  0
  188.6600  174.3640  135.1240 C   0  0  0  0  0  3  0  0  0  0  0  0
  186.1010  174.2440  135.1720 C   0  0  0  0  0  3  0  0  0  0  0  0
  192.3200  175.0660  136.0610 C   0  0  2  0  0  3  0  0  0  0  0  0
  192.0490  176.4020  136.7510 C   0  0  0  0  0  2  0  0  0  0  0  0
  193.6110  175.0920  135.2450 C   0  0  2  0  0  3  0  0  0  0  0  0
  194.1790  173.8160  135.2090 O   0  0  0  0  0  1  0  0  0  0  0  0
  194.6040  176.1080  135.7810 C   0  0  0  0  0  2  0  0  0  0  0  0
  196.0040  175.8400  135.2580 C   0  0  0  0  0  2  0  0  0  0  0  0
  197.4700  175.0380  137.1870 C   0  0  0  0  0  0  0  0  0  0  0  0
  197.0120  176.0570  136.2840 N   0  0  0  0  0  2  0  0  0  0  0  0
  198.4360  175.2890  137.9610 O   0  0  0  0  0  0  0  0  0  0  0  0
  196.8090  173.6940  137.2440 C   0  0  0  0  0  2  0  0  0  0  0  0
  195.8080  173.6450  138.3500 C   0  0  0  0  0  0  0  0  0  0  0  0
  195.3550  174.7170  138.8200 O   0  0  0  0  0  0  0  0  0  0  0  0
  195.3490  172.4310  138.8450 O   0  0  0  0  0  1  0  0  0  0  0  0
  2  4  1  0  0  0  0
  2  8  1  1  0  0  0
  3 19  1  0  0  0  0
  4  9  1  1  0  0  0
  4 21  1  0  0  0  0
  5  6  1  0  0  0  0
  6 14  2  0  0  0  0
  6 11  1  0  0  0  0
  7  3  1  0  0  0  0
  8 15  1  0  0  0  0
 10 16  1  0  0  0  0
 10 14  1  0  0  0  0
 11 27  1  6  0  0  0
 11  2  1  0  0  0  0
 12  5  1  0  0  0  0
 12 26  1  0  0  0  0
 13 16  1  0  0  0  0
 14  9  1  0  0  0  0
 15 17  1  0  0  0  0
 16  1  1  6  0  0  0
 17  7  1  0  0  0  0
 17 20  1  0  0  0  0
 18 10  2  0  0  0  0
 20 22  1  0  0  0  0
 21 23  1  0  0  0  0
 22 19  1  0  0  0  0
 23 17  1  0  0  0  0
 24 18  1  0  0  0  0
 24  5  2  0  0  0  0
 25 18  1  0  0  0  0
 25 13  2  0  0  0  0
 26 28  1  6  0  0  0
 26 27  1  0  0  0  0
 28 29  1  1  0  0  0
 28 30  1  0  0  0  0
 31 30  1  0  0  0  0
 31 33  1  0  0  0  0
 32 35  1  0  0  0  0
 32 34  2  0  0  0  0
 33 32  1  0  0  0  0
 35 36  1  0  0  0  0
 36 37  2  0  0  0  0
 36 38  1  0  0  0  0
M  END
>  <MODEL>
6

>  <REMARK>
 VINA RESULT:      -7.1      5.169      9.493
  Name = 
  6 active torsions:
  status: ('A' for Active; 'I' for Inactive)
    1  A    between atoms: C_3  and  C_8
    2  A    between atoms: C_3  and  C_22
    3  A    between atoms: C_19  and  C_23
    4  A    between atoms: C_19  and  C_30
    5  A    between atoms: C_23  and  N_32
    6  A    between atoms: C_30  and  C_36
                            x       y       z     vdW  Elec       q    Type
                         _______ _______ _______ _____ _____    ______ ____

>  <TORSDO>
F 6

$$$$
=
 OpenBabel10232408063D

 38 43  0  0  1  0  0  0  0  0999 V2000
  187.4730  174.7670  134.5050 C   0  0  0  0  0  1  0  0  0  0  0  0
  191.3300  175.4030  138.6500 C   0  0  1  0  0  3  0  0  0  0  0  0
  195.3320  176.0000  134.3460 C   0  0  0  0  0  2  0  0  0  0  0  0
  190.9490  174.6140  137.3730 C   0  0  1  0  0  3  0  0  0  0  0  0
  188.1720  177.6680  138.6070 C   0  0  0  0  0  0  0  0  0  0  0  0
  189.2000  176.8110  138.1510 C   0  0  0  0  0  0  0  0  0  0  0  0
  194.3220  176.6490  135.2980 C   0  0  0  0  0  2  0  0  0  0  0  0
  192.8110  175.7860  138.7350 C   0  0  0  0  0  2  0  0  0  0  0  0
  190.2880  175.4800  136.2900 C   0  0  0  0  0  2  0  0  0  0  0  0
  188.0610  176.6220  136.0280 C   0  0  0  0  0  0  0  0  0  0  0  0
  190.4410  176.6110  139.0010 C   0  0  1  0  0  3  0  0  0  0  0  0
  188.1210  178.1430  140.0350 C   0  0  0  0  0  2  0  0  0  0  0  0
  186.5340  177.0050  134.3510 N   0  0  0  0  0  0  0  0  0  0  0  0
  189.1540  176.2810  136.8400 C   0  0  0  0  0  0  0  0  0  0  0  0
  193.2390  176.5600  137.4940 C   0  0  0  0  0  2  0  0  0  0  0  0
  187.7630  176.2550  134.6090 C   0  0  2  0  0  3  0  0  0  0  0  0
  193.9200  175.6900  136.4230 C   0  0  0  0  0  0  0  0  0  0  0  0
  187.0730  177.4380  136.4840 C   0  0  0  0  0  0  0  0  0  0  0  0
  196.4780  175.6100  135.0610 O   0  0  0  0  0  0  0  0  0  0  0  0
  195.1820  175.0150  137.0030 C   0  0  0  0  0  2  0  0  0  0  0  0
  192.1310  173.8060  136.7960 C   0  0  0  0  0  2  0  0  0  0  0  0
  196.0840  174.5160  135.8660 C   0  0  0  0  0  2  0  0  0  0  0  0
  192.9820  174.6250  135.8120 C   0  0  0  0  0  2  0  0  0  0  0  0
  187.0920  177.9730  137.7650 C   0  0  0  0  0  3  0  0  0  0  0  0
  186.1470  177.6550  135.4040 C   0  0  0  0  0  3  0  0  0  0  0  0
  189.4250  177.9540  140.8170 C   0  0  2  0  0  3  0  0  0  0  0  0
  190.1030  176.6260  140.4850 C   0  0  0  0  0  2  0  0  0  0  0  0
  189.1720  178.1110  142.3160 C   0  0  2  0  0  3  0  0  0  0  0  0
  190.2600  177.6180  143.0380 O   0  0  0  0  0  1  0  0  0  0  0  0
  187.8850  177.4310  142.7500 C   0  0  0  0  0  2  0  0  0  0  0  0
  187.9990  176.8880  144.1640 C   0  0  0  0  0  2  0  0  0  0  0  0
  186.7590  177.9200  146.1410 C   0  0  0  0  0  0  0  0  0  0  0  0
  186.7920  177.1410  144.9350 N   0  0  0  0  0  2  0  0  0  0  0  0
  185.6450  178.1880  146.6730 O   0  0  0  0  0  0  0  0  0  0  0  0
  188.0220  178.4000  146.7930 C   0  0  0  0  0  2  0  0  0  0  0  0
  188.3520  177.5610  147.9820 C   0  0  0  0  0  0  0  0  0  0  0  0
  187.9470  177.9120  149.1180 O   0  0  0  0  0  1  0  0  0  0  0  0
  189.0750  176.3830  147.8480 O   0  0  0  0  0  0  0  0  0  0  0  0
  2  8  1  6  0  0  0
  2 11  1  0  0  0  0
  3 19  1  0  0  0  0
  3  7  1  0  0  0  0
  4  9  1  6  0  0  0
  4  2  1  0  0  0  0
  5 12  1  0  0  0  0
  6  5  1  0  0  0  0
  6 11  1  0  0  0  0
  7 17  1  0  0  0  0
  9 14  1  0  0  0  0
 10 18  2  0  0  0  0
 10 14  1  0  0  0  0
 11 27  1  1  0  0  0
 12 26  1  0  0  0  0
 13 16  1  0  0  0  0
 13 25  2  0  0  0  0
 14  6  2  0  0  0  0
 15  8  1  0  0  0  0
 16  1  1  1  0  0  0
 16 10  1  0  0  0  0
 17 20  1  0  0  0  0
 17 15  1  0  0  0  0
 18 24  1  0  0  0  0
 19 22  1  0  0  0  0
 21  4  1  0  0  0  0
 22 20  1  0  0  0  0
 23 17  1  0  0  0  0
 23 21  1  0  0  0  0
 24  5  2  0  0  0  0
 25 18  1  0  0  0  0
 26 28  1  1  0  0  0
 27 26  1  0  0  0  0
 28 30  1  0  0  0  0
 28 29  1  1  0  0  0
 30 31  1  0  0  0  0
 31 33  1  0  0  0  0
 32 34  2  0  0  0  0
 32 35  1  0  0  0  0
 33 32  1  0  0  0  0
 35 36  1  0  0  0  0
 36 37  1  0  0  0  0
 38 36  2  0  0  0  0
M  END
>  <MODEL>
7

>  <REMARK>
 VINA RESULT:      -7.0      4.239      8.070
  Name = 
  6 active torsions:
  status: ('A' for Active; 'I' for Inactive)
    1  A    between atoms: C_3  and  C_8
    2  A    between atoms: C_3  and  C_22
    3  A    between atoms: C_19  and  C_23
    4  A    between atoms: C_19  and  C_30
    5  A    between atoms: C_23  and  N_32
    6  A    between atoms: C_30  and  C_36
                            x       y       z     vdW  Elec       q    Type
                         _______ _______ _______ _____ _____    ______ ____

>  <TORSDO>
F 6

$$$$
=
 OpenBabel10232408063D

 38 43  0  0  1  0  0  0  0  0999 V2000
  186.0120  177.6630  136.6920 C   0  0  0  0  0  1  0  0  0  0  0  0
  190.8040  177.5500  139.7720 C   0  0  1  0  0  3  0  0  0  0  0  0
  187.3320  176.7760  144.4890 C   0  0  0  0  0  2  0  0  0  0  0  0
  189.4150  178.2110  139.6000 C   0  0  1  0  0  3  0  0  0  0  0  0
  190.4180  175.1500  136.7400 C   0  0  0  0  0  0  0  0  0  0  0  0
  190.0720  176.0110  137.8070 C   0  0  0  0  0  0  0  0  0  0  0  0
  188.1490  176.1630  143.3460 C   0  0  0  0  0  2  0  0  0  0  0  0
  191.1800  177.2420  141.2260 C   0  0  0  0  0  2  0  0  0  0  0  0
  188.3160  177.2290  139.1670 C   0  0  0  0  0  2  0  0  0  0  0  0
  187.7750  175.9710  137.0570 C   0  0  0  0  0  0  0  0  0  0  0  0
  191.1030  176.3370  138.8710 C   0  0  1  0  0  3  0  0  0  0  0  0
  191.8520  174.7940  136.4510 C   0  0  0  0  0  2  0  0  0  0  0  0
  185.8990  175.3810  135.8620 N   0  0  0  0  0  0  0  0  0  0  0  0
  188.7310  176.4270  137.9770 C   0  0  0  0  0  0  0  0  0  0  0  0
  190.1070  176.3870  141.8890 C   0  0  0  0  0  2  0  0  0  0  0  0
  186.2990  176.2030  137.0040 C   0  0  2  0  0  3  0  0  0  0  0  0
  189.0960  177.1940  142.7230 C   0  0  0  0  0  0  0  0  0  0  0  0
  188.1250  175.1520  136.0270 C   0  0  0  0  0  0  0  0  0  0  0  0
  188.1980  177.2750  145.4780 O   0  0  0  0  0  0  0  0  0  0  0  0
  189.8230  177.9720  143.8420 C   0  0  0  0  0  2  0  0  0  0  0  0
  188.9820  179.0200  140.8420 C   0  0  0  0  0  2  0  0  0  0  0  0
  188.8200  178.4130  144.9160 C   0  0  0  0  0  2  0  0  0  0  0  0
  188.2380  178.1610  141.8770 C   0  0  0  0  0  2  0  0  0  0  0  0
  189.4320  174.7270  135.8360 C   0  0  0  0  0  3  0  0  0  0  0  0
  186.9240  174.8030  135.3140 C   0  0  0  0  0  3  0  0  0  0  0  0
  192.8290  175.1060  137.5900 C   0  0  2  0  0  3  0  0  0  0  0  0
  192.5010  176.4310  138.2770 C   0  0  0  0  0  2  0  0  0  0  0  0
  194.2680  175.0640  137.0800 C   0  0  2  0  0  3  0  0  0  0  0  0
  194.3440  174.2770  135.9290 O   0  0  0  0  0  1  0  0  0  0  0  0
  195.2340  174.5620  138.1390 C   0  0  0  0  0  2  0  0  0  0  0  0
  195.8650  173.2430  137.7290 C   0  0  0  0  0  2  0  0  0  0  0  0
  195.3590  170.7630  138.0560 C   0  0  0  0  0  0  0  0  0  0  0  0
  195.3290  172.1290  138.4970 N   0  0  0  0  0  2  0  0  0  0  0  0
  194.9820  169.8520  138.8450 O   0  0  0  0  0  0  0  0  0  0  0  0
  195.8080  170.4010  136.6720 C   0  0  0  0  0  2  0  0  0  0  0  0
  197.1960  169.8550  136.6930 C   0  0  0  0  0  0  0  0  0  0  0  0
  198.0850  170.4560  137.3460 O   0  0  0  0  0  1  0  0  0  0  0  0
  197.5130  168.6770  136.0290 O   0  0  0  0  0  0  0  0  0  0  0  0
  2  8  1  1  0  0  0
  3 19  1  0  0  0  0
  4  9  1  1  0  0  0
  4  2  1  0  0  0  0
  4 21  1  0  0  0  0
  5  6  1  0  0  0  0
  6 14  2  0  0  0  0
  6 11  1  0  0  0  0
  7  3  1  0  0  0  0
  8 15  1  0  0  0  0
 10 14  1  0  0  0  0
 11 27  1  6  0  0  0
 11  2  1  0  0  0  0
 12  5  1  0  0  0  0
 12 26  1  0  0  0  0
 13 16  1  0  0  0  0
 14  9  1  0  0  0  0
 15 17  1  0  0  0  0
 16  1  1  6  0  0  0
 16 10  1  0  0  0  0
 17  7  1  0  0  0  0
 17 20  1  0  0  0  0
 18 10  2  0  0  0  0
 20 22  1  0  0  0  0
 21 23  1  0  0  0  0
 22 19  1  0  0  0  0
 23 17  1  0  0  0  0
 24 18  1  0  0  0  0
 24  5  2  0  0  0  0
 25 13  2  0  0  0  0
 25 18  1  0  0  0  0
 26 28  1  6  0  0  0
 26 27  1  0  0  0  0
 28 29  1  6  0  0  0
 28 30  1  0  0  0  0
 31 30  1  0  0  0  0
 31 33  1  0  0  0  0
 32 33  1  0  0  0  0
 32 34  2  0  0  0  0
 35 36  1  0  0  0  0
 35 32  1  0  0  0  0
 36 37  1  0  0  0  0
 38 36  2  0  0  0  0
M  END
>  <MODEL>
8

>  <REMARK>
 VINA RESULT:      -6.8      5.620      9.452
  Name = 
  6 active torsions:
  status: ('A' for Active; 'I' for Inactive)
    1  A    between atoms: C_3  and  C_8
    2  A    between atoms: C_3  and  C_22
    3  A    between atoms: C_19  and  C_23
    4  A    between atoms: C_19  and  C_30
    5  A    between atoms: C_23  and  N_32
    6  A    between atoms: C_30  and  C_36
                            x       y       z     vdW  Elec       q    Type
                         _______ _______ _______ _____ _____    ______ ____

>  <TORSDO>
F 6

$$$$
