=
 OpenBabel10232409033D

 43 48  0  0  1  0  0  0  0  0999 V2000
  190.0440  176.5620  138.7300 C   0  0  1  0  0  3  0  0  0  0  0  0
  190.0110  178.0640  138.3840 C   0  0  0  0  0  2  0  0  0  0  0  0
  184.4320  177.0800  136.0890 C   0  0  0  0  0  0  0  0  0  0  0  0
  188.7280  178.4480  137.6550 C   0  0  1  0  0  3  0  0  0  0  0  0
  185.2150  177.2080  137.2430 C   0  0  0  0  0  3  0  0  0  0  0  0
  188.8800  178.0440  135.8710 S   0  0  0  0  0  0  0  0  0  0  0  0
  186.3650  177.5900  134.7060 C   0  0  0  0  0  3  0  0  0  0  0  0
  187.1370  177.6980  135.8620 C   0  0  0  0  0  0  0  0  0  0  0  0
  182.9920  176.7390  136.2110 C   0  0  0  0  0  1  0  0  0  0  0  0
  186.9470  178.4400  139.2970 O   0  0  0  0  0  1  0  0  0  0  0  0
  184.9980  177.2900  134.8190 C   0  0  0  0  0  3  0  0  0  0  0  0
  186.5690  177.5400  137.1180 C   0  0  0  0  0  0  0  0  0  0  0  0
  187.5180  177.7040  138.2440 C   0  0  1  0  0  3  0  0  0  0  0  0
  190.5100  175.6660  137.5590 C   0  0  2  0  0  3  0  0  0  0  0  0
  189.4530  174.6130  137.1920 C   0  0  0  0  0  2  0  0  0  0  0  0
  190.0140  174.7880  134.8540 O   0  0  0  0  0  1  0  0  0  0  0  0
  189.7510  173.8770  135.8910 C   0  0  0  0  0  2  0  0  0  0  0  0
  191.8730  175.0110  137.8180 C   0  0  0  0  0  2  0  0  0  0  0  0
  193.5860  176.8670  138.0510 O   0  0  0  0  0  1  0  0  0  0  0  0
  194.0470  174.9530  136.5540 C   0  0  1  0  0  3  0  0  0  0  0  0
  193.0390  175.8280  137.2830 C   0  0  1  0  0  0  0  0  0  0  0  0
  193.2110  175.9840  135.7990 C   0  0  0  0  0  2  0  0  0  0  0  0
  195.4160  175.3920  136.8730 N   0  0  0  0  0  0  0  0  0  0  0  0
  195.9750  174.3880  137.7840 C   0  0  0  0  0  1  0  0  0  0  0  0
  197.3930  176.2520  135.9710 O   0  0  0  0  0  1  0  0  0  0  0  0
  196.2810  175.4380  135.6860 C   0  0  0  0  0  2  0  0  0  0  0  0
  190.8010  176.2990  140.0330 C   0  0  0  0  0  2  0  0  0  0  0  0
  189.0520  177.0680  141.6470 C   0  0  0  0  0  3  0  0  0  0  0  0
  190.4620  178.2430  143.0140 C   0  0  0  0  0  0  0  0  0  0  0  0
  189.0110  177.9720  142.8320 C   0  0  2  0  0  3  0  0  0  0  0  0
  188.3800  177.3990  144.0760 C   0  0  0  0  0  0  0  0  0  0  0  0
  191.1860  177.7560  142.0710 N   0  0  0  0  0  0  0  0  0  0  0  0
  190.2970  177.0910  141.1890 C   0  0  0  0  0  0  0  0  0  0  0  0
  190.9960  178.5510  144.2950 N   0  0  0  0  0  0  0  0  0  0  0  0
  188.9070  177.6530  145.2810 C   0  0  0  0  0  3  0  0  0  0  0  0
  190.1840  178.3050  145.4190 N   0  0  0  0  0  0  0  0  0  0  0  0
  186.9930  176.8360  144.0130 C   0  0  0  0  0  2  0  0  0  0  0  0
  185.3620  178.6020  144.7630 N   0  0  0  0  0  0  0  0  0  0  0  0
  186.0100  177.9380  143.7840 C   0  0  0  0  0  0  0  0  0  0  0  0
  185.5330  178.4300  146.2020 C   0  0  0  0  0  1  0  0  0  0  0  0
  185.4980  178.3130  142.5560 C   0  0  0  0  0  3  0  0  0  0  0  0
  184.4910  179.4300  144.2200 N   0  0  0  0  0  0  0  0  0  0  0  0
  184.5460  179.2740  142.8770 C   0  0  0  0  0  3  0  0  0  0  0  0
  1  2  1  6  0  0  0
  1 27  1  0  0  0  0
  3  9  1  0  0  0  0
  3  5  1  0  0  0  0
  4 13  1  0  0  0  0
  4  2  1  1  0  0  0
  6  4  1  0  0  0  0
  7 11  1  0  0  0  0
  7  8  2  0  0  0  0
  8  6  1  0  0  0  0
  8 12  1  0  0  0  0
 11  3  2  0  0  0  0
 12  5  2  0  0  0  0
 12 13  1  0  0  0  0
 13 10  1  1  0  0  0
 14 15  1  1  0  0  0
 14 18  1  0  0  0  0
 14  1  1  0  0  0  0
 16 17  1  0  0  0  0
 17 15  1  0  0  0  0
 20 23  1  1  0  0  0
 20 21  1  0  0  0  0
 21 18  1  0  0  0  0
 21 19  1  1  0  0  0
 22 20  1  0  0  0  0
 22 21  1  0  0  0  0
 23 24  1  0  0  0  0
 26 25  1  0  0  0  0
 26 23  1  0  0  0  0
 27 33  1  0  0  0  0
 29 34  1  0  0  0  0
 30 28  1  6  0  0  0
 30 29  1  0  0  0  0
 30 31  1  0  0  0  0
 31 35  2  0  0  0  0
 32 29  2  0  0  0  0
 33 28  2  0  0  0  0
 33 32  1  0  0  0  0
 34 36  2  0  0  0  0
 35 36  1  0  0  0  0
 37 31  1  0  0  0  0
 38 40  1  0  0  0  0
 39 37  1  0  0  0  0
 39 38  1  0  0  0  0
 41 43  1  0  0  0  0
 41 39  2  0  0  0  0
 42 38  1  0  0  0  0
 43 42  2  0  0  0  0
M  END
>  <MODEL>
1

>  <REMARK>
 VINA RESULT:      -7.7      0.000      0.000
  Name = 
  13 active torsions:
  status: ('A' for Active; 'I' for Inactive)
    1  A    between atoms: C_3  and  C_25
    2  A    between atoms: C_3  and  C_27
    3  A    between atoms: C_4  and  C_13
    4  A    between atoms: C_4  and  C_21
    5  A    between atoms: C_8  and  C_22
    6  A    between atoms: C_9  and  C_22
    7  A    between atoms: C_14  and  N_37
    8  A    between atoms: C_19  and  C_26
    9  A    between atoms: C_19  and  C_27
   10  A    between atoms: C_21  and  C_27
   11  A    between atoms: C_21  and  C_35
   12  A    between atoms: C_23  and  C_35
   13  A    between atoms: C_36  and  N_37
                            x       y       z     vdW  Elec       q    Type
                         _______ _______ _______ _____ _____    ______ ____

>  <TORSDO>
F 13

$$$$
=
 OpenBabel10232409033D

 43 48  0  0  1  0  0  0  0  0999 V2000
  186.5760  178.2150  141.9190 C   0  0  1  0  0  3  0  0  0  0  0  0
  188.0160  178.5740  141.5030 C   0  0  0  0  0  2  0  0  0  0  0  0
  192.2970  176.2210  137.8300 C   0  0  0  0  0  0  0  0  0  0  0  0
  188.5980  177.5470  140.5390 C   0  0  1  0  0  3  0  0  0  0  0  0
  191.9240  176.5240  139.1450 C   0  0  0  0  0  3  0  0  0  0  0  0
  188.2350  178.0390  138.8090 S   0  0  0  0  0  0  0  0  0  0  0  0
  190.1370  176.9930  137.0260 C   0  0  0  0  0  3  0  0  0  0  0  0
  189.7840  177.3050  138.3380 C   0  0  0  0  0  0  0  0  0  0  0  0
  193.6430  175.6540  137.5590 C   0  0  0  0  0  1  0  0  0  0  0  0
  190.4230  176.4460  141.6900 O   0  0  0  0  0  1  0  0  0  0  0  0
  191.3990  176.4350  136.7690 C   0  0  0  0  0  3  0  0  0  0  0  0
  190.6500  177.0490  139.3910 C   0  0  0  0  0  0  0  0  0  0  0  0
  190.1190  177.4200  140.7240 C   0  0  1  0  0  3  0  0  0  0  0  0
  186.4250  177.9030  143.4260 C   0  0  2  0  0  3  0  0  0  0  0  0
  185.0980  178.4360  143.9880 C   0  0  0  0  0  2  0  0  0  0  0  0
  184.1970  178.8060  146.1940 O   0  0  0  0  0  1  0  0  0  0  0  0
  185.2450  179.1530  145.3240 C   0  0  0  0  0  2  0  0  0  0  0  0
  187.6140  178.4020  144.2580 C   0  0  0  0  0  2  0  0  0  0  0  0
  188.6810  176.1010  144.2210 O   0  0  0  0  0  1  0  0  0  0  0  0
  189.5110  177.8110  145.8020 C   0  0  1  0  0  3  0  0  0  0  0  0
  188.3870  177.2760  144.9280 C   0  0  1  0  0  0  0  0  0  0  0  0
  188.3030  177.1080  146.4190 C   0  0  0  0  0  2  0  0  0  0  0  0
  190.7050  176.9620  145.6610 N   0  0  0  0  0  0  0  0  0  0  0  0
  191.6170  177.6710  144.7570 C   0  0  0  0  0  1  0  0  0  0  0  0
  192.3550  175.7380  146.7760 O   0  0  0  0  0  1  0  0  0  0  0  0
  191.4110  176.7700  146.9350 C   0  0  0  0  0  2  0  0  0  0  0  0
  185.5670  179.2470  141.4100 C   0  0  0  0  0  2  0  0  0  0  0  0
  184.7480  178.6060  139.1360 C   0  0  0  0  0  3  0  0  0  0  0  0
  182.8580  177.5230  139.8380 C   0  0  0  0  0  0  0  0  0  0  0  0
  183.5290  177.9500  138.5810 C   0  0  2  0  0  3  0  0  0  0  0  0
  183.7720  176.7920  137.6460 C   0  0  0  0  0  0  0  0  0  0  0  0
  183.4450  177.9600  140.8950 N   0  0  0  0  0  0  0  0  0  0  0  0
  184.5750  178.6910  140.4490 C   0  0  0  0  0  0  0  0  0  0  0  0
  182.0000  176.3900  139.8640 N   0  0  0  0  0  0  0  0  0  0  0  0
  182.9910  175.7050  137.6980 C   0  0  0  0  0  3  0  0  0  0  0  0
  182.0340  175.5190  138.7580 N   0  0  0  0  0  0  0  0  0  0  0  0
  184.6490  176.9780  136.4460 C   0  0  0  0  0  2  0  0  0  0  0  0
  185.3890  174.8180  135.3840 N   0  0  0  0  0  0  0  0  0  0  0  0
  185.5550  175.7990  136.2940 C   0  0  0  0  0  0  0  0  0  0  0  0
  184.3610  174.7450  134.3500 C   0  0  0  0  0  1  0  0  0  0  0  0
  186.5760  175.4550  137.1610 C   0  0  0  0  0  3  0  0  0  0  0  0
  186.2930  173.8800  135.5890 N   0  0  0  0  0  0  0  0  0  0  0  0
  187.0270  174.2360  136.6680 C   0  0  0  0  0  3  0  0  0  0  0  0
  1 27  1  1  0  0  0
  1 14  1  0  0  0  0
  2  1  1  0  0  0  0
  3  5  1  0  0  0  0
  4 13  1  0  0  0  0
  4  2  1  1  0  0  0
  5 12  2  0  0  0  0
  6  4  1  0  0  0  0
  7  8  2  0  0  0  0
  8  6  1  0  0  0  0
  8 12  1  0  0  0  0
  9  3  1  0  0  0  0
 11  7  1  0  0  0  0
 11  3  2  0  0  0  0
 12 13  1  0  0  0  0
 13 10  1  1  0  0  0
 14 15  1  1  0  0  0
 14 18  1  0  0  0  0
 15 17  1  0  0  0  0
 17 16  1  0  0  0  0
 18 21  1  0  0  0  0
 20 23  1  6  0  0  0
 20 22  1  0  0  0  0
 21 19  1  6  0  0  0
 21 20  1  0  0  0  0
 21 22  1  0  0  0  0
 23 26  1  0  0  0  0
 24 23  1  0  0  0  0
 25 26  1  0  0  0  0
 28 33  2  0  0  0  0
 29 34  1  0  0  0  0
 29 32  2  0  0  0  0
 30 28  1  1  0  0  0
 30 29  1  0  0  0  0
 31 35  2  0  0  0  0
 31 30  1  0  0  0  0
 33 32  1  0  0  0  0
 33 27  1  0  0  0  0
 35 36  1  0  0  0  0
 36 34  2  0  0  0  0
 37 31  1  0  0  0  0
 38 42  1  0  0  0  0
 38 39  1  0  0  0  0
 39 37  1  0  0  0  0
 39 41  2  0  0  0  0
 40 38  1  0  0  0  0
 42 43  2  0  0  0  0
 43 41  1  0  0  0  0
M  END
>  <MODEL>
2

>  <REMARK>
 VINA RESULT:      -7.6      3.620      8.462
  Name = 
  13 active torsions:
  status: ('A' for Active; 'I' for Inactive)
    1  A    between atoms: C_3  and  C_25
    2  A    between atoms: C_3  and  C_27
    3  A    between atoms: C_4  and  C_13
    4  A    between atoms: C_4  and  C_21
    5  A    between atoms: C_8  and  C_22
    6  A    between atoms: C_9  and  C_22
    7  A    between atoms: C_14  and  N_37
    8  A    between atoms: C_19  and  C_26
    9  A    between atoms: C_19  and  C_27
   10  A    between atoms: C_21  and  C_27
   11  A    between atoms: C_21  and  C_35
   12  A    between atoms: C_23  and  C_35
   13  A    between atoms: C_36  and  N_37
                            x       y       z     vdW  Elec       q    Type
                         _______ _______ _______ _____ _____    ______ ____

>  <TORSDO>
F 13

$$$$
=
 OpenBabel10232409033D

 43 48  0  0  1  0  0  0  0  0999 V2000
  183.5690  178.4420  140.4480 C   0  0  1  0  0  3  0  0  0  0  0  0
  183.8010  179.1590  141.7930 C   0  0  0  0  0  2  0  0  0  0  0  0
  187.2120  177.9910  146.7280 C   0  0  0  0  0  0  0  0  0  0  0  0
  184.5280  178.2650  142.7910 C   0  0  1  0  0  3  0  0  0  0  0  0
  185.9860  178.4580  146.2390 C   0  0  0  0  0  3  0  0  0  0  0  0
  186.2720  178.0360  142.2700 S   0  0  0  0  0  0  0  0  0  0  0  0
  187.9320  177.4740  144.4640 C   0  0  0  0  0  3  0  0  0  0  0  0
  186.7130  177.9560  143.9890 C   0  0  0  0  0  0  0  0  0  0  0  0
  187.4820  178.0220  148.1880 C   0  0  0  0  0  1  0  0  0  0  0  0
  183.3510  178.4530  144.9010 O   0  0  0  0  0  1  0  0  0  0  0  0
  188.1810  177.4790  145.8460 C   0  0  0  0  0  3  0  0  0  0  0  0
  185.7380  178.4170  144.8620 C   0  0  0  0  0  0  0  0  0  0  0  0
  184.4940  178.8770  144.2020 C   0  0  1  0  0  3  0  0  0  0  0  0
  182.1130  177.9610  140.2460 C   0  0  2  0  0  3  0  0  0  0  0  0
  181.2020  178.4010  141.4020 C   0  0  0  0  0  2  0  0  0  0  0  0
  180.2310  180.4810  142.1410 O   0  0  0  0  0  1  0  0  0  0  0  0
  180.3100  179.5880  141.0580 C   0  0  0  0  0  2  0  0  0  0  0  0
  182.0140  176.4480  140.0110 C   0  0  0  0  0  2  0  0  0  0  0  0
  180.3280  177.0260  138.2070 O   0  0  0  0  0  1  0  0  0  0  0  0
  181.1340  174.6990  138.4310 C   0  0  1  0  0  3  0  0  0  0  0  0
  180.8930  176.0650  139.0570 C   0  0  1  0  0  0  0  0  0  0  0  0
  179.9820  174.9220  139.4090 C   0  0  0  0  0  2  0  0  0  0  0  0
  180.7430  174.7210  137.0120 N   0  0  0  0  0  0  0  0  0  0  0  0
  181.9050  175.2200  136.2660 C   0  0  0  0  0  1  0  0  0  0  0  0
  181.5940  172.8410  135.9140 O   0  0  0  0  0  1  0  0  0  0  0  0
  180.4310  173.3820  136.4940 C   0  0  0  0  0  2  0  0  0  0  0  0
  184.1070  179.2590  139.2720 C   0  0  0  0  0  2  0  0  0  0  0  0
  186.2370  178.7600  138.0610 C   0  0  0  0  0  3  0  0  0  0  0  0
  185.5800  176.7420  137.2040 C   0  0  0  0  0  0  0  0  0  0  0  0
  186.7180  177.6960  137.1320 C   0  0  2  0  0  3  0  0  0  0  0  0
  188.0290  177.0460  137.5000 C   0  0  0  0  0  0  0  0  0  0  0  0
  184.5850  177.1970  137.8790 N   0  0  0  0  0  0  0  0  0  0  0  0
  184.9720  178.4780  138.3460 C   0  0  0  0  0  0  0  0  0  0  0  0
  185.7740  175.3510  136.9870 N   0  0  0  0  0  0  0  0  0  0  0  0
  188.1980  175.7280  137.3360 C   0  0  0  0  0  3  0  0  0  0  0  0
  187.0960  174.8650  136.9970 N   0  0  0  0  0  0  0  0  0  0  0  0
  189.2420  177.8950  137.7230 C   0  0  0  0  0  2  0  0  0  0  0  0
  190.9310  177.0440  139.3850 N   0  0  0  0  0  0  0  0  0  0  0  0
  189.7710  177.6690  139.1030 C   0  0  0  0  0  0  0  0  0  0  0  0
  191.9090  176.5350  138.4280 C   0  0  0  0  0  1  0  0  0  0  0  0
  189.0780  177.9070  140.2760 C   0  0  0  0  0  3  0  0  0  0  0  0
  191.0460  176.9150  140.6920 N   0  0  0  0  0  0  0  0  0  0  0  0
  189.9310  177.4270  141.2620 C   0  0  0  0  0  3  0  0  0  0  0  0
  1 27  1  6  0  0  0
  1  2  1  0  0  0  0
  3  9  1  0  0  0  0
  4  2  1  6  0  0  0
  4 13  1  0  0  0  0
  5  3  1  0  0  0  0
  6  4  1  0  0  0  0
  6  8  1  0  0  0  0
  7 11  1  0  0  0  0
  8  7  2  0  0  0  0
  8 12  1  0  0  0  0
 11  3  2  0  0  0  0
 12  5  2  0  0  0  0
 13 12  1  0  0  0  0
 13 10  1  1  0  0  0
 14 18  1  1  0  0  0
 14  1  1  0  0  0  0
 14 15  1  0  0  0  0
 17 15  1  0  0  0  0
 17 16  1  0  0  0  0
 20 23  1  6  0  0  0
 20 21  1  0  0  0  0
 20 22  1  0  0  0  0
 21 19  1  6  0  0  0
 21 22  1  0  0  0  0
 21 18  1  0  0  0  0
 24 23  1  0  0  0  0
 25 26  1  0  0  0  0
 26 23  1  0  0  0  0
 28 33  2  0  0  0  0
 29 32  2  0  0  0  0
 30 29  1  0  0  0  0
 30 31  1  0  0  0  0
 30 28  1  1  0  0  0
 31 37  1  0  0  0  0
 32 33  1  0  0  0  0
 33 27  1  0  0  0  0
 34 36  2  0  0  0  0
 34 29  1  0  0  0  0
 35 31  2  0  0  0  0
 36 35  1  0  0  0  0
 37 39  1  0  0  0  0
 38 42  1  0  0  0  0
 39 38  1  0  0  0  0
 39 41  2  0  0  0  0
 40 38  1  0  0  0  0
 41 43  1  0  0  0  0
 42 43  2  0  0  0  0
M  END
>  <MODEL>
3

>  <REMARK>
 VINA RESULT:      -7.3      4.530      9.859
  Name = 
  13 active torsions:
  status: ('A' for Active; 'I' for Inactive)
    1  A    between atoms: C_3  and  C_25
    2  A    between atoms: C_3  and  C_27
    3  A    between atoms: C_4  and  C_13
    4  A    between atoms: C_4  and  C_21
    5  A    between atoms: C_8  and  C_22
    6  A    between atoms: C_9  and  C_22
    7  A    between atoms: C_14  and  N_37
    8  A    between atoms: C_19  and  C_26
    9  A    between atoms: C_19  and  C_27
   10  A    between atoms: C_21  and  C_27
   11  A    between atoms: C_21  and  C_35
   12  A    between atoms: C_23  and  C_35
   13  A    between atoms: C_36  and  N_37
                            x       y       z     vdW  Elec       q    Type
                         _______ _______ _______ _____ _____    ______ ____

>  <TORSDO>
F 13

$$$$
=
 OpenBabel10232409033D

 43 48  0  0  1  0  0  0  0  0999 V2000
  189.8300  177.6200  138.1280 C   0  0  1  0  0  3  0  0  0  0  0  0
  189.2430  176.8220  139.3090 C   0  0  0  0  0  2  0  0  0  0  0  0
  190.5930  177.0650  145.2650 C   0  0  0  0  0  0  0  0  0  0  0  0
  189.4960  177.5170  140.6420 C   0  0  1  0  0  3  0  0  0  0  0  0
  191.0560  176.7910  143.9720 C   0  0  0  0  0  3  0  0  0  0  0  0
  187.9370  177.6100  141.6030 S   0  0  0  0  0  0  0  0  0  0  0  0
  188.4410  177.7450  144.3630 C   0  0  0  0  0  3  0  0  0  0  0  0
  188.9080  177.4530  143.0830 C   0  0  0  0  0  0  0  0  0  0  0  0
  191.4890  176.8460  146.4290 C   0  0  0  0  0  1  0  0  0  0  0  0
  191.8460  177.2290  141.1580 O   0  0  0  0  0  1  0  0  0  0  0  0
  189.2930  177.5620  145.4640 C   0  0  0  0  0  3  0  0  0  0  0  0
  190.2070  177.0090  142.8810 C   0  0  0  0  0  0  0  0  0  0  0  0
  190.5560  176.7620  141.4620 C   0  0  1  0  0  3  0  0  0  0  0  0
  190.7990  176.8010  137.2460 C   0  0  2  0  0  3  0  0  0  0  0  0
  190.0520  176.0100  136.1610 C   0  0  0  0  0  2  0  0  0  0  0  0
  188.8560  174.0830  136.9810 O   0  0  0  0  0  1  0  0  0  0  0  0
  190.0600  174.5030  136.3900 C   0  0  0  0  0  2  0  0  0  0  0  0
  191.7150  175.8810  138.0650 C   0  0  0  0  0  2  0  0  0  0  0  0
  193.8930  176.8390  138.9440 O   0  0  0  0  0  1  0  0  0  0  0  0
  193.9390  175.0980  137.1870 C   0  0  1  0  0  3  0  0  0  0  0  0
  193.1910  176.2120  137.9040 C   0  0  1  0  0  0  0  0  0  0  0  0
  193.7450  176.4630  136.5290 C   0  0  0  0  0  2  0  0  0  0  0  0
  195.2600  174.9020  137.8070 N   0  0  0  0  0  0  0  0  0  0  0  0
  195.1480  173.7150  138.6620 C   0  0  0  0  0  1  0  0  0  0  0  0
  197.2420  175.6840  136.8470 O   0  0  0  0  0  1  0  0  0  0  0  0
  196.3100  174.6300  136.8150 C   0  0  0  0  0  2  0  0  0  0  0  0
  188.7360  178.3310  137.3280 C   0  0  0  0  0  2  0  0  0  0  0  0
  186.4800  178.4370  138.4010 C   0  0  0  0  0  3  0  0  0  0  0  0
  185.5720  176.6690  137.2670 C   0  0  0  0  0  0  0  0  0  0  0  0
  185.2350  177.6160  138.3640 C   0  0  2  0  0  3  0  0  0  0  0  0
  183.9580  178.3690  138.0910 C   0  0  0  0  0  0  0  0  0  0  0  0
  186.7850  176.7840  136.8580 N   0  0  0  0  0  0  0  0  0  0  0  0
  187.3630  177.8330  137.6160 C   0  0  0  0  0  0  0  0  0  0  0  0
  184.5550  176.0860  136.4640 N   0  0  0  0  0  0  0  0  0  0  0  0
  183.0170  177.8400  137.2990 C   0  0  0  0  0  3  0  0  0  0  0  0
  183.2650  176.6450  136.5330 N   0  0  0  0  0  0  0  0  0  0  0  0
  183.5850  179.5350  138.9540 C   0  0  0  0  0  2  0  0  0  0  0  0
  182.0770  178.9040  140.8700 N   0  0  0  0  0  0  0  0  0  0  0  0
  183.3090  179.0670  140.3470 C   0  0  0  0  0  0  0  0  0  0  0  0
  180.8010  179.0840  140.1830 C   0  0  0  0  0  1  0  0  0  0  0  0
  184.2570  178.9020  141.3390 C   0  0  0  0  0  3  0  0  0  0  0  0
  182.1870  178.5890  142.1450 N   0  0  0  0  0  0  0  0  0  0  0  0
  183.5020  178.5840  142.4620 C   0  0  0  0  0  3  0  0  0  0  0  0
  1 27  1  6  0  0  0
  1  2  1  0  0  0  0
  3 11  1  0  0  0  0
  3  9  1  0  0  0  0
  4  2  1  6  0  0  0
  4 13  1  0  0  0  0
  4  6  1  0  0  0  0
  5  3  2  0  0  0  0
  6  8  1  0  0  0  0
  7 11  2  0  0  0  0
  8  7  1  0  0  0  0
 12  8  2  0  0  0  0
 12  5  1  0  0  0  0
 13 10  1  1  0  0  0
 13 12  1  0  0  0  0
 14 15  1  6  0  0  0
 14 18  1  0  0  0  0
 14  1  1  0  0  0  0
 15 17  1  0  0  0  0
 17 16  1  0  0  0  0
 20 23  1  1  0  0  0
 20 21  1  0  0  0  0
 21 18  1  0  0  0  0
 21 19  1  1  0  0  0
 22 20  1  0  0  0  0
 22 21  1  0  0  0  0
 23 24  1  0  0  0  0
 26 25  1  0  0  0  0
 26 23  1  0  0  0  0
 27 33  1  0  0  0  0
 29 30  1  0  0  0  0
 30 28  1  6  0  0  0
 31 30  1  0  0  0  0
 31 37  1  0  0  0  0
 32 29  2  0  0  0  0
 32 33  1  0  0  0  0
 33 28  2  0  0  0  0
 34 36  2  0  0  0  0
 34 29  1  0  0  0  0
 35 31  2  0  0  0  0
 36 35  1  0  0  0  0
 37 39  1  0  0  0  0
 38 42  1  0  0  0  0
 39 38  1  0  0  0  0
 39 41  2  0  0  0  0
 40 38  1  0  0  0  0
 41 43  1  0  0  0  0
 42 43  2  0  0  0  0
M  END
>  <MODEL>
4

>  <REMARK>
 VINA RESULT:      -7.3      2.888      6.074
  Name = 
  13 active torsions:
  status: ('A' for Active; 'I' for Inactive)
    1  A    between atoms: C_3  and  C_25
    2  A    between atoms: C_3  and  C_27
    3  A    between atoms: C_4  and  C_13
    4  A    between atoms: C_4  and  C_21
    5  A    between atoms: C_8  and  C_22
    6  A    between atoms: C_9  and  C_22
    7  A    between atoms: C_14  and  N_37
    8  A    between atoms: C_19  and  C_26
    9  A    between atoms: C_19  and  C_27
   10  A    between atoms: C_21  and  C_27
   11  A    between atoms: C_21  and  C_35
   12  A    between atoms: C_23  and  C_35
   13  A    between atoms: C_36  and  N_37
                            x       y       z     vdW  Elec       q    Type
                         _______ _______ _______ _____ _____    ______ ____

>  <TORSDO>
F 13

$$$$
=
 OpenBabel10232409033D

 43 48  0  0  1  0  0  0  0  0999 V2000
  189.9210  177.4350  138.4060 C   0  0  1  0  0  3  0  0  0  0  0  0
  188.9400  176.9840  139.5060 C   0  0  0  0  0  2  0  0  0  0  0  0
  190.5470  176.9900  145.4030 C   0  0  0  0  0  0  0  0  0  0  0  0
  189.2650  177.6260  140.8500 C   0  0  1  0  0  3  0  0  0  0  0  0
  190.9480  176.7510  144.0830 C   0  0  0  0  0  3  0  0  0  0  0  0
  187.7510  177.7200  141.8810 S   0  0  0  0  0  0  0  0  0  0  0  0
  188.3740  177.7470  144.6190 C   0  0  0  0  0  3  0  0  0  0  0  0
  188.7800  177.4900  143.3110 C   0  0  0  0  0  0  0  0  0  0  0  0
  191.4860  176.7110  146.5190 C   0  0  0  0  0  1  0  0  0  0  0  0
  191.6280  177.2700  141.2540 O   0  0  0  0  0  1  0  0  0  0  0  0
  189.2680  177.5070  145.6750 C   0  0  0  0  0  3  0  0  0  0  0  0
  190.0590  177.0260  143.0380 C   0  0  0  0  0  0  0  0  0  0  0  0
  190.3410  176.8210  141.5970 C   0  0  1  0  0  3  0  0  0  0  0  0
  190.5780  176.2610  137.6430 C   0  0  2  0  0  3  0  0  0  0  0  0
  189.5440  175.2070  137.2190 C   0  0  0  0  0  2  0  0  0  0  0  0
  190.6440  173.7730  135.6230 O   0  0  0  0  0  1  0  0  0  0  0  0
  190.1490  173.8370  136.9370 C   0  0  0  0  0  2  0  0  0  0  0  0
  191.7320  175.6170  138.4230 C   0  0  0  0  0  2  0  0  0  0  0  0
  193.8160  177.0140  138.7960 O   0  0  0  0  0  1  0  0  0  0  0  0
  193.9250  175.0120  137.3470 C   0  0  1  0  0  3  0  0  0  0  0  0
  193.1000  176.1190  137.9870 C   0  0  1  0  0  0  0  0  0  0  0  0
  193.4250  176.1960  136.5220 C   0  0  0  0  0  2  0  0  0  0  0  0
  195.3280  175.1180  137.7790 N   0  0  0  0  0  0  0  0  0  0  0  0
  195.5220  174.1020  138.8200 C   0  0  0  0  0  1  0  0  0  0  0  0
  197.4610  175.5390  136.9220 O   0  0  0  0  0  1  0  0  0  0  0  0
  196.2730  174.8200  136.6940 C   0  0  0  0  0  2  0  0  0  0  0  0
  189.2930  178.4810  137.4830 C   0  0  0  0  0  2  0  0  0  0  0  0
  187.2310  177.6540  136.3380 C   0  0  0  0  0  3  0  0  0  0  0  0
  185.7520  178.3270  137.9500 C   0  0  0  0  0  0  0  0  0  0  0  0
  185.7620  177.7270  136.5890 C   0  0  2  0  0  3  0  0  0  0  0  0
  185.0200  176.4150  136.5420 C   0  0  0  0  0  0  0  0  0  0  0  0
  186.9210  178.6820  138.3510 N   0  0  0  0  0  0  0  0  0  0  0  0
  187.8220  178.3280  137.3160 C   0  0  0  0  0  0  0  0  0  0  0  0
  184.6860  178.0750  138.8550 N   0  0  0  0  0  0  0  0  0  0  0  0
  184.0440  176.1580  137.4220 C   0  0  0  0  0  3  0  0  0  0  0  0
  183.8020  177.0220  138.5490 N   0  0  0  0  0  0  0  0  0  0  0  0
  185.1270  175.5450  135.3280 C   0  0  0  0  0  2  0  0  0  0  0  0
  184.4860  173.1370  135.6940 N   0  0  0  0  0  0  0  0  0  0  0  0
  185.3940  174.1320  135.7390 C   0  0  0  0  0  0  0  0  0  0  0  0
  183.1190  173.2190  135.1870 C   0  0  0  0  0  1  0  0  0  0  0  0
  186.5360  173.6860  136.3780 C   0  0  0  0  0  3  0  0  0  0  0  0
  185.0090  172.0500  136.2270 N   0  0  0  0  0  0  0  0  0  0  0  0
  186.2540  172.3540  136.6580 C   0  0  0  0  0  3  0  0  0  0  0  0
  1 27  1  6  0  0  0
  1  2  1  0  0  0  0
  3 11  1  0  0  0  0
  3  9  1  0  0  0  0
  4  2  1  6  0  0  0
  4 13  1  0  0  0  0
  4  6  1  0  0  0  0
  5  3  2  0  0  0  0
  6  8  1  0  0  0  0
  7 11  2  0  0  0  0
  8  7  1  0  0  0  0
 12  8  2  0  0  0  0
 12  5  1  0  0  0  0
 13 10  1  1  0  0  0
 13 12  1  0  0  0  0
 14 15  1  1  0  0  0
 14  1  1  0  0  0  0
 14 18  1  0  0  0  0
 16 17  1  0  0  0  0
 17 15  1  0  0  0  0
 20 23  1  1  0  0  0
 20 21  1  0  0  0  0
 21 18  1  0  0  0  0
 21 19  1  1  0  0  0
 22 20  1  0  0  0  0
 22 21  1  0  0  0  0
 23 24  1  0  0  0  0
 26 25  1  0  0  0  0
 26 23  1  0  0  0  0
 28 33  2  0  0  0  0
 29 32  2  0  0  0  0
 29 34  1  0  0  0  0
 30 28  1  1  0  0  0
 30 29  1  0  0  0  0
 31 30  1  0  0  0  0
 31 35  2  0  0  0  0
 33 27  1  0  0  0  0
 33 32  1  0  0  0  0
 35 36  1  0  0  0  0
 36 34  2  0  0  0  0
 37 39  1  0  0  0  0
 37 31  1  0  0  0  0
 38 39  1  0  0  0  0
 38 42  1  0  0  0  0
 39 41  2  0  0  0  0
 40 38  1  0  0  0  0
 41 43  1  0  0  0  0
 42 43  2  0  0  0  0
M  END
>  <MODEL>
5

>  <REMARK>
 VINA RESULT:      -7.2      3.270      6.904
  Name = 
  13 active torsions:
  status: ('A' for Active; 'I' for Inactive)
    1  A    between atoms: C_3  and  C_25
    2  A    between atoms: C_3  and  C_27
    3  A    between atoms: C_4  and  C_13
    4  A    between atoms: C_4  and  C_21
    5  A    between atoms: C_8  and  C_22
    6  A    between atoms: C_9  and  C_22
    7  A    between atoms: C_14  and  N_37
    8  A    between atoms: C_19  and  C_26
    9  A    between atoms: C_19  and  C_27
   10  A    between atoms: C_21  and  C_27
   11  A    between atoms: C_21  and  C_35
   12  A    between atoms: C_23  and  C_35
   13  A    between atoms: C_36  and  N_37
                            x       y       z     vdW  Elec       q    Type
                         _______ _______ _______ _____ _____    ______ ____

>  <TORSDO>
F 13

$$$$
=
 OpenBabel10232409033D

 43 48  0  0  1  0  0  0  0  0999 V2000
  189.4260  176.5880  137.7840 C   0  0  1  0  0  3  0  0  0  0  0  0
  188.1750  176.6250  136.8840 C   0  0  0  0  0  2  0  0  0  0  0  0
  182.1930  175.6140  137.6160 C   0  0  0  0  0  0  0  0  0  0  0  0
  186.8960  176.4220  137.6870 C   0  0  1  0  0  3  0  0  0  0  0  0
  183.4250  175.0880  137.2110 C   0  0  0  0  0  3  0  0  0  0  0  0
  186.0430  178.0300  137.9190 S   0  0  0  0  0  0  0  0  0  0  0  0
  183.2810  177.6820  138.2850 C   0  0  0  0  0  3  0  0  0  0  0  0
  184.4990  177.1530  137.8630 C   0  0  0  0  0  0  0  0  0  0  0  0
  180.9610  174.7960  137.4730 C   0  0  0  0  0  1  0  0  0  0  0  0
  186.2140  174.1200  137.3670 O   0  0  0  0  0  1  0  0  0  0  0  0
  182.1180  176.9030  138.1730 C   0  0  0  0  0  3  0  0  0  0  0  0
  184.5820  175.8620  137.3590 C   0  0  0  0  0  0  0  0  0  0  0  0
  185.9490  175.4420  136.9730 C   0  0  1  0  0  3  0  0  0  0  0  0
  190.6650  175.9660  137.0990 C   0  0  2  0  0  3  0  0  0  0  0  0
  190.2690  174.9010  136.0640 C   0  0  0  0  0  2  0  0  0  0  0  0
  188.9940  172.9070  136.5250 O   0  0  0  0  0  1  0  0  0  0  0  0
  190.2740  173.4810  136.6170 C   0  0  0  0  0  2  0  0  0  0  0  0
  191.6820  175.4060  138.1030 C   0  0  0  0  0  2  0  0  0  0  0  0
  193.6800  176.7590  138.8830 O   0  0  0  0  0  1  0  0  0  0  0  0
  194.0010  174.9260  137.2540 C   0  0  1  0  0  3  0  0  0  0  0  0
  193.0850  175.9550  137.8990 C   0  0  1  0  0  0  0  0  0  0  0  0
  193.5900  176.1920  136.5040 C   0  0  0  0  0  2  0  0  0  0  0  0
  195.3370  174.9870  137.8690 N   0  0  0  0  0  0  0  0  0  0  0  0
  195.4040  173.8830  138.8320 C   0  0  0  0  0  1  0  0  0  0  0  0
  197.5830  175.4000  137.3730 O   0  0  0  0  0  1  0  0  0  0  0  0
  196.4150  174.7820  136.8910 C   0  0  0  0  0  2  0  0  0  0  0  0
  189.7060  177.9510  138.4190 C   0  0  0  0  0  2  0  0  0  0  0  0
  188.9330  177.6730  140.7810 C   0  0  0  0  0  3  0  0  0  0  0  0
  191.0140  177.6770  141.7350 C   0  0  0  0  0  0  0  0  0  0  0  0
  189.5790  177.6620  142.1260 C   0  0  2  0  0  3  0  0  0  0  0  0
  189.2430  176.4860  143.0080 C   0  0  0  0  0  0  0  0  0  0  0  0
  191.1890  177.8280  140.4700 N   0  0  0  0  0  0  0  0  0  0  0  0
  189.8950  177.8980  139.8940 C   0  0  0  0  0  0  0  0  0  0  0  0
  192.0080  177.1030  142.5720 N   0  0  0  0  0  0  0  0  0  0  0  0
  190.1890  175.9170  143.7650 C   0  0  0  0  0  3  0  0  0  0  0  0
  191.5780  176.2700  143.6230 N   0  0  0  0  0  0  0  0  0  0  0  0
  187.8100  176.1640  143.3020 C   0  0  0  0  0  2  0  0  0  0  0  0
  186.2870  177.9740  144.1670 N   0  0  0  0  0  0  0  0  0  0  0  0
  187.2890  177.0900  144.3530 C   0  0  0  0  0  0  0  0  0  0  0  0
  185.4900  178.1540  142.9580 C   0  0  0  0  0  1  0  0  0  0  0  0
  187.8610  177.2960  145.5950 C   0  0  0  0  0  3  0  0  0  0  0  0
  186.1500  178.7070  145.2540 N   0  0  0  0  0  0  0  0  0  0  0  0
  187.0970  178.3220  146.1400 C   0  0  0  0  0  3  0  0  0  0  0  0
  1  2  1  6  0  0  0
  1 27  1  0  0  0  0
  3 11  1  0  0  0  0
  4  2  1  6  0  0  0
  4  6  1  0  0  0  0
  5 12  1  0  0  0  0
  5  3  2  0  0  0  0
  8  6  1  0  0  0  0
  8  7  1  0  0  0  0
  9  3  1  0  0  0  0
 11  7  2  0  0  0  0
 12  8  2  0  0  0  0
 13 12  1  0  0  0  0
 13 10  1  1  0  0  0
 13  4  1  0  0  0  0
 14 15  1  6  0  0  0
 14  1  1  0  0  0  0
 14 18  1  0  0  0  0
 15 17  1  0  0  0  0
 16 17  1  0  0  0  0
 20 23  1  1  0  0  0
 20 21  1  0  0  0  0
 21 18  1  0  0  0  0
 21 19  1  1  0  0  0
 22 20  1  0  0  0  0
 22 21  1  0  0  0  0
 23 24  1  0  0  0  0
 26 25  1  0  0  0  0
 26 23  1  0  0  0  0
 27 33  1  0  0  0  0
 29 30  1  0  0  0  0
 29 34  1  0  0  0  0
 30 28  1  6  0  0  0
 30 31  1  0  0  0  0
 31 37  1  0  0  0  0
 31 35  2  0  0  0  0
 32 29  2  0  0  0  0
 33 32  1  0  0  0  0
 33 28  2  0  0  0  0
 34 36  2  0  0  0  0
 36 35  1  0  0  0  0
 37 39  1  0  0  0  0
 38 39  1  0  0  0  0
 38 42  1  0  0  0  0
 39 41  2  0  0  0  0
 40 38  1  0  0  0  0
 41 43  1  0  0  0  0
 42 43  2  0  0  0  0
M  END
>  <MODEL>
6

>  <REMARK>
 VINA RESULT:      -7.0      1.740      2.478
  Name = 
  13 active torsions:
  status: ('A' for Active; 'I' for Inactive)
    1  A    between atoms: C_3  and  C_25
    2  A    between atoms: C_3  and  C_27
    3  A    between atoms: C_4  and  C_13
    4  A    between atoms: C_4  and  C_21
    5  A    between atoms: C_8  and  C_22
    6  A    between atoms: C_9  and  C_22
    7  A    between atoms: C_14  and  N_37
    8  A    between atoms: C_19  and  C_26
    9  A    between atoms: C_19  and  C_27
   10  A    between atoms: C_21  and  C_27
   11  A    between atoms: C_21  and  C_35
   12  A    between atoms: C_23  and  C_35
   13  A    between atoms: C_36  and  N_37
                            x       y       z     vdW  Elec       q    Type
                         _______ _______ _______ _____ _____    ______ ____

>  <TORSDO>
F 13

$$$$
=
 OpenBabel10232409033D

 43 48  0  0  1  0  0  0  0  0999 V2000
  186.8660  177.0550  137.7800 C   0  0  1  0  0  3  0  0  0  0  0  0
  185.9550  177.6540  136.6910 C   0  0  0  0  0  2  0  0  0  0  0  0
  181.6580  178.1150  141.0140 C   0  0  0  0  0  0  0  0  0  0  0  0
  184.5710  177.9900  137.2340 C   0  0  1  0  0  3  0  0  0  0  0  0
  182.8810  178.5930  140.5260 C   0  0  0  0  0  3  0  0  0  0  0  0
  183.4970  176.5040  137.1680 S   0  0  0  0  0  0  0  0  0  0  0  0
  181.4680  176.6190  139.1070 C   0  0  0  0  0  3  0  0  0  0  0  0
  182.6940  177.0920  138.6410 C   0  0  0  0  0  0  0  0  0  0  0  0
  181.1130  178.6530  142.2860 C   0  0  0  0  0  1  0  0  0  0  0  0
  184.8310  179.8860  138.7200 O   0  0  0  0  0  1  0  0  0  0  0  0
  180.9380  177.1420  140.2970 C   0  0  0  0  0  3  0  0  0  0  0  0
  183.3810  178.0860  139.3210 C   0  0  0  0  0  0  0  0  0  0  0  0
  184.6570  178.4920  138.6860 C   0  0  1  0  0  3  0  0  0  0  0  0
  187.3950  175.6430  137.4390 C   0  0  2  0  0  3  0  0  0  0  0  0
  188.8570  175.6810  136.9680 C   0  0  0  0  0  2  0  0  0  0  0  0
  189.0300  176.9820  134.9450 O   0  0  0  0  0  1  0  0  0  0  0  0
  189.0100  175.6700  135.4520 C   0  0  0  0  0  2  0  0  0  0  0  0
  186.5090  174.9050  136.4250 C   0  0  0  0  0  2  0  0  0  0  0  0
  185.6890  173.1610  138.0740 O   0  0  0  0  0  1  0  0  0  0  0  0
  185.6630  172.6660  135.6510 C   0  0  1  0  0  3  0  0  0  0  0  0
  186.2320  173.4620  136.8160 C   0  0  1  0  0  0  0  0  0  0  0  0
  187.0530  172.3610  136.2060 C   0  0  0  0  0  2  0  0  0  0  0  0
  184.6030  171.7640  136.1290 N   0  0  0  0  0  0  0  0  0  0  0  0
  183.3270  172.4340  135.8530 C   0  0  0  0  0  1  0  0  0  0  0  0
  183.6840  169.6160  136.0500 O   0  0  0  0  0  1  0  0  0  0  0  0
  184.5900  170.4820  135.4100 C   0  0  0  0  0  2  0  0  0  0  0  0
  187.9690  178.0320  138.1940 C   0  0  0  0  0  2  0  0  0  0  0  0
  187.4500  178.3970  140.6130 C   0  0  0  0  0  3  0  0  0  0  0  0
  189.3280  177.3800  141.4360 C   0  0  0  0  0  0  0  0  0  0  0  0
  188.1510  178.1570  141.9080 C   0  0  2  0  0  3  0  0  0  0  0  0
  187.3610  177.4120  142.9550 C   0  0  0  0  0  0  0  0  0  0  0  0
  189.4050  177.3130  140.1540 N   0  0  0  0  0  0  0  0  0  0  0  0
  188.2760  178.0070  139.6500 C   0  0  0  0  0  0  0  0  0  0  0  0
  189.9730  176.4390  142.2830 N   0  0  0  0  0  0  0  0  0  0  0  0
  187.9590  176.4930  143.7250 C   0  0  0  0  0  3  0  0  0  0  0  0
  189.3020  176.0470  143.4570 N   0  0  0  0  0  0  0  0  0  0  0  0
  186.0150  177.9190  143.3710 C   0  0  0  0  0  2  0  0  0  0  0  0
  184.9450  178.6460  145.5320 N   0  0  0  0  0  0  0  0  0  0  0  0
  185.9930  178.1410  144.8490 C   0  0  0  0  0  0  0  0  0  0  0  0
  183.6370  179.0050  144.9920 C   0  0  0  0  0  1  0  0  0  0  0  0
  187.0820  178.0280  145.6930 C   0  0  0  0  0  3  0  0  0  0  0  0
  185.2910  178.8140  146.7930 N   0  0  0  0  0  0  0  0  0  0  0  0
  186.5880  178.4510  146.9220 C   0  0  0  0  0  3  0  0  0  0  0  0
  1  2  1  6  0  0  0
  1 27  1  0  0  0  0
  3  9  1  0  0  0  0
  4  2  1  1  0  0  0
  4 13  1  0  0  0  0
  5  3  1  0  0  0  0
  6  4  1  0  0  0  0
  6  8  1  0  0  0  0
  7 11  1  0  0  0  0
  8  7  2  0  0  0  0
  8 12  1  0  0  0  0
 11  3  2  0  0  0  0
 12  5  2  0  0  0  0
 13 10  1  6  0  0  0
 13 12  1  0  0  0  0
 14 18  1  6  0  0  0
 14  1  1  0  0  0  0
 15 14  1  0  0  0  0
 16 17  1  0  0  0  0
 17 15  1  0  0  0  0
 18 21  1  0  0  0  0
 20 23  1  1  0  0  0
 20 22  1  0  0  0  0
 20 21  1  0  0  0  0
 21 19  1  1  0  0  0
 22 21  1  0  0  0  0
 24 23  1  0  0  0  0
 26 25  1  0  0  0  0
 26 23  1  0  0  0  0
 27 33  1  0  0  0  0
 29 30  1  0  0  0  0
 29 34  1  0  0  0  0
 30 28  1  6  0  0  0
 30 31  1  0  0  0  0
 31 37  1  0  0  0  0
 31 35  2  0  0  0  0
 32 29  2  0  0  0  0
 33 32  1  0  0  0  0
 33 28  2  0  0  0  0
 34 36  2  0  0  0  0
 36 35  1  0  0  0  0
 37 39  1  0  0  0  0
 38 42  1  0  0  0  0
 39 38  1  0  0  0  0
 39 41  2  0  0  0  0
 40 38  1  0  0  0  0
 41 43  1  0  0  0  0
 42 43  2  0  0  0  0
M  END
>  <MODEL>
7

>  <REMARK>
 VINA RESULT:      -6.9      3.439      5.793
  Name = 
  13 active torsions:
  status: ('A' for Active; 'I' for Inactive)
    1  A    between atoms: C_3  and  C_25
    2  A    between atoms: C_3  and  C_27
    3  A    between atoms: C_4  and  C_13
    4  A    between atoms: C_4  and  C_21
    5  A    between atoms: C_8  and  C_22
    6  A    between atoms: C_9  and  C_22
    7  A    between atoms: C_14  and  N_37
    8  A    between atoms: C_19  and  C_26
    9  A    between atoms: C_19  and  C_27
   10  A    between atoms: C_21  and  C_27
   11  A    between atoms: C_21  and  C_35
   12  A    between atoms: C_23  and  C_35
   13  A    between atoms: C_36  and  N_37
                            x       y       z     vdW  Elec       q    Type
                         _______ _______ _______ _____ _____    ______ ____

>  <TORSDO>
F 13

$$$$
=
 OpenBabel10232409033D

 43 48  0  0  1  0  0  0  0  0999 V2000
  190.9690  176.5660  139.1170 C   0  0  1  0  0  3  0  0  0  0  0  0
  190.6760  177.5960  140.2260 C   0  0  0  0  0  2  0  0  0  0  0  0
  189.1730  177.4270  146.1480 C   0  0  0  0  0  0  0  0  0  0  0  0
  190.4310  176.9220  141.5720 C   0  0  1  0  0  3  0  0  0  0  0  0
  188.7310  177.6330  144.8360 C   0  0  0  0  0  3  0  0  0  0  0  0
  191.9650  176.9610  142.5770 S   0  0  0  0  0  0  0  0  0  0  0  0
  191.3920  176.8690  145.3250 C   0  0  0  0  0  3  0  0  0  0  0  0
  190.9430  177.0930  144.0250 C   0  0  0  0  0  0  0  0  0  0  0  0
  188.2320  177.6170  147.2800 C   0  0  0  0  0  1  0  0  0  0  0  0
  188.0540  177.0650  142.0150 O   0  0  0  0  0  1  0  0  0  0  0  0
  190.4980  177.0250  146.3970 C   0  0  0  0  0  3  0  0  0  0  0  0
  189.6230  177.4420  143.7750 C   0  0  0  0  0  0  0  0  0  0  0  0
  189.3000  177.6260  142.3400 C   0  0  1  0  0  3  0  0  0  0  0  0
  189.7640  176.2980  138.1860 C   0  0  2  0  0  3  0  0  0  0  0  0
  189.9190  174.9730  137.4230 C   0  0  0  0  0  2  0  0  0  0  0  0
  190.9070  174.7200  135.2380 O   0  0  0  0  0  1  0  0  0  0  0  0
  189.7400  175.1130  135.9150 C   0  0  0  0  0  2  0  0  0  0  0  0
  189.4880  177.4590  137.2210 C   0  0  0  0  0  2  0  0  0  0  0  0
  187.8830  179.3970  136.9040 O   0  0  0  0  0  1  0  0  0  0  0  0
  187.0050  177.1630  137.5010 C   0  0  1  0  0  3  0  0  0  0  0  0
  188.1610  178.1530  137.4880 C   0  0  1  0  0  0  0  0  0  0  0  0
  187.4350  177.8850  138.7760 C   0  0  0  0  0  2  0  0  0  0  0  0
  185.8340  177.7510  136.8310 N   0  0  0  0  0  0  0  0  0  0  0  0
  185.8350  177.2340  135.4580 C   0  0  0  0  0  1  0  0  0  0  0  0
  184.0050  176.3030  136.6890 O   0  0  0  0  0  1  0  0  0  0  0  0
  184.5670  177.3410  137.4540 C   0  0  0  0  0  2  0  0  0  0  0  0
  192.2570  176.9000  138.3620 C   0  0  0  0  0  2  0  0  0  0  0  0
  193.7220  174.9330  137.8790 C   0  0  0  0  0  3  0  0  0  0  0  0
  195.2320  175.3180  139.5550 C   0  0  0  0  0  0  0  0  0  0  0  0
  194.9160  174.3030  138.5140 C   0  0  2  0  0  3  0  0  0  0  0  0
  196.0870  174.0420  137.6010 C   0  0  0  0  0  0  0  0  0  0  0  0
  194.3480  176.2470  139.6360 N   0  0  0  0  0  0  0  0  0  0  0  0
  193.3770  175.9620  138.6420 C   0  0  0  0  0  0  0  0  0  0  0  0
  196.5610  175.4950  140.0270 N   0  0  0  0  0  0  0  0  0  0  0  0
  197.3380  174.2510  138.0300 C   0  0  0  0  0  3  0  0  0  0  0  0
  197.6030  174.9050  139.2860 N   0  0  0  0  0  0  0  0  0  0  0  0
  195.8900  173.2420  136.3510 C   0  0  0  0  0  2  0  0  0  0  0  0
  194.2900  171.3010  136.4760 N   0  0  0  0  0  0  0  0  0  0  0  0
  195.5050  171.8410  136.7020 C   0  0  0  0  0  0  0  0  0  0  0  0
  193.1600  171.9340  135.8030 C   0  0  0  0  0  1  0  0  0  0  0  0
  196.2660  170.9650  137.4540 C   0  0  0  0  0  3  0  0  0  0  0  0
  194.2500  170.0920  137.0020 N   0  0  0  0  0  0  0  0  0  0  0  0
  195.4360  169.8610  137.6090 C   0  0  0  0  0  3  0  0  0  0  0  0
  1 27  1  6  0  0  0
  1  2  1  0  0  0  0
  3 11  1  0  0  0  0
  3  9  1  0  0  0  0
  4  2  1  6  0  0  0
  4 13  1  0  0  0  0
  4  6  1  0  0  0  0
  5  3  2  0  0  0  0
  6  8  1  0  0  0  0
  7 11  2  0  0  0  0
  8  7  1  0  0  0  0
 12  8  2  0  0  0  0
 12  5  1  0  0  0  0
 13 10  1  1  0  0  0
 13 12  1  0  0  0  0
 14 18  1  6  0  0  0
 14  1  1  0  0  0  0
 15 14  1  0  0  0  0
 16 17  1  0  0  0  0
 17 15  1  0  0  0  0
 18 21  1  0  0  0  0
 20 23  1  6  0  0  0
 20 22  1  0  0  0  0
 21 19  1  6  0  0  0
 21 20  1  0  0  0  0
 21 22  1  0  0  0  0
 23 26  1  0  0  0  0
 24 23  1  0  0  0  0
 25 26  1  0  0  0  0
 27 33  1  0  0  0  0
 28 33  2  0  0  0  0
 29 32  2  0  0  0  0
 29 34  1  0  0  0  0
 30 28  1  6  0  0  0
 30 29  1  0  0  0  0
 31 35  2  0  0  0  0
 31 30  1  0  0  0  0
 33 32  1  0  0  0  0
 35 36  1  0  0  0  0
 36 34  2  0  0  0  0
 37 39  1  0  0  0  0
 37 31  1  0  0  0  0
 38 39  1  0  0  0  0
 38 42  1  0  0  0  0
 39 41  2  0  0  0  0
 40 38  1  0  0  0  0
 41 43  1  0  0  0  0
 42 43  2  0  0  0  0
M  END
>  <MODEL>
8

>  <REMARK>
 VINA RESULT:      -6.9      3.323      9.182
  Name = 
  13 active torsions:
  status: ('A' for Active; 'I' for Inactive)
    1  A    between atoms: C_3  and  C_25
    2  A    between atoms: C_3  and  C_27
    3  A    between atoms: C_4  and  C_13
    4  A    between atoms: C_4  and  C_21
    5  A    between atoms: C_8  and  C_22
    6  A    between atoms: C_9  and  C_22
    7  A    between atoms: C_14  and  N_37
    8  A    between atoms: C_19  and  C_26
    9  A    between atoms: C_19  and  C_27
   10  A    between atoms: C_21  and  C_27
   11  A    between atoms: C_21  and  C_35
   12  A    between atoms: C_23  and  C_35
   13  A    between atoms: C_36  and  N_37
                            x       y       z     vdW  Elec       q    Type
                         _______ _______ _______ _____ _____    ______ ____

>  <TORSDO>
F 13

$$$$
=
 OpenBabel10232409033D

 43 48  0  0  1  0  0  0  0  0999 V2000
  189.8460  176.1550  137.1030 C   0  0  1  0  0  3  0  0  0  0  0  0
  188.6250  175.8970  136.1980 C   0  0  0  0  0  2  0  0  0  0  0  0
  183.5720  172.5450  136.9640 C   0  0  0  0  0  0  0  0  0  0  0  0
  187.4500  175.3270  136.9840 C   0  0  1  0  0  3  0  0  0  0  0  0
  184.9550  172.5410  136.7420 C   0  0  0  0  0  3  0  0  0  0  0  0
  185.9820  176.4080  136.7820 S   0  0  0  0  0  0  0  0  0  0  0  0
  183.5950  174.9700  137.1330 C   0  0  0  0  0  3  0  0  0  0  0  0
  184.9680  174.9530  136.8950 C   0  0  0  0  0  0  0  0  0  0  0  0
  182.8270  171.2610  136.9880 C   0  0  0  0  0  1  0  0  0  0  0  0
  187.8420  172.9490  137.2250 O   0  0  0  0  0  1  0  0  0  0  0  0
  182.8910  173.7560  137.1800 C   0  0  0  0  0  3  0  0  0  0  0  0
  185.6500  173.7550  136.7310 C   0  0  0  0  0  0  0  0  0  0  0  0
  187.1070  173.9060  136.5060 C   0  0  1  0  0  3  0  0  0  0  0  0
  191.1900  175.7300  136.4670 C   0  0  2  0  0  3  0  0  0  0  0  0
  190.9800  174.8390  135.2330 C   0  0  0  0  0  2  0  0  0  0  0  0
  190.3940  172.5000  135.2530 O   0  0  0  0  0  1  0  0  0  0  0  0
  191.4560  173.4050  135.4280 C   0  0  0  0  0  2  0  0  0  0  0  0
  192.1390  175.0630  137.4720 C   0  0  0  0  0  2  0  0  0  0  0  0
  193.7900  176.5260  138.7250 O   0  0  0  0  0  1  0  0  0  0  0  0
  194.6140  174.9080  137.0450 C   0  0  1  0  0  3  0  0  0  0  0  0
  193.4810  175.7700  137.5850 C   0  0  1  0  0  0  0  0  0  0  0  0
  194.1980  176.1950  136.3340 C   0  0  0  0  0  2  0  0  0  0  0  0
  195.8000  175.0420  137.9050 N   0  0  0  0  0  0  0  0  0  0  0  0
  195.7340  173.9480  138.8810 C   0  0  0  0  0  1  0  0  0  0  0  0
  198.1090  175.4070  137.9350 O   0  0  0  0  0  1  0  0  0  0  0  0
  197.0560  174.8890  137.1580 C   0  0  0  0  0  2  0  0  0  0  0  0
  189.8570  177.5870  137.6420 C   0  0  0  0  0  2  0  0  0  0  0  0
  188.9010  178.5540  139.7400 C   0  0  0  0  0  3  0  0  0  0  0  0
  189.7130  176.9500  141.1570 C   0  0  0  0  0  0  0  0  0  0  0  0
  188.9830  178.2460  141.1980 C   0  0  2  0  0  3  0  0  0  0  0  0
  187.6650  178.1320  141.9220 C   0  0  0  0  0  0  0  0  0  0  0  0
  190.1170  176.6380  139.9770 N   0  0  0  0  0  0  0  0  0  0  0  0
  189.6730  177.6730  139.1170 C   0  0  0  0  0  0  0  0  0  0  0  0
  189.5390  175.9780  142.1790 N   0  0  0  0  0  0  0  0  0  0  0  0
  187.4850  177.1890  142.8550 C   0  0  0  0  0  3  0  0  0  0  0  0
  188.4530  176.1410  143.0600 N   0  0  0  0  0  0  0  0  0  0  0  0
  186.6820  179.2600  141.8550 C   0  0  0  0  0  2  0  0  0  0  0  0
  184.3120  178.4080  141.8540 N   0  0  0  0  0  0  0  0  0  0  0  0
  185.4230  178.7950  141.1960 C   0  0  0  0  0  0  0  0  0  0  0  0
  184.0970  178.4260  143.2980 C   0  0  0  0  0  1  0  0  0  0  0  0
  185.2740  178.5330  139.8470 C   0  0  0  0  0  3  0  0  0  0  0  0
  183.4290  177.9560  140.9850 N   0  0  0  0  0  0  0  0  0  0  0  0
  183.9870  178.0150  139.7540 C   0  0  0  0  0  3  0  0  0  0  0  0
  1  2  1  6  0  0  0
  1 27  1  0  0  0  0
  3  9  1  0  0  0  0
  3 11  1  0  0  0  0
  4  2  1  6  0  0  0
  5  3  2  0  0  0  0
  6  8  1  0  0  0  0
  6  4  1  0  0  0  0
  7 11  2  0  0  0  0
  8  7  1  0  0  0  0
 12  5  1  0  0  0  0
 12  8  2  0  0  0  0
 13 12  1  0  0  0  0
 13  4  1  0  0  0  0
 13 10  1  1  0  0  0
 14 15  1  6  0  0  0
 14  1  1  0  0  0  0
 14 18  1  0  0  0  0
 15 17  1  0  0  0  0
 16 17  1  0  0  0  0
 18 21  1  0  0  0  0
 20 21  1  0  0  0  0
 20 23  1  1  0  0  0
 21 19  1  1  0  0  0
 22 20  1  0  0  0  0
 22 21  1  0  0  0  0
 23 24  1  0  0  0  0
 26 23  1  0  0  0  0
 26 25  1  0  0  0  0
 27 33  1  0  0  0  0
 29 30  1  0  0  0  0
 29 34  1  0  0  0  0
 30 28  1  6  0  0  0
 30 31  1  0  0  0  0
 31 35  2  0  0  0  0
 32 29  2  0  0  0  0
 33 28  2  0  0  0  0
 33 32  1  0  0  0  0
 34 36  2  0  0  0  0
 35 36  1  0  0  0  0
 37 31  1  0  0  0  0
 38 40  1  0  0  0  0
 39 38  1  0  0  0  0
 39 37  1  0  0  0  0
 41 39  2  0  0  0  0
 42 38  1  0  0  0  0
 43 41  1  0  0  0  0
 43 42  2  0  0  0  0
M  END
>  <MODEL>
9

>  <REMARK>
 VINA RESULT:      -6.8      2.394      3.102
  Name = 
  13 active torsions:
  status: ('A' for Active; 'I' for Inactive)
    1  A    between atoms: C_3  and  C_25
    2  A    between atoms: C_3  and  C_27
    3  A    between atoms: C_4  and  C_13
    4  A    between atoms: C_4  and  C_21
    5  A    between atoms: C_8  and  C_22
    6  A    between atoms: C_9  and  C_22
    7  A    between atoms: C_14  and  N_37
    8  A    between atoms: C_19  and  C_26
    9  A    between atoms: C_19  and  C_27
   10  A    between atoms: C_21  and  C_27
   11  A    between atoms: C_21  and  C_35
   12  A    between atoms: C_23  and  C_35
   13  A    between atoms: C_36  and  N_37
                            x       y       z     vdW  Elec       q    Type
                         _______ _______ _______ _____ _____    ______ ____

>  <TORSDO>
F 13

$$$$
