=
 OpenBabel10232412113D

 39 44  0  0  1  0  0  0  0  0999 V2000
  182.2300  179.1290  140.9610 N   0  0  0  0  0  0  0  0  0  0  0  0
  188.2580  177.2630  142.3120 C   0  0  2  0  0  3  0  0  0  0  0  0
  186.2330  176.5540  136.9270 N   0  0  0  0  0  0  0  0  0  0  0  0
  187.8440  176.2720  144.5130 O   0  0  0  0  0  1  0  0  0  0  0  0
  189.6610  177.7070  136.8630 C   0  0  0  0  0  2  0  0  0  0  0  0
  188.1760  177.5640  139.7850 C   0  0  1  0  0  3  0  0  0  0  0  0
  188.5720  176.6830  137.0440 C   0  0  1  0  0  3  0  0  0  0  0  0
  183.7480  179.4250  144.7920 C   0  0  0  0  0  3  0  0  0  0  0  0
  183.5380  178.0050  138.7680 C   0  0  0  0  0  0  0  0  0  0  0  0
  182.2930  178.7560  138.5710 C   0  0  0  0  0  3  0  0  0  0  0  0
  184.2030  177.5160  137.7590 C   0  0  0  0  0  0  0  0  0  0  0  0
  187.3140  177.4510  137.2990 C   0  0  2  0  0  3  0  0  0  0  0  0
  183.2610  178.3710  141.2110 C   0  0  0  0  0  0  0  0  0  0  0  0
  185.1950  179.8000  144.8370 C   0  0  0  0  0  2  0  0  0  0  0  0
  187.2610  178.1010  138.6920 C   0  0  2  0  0  3  0  0  0  0  0  0
  183.9120  178.3920  142.5360 C   0  0  0  0  0  0  0  0  0  0  0  0
  184.8690  176.9680  136.7790 C   0  0  0  0  0  3  0  0  0  0  0  0
  188.6070  178.7960  139.0040 C   0  0  2  0  0  3  0  0  0  0  0  0
  187.6560  178.0350  141.1270 C   0  0  0  0  0  2  0  0  0  0  0  0
  181.6730  179.2700  139.6400 C   0  0  0  0  0  3  0  0  0  0  0  0
  187.2290  176.8060  143.3780 C   0  0  1  0  0  3  0  0  0  0  0  0
  186.1270  178.6200  144.7540 C   0  0  0  0  0  0  0  0  0  0  0  0
  183.8510  177.4930  140.1300 C   0  0  0  0  0  2  0  0  0  0  0  0
  186.7510  175.5390  136.0180 C   0  0  0  0  0  2  0  0  0  0  0  0
  185.1560  177.9120  142.5820 C   0  0  0  0  0  3  0  0  0  0  0  0
  188.2360  175.8510  135.8300 C   0  0  0  0  0  2  0  0  0  0  0  0
  189.8850  178.3940  138.2160 C   0  0  0  0  0  2  0  0  0  0  0  0
  183.1800  178.8470  143.7350 C   0  0  0  0  0  3  0  0  0  0  0  0
  186.1220  177.7970  143.6850 C   0  0  0  0  0  0  0  0  0  0  0  0
  189.4290  177.8530  142.8400 O   0  0  0  0  0  0  0  0  0  0  0  0
  190.5440  177.1150  142.4160 C   0  0  0  0  0  1  0  0  0  0  0  0
  187.0800  178.4350  145.7620 O   0  0  0  0  0  0  0  0  0  0  0  0
  186.7540  178.4480  147.1450 C   0  0  0  0  0  2  0  0  0  0  0  0
  187.7910  177.6610  147.9230 C   0  0  0  0  0  2  0  0  0  0  0  0
  189.1640  177.8650  147.3120 C   0  0  0  0  0  2  0  0  0  0  0  0
  189.9200  176.5510  147.3150 C   0  0  0  0  0  2  0  0  0  0  0  0
  191.3580  176.8010  147.0290 C   0  0  0  0  0  0  0  0  0  0  0  0
  191.7040  177.2890  145.9210 O   0  0  0  0  0  0  0  0  0  0  0  0
  192.3220  176.4690  147.9720 O   0  0  0  0  0  1  0  0  0  0  0  0
  1 13  2  0  0  0  0
  2 30  1  1  0  0  0
  2 21  1  0  0  0  0
  5  7  1  0  0  0  0
  5 27  1  0  0  0  0
  6 19  1  1  0  0  0
  7 26  1  6  0  0  0
  7 12  1  0  0  0  0
  8 14  1  0  0  0  0
  9 23  1  0  0  0  0
 10  9  1  0  0  0  0
 10 20  2  0  0  0  0
 11  9  2  0  0  0  0
 12  3  1  1  0  0  0
 12 15  1  0  0  0  0
 13 16  1  0  0  0  0
 15 18  1  0  0  0  0
 15  6  1  0  0  0  0
 16 25  2  0  0  0  0
 16 28  1  0  0  0  0
 17  3  1  0  0  0  0
 17 11  2  0  0  0  0
 18  6  1  0  0  0  0
 19  2  1  0  0  0  0
 20  1  1  0  0  0  0
 21 29  1  0  0  0  0
 21  4  1  0  0  0  0
 22 14  1  0  0  0  0
 22 32  1  0  0  0  0
 23 13  1  0  0  0  0
 24  3  1  0  0  0  0
 25 29  1  0  0  0  0
 26 24  1  0  0  0  0
 27 18  1  0  0  0  0
 28  8  2  0  0  0  0
 29 22  2  0  0  0  0
 31 30  1  0  0  0  0
 32 33  1  0  0  0  0
 33 34  1  0  0  0  0
 35 36  1  0  0  0  0
 35 34  1  0  0  0  0
 37 36  1  0  0  0  0
 37 39  1  0  0  0  0
 38 37  2  0  0  0  0
M  END
>  <MODEL>
1

>  <REMARK>
 VINA RESULT:      -8.8      0.000      0.000
  Name = 
  7 active torsions:
  status: ('A' for Active; 'I' for Inactive)
    1  A    between atoms: C_2  and  O_8
    2  A    between atoms: O_6  and  C_19
    3  A    between atoms: O_6  and  C_28
    4  A    between atoms: C_19  and  C_27
    5  A    between atoms: C_25  and  C_29
    6  A    between atoms: C_25  and  C_39
    7  A    between atoms: C_27  and  C_39
                            x       y       z     vdW  Elec       q    Type
                         _______ _______ _______ _____ _____    ______ ____

>  <TORSDO>
F 7

$$$$
=
 OpenBabel10232412113D

 39 44  0  0  1  0  0  0  0  0999 V2000
  184.6520  178.9630  144.4060 N   0  0  0  0  0  0  0  0  0  0  0  0
  189.7140  176.5450  141.2140 C   0  0  2  0  0  3  0  0  0  0  0  0
  184.7910  177.5620  138.3270 N   0  0  0  0  0  0  0  0  0  0  0  0
  190.4850  174.9570  142.9120 O   0  0  0  0  0  1  0  0  0  0  0  0
  187.6580  178.5470  136.3540 C   0  0  0  0  0  2  0  0  0  0  0  0
  188.2150  177.5920  139.4430 C   0  0  1  0  0  3  0  0  0  0  0  0
  186.6990  177.5580  136.9630 C   0  0  1  0  0  3  0  0  0  0  0  0
  188.1690  178.0380  146.3670 C   0  0  0  0  0  3  0  0  0  0  0  0
  184.1170  178.4980  141.7070 C   0  0  0  0  0  0  0  0  0  0  0  0
  183.2000  179.3220  142.5040 C   0  0  0  0  0  3  0  0  0  0  0  0
  183.9250  178.3080  140.4320 C   0  0  0  0  0  0  0  0  0  0  0  0
  186.0460  178.2630  138.1090 C   0  0  2  0  0  3  0  0  0  0  0  0
  185.4340  178.1260  143.7830 C   0  0  0  0  0  0  0  0  0  0  0  0
  189.3970  178.3250  145.5650 C   0  0  0  0  0  2  0  0  0  0  0  0
  186.9730  178.4670  139.3180 C   0  0  2  0  0  3  0  0  0  0  0  0
  186.7300  177.7230  144.3640 C   0  0  0  0  0  0  0  0  0  0  0  0
  183.7380  178.0540  139.1650 C   0  0  0  0  0  3  0  0  0  0  0  0
  188.3530  178.9840  138.8450 C   0  0  2  0  0  3  0  0  0  0  0  0
  188.7120  177.6590  140.8720 C   0  0  0  0  0  2  0  0  0  0  0  0
  183.4670  179.5150  143.8010 C   0  0  0  0  0  3  0  0  0  0  0  0
  189.4510  175.8300  142.5650 C   0  0  1  0  0  3  0  0  0  0  0  0
  189.8120  177.1900  144.6670 C   0  0  0  0  0  0  0  0  0  0  0  0
  185.0560  177.5900  142.4190 C   0  0  0  0  0  2  0  0  0  0  0  0
  184.4300  176.8470  137.1100 C   0  0  0  0  0  2  0  0  0  0  0  0
  187.6150  177.2030  143.5120 C   0  0  0  0  0  3  0  0  0  0  0  0
  185.5360  177.1430  136.0960 C   0  0  0  0  0  2  0  0  0  0  0  0
  188.7860  178.7870  137.3650 C   0  0  0  0  0  2  0  0  0  0  0  0
  186.9740  177.8260  145.8160 C   0  0  0  0  0  3  0  0  0  0  0  0
  188.9920  176.7250  143.7010 C   0  0  0  0  0  0  0  0  0  0  0  0
  191.0630  176.9030  140.9920 O   0  0  0  0  0  0  0  0  0  0  0  0
  191.3220  176.8770  139.6140 C   0  0  0  0  0  1  0  0  0  0  0  0
  191.1080  176.6740  144.7790 O   0  0  0  0  0  0  0  0  0  0  0  0
  191.9430  176.9180  145.9020 C   0  0  0  0  0  2  0  0  0  0  0  0
  192.0360  175.6650  146.7520 C   0  0  0  0  0  2  0  0  0  0  0  0
  191.9670  176.0290  148.2230 C   0  0  0  0  0  2  0  0  0  0  0  0
  193.3190  175.7970  148.8670 C   0  0  0  0  0  2  0  0  0  0  0  0
  193.7000  176.9880  149.6720 C   0  0  0  0  0  0  0  0  0  0  0  0
  194.7310  176.9570  150.3930 O   0  0  0  0  0  1  0  0  0  0  0  0
  192.9020  178.1240  149.6530 O   0  0  0  0  0  0  0  0  0  0  0  0
  2 30  1  1  0  0  0
  2 21  1  0  0  0  0
  3 17  1  0  0  0  0
  5  7  1  0  0  0  0
  5 27  1  0  0  0  0
  6 19  1  1  0  0  0
  7 26  1  6  0  0  0
  7 12  1  0  0  0  0
  9 23  1  0  0  0  0
  9 10  1  0  0  0  0
 10 20  2  0  0  0  0
 11  9  2  0  0  0  0
 12  3  1  1  0  0  0
 12 15  1  0  0  0  0
 13 16  1  0  0  0  0
 13  1  2  0  0  0  0
 14  8  1  0  0  0  0
 15  6  1  0  0  0  0
 16 28  1  0  0  0  0
 17 11  2  0  0  0  0
 18 15  1  0  0  0  0
 18  6  1  0  0  0  0
 19  2  1  0  0  0  0
 20  1  1  0  0  0  0
 21  4  1  0  0  0  0
 21 29  1  0  0  0  0
 22 32  1  0  0  0  0
 22 14  1  0  0  0  0
 23 13  1  0  0  0  0
 24  3  1  0  0  0  0
 25 29  1  0  0  0  0
 25 16  2  0  0  0  0
 26 24  1  0  0  0  0
 27 18  1  0  0  0  0
 28  8  2  0  0  0  0
 29 22  2  0  0  0  0
 31 30  1  0  0  0  0
 32 33  1  0  0  0  0
 33 34  1  0  0  0  0
 34 35  1  0  0  0  0
 35 36  1  0  0  0  0
 36 37  1  0  0  0  0
 37 38  1  0  0  0  0
 39 37  2  0  0  0  0
M  END
>  <MODEL>
2

>  <REMARK>
 VINA RESULT:      -8.0      1.817      3.325
  Name = 
  7 active torsions:
  status: ('A' for Active; 'I' for Inactive)
    1  A    between atoms: C_2  and  O_8
    2  A    between atoms: O_6  and  C_19
    3  A    between atoms: O_6  and  C_28
    4  A    between atoms: C_19  and  C_27
    5  A    between atoms: C_25  and  C_29
    6  A    between atoms: C_25  and  C_39
    7  A    between atoms: C_27  and  C_39
                            x       y       z     vdW  Elec       q    Type
                         _______ _______ _______ _____ _____    ______ ____

>  <TORSDO>
F 7

$$$$
=
 OpenBabel10232412113D

 39 44  0  0  1  0  0  0  0  0999 V2000
  188.7090  176.8500  138.5980 N   0  0  0  0  0  0  0  0  0  0  0  0
  183.7000  178.5960  142.2730 C   0  0  2  0  0  3  0  0  0  0  0  0
  182.9000  177.8910  136.5750 N   0  0  0  0  0  0  0  0  0  0  0  0
  184.8570  180.1970  143.7220 O   0  0  0  0  0  1  0  0  0  0  0  0
  180.1120  176.5310  138.4360 C   0  0  0  0  0  2  0  0  0  0  0  0
  182.6930  177.5990  140.1580 C   0  0  1  0  0  3  0  0  0  0  0  0
  180.9400  177.6380  137.8390 C   0  0  1  0  0  3  0  0  0  0  0  0
  189.1700  177.5450  142.6440 C   0  0  0  0  0  3  0  0  0  0  0  0
  186.3610  177.2130  137.1360 C   0  0  0  0  0  0  0  0  0  0  0  0
  187.5050  176.5250  136.5250 C   0  0  0  0  0  3  0  0  0  0  0  0
  185.2310  177.3490  136.4990 C   0  0  0  0  0  0  0  0  0  0  0  0
  182.3020  177.0630  137.6100 C   0  0  2  0  0  3  0  0  0  0  0  0
  187.7750  177.5740  139.1490 C   0  0  0  0  0  0  0  0  0  0  0  0
  188.0040  177.0990  143.4670 C   0  0  0  0  0  2  0  0  0  0  0  0
  183.1030  176.8400  138.9020 C   0  0  2  0  0  3  0  0  0  0  0  0
  187.8080  177.8840  140.5920 C   0  0  0  0  0  0  0  0  0  0  0  0
  184.1020  177.5480  135.8760 C   0  0  0  0  0  3  0  0  0  0  0  0
  182.2080  176.1690  139.9710 C   0  0  2  0  0  3  0  0  0  0  0  0
  183.8430  177.5650  141.1420 C   0  0  0  0  0  2  0  0  0  0  0  0
  188.6270  176.3800  137.2390 C   0  0  0  0  0  3  0  0  0  0  0  0
  184.9860  179.4070  142.5770 C   0  0  1  0  0  3  0  0  0  0  0  0
  186.9220  178.1380  143.5960 C   0  0  0  0  0  0  0  0  0  0  0  0
  186.6010  178.0660  138.3310 C   0  0  0  0  0  2  0  0  0  0  0  0
  181.8400  178.5690  135.8390 C   0  0  0  0  0  2  0  0  0  0  0  0
  186.6510  178.2690  141.1320 C   0  0  0  0  0  3  0  0  0  0  0  0
  180.5230  178.1130  136.4690 C   0  0  0  0  0  2  0  0  0  0  0  0
  180.6610  176.2410  139.8390 C   0  0  0  0  0  2  0  0  0  0  0  0
  189.0750  177.8390  141.3480 C   0  0  0  0  0  3  0  0  0  0  0  0
  186.2840  178.6240  142.5110 C   0  0  0  0  0  0  0  0  0  0  0  0
  183.0340  178.1000  143.4170 O   0  0  0  0  0  0  0  0  0  0  0  0
  181.8330  178.8040  143.5890 C   0  0  0  0  0  1  0  0  0  0  0  0
  186.5100  178.5350  144.8730 O   0  0  0  0  0  0  0  0  0  0  0  0
  186.3890  177.6290  145.9620 C   0  0  0  0  0  2  0  0  0  0  0  0
  187.2370  178.1100  147.1240 C   0  0  0  0  0  2  0  0  0  0  0  0
  188.4760  177.2460  147.2550 C   0  0  0  0  0  2  0  0  0  0  0  0
  189.5880  177.8220  146.4010 C   0  0  0  0  0  2  0  0  0  0  0  0
  190.7640  176.9120  146.4310 C   0  0  0  0  0  0  0  0  0  0  0  0
  191.0220  176.2500  147.4710 O   0  0  0  0  0  1  0  0  0  0  0  0
  191.5960  176.8150  145.3240 O   0  0  0  0  0  0  0  0  0  0  0  0
  1 13  2  0  0  0  0
  2 21  1  0  0  0  0
  2 30  1  1  0  0  0
  5 27  1  0  0  0  0
  6 19  1  1  0  0  0
  7 26  1  6  0  0  0
  7  5  1  0  0  0  0
  8 14  1  0  0  0  0
  9 23  1  0  0  0  0
 10  9  1  0  0  0  0
 10 20  2  0  0  0  0
 11  9  2  0  0  0  0
 12  3  1  6  0  0  0
 12  7  1  0  0  0  0
 12 15  1  0  0  0  0
 13 16  1  0  0  0  0
 14 22  1  0  0  0  0
 15 18  1  0  0  0  0
 15  6  1  0  0  0  0
 16 25  2  0  0  0  0
 16 28  1  0  0  0  0
 17 11  2  0  0  0  0
 17  3  1  0  0  0  0
 18  6  1  0  0  0  0
 19  2  1  0  0  0  0
 20  1  1  0  0  0  0
 21  4  1  0  0  0  0
 22 32  1  0  0  0  0
 23 13  1  0  0  0  0
 24 26  1  0  0  0  0
 24  3  1  0  0  0  0
 25 29  1  0  0  0  0
 27 18  1  0  0  0  0
 28  8  2  0  0  0  0
 29 21  1  0  0  0  0
 29 22  2  0  0  0  0
 30 31  1  0  0  0  0
 32 33  1  0  0  0  0
 33 34  1  0  0  0  0
 34 35  1  0  0  0  0
 36 37  1  0  0  0  0
 36 35  1  0  0  0  0
 37 38  1  0  0  0  0
 39 37  2  0  0  0  0
M  END
>  <MODEL>
3

>  <REMARK>
 VINA RESULT:      -7.5      1.854      5.129
  Name = 
  7 active torsions:
  status: ('A' for Active; 'I' for Inactive)
    1  A    between atoms: C_2  and  O_8
    2  A    between atoms: O_6  and  C_19
    3  A    between atoms: O_6  and  C_28
    4  A    between atoms: C_19  and  C_27
    5  A    between atoms: C_25  and  C_29
    6  A    between atoms: C_25  and  C_39
    7  A    between atoms: C_27  and  C_39
                            x       y       z     vdW  Elec       q    Type
                         _______ _______ _______ _____ _____    ______ ____

>  <TORSDO>
F 7

$$$$
=
 OpenBabel10232412113D

 39 44  0  0  1  0  0  0  0  0999 V2000
  187.7340  178.2570  136.4350 N   0  0  0  0  0  0  0  0  0  0  0  0
  182.5660  176.4980  139.8780 C   0  0  2  0  0  3  0  0  0  0  0  0
  187.5260  177.6660  142.6430 N   0  0  0  0  0  0  0  0  0  0  0  0
  181.7280  174.7380  138.3960 O   0  0  0  0  0  1  0  0  0  0  0  0
  184.7030  179.0230  144.4520 C   0  0  0  0  0  2  0  0  0  0  0  0
  184.1090  177.7000  141.5090 C   0  0  1  0  0  3  0  0  0  0  0  0
  185.6180  177.9230  143.9830 C   0  0  1  0  0  3  0  0  0  0  0  0
  184.1820  177.2400  134.5860 C   0  0  0  0  0  3  0  0  0  0  0  0
  188.2450  178.1240  139.1740 C   0  0  0  0  0  0  0  0  0  0  0  0
  189.1980  178.7960  138.2840 C   0  0  0  0  0  3  0  0  0  0  0  0
  188.4270  178.0940  140.4650 C   0  0  0  0  0  0  0  0  0  0  0  0
  186.3030  178.4440  142.7590 C   0  0  2  0  0  3  0  0  0  0  0  0
  186.9150  177.5430  137.1560 C   0  0  0  0  0  0  0  0  0  0  0  0
  182.9660  177.6820  135.3360 C   0  0  0  0  0  2  0  0  0  0  0  0
  185.3870  178.5290  141.5280 C   0  0  2  0  0  3  0  0  0  0  0  0
  185.6030  177.1250  136.6230 C   0  0  0  0  0  0  0  0  0  0  0  0
  188.6000  177.9990  141.7550 C   0  0  0  0  0  3  0  0  0  0  0  0
  184.0310  179.1630  141.9200 C   0  0  2  0  0  3  0  0  0  0  0  0
  183.6160  177.6030  140.0810 C   0  0  0  0  0  2  0  0  0  0  0  0
  188.9410  178.8310  136.9710 C   0  0  0  0  0  3  0  0  0  0  0  0
  182.7990  175.6030  138.6340 C   0  0  1  0  0  3  0  0  0  0  0  0
  182.5010  176.6930  136.3710 C   0  0  0  0  0  0  0  0  0  0  0  0
  187.2670  177.1730  138.5800 C   0  0  0  0  0  2  0  0  0  0  0  0
  187.8540  177.1000  143.9450 C   0  0  0  0  0  2  0  0  0  0  0  0
  184.6950  176.7600  137.5290 C   0  0  0  0  0  3  0  0  0  0  0  0
  186.7610  177.5730  144.9040 C   0  0  0  0  0  2  0  0  0  0  0  0
  183.5880  179.1790  143.4100 C   0  0  0  0  0  2  0  0  0  0  0  0
  185.3650  177.0490  135.1680 C   0  0  0  0  0  3  0  0  0  0  0  0
  183.2980  176.3220  137.3950 C   0  0  0  0  0  0  0  0  0  0  0  0
  181.2340  176.9410  140.0430 O   0  0  0  0  0  0  0  0  0  0  0  0
  181.1200  178.2440  139.5340 C   0  0  0  0  0  1  0  0  0  0  0  0
  181.1830  176.2230  136.3180 O   0  0  0  0  0  0  0  0  0  0  0  0
  180.6240  175.6190  135.1600 C   0  0  0  0  0  2  0  0  0  0  0  0
  180.7850  174.1130  135.2410 C   0  0  0  0  0  2  0  0  0  0  0  0
  182.1760  173.7130  134.7890 C   0  0  0  0  0  2  0  0  0  0  0  0
  182.7200  172.6400  135.7110 C   0  0  0  0  0  2  0  0  0  0  0  0
  184.0810  173.0220  136.1740 C   0  0  0  0  0  0  0  0  0  0  0  0
  184.8900  173.5610  135.3750 O   0  0  0  0  0  0  0  0  0  0  0  0
  184.4700  172.7550  137.4800 O   0  0  0  0  0  1  0  0  0  0  0  0
  1 20  1  0  0  0  0
  1 13  2  0  0  0  0
  2 30  1  6  0  0  0
  2 19  1  0  0  0  0
  3 24  1  0  0  0  0
  4 21  1  0  0  0  0
  6 19  1  6  0  0  0
  6 15  1  0  0  0  0
  6 18  1  0  0  0  0
  7  5  1  1  0  0  0
  7 26  1  0  0  0  0
  8 28  2  0  0  0  0
  8 14  1  0  0  0  0
  9 11  2  0  0  0  0
 10  9  1  0  0  0  0
 11 17  2  0  0  0  0
 12  3  1  6  0  0  0
 12  7  1  0  0  0  0
 13 23  1  0  0  0  0
 14 22  1  0  0  0  0
 15 18  1  0  0  0  0
 15 12  1  0  0  0  0
 16 13  1  0  0  0  0
 16 25  2  0  0  0  0
 17  3  1  0  0  0  0
 18 27  1  0  0  0  0
 20 10  2  0  0  0  0
 21  2  1  0  0  0  0
 22 29  2  0  0  0  0
 23  9  1  0  0  0  0
 24 26  1  0  0  0  0
 27  5  1  0  0  0  0
 28 16  1  0  0  0  0
 29 25  1  0  0  0  0
 29 21  1  0  0  0  0
 31 30  1  0  0  0  0
 32 22  1  0  0  0  0
 33 34  1  0  0  0  0
 33 32  1  0  0  0  0
 35 34  1  0  0  0  0
 35 36  1  0  0  0  0
 36 37  1  0  0  0  0
 37 39  1  0  0  0  0
 38 37  2  0  0  0  0
M  END
>  <MODEL>
4

>  <REMARK>
 VINA RESULT:      -7.5      4.190      8.967
  Name = 
  7 active torsions:
  status: ('A' for Active; 'I' for Inactive)
    1  A    between atoms: C_2  and  O_8
    2  A    between atoms: O_6  and  C_19
    3  A    between atoms: O_6  and  C_28
    4  A    between atoms: C_19  and  C_27
    5  A    between atoms: C_25  and  C_29
    6  A    between atoms: C_25  and  C_39
    7  A    between atoms: C_27  and  C_39
                            x       y       z     vdW  Elec       q    Type
                         _______ _______ _______ _____ _____    ______ ____

>  <TORSDO>
F 7

$$$$
=
 OpenBabel10232412113D

 39 44  0  0  1  0  0  0  0  0999 V2000
  183.4600  178.6700  142.7440 N   0  0  0  0  0  0  0  0  0  0  0  0
  189.2290  177.7420  140.0040 C   0  0  2  0  0  3  0  0  0  0  0  0
  188.8720  178.0300  145.7830 N   0  0  0  0  0  0  0  0  0  0  0  0
  188.9910  179.2970  138.1270 O   0  0  0  0  0  1  0  0  0  0  0  0
  191.1670  175.4230  144.7710 C   0  0  0  0  0  2  0  0  0  0  0  0
  189.4650  176.9300  142.4060 C   0  0  1  0  0  3  0  0  0  0  0  0
  190.7460  176.8490  145.0130 C   0  0  1  0  0  3  0  0  0  0  0  0
  183.8860  178.6050  138.6350 C   0  0  0  0  0  3  0  0  0  0  0  0
  185.5330  178.4950  144.6030 C   0  0  0  0  0  0  0  0  0  0  0  0
  184.1380  178.3950  145.0500 C   0  0  0  0  0  3  0  0  0  0  0  0
  186.5250  178.3610  145.4390 C   0  0  0  0  0  0  0  0  0  0  0  0
  189.2510  176.8460  145.0290 C   0  0  2  0  0  3  0  0  0  0  0  0
  184.6690  178.8890  142.3060 C   0  0  0  0  0  0  0  0  0  0  0  0
  184.8990  177.6180  138.1520 C   0  0  0  0  0  2  0  0  0  0  0  0
  188.6190  176.6460  143.6410 C   0  0  2  0  0  3  0  0  0  0  0  0
  184.9640  178.8770  140.8590 C   0  0  0  0  0  0  0  0  0  0  0  0
  187.5420  178.2830  146.2530 C   0  0  0  0  0  3  0  0  0  0  0  0
  189.3350  175.4950  142.8950 C   0  0  2  0  0  3  0  0  0  0  0  0
  188.5430  177.0900  141.2150 C   0  0  0  0  0  2  0  0  0  0  0  0
  183.1600  178.5010  144.1430 C   0  0  0  0  0  3  0  0  0  0  0  0
  188.4070  178.8650  139.3200 C   0  0  1  0  0  3  0  0  0  0  0  0
  186.3020  178.1630  138.1070 C   0  0  0  0  0  0  0  0  0  0  0  0
  185.8100  179.1040  143.2740 C   0  0  0  0  0  2  0  0  0  0  0  0
  189.9920  178.4360  146.6210 C   0  0  0  0  0  2  0  0  0  0  0  0
  186.2450  178.7110  140.5270 C   0  0  0  0  0  3  0  0  0  0  0  0
  191.1110  177.4280  146.3580 C   0  0  0  0  0  2  0  0  0  0  0  0
  190.7570  175.0510  143.3410 C   0  0  0  0  0  2  0  0  0  0  0  0
  183.8990  179.1160  139.8650 C   0  0  0  0  0  3  0  0  0  0  0  0
  186.9140  178.6150  139.2210 C   0  0  0  0  0  0  0  0  0  0  0  0
  189.8120  176.8140  139.1110 O   0  0  0  0  0  0  0  0  0  0  0  0
  191.2080  176.8660  139.2440 C   0  0  0  0  0  1  0  0  0  0  0  0
  187.0140  178.1100  136.9030 O   0  0  0  0  0  0  0  0  0  0  0  0
  186.9100  177.0250  135.9920 C   0  0  0  0  0  2  0  0  0  0  0  0
  187.9670  175.9850  136.3130 C   0  0  0  0  0  2  0  0  0  0  0  0
  187.3260  174.7800  136.9750 C   0  0  0  0  0  2  0  0  0  0  0  0
  185.9390  174.5670  136.4040 C   0  0  0  0  0  2  0  0  0  0  0  0
  185.0800  173.8960  137.4170 C   0  0  0  0  0  0  0  0  0  0  0  0
  183.9060  174.3060  137.6170 O   0  0  0  0  0  0  0  0  0  0  0  0
  185.5810  172.8380  138.1630 O   0  0  0  0  0  1  0  0  0  0  0  0
  1 20  1  0  0  0  0
  2 30  1  6  0  0  0
  2 19  1  0  0  0  0
  3 17  1  0  0  0  0
  3 24  1  0  0  0  0
  4 21  1  0  0  0  0
  6 19  1  6  0  0  0
  6 18  1  0  0  0  0
  6 15  1  0  0  0  0
  7  5  1  1  0  0  0
  7 12  1  0  0  0  0
  7 26  1  0  0  0  0
  8 28  2  0  0  0  0
  9 10  1  0  0  0  0
  9 11  2  0  0  0  0
 11 17  2  0  0  0  0
 12  3  1  6  0  0  0
 13  1  2  0  0  0  0
 13 23  1  0  0  0  0
 14  8  1  0  0  0  0
 15 12  1  0  0  0  0
 16 13  1  0  0  0  0
 18 27  1  0  0  0  0
 18 15  1  0  0  0  0
 20 10  2  0  0  0  0
 21  2  1  0  0  0  0
 22 14  1  0  0  0  0
 22 29  2  0  0  0  0
 23  9  1  0  0  0  0
 25 16  2  0  0  0  0
 26 24  1  0  0  0  0
 27  5  1  0  0  0  0
 28 16  1  0  0  0  0
 29 21  1  0  0  0  0
 29 25  1  0  0  0  0
 30 31  1  0  0  0  0
 32 22  1  0  0  0  0
 33 34  1  0  0  0  0
 33 32  1  0  0  0  0
 34 35  1  0  0  0  0
 36 35  1  0  0  0  0
 36 37  1  0  0  0  0
 37 38  2  0  0  0  0
 37 39  1  0  0  0  0
M  END
>  <MODEL>
5

>  <REMARK>
 VINA RESULT:      -7.2      2.998      7.616
  Name = 
  7 active torsions:
  status: ('A' for Active; 'I' for Inactive)
    1  A    between atoms: C_2  and  O_8
    2  A    between atoms: O_6  and  C_19
    3  A    between atoms: O_6  and  C_28
    4  A    between atoms: C_19  and  C_27
    5  A    between atoms: C_25  and  C_29
    6  A    between atoms: C_25  and  C_39
    7  A    between atoms: C_27  and  C_39
                            x       y       z     vdW  Elec       q    Type
                         _______ _______ _______ _____ _____    ______ ____

>  <TORSDO>
F 7

$$$$
=
 OpenBabel10232412113D

 39 44  0  0  1  0  0  0  0  0999 V2000
  183.4980  178.5840  142.6660 N   0  0  0  0  0  0  0  0  0  0  0  0
  189.2950  177.6940  139.9720 C   0  0  2  0  0  3  0  0  0  0  0  0
  188.8970  178.0380  145.7450 N   0  0  0  0  0  0  0  0  0  0  0  0
  189.0500  179.2270  138.0770 O   0  0  0  0  0  1  0  0  0  0  0  0
  191.2280  175.4480  144.7760 C   0  0  0  0  0  2  0  0  0  0  0  0
  189.5240  176.9100  142.3830 C   0  0  1  0  0  3  0  0  0  0  0  0
  190.7900  176.8710  145.0000 C   0  0  1  0  0  3  0  0  0  0  0  0
  183.9500  178.4810  138.5610 C   0  0  0  0  0  3  0  0  0  0  0  0
  185.5600  178.4530  144.5400 C   0  0  0  0  0  0  0  0  0  0  0  0
  184.1650  178.3410  144.9790 C   0  0  0  0  0  3  0  0  0  0  0  0
  186.5490  178.3390  145.3830 C   0  0  0  0  0  0  0  0  0  0  0  0
  189.2940  176.8510  145.0060 C   0  0  2  0  0  3  0  0  0  0  0  0
  184.7070  178.8120  142.2330 C   0  0  0  0  0  0  0  0  0  0  0  0
  184.9780  177.5000  138.0940 C   0  0  0  0  0  2  0  0  0  0  0  0
  188.6740  176.6290  143.6170 C   0  0  2  0  0  3  0  0  0  0  0  0
  185.0110  178.7880  140.7890 C   0  0  0  0  0  0  0  0  0  0  0  0
  187.5620  178.2810  146.2040 C   0  0  0  0  0  3  0  0  0  0  0  0
  189.4080  175.4790  142.8870 C   0  0  2  0  0  3  0  0  0  0  0  0
  188.6080  177.0470  141.1860 C   0  0  0  0  0  2  0  0  0  0  0  0
  183.1910  178.4260  144.0650 C   0  0  0  0  0  3  0  0  0  0  0  0
  188.4640  178.8000  139.2720 C   0  0  1  0  0  3  0  0  0  0  0  0
  186.3750  178.0610  138.0520 C   0  0  0  0  0  0  0  0  0  0  0  0
  185.8390  179.0510  143.2070 C   0  0  0  0  0  2  0  0  0  0  0  0
  190.0070  178.4660  146.5860 C   0  0  0  0  0  2  0  0  0  0  0  0
  186.2960  178.6340  140.4660 C   0  0  0  0  0  3  0  0  0  0  0  0
  191.1400  177.4690  146.3400 C   0  0  0  0  0  2  0  0  0  0  0  0
  190.8310  175.0560  143.3460 C   0  0  0  0  0  2  0  0  0  0  0  0
  183.9490  179.0050  139.7860 C   0  0  0  0  0  3  0  0  0  0  0  0
  186.9750  178.5320  139.1660 C   0  0  0  0  0  0  0  0  0  0  0  0
  189.8940  176.7640  139.0930 O   0  0  0  0  0  0  0  0  0  0  0  0
  191.2860  176.8140  139.2540 C   0  0  0  0  0  1  0  0  0  0  0  0
  187.0940  178.0040  136.8530 O   0  0  0  0  0  0  0  0  0  0  0  0
  186.5230  177.5600  135.6300 C   0  0  0  0  0  2  0  0  0  0  0  0
  187.0310  176.1680  135.3050 C   0  0  0  0  0  2  0  0  0  0  0  0
  188.3230  175.8980  136.0510 C   0  0  0  0  0  2  0  0  0  0  0  0
  188.1400  174.7010  136.9630 C   0  0  0  0  0  2  0  0  0  0  0  0
  189.2720  173.7530  136.7760 C   0  0  0  0  0  0  0  0  0  0  0  0
  190.3300  173.8970  137.4430 O   0  0  0  0  0  1  0  0  0  0  0  0
  189.1730  172.7280  135.8450 O   0  0  0  0  0  0  0  0  0  0  0  0
  1 20  1  0  0  0  0
  2 30  1  6  0  0  0
  2 19  1  0  0  0  0
  3 17  1  0  0  0  0
  3 24  1  0  0  0  0
  4 21  1  0  0  0  0
  6 19  1  6  0  0  0
  6 18  1  0  0  0  0
  6 15  1  0  0  0  0
  7  5  1  1  0  0  0
  7 12  1  0  0  0  0
  7 26  1  0  0  0  0
  8 28  2  0  0  0  0
  9 10  1  0  0  0  0
  9 11  2  0  0  0  0
 11 17  2  0  0  0  0
 12  3  1  6  0  0  0
 13  1  2  0  0  0  0
 13 23  1  0  0  0  0
 14  8  1  0  0  0  0
 15 12  1  0  0  0  0
 16 13  1  0  0  0  0
 18 27  1  0  0  0  0
 18 15  1  0  0  0  0
 20 10  2  0  0  0  0
 21  2  1  0  0  0  0
 22 14  1  0  0  0  0
 22 29  2  0  0  0  0
 23  9  1  0  0  0  0
 25 16  2  0  0  0  0
 26 24  1  0  0  0  0
 27  5  1  0  0  0  0
 28 16  1  0  0  0  0
 29 21  1  0  0  0  0
 29 25  1  0  0  0  0
 30 31  1  0  0  0  0
 32 22  1  0  0  0  0
 33 32  1  0  0  0  0
 34 33  1  0  0  0  0
 34 35  1  0  0  0  0
 35 36  1  0  0  0  0
 37 36  1  0  0  0  0
 37 38  1  0  0  0  0
 39 37  2  0  0  0  0
M  END
>  <MODEL>
6

>  <REMARK>
 VINA RESULT:      -7.0      2.987      7.550
  Name = 
  7 active torsions:
  status: ('A' for Active; 'I' for Inactive)
    1  A    between atoms: C_2  and  O_8
    2  A    between atoms: O_6  and  C_19
    3  A    between atoms: O_6  and  C_28
    4  A    between atoms: C_19  and  C_27
    5  A    between atoms: C_25  and  C_29
    6  A    between atoms: C_25  and  C_39
    7  A    between atoms: C_27  and  C_39
                            x       y       z     vdW  Elec       q    Type
                         _______ _______ _______ _____ _____    ______ ____

>  <TORSDO>
F 7

$$$$
=
 OpenBabel10232412113D

 39 44  0  0  1  0  0  0  0  0999 V2000
  185.9120  177.0530  137.2530 N   0  0  0  0  0  0  0  0  0  0  0  0
  190.4480  177.3290  141.8360 C   0  0  2  0  0  3  0  0  0  0  0  0
  185.1160  179.2660  143.0330 N   0  0  0  0  0  0  0  0  0  0  0  0
  192.3290  178.0440  140.4390 O   0  0  0  0  0  1  0  0  0  0  0  0
  186.4640  177.4130  145.8330 C   0  0  0  0  0  2  0  0  0  0  0  0
  188.2190  177.4370  143.0610 C   0  0  1  0  0  3  0  0  0  0  0  0
  186.3290  178.6120  144.9310 C   0  0  1  0  0  3  0  0  0  0  0  0
  189.7930  175.8590  136.4900 C   0  0  0  0  0  3  0  0  0  0  0  0
  184.9890  178.1800  139.6320 C   0  0  0  0  0  0  0  0  0  0  0  0
  184.0320  177.7580  138.6030 C   0  0  0  0  0  3  0  0  0  0  0  0
  184.5870  178.6580  140.7770 C   0  0  0  0  0  0  0  0  0  0  0  0
  185.7420  178.1080  143.6510 C   0  0  2  0  0  3  0  0  0  0  0  0
  186.8110  177.5210  138.0750 C   0  0  0  0  0  0  0  0  0  0  0  0
  190.4490  175.1750  137.6460 C   0  0  0  0  0  2  0  0  0  0  0  0
  186.7250  177.2840  142.8030 C   0  0  2  0  0  3  0  0  0  0  0  0
  188.2340  177.1590  137.9260 C   0  0  0  0  0  0  0  0  0  0  0  0
  184.2250  179.1870  141.9140 C   0  0  0  0  0  3  0  0  0  0  0  0
  187.4770  176.2720  143.7000 C   0  0  2  0  0  3  0  0  0  0  0  0
  188.9740  176.8950  141.8660 C   0  0  0  0  0  2  0  0  0  0  0  0
  184.4990  177.2380  137.4610 C   0  0  0  0  0  3  0  0  0  0  0  0
  190.9480  177.8350  140.4580 C   0  0  1  0  0  3  0  0  0  0  0  0
  191.1210  176.1200  138.6070 C   0  0  0  0  0  0  0  0  0  0  0  0
  186.4060  178.4000  139.2370 C   0  0  0  0  0  2  0  0  0  0  0  0
  184.8550  180.2670  144.0580 C   0  0  0  0  0  2  0  0  0  0  0  0
  188.9980  177.3420  139.0050 C   0  0  0  0  0  3  0  0  0  0  0  0
  185.3490  179.6690  145.3760 C   0  0  0  0  0  2  0  0  0  0  0  0
  187.5410  176.4980  145.2360 C   0  0  0  0  0  2  0  0  0  0  0  0
  188.7690  176.7000  136.6290 C   0  0  0  0  0  3  0  0  0  0  0  0
  190.4220  177.0760  139.2540 C   0  0  0  0  0  0  0  0  0  0  0  0
  191.3210  176.4250  142.4820 O   0  0  0  0  0  0  0  0  0  0  0  0
  191.6050  176.9040  143.7690 C   0  0  0  0  0  1  0  0  0  0  0  0
  192.4770  175.9390  138.9010 O   0  0  0  0  0  0  0  0  0  0  0  0
  193.5020  176.0460  137.9220 C   0  0  0  0  0  2  0  0  0  0  0  0
  194.1110  174.6800  137.6680 C   0  0  0  0  0  2  0  0  0  0  0  0
  195.2470  174.4280  138.6390 C   0  0  0  0  0  2  0  0  0  0  0  0
  196.4530  173.9070  137.8840 C   0  0  0  0  0  2  0  0  0  0  0  0
  197.4330  175.0090  137.6860 C   0  0  0  0  0  0  0  0  0  0  0  0
  197.5520  175.5510  136.5560 O   0  0  0  0  0  0  0  0  0  0  0  0
  198.2390  175.4200  138.7400 O   0  0  0  0  0  1  0  0  0  0  0  0
  1 20  1  0  0  0  0
  1 13  2  0  0  0  0
  2 19  1  0  0  0  0
  2 30  1  6  0  0  0
  3 24  1  0  0  0  0
  4 21  1  0  0  0  0
  6 19  1  6  0  0  0
  6 18  1  0  0  0  0
  7 26  1  1  0  0  0
  7  5  1  0  0  0  0
  8 28  2  0  0  0  0
  8 14  1  0  0  0  0
  9 11  2  0  0  0  0
 10  9  1  0  0  0  0
 11 17  2  0  0  0  0
 12  3  1  6  0  0  0
 12  7  1  0  0  0  0
 13 23  1  0  0  0  0
 14 22  1  0  0  0  0
 15  6  1  0  0  0  0
 15 12  1  0  0  0  0
 15 18  1  0  0  0  0
 16 13  1  0  0  0  0
 16 25  2  0  0  0  0
 17  3  1  0  0  0  0
 18 27  1  0  0  0  0
 20 10  2  0  0  0  0
 21  2  1  0  0  0  0
 22 32  1  0  0  0  0
 22 29  2  0  0  0  0
 23  9  1  0  0  0  0
 24 26  1  0  0  0  0
 25 29  1  0  0  0  0
 27  5  1  0  0  0  0
 28 16  1  0  0  0  0
 29 21  1  0  0  0  0
 30 31  1  0  0  0  0
 33 32  1  0  0  0  0
 34 33  1  0  0  0  0
 34 35  1  0  0  0  0
 36 35  1  0  0  0  0
 37 36  1  0  0  0  0
 37 39  1  0  0  0  0
 38 37  2  0  0  0  0
M  END
>  <MODEL>
7

>  <REMARK>
 VINA RESULT:      -6.8      3.719      7.634
  Name = 
  7 active torsions:
  status: ('A' for Active; 'I' for Inactive)
    1  A    between atoms: C_2  and  O_8
    2  A    between atoms: O_6  and  C_19
    3  A    between atoms: O_6  and  C_28
    4  A    between atoms: C_19  and  C_27
    5  A    between atoms: C_25  and  C_29
    6  A    between atoms: C_25  and  C_39
    7  A    between atoms: C_27  and  C_39
                            x       y       z     vdW  Elec       q    Type
                         _______ _______ _______ _____ _____    ______ ____

>  <TORSDO>
F 7

$$$$
=
 OpenBabel10232412113D

 39 44  0  0  1  0  0  0  0  0999 V2000
  188.2830  177.7310  142.7340 N   0  0  0  0  0  0  0  0  0  0  0  0
  184.0840  178.2860  137.8640 C   0  0  2  0  0  3  0  0  0  0  0  0
  189.6040  176.9590  136.6850 N   0  0  0  0  0  0  0  0  0  0  0  0
  182.8600  180.2500  138.6660 O   0  0  0  0  0  1  0  0  0  0  0  0
  187.3520  175.0210  134.6200 C   0  0  0  0  0  2  0  0  0  0  0  0
  186.0130  176.8910  136.9600 C   0  0  1  0  0  3  0  0  0  0  0  0
  188.0940  176.2660  135.0280 C   0  0  1  0  0  3  0  0  0  0  0  0
  184.3590  178.8300  143.4130 C   0  0  0  0  0  3  0  0  0  0  0  0
  189.4530  177.3150  140.2350 C   0  0  0  0  0  0  0  0  0  0  0  0
  190.1730  176.9290  141.4540 C   0  0  0  0  0  3  0  0  0  0  0  0
  189.9480  177.0820  139.0520 C   0  0  0  0  0  0  0  0  0  0  0  0
  188.4680  176.0780  136.4640 C   0  0  2  0  0  3  0  0  0  0  0  0
  187.6500  178.2050  141.6970 C   0  0  0  0  0  0  0  0  0  0  0  0
  183.3790  178.1400  142.5190 C   0  0  0  0  0  2  0  0  0  0  0  0
  187.2780  176.1840  137.4310 C   0  0  2  0  0  3  0  0  0  0  0  0
  186.2370  178.6200  141.7970 C   0  0  0  0  0  0  0  0  0  0  0  0
  190.4330  176.9120  137.8520 C   0  0  0  0  0  3  0  0  0  0  0  0
  186.0790  175.3730  136.8860 C   0  0  2  0  0  3  0  0  0  0  0  0
  185.1810  177.2530  138.1710 C   0  0  0  0  0  2  0  0  0  0  0  0
  189.6010  177.1560  142.6420 C   0  0  0  0  0  3  0  0  0  0  0  0
  183.9780  179.4430  138.8900 C   0  0  1  0  0  3  0  0  0  0  0  0
  183.1580  178.8440  141.2070 C   0  0  0  0  0  0  0  0  0  0  0  0
  188.3340  178.2890  140.3510 C   0  0  0  0  0  2  0  0  0  0  0  0
  190.2280  177.2570  135.4020 C   0  0  0  0  0  2  0  0  0  0  0  0
  185.5720  178.7080  140.6440 C   0  0  0  0  0  3  0  0  0  0  0  0
  189.4190  176.5020  134.3470 C   0  0  0  0  0  2  0  0  0  0  0  0
  186.0180  175.0020  135.3780 C   0  0  0  0  0  2  0  0  0  0  0  0
  185.6440  178.9870  143.0980 C   0  0  0  0  0  3  0  0  0  0  0  0
  184.1740  179.0490  140.3420 C   0  0  0  0  0  0  0  0  0  0  0  0
  182.8470  177.7120  137.4960 O   0  0  0  0  0  0  0  0  0  0  0  0
  182.7950  177.5940  136.0990 C   0  0  0  0  0  1  0  0  0  0  0  0
  181.8570  179.2050  140.8390 O   0  0  0  0  0  0  0  0  0  0  0  0
  180.7560  179.1430  141.7360 C   0  0  0  0  0  2  0  0  0  0  0  0
  180.1110  177.7720  141.6610 C   0  0  0  0  0  2  0  0  0  0  0  0
  179.9850  177.3350  140.2140 C   0  0  0  0  0  2  0  0  0  0  0  0
  180.0440  175.8230  140.1340 C   0  0  0  0  0  2  0  0  0  0  0  0
  181.1490  175.4120  139.2270 C   0  0  0  0  0  0  0  0  0  0  0  0
  180.8870  174.9110  138.1020 O   0  0  0  0  0  0  0  0  0  0  0  0
  182.4690  175.5530  139.6320 O   0  0  0  0  0  1  0  0  0  0  0  0
  2 30  1  1  0  0  0
  2 19  1  0  0  0  0
  2 21  1  0  0  0  0
  3 17  1  0  0  0  0
  4 21  1  0  0  0  0
  5  7  1  0  0  0  0
  5 27  1  0  0  0  0
  6 15  1  0  0  0  0
  6 19  1  1  0  0  0
  7 26  1  6  0  0  0
  7 12  1  0  0  0  0
  9 23  1  0  0  0  0
  9 10  1  0  0  0  0
 10 20  2  0  0  0  0
 11  9  2  0  0  0  0
 12  3  1  1  0  0  0
 12 15  1  0  0  0  0
 13 16  1  0  0  0  0
 13  1  2  0  0  0  0
 14  8  1  0  0  0  0
 16 28  1  0  0  0  0
 17 11  2  0  0  0  0
 18  6  1  0  0  0  0
 18 15  1  0  0  0  0
 20  1  1  0  0  0  0
 21 29  1  0  0  0  0
 22 14  1  0  0  0  0
 23 13  1  0  0  0  0
 24  3  1  0  0  0  0
 25 16  2  0  0  0  0
 26 24  1  0  0  0  0
 27 18  1  0  0  0  0
 28  8  2  0  0  0  0
 29 25  1  0  0  0  0
 29 22  2  0  0  0  0
 31 30  1  0  0  0  0
 32 22  1  0  0  0  0
 32 33  1  0  0  0  0
 34 33  1  0  0  0  0
 35 34  1  0  0  0  0
 36 35  1  0  0  0  0
 37 39  1  0  0  0  0
 37 36  1  0  0  0  0
 38 37  2  0  0  0  0
M  END
>  <MODEL>
8

>  <REMARK>
 VINA RESULT:      -6.7      4.186      6.972
  Name = 
  7 active torsions:
  status: ('A' for Active; 'I' for Inactive)
    1  A    between atoms: C_2  and  O_8
    2  A    between atoms: O_6  and  C_19
    3  A    between atoms: O_6  and  C_28
    4  A    between atoms: C_19  and  C_27
    5  A    between atoms: C_25  and  C_29
    6  A    between atoms: C_25  and  C_39
    7  A    between atoms: C_27  and  C_39
                            x       y       z     vdW  Elec       q    Type
                         _______ _______ _______ _____ _____    ______ ____

>  <TORSDO>
F 7

$$$$
=
 OpenBabel10232412113D

 39 44  0  0  1  0  0  0  0  0999 V2000
  187.6920  178.2910  141.2550 N   0  0  0  0  0  0  0  0  0  0  0  0
  187.0730  176.1380  135.2020 C   0  0  2  0  0  3  0  0  0  0  0  0
  192.3090  176.0750  137.6910 N   0  0  0  0  0  0  0  0  0  0  0  0
  185.5190  177.8390  134.3720 O   0  0  0  0  0  1  0  0  0  0  0  0
  191.7660  173.0540  135.7760 C   0  0  0  0  0  2  0  0  0  0  0  0
  189.2320  175.1160  136.0840 C   0  0  1  0  0  3  0  0  0  0  0  0
  192.0730  174.5180  135.9520 C   0  0  1  0  0  3  0  0  0  0  0  0
  184.0530  178.4280  139.3020 C   0  0  0  0  0  3  0  0  0  0  0  0
  190.1110  177.4580  140.1430 C   0  0  0  0  0  0  0  0  0  0  0  0
  190.0090  177.6820  141.5900 C   0  0  0  0  0  3  0  0  0  0  0  0
  191.2110  177.0150  139.6010 C   0  0  0  0  0  0  0  0  0  0  0  0
  191.5550  174.8930  137.3040 C   0  0  2  0  0  3  0  0  0  0  0  0
  187.7550  178.2290  139.9540 C   0  0  0  0  0  0  0  0  0  0  0  0
  183.8070  177.2550  138.4090 C   0  0  0  0  0  2  0  0  0  0  0  0
  190.0210  174.9640  137.3790 C   0  0  2  0  0  3  0  0  0  0  0  0
  186.5280  178.2500  139.1340 C   0  0  0  0  0  0  0  0  0  0  0  0
  192.3090  176.6210  139.0150 C   0  0  0  0  0  3  0  0  0  0  0  0
  189.4000  173.7290  136.6850 C   0  0  2  0  0  3  0  0  0  0  0  0
  187.8350  175.5930  136.4210 C   0  0  0  0  0  2  0  0  0  0  0  0
  188.8430  178.1000  142.0980 C   0  0  0  0  0  3  0  0  0  0  0  0
  186.3370  177.4810  135.4460 C   0  0  1  0  0  3  0  0  0  0  0  0
  184.3550  177.4280  137.0170 C   0  0  0  0  0  0  0  0  0  0  0  0
  189.0880  178.0740  139.2560 C   0  0  0  0  0  2  0  0  0  0  0  0
  193.5460  176.1200  136.9230 C   0  0  0  0  0  2  0  0  0  0  0  0
  186.6510  177.7910  137.8870 C   0  0  0  0  0  3  0  0  0  0  0  0
  193.5360  174.8840  136.0230 C   0  0  0  0  0  2  0  0  0  0  0  0
  190.2430  172.9070  135.6700 C   0  0  0  0  0  2  0  0  0  0  0  0
  185.2740  178.8250  139.6590 C   0  0  0  0  0  3  0  0  0  0  0  0
  185.6730  177.6260  136.8020 C   0  0  0  0  0  0  0  0  0  0  0  0
  186.3070  175.1620  134.5260 O   0  0  0  0  0  0  0  0  0  0  0  0
  185.8020  174.2470  135.4620 C   0  0  0  0  0  1  0  0  0  0  0  0
  183.4920  177.2870  135.9240 O   0  0  0  0  0  0  0  0  0  0  0  0
  182.0790  177.2310  136.0580 C   0  0  0  0  0  2  0  0  0  0  0  0
  181.4780  178.5790  135.7080 C   0  0  0  0  0  2  0  0  0  0  0  0
  181.1580  179.3500  136.9740 C   0  0  0  0  0  2  0  0  0  0  0  0
  180.7290  180.7580  136.6160 C   0  0  0  0  0  2  0  0  0  0  0  0
  181.1080  181.6910  137.7110 C   0  0  0  0  0  0  0  0  0  0  0  0
  182.0710  181.4110  138.4710 O   0  0  0  0  0  1  0  0  0  0  0  0
  180.3800  182.8550  137.9150 O   0  0  0  0  0  0  0  0  0  0  0  0
  1 20  1  0  0  0  0
  2 30  1  1  0  0  0
  2 21  1  0  0  0  0
  2 19  1  0  0  0  0
  3 17  1  0  0  0  0
  4 21  1  0  0  0  0
  6 19  1  1  0  0  0
  6 18  1  0  0  0  0
  6 15  1  0  0  0  0
  7  5  1  1  0  0  0
  7 26  1  0  0  0  0
  7 12  1  0  0  0  0
  8 28  2  0  0  0  0
  9 10  1  0  0  0  0
 10 20  2  0  0  0  0
 11  9  2  0  0  0  0
 12 15  1  0  0  0  0
 12  3  1  6  0  0  0
 13  1  2  0  0  0  0
 14  8  1  0  0  0  0
 16 28  1  0  0  0  0
 16 13  1  0  0  0  0
 17 11  2  0  0  0  0
 18 15  1  0  0  0  0
 21 29  1  0  0  0  0
 22 14  1  0  0  0  0
 23 13  1  0  0  0  0
 23  9  1  0  0  0  0
 24  3  1  0  0  0  0
 25 16  2  0  0  0  0
 26 24  1  0  0  0  0
 27  5  1  0  0  0  0
 27 18  1  0  0  0  0
 29 22  2  0  0  0  0
 29 25  1  0  0  0  0
 30 31  1  0  0  0  0
 32 33  1  0  0  0  0
 32 22  1  0  0  0  0
 34 33  1  0  0  0  0
 34 35  1  0  0  0  0
 36 35  1  0  0  0  0
 36 37  1  0  0  0  0
 37 39  2  0  0  0  0
 37 38  1  0  0  0  0
M  END
>  <MODEL>
9

>  <REMARK>
 VINA RESULT:      -6.4      5.106      8.535
  Name = 
  7 active torsions:
  status: ('A' for Active; 'I' for Inactive)
    1  A    between atoms: C_2  and  O_8
    2  A    between atoms: O_6  and  C_19
    3  A    between atoms: O_6  and  C_28
    4  A    between atoms: C_19  and  C_27
    5  A    between atoms: C_25  and  C_29
    6  A    between atoms: C_25  and  C_39
    7  A    between atoms: C_27  and  C_39
                            x       y       z     vdW  Elec       q    Type
                         _______ _______ _______ _____ _____    ______ ____

>  <TORSDO>
F 7

$$$$
