=
 OpenBabel10232411303D

 54 59  0  0  1  0  0  0  0  0999 V2000
  188.4600  179.7630  141.3570 C   0  0  0  0  0  1  0  0  0  0  0  0
  187.3540  178.1780  142.8200 N   0  0  0  0  0  0  0  0  0  0  0  0
  188.2710  177.1870  143.3880 C   0  0  1  0  0  3  0  0  0  0  0  0
  189.2810  176.7720  142.3280 C   0  0  1  0  0  3  0  0  0  0  0  0
  189.4140  175.2610  142.3200 C   0  0  0  0  0  1  0  0  0  0  0  0
  188.6710  177.2440  141.0350 C   0  0  1  0  0  3  0  0  0  0  0  0
  187.7710  178.4060  141.4390 C   0  0  2  0  0  3  0  0  0  0  0  0
  191.9100  176.6870  147.8430 C   0  0  0  0  0  0  0  0  0  0  0  0
  192.0840  176.9670  146.6050 N   0  0  0  0  0  0  0  0  0  0  0  0
  188.9260  177.7130  144.6670 C   0  0  2  0  0  3  0  0  0  0  0  0
  190.6880  177.1490  148.3580 N   0  0  0  0  0  2  0  0  0  0  0  0
  192.8480  175.9400  148.6050 N   0  0  0  0  0  1  0  0  0  0  0  0
  188.7680  176.9870  147.1030 C   0  0  0  0  0  2  0  0  0  0  0  0
  190.3330  177.1450  144.8910 C   0  0  0  0  0  2  0  0  0  0  0  0
  190.9220  177.7330  146.1790 C   0  0  1  0  0  3  0  0  0  0  0  0
  189.9760  177.7860  147.3330 N   0  0  2  0  0  0  0  0  0  0  0  0
  188.0070  177.4970  145.8790 C   0  0  0  0  0  2  0  0  0  0  0  0
  191.0210  177.4670  140.4460 O   0  0  0  0  0  1  0  0  0  0  0  0
  189.7170  177.5560  139.9450 C   0  0  1  0  0  3  0  0  0  0  0  0
  189.5660  176.7620  138.7800 O   0  0  0  0  0  0  0  0  0  0  0  0
  189.8510  177.5430  137.6520 C   0  0  0  0  0  2  0  0  0  0  0  0
  188.9220  177.1770  136.5110 C   0  0  0  0  0  2  0  0  0  0  0  0
  187.6250  176.7560  137.0230 N   0  0  0  0  0  0  0  0  0  0  0  0
  185.4990  177.3550  137.7940 O   0  0  0  0  0  1  0  0  0  0  0  0
  186.6430  177.7320  137.4280 C   0  0  0  0  0  0  0  0  0  0  0  0
  186.9380  179.0920  137.4140 O   0  0  0  0  0  0  0  0  0  0  0  0
  187.3090  175.3400  137.1020 C   0  0  0  0  0  2  0  0  0  0  0  0
  188.6840  173.4100  136.0790 C   0  0  2  0  0  3  0  0  0  0  0  0
  187.7360  174.5780  135.8380 C   0  0  1  0  0  3  0  0  0  0  0  0
  186.5130  173.9320  135.2330 C   0  0  0  0  0  2  0  0  0  0  0  0
  186.1740  172.7450  136.0160 N   0  0  0  0  0  0  0  0  0  0  0  0
  187.6890  171.9560  136.5210 S   0  0  0  0  0  0  0  0  0  0  0  0
  190.9760  174.1230  136.7660 C   0  0  0  0  0  0  0  0  0  0  0  0
  189.7650  173.6670  137.0830 C   0  0  0  0  0  3  0  0  0  0  0  0
  192.9240  175.2900  137.7520 C   0  0  0  0  0  1  0  0  0  0  0  0
  191.9020  174.2950  137.7940 O   0  0  0  0  0  0  0  0  0  0  0  0
  192.1180  173.3930  134.8240 O   0  0  0  0  0  1  0  0  0  0  0  0
  191.3380  174.4260  135.3430 C   0  0  0  0  0  2  0  0  0  0  0  0
  185.4850  171.8260  135.1220 C   0  0  0  0  0  2  0  0  0  0  0  0
  183.9730  172.0400  137.0830 C   0  0  0  0  0  1  0  0  0  0  0  0
  183.9210  169.9900  135.6960 C   0  0  0  0  0  1  0  0  0  0  0  0
  184.1100  171.4970  135.6740 C   0  0  0  0  0  3  0  0  0  0  0  0
  186.1360  177.5880  142.7690 O   0  0  0  0  0  0  0  0  0  0  0  0
  183.8250  178.0770  142.5490 C   0  0  1  0  0  3  0  0  0  0  0  0
  185.2230  178.6420  142.7020 C   0  0  1  0  0  3  0  0  0  0  0  0
  184.3070  178.5750  143.9090 C   0  0  1  0  0  3  0  0  0  0  0  0
  183.8160  179.8510  144.1970 O   0  0  0  0  0  1  0  0  0  0  0  0
  182.9900  179.0360  141.9080 O   0  0  0  0  0  0  0  0  0  0  0  0
  182.1080  178.7570  140.8500 C   0  0  0  0  0  0  0  0  0  0  0  0
  180.8990  178.4260  141.1510 N   0  0  0  0  0  2  0  0  0  0  0  0
  183.4680  179.8770  138.9630 C   0  0  0  0  0  2  0  0  0  0  0  0
  182.5650  177.6430  138.6650 F   0  0  0  0  0  0  0  0  0  0  0  0
  181.9980  180.0040  138.5750 C   0  0  0  0  0  2  0  0  0  0  0  0
  182.4760  178.8220  139.3840 C   0  0  0  0  0  0  0  0  0  0  0  0
  3  2  1  6  0  0  0
  3 10  1  0  0  0  0
  4  5  1  6  0  0  0
  4  3  1  0  0  0  0
  6 19  1  6  0  0  0
  6  7  1  0  0  0  0
  6  4  1  0  0  0  0
  7  1  1  1  0  0  0
  7  2  1  0  0  0  0
  8 11  1  0  0  0  0
  8 12  1  0  0  0  0
  9  8  2  0  0  0  0
 10 14  1  1  0  0  0
 10 17  1  0  0  0  0
 15 14  1  6  0  0  0
 15  9  1  0  0  0  0
 15 16  1  0  0  0  0
 16 13  1  6  0  0  0
 16 11  1  0  0  0  0
 17 13  1  0  0  0  0
 19 18  1  1  0  0  0
 20 19  1  0  0  0  0
 21 20  1  0  0  0  0
 22 23  1  0  0  0  0
 22 21  1  0  0  0  0
 23 27  1  0  0  0  0
 23 25  1  0  0  0  0
 25 24  1  0  0  0  0
 26 25  2  0  0  0  0
 28 32  1  0  0  0  0
 28 34  1  1  0  0  0
 29 28  1  0  0  0  0
 29 27  1  1  0  0  0
 30 29  1  0  0  0  0
 30 31  1  0  0  0  0
 31 32  1  0  0  0  0
 33 34  2  0  0  0  0
 33 36  1  0  0  0  0
 35 36  1  0  0  0  0
 37 38  1  0  0  0  0
 38 33  1  0  0  0  0
 39 42  1  0  0  0  0
 39 31  1  0  0  0  0
 42 41  1  0  0  0  0
 42 40  1  0  0  0  0
 43  2  1  0  0  0  0
 44 48  1  6  0  0  0
 44 45  1  0  0  0  0
 44 46  1  0  0  0  0
 45 43  1  1  0  0  0
 45 46  1  0  0  0  0
 46 47  1  6  0  0  0
 49 50  2  0  0  0  0
 49 48  1  0  0  0  0
 51 54  1  0  0  0  0
 52 54  1  0  0  0  0
 53 51  1  0  0  0  0
 53 54  1  0  0  0  0
 54 49  1  0  0  0  0
M  END
>  <MODEL>
1

>  <REMARK>
 VINA RESULT:      -5.6      0.000      0.000
  Name = 
  18 active torsions:
  status: ('A' for Active; 'I' for Inactive)
    1  A    between atoms: C_1  and  O_47
    2  A    between atoms: C_1  and  C_51
    3  A    between atoms: C_2  and  O_5
    4  A    between atoms: C_2  and  C_40
    5  A    between atoms: N_4  and  O_28
    6  A    between atoms: O_5  and  C_31
    7  A    between atoms: C_8  and  N_15
    8  A    between atoms: C_8  and  C_18
    9  A    between atoms: C_9  and  O_32
   10  A    between atoms: C_10  and  N_33
   11  A    between atoms: C_10  and  C_50
   12  A    between atoms: C_13  and  C_20
   13  A    between atoms: C_14  and  C_17
   14  A    between atoms: N_15  and  C_40
   15  A    between atoms: C_19  and  O_28
   16  A    between atoms: C_27  and  C_31
   17  A    between atoms: O_32  and  C_34
   18  A    between atoms: C_34  and  C_54
                            x       y       z     vdW  Elec       q    Type
                         _______ _______ _______ _____ _____    ______ ____

>  <TORSDO>
F 18

$$$$
=
 OpenBabel10232411303D

 54 59  0  0  1  0  0  0  0  0999 V2000
  189.2530  175.2440  138.1440 C   0  0  0  0  0  1  0  0  0  0  0  0
  189.2740  174.7030  135.7810 N   0  0  0  0  0  0  0  0  0  0  0  0
  190.0620  175.6460  134.9840 C   0  0  1  0  0  3  0  0  0  0  0  0
  189.8390  177.0570  135.5100 C   0  0  1  0  0  3  0  0  0  0  0  0
  189.5870  177.9960  134.3470 C   0  0  0  0  0  1  0  0  0  0  0  0
  188.5990  176.9410  136.3580 C   0  0  1  0  0  3  0  0  0  0  0  0
  188.5750  175.4820  136.8000 C   0  0  2  0  0  3  0  0  0  0  0  0
  194.4030  172.0550  136.2470 C   0  0  0  0  0  0  0  0  0  0  0  0
  193.4820  172.0270  135.3570 N   0  0  0  0  0  0  0  0  0  0  0  0
  191.5380  175.2430  134.9560 C   0  0  2  0  0  3  0  0  0  0  0  0
  194.8330  173.3520  136.5720 N   0  0  0  0  0  2  0  0  0  0  0  0
  194.9060  170.8840  136.8760 N   0  0  0  0  0  1  0  0  0  0  0  0
  193.3060  175.0590  136.7790 C   0  0  0  0  0  2  0  0  0  0  0  0
  191.7400  173.7240  135.0090 C   0  0  0  0  0  2  0  0  0  0  0  0
  193.2390  173.4060  134.9590 C   0  0  1  0  0  3  0  0  0  0  0  0
  194.0930  174.2750  135.8220 N   0  0  2  0  0  0  0  0  0  0  0  0
  192.3260  175.9780  136.0510 C   0  0  0  0  0  2  0  0  0  0  0  0
  188.4840  179.2880  136.9870 O   0  0  0  0  0  1  0  0  0  0  0  0
  188.5370  177.9840  137.4930 C   0  0  1  0  0  3  0  0  0  0  0  0
  187.4790  177.7510  138.4080 O   0  0  0  0  0  0  0  0  0  0  0  0
  187.8590  178.2150  139.6750 C   0  0  0  0  0  2  0  0  0  0  0  0
  189.3650  178.3720  139.7480 C   0  0  0  0  0  2  0  0  0  0  0  0
  189.9070  177.5950  140.8560 N   0  0  0  0  0  0  0  0  0  0  0  0
  191.7800  176.6760  141.9140 O   0  0  0  0  0  1  0  0  0  0  0  0
  191.3130  177.2800  140.9120 C   0  0  0  0  0  0  0  0  0  0  0  0
  192.1700  177.6390  139.8760 O   0  0  0  0  0  0  0  0  0  0  0  0
  189.0260  177.1580  141.9250 C   0  0  0  0  0  2  0  0  0  0  0  0
  187.4970  178.1100  143.7730 C   0  0  2  0  0  3  0  0  0  0  0  0
  188.7780  178.2620  142.9630 C   0  0  1  0  0  3  0  0  0  0  0  0
  189.8730  178.1990  144.0010 C   0  0  0  0  0  2  0  0  0  0  0  0
  189.5990  177.0810  144.9020 N   0  0  0  0  0  0  0  0  0  0  0  0
  187.8390  176.9920  145.1650 S   0  0  0  0  0  0  0  0  0  0  0  0
  185.1510  178.3440  142.9520 C   0  0  0  0  0  0  0  0  0  0  0  0
  186.2990  177.6690  142.9910 C   0  0  0  0  0  3  0  0  0  0  0  0
  183.7170  178.3340  140.9340 C   0  0  0  0  0  1  0  0  0  0  0  0
  184.1020  177.8100  142.2040 O   0  0  0  0  0  0  0  0  0  0  0  0
  183.8750  179.5470  144.5440 O   0  0  0  0  0  1  0  0  0  0  0  0
  184.9870  179.6300  143.7050 C   0  0  0  0  0  2  0  0  0  0  0  0
  190.2110  177.4060  146.1830 C   0  0  0  0  0  2  0  0  0  0  0  0
  191.6720  175.5780  145.3450 C   0  0  0  0  0  1  0  0  0  0  0  0
  191.8340  176.3130  147.7040 C   0  0  0  0  0  1  0  0  0  0  0  0
  191.5860  176.7710  146.2770 C   0  0  0  0  0  3  0  0  0  0  0  0
  188.3250  174.2010  134.9530 O   0  0  0  0  0  0  0  0  0  0  0  0
  186.6220  172.5550  134.8320 C   0  0  1  0  0  3  0  0  0  0  0  0
  187.7170  173.1750  135.6770 C   0  0  1  0  0  3  0  0  0  0  0  0
  187.9720  171.8580  134.9700 C   0  0  1  0  0  3  0  0  0  0  0  0
  187.9220  170.8110  135.8950 O   0  0  0  0  0  1  0  0  0  0  0  0
  185.6400  171.9670  135.6790 O   0  0  0  0  0  0  0  0  0  0  0  0
  184.5610  172.6530  136.2610 C   0  0  0  0  0  0  0  0  0  0  0  0
  183.7070  171.9620  136.9350 N   0  0  0  0  0  2  0  0  0  0  0  0
  184.9280  175.0160  137.2340 C   0  0  0  0  0  2  0  0  0  0  0  0
  184.3150  174.7310  134.9020 F   0  0  0  0  0  0  0  0  0  0  0  0
  183.4180  174.8050  137.1600 C   0  0  0  0  0  2  0  0  0  0  0  0
  184.3330  174.1450  136.1560 C   0  0  0  0  0  0  0  0  0  0  0  0
  2  7  1  0  0  0  0
  3  4  1  0  0  0  0
  3  2  1  1  0  0  0
  4  5  1  6  0  0  0
  4  6  1  0  0  0  0
  6  7  1  0  0  0  0
  6 19  1  1  0  0  0
  7  1  1  1  0  0  0
  8 11  1  0  0  0  0
  8 12  1  0  0  0  0
  9  8  2  0  0  0  0
 10  3  1  0  0  0  0
 10 14  1  1  0  0  0
 10 17  1  0  0  0  0
 15 14  1  1  0  0  0
 15  9  1  0  0  0  0
 15 16  1  0  0  0  0
 16 11  1  0  0  0  0
 16 13  1  1  0  0  0
 17 13  1  0  0  0  0
 19 18  1  6  0  0  0
 19 20  1  0  0  0  0
 20 21  1  0  0  0  0
 21 22  1  0  0  0  0
 22 23  1  0  0  0  0
 23 25  1  0  0  0  0
 23 27  1  0  0  0  0
 25 24  1  0  0  0  0
 26 25  2  0  0  0  0
 28 34  1  6  0  0  0
 28 32  1  0  0  0  0
 29 27  1  6  0  0  0
 29 28  1  0  0  0  0
 29 30  1  0  0  0  0
 30 31  1  0  0  0  0
 31 32  1  0  0  0  0
 31 39  1  0  0  0  0
 33 34  2  0  0  0  0
 33 38  1  0  0  0  0
 35 36  1  0  0  0  0
 36 33  1  0  0  0  0
 38 37  1  0  0  0  0
 39 42  1  0  0  0  0
 40 42  1  0  0  0  0
 42 41  1  0  0  0  0
 43  2  1  0  0  0  0
 44 46  1  0  0  0  0
 44 45  1  0  0  0  0
 44 48  1  1  0  0  0
 45 43  1  6  0  0  0
 46 45  1  0  0  0  0
 46 47  1  1  0  0  0
 48 49  1  0  0  0  0
 49 50  2  0  0  0  0
 52 54  1  0  0  0  0
 53 51  1  0  0  0  0
 54 49  1  0  0  0  0
 54 53  1  0  0  0  0
 54 51  1  0  0  0  0
M  END
>  <MODEL>
2

>  <REMARK>
 VINA RESULT:      -5.3      3.314      9.460
  Name = 
  18 active torsions:
  status: ('A' for Active; 'I' for Inactive)
    1  A    between atoms: C_1  and  O_47
    2  A    between atoms: C_1  and  C_51
    3  A    between atoms: C_2  and  O_5
    4  A    between atoms: C_2  and  C_40
    5  A    between atoms: N_4  and  O_28
    6  A    between atoms: O_5  and  C_31
    7  A    between atoms: C_8  and  N_15
    8  A    between atoms: C_8  and  C_18
    9  A    between atoms: C_9  and  O_32
   10  A    between atoms: C_10  and  N_33
   11  A    between atoms: C_10  and  C_50
   12  A    between atoms: C_13  and  C_20
   13  A    between atoms: C_14  and  C_17
   14  A    between atoms: N_15  and  C_40
   15  A    between atoms: C_19  and  O_28
   16  A    between atoms: C_27  and  C_31
   17  A    between atoms: O_32  and  C_34
   18  A    between atoms: C_34  and  C_54
                            x       y       z     vdW  Elec       q    Type
                         _______ _______ _______ _____ _____    ______ ____

>  <TORSDO>
F 18

$$$$
=
 OpenBabel10232411303D

 54 59  0  0  1  0  0  0  0  0999 V2000
  189.9090  174.0470  137.2530 C   0  0  0  0  0  1  0  0  0  0  0  0
  191.5060  175.8070  137.7300 N   0  0  0  0  0  0  0  0  0  0  0  0
  190.9450  176.8810  138.5510 C   0  0  1  0  0  3  0  0  0  0  0  0
  189.5150  177.1570  138.1100 C   0  0  1  0  0  3  0  0  0  0  0  0
  189.3060  178.6530  137.9750 C   0  0  0  0  0  1  0  0  0  0  0  0
  189.4140  176.4980  136.7600 C   0  0  1  0  0  3  0  0  0  0  0  0
  190.4620  175.3910  136.7960 C   0  0  2  0  0  3  0  0  0  0  0  0
  189.1800  177.3150  144.0310 C   0  0  0  0  0  0  0  0  0  0  0  0
  188.7470  176.6450  143.0290 N   0  0  0  0  0  0  0  0  0  0  0  0
  191.0600  176.5520  140.0410 C   0  0  2  0  0  3  0  0  0  0  0  0
  190.5730  177.4930  144.0320 N   0  0  0  0  0  2  0  0  0  0  0  0
  188.3210  177.8640  145.0220 N   0  0  0  0  0  1  0  0  0  0  0  0
  191.6800  177.9600  142.0710 C   0  0  0  0  0  2  0  0  0  0  0  0
  189.7120  176.6170  140.7700 C   0  0  0  0  0  2  0  0  0  0  0  0
  189.9120  176.2580  142.2470 C   0  0  1  0  0  3  0  0  0  0  0  0
  191.1060  176.8860  142.8880 N   0  0  2  0  0  0  0  0  0  0  0  0
  192.1310  177.4250  140.7120 C   0  0  0  0  0  2  0  0  0  0  0  0
  187.3450  175.4530  137.5010 O   0  0  0  0  0  1  0  0  0  0  0  0
  187.9810  176.0490  136.4060 C   0  0  1  0  0  3  0  0  0  0  0  0
  187.1870  177.0910  135.8630 O   0  0  0  0  0  0  0  0  0  0  0  0
  186.0090  176.5430  135.3370 C   0  0  0  0  0  2  0  0  0  0  0  0
  184.8140  177.3880  135.7340 C   0  0  0  0  0  2  0  0  0  0  0  0
  184.5370  177.2450  137.1570 N   0  0  0  0  0  0  0  0  0  0  0  0
  184.8170  178.0620  139.3310 O   0  0  0  0  0  1  0  0  0  0  0  0
  185.1270  178.1500  138.1140 C   0  0  0  0  0  0  0  0  0  0  0  0
  186.0320  179.1270  137.7120 O   0  0  0  0  0  0  0  0  0  0  0  0
  183.6390  176.1970  137.6130 C   0  0  0  0  0  2  0  0  0  0  0  0
  181.2890  175.1820  137.2900 C   0  0  2  0  0  3  0  0  0  0  0  0
  182.2180  176.3660  137.0550 C   0  0  1  0  0  3  0  0  0  0  0  0
  181.5480  177.5040  137.7870 C   0  0  0  0  0  2  0  0  0  0  0  0
  181.1360  177.0320  139.1070 N   0  0  0  0  0  0  0  0  0  0  0  0
  180.5680  175.3500  138.9490 S   0  0  0  0  0  0  0  0  0  0  0  0
  181.4150  172.9020  136.2810 C   0  0  0  0  0  0  0  0  0  0  0  0
  181.9130  173.8360  137.0900 C   0  0  0  0  0  3  0  0  0  0  0  0
  183.2430  171.3840  136.9780 C   0  0  0  0  0  1  0  0  0  0  0  0
  182.0800  171.6790  136.2050 O   0  0  0  0  0  0  0  0  0  0  0  0
  180.4380  174.0540  134.4570 O   0  0  0  0  0  1  0  0  0  0  0  0
  180.1680  173.1540  135.4880 C   0  0  0  0  0  2  0  0  0  0  0  0
  179.9920  177.8370  139.5110 C   0  0  0  0  0  2  0  0  0  0  0  0
  180.3670  180.1510  140.3360 C   0  0  0  0  0  1  0  0  0  0  0  0
  181.7270  178.2830  141.2240 C   0  0  0  0  0  1  0  0  0  0  0  0
  180.3520  178.6840  140.7170 C   0  0  0  0  0  3  0  0  0  0  0  0
  192.4940  176.3660  136.9890 O   0  0  0  0  0  0  0  0  0  0  0  0
  194.6450  175.3760  137.1350 C   0  0  1  0  0  3  0  0  0  0  0  0
  193.2570  175.2910  136.5300 C   0  0  1  0  0  3  0  0  0  0  0  0
  193.6160  174.4060  137.7080 C   0  0  1  0  0  3  0  0  0  0  0  0
  193.8330  173.0990  137.2650 O   0  0  0  0  0  1  0  0  0  0  0  0
  195.5760  174.7110  136.2890 O   0  0  0  0  0  0  0  0  0  0  0  0
  196.9270  175.0650  136.1410 C   0  0  0  0  0  0  0  0  0  0  0  0
  197.2120  176.3200  136.0710 N   0  0  0  0  0  2  0  0  0  0  0  0
  197.7660  172.6350  136.3740 C   0  0  0  0  0  2  0  0  0  0  0  0
  199.0380  174.2530  135.0860 F   0  0  0  0  0  0  0  0  0  0  0  0
  198.5910  173.4750  137.3450 C   0  0  0  0  0  2  0  0  0  0  0  0
  198.0720  174.0780  136.0610 C   0  0  0  0  0  0  0  0  0  0  0  0
  3  2  1  6  0  0  0
  3 10  1  0  0  0  0
  4  5  1  6  0  0  0
  4  3  1  0  0  0  0
  6 19  1  1  0  0  0
  6  7  1  0  0  0  0
  6  4  1  0  0  0  0
  7  1  1  1  0  0  0
  7  2  1  0  0  0  0
  8 11  1  0  0  0  0
  8 12  1  0  0  0  0
  9  8  2  0  0  0  0
 10 17  1  1  0  0  0
 10 14  1  0  0  0  0
 15 14  1  6  0  0  0
 15 16  1  0  0  0  0
 15  9  1  0  0  0  0
 16 13  1  6  0  0  0
 16 11  1  0  0  0  0
 17 13  1  0  0  0  0
 19 18  1  1  0  0  0
 20 19  1  0  0  0  0
 21 22  1  0  0  0  0
 21 20  1  0  0  0  0
 22 23  1  0  0  0  0
 23 27  1  0  0  0  0
 23 25  1  0  0  0  0
 25 24  1  0  0  0  0
 26 25  2  0  0  0  0
 28 34  1  1  0  0  0
 28 32  1  0  0  0  0
 29 28  1  0  0  0  0
 29 27  1  1  0  0  0
 29 30  1  0  0  0  0
 30 31  1  0  0  0  0
 31 39  1  0  0  0  0
 32 31  1  0  0  0  0
 33 34  2  0  0  0  0
 36 33  1  0  0  0  0
 36 35  1  0  0  0  0
 37 38  1  0  0  0  0
 38 33  1  0  0  0  0
 39 42  1  0  0  0  0
 40 42  1  0  0  0  0
 42 41  1  0  0  0  0
 43  2  1  0  0  0  0
 44 48  1  6  0  0  0
 44 46  1  0  0  0  0
 45 43  1  1  0  0  0
 45 44  1  0  0  0  0
 45 46  1  0  0  0  0
 46 47  1  6  0  0  0
 49 48  1  0  0  0  0
 50 49  2  0  0  0  0
 51 53  1  0  0  0  0
 52 54  1  0  0  0  0
 54 49  1  0  0  0  0
 54 51  1  0  0  0  0
 54 53  1  0  0  0  0
M  END
>  <MODEL>
3

>  <REMARK>
 VINA RESULT:      -5.2      4.139      9.119
  Name = 
  18 active torsions:
  status: ('A' for Active; 'I' for Inactive)
    1  A    between atoms: C_1  and  O_47
    2  A    between atoms: C_1  and  C_51
    3  A    between atoms: C_2  and  O_5
    4  A    between atoms: C_2  and  C_40
    5  A    between atoms: N_4  and  O_28
    6  A    between atoms: O_5  and  C_31
    7  A    between atoms: C_8  and  N_15
    8  A    between atoms: C_8  and  C_18
    9  A    between atoms: C_9  and  O_32
   10  A    between atoms: C_10  and  N_33
   11  A    between atoms: C_10  and  C_50
   12  A    between atoms: C_13  and  C_20
   13  A    between atoms: C_14  and  C_17
   14  A    between atoms: N_15  and  C_40
   15  A    between atoms: C_19  and  O_28
   16  A    between atoms: C_27  and  C_31
   17  A    between atoms: O_32  and  C_34
   18  A    between atoms: C_34  and  C_54
                            x       y       z     vdW  Elec       q    Type
                         _______ _______ _______ _____ _____    ______ ____

>  <TORSDO>
F 18

$$$$
=
 OpenBabel10232411303D

 54 59  0  0  1  0  0  0  0  0999 V2000
  183.4810  177.0760  139.9890 C   0  0  0  0  0  1  0  0  0  0  0  0
  183.3560  176.9530  137.5700 N   0  0  0  0  0  0  0  0  0  0  0  0
  184.6660  176.7850  136.9380 C   0  0  1  0  0  3  0  0  0  0  0  0
  185.6920  177.6330  137.6730 C   0  0  1  0  0  3  0  0  0  0  0  0
  186.5360  178.3920  136.6670 C   0  0  0  0  0  1  0  0  0  0  0  0
  184.8620  178.5970  138.4800 C   0  0  1  0  0  3  0  0  0  0  0  0
  183.5360  177.8730  138.6910 C   0  0  2  0  0  3  0  0  0  0  0  0
  188.4180  172.5360  135.8380 C   0  0  0  0  0  0  0  0  0  0  0  0
  188.2850  173.3460  136.8220 N   0  0  0  0  0  0  0  0  0  0  0  0
  185.0540  175.3060  136.8620 C   0  0  2  0  0  3  0  0  0  0  0  0
  187.2010  172.1780  135.2340 N   0  0  0  0  0  2  0  0  0  0  0  0
  189.6830  172.0820  135.3770 N   0  0  0  0  0  1  0  0  0  0  0  0
  185.5640  173.7600  134.9050 C   0  0  0  0  0  2  0  0  0  0  0  0
  186.5570  175.0750  137.0620 C   0  0  0  0  0  2  0  0  0  0  0  0
  186.8570  173.5730  136.9900 C   0  0  1  0  0  3  0  0  0  0  0  0
  186.1590  172.8480  135.8880 N   0  0  2  0  0  0  0  0  0  0  0  0
  184.5300  174.6700  135.5670 C   0  0  0  0  0  2  0  0  0  0  0  0
  184.7910  178.8370  140.9000 O   0  0  0  0  0  1  0  0  0  0  0  0
  185.5680  179.0850  139.7620 C   0  0  1  0  0  3  0  0  0  0  0  0
  186.8750  178.5590  139.9150 O   0  0  0  0  0  0  0  0  0  0  0  0
  187.0200  178.0610  141.2180 C   0  0  0  0  0  2  0  0  0  0  0  0
  188.3860  178.4210  141.7690 C   0  0  0  0  0  2  0  0  0  0  0  0
  188.9790  177.2780  142.4500 N   0  0  0  0  0  0  0  0  0  0  0  0
  190.5610  175.5540  142.4370 O   0  0  0  0  0  1  0  0  0  0  0  0
  190.0030  176.4910  141.8070 C   0  0  0  0  0  0  0  0  0  0  0  0
  190.3920  176.7540  140.4970 O   0  0  0  0  0  0  0  0  0  0  0  0
  188.5530  176.9440  143.7990 C   0  0  0  0  0  2  0  0  0  0  0  0
  187.9760  178.2600  145.9420 C   0  0  2  0  0  3  0  0  0  0  0  0
  188.9780  178.0070  144.8220 C   0  0  1  0  0  3  0  0  0  0  0  0
  190.2090  177.5130  145.5430 C   0  0  0  0  0  2  0  0  0  0  0  0
  189.8050  176.5110  146.5260 N   0  0  0  0  0  0  0  0  0  0  0  0
  188.2530  177.0180  147.2390 S   0  0  0  0  0  0  0  0  0  0  0  0
  185.5370  178.6340  146.3220 C   0  0  0  0  0  0  0  0  0  0  0  0
  186.5420  178.3030  145.5130 C   0  0  0  0  0  3  0  0  0  0  0  0
  183.9740  178.5160  144.4050 C   0  0  0  0  0  1  0  0  0  0  0  0
  184.2430  178.6100  145.8040 O   0  0  0  0  0  0  0  0  0  0  0  0
  185.9790  180.3840  147.8560 O   0  0  0  0  0  1  0  0  0  0  0  0
  185.7890  179.0060  147.7530 C   0  0  0  0  0  2  0  0  0  0  0  0
  190.7970  176.5340  147.5920 C   0  0  0  0  0  2  0  0  0  0  0  0
  191.9860  174.9660  146.0730 C   0  0  0  0  0  1  0  0  0  0  0  0
  193.0410  175.6710  148.1990 C   0  0  0  0  0  1  0  0  0  0  0  0
  192.1510  176.1140  147.0500 C   0  0  0  0  0  3  0  0  0  0  0  0
  182.5720  177.5880  136.6660 O   0  0  0  0  0  0  0  0  0  0  0  0
  181.0760  175.7490  136.7430 C   0  0  1  0  0  3  0  0  0  0  0  0
  182.0190  176.5710  135.8870 C   0  0  1  0  0  3  0  0  0  0  0  0
  180.5230  176.7940  135.7790 C   0  0  1  0  0  3  0  0  0  0  0  0
  180.0440  176.2110  134.6020 O   0  0  0  0  0  1  0  0  0  0  0  0
  180.9680  174.4340  136.2080 O   0  0  0  0  0  0  0  0  0  0  0  0
  181.1230  173.2480  136.9450 C   0  0  0  0  0  0  0  0  0  0  0  0
  180.4430  173.1270  138.0340 N   0  0  0  0  0  2  0  0  0  0  0  0
  182.2800  171.8910  135.0780 C   0  0  0  0  0  2  0  0  0  0  0  0
  183.1120  171.7990  137.3570 F   0  0  0  0  0  0  0  0  0  0  0  0
  181.4170  170.9060  135.8620 C   0  0  0  0  0  2  0  0  0  0  0  0
  182.0290  172.1020  136.5500 C   0  0  0  0  0  0  0  0  0  0  0  0
  2  7  1  0  0  0  0
  3  2  1  1  0  0  0
  3  4  1  0  0  0  0
  4  5  1  6  0  0  0
  4  6  1  0  0  0  0
  6  7  1  0  0  0  0
  6 19  1  1  0  0  0
  7  1  1  1  0  0  0
  8  9  2  0  0  0  0
  9 15  1  0  0  0  0
 10 17  1  6  0  0  0
 10  3  1  0  0  0  0
 10 14  1  0  0  0  0
 11  8  1  0  0  0  0
 11 16  1  0  0  0  0
 12  8  1  0  0  0  0
 13 17  1  0  0  0  0
 15 14  1  6  0  0  0
 16 13  1  6  0  0  0
 16 15  1  0  0  0  0
 19 20  1  0  0  0  0
 19 18  1  1  0  0  0
 20 21  1  0  0  0  0
 21 22  1  0  0  0  0
 22 23  1  0  0  0  0
 23 27  1  0  0  0  0
 25 24  1  0  0  0  0
 25 23  1  0  0  0  0
 26 25  2  0  0  0  0
 28 34  1  6  0  0  0
 28 32  1  0  0  0  0
 29 27  1  6  0  0  0
 29 30  1  0  0  0  0
 29 28  1  0  0  0  0
 30 31  1  0  0  0  0
 31 32  1  0  0  0  0
 31 39  1  0  0  0  0
 33 38  1  0  0  0  0
 34 33  2  0  0  0  0
 35 36  1  0  0  0  0
 36 33  1  0  0  0  0
 38 37  1  0  0  0  0
 40 42  1  0  0  0  0
 42 39  1  0  0  0  0
 42 41  1  0  0  0  0
 43  2  1  0  0  0  0
 44 48  1  6  0  0  0
 45 43  1  1  0  0  0
 45 44  1  0  0  0  0
 46 47  1  6  0  0  0
 46 45  1  0  0  0  0
 46 44  1  0  0  0  0
 48 49  1  0  0  0  0
 49 50  2  0  0  0  0
 51 53  1  0  0  0  0
 51 54  1  0  0  0  0
 53 54  1  0  0  0  0
 54 49  1  0  0  0  0
 54 52  1  0  0  0  0
M  END
>  <MODEL>
4

>  <REMARK>
 VINA RESULT:      -5.1      3.161      9.861
  Name = 
  18 active torsions:
  status: ('A' for Active; 'I' for Inactive)
    1  A    between atoms: C_1  and  O_47
    2  A    between atoms: C_1  and  C_51
    3  A    between atoms: C_2  and  O_5
    4  A    between atoms: C_2  and  C_40
    5  A    between atoms: N_4  and  O_28
    6  A    between atoms: O_5  and  C_31
    7  A    between atoms: C_8  and  N_15
    8  A    between atoms: C_8  and  C_18
    9  A    between atoms: C_9  and  O_32
   10  A    between atoms: C_10  and  N_33
   11  A    between atoms: C_10  and  C_50
   12  A    between atoms: C_13  and  C_20
   13  A    between atoms: C_14  and  C_17
   14  A    between atoms: N_15  and  C_40
   15  A    between atoms: C_19  and  O_28
   16  A    between atoms: C_27  and  C_31
   17  A    between atoms: O_32  and  C_34
   18  A    between atoms: C_34  and  C_54
                            x       y       z     vdW  Elec       q    Type
                         _______ _______ _______ _____ _____    ______ ____

>  <TORSDO>
F 18

$$$$
=
 OpenBabel10232411303D

 54 59  0  0  1  0  0  0  0  0999 V2000
  187.9960  178.0020  134.6440 C   0  0  0  0  0  1  0  0  0  0  0  0
  189.5460  176.1390  134.5560 N   0  0  0  0  0  0  0  0  0  0  0  0
  189.2280  175.0850  135.5210 C   0  0  1  0  0  3  0  0  0  0  0  0
  188.7660  175.7190  136.8250 C   0  0  1  0  0  3  0  0  0  0  0  0
  189.4640  175.0440  137.9910 C   0  0  0  0  0  1  0  0  0  0  0  0
  189.2140  177.1520  136.7150 C   0  0  1  0  0  3  0  0  0  0  0  0
  189.2820  177.4170  135.2150 C   0  0  2  0  0  3  0  0  0  0  0  0
  184.5790  171.6900  135.9590 C   0  0  0  0  0  0  0  0  0  0  0  0
  184.7220  172.9570  135.8330 N   0  0  0  0  0  0  0  0  0  0  0  0
  188.2130  174.0970  134.9420 C   0  0  2  0  0  3  0  0  0  0  0  0
  185.5750  170.9420  135.3100 N   0  0  0  0  0  2  0  0  0  0  0  0
  183.5340  171.1030  136.7240 N   0  0  0  0  0  1  0  0  0  0  0  0
  187.7690  171.6290  135.3840 C   0  0  0  0  0  2  0  0  0  0  0  0
  186.8490  174.1700  135.6380 C   0  0  0  0  0  2  0  0  0  0  0  0
  185.8890  173.1660  134.9890 C   0  0  1  0  0  3  0  0  0  0  0  0
  186.4820  171.8250  134.7080 N   0  0  2  0  0  0  0  0  0  0  0  0
  188.7860  172.6720  134.9230 C   0  0  0  0  0  2  0  0  0  0  0  0
  187.1400  177.5280  137.9290 O   0  0  0  0  0  1  0  0  0  0  0  0
  188.3380  178.1290  137.5260 C   0  0  1  0  0  3  0  0  0  0  0  0
  189.0160  178.7010  138.6320 O   0  0  0  0  0  0  0  0  0  0  0  0
  188.3300  178.3730  139.8100 C   0  0  0  0  0  2  0  0  0  0  0  0
  189.0500  177.2600  140.5450 C   0  0  0  0  0  2  0  0  0  0  0  0
  189.6700  177.7680  141.7620 N   0  0  0  0  0  0  0  0  0  0  0  0
  191.6270  178.3350  142.9120 O   0  0  0  0  0  1  0  0  0  0  0  0
  191.1070  177.8210  141.8870 C   0  0  0  0  0  0  0  0  0  0  0  0
  191.9320  177.3180  140.8850 O   0  0  0  0  0  0  0  0  0  0  0  0
  188.8330  178.2480  142.8480 C   0  0  0  0  0  2  0  0  0  0  0  0
  188.1950  177.0200  145.0260 C   0  0  2  0  0  3  0  0  0  0  0  0
  188.0380  177.1150  143.5140 C   0  0  1  0  0  3  0  0  0  0  0  0
  186.5650  177.3840  143.3180 C   0  0  0  0  0  2  0  0  0  0  0  0
  186.1530  178.4280  144.2550 N   0  0  0  0  0  0  0  0  0  0  0  0
  187.0230  178.1800  145.7900 S   0  0  0  0  0  0  0  0  0  0  0  0
  189.9400  177.0750  146.8100 C   0  0  0  0  0  0  0  0  0  0  0  0
  189.5880  177.2250  145.5340 C   0  0  0  0  0  3  0  0  0  0  0  0
  192.0190  176.4490  148.0010 C   0  0  0  0  0  1  0  0  0  0  0  0
  191.2680  177.3220  147.1570 O   0  0  0  0  0  0  0  0  0  0  0  0
  188.7900  177.6860  148.7880 O   0  0  0  0  0  1  0  0  0  0  0  0
  188.9340  176.6690  147.8450 C   0  0  0  0  0  2  0  0  0  0  0  0
  184.7360  178.2240  144.5240 C   0  0  0  0  0  2  0  0  0  0  0  0
  182.4480  179.0850  144.0780 C   0  0  0  0  0  1  0  0  0  0  0  0
  184.0330  178.7520  142.2060 C   0  0  0  0  0  1  0  0  0  0  0  0
  183.9040  179.1580  143.6640 C   0  0  0  0  0  3  0  0  0  0  0  0
  190.8830  176.0770  134.3460 O   0  0  0  0  0  0  0  0  0  0  0  0
  192.7060  174.7090  135.0040 C   0  0  1  0  0  3  0  0  0  0  0  0
  191.3850  175.3290  135.4130 C   0  0  1  0  0  3  0  0  0  0  0  0
  192.6830  175.9550  135.8840 C   0  0  1  0  0  3  0  0  0  0  0  0
  192.8930  175.6440  137.2300 O   0  0  0  0  0  1  0  0  0  0  0  0
  192.9390  173.5320  135.7710 O   0  0  0  0  0  0  0  0  0  0  0  0
  193.4020  172.3110  135.2530 C   0  0  0  0  0  0  0  0  0  0  0  0
  192.6000  171.6390  134.4990 N   0  0  0  0  0  2  0  0  0  0  0  0
  195.9520  172.6690  135.4360 C   0  0  0  0  0  2  0  0  0  0  0  0
  194.9070  170.7350  136.4670 F   0  0  0  0  0  0  0  0  0  0  0  0
  195.7370  171.6100  134.3570 C   0  0  0  0  0  2  0  0  0  0  0  0
  194.7740  171.7300  135.5150 C   0  0  0  0  0  0  0  0  0  0  0  0
  2  7  1  0  0  0  0
  3  2  1  6  0  0  0
  3  4  1  0  0  0  0
  4  5  1  1  0  0  0
  6  4  1  0  0  0  0
  6 19  1  1  0  0  0
  7  1  1  6  0  0  0
  7  6  1  0  0  0  0
  8 12  1  0  0  0  0
  9  8  2  0  0  0  0
 10 17  1  1  0  0  0
 10  3  1  0  0  0  0
 10 14  1  0  0  0  0
 11  8  1  0  0  0  0
 15 14  1  1  0  0  0
 15  9  1  0  0  0  0
 16 15  1  0  0  0  0
 16 11  1  0  0  0  0
 16 13  1  1  0  0  0
 17 13  1  0  0  0  0
 19 18  1  1  0  0  0
 19 20  1  0  0  0  0
 20 21  1  0  0  0  0
 21 22  1  0  0  0  0
 22 23  1  0  0  0  0
 23 25  1  0  0  0  0
 23 27  1  0  0  0  0
 25 24  1  0  0  0  0
 26 25  2  0  0  0  0
 28 34  1  6  0  0  0
 28 32  1  0  0  0  0
 29 27  1  1  0  0  0
 29 28  1  0  0  0  0
 30 29  1  0  0  0  0
 30 31  1  0  0  0  0
 31 39  1  0  0  0  0
 31 32  1  0  0  0  0
 33 36  1  0  0  0  0
 33 38  1  0  0  0  0
 34 33  2  0  0  0  0
 36 35  1  0  0  0  0
 38 37  1  0  0  0  0
 41 42  1  0  0  0  0
 42 40  1  0  0  0  0
 42 39  1  0  0  0  0
 43  2  1  0  0  0  0
 44 45  1  0  0  0  0
 44 48  1  1  0  0  0
 44 46  1  0  0  0  0
 45 43  1  6  0  0  0
 45 46  1  0  0  0  0
 46 47  1  1  0  0  0
 49 54  1  0  0  0  0
 49 48  1  0  0  0  0
 50 49  2  0  0  0  0
 51 54  1  0  0  0  0
 53 51  1  0  0  0  0
 53 54  1  0  0  0  0
 54 52  1  0  0  0  0
M  END
>  <MODEL>
5

>  <REMARK>
 VINA RESULT:      -5.0      3.762     10.756
  Name = 
  18 active torsions:
  status: ('A' for Active; 'I' for Inactive)
    1  A    between atoms: C_1  and  O_47
    2  A    between atoms: C_1  and  C_51
    3  A    between atoms: C_2  and  O_5
    4  A    between atoms: C_2  and  C_40
    5  A    between atoms: N_4  and  O_28
    6  A    between atoms: O_5  and  C_31
    7  A    between atoms: C_8  and  N_15
    8  A    between atoms: C_8  and  C_18
    9  A    between atoms: C_9  and  O_32
   10  A    between atoms: C_10  and  N_33
   11  A    between atoms: C_10  and  C_50
   12  A    between atoms: C_13  and  C_20
   13  A    between atoms: C_14  and  C_17
   14  A    between atoms: N_15  and  C_40
   15  A    between atoms: C_19  and  O_28
   16  A    between atoms: C_27  and  C_31
   17  A    between atoms: O_32  and  C_34
   18  A    between atoms: C_34  and  C_54
                            x       y       z     vdW  Elec       q    Type
                         _______ _______ _______ _____ _____    ______ ____

>  <TORSDO>
F 18

$$$$
=
 OpenBabel10232411303D

 54 59  0  0  1  0  0  0  0  0999 V2000
  188.1360  175.4150  143.3460 C   0  0  0  0  0  1  0  0  0  0  0  0
  187.1300  177.4880  144.0990 N   0  0  0  0  0  0  0  0  0  0  0  0
  186.7580  178.3770  142.9960 C   0  0  1  0  0  3  0  0  0  0  0  0
  187.8310  178.3190  141.9200 C   0  0  1  0  0  3  0  0  0  0  0  0
  188.1770  179.7270  141.4740 C   0  0  0  0  0  1  0  0  0  0  0  0
  189.0130  177.6930  142.6120 C   0  0  1  0  0  3  0  0  0  0  0  0
  188.4010  176.8640  143.7370 C   0  0  2  0  0  3  0  0  0  0  0  0
  182.0880  179.5380  139.8050 C   0  0  0  0  0  0  0  0  0  0  0  0
  183.2530  179.0920  139.5120 N   0  0  0  0  0  0  0  0  0  0  0  0
  185.3610  178.0430  142.4680 C   0  0  2  0  0  3  0  0  0  0  0  0
  181.6330  179.1360  141.0720 N   0  0  0  0  0  2  0  0  0  0  0  0
  181.3510  180.3970  138.9450 N   0  0  0  0  0  1  0  0  0  0  0  0
  183.0760  179.0970  142.8610 C   0  0  0  0  0  2  0  0  0  0  0  0
  185.0840  178.6540  141.0900 C   0  0  0  0  0  2  0  0  0  0  0  0
  183.6770  178.2590  140.6270 C   0  0  1  0  0  3  0  0  0  0  0  0
  182.6230  178.3540  141.6800 N   0  0  2  0  0  0  0  0  0  0  0  0
  184.2840  178.4120  143.5000 C   0  0  0  0  0  2  0  0  0  0  0  0
  190.4840  175.7870  142.2600 O   0  0  0  0  0  1  0  0  0  0  0  0
  189.9490  176.9290  141.6530 C   0  0  1  0  0  3  0  0  0  0  0  0
  189.3370  176.6050  140.4150 O   0  0  0  0  0  0  0  0  0  0  0  0
  190.2030  176.9540  139.3700 C   0  0  0  0  0  2  0  0  0  0  0  0
  189.4130  177.4470  138.1740 C   0  0  0  0  0  2  0  0  0  0  0  0
  189.5380  176.5170  137.0600 N   0  0  0  0  0  0  0  0  0  0  0  0
  190.9230  175.1990  135.7120 O   0  0  0  0  0  0  0  0  0  0  0  0
  190.8360  176.0620  136.6250 C   0  0  0  0  0  0  0  0  0  0  0  0
  192.0000  176.5590  137.2050 O   0  0  0  0  0  1  0  0  0  0  0  0
  188.3410  176.0240  136.3980 C   0  0  0  0  0  2  0  0  0  0  0  0
  186.1180  174.8040  136.8770 C   0  0  2  0  0  3  0  0  0  0  0  0
  187.5800  175.0040  137.2570 C   0  0  1  0  0  3  0  0  0  0  0  0
  188.1990  173.6430  137.0450 C   0  0  0  0  0  2  0  0  0  0  0  0
  187.7490  173.1200  135.7570 N   0  0  0  0  0  0  0  0  0  0  0  0
  186.0470  173.5940  135.5230 S   0  0  0  0  0  0  0  0  0  0  0  0
  184.1960  176.3840  137.0690 C   0  0  0  0  0  0  0  0  0  0  0  0
  185.3730  176.0580  136.5390 C   0  0  0  0  0  3  0  0  0  0  0  0
  182.5490  177.6020  135.6780 C   0  0  0  0  0  1  0  0  0  0  0  0
  183.5940  177.5700  136.6490 O   0  0  0  0  0  0  0  0  0  0  0  0
  182.7580  174.5350  137.4190 O   0  0  0  0  0  1  0  0  0  0  0  0
  183.5290  175.4950  138.0750 C   0  0  0  0  0  2  0  0  0  0  0  0
  187.7830  171.6670  135.8510 C   0  0  0  0  0  2  0  0  0  0  0  0
  188.6040  169.5800  134.7790 C   0  0  0  0  0  1  0  0  0  0  0  0
  189.8730  171.6900  134.5170 C   0  0  0  0  0  1  0  0  0  0  0  0
  188.4850  171.0850  134.6370 C   0  0  0  0  0  3  0  0  0  0  0  0
  187.3770  178.2850  145.1670 O   0  0  0  0  0  0  0  0  0  0  0  0
  189.1270  178.2230  146.7670 C   0  0  1  0  0  3  0  0  0  0  0  0
  188.0010  177.4570  146.1020 C   0  0  1  0  0  3  0  0  0  0  0  0
  187.7940  178.0390  147.4870 C   0  0  1  0  0  3  0  0  0  0  0  0
  187.8570  177.0180  148.4390 O   0  0  0  0  0  1  0  0  0  0  0  0
  190.1090  177.3100  147.2440 O   0  0  0  0  0  0  0  0  0  0  0  0
  191.2130  176.8540  146.5030 C   0  0  0  0  0  0  0  0  0  0  0  0
  191.5170  177.4960  145.4270 N   0  0  0  0  0  2  0  0  0  0  0  0
  191.7180  174.9310  148.1490 C   0  0  0  0  0  2  0  0  0  0  0  0
  192.5690  174.8550  145.8770 F   0  0  0  0  0  0  0  0  0  0  0  0
  192.9790  175.7890  148.0830 C   0  0  0  0  0  2  0  0  0  0  0  0
  192.0720  175.6670  146.8810 C   0  0  0  0  0  0  0  0  0  0  0  0
  2 43  1  0  0  0  0
  3  2  1  1  0  0  0
  4  5  1  1  0  0  0
  4  6  1  0  0  0  0
  4  3  1  0  0  0  0
  6 19  1  6  0  0  0
  6  7  1  0  0  0  0
  7  1  1  6  0  0  0
  7  2  1  0  0  0  0
  8 11  1  0  0  0  0
  9  8  2  0  0  0  0
  9 15  1  0  0  0  0
 10 14  1  6  0  0  0
 10  3  1  0  0  0  0
 10 17  1  0  0  0  0
 11 16  1  0  0  0  0
 12  8  1  0  0  0  0
 13 17  1  0  0  0  0
 15 14  1  1  0  0  0
 15 16  1  0  0  0  0
 16 13  1  1  0  0  0
 19 18  1  1  0  0  0
 20 19  1  0  0  0  0
 21 20  1  0  0  0  0
 22 21  1  0  0  0  0
 23 22  1  0  0  0  0
 24 25  2  0  0  0  0
 25 23  1  0  0  0  0
 25 26  1  0  0  0  0
 27 23  1  0  0  0  0
 28 34  1  6  0  0  0
 28 29  1  0  0  0  0
 29 27  1  6  0  0  0
 30 29  1  0  0  0  0
 31 39  1  0  0  0  0
 31 30  1  0  0  0  0
 32 31  1  0  0  0  0
 32 28  1  0  0  0  0
 33 38  1  0  0  0  0
 34 33  2  0  0  0  0
 35 36  1  0  0  0  0
 36 33  1  0  0  0  0
 37 38  1  0  0  0  0
 41 42  1  0  0  0  0
 42 40  1  0  0  0  0
 42 39  1  0  0  0  0
 44 48  1  1  0  0  0
 44 46  1  0  0  0  0
 45 43  1  6  0  0  0
 45 44  1  0  0  0  0
 45 46  1  0  0  0  0
 46 47  1  1  0  0  0
 49 54  1  0  0  0  0
 49 48  1  0  0  0  0
 50 49  2  0  0  0  0
 52 54  1  0  0  0  0
 53 51  1  0  0  0  0
 54 53  1  0  0  0  0
 54 51  1  0  0  0  0
M  END
>  <MODEL>
6

>  <REMARK>
 VINA RESULT:      -4.9      2.823      7.379
  Name = 
  18 active torsions:
  status: ('A' for Active; 'I' for Inactive)
    1  A    between atoms: C_1  and  O_47
    2  A    between atoms: C_1  and  C_51
    3  A    between atoms: C_2  and  O_5
    4  A    between atoms: C_2  and  C_40
    5  A    between atoms: N_4  and  O_28
    6  A    between atoms: O_5  and  C_31
    7  A    between atoms: C_8  and  N_15
    8  A    between atoms: C_8  and  C_18
    9  A    between atoms: C_9  and  O_32
   10  A    between atoms: C_10  and  N_33
   11  A    between atoms: C_10  and  C_50
   12  A    between atoms: C_13  and  C_20
   13  A    between atoms: C_14  and  C_17
   14  A    between atoms: N_15  and  C_40
   15  A    between atoms: C_19  and  O_28
   16  A    between atoms: C_27  and  C_31
   17  A    between atoms: O_32  and  C_34
   18  A    between atoms: C_34  and  C_54
                            x       y       z     vdW  Elec       q    Type
                         _______ _______ _______ _____ _____    ______ ____

>  <TORSDO>
F 18

$$$$
=
 OpenBabel10232411303D

 54 59  0  0  1  0  0  0  0  0999 V2000
  189.6090  175.7300  138.7850 C   0  0  0  0  0  1  0  0  0  0  0  0
  189.3630  174.6850  136.6120 N   0  0  0  0  0  0  0  0  0  0  0  0
  190.0370  175.4240  135.5420 C   0  0  1  0  0  3  0  0  0  0  0  0
  189.8520  176.9170  135.7690 C   0  0  1  0  0  3  0  0  0  0  0  0
  189.4500  177.5820  134.4670 C   0  0  0  0  0  1  0  0  0  0  0  0
  188.7220  177.0010  136.7610 C   0  0  1  0  0  3  0  0  0  0  0  0
  188.7750  175.6740  137.5110 C   0  0  2  0  0  3  0  0  0  0  0  0
  195.1300  173.9770  137.8450 C   0  0  0  0  0  0  0  0  0  0  0  0
  194.0350  173.3320  137.6790 N   0  0  0  0  0  0  0  0  0  0  0  0
  191.5060  175.0120  135.4290 C   0  0  2  0  0  3  0  0  0  0  0  0
  195.3860  174.9200  136.8360 N   0  0  0  0  0  2  0  0  0  0  0  0
  195.9770  173.7850  138.9700 N   0  0  0  0  0  1  0  0  0  0  0  0
  193.6780  176.2120  135.9990 C   0  0  0  0  0  2  0  0  0  0  0  0
  191.9860  174.1860  136.6280 C   0  0  0  0  0  2  0  0  0  0  0  0
  193.4560  173.8000  136.4290 C   0  0  1  0  0  3  0  0  0  0  0  0
  194.3280  174.9000  135.9190 N   0  0  2  0  0  0  0  0  0  0  0  0
  192.3980  176.2340  135.1650 C   0  0  0  0  0  2  0  0  0  0  0  0
  189.4240  179.3190  136.9850 O   0  0  0  0  0  1  0  0  0  0  0  0
  188.7740  178.2670  137.6410 C   0  0  1  0  0  3  0  0  0  0  0  0
  187.5010  178.6730  138.1130 O   0  0  0  0  0  0  0  0  0  0  0  0
  187.4110  178.3980  139.4840 C   0  0  0  0  0  2  0  0  0  0  0  0
  185.9660  178.4570  139.9390 C   0  0  0  0  0  2  0  0  0  0  0  0
  185.8900  178.7500  141.3640 N   0  0  0  0  0  0  0  0  0  0  0  0
  184.5620  179.2170  143.2330 O   0  0  0  0  0  1  0  0  0  0  0  0
  184.6220  179.0430  141.9870 C   0  0  0  0  0  0  0  0  0  0  0  0
  183.4560  179.1290  141.2320 O   0  0  0  0  0  0  0  0  0  0  0  0
  187.1000  178.7230  142.1690 C   0  0  0  0  0  2  0  0  0  0  0  0
  188.7710  177.1280  143.3180 C   0  0  2  0  0  3  0  0  0  0  0  0
  187.3630  177.3370  142.7760 C   0  0  1  0  0  3  0  0  0  0  0  0
  186.4790  177.1710  143.9890 C   0  0  0  0  0  2  0  0  0  0  0  0
  187.0560  177.9310  145.0960 N   0  0  0  0  0  0  0  0  0  0  0  0
  188.8300  177.7890  145.0090 S   0  0  0  0  0  0  0  0  0  0  0  0
  191.1050  177.1900  142.4340 C   0  0  0  0  0  0  0  0  0  0  0  0
  189.8690  177.6850  142.4660 C   0  0  0  0  0  3  0  0  0  0  0  0
  192.4590  177.2780  140.3630 C   0  0  0  0  0  1  0  0  0  0  0  0
  192.0420  177.8200  141.6160 O   0  0  0  0  0  0  0  0  0  0  0  0
  191.9950  176.4280  144.4920 O   0  0  0  0  0  1  0  0  0  0  0  0
  191.4820  176.0020  143.2670 C   0  0  0  0  0  2  0  0  0  0  0  0
  186.6310  177.2820  146.3280 C   0  0  0  0  0  2  0  0  0  0  0  0
  186.2270  179.5160  147.3400 C   0  0  0  0  0  1  0  0  0  0  0  0
  188.4210  178.4050  147.6230 C   0  0  0  0  0  1  0  0  0  0  0  0
  186.9230  178.1800  147.5160 C   0  0  0  0  0  3  0  0  0  0  0  0
  188.3340  174.0220  136.0310 O   0  0  0  0  0  0  0  0  0  0  0  0
  185.9740  174.2490  136.1140 C   0  0  1  0  0  3  0  0  0  0  0  0
  187.2610  174.1740  136.9110 C   0  0  1  0  0  3  0  0  0  0  0  0
  186.3700  172.9510  136.8140 C   0  0  1  0  0  3  0  0  0  0  0  0
  185.6770  172.7780  138.0150 O   0  0  0  0  0  1  0  0  0  0  0  0
  184.9930  174.9640  136.8570 O   0  0  0  0  0  0  0  0  0  0  0  0
  183.6700  175.1870  136.4410 C   0  0  0  0  0  0  0  0  0  0  0  0
  183.3450  176.3850  136.0940 N   0  0  0  0  0  2  0  0  0  0  0  0
  181.2350  174.5360  135.8800 C   0  0  0  0  0  2  0  0  0  0  0  0
  182.9630  172.8350  136.0000 F   0  0  0  0  0  0  0  0  0  0  0  0
  181.4540  174.1810  137.3480 C   0  0  0  0  0  2  0  0  0  0  0  0
  182.6000  174.1190  136.3670 C   0  0  0  0  0  0  0  0  0  0  0  0
  2  7  1  0  0  0  0
  3  4  1  0  0  0  0
  3  2  1  1  0  0  0
  4  5  1  6  0  0  0
  4  6  1  0  0  0  0
  6  7  1  0  0  0  0
  6 19  1  1  0  0  0
  7  1  1  1  0  0  0
  8 12  1  0  0  0  0
  9  8  2  0  0  0  0
 10 17  1  1  0  0  0
 10  3  1  0  0  0  0
 10 14  1  0  0  0  0
 11  8  1  0  0  0  0
 15 14  1  1  0  0  0
 15  9  1  0  0  0  0
 16 13  1  1  0  0  0
 16 15  1  0  0  0  0
 16 11  1  0  0  0  0
 17 13  1  0  0  0  0
 19 18  1  6  0  0  0
 19 20  1  0  0  0  0
 20 21  1  0  0  0  0
 21 22  1  0  0  0  0
 22 23  1  0  0  0  0
 23 25  1  0  0  0  0
 23 27  1  0  0  0  0
 25 24  1  0  0  0  0
 26 25  2  0  0  0  0
 28 34  1  6  0  0  0
 28 32  1  0  0  0  0
 29 27  1  1  0  0  0
 29 28  1  0  0  0  0
 29 30  1  0  0  0  0
 30 31  1  0  0  0  0
 31 39  1  0  0  0  0
 32 31  1  0  0  0  0
 33 34  2  0  0  0  0
 33 38  1  0  0  0  0
 35 36  1  0  0  0  0
 36 33  1  0  0  0  0
 38 37  1  0  0  0  0
 39 42  1  0  0  0  0
 40 42  1  0  0  0  0
 42 41  1  0  0  0  0
 43  2  1  0  0  0  0
 44 46  1  0  0  0  0
 44 48  1  1  0  0  0
 44 45  1  0  0  0  0
 45 43  1  6  0  0  0
 46 45  1  0  0  0  0
 46 47  1  1  0  0  0
 49 48  1  0  0  0  0
 50 49  2  0  0  0  0
 51 54  1  0  0  0  0
 51 53  1  0  0  0  0
 52 54  1  0  0  0  0
 54 49  1  0  0  0  0
 54 53  1  0  0  0  0
M  END
>  <MODEL>
7

>  <REMARK>
 VINA RESULT:      -4.6      3.440      8.409
  Name = 
  18 active torsions:
  status: ('A' for Active; 'I' for Inactive)
    1  A    between atoms: C_1  and  O_47
    2  A    between atoms: C_1  and  C_51
    3  A    between atoms: C_2  and  O_5
    4  A    between atoms: C_2  and  C_40
    5  A    between atoms: N_4  and  O_28
    6  A    between atoms: O_5  and  C_31
    7  A    between atoms: C_8  and  N_15
    8  A    between atoms: C_8  and  C_18
    9  A    between atoms: C_9  and  O_32
   10  A    between atoms: C_10  and  N_33
   11  A    between atoms: C_10  and  C_50
   12  A    between atoms: C_13  and  C_20
   13  A    between atoms: C_14  and  C_17
   14  A    between atoms: N_15  and  C_40
   15  A    between atoms: C_19  and  O_28
   16  A    between atoms: C_27  and  C_31
   17  A    between atoms: O_32  and  C_34
   18  A    between atoms: C_34  and  C_54
                            x       y       z     vdW  Elec       q    Type
                         _______ _______ _______ _____ _____    ______ ____

>  <TORSDO>
F 18

$$$$
=
 OpenBabel10232411303D

 54 59  0  0  1  0  0  0  0  0999 V2000
  188.4060  179.8820  141.4610 C   0  0  0  0  0  1  0  0  0  0  0  0
  187.2810  178.2410  142.8460 N   0  0  0  0  0  0  0  0  0  0  0  0
  188.1910  177.2270  143.3850 C   0  0  1  0  0  3  0  0  0  0  0  0
  189.2150  176.8550  142.3230 C   0  0  1  0  0  3  0  0  0  0  0  0
  189.3480  175.3450  142.2560 C   0  0  0  0  0  1  0  0  0  0  0  0
  188.6210  177.3780  141.0420 C   0  0  1  0  0  3  0  0  0  0  0  0
  187.7160  178.5240  141.4810 C   0  0  2  0  0  3  0  0  0  0  0  0
  191.8040  176.5690  147.8400 C   0  0  0  0  0  0  0  0  0  0  0  0
  191.9830  176.9090  146.6180 N   0  0  0  0  0  0  0  0  0  0  0  0
  188.8290  177.7010  144.6930 C   0  0  2  0  0  3  0  0  0  0  0  0
  190.5720  176.9890  148.3680 N   0  0  0  0  0  2  0  0  0  0  0  0
  192.7470  175.7990  148.5740 N   0  0  0  0  0  1  0  0  0  0  0  0
  188.6640  176.8610  147.0910 C   0  0  0  0  0  2  0  0  0  0  0  0
  190.2420  177.1440  144.9010 C   0  0  0  0  0  2  0  0  0  0  0  0
  190.8140  177.6780  146.2190 C   0  0  1  0  0  3  0  0  0  0  0  0
  189.8600  177.6640  147.3680 N   0  0  2  0  0  0  0  0  0  0  0  0
  187.9050  177.4160  145.8860 C   0  0  0  0  0  2  0  0  0  0  0  0
  190.9750  177.6860  140.5100 O   0  0  0  0  0  1  0  0  0  0  0  0
  189.6810  177.7330  139.9790 C   0  0  1  0  0  3  0  0  0  0  0  0
  189.5850  176.9420  138.8070 O   0  0  0  0  0  0  0  0  0  0  0  0
  188.2580  176.9520  138.3540 C   0  0  0  0  0  2  0  0  0  0  0  0
  188.0610  175.9000  137.2800 C   0  0  0  0  0  2  0  0  0  0  0  0
  188.7980  176.2560  136.0750 N   0  0  0  0  0  0  0  0  0  0  0  0
  189.1690  177.7890  134.3470 O   0  0  0  0  0  0  0  0  0  0  0  0
  188.4720  177.4550  135.3420 C   0  0  0  0  0  0  0  0  0  0  0  0
  187.4000  178.2560  135.7210 O   0  0  0  0  0  1  0  0  0  0  0  0
  189.8880  175.4070  135.6220 C   0  0  0  0  0  2  0  0  0  0  0  0
  190.3550  172.9090  136.0720 C   0  0  2  0  0  3  0  0  0  0  0  0
  190.2380  174.3160  136.6450 C   0  0  1  0  0  3  0  0  0  0  0  0
  191.6160  174.6000  137.1930 C   0  0  0  0  0  2  0  0  0  0  0  0
  192.6080  174.1960  136.1980 N   0  0  0  0  0  0  0  0  0  0  0  0
  192.0330  172.7080  135.4050 S   0  0  0  0  0  0  0  0  0  0  0  0
  188.0880  172.1220  135.3830 C   0  0  0  0  0  0  0  0  0  0  0  0
  189.3100  172.5460  135.0640 C   0  0  0  0  0  3  0  0  0  0  0  0
  185.8500  171.4440  134.5680 C   0  0  0  0  0  1  0  0  0  0  0  0
  187.2170  171.7910  134.3460 O   0  0  0  0  0  0  0  0  0  0  0  0
  186.6250  172.8750  137.0860 O   0  0  0  0  0  1  0  0  0  0  0  0
  187.6680  171.9890  136.8160 C   0  0  0  0  0  2  0  0  0  0  0  0
  193.8250  173.8580  136.9210 C   0  0  0  0  0  2  0  0  0  0  0  0
  194.8520  175.6770  135.5750 C   0  0  0  0  0  1  0  0  0  0  0  0
  196.1410  174.6020  137.3950 C   0  0  0  0  0  1  0  0  0  0  0  0
  194.7590  175.0530  136.9540 C   0  0  0  0  0  3  0  0  0  0  0  0
  186.0630  177.6530  142.7550 O   0  0  0  0  0  0  0  0  0  0  0  0
  183.9980  178.1560  141.7030 C   0  0  1  0  0  3  0  0  0  0  0  0
  185.1750  178.6970  142.4900 C   0  0  1  0  0  3  0  0  0  0  0  0
  183.8650  178.4180  143.2000 C   0  0  1  0  0  3  0  0  0  0  0  0
  183.2050  179.6230  143.4590 O   0  0  0  0  0  1  0  0  0  0  0  0
  183.4150  179.2040  140.9350 O   0  0  0  0  0  0  0  0  0  0  0  0
  183.4830  179.3110  139.5360 C   0  0  0  0  0  0  0  0  0  0  0  0
  184.6040  179.6840  139.0180 N   0  0  0  0  0  2  0  0  0  0  0  0
  181.3650  180.1390  138.3140 C   0  0  0  0  0  2  0  0  0  0  0  0
  182.5540  178.1780  137.5170 F   0  0  0  0  0  0  0  0  0  0  0  0
  180.9390  178.9440  139.1640 C   0  0  0  0  0  2  0  0  0  0  0  0
  182.3360  179.0190  138.5940 C   0  0  0  0  0  0  0  0  0  0  0  0
  3  2  1  6  0  0  0
  3 10  1  0  0  0  0
  4  5  1  6  0  0  0
  4  3  1  0  0  0  0
  6 19  1  6  0  0  0
  6  7  1  0  0  0  0
  6  4  1  0  0  0  0
  7  1  1  1  0  0  0
  7  2  1  0  0  0  0
  8 11  1  0  0  0  0
  8 12  1  0  0  0  0
  9  8  2  0  0  0  0
 10 14  1  1  0  0  0
 10 17  1  0  0  0  0
 15 14  1  6  0  0  0
 15  9  1  0  0  0  0
 15 16  1  0  0  0  0
 16 13  1  6  0  0  0
 16 11  1  0  0  0  0
 17 13  1  0  0  0  0
 19 18  1  1  0  0  0
 20 19  1  0  0  0  0
 21 20  1  0  0  0  0
 22 21  1  0  0  0  0
 23 22  1  0  0  0  0
 24 25  2  0  0  0  0
 25 26  1  0  0  0  0
 25 23  1  0  0  0  0
 27 23  1  0  0  0  0
 28 34  1  6  0  0  0
 28 29  1  0  0  0  0
 29 27  1  6  0  0  0
 29 30  1  0  0  0  0
 31 39  1  0  0  0  0
 31 30  1  0  0  0  0
 32 28  1  0  0  0  0
 32 31  1  0  0  0  0
 33 38  1  0  0  0  0
 34 33  2  0  0  0  0
 36 35  1  0  0  0  0
 36 33  1  0  0  0  0
 38 37  1  0  0  0  0
 39 42  1  0  0  0  0
 40 42  1  0  0  0  0
 42 41  1  0  0  0  0
 43  2  1  0  0  0  0
 44 48  1  6  0  0  0
 44 45  1  0  0  0  0
 44 46  1  0  0  0  0
 45 43  1  1  0  0  0
 45 46  1  0  0  0  0
 46 47  1  6  0  0  0
 49 48  1  0  0  0  0
 50 49  2  0  0  0  0
 51 54  1  0  0  0  0
 51 53  1  0  0  0  0
 52 54  1  0  0  0  0
 54 53  1  0  0  0  0
 54 49  1  0  0  0  0
M  END
>  <MODEL>
8

>  <REMARK>
 VINA RESULT:      -4.5      1.933      4.085
  Name = 
  18 active torsions:
  status: ('A' for Active; 'I' for Inactive)
    1  A    between atoms: C_1  and  O_47
    2  A    between atoms: C_1  and  C_51
    3  A    between atoms: C_2  and  O_5
    4  A    between atoms: C_2  and  C_40
    5  A    between atoms: N_4  and  O_28
    6  A    between atoms: O_5  and  C_31
    7  A    between atoms: C_8  and  N_15
    8  A    between atoms: C_8  and  C_18
    9  A    between atoms: C_9  and  O_32
   10  A    between atoms: C_10  and  N_33
   11  A    between atoms: C_10  and  C_50
   12  A    between atoms: C_13  and  C_20
   13  A    between atoms: C_14  and  C_17
   14  A    between atoms: N_15  and  C_40
   15  A    between atoms: C_19  and  O_28
   16  A    between atoms: C_27  and  C_31
   17  A    between atoms: O_32  and  C_34
   18  A    between atoms: C_34  and  C_54
                            x       y       z     vdW  Elec       q    Type
                         _______ _______ _______ _____ _____    ______ ____

>  <TORSDO>
F 18

$$$$
=
 OpenBabel10232411303D

 54 59  0  0  1  0  0  0  0  0999 V2000
  191.7810  173.7020  137.9520 C   0  0  0  0  0  1  0  0  0  0  0  0
  191.9190  174.1300  135.5700 N   0  0  0  0  0  0  0  0  0  0  0  0
  193.1920  174.7320  135.1700 C   0  0  1  0  0  3  0  0  0  0  0  0
  193.6220  175.7450  136.2210 C   0  0  1  0  0  3  0  0  0  0  0  0
  194.0710  177.0230  135.5380 C   0  0  0  0  0  1  0  0  0  0  0  0
  192.3710  175.9990  137.0190 C   0  0  1  0  0  3  0  0  0  0  0  0
  191.5460  174.7280  136.8500 C   0  0  2  0  0  3  0  0  0  0  0  0
  195.5660  169.5560  136.1210 C   0  0  0  0  0  0  0  0  0  0  0  0
  194.5310  169.9310  135.4660 N   0  0  0  0  0  0  0  0  0  0  0  0
  194.2490  173.6580  134.9050 C   0  0  2  0  0  3  0  0  0  0  0  0
  196.6120  170.4930  136.1070 N   0  0  0  0  0  2  0  0  0  0  0  0
  195.6270  168.3260  136.8320 N   0  0  0  0  0  1  0  0  0  0  0  0
  196.1580  172.7370  136.3170 C   0  0  0  0  0  2  0  0  0  0  0  0
  193.7400  172.2400  135.1900 C   0  0  0  0  0  2  0  0  0  0  0  0
  194.8480  171.2260  134.8830 C   0  0  1  0  0  3  0  0  0  0  0  0
  196.2040  171.6150  135.3740 N   0  0  2  0  0  0  0  0  0  0  0  0
  195.5510  173.9740  135.6560 C   0  0  0  0  0  2  0  0  0  0  0  0
  193.7660  177.2680  138.5560 O   0  0  0  0  0  1  0  0  0  0  0  0
  192.6520  176.4240  138.4750 C   0  0  1  0  0  3  0  0  0  0  0  0
  191.5280  177.0050  139.1150 O   0  0  0  0  0  0  0  0  0  0  0  0
  191.6700  176.8700  140.5030 C   0  0  0  0  0  2  0  0  0  0  0  0
  191.0680  178.0670  141.2120 C   0  0  0  0  0  2  0  0  0  0  0  0
  189.6470  177.8550  141.4560 N   0  0  0  0  0  0  0  0  0  0  0  0
  187.4510  177.9640  140.6570 O   0  0  0  0  0  1  0  0  0  0  0  0
  188.6680  178.2260  140.4640 C   0  0  0  0  0  0  0  0  0  0  0  0
  189.0470  178.8640  139.2870 O   0  0  0  0  0  0  0  0  0  0  0  0
  189.2160  177.2410  142.7010 C   0  0  0  0  0  2  0  0  0  0  0  0
  187.9830  178.1640  144.7720 C   0  0  2  0  0  3  0  0  0  0  0  0
  189.2070  178.2390  143.8680 C   0  0  1  0  0  3  0  0  0  0  0  0
  190.3580  177.9090  144.7890 C   0  0  0  0  0  2  0  0  0  0  0  0
  189.9960  176.7400  145.5880 N   0  0  0  0  0  0  0  0  0  0  0  0
  188.2670  176.8550  146.0000 S   0  0  0  0  0  0  0  0  0  0  0  0
  185.5230  178.4840  144.4920 C   0  0  0  0  0  0  0  0  0  0  0  0
  186.6790  177.9820  144.0600 C   0  0  0  0  0  3  0  0  0  0  0  0
  184.3500  178.2750  142.3220 C   0  0  0  0  0  1  0  0  0  0  0  0
  184.3740  178.2190  143.7480 O   0  0  0  0  0  0  0  0  0  0  0  0
  185.0640  178.4850  146.8150 O   0  0  0  0  0  1  0  0  0  0  0  0
  185.4580  179.2960  145.7510 C   0  0  0  0  0  2  0  0  0  0  0  0
  190.7440  176.8270  146.8350 C   0  0  0  0  0  2  0  0  0  0  0  0
  191.9050  174.8420  145.8910 C   0  0  0  0  0  1  0  0  0  0  0  0
  192.6200  175.7780  148.0690 C   0  0  0  0  0  1  0  0  0  0  0  0
  192.0780  176.1190  146.6910 C   0  0  0  0  0  3  0  0  0  0  0  0
  190.9990  174.5410  134.6640 O   0  0  0  0  0  0  0  0  0  0  0  0
  188.6660  174.8760  134.3960 C   0  0  1  0  0  3  0  0  0  0  0  0
  189.7620  174.2840  135.2590 C   0  0  1  0  0  3  0  0  0  0  0  0
  188.9580  173.3790  134.3460 C   0  0  1  0  0  3  0  0  0  0  0  0
  188.0390  172.6460  135.1020 O   0  0  0  0  0  1  0  0  0  0  0  0
  187.5260  175.1590  135.2000 O   0  0  0  0  0  0  0  0  0  0  0  0
  187.4120  176.2460  136.0830 C   0  0  0  0  0  0  0  0  0  0  0  0
  187.9410  176.1240  137.2530 N   0  0  0  0  0  2  0  0  0  0  0  0
  186.7390  178.6290  136.8100 C   0  0  0  0  0  2  0  0  0  0  0  0
  186.7580  178.0230  134.4590 F   0  0  0  0  0  0  0  0  0  0  0  0
  185.4420  177.8870  136.4980 C   0  0  0  0  0  2  0  0  0  0  0  0
  186.7150  177.5490  135.7590 C   0  0  0  0  0  0  0  0  0  0  0  0
  2  7  1  0  0  0  0
  3  2  1  1  0  0  0
  3  4  1  0  0  0  0
  4  5  1  6  0  0  0
  4  6  1  0  0  0  0
  6 19  1  1  0  0  0
  7  6  1  0  0  0  0
  7  1  1  1  0  0  0
  8 12  1  0  0  0  0
  9  8  2  0  0  0  0
 10  3  1  0  0  0  0
 10 14  1  1  0  0  0
 10 17  1  0  0  0  0
 11  8  1  0  0  0  0
 15 14  1  1  0  0  0
 15 16  1  0  0  0  0
 15  9  1  0  0  0  0
 16 11  1  0  0  0  0
 16 13  1  1  0  0  0
 17 13  1  0  0  0  0
 19 18  1  6  0  0  0
 19 20  1  0  0  0  0
 20 21  1  0  0  0  0
 21 22  1  0  0  0  0
 22 23  1  0  0  0  0
 23 27  1  0  0  0  0
 25 24  1  0  0  0  0
 25 23  1  0  0  0  0
 26 25  2  0  0  0  0
 28 34  1  6  0  0  0
 28 32  1  0  0  0  0
 29 27  1  6  0  0  0
 29 28  1  0  0  0  0
 29 30  1  0  0  0  0
 30 31  1  0  0  0  0
 31 32  1  0  0  0  0
 31 39  1  0  0  0  0
 33 38  1  0  0  0  0
 34 33  2  0  0  0  0
 35 36  1  0  0  0  0
 36 33  1  0  0  0  0
 38 37  1  0  0  0  0
 40 42  1  0  0  0  0
 42 39  1  0  0  0  0
 42 41  1  0  0  0  0
 43  2  1  0  0  0  0
 44 48  1  1  0  0  0
 44 45  1  0  0  0  0
 45 43  1  6  0  0  0
 46 44  1  0  0  0  0
 46 47  1  1  0  0  0
 46 45  1  0  0  0  0
 48 49  1  0  0  0  0
 49 50  2  0  0  0  0
 52 54  1  0  0  0  0
 53 51  1  0  0  0  0
 54 49  1  0  0  0  0
 54 53  1  0  0  0  0
 54 51  1  0  0  0  0
M  END
>  <MODEL>
9

>  <REMARK>
 VINA RESULT:      -4.4      3.985     10.090
  Name = 
  18 active torsions:
  status: ('A' for Active; 'I' for Inactive)
    1  A    between atoms: C_1  and  O_47
    2  A    between atoms: C_1  and  C_51
    3  A    between atoms: C_2  and  O_5
    4  A    between atoms: C_2  and  C_40
    5  A    between atoms: N_4  and  O_28
    6  A    between atoms: O_5  and  C_31
    7  A    between atoms: C_8  and  N_15
    8  A    between atoms: C_8  and  C_18
    9  A    between atoms: C_9  and  O_32
   10  A    between atoms: C_10  and  N_33
   11  A    between atoms: C_10  and  C_50
   12  A    between atoms: C_13  and  C_20
   13  A    between atoms: C_14  and  C_17
   14  A    between atoms: N_15  and  C_40
   15  A    between atoms: C_19  and  O_28
   16  A    between atoms: C_27  and  C_31
   17  A    between atoms: O_32  and  C_34
   18  A    between atoms: C_34  and  C_54
                            x       y       z     vdW  Elec       q    Type
                         _______ _______ _______ _____ _____    ______ ____

>  <TORSDO>
F 18

$$$$
