=
 OpenBabel10232412493D

 40 43  0  0  1  0  0  0  0  0999 V2000
  185.9720  179.6090  147.8380 N   0  0  0  0  0  2  0  0  0  0  0  0
  187.4490  177.4760  145.3200 C   0  0  0  0  0  0  0  0  0  0  0  0
  188.7150  177.2600  145.9940 C   0  0  0  0  0  0  0  0  0  0  0  0
  188.9570  176.6370  143.8540 C   0  0  0  0  0  0  0  0  0  0  0  0
  188.9390  177.5670  147.2660 C   0  0  0  0  0  3  0  0  0  0  0  0
  186.2680  178.0910  145.9890 C   0  0  0  0  0  2  0  0  0  0  0  0
  187.5710  177.0860  144.0610 C   0  0  0  0  0  0  0  0  0  0  0  0
  189.6260  176.7390  145.0020 C   0  0  0  0  0  0  0  0  0  0  0  0
  186.7040  178.7100  147.2980 C   0  0  0  0  0  0  0  0  0  0  0  0
  187.7980  178.0630  148.1240 C   0  0  0  0  0  2  0  0  0  0  0  0
  190.9400  176.4560  145.1800 F   0  0  0  0  0  0  0  0  0  0  0  0
  186.5160  177.1760  143.0010 C   0  0  0  0  0  2  0  0  0  0  0  0
  186.4970  178.5510  142.3240 C   0  0  2  0  0  3  0  0  0  0  0  0
  185.1230  180.3770  144.1650 O   0  0  0  0  0  0  0  0  0  0  0  0
  183.0480  179.3510  143.7650 C   0  0  0  0  0  3  0  0  0  0  0  0
  185.0510  179.0550  142.1370 C   0  0  1  0  0  3  0  0  0  0  0  0
  184.1630  177.9270  141.5840 C   0  0  0  0  0  2  0  0  0  0  0  0
  182.7000  178.3540  141.5410 C   0  0  0  0  0  2  0  0  0  0  0  0
  184.4540  179.6170  143.4190 C   0  0  0  0  0  0  0  0  0  0  0  0
  182.2330  178.7320  142.9100 C   0  0  0  0  0  3  0  0  0  0  0  0
  187.2240  178.4520  140.9890 C   0  0  0  0  0  2  0  0  0  0  0  0
  186.3050  178.7980  139.9090 N   0  0  0  0  0  2  0  0  0  0  0  0
  187.9270  178.8160  138.1950 O   0  0  0  0  0  1  0  0  0  0  0  0
  185.7560  178.2880  137.6770 O   0  0  0  0  0  1  0  0  0  0  0  0
  186.7580  178.2030  138.6500 C   0  0  0  0  0  3  0  0  0  0  0  0
  189.5190  176.1650  142.5550 C   0  0  0  0  0  2  0  0  0  0  0  0
  190.7720  176.9090  142.2170 C   0  0  0  0  0  3  0  0  0  0  0  0
  191.1320  177.1800  140.9640 C   0  0  0  0  0  0  0  0  0  0  0  0
  192.3000  177.9010  140.7360 O   0  0  0  0  0  1  0  0  0  0  0  0
  190.3100  176.7350  139.7940 C   0  0  0  0  0  2  0  0  0  0  0  0
  191.1830  176.5920  138.5620 C   0  0  0  0  0  2  0  0  0  0  0  0
  191.1970  175.1440  138.1360 C   0  0  0  0  0  2  0  0  0  0  0  0
  192.4000  174.8970  137.2450 C   0  0  0  0  0  2  0  0  0  0  0  0
  192.9450  176.2160  136.7370 C   0  0  0  0  0  2  0  0  0  0  0  0
  193.6710  176.0320  135.4050 C   0  0  0  0  0  2  0  0  0  0  0  0
  195.0520  176.6770  135.4210 C   0  0  0  0  0  2  0  0  0  0  0  0
  197.3360  176.0290  134.8010 C   0  0  2  0  0  3  0  0  0  0  0  0
  198.1770  174.8100  134.4970 C   0  0  0  0  0  1  0  0  0  0  0  0
  197.2540  176.1900  136.1970 O   0  0  0  0  0  0  0  0  0  0  0  0
  196.1330  175.6250  135.5640 C   0  0  1  0  0  3  0  0  0  0  0  0
  2  6  1  0  0  0  0
  2  3  1  0  0  0  0
  3  5  2  0  0  0  0
  4  7  1  0  0  0  0
  4  8  2  0  0  0  0
  5 10  1  0  0  0  0
  6  9  1  0  0  0  0
  7  2  2  0  0  0  0
  8 11  1  0  0  0  0
  8  3  1  0  0  0  0
  9  1  2  0  0  0  0
  9 10  1  0  0  0  0
 12  7  1  0  0  0  0
 13 21  1  6  0  0  0
 13 12  1  0  0  0  0
 16 13  1  1  0  0  0
 16 19  1  0  0  0  0
 17 16  1  0  0  0  0
 18 17  1  0  0  0  0
 18 20  1  0  0  0  0
 19 15  1  0  0  0  0
 19 14  2  0  0  0  0
 20 15  2  0  0  0  0
 22 21  1  0  0  0  0
 23 25  1  0  0  0  0
 24 25  1  0  0  0  0
 25 22  1  0  0  0  0
 26  4  1  0  0  0  0
 27 26  1  0  0  0  0
 28 27  2  0  0  0  0
 29 28  1  0  0  0  0
 30 28  1  0  0  0  0
 31 30  1  0  0  0  0
 32 31  1  0  0  0  0
 33 32  1  0  0  0  0
 34 33  1  0  0  0  0
 35 36  1  0  0  0  0
 35 34  1  0  0  0  0
 37 38  1  1  0  0  0
 37 40  1  0  0  0  0
 37 39  1  0  0  0  0
 40 36  1  6  0  0  0
 40 39  1  0  0  0  0
M  END
>  <MODEL>
1

>  <REMARK>
 VINA RESULT:      -7.8      0.000      0.000
  Name = 
  16 active torsions:
  status: ('A' for Active; 'I' for Inactive)
    1  A    between atoms: C_3  and  C_12
    2  A    between atoms: C_3  and  C_34
    3  A    between atoms: C_4  and  C_14
    4  A    between atoms: C_4  and  C_17
    5  A    between atoms: C_5  and  C_20
    6  A    between atoms: C_7  and  C_23
    7  A    between atoms: C_10  and  C_20
    8  A    between atoms: C_11  and  C_19
    9  A    between atoms: C_11  and  C_22
   10  A    between atoms: C_11  and  C_31
   11  A    between atoms: C_12  and  C_14
   12  A    between atoms: C_22  and  N_35
   13  A    between atoms: C_23  and  C_38
   14  A    between atoms: C_24  and  C_31
   15  A    between atoms: C_34  and  C_38
   16  A    between atoms: N_35  and  C_40
                            x       y       z     vdW  Elec       q    Type
                         _______ _______ _______ _____ _____    ______ ____

>  <TORSDO>
F 16

$$$$
=
 OpenBabel10232412493D

 40 43  0  0  1  0  0  0  0  0999 V2000
  185.3320  178.8480  147.2360 N   0  0  0  0  0  2  0  0  0  0  0  0
  186.2050  178.2540  143.7780 C   0  0  0  0  0  0  0  0  0  0  0  0
  187.5250  177.7060  144.0220 C   0  0  0  0  0  0  0  0  0  0  0  0
  187.3930  178.2440  141.8500 C   0  0  0  0  0  0  0  0  0  0  0  0
  187.9600  177.3250  145.2180 C   0  0  0  0  0  3  0  0  0  0  0  0
  185.2020  178.4670  144.8590 C   0  0  0  0  0  2  0  0  0  0  0  0
  186.1050  178.5500  142.4910 C   0  0  0  0  0  0  0  0  0  0  0  0
  188.2270  177.7410  142.7600 C   0  0  0  0  0  0  0  0  0  0  0  0
  185.8820  178.3330  146.2020 C   0  0  0  0  0  0  0  0  0  0  0  0
  187.0100  177.3390  146.3940 C   0  0  0  0  0  2  0  0  0  0  0  0
  189.5160  177.3850  142.5410 F   0  0  0  0  0  0  0  0  0  0  0  0
  184.9240  179.1810  141.8190 C   0  0  0  0  0  2  0  0  0  0  0  0
  183.8360  178.1530  141.4850 C   0  0  2  0  0  3  0  0  0  0  0  0
  184.4100  179.8850  139.1870 O   0  0  0  0  0  0  0  0  0  0  0  0
  183.1000  178.5600  137.7560 C   0  0  0  0  0  3  0  0  0  0  0  0
  183.9730  177.6580  140.0310 C   0  0  1  0  0  3  0  0  0  0  0  0
  182.9420  176.5510  139.7470 C   0  0  0  0  0  2  0  0  0  0  0  0
  182.9520  176.1580  138.2740 C   0  0  0  0  0  2  0  0  0  0  0  0
  183.8370  178.7790  139.0120 C   0  0  0  0  0  0  0  0  0  0  0  0
  182.6550  177.3490  137.4210 C   0  0  0  0  0  3  0  0  0  0  0  0
  182.4720  178.7840  141.7270 C   0  0  0  0  0  2  0  0  0  0  0  0
  182.2050  178.8320  143.1610 N   0  0  0  0  0  2  0  0  0  0  0  0
  179.9890  178.0650  142.8920 O   0  0  0  0  0  1  0  0  0  0  0  0
  180.4080  180.3200  142.8430 O   0  0  0  0  0  1  0  0  0  0  0  0
  180.7840  179.0930  143.4020 C   0  0  0  0  0  3  0  0  0  0  0  0
  187.7120  178.4830  140.4120 C   0  0  0  0  0  2  0  0  0  0  0  0
  188.5540  177.3750  139.8640 C   0  0  0  0  0  3  0  0  0  0  0  0
  189.2550  177.4930  138.7380 C   0  0  0  0  0  0  0  0  0  0  0  0
  190.0350  176.4240  138.3110 O   0  0  0  0  0  1  0  0  0  0  0  0
  189.2310  178.7500  137.9240 C   0  0  0  0  0  2  0  0  0  0  0  0
  188.5260  178.5060  136.6020 C   0  0  0  0  0  2  0  0  0  0  0  0
  187.0350  178.4920  136.8380 C   0  0  0  0  0  2  0  0  0  0  0  0
  186.4360  177.2690  136.1690 C   0  0  0  0  0  2  0  0  0  0  0  0
  186.4020  176.1110  137.1460 C   0  0  0  0  0  2  0  0  0  0  0  0
  186.0140  174.8110  136.4420 C   0  0  0  0  0  2  0  0  0  0  0  0
  185.7190  173.6970  137.4390 C   0  0  0  0  0  2  0  0  0  0  0  0
  183.6140  172.5110  137.0100 C   0  0  2  0  0  3  0  0  0  0  0  0
  183.0640  171.1190  136.7960 C   0  0  0  0  0  1  0  0  0  0  0  0
  184.1460  172.9830  135.7940 O   0  0  0  0  0  0  0  0  0  0  0  0
  185.0710  172.5160  136.7450 C   0  0  1  0  0  3  0  0  0  0  0  0
  2  3  1  0  0  0  0
  2  6  1  0  0  0  0
  3  5  2  0  0  0  0
  4  7  1  0  0  0  0
  4  8  2  0  0  0  0
  5 10  1  0  0  0  0
  6  9  1  0  0  0  0
  7  2  2  0  0  0  0
  8  3  1  0  0  0  0
  9 10  1  0  0  0  0
  9  1  2  0  0  0  0
 11  8  1  0  0  0  0
 12  7  1  0  0  0  0
 13 21  1  6  0  0  0
 13 12  1  0  0  0  0
 15 19  1  0  0  0  0
 16 13  1  1  0  0  0
 17 16  1  0  0  0  0
 18 17  1  0  0  0  0
 19 14  2  0  0  0  0
 19 16  1  0  0  0  0
 20 15  2  0  0  0  0
 20 18  1  0  0  0  0
 21 22  1  0  0  0  0
 22 25  1  0  0  0  0
 23 25  1  0  0  0  0
 24 25  1  0  0  0  0
 26  4  1  0  0  0  0
 27 26  1  0  0  0  0
 28 27  2  0  0  0  0
 29 28  1  0  0  0  0
 30 28  1  0  0  0  0
 31 32  1  0  0  0  0
 31 30  1  0  0  0  0
 33 32  1  0  0  0  0
 33 34  1  0  0  0  0
 35 34  1  0  0  0  0
 35 36  1  0  0  0  0
 37 38  1  6  0  0  0
 39 40  1  0  0  0  0
 39 37  1  0  0  0  0
 40 37  1  0  0  0  0
 40 36  1  1  0  0  0
M  END
>  <MODEL>
2

>  <REMARK>
 VINA RESULT:      -7.8      3.822      6.302
  Name = 
  16 active torsions:
  status: ('A' for Active; 'I' for Inactive)
    1  A    between atoms: C_3  and  C_12
    2  A    between atoms: C_3  and  C_34
    3  A    between atoms: C_4  and  C_14
    4  A    between atoms: C_4  and  C_17
    5  A    between atoms: C_5  and  C_20
    6  A    between atoms: C_7  and  C_23
    7  A    between atoms: C_10  and  C_20
    8  A    between atoms: C_11  and  C_19
    9  A    between atoms: C_11  and  C_22
   10  A    between atoms: C_11  and  C_31
   11  A    between atoms: C_12  and  C_14
   12  A    between atoms: C_22  and  N_35
   13  A    between atoms: C_23  and  C_38
   14  A    between atoms: C_24  and  C_31
   15  A    between atoms: C_34  and  C_38
   16  A    between atoms: N_35  and  C_40
                            x       y       z     vdW  Elec       q    Type
                         _______ _______ _______ _____ _____    ______ ____

>  <TORSDO>
F 16

$$$$
=
 OpenBabel10232412493D

 40 43  0  0  1  0  0  0  0  0999 V2000
  188.4740  177.7760  148.5380 N   0  0  0  0  0  2  0  0  0  0  0  0
  188.7430  177.1890  144.9810 C   0  0  0  0  0  0  0  0  0  0  0  0
  190.1920  177.1830  144.9130 C   0  0  0  0  0  0  0  0  0  0  0  0
  189.4060  177.4140  142.8270 C   0  0  0  0  0  0  0  0  0  0  0  0
  190.9830  177.1090  145.9770 C   0  0  0  0  0  3  0  0  0  0  0  0
  187.9910  177.1340  146.2650 C   0  0  0  0  0  2  0  0  0  0  0  0
  188.2660  177.2980  143.7500 C   0  0  0  0  0  0  0  0  0  0  0  0
  190.5410  177.3410  143.5210 C   0  0  0  0  0  0  0  0  0  0  0  0
  188.9430  177.3920  147.4110 C   0  0  0  0  0  0  0  0  0  0  0  0
  190.3730  176.8980  147.3440 C   0  0  0  0  0  2  0  0  0  0  0  0
  191.7910  177.4540  143.0070 F   0  0  0  0  0  0  0  0  0  0  0  0
  186.8210  177.3870  143.3680 C   0  0  0  0  0  2  0  0  0  0  0  0
  186.4630  178.7620  142.7920 C   0  0  2  0  0  3  0  0  0  0  0  0
  186.1060  179.4650  145.6190 O   0  0  0  0  0  0  0  0  0  0  0  0
  183.8660  178.7580  145.5990 C   0  0  0  0  0  3  0  0  0  0  0  0
  185.1480  179.2900  143.4020 C   0  0  1  0  0  3  0  0  0  0  0  0
  183.9420  178.5690  142.7730 C   0  0  0  0  0  2  0  0  0  0  0  0
  182.6450  178.9610  143.4710 C   0  0  0  0  0  2  0  0  0  0  0  0
  185.1080  179.1610  144.9170 C   0  0  0  0  0  0  0  0  0  0  0  0
  182.7230  178.6290  144.9260 C   0  0  0  0  0  3  0  0  0  0  0  0
  186.3610  178.6490  141.2770 C   0  0  0  0  0  2  0  0  0  0  0  0
  185.3610  179.5910  140.7850 N   0  0  0  0  0  2  0  0  0  0  0  0
  185.8850  178.6230  138.6970 O   0  0  0  0  0  1  0  0  0  0  0  0
  184.2460  180.2240  138.8090 O   0  0  0  0  0  1  0  0  0  0  0  0
  184.8590  179.1580  139.4780 C   0  0  0  0  0  3  0  0  0  0  0  0
  189.2960  177.6040  141.3510 C   0  0  0  0  0  2  0  0  0  0  0  0
  190.1670  176.6300  140.6240 C   0  0  0  0  0  3  0  0  0  0  0  0
  190.0550  176.4010  139.3160 C   0  0  0  0  0  0  0  0  0  0  0  0
  190.9230  175.4990  138.7100 O   0  0  0  0  0  1  0  0  0  0  0  0
  189.0240  177.0950  138.4810 C   0  0  0  0  0  2  0  0  0  0  0  0
  189.6600  177.6590  137.2230 C   0  0  0  0  0  2  0  0  0  0  0  0
  188.6320  178.4730  136.4770 C   0  0  0  0  0  2  0  0  0  0  0  0
  188.1620  177.6930  135.2630 C   0  0  0  0  0  2  0  0  0  0  0  0
  186.6990  177.9850  134.9970 C   0  0  0  0  0  2  0  0  0  0  0  0
  185.8170  176.8200  135.4450 C   0  0  0  0  0  2  0  0  0  0  0  0
  186.6220  175.5380  135.6220 C   0  0  0  0  0  2  0  0  0  0  0  0
  185.8990  173.4490  136.6860 C   0  0  2  0  0  3  0  0  0  0  0  0
  185.0650  172.9370  137.8390 C   0  0  0  0  0  1  0  0  0  0  0  0
  187.1720  173.8080  137.1680 O   0  0  0  0  0  0  0  0  0  0  0  0
  186.2710  174.8610  136.9310 C   0  0  1  0  0  3  0  0  0  0  0  0
  2  6  1  0  0  0  0
  3  2  1  0  0  0  0
  3  5  2  0  0  0  0
  4  8  2  0  0  0  0
  4  7  1  0  0  0  0
  5 10  1  0  0  0  0
  6  9  1  0  0  0  0
  7  2  2  0  0  0  0
  8  3  1  0  0  0  0
  9  1  2  0  0  0  0
 10  9  1  0  0  0  0
 11  8  1  0  0  0  0
 12  7  1  0  0  0  0
 13 21  1  6  0  0  0
 13 12  1  0  0  0  0
 16 13  1  6  0  0  0
 16 19  1  0  0  0  0
 17 16  1  0  0  0  0
 17 18  1  0  0  0  0
 18 20  1  0  0  0  0
 19 15  1  0  0  0  0
 19 14  2  0  0  0  0
 20 15  2  0  0  0  0
 22 21  1  0  0  0  0
 23 25  1  0  0  0  0
 24 25  1  0  0  0  0
 25 22  1  0  0  0  0
 26  4  1  0  0  0  0
 27 26  1  0  0  0  0
 28 27  2  0  0  0  0
 29 28  1  0  0  0  0
 30 28  1  0  0  0  0
 31 30  1  0  0  0  0
 32 31  1  0  0  0  0
 33 32  1  0  0  0  0
 34 33  1  0  0  0  0
 34 35  1  0  0  0  0
 35 36  1  0  0  0  0
 37 40  1  0  0  0  0
 37 39  1  0  0  0  0
 37 38  1  1  0  0  0
 40 36  1  6  0  0  0
 40 39  1  0  0  0  0
M  END
>  <MODEL>
3

>  <REMARK>
 VINA RESULT:      -7.7      3.214      4.727
  Name = 
  16 active torsions:
  status: ('A' for Active; 'I' for Inactive)
    1  A    between atoms: C_3  and  C_12
    2  A    between atoms: C_3  and  C_34
    3  A    between atoms: C_4  and  C_14
    4  A    between atoms: C_4  and  C_17
    5  A    between atoms: C_5  and  C_20
    6  A    between atoms: C_7  and  C_23
    7  A    between atoms: C_10  and  C_20
    8  A    between atoms: C_11  and  C_19
    9  A    between atoms: C_11  and  C_22
   10  A    between atoms: C_11  and  C_31
   11  A    between atoms: C_12  and  C_14
   12  A    between atoms: C_22  and  N_35
   13  A    between atoms: C_23  and  C_38
   14  A    between atoms: C_24  and  C_31
   15  A    between atoms: C_34  and  C_38
   16  A    between atoms: N_35  and  C_40
                            x       y       z     vdW  Elec       q    Type
                         _______ _______ _______ _____ _____    ______ ____

>  <TORSDO>
F 16

$$$$
=
 OpenBabel10232412493D

 40 43  0  0  1  0  0  0  0  0999 V2000
  185.9560  179.5480  147.9150 N   0  0  0  0  0  2  0  0  0  0  0  0
  187.3320  177.4960  145.2740 C   0  0  0  0  0  0  0  0  0  0  0  0
  188.6350  177.2870  145.8760 C   0  0  0  0  0  0  0  0  0  0  0  0
  188.7740  176.7150  143.7130 C   0  0  0  0  0  0  0  0  0  0  0  0
  188.9210  177.5690  147.1420 C   0  0  0  0  0  3  0  0  0  0  0  0
  186.1790  178.0760  146.0180 C   0  0  0  0  0  2  0  0  0  0  0  0
  187.3940  177.1360  144.0020 C   0  0  0  0  0  0  0  0  0  0  0  0
  189.5010  176.8030  144.8270 C   0  0  0  0  0  0  0  0  0  0  0  0
  186.6730  178.6730  147.3160 C   0  0  0  0  0  0  0  0  0  0  0  0
  187.8180  178.0270  148.0690 C   0  0  0  0  0  2  0  0  0  0  0  0
  190.8270  176.5380  144.9290 F   0  0  0  0  0  0  0  0  0  0  0  0
  186.2840  177.2310  143.0010 C   0  0  0  0  0  2  0  0  0  0  0  0
  186.2440  178.6020  142.3160 C   0  0  2  0  0  3  0  0  0  0  0  0
  184.9640  180.4280  144.2240 O   0  0  0  0  0  0  0  0  0  0  0  0
  182.8660  179.4190  143.9110 C   0  0  0  0  0  3  0  0  0  0  0  0
  184.7940  179.1170  142.1960 C   0  0  1  0  0  3  0  0  0  0  0  0
  183.8740  177.9980  141.6770 C   0  0  0  0  0  2  0  0  0  0  0  0
  182.4140  178.4350  141.7010 C   0  0  0  0  0  2  0  0  0  0  0  0
  184.2580  179.6770  143.5050 C   0  0  0  0  0  0  0  0  0  0  0  0
  182.0110  178.8100  143.0900 C   0  0  0  0  0  3  0  0  0  0  0  0
  186.9040  178.4880  140.9490 C   0  0  0  0  0  2  0  0  0  0  0  0
  186.0220  179.0560  139.9340 N   0  0  0  0  0  2  0  0  0  0  0  0
  187.0410  178.6840  137.8380 O   0  0  0  0  0  1  0  0  0  0  0  0
  184.8050  178.2380  138.0910 O   0  0  0  0  0  1  0  0  0  0  0  0
  186.0550  178.2370  138.7200 C   0  0  0  0  0  3  0  0  0  0  0  0
  189.2750  176.2810  142.3760 C   0  0  0  0  0  2  0  0  0  0  0  0
  190.6720  176.7630  142.1500 C   0  0  0  0  0  3  0  0  0  0  0  0
  191.0870  177.2450  140.9800 C   0  0  0  0  0  0  0  0  0  0  0  0
  192.3970  177.6990  140.8610 O   0  0  0  0  0  1  0  0  0  0  0  0
  190.1790  177.3170  139.7920 C   0  0  0  0  0  2  0  0  0  0  0  0
  190.7380  176.4850  138.6520 C   0  0  0  0  0  2  0  0  0  0  0  0
  189.9730  176.8030  137.3910 C   0  0  0  0  0  2  0  0  0  0  0  0
  189.0190  175.6620  137.0850 C   0  0  0  0  0  2  0  0  0  0  0  0
  188.4540  175.8240  135.6890 C   0  0  0  0  0  2  0  0  0  0  0  0
  186.9260  175.8140  135.7120 C   0  0  0  0  0  2  0  0  0  0  0  0
  186.3850  175.0390  136.9070 C   0  0  0  0  0  2  0  0  0  0  0  0
  184.4590  173.5540  137.2360 C   0  0  2  0  0  3  0  0  0  0  0  0
  184.0700  172.0940  137.1840 C   0  0  0  0  0  1  0  0  0  0  0  0
  184.4320  174.0800  135.9300 O   0  0  0  0  0  0  0  0  0  0  0  0
  185.6980  173.7660  136.4540 C   0  0  1  0  0  3  0  0  0  0  0  0
  2  3  1  0  0  0  0
  2  6  1  0  0  0  0
  3  5  2  0  0  0  0
  4  7  1  0  0  0  0
  4  8  2  0  0  0  0
  5 10  1  0  0  0  0
  6  9  1  0  0  0  0
  7  2  2  0  0  0  0
  8 11  1  0  0  0  0
  8  3  1  0  0  0  0
  9  1  2  0  0  0  0
  9 10  1  0  0  0  0
 12  7  1  0  0  0  0
 13 21  1  6  0  0  0
 13 12  1  0  0  0  0
 16 13  1  1  0  0  0
 16 19  1  0  0  0  0
 17 18  1  0  0  0  0
 17 16  1  0  0  0  0
 18 20  1  0  0  0  0
 19 15  1  0  0  0  0
 19 14  2  0  0  0  0
 20 15  2  0  0  0  0
 22 21  1  0  0  0  0
 23 25  1  0  0  0  0
 24 25  1  0  0  0  0
 25 22  1  0  0  0  0
 26  4  1  0  0  0  0
 27 26  1  0  0  0  0
 28 27  2  0  0  0  0
 29 28  1  0  0  0  0
 30 28  1  0  0  0  0
 31 30  1  0  0  0  0
 32 31  1  0  0  0  0
 33 32  1  0  0  0  0
 34 35  1  0  0  0  0
 34 33  1  0  0  0  0
 35 36  1  0  0  0  0
 37 38  1  6  0  0  0
 39 40  1  0  0  0  0
 39 37  1  0  0  0  0
 40 36  1  1  0  0  0
 40 37  1  0  0  0  0
M  END
>  <MODEL>
4

>  <REMARK>
 VINA RESULT:      -7.6      2.697      4.588
  Name = 
  16 active torsions:
  status: ('A' for Active; 'I' for Inactive)
    1  A    between atoms: C_3  and  C_12
    2  A    between atoms: C_3  and  C_34
    3  A    between atoms: C_4  and  C_14
    4  A    between atoms: C_4  and  C_17
    5  A    between atoms: C_5  and  C_20
    6  A    between atoms: C_7  and  C_23
    7  A    between atoms: C_10  and  C_20
    8  A    between atoms: C_11  and  C_19
    9  A    between atoms: C_11  and  C_22
   10  A    between atoms: C_11  and  C_31
   11  A    between atoms: C_12  and  C_14
   12  A    between atoms: C_22  and  N_35
   13  A    between atoms: C_23  and  C_38
   14  A    between atoms: C_24  and  C_31
   15  A    between atoms: C_34  and  C_38
   16  A    between atoms: N_35  and  C_40
                            x       y       z     vdW  Elec       q    Type
                         _______ _______ _______ _____ _____    ______ ____

>  <TORSDO>
F 16

$$$$
=
 OpenBabel10232412493D

 40 43  0  0  1  0  0  0  0  0999 V2000
  186.2660  178.0230  146.7280 N   0  0  0  0  0  2  0  0  0  0  0  0
  185.5740  178.8210  143.2700 C   0  0  0  0  0  0  0  0  0  0  0  0
  184.1340  178.6510  143.3360 C   0  0  0  0  0  0  0  0  0  0  0  0
  184.7290  178.6690  141.1750 C   0  0  0  0  0  0  0  0  0  0  0  0
  183.4510  178.5520  144.4700 C   0  0  0  0  0  3  0  0  0  0  0  0
  186.4400  178.8790  144.4810 C   0  0  0  0  0  2  0  0  0  0  0  0
  185.9340  178.8600  141.9970 C   0  0  0  0  0  0  0  0  0  0  0  0
  183.6680  178.5500  141.9730 C   0  0  0  0  0  0  0  0  0  0  0  0
  185.6450  178.4240  145.6840 C   0  0  0  0  0  0  0  0  0  0  0  0
  184.1670  178.7390  145.7880 C   0  0  0  0  0  2  0  0  0  0  0  0
  182.3950  178.3180  141.5680 F   0  0  0  0  0  0  0  0  0  0  0  0
  187.3340  178.9790  141.4780 C   0  0  0  0  0  2  0  0  0  0  0  0
  187.9880  177.6080  141.2690 C   0  0  2  0  0  3  0  0  0  0  0  0
  187.9840  175.5180  143.3290 O   0  0  0  0  0  0  0  0  0  0  0  0
  189.1630  176.8820  144.8340 C   0  0  0  0  0  3  0  0  0  0  0  0
  189.1270  177.3790  142.2840 C   0  0  1  0  0  3  0  0  0  0  0  0
  189.7000  178.7280  142.7530 C   0  0  0  0  0  2  0  0  0  0  0  0
  190.7170  178.5320  143.8720 C   0  0  0  0  0  2  0  0  0  0  0  0
  188.6910  176.5470  143.4800 C   0  0  0  0  0  0  0  0  0  0  0  0
  190.0810  177.8300  145.0280 C   0  0  0  0  0  3  0  0  0  0  0  0
  188.4990  177.5200  139.8370 C   0  0  0  0  0  2  0  0  0  0  0  0
  188.5300  178.8550  139.2490 N   0  0  0  0  0  2  0  0  0  0  0  0
  188.0730  179.2900  136.9740 O   0  0  0  0  0  1  0  0  0  0  0  0
  189.3590  177.4730  137.5320 O   0  0  0  0  0  1  0  0  0  0  0  0
  189.0200  178.7880  137.8700 C   0  0  0  0  0  3  0  0  0  0  0  0
  184.7120  178.5980  139.6840 C   0  0  0  0  0  2  0  0  0  0  0  0
  183.8750  179.6970  139.1100 C   0  0  0  0  0  3  0  0  0  0  0  0
  182.7290  179.4700  138.4710 C   0  0  0  0  0  0  0  0  0  0  0  0
  181.9960  180.5500  137.9900 O   0  0  0  0  0  1  0  0  0  0  0  0
  182.2050  178.0820  138.2630 C   0  0  0  0  0  2  0  0  0  0  0  0
  181.0080  178.1070  137.3290 C   0  0  0  0  0  2  0  0  0  0  0  0
  181.0280  176.8650  136.4730 C   0  0  0  0  0  2  0  0  0  0  0  0
  182.4340  176.6420  135.9490 C   0  0  0  0  0  2  0  0  0  0  0  0
  182.6950  175.1590  135.7870 C   0  0  0  0  0  2  0  0  0  0  0  0
  182.7370  174.4580  137.1450 C   0  0  0  0  0  2  0  0  0  0  0  0
  184.1270  174.5190  137.7680 C   0  0  0  0  0  2  0  0  0  0  0  0
  186.1740  175.5840  136.9320 C   0  0  2  0  0  3  0  0  0  0  0  0
  186.8970  175.9060  135.6440 C   0  0  0  0  0  1  0  0  0  0  0  0
  186.4470  174.2490  137.2870 O   0  0  0  0  0  0  0  0  0  0  0  0
  185.1970  174.4970  136.6940 C   0  0  1  0  0  3  0  0  0  0  0  0
  2  3  1  0  0  0  0
  2  6  1  0  0  0  0
  3  5  2  0  0  0  0
  4  8  2  0  0  0  0
  4  7  1  0  0  0  0
  5 10  1  0  0  0  0
  6  9  1  0  0  0  0
  7  2  2  0  0  0  0
  8  3  1  0  0  0  0
  9 10  1  0  0  0  0
  9  1  2  0  0  0  0
 11  8  1  0  0  0  0
 12  7  1  0  0  0  0
 13 21  1  6  0  0  0
 13 12  1  0  0  0  0
 14 19  2  0  0  0  0
 15 20  2  0  0  0  0
 16 13  1  6  0  0  0
 16 17  1  0  0  0  0
 16 19  1  0  0  0  0
 17 18  1  0  0  0  0
 18 20  1  0  0  0  0
 19 15  1  0  0  0  0
 22 21  1  0  0  0  0
 23 25  1  0  0  0  0
 24 25  1  0  0  0  0
 25 22  1  0  0  0  0
 26  4  1  0  0  0  0
 27 26  1  0  0  0  0
 28 27  2  0  0  0  0
 29 28  1  0  0  0  0
 30 28  1  0  0  0  0
 31 30  1  0  0  0  0
 32 31  1  0  0  0  0
 33 32  1  0  0  0  0
 34 33  1  0  0  0  0
 34 35  1  0  0  0  0
 35 36  1  0  0  0  0
 37 38  1  6  0  0  0
 37 39  1  0  0  0  0
 40 37  1  0  0  0  0
 40 39  1  0  0  0  0
 40 36  1  1  0  0  0
M  END
>  <MODEL>
5

>  <REMARK>
 VINA RESULT:      -7.5      4.204      7.381
  Name = 
  16 active torsions:
  status: ('A' for Active; 'I' for Inactive)
    1  A    between atoms: C_3  and  C_12
    2  A    between atoms: C_3  and  C_34
    3  A    between atoms: C_4  and  C_14
    4  A    between atoms: C_4  and  C_17
    5  A    between atoms: C_5  and  C_20
    6  A    between atoms: C_7  and  C_23
    7  A    between atoms: C_10  and  C_20
    8  A    between atoms: C_11  and  C_19
    9  A    between atoms: C_11  and  C_22
   10  A    between atoms: C_11  and  C_31
   11  A    between atoms: C_12  and  C_14
   12  A    between atoms: C_22  and  N_35
   13  A    between atoms: C_23  and  C_38
   14  A    between atoms: C_24  and  C_31
   15  A    between atoms: C_34  and  C_38
   16  A    between atoms: N_35  and  C_40
                            x       y       z     vdW  Elec       q    Type
                         _______ _______ _______ _____ _____    ______ ____

>  <TORSDO>
F 16

$$$$
=
 OpenBabel10232412493D

 40 43  0  0  1  0  0  0  0  0999 V2000
  191.0290  176.1150  139.3040 N   0  0  0  0  0  2  0  0  0  0  0  0
  187.9890  178.0710  139.2450 C   0  0  0  0  0  0  0  0  0  0  0  0
  187.8530  178.2270  140.6810 C   0  0  0  0  0  0  0  0  0  0  0  0
  185.8910  178.7670  139.7400 C   0  0  0  0  0  0  0  0  0  0  0  0
  188.8160  177.9470  141.5510 C   0  0  0  0  0  3  0  0  0  0  0  0
  189.2270  177.5530  138.5990 C   0  0  0  0  0  2  0  0  0  0  0  0
  186.8440  178.4130  138.6750 C   0  0  0  0  0  0  0  0  0  0  0  0
  186.4960  178.6580  140.9230 C   0  0  0  0  0  0  0  0  0  0  0  0
  190.1250  176.9490  139.6550 C   0  0  0  0  0  0  0  0  0  0  0  0
  190.1840  177.5510  141.0440 C   0  0  0  0  0  2  0  0  0  0  0  0
  185.9150  178.8640  142.1300 F   0  0  0  0  0  0  0  0  0  0  0  0
  186.5340  178.3570  137.2110 C   0  0  0  0  0  2  0  0  0  0  0  0
  185.9120  177.0150  136.8070 C   0  0  2  0  0  3  0  0  0  0  0  0
  186.7080  174.2420  137.3440 O   0  0  0  0  0  0  0  0  0  0  0  0
  188.8600  174.6040  136.4730 C   0  0  0  0  0  3  0  0  0  0  0  0
  186.8820  176.1990  135.9280 C   0  0  1  0  0  3  0  0  0  0  0  0
  188.0240  177.0980  135.4210 C   0  0  0  0  0  2  0  0  0  0  0  0
  189.0790  176.2800  134.6840 C   0  0  0  0  0  2  0  0  0  0  0  0
  187.4480  174.9840  136.6480 C   0  0  0  0  0  0  0  0  0  0  0  0
  189.6350  175.2260  135.5850 C   0  0  0  0  0  3  0  0  0  0  0  0
  184.6000  177.2810  136.0790 C   0  0  0  0  0  2  0  0  0  0  0  0
  183.5920  176.3280  136.5310 N   0  0  0  0  0  2  0  0  0  0  0  0
  182.2800  178.2880  136.6190 O   0  0  0  0  0  1  0  0  0  0  0  0
  181.3620  176.2950  137.2870 O   0  0  0  0  0  1  0  0  0  0  0  0
  182.2530  176.9090  136.4010 C   0  0  0  0  0  3  0  0  0  0  0  0
  184.4690  179.1610  139.5200 C   0  0  0  0  0  2  0  0  0  0  0  0
  183.5590  177.9880  139.6980 C   0  0  0  0  0  3  0  0  0  0  0  0
  182.5620  177.9780  140.5810 C   0  0  0  0  0  0  0  0  0  0  0  0
  181.7440  176.8560  140.6670 O   0  0  0  0  0  1  0  0  0  0  0  0
  182.2950  179.1450  141.4810 C   0  0  0  0  0  2  0  0  0  0  0  0
  181.1370  178.8370  142.4120 C   0  0  0  0  0  2  0  0  0  0  0  0
  181.6470  178.7880  143.8300 C   0  0  0  0  0  2  0  0  0  0  0  0
  183.1300  179.1100  143.8390 C   0  0  0  0  0  2  0  0  0  0  0  0
  183.7300  178.7440  145.1820 C   0  0  0  0  0  2  0  0  0  0  0  0
  185.1880  179.1920  145.2710 C   0  0  0  0  0  2  0  0  0  0  0  0
  186.0950  178.0670  145.7560 C   0  0  0  0  0  2  0  0  0  0  0  0
  188.4220  177.2900  145.7110 C   0  0  2  0  0  3  0  0  0  0  0  0
  189.7950  177.6970  145.2260 C   0  0  0  0  0  1  0  0  0  0  0  0
  187.7120  176.7160  144.6390 O   0  0  0  0  0  0  0  0  0  0  0  0
  187.3890  178.0440  144.9660 C   0  0  1  0  0  3  0  0  0  0  0  0
  1  9  2  0  0  0  0
  2  3  1  0  0  0  0
  3  8  1  0  0  0  0
  3  5  2  0  0  0  0
  4  8  2  0  0  0  0
  6  2  1  0  0  0  0
  6  9  1  0  0  0  0
  7  2  2  0  0  0  0
  7  4  1  0  0  0  0
  8 11  1  0  0  0  0
  9 10  1  0  0  0  0
 10  5  1  0  0  0  0
 12  7  1  0  0  0  0
 13 21  1  6  0  0  0
 13 12  1  0  0  0  0
 15 19  1  0  0  0  0
 16 19  1  0  0  0  0
 16 13  1  1  0  0  0
 17 16  1  0  0  0  0
 18 17  1  0  0  0  0
 18 20  1  0  0  0  0
 19 14  2  0  0  0  0
 20 15  2  0  0  0  0
 21 22  1  0  0  0  0
 25 22  1  0  0  0  0
 25 23  1  0  0  0  0
 25 24  1  0  0  0  0
 26 27  1  0  0  0  0
 26  4  1  0  0  0  0
 27 28  2  0  0  0  0
 28 29  1  0  0  0  0
 28 30  1  0  0  0  0
 30 31  1  0  0  0  0
 31 32  1  0  0  0  0
 32 33  1  0  0  0  0
 33 34  1  0  0  0  0
 34 35  1  0  0  0  0
 35 36  1  0  0  0  0
 37 38  1  6  0  0  0
 39 40  1  0  0  0  0
 39 37  1  0  0  0  0
 40 37  1  0  0  0  0
 40 36  1  1  0  0  0
M  END
>  <MODEL>
6

>  <REMARK>
 VINA RESULT:      -7.2      4.161      9.167
  Name = 
  16 active torsions:
  status: ('A' for Active; 'I' for Inactive)
    1  A    between atoms: C_3  and  C_12
    2  A    between atoms: C_3  and  C_34
    3  A    between atoms: C_4  and  C_14
    4  A    between atoms: C_4  and  C_17
    5  A    between atoms: C_5  and  C_20
    6  A    between atoms: C_7  and  C_23
    7  A    between atoms: C_10  and  C_20
    8  A    between atoms: C_11  and  C_19
    9  A    between atoms: C_11  and  C_22
   10  A    between atoms: C_11  and  C_31
   11  A    between atoms: C_12  and  C_14
   12  A    between atoms: C_22  and  N_35
   13  A    between atoms: C_23  and  C_38
   14  A    between atoms: C_24  and  C_31
   15  A    between atoms: C_34  and  C_38
   16  A    between atoms: N_35  and  C_40
                            x       y       z     vdW  Elec       q    Type
                         _______ _______ _______ _____ _____    ______ ____

>  <TORSDO>
F 16

$$$$
=
 OpenBabel10232412493D

 40 43  0  0  1  0  0  0  0  0999 V2000
  191.7830  176.8090  138.3720 N   0  0  0  0  0  2  0  0  0  0  0  0
  188.7720  177.9780  139.9960 C   0  0  0  0  0  0  0  0  0  0  0  0
  189.1230  177.5580  141.3400 C   0  0  0  0  0  0  0  0  0  0  0  0
  186.9250  177.9950  141.3060 C   0  0  0  0  0  0  0  0  0  0  0  0
  190.3420  177.1780  141.7020 C   0  0  0  0  0  3  0  0  0  0  0  0
  189.7500  178.0030  138.8730 C   0  0  0  0  0  2  0  0  0  0  0  0
  187.4800  178.2650  139.9700 C   0  0  0  0  0  0  0  0  0  0  0  0
  187.9030  177.5810  142.1110 C   0  0  0  0  0  0  0  0  0  0  0  0
  190.9950  177.2480  139.2790 C   0  0  0  0  0  0  0  0  0  0  0  0
  191.4810  177.2880  140.7130 C   0  0  0  0  0  2  0  0  0  0  0  0
  187.7550  177.1980  143.4040 F   0  0  0  0  0  0  0  0  0  0  0  0
  186.6940  178.6960  138.7700 C   0  0  0  0  0  2  0  0  0  0  0  0
  185.9620  177.5210  138.1110 C   0  0  2  0  0  3  0  0  0  0  0  0
  187.1330  174.9100  137.4610 O   0  0  0  0  0  0  0  0  0  0  0  0
  188.7660  175.8920  136.0860 C   0  0  0  0  0  3  0  0  0  0  0  0
  186.6010  177.1640  136.7530 C   0  0  1  0  0  3  0  0  0  0  0  0
  187.3900  178.3650  136.2050 C   0  0  0  0  0  2  0  0  0  0  0  0
  188.1590  177.9860  134.9440 C   0  0  0  0  0  2  0  0  0  0  0  0
  187.4940  175.9350  136.8280 C   0  0  0  0  0  0  0  0  0  0  0  0
  189.0980  176.8600  135.2330 C   0  0  0  0  0  3  0  0  0  0  0  0
  184.4920  177.8850  137.9500 C   0  0  0  0  0  2  0  0  0  0  0  0
  183.6620  176.7710  138.3980 N   0  0  0  0  0  2  0  0  0  0  0  0
  181.9820  176.1580  139.9370 O   0  0  0  0  0  1  0  0  0  0  0  0
  182.1850  178.3570  139.3190 O   0  0  0  0  0  1  0  0  0  0  0  0
  182.8750  177.1650  139.5690 C   0  0  0  0  0  3  0  0  0  0  0  0
  185.4880  178.1420  141.6820 C   0  0  0  0  0  2  0  0  0  0  0  0
  185.2460  179.4610  142.3440 C   0  0  0  0  0  3  0  0  0  0  0  0
  185.0610  179.5840  143.6570 C   0  0  0  0  0  0  0  0  0  0  0  0
  184.8690  180.8510  144.1980 O   0  0  0  0  0  1  0  0  0  0  0  0
  185.0630  178.3950  144.5680 C   0  0  0  0  0  2  0  0  0  0  0  0
  184.4140  178.7470  145.8940 C   0  0  0  0  0  2  0  0  0  0  0  0
  185.3580  178.3830  147.0130 C   0  0  0  0  0  2  0  0  0  0  0  0
  186.7490  178.1690  146.4450 C   0  0  0  0  0  2  0  0  0  0  0  0
  187.6500  177.5620  147.5000 C   0  0  0  0  0  2  0  0  0  0  0  0
  189.0790  178.0860  147.3680 C   0  0  0  0  0  2  0  0  0  0  0  0
  189.5860  177.9860  145.9340 C   0  0  0  0  0  2  0  0  0  0  0  0
  191.5790  176.7300  145.2480 C   0  0  2  0  0  3  0  0  0  0  0  0
  191.9900  175.4880  144.4890 C   0  0  0  0  0  1  0  0  0  0  0  0
  191.2200  176.3650  146.5600 O   0  0  0  0  0  0  0  0  0  0  0  0
  190.1640  176.6110  145.6650 C   0  0  1  0  0  3  0  0  0  0  0  0
  1  9  2  0  0  0  0
  2  3  1  0  0  0  0
  3  5  2  0  0  0  0
  3  8  1  0  0  0  0
  4 26  1  0  0  0  0
  4  8  2  0  0  0  0
  6  9  1  0  0  0  0
  6  2  1  0  0  0  0
  7  2  2  0  0  0  0
  7  4  1  0  0  0  0
  8 11  1  0  0  0  0
  9 10  1  0  0  0  0
 10  5  1  0  0  0  0
 12  7  1  0  0  0  0
 13 21  1  6  0  0  0
 13 12  1  0  0  0  0
 15 19  1  0  0  0  0
 16 19  1  0  0  0  0
 16 13  1  1  0  0  0
 17 16  1  0  0  0  0
 18 20  1  0  0  0  0
 18 17  1  0  0  0  0
 19 14  2  0  0  0  0
 20 15  2  0  0  0  0
 21 22  1  0  0  0  0
 22 25  1  0  0  0  0
 24 25  1  0  0  0  0
 25 23  1  0  0  0  0
 26 27  1  0  0  0  0
 27 28  2  0  0  0  0
 28 29  1  0  0  0  0
 28 30  1  0  0  0  0
 30 31  1  0  0  0  0
 31 32  1  0  0  0  0
 33 32  1  0  0  0  0
 33 34  1  0  0  0  0
 35 34  1  0  0  0  0
 36 35  1  0  0  0  0
 37 38  1  6  0  0  0
 37 40  1  0  0  0  0
 37 39  1  0  0  0  0
 40 36  1  1  0  0  0
 40 39  1  0  0  0  0
M  END
>  <MODEL>
7

>  <REMARK>
 VINA RESULT:      -7.0      3.927      8.300
  Name = 
  16 active torsions:
  status: ('A' for Active; 'I' for Inactive)
    1  A    between atoms: C_3  and  C_12
    2  A    between atoms: C_3  and  C_34
    3  A    between atoms: C_4  and  C_14
    4  A    between atoms: C_4  and  C_17
    5  A    between atoms: C_5  and  C_20
    6  A    between atoms: C_7  and  C_23
    7  A    between atoms: C_10  and  C_20
    8  A    between atoms: C_11  and  C_19
    9  A    between atoms: C_11  and  C_22
   10  A    between atoms: C_11  and  C_31
   11  A    between atoms: C_12  and  C_14
   12  A    between atoms: C_22  and  N_35
   13  A    between atoms: C_23  and  C_38
   14  A    between atoms: C_24  and  C_31
   15  A    between atoms: C_34  and  C_38
   16  A    between atoms: N_35  and  C_40
                            x       y       z     vdW  Elec       q    Type
                         _______ _______ _______ _____ _____    ______ ____

>  <TORSDO>
F 16

$$$$
=
 OpenBabel10232412493D

 40 43  0  0  1  0  0  0  0  0999 V2000
  184.7730  178.9370  146.5600 N   0  0  0  0  0  2  0  0  0  0  0  0
  186.1930  178.2110  143.3160 C   0  0  0  0  0  0  0  0  0  0  0  0
  187.4510  177.6680  143.7930 C   0  0  0  0  0  0  0  0  0  0  0  0
  187.6800  178.1250  141.6100 C   0  0  0  0  0  0  0  0  0  0  0  0
  187.6810  177.3300  145.0560 C   0  0  0  0  0  3  0  0  0  0  0  0
  185.0300  178.4680  144.2100 C   0  0  0  0  0  2  0  0  0  0  0  0
  186.3070  178.4600  142.0210 C   0  0  0  0  0  0  0  0  0  0  0  0
  188.3490  177.6540  142.6620 C   0  0  0  0  0  0  0  0  0  0  0  0
  185.4800  178.3810  145.6510 C   0  0  0  0  0  0  0  0  0  0  0  0
  186.5520  177.3920  146.0590 C   0  0  0  0  0  2  0  0  0  0  0  0
  189.6540  177.2840  142.6690 F   0  0  0  0  0  0  0  0  0  0  0  0
  185.2580  179.0690  141.1420 C   0  0  0  0  0  2  0  0  0  0  0  0
  184.1230  178.0850  140.8360 C   0  0  2  0  0  3  0  0  0  0  0  0
  182.5900  175.9210  139.5800 O   0  0  0  0  0  0  0  0  0  0  0  0
  184.0290  175.8650  137.7240 C   0  0  0  0  0  3  0  0  0  0  0  0
  183.9330  177.9180  139.3140 C   0  0  1  0  0  3  0  0  0  0  0  0
  185.2290  178.2870  138.5720 C   0  0  0  0  0  2  0  0  0  0  0  0
  185.1150  177.9790  137.0830 C   0  0  0  0  0  2  0  0  0  0  0  0
  183.4840  176.5170  138.9270 C   0  0  0  0  0  0  0  0  0  0  0  0
  184.8180  176.5290  136.8790 C   0  0  0  0  0  3  0  0  0  0  0  0
  182.8470  178.5840  141.5000 C   0  0  0  0  0  2  0  0  0  0  0  0
  182.0760  179.3710  140.5420 N   0  0  0  0  0  2  0  0  0  0  0  0
  180.3680  178.7400  142.0430 O   0  0  0  0  0  1  0  0  0  0  0  0
  180.1770  178.1740  139.8290 O   0  0  0  0  0  1  0  0  0  0  0  0
  180.6430  179.1350  140.7330 C   0  0  0  0  0  3  0  0  0  0  0  0
  188.2320  178.3090  140.2350 C   0  0  0  0  0  2  0  0  0  0  0  0
  189.4320  177.4430  140.0260 C   0  0  0  0  0  3  0  0  0  0  0  0
  189.5500  176.6140  138.9890 C   0  0  0  0  0  0  0  0  0  0  0  0
  190.7120  175.8620  138.8520 O   0  0  0  0  0  1  0  0  0  0  0  0
  188.4670  176.4770  137.9640 C   0  0  0  0  0  2  0  0  0  0  0  0
  188.7660  175.3130  137.0370 C   0  0  0  0  0  2  0  0  0  0  0  0
  188.7640  175.8090  135.6120 C   0  0  0  0  0  2  0  0  0  0  0  0
  190.0970  176.4700  135.3110 C   0  0  0  0  0  2  0  0  0  0  0  0
  191.1600  175.4130  135.0960 C   0  0  0  0  0  2  0  0  0  0  0  0
  192.4540  175.7810  135.8220 C   0  0  0  0  0  2  0  0  0  0  0  0
  192.9330  174.6530  136.7280 C   0  0  0  0  0  2  0  0  0  0  0  0
  194.8610  173.8810  138.0350 C   0  0  2  0  0  3  0  0  0  0  0  0
  195.7350  174.2820  139.2010 C   0  0  0  0  0  1  0  0  0  0  0  0
  195.3110  174.5460  136.8780 O   0  0  0  0  0  0  0  0  0  0  0  0
  194.1670  175.0750  137.5010 C   0  0  1  0  0  3  0  0  0  0  0  0
  2  3  1  0  0  0  0
  2  6  1  0  0  0  0
  3  5  2  0  0  0  0
  4  7  1  0  0  0  0
  4  8  2  0  0  0  0
  5 10  1  0  0  0  0
  6  9  1  0  0  0  0
  7  2  2  0  0  0  0
  8 11  1  0  0  0  0
  8  3  1  0  0  0  0
  9 10  1  0  0  0  0
  9  1  2  0  0  0  0
 12  7  1  0  0  0  0
 13 12  1  6  0  0  0
 13 21  1  0  0  0  0
 15 19  1  0  0  0  0
 16 13  1  1  0  0  0
 17 16  1  0  0  0  0
 18 17  1  0  0  0  0
 19 16  1  0  0  0  0
 19 14  2  0  0  0  0
 20 18  1  0  0  0  0
 20 15  2  0  0  0  0
 22 25  1  0  0  0  0
 22 21  1  0  0  0  0
 24 25  1  0  0  0  0
 25 23  1  0  0  0  0
 26  4  1  0  0  0  0
 27 26  1  0  0  0  0
 28 27  2  0  0  0  0
 29 28  1  0  0  0  0
 30 28  1  0  0  0  0
 31 30  1  0  0  0  0
 32 31  1  0  0  0  0
 33 32  1  0  0  0  0
 34 33  1  0  0  0  0
 34 35  1  0  0  0  0
 35 36  1  0  0  0  0
 37 38  1  1  0  0  0
 39 40  1  0  0  0  0
 39 37  1  0  0  0  0
 40 36  1  6  0  0  0
 40 37  1  0  0  0  0
M  END
>  <MODEL>
8

>  <REMARK>
 VINA RESULT:      -6.9      2.597      4.056
  Name = 
  16 active torsions:
  status: ('A' for Active; 'I' for Inactive)
    1  A    between atoms: C_3  and  C_12
    2  A    between atoms: C_3  and  C_34
    3  A    between atoms: C_4  and  C_14
    4  A    between atoms: C_4  and  C_17
    5  A    between atoms: C_5  and  C_20
    6  A    between atoms: C_7  and  C_23
    7  A    between atoms: C_10  and  C_20
    8  A    between atoms: C_11  and  C_19
    9  A    between atoms: C_11  and  C_22
   10  A    between atoms: C_11  and  C_31
   11  A    between atoms: C_12  and  C_14
   12  A    between atoms: C_22  and  N_35
   13  A    between atoms: C_23  and  C_38
   14  A    between atoms: C_24  and  C_31
   15  A    between atoms: C_34  and  C_38
   16  A    between atoms: N_35  and  C_40
                            x       y       z     vdW  Elec       q    Type
                         _______ _______ _______ _____ _____    ______ ____

>  <TORSDO>
F 16

$$$$
=
 OpenBabel10232412493D

 40 43  0  0  1  0  0  0  0  0999 V2000
  189.5750  172.5770  135.6000 N   0  0  0  0  0  2  0  0  0  0  0  0
  187.8710  175.3010  137.2570 C   0  0  0  0  0  0  0  0  0  0  0  0
  186.5180  174.8540  136.9840 C   0  0  0  0  0  0  0  0  0  0  0  0
  186.4190  177.0000  137.6230 C   0  0  0  0  0  0  0  0  0  0  0  0
  186.2140  173.6410  136.5380 C   0  0  0  0  0  2  0  0  0  0  0  0
  189.0680  174.4420  137.0410 C   0  0  0  0  0  2  0  0  0  0  0  0
  187.8230  176.5610  137.6620 C   0  0  2  0  0  3  0  0  0  0  0  0
  185.6530  175.9850  137.2250 C   0  0  0  0  0  0  0  0  0  0  0  0
  188.6720  173.2310  136.2280 C   0  0  0  0  0  0  0  0  0  0  0  0
  187.3050  172.6020  136.4070 C   0  0  0  0  0  2  0  0  0  0  0  0
  184.3120  176.0340  137.0300 F   0  0  0  0  0  0  0  0  0  0  0  0
  188.9980  177.4230  138.0070 C   0  0  0  0  0  2  0  0  0  0  0  0
  189.8500  176.8140  139.1260 C   0  0  2  0  0  3  0  0  0  0  0  0
  190.6720  175.7870  141.7490 O   0  0  0  0  0  0  0  0  0  0  0  0
  188.7960  176.7320  142.8010 C   0  0  0  0  0  3  0  0  0  0  0  0
  189.6010  177.5380  140.4650 C   0  0  1  0  0  3  0  0  0  0  0  0
  188.2190  178.2140  140.4560 C   0  0  0  0  0  2  0  0  0  0  0  0
  187.8860  178.8000  141.8240 C   0  0  0  0  0  2  0  0  0  0  0  0
  189.7290  176.6140  141.6670 C   0  0  0  0  0  0  0  0  0  0  0  0
  187.9120  177.7270  142.8640 C   0  0  0  0  0  3  0  0  0  0  0  0
  191.3170  176.8870  138.7230 C   0  0  0  0  0  2  0  0  0  0  0  0
  191.8440  175.5360  138.5600 N   0  0  0  0  0  2  0  0  0  0  0  0
  193.9940  176.1480  137.8010 O   0  0  0  0  0  1  0  0  0  0  0  0
  192.2560  176.0750  136.3050 O   0  0  0  0  0  1  0  0  0  0  0  0
  192.8060  175.4990  137.4560 C   0  0  0  0  0  3  0  0  0  0  0  0
  185.9420  178.3750  137.9570 C   0  0  0  0  0  2  0  0  0  0  0  0
  184.4540  178.4010  138.0970 C   0  0  0  0  0  3  0  0  0  0  0  0
  183.8440  178.6460  139.2550 C   0  0  0  0  0  0  0  0  0  0  0  0
  182.4540  178.6790  139.2940 O   0  0  0  0  0  1  0  0  0  0  0  0
  184.6150  178.8950  140.5140 C   0  0  0  0  0  2  0  0  0  0  0  0
  184.1130  177.9900  141.6250 C   0  0  0  0  0  2  0  0  0  0  0  0
  183.6180  178.8440  142.7660 C   0  0  0  0  0  2  0  0  0  0  0  0
  184.7890  179.2160  143.6560 C   0  0  0  0  0  2  0  0  0  0  0  0
  184.3610  179.1900  145.1100 C   0  0  0  0  0  2  0  0  0  0  0  0
  185.0650  178.0650  145.8680 C   0  0  0  0  0  2  0  0  0  0  0  0
  186.3550  178.5470  146.5210 C   0  0  0  0  0  2  0  0  0  0  0  0
  188.7230  178.0320  146.9100 C   0  0  2  0  0  3  0  0  0  0  0  0
  189.8660  177.2260  146.3370 C   0  0  0  0  0  1  0  0  0  0  0  0
  187.9190  177.1870  147.7000 O   0  0  0  0  0  0  0  0  0  0  0  0
  187.4370  177.4910  146.4150 C   0  0  1  0  0  3  0  0  0  0  0  0
  1  9  2  0  0  0  0
  2  7  1  0  0  0  0
  3  8  1  0  0  0  0
  3  2  2  0  0  0  0
  4  7  1  0  0  0  0
  4 26  1  0  0  0  0
  5  3  1  0  0  0  0
  6  2  1  0  0  0  0
  7 12  1  6  0  0  0
  8  4  2  0  0  0  0
  9 10  1  0  0  0  0
  9  6  1  0  0  0  0
 10  5  1  0  0  0  0
 11  8  1  0  0  0  0
 13 12  1  6  0  0  0
 15 20  2  0  0  0  0
 16 13  1  6  0  0  0
 16 19  1  0  0  0  0
 17 16  1  0  0  0  0
 17 18  1  0  0  0  0
 18 20  1  0  0  0  0
 19 14  2  0  0  0  0
 19 15  1  0  0  0  0
 21 13  1  0  0  0  0
 22 21  1  0  0  0  0
 24 25  1  0  0  0  0
 25 23  1  0  0  0  0
 25 22  1  0  0  0  0
 26 27  1  0  0  0  0
 27 28  2  0  0  0  0
 28 29  1  0  0  0  0
 28 30  1  0  0  0  0
 30 31  1  0  0  0  0
 31 32  1  0  0  0  0
 32 33  1  0  0  0  0
 33 34  1  0  0  0  0
 34 35  1  0  0  0  0
 35 36  1  0  0  0  0
 37 38  1  6  0  0  0
 37 39  1  0  0  0  0
 40 36  1  1  0  0  0
 40 37  1  0  0  0  0
 40 39  1  0  0  0  0
M  END
>  <MODEL>
9

>  <REMARK>
 VINA RESULT:      -6.8      3.605      9.591
  Name = 
  16 active torsions:
  status: ('A' for Active; 'I' for Inactive)
    1  A    between atoms: C_3  and  C_12
    2  A    between atoms: C_3  and  C_34
    3  A    between atoms: C_4  and  C_14
    4  A    between atoms: C_4  and  C_17
    5  A    between atoms: C_5  and  C_20
    6  A    between atoms: C_7  and  C_23
    7  A    between atoms: C_10  and  C_20
    8  A    between atoms: C_11  and  C_19
    9  A    between atoms: C_11  and  C_22
   10  A    between atoms: C_11  and  C_31
   11  A    between atoms: C_12  and  C_14
   12  A    between atoms: C_22  and  N_35
   13  A    between atoms: C_23  and  C_38
   14  A    between atoms: C_24  and  C_31
   15  A    between atoms: C_34  and  C_38
   16  A    between atoms: N_35  and  C_40
                            x       y       z     vdW  Elec       q    Type
                         _______ _______ _______ _____ _____    ______ ____

>  <TORSDO>
F 16

$$$$
