=
 OpenBabel10232407493D

 32 34  0  0  0  0  0  0  0  0999 V2000
  191.5240  177.4020  141.7460 C   0  0  0  0  0  0  0  0  0  0  0  0
  190.1290  177.1610  141.5390 N   0  0  0  0  0  2  0  0  0  0  0  0
  192.2750  177.6630  140.7660 O   0  0  0  0  0  0  0  0  0  0  0  0
  189.9030  177.3170  136.7340 F   0  0  0  0  0  0  0  0  0  0  0  0
  186.1450  178.7210  139.1880 N   0  0  0  0  0  0  0  0  0  0  0  0
  185.4780  178.9170  140.3600 C   0  0  0  0  0  0  0  0  0  0  0  0
  186.1270  178.6170  141.5680 C   0  0  0  0  0  0  0  0  0  0  0  0
  187.4030  178.1510  141.5480 N   0  0  0  0  0  0  0  0  0  0  0  0
  185.4370  178.8020  142.8760 C   0  0  0  0  0  1  0  0  0  0  0  0
  188.0470  178.0350  137.9810 N   0  0  0  0  0  0  0  0  0  0  0  0
  188.0760  177.9740  140.3810 C   0  0  0  0  0  0  0  0  0  0  0  0
  190.0000  177.2460  139.1110 C   0  0  0  0  0  3  0  0  0  0  0  0
  187.4190  178.2540  139.1660 C   0  0  0  0  0  0  0  0  0  0  0  0
  189.3110  177.5360  137.9310 C   0  0  0  0  0  0  0  0  0  0  0  0
  189.3970  177.4840  140.3490 C   0  0  0  0  0  0  0  0  0  0  0  0
  184.1620  179.4040  140.3800 O   0  0  0  0  0  0  0  0  0  0  0  0
  183.4300  179.8070  139.2550 C   0  0  0  0  0  0  0  0  0  0  0  0
  182.5010  178.8420  138.6150 C   0  0  0  0  0  1  0  0  0  0  0  0
  183.5400  180.9660  138.7750 O   0  0  0  0  0  0  0  0  0  0  0  0
  192.0420  177.2890  143.0420 O   0  0  0  0  0  0  0  0  0  0  0  0
  192.0240  175.1880  144.0030 O   0  0  0  0  0  0  0  0  0  0  0  0
  191.6030  176.3780  144.0130 C   0  0  0  0  0  0  0  0  0  0  0  0
  189.4370  177.3900  144.6630 C   0  0  0  0  0  3  0  0  0  0  0  0
  192.1320  176.0170  146.9960 C   0  0  0  0  0  1  0  0  0  0  0  0
  188.4910  177.8090  145.5980 C   0  0  0  0  0  3  0  0  0  0  0  0
  189.9290  177.0560  147.3830 C   0  0  0  0  0  3  0  0  0  0  0  0
  190.6440  176.7980  145.0670 C   0  0  0  0  0  0  0  0  0  0  0  0
  190.8860  176.6330  146.4550 C   0  0  0  0  0  0  0  0  0  0  0  0
  188.7300  177.6450  146.9650 C   0  0  0  0  0  0  0  0  0  0  0  0
  187.7310  178.0880  147.9500 C   0  0  0  0  0  0  0  0  0  0  0  0
  186.5220  178.6270  147.5270 O   0  0  0  0  0  0  0  0  0  0  0  0
  187.9600  177.9820  149.1840 O   0  0  0  0  0  1  0  0  0  0  0  0
  1 20  1  0  0  0  0
  2  1  1  0  0  0  0
  3  1  2  0  0  0  0
  4 14  1  0  0  0  0
  5  6  2  0  0  0  0
  6 16  1  0  0  0  0
  6  7  1  0  0  0  0
  7  9  1  0  0  0  0
  8  7  2  0  0  0  0
 10 13  1  0  0  0  0
 11  8  1  0  0  0  0
 12 15  2  0  0  0  0
 13  5  1  0  0  0  0
 13 11  2  0  0  0  0
 14 10  2  0  0  0  0
 14 12  1  0  0  0  0
 15 11  1  0  0  0  0
 15  2  1  0  0  0  0
 17 16  1  0  0  0  0
 18 17  1  0  0  0  0
 19 17  2  0  0  0  0
 20 22  1  0  0  0  0
 21 22  2  0  0  0  0
 22 27  1  0  0  0  0
 23 27  2  0  0  0  0
 23 25  1  0  0  0  0
 25 29  2  0  0  0  0
 27 28  1  0  0  0  0
 28 24  1  0  0  0  0
 28 26  2  0  0  0  0
 29 26  1  0  0  0  0
 29 30  1  0  0  0  0
 30 32  1  0  0  0  0
 31 30  2  0  0  0  0
M  END
>  <MODEL>
1

>  <REMARK>
 VINA RESULT:      -9.6      0.000      0.000
  Name = 
  7 active torsions:
  status: ('A' for Active; 'I' for Inactive)
    1  A    between atoms: C_5  and  O_10
    2  A    between atoms: C_6  and  C_21
    3  A    between atoms: O_10  and  C_15
    4  A    between atoms: C_17  and  C_29
    5  A    between atoms: C_19  and  O_30
    6  A    between atoms: N_22  and  C_31
    7  A    between atoms: C_29  and  O_30
                            x       y       z     vdW  Elec       q    Type
                         _______ _______ _______ _____ _____    ______ ____

>  <TORSDO>
F 7

$$$$
=
 OpenBabel10232407493D

 32 34  0  0  0  0  0  0  0  0999 V2000
  191.2440  176.7520  144.0110 C   0  0  0  0  0  0  0  0  0  0  0  0
  190.9030  177.7740  143.0700 N   0  0  0  0  0  2  0  0  0  0  0  0
  191.3430  175.5520  143.6350 O   0  0  0  0  0  0  0  0  0  0  0  0
  193.4030  176.6950  139.1010 F   0  0  0  0  0  0  0  0  0  0  0  0
  188.8750  177.8830  138.6300 N   0  0  0  0  0  0  0  0  0  0  0  0
  187.6620  178.2240  139.1460 C   0  0  0  0  0  0  0  0  0  0  0  0
  187.5310  178.3650  140.5370 C   0  0  0  0  0  0  0  0  0  0  0  0
  188.6120  178.1720  141.3360 N   0  0  0  0  0  0  0  0  0  0  0  0
  186.2220  178.7250  141.1510 C   0  0  0  0  0  1  0  0  0  0  0  0
  191.1470  177.3130  138.8890 N   0  0  0  0  0  0  0  0  0  0  0  0
  189.8290  177.8520  140.8210 C   0  0  0  0  0  0  0  0  0  0  0  0
  192.1540  177.2320  141.0550 C   0  0  0  0  0  3  0  0  0  0  0  0
  189.9570  177.6880  139.4280 C   0  0  0  0  0  0  0  0  0  0  0  0
  192.2350  177.0790  139.6690 C   0  0  0  0  0  0  0  0  0  0  0  0
  190.9540  177.6420  141.6430 C   0  0  0  0  0  0  0  0  0  0  0  0
  186.5470  178.4280  138.3190 O   0  0  0  0  0  0  0  0  0  0  0  0
  186.1690  177.6050  137.2490 C   0  0  0  0  0  0  0  0  0  0  0  0
  186.7870  177.8250  135.9160 C   0  0  0  0  0  1  0  0  0  0  0  0
  185.3200  176.6870  137.3890 O   0  0  0  0  0  0  0  0  0  0  0  0
  191.4090  177.1030  145.3560 O   0  0  0  0  0  0  0  0  0  0  0  0
  190.8350  176.2720  147.4340 O   0  0  0  0  0  0  0  0  0  0  0  0
  190.4780  176.8610  146.3770 C   0  0  0  0  0  0  0  0  0  0  0  0
  188.4330  177.0880  144.9970 C   0  0  0  0  0  3  0  0  0  0  0  0
  188.8980  178.1860  148.6260 C   0  0  0  0  0  1  0  0  0  0  0  0
  187.1080  177.4730  144.7900 C   0  0  0  0  0  3  0  0  0  0  0  0
  187.0000  178.2960  147.0560 C   0  0  0  0  0  3  0  0  0  0  0  0
  189.0660  177.2980  146.2330 C   0  0  0  0  0  0  0  0  0  0  0  0
  188.3280  177.9140  147.2750 C   0  0  0  0  0  0  0  0  0  0  0  0
  186.3820  178.0800  145.8180 C   0  0  0  0  0  0  0  0  0  0  0  0
  184.9860  178.4860  145.5980 C   0  0  0  0  0  0  0  0  0  0  0  0
  184.4500  178.4870  144.3160 O   0  0  0  0  0  0  0  0  0  0  0  0
  184.2610  178.8350  146.5680 O   0  0  0  0  0  1  0  0  0  0  0  0
  1 20  1  0  0  0  0
  2  1  1  0  0  0  0
  3  1  2  0  0  0  0
  4 14  1  0  0  0  0
  5  6  2  0  0  0  0
  5 13  1  0  0  0  0
  6  7  1  0  0  0  0
  7  9  1  0  0  0  0
  7  8  2  0  0  0  0
 10 13  2  0  0  0  0
 10 14  1  0  0  0  0
 11  8  1  0  0  0  0
 11 15  2  0  0  0  0
 12 15  1  0  0  0  0
 13 11  1  0  0  0  0
 14 12  2  0  0  0  0
 15  2  1  0  0  0  0
 16  6  1  0  0  0  0
 17 19  2  0  0  0  0
 17 16  1  0  0  0  0
 18 17  1  0  0  0  0
 20 22  1  0  0  0  0
 22 21  2  0  0  0  0
 23 27  1  0  0  0  0
 25 23  2  0  0  0  0
 25 29  1  0  0  0  0
 26 28  1  0  0  0  0
 27 22  1  0  0  0  0
 27 28  2  0  0  0  0
 28 24  1  0  0  0  0
 29 26  2  0  0  0  0
 30 29  1  0  0  0  0
 30 32  1  0  0  0  0
 31 30  2  0  0  0  0
M  END
>  <MODEL>
2

>  <REMARK>
 VINA RESULT:      -9.4      2.143      3.138
  Name = 
  7 active torsions:
  status: ('A' for Active; 'I' for Inactive)
    1  A    between atoms: C_5  and  O_10
    2  A    between atoms: C_6  and  C_21
    3  A    between atoms: O_10  and  C_15
    4  A    between atoms: C_17  and  C_29
    5  A    between atoms: C_19  and  O_30
    6  A    between atoms: N_22  and  C_31
    7  A    between atoms: C_29  and  O_30
                            x       y       z     vdW  Elec       q    Type
                         _______ _______ _______ _____ _____    ______ ____

>  <TORSDO>
F 7

$$$$
=
 OpenBabel10232407493D

 32 34  0  0  0  0  0  0  0  0999 V2000
  184.9760  178.9010  143.3590 C   0  0  0  0  0  0  0  0  0  0  0  0
  185.6920  179.5030  142.2760 N   0  0  0  0  0  2  0  0  0  0  0  0
  184.0660  178.0590  143.1260 O   0  0  0  0  0  0  0  0  0  0  0  0
  183.4390  178.9680  138.0570 F   0  0  0  0  0  0  0  0  0  0  0  0
  187.8690  177.4320  138.4280 N   0  0  0  0  0  0  0  0  0  0  0  0
  189.0310  177.2680  139.1200 C   0  0  0  0  0  0  0  0  0  0  0  0
  189.0980  177.7130  140.4490 C   0  0  0  0  0  0  0  0  0  0  0  0
  188.0070  178.2850  141.0220 N   0  0  0  0  0  0  0  0  0  0  0  0
  190.3490  177.5670  141.2450 C   0  0  0  0  0  1  0  0  0  0  0  0
  185.6440  178.1880  138.2730 N   0  0  0  0  0  0  0  0  0  0  0  0
  186.8400  178.4310  140.3400 C   0  0  0  0  0  0  0  0  0  0  0  0
  184.5660  179.2260  140.1370 C   0  0  0  0  0  3  0  0  0  0  0  0
  186.7780  178.0040  138.9980 C   0  0  0  0  0  0  0  0  0  0  0  0
  184.5490  178.7890  138.8110 C   0  0  0  0  0  0  0  0  0  0  0  0
  185.7060  179.0290  140.9220 C   0  0  0  0  0  0  0  0  0  0  0  0
  190.1560  176.6720  138.5290 O   0  0  0  0  0  0  0  0  0  0  0  0
  190.1240  175.7360  137.4870 C   0  0  0  0  0  0  0  0  0  0  0  0
  190.1160  176.2190  136.0820 C   0  0  0  0  0  1  0  0  0  0  0  0
  190.1000  174.4970  137.7110 O   0  0  0  0  0  0  0  0  0  0  0  0
  185.2690  179.3040  144.6670 O   0  0  0  0  0  0  0  0  0  0  0  0
  184.9050  178.0700  146.5860 O   0  0  0  0  0  0  0  0  0  0  0  0
  185.7100  178.4590  145.6950 C   0  0  0  0  0  0  0  0  0  0  0  0
  187.7070  177.5200  144.5680 C   0  0  0  0  0  3  0  0  0  0  0  0
  187.3960  178.5360  148.2370 C   0  0  0  0  0  1  0  0  0  0  0  0
  189.0300  177.0780  144.5450 C   0  0  0  0  0  3  0  0  0  0  0  0
  189.2370  177.5940  146.8930 C   0  0  0  0  0  3  0  0  0  0  0  0
  187.1240  178.0060  145.7490 C   0  0  0  0  0  0  0  0  0  0  0  0
  187.9110  178.0400  146.9280 C   0  0  0  0  0  0  0  0  0  0  0  0
  189.8040  177.1120  145.7080 C   0  0  0  0  0  0  0  0  0  0  0  0
  191.1990  176.6450  145.6820 C   0  0  0  0  0  0  0  0  0  0  0  0
  192.0020  176.7740  146.8090 O   0  0  0  0  0  1  0  0  0  0  0  0
  191.6790  176.1240  144.6400 O   0  0  0  0  0  0  0  0  0  0  0  0
  1 20  1  0  0  0  0
  2  1  1  0  0  0  0
  3  1  2  0  0  0  0
  4 14  1  0  0  0  0
  5 13  1  0  0  0  0
  5  6  2  0  0  0  0
  6  7  1  0  0  0  0
  7  8  2  0  0  0  0
  7  9  1  0  0  0  0
 10 14  2  0  0  0  0
 10 13  1  0  0  0  0
 11 15  1  0  0  0  0
 11  8  1  0  0  0  0
 12 15  2  0  0  0  0
 13 11  2  0  0  0  0
 14 12  1  0  0  0  0
 15  2  1  0  0  0  0
 16  6  1  0  0  0  0
 17 19  2  0  0  0  0
 17 16  1  0  0  0  0
 18 17  1  0  0  0  0
 20 22  1  0  0  0  0
 22 27  1  0  0  0  0
 22 21  2  0  0  0  0
 23 27  1  0  0  0  0
 25 23  2  0  0  0  0
 25 29  1  0  0  0  0
 26 28  1  0  0  0  0
 27 28  2  0  0  0  0
 28 24  1  0  0  0  0
 29 26  2  0  0  0  0
 30 29  1  0  0  0  0
 30 31  1  0  0  0  0
 32 30  2  0  0  0  0
M  END
>  <MODEL>
3

>  <REMARK>
 VINA RESULT:      -9.3      2.226      5.372
  Name = 
  7 active torsions:
  status: ('A' for Active; 'I' for Inactive)
    1  A    between atoms: C_5  and  O_10
    2  A    between atoms: C_6  and  C_21
    3  A    between atoms: O_10  and  C_15
    4  A    between atoms: C_17  and  C_29
    5  A    between atoms: C_19  and  O_30
    6  A    between atoms: N_22  and  C_31
    7  A    between atoms: C_29  and  O_30
                            x       y       z     vdW  Elec       q    Type
                         _______ _______ _______ _____ _____    ______ ____

>  <TORSDO>
F 7

$$$$
=
 OpenBabel10232407493D

 32 34  0  0  0  0  0  0  0  0999 V2000
  187.0840  177.5450  145.7730 C   0  0  0  0  0  0  0  0  0  0  0  0
  187.7160  176.9960  144.6130 N   0  0  0  0  0  2  0  0  0  0  0  0
  187.7670  177.8130  146.8000 O   0  0  0  0  0  0  0  0  0  0  0  0
  192.2180  176.6240  146.2740 F   0  0  0  0  0  0  0  0  0  0  0  0
  191.5880  177.1690  141.6450 N   0  0  0  0  0  0  0  0  0  0  0  0
  190.7930  177.2840  140.5450 C   0  0  0  0  0  0  0  0  0  0  0  0
  189.3990  177.2910  140.7120 C   0  0  0  0  0  0  0  0  0  0  0  0
  188.8720  177.1940  141.9610 N   0  0  0  0  0  0  0  0  0  0  0  0
  188.4870  177.4040  139.5400 C   0  0  0  0  0  1  0  0  0  0  0  0
  191.8790  176.9190  143.9690 N   0  0  0  0  0  0  0  0  0  0  0  0
  189.6640  177.0990  143.0610 C   0  0  0  0  0  0  0  0  0  0  0  0
  189.9970  176.8100  145.4380 C   0  0  0  0  0  3  0  0  0  0  0  0
  191.0630  177.0700  142.8930 C   0  0  0  0  0  0  0  0  0  0  0  0
  191.3770  176.7850  145.2250 C   0  0  0  0  0  0  0  0  0  0  0  0
  189.1280  176.9900  144.3580 C   0  0  0  0  0  0  0  0  0  0  0  0
  191.3390  177.3900  139.2560 O   0  0  0  0  0  0  0  0  0  0  0  0
  191.7730  176.3150  138.4680 C   0  0  0  0  0  0  0  0  0  0  0  0
  193.0140  176.4630  137.6660 C   0  0  0  0  0  1  0  0  0  0  0  0
  191.1360  175.2300  138.4230 O   0  0  0  0  0  0  0  0  0  0  0  0
  185.6960  177.7250  145.7630 O   0  0  0  0  0  0  0  0  0  0  0  0
  185.2930  179.9970  145.8850 O   0  0  0  0  0  0  0  0  0  0  0  0
  185.0330  178.8880  145.3420 C   0  0  0  0  0  0  0  0  0  0  0  0
  182.6660  178.8890  144.6090 C   0  0  0  0  0  3  0  0  0  0  0  0
  185.7670  178.6580  142.3900 C   0  0  0  0  0  1  0  0  0  0  0  0
  181.6650  178.8420  143.6390 C   0  0  0  0  0  3  0  0  0  0  0  0
  183.3470  178.6790  141.9170 C   0  0  0  0  0  3  0  0  0  0  0  0
  184.0240  178.8320  144.2540 C   0  0  0  0  0  0  0  0  0  0  0  0
  184.3600  178.7250  142.8800 C   0  0  0  0  0  0  0  0  0  0  0  0
  181.9980  178.7360  142.2860 C   0  0  0  0  0  0  0  0  0  0  0  0
  180.9400  178.6860  141.2650 C   0  0  0  0  0  0  0  0  0  0  0  0
  180.7120  179.7800  140.4390 O   0  0  0  0  0  0  0  0  0  0  0  0
  180.2320  177.6530  141.1280 O   0  0  0  0  0  1  0  0  0  0  0  0
  1  3  2  0  0  0  0
  2  1  1  0  0  0  0
  5 13  1  0  0  0  0
  6  7  1  0  0  0  0
  6  5  2  0  0  0  0
  7  8  2  0  0  0  0
  8 11  1  0  0  0  0
  9  7  1  0  0  0  0
 10 14  1  0  0  0  0
 11 15  2  0  0  0  0
 13 11  1  0  0  0  0
 13 10  2  0  0  0  0
 14 12  2  0  0  0  0
 14  4  1  0  0  0  0
 15  2  1  0  0  0  0
 15 12  1  0  0  0  0
 16  6  1  0  0  0  0
 17 16  1  0  0  0  0
 18 17  1  0  0  0  0
 19 17  2  0  0  0  0
 20  1  1  0  0  0  0
 22 20  1  0  0  0  0
 22 21  2  0  0  0  0
 24 28  1  0  0  0  0
 25 23  2  0  0  0  0
 26 29  2  0  0  0  0
 26 28  1  0  0  0  0
 27 23  1  0  0  0  0
 27 22  1  0  0  0  0
 28 27  2  0  0  0  0
 29 25  1  0  0  0  0
 30 29  1  0  0  0  0
 31 30  2  0  0  0  0
 32 30  1  0  0  0  0
M  END
>  <MODEL>
4

>  <REMARK>
 VINA RESULT:      -9.1      2.923      7.413
  Name = 
  7 active torsions:
  status: ('A' for Active; 'I' for Inactive)
    1  A    between atoms: C_5  and  O_10
    2  A    between atoms: C_6  and  C_21
    3  A    between atoms: O_10  and  C_15
    4  A    between atoms: C_17  and  C_29
    5  A    between atoms: C_19  and  O_30
    6  A    between atoms: N_22  and  C_31
    7  A    between atoms: C_29  and  O_30
                            x       y       z     vdW  Elec       q    Type
                         _______ _______ _______ _____ _____    ______ ____

>  <TORSDO>
F 7

$$$$
=
 OpenBabel10232407493D

 32 34  0  0  0  0  0  0  0  0999 V2000
  185.8430  178.9400  141.7920 C   0  0  0  0  0  0  0  0  0  0  0  0
  186.3670  177.8460  142.5510 N   0  0  0  0  0  2  0  0  0  0  0  0
  185.3260  179.9300  142.3800 O   0  0  0  0  0  0  0  0  0  0  0  0
  184.8170  178.2760  147.0870 F   0  0  0  0  0  0  0  0  0  0  0  0
  189.3920  177.4610  146.3630 N   0  0  0  0  0  0  0  0  0  0  0  0
  190.4540  177.2080  145.5490 C   0  0  0  0  0  0  0  0  0  0  0  0
  190.2500  177.1600  144.1610 C   0  0  0  0  0  0  0  0  0  0  0  0
  189.0060  177.3780  143.6570 N   0  0  0  0  0  0  0  0  0  0  0  0
  191.3760  176.8760  143.2290 C   0  0  0  0  0  1  0  0  0  0  0  0
  187.1010  177.8920  146.7000 N   0  0  0  0  0  0  0  0  0  0  0  0
  187.9500  177.6510  144.4670 C   0  0  0  0  0  0  0  0  0  0  0  0
  185.5980  178.0610  144.8490 C   0  0  0  0  0  3  0  0  0  0  0  0
  188.1490  177.6770  145.8620 C   0  0  0  0  0  0  0  0  0  0  0  0
  185.8410  178.0770  146.2250 C   0  0  0  0  0  0  0  0  0  0  0  0
  186.6560  177.8700  143.9560 C   0  0  0  0  0  0  0  0  0  0  0  0
  191.7390  176.9890  146.0700 O   0  0  0  0  0  0  0  0  0  0  0  0
  192.1800  175.8010  146.6680 C   0  0  0  0  0  0  0  0  0  0  0  0
  192.4280  175.7790  148.1330 C   0  0  0  0  0  1  0  0  0  0  0  0
  192.3700  174.7530  145.9960 O   0  0  0  0  0  0  0  0  0  0  0  0
  185.8670  178.8630  140.3950 O   0  0  0  0  0  0  0  0  0  0  0  0
  184.4910  180.2170  139.1250 O   0  0  0  0  0  0  0  0  0  0  0  0
  184.7630  179.0610  139.5530 C   0  0  0  0  0  0  0  0  0  0  0  0
  184.2520  177.2080  137.9890 C   0  0  0  0  0  3  0  0  0  0  0  0
  182.2940  178.1910  141.1180 C   0  0  0  0  0  1  0  0  0  0  0  0
  183.4910  176.1240  137.5520 C   0  0  0  0  0  3  0  0  0  0  0  0
  182.0000  176.4210  139.4260 C   0  0  0  0  0  3  0  0  0  0  0  0
  183.9040  177.9180  139.1500 C   0  0  0  0  0  0  0  0  0  0  0  0
  182.7550  177.5100  139.8740 C   0  0  0  0  0  0  0  0  0  0  0  0
  182.3590  175.7230  138.2670 C   0  0  0  0  0  0  0  0  0  0  0  0
  181.5580  174.5800  137.8040 C   0  0  0  0  0  0  0  0  0  0  0  0
  182.0640  173.7130  136.8410 O   0  0  0  0  0  0  0  0  0  0  0  0
  180.4070  174.3740  138.2730 O   0  0  0  0  0  1  0  0  0  0  0  0
  1  3  2  0  0  0  0
  1  2  1  0  0  0  0
  2 15  1  0  0  0  0
  6 16  1  0  0  0  0
  6  5  2  0  0  0  0
  7  6  1  0  0  0  0
  8  7  2  0  0  0  0
  8 11  1  0  0  0  0
  9  7  1  0  0  0  0
 11 13  1  0  0  0  0
 12 14  2  0  0  0  0
 13  5  1  0  0  0  0
 13 10  2  0  0  0  0
 14 10  1  0  0  0  0
 14  4  1  0  0  0  0
 15 11  2  0  0  0  0
 15 12  1  0  0  0  0
 16 17  1  0  0  0  0
 17 18  1  0  0  0  0
 19 17  2  0  0  0  0
 20  1  1  0  0  0  0
 21 22  2  0  0  0  0
 22 20  1  0  0  0  0
 23 27  1  0  0  0  0
 25 23  2  0  0  0  0
 25 29  1  0  0  0  0
 26 28  1  0  0  0  0
 27 22  1  0  0  0  0
 27 28  2  0  0  0  0
 28 24  1  0  0  0  0
 29 26  2  0  0  0  0
 30 29  1  0  0  0  0
 30 32  1  0  0  0  0
 31 30  2  0  0  0  0
M  END
>  <MODEL>
5

>  <REMARK>
 VINA RESULT:      -9.1      3.513      9.358
  Name = 
  7 active torsions:
  status: ('A' for Active; 'I' for Inactive)
    1  A    between atoms: C_5  and  O_10
    2  A    between atoms: C_6  and  C_21
    3  A    between atoms: O_10  and  C_15
    4  A    between atoms: C_17  and  C_29
    5  A    between atoms: C_19  and  O_30
    6  A    between atoms: N_22  and  C_31
    7  A    between atoms: C_29  and  O_30
                            x       y       z     vdW  Elec       q    Type
                         _______ _______ _______ _____ _____    ______ ____

>  <TORSDO>
F 7

$$$$
=
 OpenBabel10232407493D

 32 34  0  0  0  0  0  0  0  0999 V2000
  185.9810  177.6870  138.2270 C   0  0  0  0  0  0  0  0  0  0  0  0
  187.1340  178.3000  138.8120 N   0  0  0  0  0  2  0  0  0  0  0  0
  186.1100  176.6830  137.4740 O   0  0  0  0  0  0  0  0  0  0  0  0
  191.1810  176.9130  136.6060 F   0  0  0  0  0  0  0  0  0  0  0  0
  190.8840  176.3670  141.2680 N   0  0  0  0  0  0  0  0  0  0  0  0
  190.2360  176.5130  142.4570 C   0  0  0  0  0  0  0  0  0  0  0  0
  188.9540  177.0870  142.4660 C   0  0  0  0  0  0  0  0  0  0  0  0
  188.3830  177.4720  141.2950 N   0  0  0  0  0  0  0  0  0  0  0  0
  188.2090  177.2780  143.7410 C   0  0  0  0  0  1  0  0  0  0  0  0
  191.0000  176.6300  138.9300 N   0  0  0  0  0  0  0  0  0  0  0  0
  189.0210  177.3090  140.1050 C   0  0  0  0  0  0  0  0  0  0  0  0
  189.1850  177.5940  137.7100 C   0  0  0  0  0  3  0  0  0  0  0  0
  190.3160  176.7540  140.0980 C   0  0  0  0  0  0  0  0  0  0  0  0
  190.4670  177.0400  137.7490 C   0  0  0  0  0  0  0  0  0  0  0  0
  188.4410  177.7130  138.8870 C   0  0  0  0  0  0  0  0  0  0  0  0
  190.8240  176.1090  143.6650 O   0  0  0  0  0  0  0  0  0  0  0  0
  191.4870  176.9530  144.5670 C   0  0  0  0  0  0  0  0  0  0  0  0
  191.6070  176.5380  145.9880 C   0  0  0  0  0  1  0  0  0  0  0  0
  191.9820  178.0520  144.2020 O   0  0  0  0  0  0  0  0  0  0  0  0
  184.7230  178.2530  138.4650 O   0  0  0  0  0  0  0  0  0  0  0  0
  184.2670  180.4860  138.8460 O   0  0  0  0  0  0  0  0  0  0  0  0
  184.4700  179.3340  139.3220 C   0  0  0  0  0  0  0  0  0  0  0  0
  185.5550  179.5380  141.5400 C   0  0  0  0  0  3  0  0  0  0  0  0
  182.0850  178.1270  140.7910 C   0  0  0  0  0  1  0  0  0  0  0  0
  185.5890  179.3860  142.9260 C   0  0  0  0  0  3  0  0  0  0  0  0
  183.3720  178.4340  142.8720 C   0  0  0  0  0  3  0  0  0  0  0  0
  184.4330  179.1420  140.7940 C   0  0  0  0  0  0  0  0  0  0  0  0
  183.3270  178.5810  141.4810 C   0  0  0  0  0  0  0  0  0  0  0  0
  184.4980  178.8330  143.6020 C   0  0  0  0  0  0  0  0  0  0  0  0
  184.5360  178.6740  145.0640 C   0  0  0  0  0  0  0  0  0  0  0  0
  185.5800  177.9810  145.6660 O   0  0  0  0  0  0  0  0  0  0  0  0
  183.6250  179.1630  145.7840 O   0  0  0  0  0  1  0  0  0  0  0  0
  1 20  1  0  0  0  0
  1  2  1  0  0  0  0
  2 15  1  0  0  0  0
  3  1  2  0  0  0  0
  4 14  1  0  0  0  0
  5  6  2  0  0  0  0
  6  7  1  0  0  0  0
  6 16  1  0  0  0  0
  7  9  1  0  0  0  0
  8  7  2  0  0  0  0
 10 13  1  0  0  0  0
 11  8  1  0  0  0  0
 12 14  1  0  0  0  0
 12 15  2  0  0  0  0
 13 11  2  0  0  0  0
 13  5  1  0  0  0  0
 14 10  2  0  0  0  0
 15 11  1  0  0  0  0
 16 17  1  0  0  0  0
 17 18  1  0  0  0  0
 19 17  2  0  0  0  0
 20 22  1  0  0  0  0
 21 22  2  0  0  0  0
 22 27  1  0  0  0  0
 23 25  1  0  0  0  0
 24 28  1  0  0  0  0
 25 29  2  0  0  0  0
 26 29  1  0  0  0  0
 27 28  1  0  0  0  0
 27 23  2  0  0  0  0
 28 26  2  0  0  0  0
 29 30  1  0  0  0  0
 30 31  2  0  0  0  0
 30 32  1  0  0  0  0
M  END
>  <MODEL>
6

>  <REMARK>
 VINA RESULT:      -9.0      1.865      6.649
  Name = 
  7 active torsions:
  status: ('A' for Active; 'I' for Inactive)
    1  A    between atoms: C_5  and  O_10
    2  A    between atoms: C_6  and  C_21
    3  A    between atoms: O_10  and  C_15
    4  A    between atoms: C_17  and  C_29
    5  A    between atoms: C_19  and  O_30
    6  A    between atoms: N_22  and  C_31
    7  A    between atoms: C_29  and  O_30
                            x       y       z     vdW  Elec       q    Type
                         _______ _______ _______ _____ _____    ______ ____

>  <TORSDO>
F 7

$$$$
=
 OpenBabel10232407493D

 32 34  0  0  0  0  0  0  0  0999 V2000
  185.6280  179.0710  141.0990 C   0  0  0  0  0  0  0  0  0  0  0  0
  186.9850  178.8450  140.7060 N   0  0  0  0  0  2  0  0  0  0  0  0
  184.6960  178.9530  140.2570 O   0  0  0  0  0  0  0  0  0  0  0  0
  186.0090  177.4240  136.2120 F   0  0  0  0  0  0  0  0  0  0  0  0
  190.2910  176.5420  137.9480 N   0  0  0  0  0  0  0  0  0  0  0  0
  191.2330  176.6300  138.9280 C   0  0  0  0  0  0  0  0  0  0  0  0
  190.9000  177.2670  140.1350 C   0  0  0  0  0  0  0  0  0  0  0  0
  189.6490  177.7690  140.3060 N   0  0  0  0  0  0  0  0  0  0  0  0
  191.8970  177.3990  141.2330 C   0  0  0  0  0  1  0  0  0  0  0  0
  188.1330  176.9740  137.1090 N   0  0  0  0  0  0  0  0  0  0  0  0
  188.7020  177.6640  139.3370 C   0  0  0  0  0  0  0  0  0  0  0  0
  186.5060  178.1210  138.4330 C   0  0  0  0  0  3  0  0  0  0  0  0
  189.0410  177.0450  138.1170 C   0  0  0  0  0  0  0  0  0  0  0  0
  186.8860  177.5000  137.2410 C   0  0  0  0  0  0  0  0  0  0  0  0
  187.4050  178.1880  139.5020 C   0  0  0  0  0  0  0  0  0  0  0  0
  192.5220  176.1060  138.7530 O   0  0  0  0  0  0  0  0  0  0  0  0
  193.1570  175.9110  137.5180 C   0  0  0  0  0  0  0  0  0  0  0  0
  193.0960  174.5720  136.8780 C   0  0  0  0  0  1  0  0  0  0  0  0
  193.7780  176.8420  136.9400 O   0  0  0  0  0  0  0  0  0  0  0  0
  185.3660  179.4750  142.4130 O   0  0  0  0  0  0  0  0  0  0  0  0
  183.8230  178.0770  143.4150 O   0  0  0  0  0  0  0  0  0  0  0  0
  184.9580  178.6290  143.4550 C   0  0  0  0  0  0  0  0  0  0  0  0
  185.5210  178.9450  145.8470 C   0  0  0  0  0  3  0  0  0  0  0  0
  187.4640  176.8990  143.2720 C   0  0  0  0  0  1  0  0  0  0  0  0
  186.3150  178.7400  146.9750 C   0  0  0  0  0  3  0  0  0  0  0  0
  187.8070  177.3650  145.6690 C   0  0  0  0  0  3  0  0  0  0  0  0
  185.8520  178.3660  144.6110 C   0  0  0  0  0  0  0  0  0  0  0  0
  187.0180  177.5630  144.5310 C   0  0  0  0  0  0  0  0  0  0  0  0
  187.4640  177.9490  146.8940 C   0  0  0  0  0  0  0  0  0  0  0  0
  188.3000  177.7350  148.0850 C   0  0  0  0  0  0  0  0  0  0  0  0
  189.6730  177.5620  147.9560 O   0  0  0  0  0  0  0  0  0  0  0  0
  187.7820  177.7080  149.2340 O   0  0  0  0  0  1  0  0  0  0  0  0
  1 20  1  0  0  0  0
  2  1  1  0  0  0  0
  3  1  2  0  0  0  0
  4 14  1  0  0  0  0
  5 13  1  0  0  0  0
  5  6  2  0  0  0  0
  6  7  1  0  0  0  0
  7  8  2  0  0  0  0
  7  9  1  0  0  0  0
 10 14  2  0  0  0  0
 10 13  1  0  0  0  0
 11 15  1  0  0  0  0
 11  8  1  0  0  0  0
 12 15  2  0  0  0  0
 13 11  2  0  0  0  0
 14 12  1  0  0  0  0
 15  2  1  0  0  0  0
 16  6  1  0  0  0  0
 17 16  1  0  0  0  0
 18 17  1  0  0  0  0
 19 17  2  0  0  0  0
 20 22  1  0  0  0  0
 21 22  2  0  0  0  0
 22 27  1  0  0  0  0
 23 25  1  0  0  0  0
 24 28  1  0  0  0  0
 26 29  1  0  0  0  0
 27 23  2  0  0  0  0
 28 27  1  0  0  0  0
 28 26  2  0  0  0  0
 29 25  2  0  0  0  0
 29 30  1  0  0  0  0
 30 32  1  0  0  0  0
 31 30  2  0  0  0  0
M  END
>  <MODEL>
7

>  <REMARK>
 VINA RESULT:      -8.9      2.370      5.763
  Name = 
  7 active torsions:
  status: ('A' for Active; 'I' for Inactive)
    1  A    between atoms: C_5  and  O_10
    2  A    between atoms: C_6  and  C_21
    3  A    between atoms: O_10  and  C_15
    4  A    between atoms: C_17  and  C_29
    5  A    between atoms: C_19  and  O_30
    6  A    between atoms: N_22  and  C_31
    7  A    between atoms: C_29  and  O_30
                            x       y       z     vdW  Elec       q    Type
                         _______ _______ _______ _____ _____    ______ ____

>  <TORSDO>
F 7

$$$$
=
 OpenBabel10232407493D

 32 34  0  0  0  0  0  0  0  0999 V2000
  184.7260  179.0500  144.0010 C   0  0  0  0  0  0  0  0  0  0  0  0
  185.1850  179.5090  142.7260 N   0  0  0  0  0  2  0  0  0  0  0  0
  183.6220  178.4460  144.0970 O   0  0  0  0  0  0  0  0  0  0  0  0
  181.4110  178.8050  139.8230 F   0  0  0  0  0  0  0  0  0  0  0  0
  185.7130  177.9140  138.1420 N   0  0  0  0  0  0  0  0  0  0  0  0
  187.0700  177.8960  138.2590 C   0  0  0  0  0  0  0  0  0  0  0  0
  187.6520  178.2980  139.4720 C   0  0  0  0  0  0  0  0  0  0  0  0
  186.8560  178.6840  140.5030 N   0  0  0  0  0  0  0  0  0  0  0  0
  189.1310  178.3060  139.6460 C   0  0  0  0  0  1  0  0  0  0  0  0
  183.5670  178.3450  139.0130 N   0  0  0  0  0  0  0  0  0  0  0  0
  185.5010  178.6840  140.3940 C   0  0  0  0  0  0  0  0  0  0  0  0
  183.2870  179.1480  141.2470 C   0  0  0  0  0  3  0  0  0  0  0  0
  184.9160  178.3020  139.1700 C   0  0  0  0  0  0  0  0  0  0  0  0
  182.7500  178.7620  140.0170 C   0  0  0  0  0  0  0  0  0  0  0  0
  184.6680  179.0910  141.4550 C   0  0  0  0  0  0  0  0  0  0  0  0
  187.8900  177.4910  137.1950 O   0  0  0  0  0  0  0  0  0  0  0  0
  188.2040  176.1630  136.8740 C   0  0  0  0  0  0  0  0  0  0  0  0
  189.6090  175.7000  137.0140 C   0  0  0  0  0  1  0  0  0  0  0  0
  187.3280  175.3550  136.4690 O   0  0  0  0  0  0  0  0  0  0  0  0
  185.4950  179.3310  145.1360 O   0  0  0  0  0  0  0  0  0  0  0  0
  184.9900  177.9390  146.9090 O   0  0  0  0  0  0  0  0  0  0  0  0
  185.8600  178.3990  146.1180 C   0  0  0  0  0  0  0  0  0  0  0  0
  187.9230  178.1330  147.4650 C   0  0  0  0  0  3  0  0  0  0  0  0
  187.3790  177.0500  143.8420 C   0  0  0  0  0  1  0  0  0  0  0  0
  189.2430  177.7240  147.6490 C   0  0  0  0  0  3  0  0  0  0  0  0
  189.3010  176.9040  145.3810 C   0  0  0  0  0  3  0  0  0  0  0  0
  187.2660  177.9370  146.2390 C   0  0  0  0  0  0  0  0  0  0  0  0
  187.9770  177.3100  145.1840 C   0  0  0  0  0  0  0  0  0  0  0  0
  189.9420  177.1070  146.6080 C   0  0  0  0  0  0  0  0  0  0  0  0
  191.3350  176.6770  146.8050 C   0  0  0  0  0  0  0  0  0  0  0  0
  191.9920  176.9530  147.9980 O   0  0  0  0  0  1  0  0  0  0  0  0
  191.9460  176.0530  145.8960 O   0  0  0  0  0  0  0  0  0  0  0  0
  1  3  2  0  0  0  0
  1 20  1  0  0  0  0
  2  1  1  0  0  0  0
  4 14  1  0  0  0  0
  5  6  2  0  0  0  0
  5 13  1  0  0  0  0
  6  7  1  0  0  0  0
  7  9  1  0  0  0  0
  7  8  2  0  0  0  0
 10 13  2  0  0  0  0
 10 14  1  0  0  0  0
 11  8  1  0  0  0  0
 11 15  2  0  0  0  0
 12 15  1  0  0  0  0
 13 11  1  0  0  0  0
 14 12  2  0  0  0  0
 15  2  1  0  0  0  0
 16  6  1  0  0  0  0
 17 18  1  0  0  0  0
 17 16  1  0  0  0  0
 19 17  2  0  0  0  0
 20 22  1  0  0  0  0
 22 27  1  0  0  0  0
 22 21  2  0  0  0  0
 23 25  1  0  0  0  0
 24 28  1  0  0  0  0
 26 29  1  0  0  0  0
 27 23  2  0  0  0  0
 28 26  2  0  0  0  0
 28 27  1  0  0  0  0
 29 30  1  0  0  0  0
 29 25  2  0  0  0  0
 30 31  1  0  0  0  0
 32 30  2  0  0  0  0
M  END
>  <MODEL>
8

>  <REMARK>
 VINA RESULT:      -8.8      2.855      5.486
  Name = 
  7 active torsions:
  status: ('A' for Active; 'I' for Inactive)
    1  A    between atoms: C_5  and  O_10
    2  A    between atoms: C_6  and  C_21
    3  A    between atoms: O_10  and  C_15
    4  A    between atoms: C_17  and  C_29
    5  A    between atoms: C_19  and  O_30
    6  A    between atoms: N_22  and  C_31
    7  A    between atoms: C_29  and  O_30
                            x       y       z     vdW  Elec       q    Type
                         _______ _______ _______ _____ _____    ______ ____

>  <TORSDO>
F 7

$$$$
=
 OpenBabel10232407493D

 32 34  0  0  0  0  0  0  0  0999 V2000
  185.4630  178.6580  141.8740 C   0  0  0  0  0  0  0  0  0  0  0  0
  185.6320  177.6630  142.8880 N   0  0  0  0  0  2  0  0  0  0  0  0
  185.5890  179.8810  142.1580 O   0  0  0  0  0  0  0  0  0  0  0  0
  185.2220  178.9990  147.4940 F   0  0  0  0  0  0  0  0  0  0  0  0
  189.4190  177.5230  145.9670 N   0  0  0  0  0  0  0  0  0  0  0  0
  190.2370  177.0150  145.0040 C   0  0  0  0  0  0  0  0  0  0  0  0
  189.7120  176.7730  143.7250 C   0  0  0  0  0  0  0  0  0  0  0  0
  188.4080  177.0580  143.4690 N   0  0  0  0  0  0  0  0  0  0  0  0
  190.5630  176.2070  142.6410 C   0  0  0  0  0  1  0  0  0  0  0  0
  187.3130  178.2800  146.7030 N   0  0  0  0  0  0  0  0  0  0  0  0
  187.5950  177.5840  144.4230 C   0  0  0  0  0  0  0  0  0  0  0  0
  185.4400  178.3350  145.2190 C   0  0  0  0  0  3  0  0  0  0  0  0
  188.1160  177.8080  145.7130 C   0  0  0  0  0  0  0  0  0  0  0  0
  185.9960  178.5400  146.4830 C   0  0  0  0  0  0  0  0  0  0  0  0
  186.2410  177.8760  144.1700 C   0  0  0  0  0  0  0  0  0  0  0  0
  191.5850  176.7270  145.2680 O   0  0  0  0  0  0  0  0  0  0  0  0
  192.0490  175.6410  146.0230 C   0  0  0  0  0  0  0  0  0  0  0  0
  192.1850  175.7910  147.4950 C   0  0  0  0  0  1  0  0  0  0  0  0
  192.3530  174.5440  145.4860 O   0  0  0  0  0  0  0  0  0  0  0  0
  185.1050  178.2500  140.5840 O   0  0  0  0  0  0  0  0  0  0  0  0
  185.2440  179.5470  138.6760 O   0  0  0  0  0  0  0  0  0  0  0  0
  185.7480  178.6450  139.4020 C   0  0  0  0  0  0  0  0  0  0  0  0
  188.1550  178.2180  139.8040 C   0  0  0  0  0  3  0  0  0  0  0  0
  186.0440  176.9440  136.8870 C   0  0  0  0  0  1  0  0  0  0  0  0
  189.3900  177.6560  139.4790 C   0  0  0  0  0  3  0  0  0  0  0  0
  188.4140  176.6670  137.5060 C   0  0  0  0  0  3  0  0  0  0  0  0
  187.0290  178.0160  138.9900 C   0  0  0  0  0  0  0  0  0  0  0  0
  187.1710  177.2250  137.8220 C   0  0  0  0  0  0  0  0  0  0  0  0
  189.5280  176.8770  138.3270 C   0  0  0  0  0  0  0  0  0  0  0  0
  190.8320  176.2870  137.9860 C   0  0  0  0  0  0  0  0  0  0  0  0
  191.1800  175.0300  138.4670 O   0  0  0  0  0  1  0  0  0  0  0  0
  191.6450  176.9120  137.2530 O   0  0  0  0  0  0  0  0  0  0  0  0
  1  3  2  0  0  0  0
  1  2  1  0  0  0  0
  2 15  1  0  0  0  0
  6 16  1  0  0  0  0
  6  5  2  0  0  0  0
  7  6  1  0  0  0  0
  8  7  2  0  0  0  0
  8 11  1  0  0  0  0
  9  7  1  0  0  0  0
 11 13  1  0  0  0  0
 12 14  2  0  0  0  0
 13  5  1  0  0  0  0
 13 10  2  0  0  0  0
 14 10  1  0  0  0  0
 14  4  1  0  0  0  0
 15 11  2  0  0  0  0
 15 12  1  0  0  0  0
 16 17  1  0  0  0  0
 17 18  1  0  0  0  0
 19 17  2  0  0  0  0
 20  1  1  0  0  0  0
 21 22  2  0  0  0  0
 22 20  1  0  0  0  0
 24 28  1  0  0  0  0
 25 23  1  0  0  0  0
 26 28  2  0  0  0  0
 26 29  1  0  0  0  0
 27 22  1  0  0  0  0
 27 23  2  0  0  0  0
 28 27  1  0  0  0  0
 29 25  2  0  0  0  0
 30 29  1  0  0  0  0
 30 31  1  0  0  0  0
 32 30  2  0  0  0  0
M  END
>  <MODEL>
9

>  <REMARK>
 VINA RESULT:      -8.7      3.231      8.677
  Name = 
  7 active torsions:
  status: ('A' for Active; 'I' for Inactive)
    1  A    between atoms: C_5  and  O_10
    2  A    between atoms: C_6  and  C_21
    3  A    between atoms: O_10  and  C_15
    4  A    between atoms: C_17  and  C_29
    5  A    between atoms: C_19  and  O_30
    6  A    between atoms: N_22  and  C_31
    7  A    between atoms: C_29  and  O_30
                            x       y       z     vdW  Elec       q    Type
                         _______ _______ _______ _____ _____    ______ ____

>  <TORSDO>
F 7

$$$$
