=
 OpenBabel10232411563D

 37 42  0  0  1  0  0  0  0  0999 V2000
  191.5350  177.9350  140.8400 O   0  0  0  0  0  0  0  0  0  0  0  0
  190.2610  176.3480  141.9870 N   0  0  0  0  0  2  0  0  0  0  0  0
  190.9530  176.8180  140.8250 C   0  0  0  0  0  0  0  0  0  0  0  0
  188.2710  177.1480  145.1010 C   0  0  2  0  0  3  0  0  0  0  0  0
  187.0100  177.9480  145.4840 C   0  0  0  0  0  2  0  0  0  0  0  0
  190.9720  176.6460  144.2700 C   0  0  0  0  0  3  0  0  0  0  0  0
  190.0740  177.1670  143.1780 C   0  0  2  0  0  3  0  0  0  0  0  0
  190.6960  176.8600  145.5630 C   0  0  0  0  0  0  0  0  0  0  0  0
  187.6370  177.2870  142.7090 C   0  0  0  0  0  3  0  0  0  0  0  0
  189.4520  177.6020  145.9570 C   0  0  0  0  0  2  0  0  0  0  0  0
  188.6190  177.1750  143.6160 C   0  0  0  0  0  0  0  0  0  0  0  0
  186.2110  177.3650  143.1530 C   0  0  0  0  0  2  0  0  0  0  0  0
  191.7430  176.1930  146.8000 Cl  0  0  0  0  0  0  0  0  0  0  0  0
  186.1210  178.3650  144.3030 C   0  0  1  0  0  3  0  0  0  0  0  0
  183.8940  179.0200  142.6410 O   0  0  0  0  0  0  0  0  0  0  0  0
  183.6690  178.8120  143.8650 C   0  0  0  0  0  0  0  0  0  0  0  0
  184.7430  178.4960  144.7530 N   0  0  0  0  0  2  0  0  0  0  0  0
  182.3690  178.8970  144.3720 O   0  0  0  0  0  0  0  0  0  0  0  0
  181.2270  178.9930  143.5300 C   0  0  0  0  0  2  0  0  0  0  0  0
  180.0450  178.2900  144.1710 C   0  0  0  0  0  1  0  0  0  0  0  0
  190.9790  176.0480  139.6630 O   0  0  0  0  0  0  0  0  0  0  0  0
  190.7750  174.1710  137.6360 C   0  0  0  0  0  1  0  0  0  0  0  0
  191.2300  176.7490  137.3070 C   0  0  1  0  0  3  0  0  0  0  0  0
  191.9100  176.3140  138.6150 C   0  0  2  0  0  3  0  0  0  0  0  0
  191.7640  175.3240  137.4620 C   0  0  1  0  0  0  0  0  0  0  0  0
  187.7750  178.3800  137.2330 C   0  0  1  0  0  3  0  0  0  0  0  0
  187.6240  177.3110  136.1700 C   0  0  0  0  0  2  0  0  0  0  0  0
  189.2820  178.2750  137.1220 C   0  0  2  0  0  3  0  0  0  0  0  0
  187.3350  179.6600  136.7070 N   0  0  0  0  0  1  0  0  0  0  0  0
  189.1310  177.2020  136.0620 C   0  0  1  0  0  3  0  0  0  0  0  0
  189.7100  176.8520  137.4170 C   0  0  1  0  0  3  0  0  0  0  0  0
  193.6200  173.7540  136.8200 C   0  0  0  0  0  3  0  0  0  0  0  0
  195.4930  174.5120  135.4830 C   0  0  0  0  0  3  0  0  0  0  0  0
  193.7140  176.0530  136.0590 C   0  0  0  0  0  3  0  0  0  0  0  0
  193.0470  175.0320  136.7490 C   0  0  0  0  0  0  0  0  0  0  0  0
  194.8380  173.4940  136.1840 C   0  0  0  0  0  3  0  0  0  0  0  0
  194.9330  175.7910  135.4240 C   0  0  0  0  0  3  0  0  0  0  0  0
  3  1  2  0  0  0  0
  3  2  1  0  0  0  0
  4  5  1  6  0  0  0
  4 10  1  0  0  0  0
  6  8  2  0  0  0  0
  7  2  1  6  0  0  0
  7 11  1  0  0  0  0
  7  6  1  0  0  0  0
  8 10  1  0  0  0  0
  8 13  1  0  0  0  0
  9 12  1  0  0  0  0
  9 11  2  0  0  0  0
 11  4  1  0  0  0  0
 12 14  1  0  0  0  0
 14 17  1  1  0  0  0
 14  5  1  0  0  0  0
 15 16  2  0  0  0  0
 16 18  1  0  0  0  0
 16 17  1  0  0  0  0
 19 20  1  0  0  0  0
 19 18  1  0  0  0  0
 21  3  1  0  0  0  0
 23 31  1  1  0  0  0
 23 25  1  0  0  0  0
 23 24  1  0  0  0  0
 24 21  1  1  0  0  0
 25 22  1  1  0  0  0
 25 24  1  0  0  0  0
 26 29  1  6  0  0  0
 27 26  1  0  0  0  0
 28 26  1  0  0  0  0
 28 31  1  0  0  0  0
 30 27  1  0  0  0  0
 30 28  1  0  0  0  0
 30 31  1  0  0  0  0
 33 36  1  0  0  0  0
 34 35  2  0  0  0  0
 35 32  1  0  0  0  0
 35 25  1  0  0  0  0
 36 32  2  0  0  0  0
 37 33  2  0  0  0  0
 37 34  1  0  0  0  0
M  END
>  <MODEL>
1

>  <REMARK>
 VINA RESULT:      -8.5      0.000      0.000
  Name = 
  8 active torsions:
  status: ('A' for Active; 'I' for Inactive)
    1  A    between atoms: O_1  and  C_16
    2  A    between atoms: O_1  and  C_24
    3  A    between atoms: C_8  and  O_25
    4  A    between atoms: C_13  and  O_25
    5  A    between atoms: N_14  and  C_17
    6  A    between atoms: C_23  and  C_33
    7  A    between atoms: C_26  and  C_32
    8  A    between atoms: N_30  and  C_36
                            x       y       z     vdW  Elec       q    Type
                         _______ _______ _______ _____ _____    ______ ____

>  <TORSDO>
F 8

$$$$
=
 OpenBabel10232411563D

 37 42  0  0  1  0  0  0  0  0999 V2000
  188.4750  178.7800  141.2090 O   0  0  0  0  0  0  0  0  0  0  0  0
  190.1980  177.2660  140.7670 N   0  0  0  0  0  2  0  0  0  0  0  0
  189.3940  178.0460  141.6590 C   0  0  0  0  0  0  0  0  0  0  0  0
  191.0520  175.9130  137.3400 C   0  0  2  0  0  3  0  0  0  0  0  0
  192.2200  175.9830  136.3360 C   0  0  0  0  0  2  0  0  0  0  0  0
  188.7870  176.7800  138.8750 C   0  0  0  0  0  3  0  0  0  0  0  0
  190.0980  177.3750  139.3170 C   0  0  2  0  0  3  0  0  0  0  0  0
  188.6160  176.3100  137.6330 C   0  0  0  0  0  0  0  0  0  0  0  0
  192.5160  176.8380  139.1140 C   0  0  0  0  0  3  0  0  0  0  0  0
  189.7530  176.3320  136.6540 C   0  0  0  0  0  2  0  0  0  0  0  0
  191.2720  176.6920  138.6340 C   0  0  0  0  0  0  0  0  0  0  0  0
  193.6740  176.2220  138.3960 C   0  0  0  0  0  2  0  0  0  0  0  0
  187.0870  175.5820  137.1790 Cl  0  0  0  0  0  0  0  0  0  0  0  0
  193.5360  176.5320  136.9080 C   0  0  1  0  0  3  0  0  0  0  0  0
  195.4150  178.0360  135.3730 O   0  0  0  0  0  0  0  0  0  0  0  0
  195.5750  176.7850  135.4300 C   0  0  0  0  0  0  0  0  0  0  0  0
  194.6580  175.9740  136.1680 N   0  0  0  0  0  2  0  0  0  0  0  0
  196.6410  176.1750  134.7640 O   0  0  0  0  0  0  0  0  0  0  0  0
  197.6800  175.4920  135.4530 C   0  0  0  0  0  2  0  0  0  0  0  0
  198.8140  175.1650  134.5000 C   0  0  0  0  0  1  0  0  0  0  0  0
  189.6290  178.0080  143.0320 O   0  0  0  0  0  0  0  0  0  0  0  0
  187.7920  176.0850  143.8090 C   0  0  0  0  0  1  0  0  0  0  0  0
  188.8350  177.9380  145.3710 C   0  0  1  0  0  3  0  0  0  0  0  0
  188.6860  178.5370  143.9640 C   0  0  2  0  0  3  0  0  0  0  0  0
  187.7070  177.4710  144.4480 C   0  0  1  0  0  0  0  0  0  0  0  0
  192.0000  176.3330  146.7880 C   0  0  1  0  0  3  0  0  0  0  0  0
  191.0050  175.1980  146.9160 C   0  0  0  0  0  2  0  0  0  0  0  0
  190.8560  177.3190  146.6700 C   0  0  2  0  0  3  0  0  0  0  0  0
  192.6850  176.5300  148.0530 N   0  0  0  0  0  1  0  0  0  0  0  0
  189.8610  176.1820  146.7940 C   0  0  1  0  0  3  0  0  0  0  0  0
  189.9860  176.9420  145.4890 C   0  0  1  0  0  3  0  0  0  0  0  0
  185.9160  178.0830  146.1030 C   0  0  0  0  0  3  0  0  0  0  0  0
  183.7630  178.9140  145.3650 C   0  0  0  0  0  3  0  0  0  0  0  0
  185.4690  178.3590  143.7370 C   0  0  0  0  0  3  0  0  0  0  0  0
  186.3450  178.0010  144.7700 C   0  0  0  0  0  0  0  0  0  0  0  0
  184.6290  178.5440  146.3990 C   0  0  0  0  0  3  0  0  0  0  0  0
  184.1820  178.8180  144.0340 C   0  0  0  0  0  3  0  0  0  0  0  0
  1  3  2  0  0  0  0
  2  3  1  0  0  0  0
  3 21  1  0  0  0  0
  4  5  1  6  0  0  0
  4 11  1  0  0  0  0
  5 14  1  0  0  0  0
  6  7  1  0  0  0  0
  7  2  1  1  0  0  0
  8  6  2  0  0  0  0
 10  4  1  0  0  0  0
 10  8  1  0  0  0  0
 11  9  2  0  0  0  0
 11  7  1  0  0  0  0
 12  9  1  0  0  0  0
 13  8  1  0  0  0  0
 14 17  1  6  0  0  0
 14 12  1  0  0  0  0
 15 16  2  0  0  0  0
 16 17  1  0  0  0  0
 18 16  1  0  0  0  0
 18 19  1  0  0  0  0
 20 19  1  0  0  0  0
 23 31  1  6  0  0  0
 24 21  1  6  0  0  0
 24 25  1  0  0  0  0
 24 23  1  0  0  0  0
 25 22  1  6  0  0  0
 25 35  1  0  0  0  0
 25 23  1  0  0  0  0
 26 27  1  0  0  0  0
 26 29  1  1  0  0  0
 28 26  1  0  0  0  0
 28 30  1  0  0  0  0
 30 27  1  0  0  0  0
 31 28  1  0  0  0  0
 31 30  1  0  0  0  0
 32 36  1  0  0  0  0
 33 36  2  0  0  0  0
 34 37  2  0  0  0  0
 34 35  1  0  0  0  0
 35 32  2  0  0  0  0
 37 33  1  0  0  0  0
M  END
>  <MODEL>
2

>  <REMARK>
 VINA RESULT:      -8.4      3.288     11.047
  Name = 
  8 active torsions:
  status: ('A' for Active; 'I' for Inactive)
    1  A    between atoms: O_1  and  C_16
    2  A    between atoms: O_1  and  C_24
    3  A    between atoms: C_8  and  O_25
    4  A    between atoms: C_13  and  O_25
    5  A    between atoms: N_14  and  C_17
    6  A    between atoms: C_23  and  C_33
    7  A    between atoms: C_26  and  C_32
    8  A    between atoms: N_30  and  C_36
                            x       y       z     vdW  Elec       q    Type
                         _______ _______ _______ _____ _____    ______ ____

>  <TORSDO>
F 8

$$$$
=
 OpenBabel10232411563D

 37 42  0  0  1  0  0  0  0  0999 V2000
  187.8090  178.7540  140.1340 O   0  0  0  0  0  0  0  0  0  0  0  0
  189.5390  177.1850  140.1070 N   0  0  0  0  0  2  0  0  0  0  0  0
  188.6490  178.0780  140.7860 C   0  0  0  0  0  0  0  0  0  0  0  0
  190.9790  175.5490  137.0170 C   0  0  2  0  0  3  0  0  0  0  0  0
  192.2560  175.6410  136.1580 C   0  0  0  0  0  2  0  0  0  0  0  0
  188.4510  176.3090  138.1440 C   0  0  0  0  0  3  0  0  0  0  0  0
  189.6220  177.1080  138.6540 C   0  0  2  0  0  3  0  0  0  0  0  0
  188.4970  175.6770  136.9640 C   0  0  0  0  0  0  0  0  0  0  0  0
  192.0890  176.8490  138.8130 C   0  0  0  0  0  3  0  0  0  0  0  0
  189.7450  175.7210  136.1320 C   0  0  0  0  0  2  0  0  0  0  0  0
  190.9410  176.4970  138.2120 C   0  0  0  0  0  0  0  0  0  0  0  0
  193.3900  176.2980  138.3240 C   0  0  0  0  0  2  0  0  0  0  0  0
  187.1290  174.7190  136.4340 Cl  0  0  0  0  0  0  0  0  0  0  0  0
  193.4190  176.4100  136.8020 C   0  0  1  0  0  3  0  0  0  0  0  0
  195.3340  177.9500  135.3510 O   0  0  0  0  0  0  0  0  0  0  0  0
  195.6070  176.7380  135.5750 C   0  0  0  0  0  0  0  0  0  0  0  0
  194.6820  175.9100  136.2810 N   0  0  0  0  0  2  0  0  0  0  0  0
  196.8110  176.1880  135.1260 O   0  0  0  0  0  0  0  0  0  0  0  0
  197.1470  174.8210  135.3280 C   0  0  0  0  0  2  0  0  0  0  0  0
  198.0330  174.6750  136.5500 C   0  0  0  0  0  1  0  0  0  0  0  0
  188.7120  178.2150  142.1720 O   0  0  0  0  0  0  0  0  0  0  0  0
  190.1610  179.0550  144.3780 C   0  0  0  0  0  1  0  0  0  0  0  0
  188.3350  177.1500  144.3690 C   0  0  1  0  0  3  0  0  0  0  0  0
  189.0580  177.1160  143.0130 C   0  0  2  0  0  3  0  0  0  0  0  0
  189.8020  177.5720  144.2650 C   0  0  1  0  0  0  0  0  0  0  0  0
  184.9890  178.9940  144.4170 C   0  0  1  0  0  3  0  0  0  0  0  0
  185.4810  179.2310  145.8300 C   0  0  0  0  0  2  0  0  0  0  0  0
  185.9510  177.8330  144.2790 C   0  0  2  0  0  3  0  0  0  0  0  0
  183.6250  178.4950  144.4500 N   0  0  0  0  0  1  0  0  0  0  0  0
  186.4480  178.0730  145.6910 C   0  0  1  0  0  3  0  0  0  0  0  0
  187.3660  178.3220  144.5120 C   0  0  1  0  0  3  0  0  0  0  0  0
  191.2770  175.5640  143.9310 C   0  0  0  0  0  3  0  0  0  0  0  0
  192.6020  174.6690  145.7520 C   0  0  0  0  0  3  0  0  0  0  0  0
  191.2130  176.6210  146.1110 C   0  0  0  0  0  3  0  0  0  0  0  0
  190.7990  176.5790  144.7730 C   0  0  0  0  0  0  0  0  0  0  0  0
  192.1810  174.6150  144.4190 C   0  0  0  0  0  3  0  0  0  0  0  0
  192.1160  175.6710  146.5980 C   0  0  0  0  0  3  0  0  0  0  0  0
  1  3  2  0  0  0  0
  2  3  1  0  0  0  0
  3 21  1  0  0  0  0
  4 10  1  6  0  0  0
  4 11  1  0  0  0  0
  5 14  1  0  0  0  0
  5  4  1  0  0  0  0
  6  7  1  0  0  0  0
  7  2  1  1  0  0  0
  8  6  2  0  0  0  0
 10  8  1  0  0  0  0
 11  7  1  0  0  0  0
 11  9  2  0  0  0  0
 12  9  1  0  0  0  0
 13  8  1  0  0  0  0
 14 17  1  6  0  0  0
 14 12  1  0  0  0  0
 15 16  2  0  0  0  0
 16 17  1  0  0  0  0
 18 19  1  0  0  0  0
 18 16  1  0  0  0  0
 19 20  1  0  0  0  0
 23 31  1  6  0  0  0
 24 21  1  6  0  0  0
 24 25  1  0  0  0  0
 24 23  1  0  0  0  0
 25 23  1  0  0  0  0
 25 22  1  1  0  0  0
 25 35  1  0  0  0  0
 26 29  1  1  0  0  0
 26 27  1  0  0  0  0
 28 26  1  0  0  0  0
 28 31  1  0  0  0  0
 28 30  1  0  0  0  0
 30 27  1  0  0  0  0
 31 30  1  0  0  0  0
 32 36  2  0  0  0  0
 32 35  1  0  0  0  0
 33 37  2  0  0  0  0
 34 37  1  0  0  0  0
 35 34  2  0  0  0  0
 36 33  1  0  0  0  0
M  END
>  <MODEL>
3

>  <REMARK>
 VINA RESULT:      -8.3      3.200     10.022
  Name = 
  8 active torsions:
  status: ('A' for Active; 'I' for Inactive)
    1  A    between atoms: O_1  and  C_16
    2  A    between atoms: O_1  and  C_24
    3  A    between atoms: C_8  and  O_25
    4  A    between atoms: C_13  and  O_25
    5  A    between atoms: N_14  and  C_17
    6  A    between atoms: C_23  and  C_33
    7  A    between atoms: C_26  and  C_32
    8  A    between atoms: N_30  and  C_36
                            x       y       z     vdW  Elec       q    Type
                         _______ _______ _______ _____ _____    ______ ____

>  <TORSDO>
F 8

$$$$
=
 OpenBabel10232411563D

 37 42  0  0  1  0  0  0  0  0999 V2000
  187.1430  179.1290  137.2390 O   0  0  0  0  0  0  0  0  0  0  0  0
  187.4750  177.5800  138.9550 N   0  0  0  0  0  2  0  0  0  0  0  0
  186.6400  178.2970  138.0390 C   0  0  0  0  0  0  0  0  0  0  0  0
  190.7120  177.0220  140.8300 C   0  0  2  0  0  3  0  0  0  0  0  0
  191.4150  177.5610  142.0910 C   0  0  0  0  0  2  0  0  0  0  0  0
  189.6690  176.9870  138.1550 C   0  0  0  0  0  3  0  0  0  0  0  0
  188.8970  177.8600  139.1090 C   0  0  2  0  0  3  0  0  0  0  0  0
  190.9500  176.6680  138.3810 C   0  0  0  0  0  0  0  0  0  0  0  0
  188.5850  178.0620  141.5670 C   0  0  0  0  0  3  0  0  0  0  0  0
  191.6410  177.1490  139.6230 C   0  0  0  0  0  2  0  0  0  0  0  0
  189.3460  177.6410  140.5450 C   0  0  0  0  0  0  0  0  0  0  0  0
  189.0680  177.9070  142.9740 C   0  0  0  0  0  2  0  0  0  0  0  0
  191.7940  175.6100  137.2680 Cl  0  0  0  0  0  0  0  0  0  0  0  0
  190.5200  178.3720  143.0380 C   0  0  1  0  0  3  0  0  0  0  0  0
  191.3370  175.9530  144.3130 O   0  0  0  0  0  0  0  0  0  0  0  0
  191.4340  177.0230  144.9740 C   0  0  0  0  0  0  0  0  0  0  0  0
  191.0260  178.2660  144.3990 N   0  0  0  0  0  2  0  0  0  0  0  0
  191.9310  177.0080  146.2810 O   0  0  0  0  0  0  0  0  0  0  0  0
  191.2040  176.4480  147.3670 C   0  0  0  0  0  2  0  0  0  0  0  0
  189.7910  176.9980  147.3910 C   0  0  0  0  0  1  0  0  0  0  0  0
  185.2620  178.0880  138.0330 O   0  0  0  0  0  0  0  0  0  0  0  0
  183.6230  180.1160  138.9700 C   0  0  0  0  0  1  0  0  0  0  0  0
  183.0500  177.5410  138.9900 C   0  0  1  0  0  3  0  0  0  0  0  0
  184.5640  177.6880  139.2120 C   0  0  2  0  0  3  0  0  0  0  0  0
  183.6100  178.7740  139.7030 C   0  0  1  0  0  0  0  0  0  0  0  0
  181.3660  176.8970  135.6210 C   0  0  1  0  0  3  0  0  0  0  0  0
  180.6780  178.1730  136.0600 C   0  0  0  0  0  2  0  0  0  0  0  0
  181.7930  176.6380  137.0510 C   0  0  2  0  0  3  0  0  0  0  0  0
  180.3720  175.9160  135.2240 N   0  0  0  0  0  1  0  0  0  0  0  0
  181.1090  177.9170  137.4900 C   0  0  1  0  0  3  0  0  0  0  0  0
  182.6180  177.8060  137.5490 C   0  0  1  0  0  3  0  0  0  0  0  0
  184.5500  178.7230  142.0340 C   0  0  0  0  0  3  0  0  0  0  0  0
  183.0950  178.7590  143.9700 C   0  0  0  0  0  3  0  0  0  0  0  0
  182.1470  178.8340  141.7420 C   0  0  0  0  0  3  0  0  0  0  0  0
  183.4330  178.7990  141.1890 C   0  0  0  0  0  0  0  0  0  0  0  0
  184.3810  178.7090  143.4220 C   0  0  0  0  0  3  0  0  0  0  0  0
  181.9790  178.8190  143.1300 C   0  0  0  0  0  3  0  0  0  0  0  0
  1  3  2  0  0  0  0
  3  2  1  0  0  0  0
  4 10  1  6  0  0  0
  4  5  1  0  0  0  0
  5 14  1  0  0  0  0
  6  8  2  0  0  0  0
  6  7  1  0  0  0  0
  7  2  1  1  0  0  0
  7 11  1  0  0  0  0
  8 10  1  0  0  0  0
  9 12  1  0  0  0  0
 11  4  1  0  0  0  0
 11  9  2  0  0  0  0
 12 14  1  0  0  0  0
 13  8  1  0  0  0  0
 14 17  1  1  0  0  0
 15 16  2  0  0  0  0
 16 18  1  0  0  0  0
 17 16  1  0  0  0  0
 18 19  1  0  0  0  0
 19 20  1  0  0  0  0
 21  3  1  0  0  0  0
 23 31  1  6  0  0  0
 23 24  1  0  0  0  0
 23 25  1  0  0  0  0
 24 21  1  6  0  0  0
 24 25  1  0  0  0  0
 25 22  1  6  0  0  0
 25 35  1  0  0  0  0
 26 29  1  1  0  0  0
 26 27  1  0  0  0  0
 26 28  1  0  0  0  0
 27 30  1  0  0  0  0
 28 30  1  0  0  0  0
 28 31  1  0  0  0  0
 30 31  1  0  0  0  0
 32 36  1  0  0  0  0
 34 37  2  0  0  0  0
 35 34  1  0  0  0  0
 35 32  2  0  0  0  0
 36 33  2  0  0  0  0
 37 33  1  0  0  0  0
M  END
>  <MODEL>
4

>  <REMARK>
 VINA RESULT:      -8.2      3.997      8.542
  Name = 
  8 active torsions:
  status: ('A' for Active; 'I' for Inactive)
    1  A    between atoms: O_1  and  C_16
    2  A    between atoms: O_1  and  C_24
    3  A    between atoms: C_8  and  O_25
    4  A    between atoms: C_13  and  O_25
    5  A    between atoms: N_14  and  C_17
    6  A    between atoms: C_23  and  C_33
    7  A    between atoms: C_26  and  C_32
    8  A    between atoms: N_30  and  C_36
                            x       y       z     vdW  Elec       q    Type
                         _______ _______ _______ _____ _____    ______ ____

>  <TORSDO>
F 8

$$$$
=
 OpenBabel10232411563D

 37 42  0  0  1  0  0  0  0  0999 V2000
  189.1060  178.9120  141.9890 O   0  0  0  0  0  0  0  0  0  0  0  0
  188.2230  176.7550  141.8370 N   0  0  0  0  0  2  0  0  0  0  0  0
  188.7910  177.9350  141.2580 C   0  0  0  0  0  0  0  0  0  0  0  0
  188.7810  177.8370  145.4170 C   0  0  2  0  0  3  0  0  0  0  0  0
  189.7090  177.4780  146.5940 C   0  0  0  0  0  2  0  0  0  0  0  0
  186.6690  177.5580  143.4920 C   0  0  0  0  0  3  0  0  0  0  0  0
  187.8560  176.6640  143.2440 C   0  0  2  0  0  3  0  0  0  0  0  0
  186.4070  178.0490  144.7110 C   0  0  0  0  0  0  0  0  0  0  0  0
  190.2610  176.5940  143.8640 C   0  0  0  0  0  3  0  0  0  0  0  0
  187.3220  177.7440  145.8610 C   0  0  0  0  0  2  0  0  0  0  0  0
  189.0250  177.0360  144.1410 C   0  0  0  0  0  0  0  0  0  0  0  0
  191.3930  176.9050  144.7910 C   0  0  0  0  0  2  0  0  0  0  0  0
  185.0430  179.1250  144.9430 Cl  0  0  0  0  0  0  0  0  0  0  0  0
  190.9330  176.6280  146.2200 C   0  0  1  0  0  3  0  0  0  0  0  0
  192.2650  174.6580  147.8000 O   0  0  0  0  0  0  0  0  0  0  0  0
  192.6510  175.8550  147.9100 C   0  0  0  0  0  0  0  0  0  0  0  0
  192.0140  176.8900  147.1590 N   0  0  0  0  0  2  0  0  0  0  0  0
  193.6970  176.1860  148.7750 O   0  0  0  0  0  0  0  0  0  0  0  0
  193.4800  176.5530  150.1310 C   0  0  0  0  0  2  0  0  0  0  0  0
  193.2180  178.0430  150.2350 C   0  0  0  0  0  1  0  0  0  0  0  0
  188.9910  178.0180  139.8810 O   0  0  0  0  0  0  0  0  0  0  0  0
  189.0790  179.1220  137.3420 C   0  0  0  0  0  1  0  0  0  0  0  0
  189.0130  176.5430  137.8980 C   0  0  1  0  0  3  0  0  0  0  0  0
  188.1860  177.2770  138.9660 C   0  0  2  0  0  3  0  0  0  0  0  0
  188.2750  177.8370  137.5490 C   0  0  1  0  0  0  0  0  0  0  0  0
  192.6990  175.5530  138.0900 C   0  0  1  0  0  3  0  0  0  0  0  0
  192.7140  176.5400  136.9410 C   0  0  0  0  0  2  0  0  0  0  0  0
  191.2040  175.3790  137.9180 C   0  0  2  0  0  3  0  0  0  0  0  0
  193.3800  174.3320  137.6950 N   0  0  0  0  0  1  0  0  0  0  0  0
  191.2180  176.3710  136.7720 C   0  0  1  0  0  3  0  0  0  0  0  0
  190.5200  176.7220  138.0700 C   0  0  1  0  0  3  0  0  0  0  0  0
  185.8140  177.3480  137.3910 C   0  0  0  0  0  3  0  0  0  0  0  0
  184.6890  177.2780  135.2470 C   0  0  0  0  0  3  0  0  0  0  0  0
  187.0560  177.7780  135.3550 C   0  0  0  0  0  3  0  0  0  0  0  0
  187.0200  177.6720  136.7520 C   0  0  0  0  0  0  0  0  0  0  0  0
  184.6500  177.1570  136.6400 C   0  0  0  0  0  3  0  0  0  0  0  0
  185.8920  177.5850  134.6050 C   0  0  0  0  0  3  0  0  0  0  0  0
  3  2  1  0  0  0  0
  3  1  2  0  0  0  0
  4 10  1  1  0  0  0
  4  5  1  0  0  0  0
  6  8  2  0  0  0  0
  7  2  1  6  0  0  0
  7  6  1  0  0  0  0
  7 11  1  0  0  0  0
  8 13  1  0  0  0  0
  8 10  1  0  0  0  0
  9 11  2  0  0  0  0
  9 12  1  0  0  0  0
 11  4  1  0  0  0  0
 12 14  1  0  0  0  0
 14  5  1  0  0  0  0
 14 17  1  1  0  0  0
 15 16  2  0  0  0  0
 16 18  1  0  0  0  0
 17 16  1  0  0  0  0
 18 19  1  0  0  0  0
 19 20  1  0  0  0  0
 21  3  1  0  0  0  0
 23 31  1  1  0  0  0
 23 24  1  0  0  0  0
 24 21  1  1  0  0  0
 25 22  1  6  0  0  0
 25 23  1  0  0  0  0
 25 24  1  0  0  0  0
 26 29  1  6  0  0  0
 27 26  1  0  0  0  0
 28 31  1  0  0  0  0
 28 26  1  0  0  0  0
 30 27  1  0  0  0  0
 30 28  1  0  0  0  0
 30 31  1  0  0  0  0
 33 36  1  0  0  0  0
 34 35  2  0  0  0  0
 35 32  1  0  0  0  0
 35 25  1  0  0  0  0
 36 32  2  0  0  0  0
 37 33  2  0  0  0  0
 37 34  1  0  0  0  0
M  END
>  <MODEL>
5

>  <REMARK>
 VINA RESULT:      -7.5      3.247      6.905
  Name = 
  8 active torsions:
  status: ('A' for Active; 'I' for Inactive)
    1  A    between atoms: O_1  and  C_16
    2  A    between atoms: O_1  and  C_24
    3  A    between atoms: C_8  and  O_25
    4  A    between atoms: C_13  and  O_25
    5  A    between atoms: N_14  and  C_17
    6  A    between atoms: C_23  and  C_33
    7  A    between atoms: C_26  and  C_32
    8  A    between atoms: N_30  and  C_36
                            x       y       z     vdW  Elec       q    Type
                         _______ _______ _______ _____ _____    ______ ____

>  <TORSDO>
F 8

$$$$
=
 OpenBabel10232411563D

 37 42  0  0  1  0  0  0  0  0999 V2000
  189.9280  175.8820  140.5980 O   0  0  0  0  0  0  0  0  0  0  0  0
  189.7530  177.9760  139.5770 N   0  0  0  0  0  2  0  0  0  0  0  0
  189.7730  177.1250  140.7290 C   0  0  0  0  0  0  0  0  0  0  0  0
  190.8390  175.3080  137.1270 C   0  0  2  0  0  3  0  0  0  0  0  0
  192.0830  174.9590  136.2860 C   0  0  0  0  0  2  0  0  0  0  0  0
  188.4820  176.7190  137.9620 C   0  0  0  0  0  3  0  0  0  0  0  0
  189.7700  177.4590  138.2150 C   0  0  2  0  0  3  0  0  0  0  0  0
  188.3970  175.7640  137.0270 C   0  0  0  0  0  0  0  0  0  0  0  0
  192.1820  176.9130  138.4560 C   0  0  0  0  0  3  0  0  0  0  0  0
  189.6080  175.3820  136.2250 C   0  0  0  0  0  2  0  0  0  0  0  0
  190.9760  176.5640  137.9830 C   0  0  0  0  0  0  0  0  0  0  0  0
  193.3770  176.0640  138.1620 C   0  0  0  0  0  2  0  0  0  0  0  0
  186.8920  174.8960  136.8010 Cl  0  0  0  0  0  0  0  0  0  0  0  0
  193.3630  175.7130  136.6760 C   0  0  1  0  0  3  0  0  0  0  0  0
  195.8380  176.7220  135.6730 O   0  0  0  0  0  0  0  0  0  0  0  0
  195.7440  175.4760  135.8520 C   0  0  0  0  0  0  0  0  0  0  0  0
  194.5260  174.9070  136.3360 N   0  0  0  0  0  2  0  0  0  0  0  0
  196.8240  174.6360  135.5680 O   0  0  0  0  0  0  0  0  0  0  0  0
  198.0420  174.6850  136.3000 C   0  0  0  0  0  2  0  0  0  0  0  0
  197.8360  174.1320  137.6970 C   0  0  0  0  0  1  0  0  0  0  0  0
  189.6110  177.6640  142.0040 O   0  0  0  0  0  0  0  0  0  0  0  0
  190.2490  179.1480  144.2550 C   0  0  0  0  0  1  0  0  0  0  0  0
  188.5270  177.1510  144.1650 C   0  0  1  0  0  3  0  0  0  0  0  0
  189.6580  176.8420  143.1710 C   0  0  2  0  0  3  0  0  0  0  0  0
  189.9460  177.6590  144.4280 C   0  0  1  0  0  0  0  0  0  0  0  0
  185.4400  178.6540  142.4870 C   0  0  1  0  0  3  0  0  0  0  0  0
  185.2840  179.1580  143.9070 C   0  0  0  0  0  2  0  0  0  0  0  0
  186.3930  177.5820  142.9750 C   0  0  2  0  0  3  0  0  0  0  0  0
  184.2000  178.0390  142.0460 N   0  0  0  0  0  1  0  0  0  0  0  0
  186.2410  178.0900  144.3950 C   0  0  1  0  0  3  0  0  0  0  0  0
  187.5660  178.2330  143.6760 C   0  0  1  0  0  3  0  0  0  0  0  0
  190.6050  177.2680  146.8220 C   0  0  0  0  0  3  0  0  0  0  0  0
  192.2300  175.5710  147.4110 C   0  0  0  0  0  3  0  0  0  0  0  0
  191.6060  175.8960  145.0930 C   0  0  0  0  0  3  0  0  0  0  0  0
  190.7180  176.9130  145.4710 C   0  0  0  0  0  0  0  0  0  0  0  0
  191.3560  176.5950  147.7910 C   0  0  0  0  0  3  0  0  0  0  0  0
  192.3560  175.2240  146.0630 C   0  0  0  0  0  3  0  0  0  0  0  0
  1  3  2  0  0  0  0
  2  3  1  0  0  0  0
  3 21  1  0  0  0  0
  4 10  1  6  0  0  0
  4 11  1  0  0  0  0
  5 14  1  0  0  0  0
  5  4  1  0  0  0  0
  6  7  1  0  0  0  0
  7  2  1  1  0  0  0
  8  6  2  0  0  0  0
 10  8  1  0  0  0  0
 11  7  1  0  0  0  0
 11  9  2  0  0  0  0
 12  9  1  0  0  0  0
 13  8  1  0  0  0  0
 14 17  1  1  0  0  0
 14 12  1  0  0  0  0
 15 16  2  0  0  0  0
 16 17  1  0  0  0  0
 18 16  1  0  0  0  0
 18 19  1  0  0  0  0
 19 20  1  0  0  0  0
 23 31  1  6  0  0  0
 23 25  1  0  0  0  0
 24 21  1  6  0  0  0
 24 23  1  0  0  0  0
 24 25  1  0  0  0  0
 25 22  1  6  0  0  0
 25 35  1  0  0  0  0
 26 29  1  1  0  0  0
 26 28  1  0  0  0  0
 26 27  1  0  0  0  0
 27 30  1  0  0  0  0
 28 31  1  0  0  0  0
 28 30  1  0  0  0  0
 31 30  1  0  0  0  0
 32 36  1  0  0  0  0
 33 36  2  0  0  0  0
 34 35  1  0  0  0  0
 34 37  2  0  0  0  0
 35 32  2  0  0  0  0
 37 33  1  0  0  0  0
M  END
>  <MODEL>
6

>  <REMARK>
 VINA RESULT:      -7.5      3.143     10.052
  Name = 
  8 active torsions:
  status: ('A' for Active; 'I' for Inactive)
    1  A    between atoms: O_1  and  C_16
    2  A    between atoms: O_1  and  C_24
    3  A    between atoms: C_8  and  O_25
    4  A    between atoms: C_13  and  O_25
    5  A    between atoms: N_14  and  C_17
    6  A    between atoms: C_23  and  C_33
    7  A    between atoms: C_26  and  C_32
    8  A    between atoms: N_30  and  C_36
                            x       y       z     vdW  Elec       q    Type
                         _______ _______ _______ _____ _____    ______ ____

>  <TORSDO>
F 8

$$$$
=
 OpenBabel10232411563D

 37 42  0  0  1  0  0  0  0  0999 V2000
  189.3420  178.9450  141.2950 O   0  0  0  0  0  0  0  0  0  0  0  0
  189.8660  177.0800  142.6000 N   0  0  0  0  0  2  0  0  0  0  0  0
  189.7110  177.7410  141.3390 C   0  0  0  0  0  0  0  0  0  0  0  0
  187.4960  177.2630  145.5410 C   0  0  2  0  0  3  0  0  0  0  0  0
  186.1390  177.9090  145.8830 C   0  0  0  0  0  2  0  0  0  0  0  0
  190.3030  177.0770  144.9690 C   0  0  0  0  0  3  0  0  0  0  0  0
  189.4860  177.6950  143.8650 C   0  0  2  0  0  3  0  0  0  0  0  0
  189.8750  177.0740  146.2380 C   0  0  0  0  0  0  0  0  0  0  0  0
  187.1100  177.7190  143.1350 C   0  0  0  0  0  3  0  0  0  0  0  0
  188.5380  177.6610  146.5850 C   0  0  0  0  0  2  0  0  0  0  0  0
  187.9970  177.5370  144.1250 C   0  0  0  0  0  0  0  0  0  0  0  0
  185.6440  177.6320  143.4160 C   0  0  0  0  0  2  0  0  0  0  0  0
  190.8380  176.3000  147.4810 Cl  0  0  0  0  0  0  0  0  0  0  0  0
  185.3480  178.4370  144.6780 C   0  0  1  0  0  3  0  0  0  0  0  0
  183.2710  179.3250  142.9320 O   0  0  0  0  0  0  0  0  0  0  0  0
  182.9320  178.8510  144.0510 C   0  0  0  0  0  0  0  0  0  0  0  0
  183.9240  178.4050  144.9770 N   0  0  0  0  0  2  0  0  0  0  0  0
  181.5820  178.7660  144.4050 O   0  0  0  0  0  0  0  0  0  0  0  0
  180.5730  178.3840  143.4800 C   0  0  0  0  0  2  0  0  0  0  0  0
  180.1360  179.5810  142.6570 C   0  0  0  0  0  1  0  0  0  0  0  0
  189.9560  177.0560  140.1500 O   0  0  0  0  0  0  0  0  0  0  0  0
  189.3610  178.5840  137.9170 C   0  0  0  0  0  1  0  0  0  0  0  0
  189.3550  175.9470  138.0250 C   0  0  1  0  0  3  0  0  0  0  0  0
  188.8940  176.4760  139.3930 C   0  0  2  0  0  3  0  0  0  0  0  0
  188.5990  177.2740  138.1260 C   0  0  1  0  0  0  0  0  0  0  0  0
  192.9650  174.9050  137.3320 C   0  0  1  0  0  3  0  0  0  0  0  0
  192.6790  175.7990  136.1440 C   0  0  0  0  0  2  0  0  0  0  0  0
  191.4780  174.7460  137.5690 C   0  0  2  0  0  3  0  0  0  0  0  0
  193.5230  173.6440  136.8740 N   0  0  0  0  0  1  0  0  0  0  0  0
  191.1910  175.6450  136.3830 C   0  0  1  0  0  3  0  0  0  0  0  0
  190.8540  176.1100  137.7850 C   0  0  1  0  0  3  0  0  0  0  0  0
  186.7600  176.4120  136.6450 C   0  0  0  0  0  3  0  0  0  0  0  0
  184.4900  177.2280  136.8660 C   0  0  0  0  0  3  0  0  0  0  0  0
  186.2270  178.0680  138.3310 C   0  0  0  0  0  3  0  0  0  0  0  0
  187.1630  177.2350  137.7060 C   0  0  0  0  0  0  0  0  0  0  0  0
  185.4240  176.4050  136.2300 C   0  0  0  0  0  3  0  0  0  0  0  0
  184.8920  178.0610  137.9150 C   0  0  0  0  0  3  0  0  0  0  0  0
  1  3  2  0  0  0  0
  3  2  1  0  0  0  0
  4  5  1  1  0  0  0
  4 10  1  0  0  0  0
  6  8  2  0  0  0  0
  7  2  1  6  0  0  0
  7 11  1  0  0  0  0
  7  6  1  0  0  0  0
  8 10  1  0  0  0  0
  8 13  1  0  0  0  0
  9 12  1  0  0  0  0
  9 11  2  0  0  0  0
 11  4  1  0  0  0  0
 12 14  1  0  0  0  0
 14 17  1  1  0  0  0
 14  5  1  0  0  0  0
 15 16  2  0  0  0  0
 16 18  1  0  0  0  0
 16 17  1  0  0  0  0
 19 18  1  0  0  0  0
 20 19  1  0  0  0  0
 21  3  1  0  0  0  0
 23 31  1  1  0  0  0
 23 25  1  0  0  0  0
 23 24  1  0  0  0  0
 24 21  1  1  0  0  0
 25 22  1  6  0  0  0
 25 24  1  0  0  0  0
 26 29  1  6  0  0  0
 26 28  1  0  0  0  0
 27 30  1  0  0  0  0
 27 26  1  0  0  0  0
 28 31  1  0  0  0  0
 30 28  1  0  0  0  0
 30 31  1  0  0  0  0
 32 35  1  0  0  0  0
 33 37  2  0  0  0  0
 35 25  1  0  0  0  0
 35 34  2  0  0  0  0
 36 32  2  0  0  0  0
 36 33  1  0  0  0  0
 37 34  1  0  0  0  0
M  END
>  <MODEL>
7

>  <REMARK>
 VINA RESULT:      -7.5      1.770      4.493
  Name = 
  8 active torsions:
  status: ('A' for Active; 'I' for Inactive)
    1  A    between atoms: O_1  and  C_16
    2  A    between atoms: O_1  and  C_24
    3  A    between atoms: C_8  and  O_25
    4  A    between atoms: C_13  and  O_25
    5  A    between atoms: N_14  and  C_17
    6  A    between atoms: C_23  and  C_33
    7  A    between atoms: C_26  and  C_32
    8  A    between atoms: N_30  and  C_36
                            x       y       z     vdW  Elec       q    Type
                         _______ _______ _______ _____ _____    ______ ____

>  <TORSDO>
F 8

$$$$
=
 OpenBabel10232411563D

 37 42  0  0  1  0  0  0  0  0999 V2000
  187.1620  179.2000  136.9280 O   0  0  0  0  0  0  0  0  0  0  0  0
  187.4520  177.4270  138.4210 N   0  0  0  0  0  2  0  0  0  0  0  0
  186.6550  178.2150  137.5300 C   0  0  0  0  0  0  0  0  0  0  0  0
  190.5190  176.8020  140.5430 C   0  0  2  0  0  3  0  0  0  0  0  0
  191.0350  177.1630  141.9490 C   0  0  0  0  0  2  0  0  0  0  0  0
  189.7620  177.1560  137.7960 C   0  0  0  0  0  3  0  0  0  0  0  0
  188.8160  177.7850  138.7850 C   0  0  2  0  0  3  0  0  0  0  0  0
  191.0380  176.9020  138.1140 C   0  0  0  0  0  0  0  0  0  0  0  0
  188.2380  177.5280  141.1890 C   0  0  0  0  0  3  0  0  0  0  0  0
  191.5490  177.2100  139.4910 C   0  0  0  0  0  2  0  0  0  0  0  0
  189.1360  177.3530  140.2070 C   0  0  0  0  0  0  0  0  0  0  0  0
  188.5870  177.1660  142.5970 C   0  0  0  0  0  2  0  0  0  0  0  0
  192.0890  176.1250  136.9470 Cl  0  0  0  0  0  0  0  0  0  0  0  0
  189.9740  177.7240  142.9070 C   0  0  1  0  0  3  0  0  0  0  0  0
  188.4580  178.4180  145.2250 O   0  0  0  0  0  0  0  0  0  0  0  0
  189.5340  177.7820  145.3990 C   0  0  0  0  0  0  0  0  0  0  0  0
  190.3470  177.4200  144.2810 N   0  0  0  0  0  2  0  0  0  0  0  0
  189.9520  177.4330  146.6860 O   0  0  0  0  0  0  0  0  0  0  0  0
  189.0950  176.7840  147.6170 C   0  0  0  0  0  2  0  0  0  0  0  0
  188.5390  177.7890  148.6060 C   0  0  0  0  0  1  0  0  0  0  0  0
  185.3110  177.9070  137.3270 O   0  0  0  0  0  0  0  0  0  0  0  0
  182.7060  178.2670  136.4580 C   0  0  0  0  0  1  0  0  0  0  0  0
  183.4790  176.6110  138.3610 C   0  0  1  0  0  3  0  0  0  0  0  0
  184.3890  177.8480  138.4150 C   0  0  2  0  0  3  0  0  0  0  0  0
  182.9440  177.9820  137.9410 C   0  0  1  0  0  0  0  0  0  0  0  0
  184.3270  173.3600  136.5410 C   0  0  1  0  0  3  0  0  0  0  0  0
  182.9950  173.7140  135.9140 C   0  0  0  0  0  2  0  0  0  0  0  0
  184.0220  174.2800  137.7040 C   0  0  2  0  0  3  0  0  0  0  0  0
  184.3040  171.9790  136.9940 N   0  0  0  0  0  1  0  0  0  0  0  0
  182.6910  174.6400  137.0740 C   0  0  1  0  0  3  0  0  0  0  0  0
  183.7830  175.6830  137.1860 C   0  0  1  0  0  3  0  0  0  0  0  0
  181.6660  177.9930  140.1060 C   0  0  0  0  0  3  0  0  0  0  0  0
  180.2870  179.8840  140.7330 C   0  0  0  0  0  3  0  0  0  0  0  0
  181.5210  179.9250  138.6490 C   0  0  0  0  0  3  0  0  0  0  0  0
  182.0430  178.6550  138.9280 C   0  0  0  0  0  0  0  0  0  0  0  0
  180.7930  178.6100  141.0090 C   0  0  0  0  0  3  0  0  0  0  0  0
  180.6490  180.5400  139.5530 C   0  0  0  0  0  3  0  0  0  0  0  0
  1  3  2  0  0  0  0
  3  2  1  0  0  0  0
  4 10  1  6  0  0  0
  4  5  1  0  0  0  0
  5 14  1  0  0  0  0
  6  8  2  0  0  0  0
  6  7  1  0  0  0  0
  7  2  1  6  0  0  0
  7 11  1  0  0  0  0
  8 10  1  0  0  0  0
  9 12  1  0  0  0  0
 11  4  1  0  0  0  0
 11  9  2  0  0  0  0
 12 14  1  0  0  0  0
 13  8  1  0  0  0  0
 14 17  1  1  0  0  0
 15 16  2  0  0  0  0
 16 18  1  0  0  0  0
 17 16  1  0  0  0  0
 18 19  1  0  0  0  0
 19 20  1  0  0  0  0
 21  3  1  0  0  0  0
 23 31  1  6  0  0  0
 23 24  1  0  0  0  0
 24 21  1  6  0  0  0
 25 22  1  6  0  0  0
 25 23  1  0  0  0  0
 25 24  1  0  0  0  0
 25 35  1  0  0  0  0
 26 29  1  1  0  0  0
 26 28  1  0  0  0  0
 27 26  1  0  0  0  0
 27 30  1  0  0  0  0
 30 31  1  0  0  0  0
 30 28  1  0  0  0  0
 31 28  1  0  0  0  0
 32 36  1  0  0  0  0
 33 36  2  0  0  0  0
 34 35  1  0  0  0  0
 34 37  2  0  0  0  0
 35 32  2  0  0  0  0
 37 33  1  0  0  0  0
M  END
>  <MODEL>
8

>  <REMARK>
 VINA RESULT:      -7.1      4.199      8.453
  Name = 
  8 active torsions:
  status: ('A' for Active; 'I' for Inactive)
    1  A    between atoms: O_1  and  C_16
    2  A    between atoms: O_1  and  C_24
    3  A    between atoms: C_8  and  O_25
    4  A    between atoms: C_13  and  O_25
    5  A    between atoms: N_14  and  C_17
    6  A    between atoms: C_23  and  C_33
    7  A    between atoms: C_26  and  C_32
    8  A    between atoms: N_30  and  C_36
                            x       y       z     vdW  Elec       q    Type
                         _______ _______ _______ _____ _____    ______ ____

>  <TORSDO>
F 8

$$$$
=
 OpenBabel10232411563D

 37 42  0  0  1  0  0  0  0  0999 V2000
  188.2240  176.5320  139.3460 O   0  0  0  0  0  0  0  0  0  0  0  0
  189.3430  178.5470  138.9660 N   0  0  0  0  0  2  0  0  0  0  0  0
  188.6290  177.6330  139.8060 C   0  0  0  0  0  0  0  0  0  0  0  0
  190.0620  176.1850  136.1010 C   0  0  2  0  0  3  0  0  0  0  0  0
  191.2890  175.5640  135.4050 C   0  0  0  0  0  2  0  0  0  0  0  0
  188.1630  178.1850  136.8970 C   0  0  0  0  0  3  0  0  0  0  0  0
  189.5190  178.3300  137.5350 C   0  0  2  0  0  3  0  0  0  0  0  0
  188.0010  177.5270  135.7420 C   0  0  0  0  0  0  0  0  0  0  0  0
  191.4910  176.8900  138.0000 C   0  0  0  0  0  3  0  0  0  0  0  0
  189.1770  176.8810  135.0690 C   0  0  0  0  0  2  0  0  0  0  0  0
  190.3890  177.1120  137.2680 C   0  0  0  0  0  0  0  0  0  0  0  0
  192.3790  175.7290  137.6840 C   0  0  0  0  0  2  0  0  0  0  0  0
  186.3970  177.3420  135.0610 Cl  0  0  0  0  0  0  0  0  0  0  0  0
  192.6110  175.6980  136.1760 C   0  0  1  0  0  3  0  0  0  0  0  0
  195.4610  175.8290  136.0930 O   0  0  0  0  0  0  0  0  0  0  0  0
  194.9180  174.7240  135.8150 C   0  0  0  0  0  0  0  0  0  0  0  0
  193.4950  174.5980  135.8220 N   0  0  0  0  0  2  0  0  0  0  0  0
  195.6990  173.6130  135.4850 O   0  0  0  0  0  0  0  0  0  0  0  0
  196.8180  173.2080  136.2640 C   0  0  0  0  0  2  0  0  0  0  0  0
  196.3660  172.7890  137.6500 C   0  0  0  0  0  1  0  0  0  0  0  0
  188.3670  177.9580  141.1360 O   0  0  0  0  0  0  0  0  0  0  0  0
  189.5220  179.2740  143.2830 C   0  0  0  0  0  1  0  0  0  0  0  0
  187.8000  177.2810  143.4440 C   0  0  1  0  0  3  0  0  0  0  0  0
  188.6690  177.0530  142.1970 C   0  0  2  0  0  3  0  0  0  0  0  0
  189.2480  177.7750  143.4110 C   0  0  1  0  0  0  0  0  0  0  0  0
  184.3490  178.9050  143.2130 C   0  0  1  0  0  3  0  0  0  0  0  0
  184.9540  179.6530  144.3830 C   0  0  0  0  0  2  0  0  0  0  0  0
  185.3760  177.8050  143.3880 C   0  0  2  0  0  3  0  0  0  0  0  0
  183.0340  178.4060  143.5770 N   0  0  0  0  0  1  0  0  0  0  0  0
  185.9850  178.5560  144.5560 C   0  0  1  0  0  3  0  0  0  0  0  0
  186.7670  178.3920  143.2690 C   0  0  1  0  0  3  0  0  0  0  0  0
  190.9300  175.9130  143.5700 C   0  0  0  0  0  3  0  0  0  0  0  0
  192.0020  175.3730  145.6750 C   0  0  0  0  0  3  0  0  0  0  0  0
  190.4050  177.1910  145.5610 C   0  0  0  0  0  3  0  0  0  0  0  0
  190.2290  176.9570  144.1910 C   0  0  0  0  0  0  0  0  0  0  0  0
  191.8180  175.1260  144.3100 C   0  0  0  0  0  3  0  0  0  0  0  0
  191.2930  176.4030  146.3000 C   0  0  0  0  0  3  0  0  0  0  0  0
  1  3  2  0  0  0  0
  2  3  1  0  0  0  0
  3 21  1  0  0  0  0
  4 10  1  6  0  0  0
  4 11  1  0  0  0  0
  5  4  1  0  0  0  0
  5 14  1  0  0  0  0
  6  7  1  0  0  0  0
  7  2  1  1  0  0  0
  8  6  2  0  0  0  0
 10  8  1  0  0  0  0
 11  7  1  0  0  0  0
 11  9  2  0  0  0  0
 12  9  1  0  0  0  0
 13  8  1  0  0  0  0
 14 17  1  1  0  0  0
 14 12  1  0  0  0  0
 16 17  1  0  0  0  0
 16 15  2  0  0  0  0
 18 16  1  0  0  0  0
 18 19  1  0  0  0  0
 19 20  1  0  0  0  0
 23 31  1  6  0  0  0
 24 21  1  6  0  0  0
 24 25  1  0  0  0  0
 24 23  1  0  0  0  0
 25 22  1  6  0  0  0
 25 23  1  0  0  0  0
 25 35  1  0  0  0  0
 26 28  1  0  0  0  0
 26 29  1  1  0  0  0
 26 27  1  0  0  0  0
 27 30  1  0  0  0  0
 28 30  1  0  0  0  0
 31 28  1  0  0  0  0
 31 30  1  0  0  0  0
 32 35  2  0  0  0  0
 32 36  1  0  0  0  0
 33 37  1  0  0  0  0
 34 37  2  0  0  0  0
 35 34  1  0  0  0  0
 36 33  2  0  0  0  0
M  END
>  <MODEL>
9

>  <REMARK>
 VINA RESULT:      -6.5      3.211      9.931
  Name = 
  8 active torsions:
  status: ('A' for Active; 'I' for Inactive)
    1  A    between atoms: O_1  and  C_16
    2  A    between atoms: O_1  and  C_24
    3  A    between atoms: C_8  and  O_25
    4  A    between atoms: C_13  and  O_25
    5  A    between atoms: N_14  and  C_17
    6  A    between atoms: C_23  and  C_33
    7  A    between atoms: C_26  and  C_32
    8  A    between atoms: N_30  and  C_36
                            x       y       z     vdW  Elec       q    Type
                         _______ _______ _______ _____ _____    ______ ____

>  <TORSDO>
F 8

$$$$
