=
 OpenBabel10232409163D

 49 55  0  0  1  0  0  0  0  0999 V2000
  184.7900  178.9430  139.7880 C   0  0  0  0  0  0  0  0  0  0  0  0
  183.3280  179.0090  139.4450 C   0  0  1  0  0  3  0  0  0  0  0  0
  184.6340  178.6860  143.9190 C   0  0  0  0  0  2  0  0  0  0  0  0
  185.9510  178.3580  143.2240 C   0  0  0  0  0  0  0  0  0  0  0  0
  182.6740  178.8530  140.7500 N   0  0  0  0  0  0  0  0  0  0  0  0
  183.3750  178.3820  143.0800 C   0  0  0  0  0  2  0  0  0  0  0  0
  183.5930  178.7710  141.6530 C   0  0  0  0  0  0  0  0  0  0  0  0
  186.0890  178.4830  141.8930 C   0  0  0  0  0  3  0  0  0  0  0  0
  184.9090  178.8040  141.0910 C   0  0  0  0  0  0  0  0  0  0  0  0
  185.8830  178.7880  138.8750 N   0  0  0  0  0  2  0  0  0  0  0  0
  185.6590  178.3990  136.4910 C   0  0  0  0  0  1  0  0  0  0  0  0
  185.9910  177.7680  137.8350 C   0  0  2  0  0  0  0  0  0  0  0  0
  185.0890  176.7280  138.0940 O   0  0  0  0  0  1  0  0  0  0  0  0
  187.6110  176.1110  136.8210 C   0  0  0  0  0  0  0  0  0  0  0  0
  188.5370  176.4760  135.8000 N   0  0  0  0  0  0  0  0  0  0  0  0
  189.0210  175.6180  134.7260 C   0  0  0  0  0  1  0  0  0  0  0  0
  188.4200  178.2160  137.2370 C   0  0  0  0  0  0  0  0  0  0  0  0
  188.6990  179.3290  137.7550 O   0  0  0  0  0  0  0  0  0  0  0  0
  189.0510  177.7470  136.0540 N   0  0  0  0  0  2  0  0  0  0  0  0
  187.2310  174.8590  137.0470 C   0  0  0  0  0  2  0  0  0  0  0  0
  187.4390  177.2280  137.8130 C   0  0  1  0  0  3  0  0  0  0  0  0
  182.9690  180.3570  138.8410 C   0  0  0  0  0  2  0  0  0  0  0  0
  181.5250  180.4900  138.7750 N   0  0  0  0  0  2  0  0  0  0  0  0
  181.1740  180.6710  137.3770 C   0  0  0  0  0  2  0  0  0  0  0  0
  180.7030  179.3560  136.7840 C   0  0  0  0  0  2  0  0  0  0  0  0
  180.0350  178.5000  137.8460 C   0  0  0  0  0  2  0  0  0  0  0  0
  179.9820  177.1610  137.4350 O   0  0  0  0  0  0  0  0  0  0  0  0
  181.3200  176.7640  137.3670 C   0  0  0  0  0  2  0  0  0  0  0  0
  181.2870  174.3150  137.8190 O   0  0  0  0  0  0  0  0  0  0  0  0
  181.9920  175.7850  139.4310 O   0  0  0  0  0  1  0  0  0  0  0  0
  181.5470  175.6040  138.2660 C   0  0  0  0  0  0  0  0  0  0  0  0
  187.1460  177.9430  144.0210 C   0  0  1  0  0  3  0  0  0  0  0  0
  187.8630  177.5340  146.3860 C   0  0  2  0  0  3  0  0  0  0  0  0
  186.7470  177.3550  145.3720 C   0  0  1  0  0  3  0  0  0  0  0  0
  187.2340  177.9220  147.7150 C   0  0  0  0  0  2  0  0  0  0  0  0
  186.6760  178.4620  146.4120 C   0  0  1  0  0  3  0  0  0  0  0  0
  188.0500  177.0210  143.1950 C   0  0  2  0  0  3  0  0  0  0  0  0
  187.8360  175.6770  143.5210 O   0  0  0  0  0  1  0  0  0  0  0  0
  191.6110  178.1610  142.9490 N   0  0  0  0  0  0  0  0  0  0  0  0
  190.0950  177.4510  144.4660 N   0  0  0  0  0  0  0  0  0  0  0  0
  191.4060  177.9200  144.2010 C   0  0  0  0  0  3  0  0  0  0  0  0
  189.4990  177.3940  143.3210 C   0  0  0  0  0  0  0  0  0  0  0  0
  190.3890  177.8650  142.2190 C   0  0  2  0  0  3  0  0  0  0  0  0
  190.7260  177.3450  139.8470 C   0  0  1  0  0  3  0  0  0  0  0  0
  189.5660  176.7060  140.3010 O   0  0  0  0  0  0  0  0  0  0  0  0
  190.6450  176.7630  141.2020 C   0  0  2  0  0  3  0  0  0  0  0  0
  192.7830  176.7210  138.5990 O   0  0  0  0  0  1  0  0  0  0  0  0
  190.8940  175.4380  138.4370 O   0  0  0  0  0  0  0  0  0  0  0  0
  191.4660  176.4390  138.9340 C   0  0  0  0  0  0  0  0  0  0  0  0
  1  9  2  0  0  0  0
  2 22  1  1  0  0  0
  2  1  1  0  0  0  0
  2  5  1  0  0  0  0
  4  3  1  0  0  0  0
  4 32  1  0  0  0  0
  5  7  2  0  0  0  0
  6  3  1  0  0  0  0
  7  6  1  0  0  0  0
  8  4  2  0  0  0  0
  9  7  1  0  0  0  0
  9  8  1  0  0  0  0
 10  1  1  0  0  0  0
 12 11  1  6  0  0  0
 12 13  1  0  0  0  0
 12 10  1  0  0  0  0
 14 20  2  0  0  0  0
 14 21  1  0  0  0  0
 15 19  1  0  0  0  0
 15 14  1  0  0  0  0
 16 15  1  0  0  0  0
 17 18  2  0  0  0  0
 17 21  1  0  0  0  0
 19 17  1  0  0  0  0
 21 12  1  6  0  0  0
 23 22  1  0  0  0  0
 24 23  1  0  0  0  0
 25 24  1  0  0  0  0
 25 26  1  0  0  0  0
 27 26  1  0  0  0  0
 28 27  1  0  0  0  0
 28 31  1  0  0  0  0
 29 31  2  0  0  0  0
 31 30  1  0  0  0  0
 32 37  1  6  0  0  0
 33 36  1  0  0  0  0
 33 35  1  1  0  0  0
 34 32  1  6  0  0  0
 34 33  1  0  0  0  0
 34 36  1  0  0  0  0
 36 35  1  1  0  0  0
 37 42  1  0  0  0  0
 37 38  1  1  0  0  0
 39 41  2  0  0  0  0
 41 40  1  0  0  0  0
 42 40  2  0  0  0  0
 43 39  1  1  0  0  0
 43 42  1  0  0  0  0
 44 49  1  6  0  0  0
 44 45  1  0  0  0  0
 44 46  1  0  0  0  0
 46 45  1  6  0  0  0
 46 43  1  0  0  0  0
 47 49  1  0  0  0  0
 48 49  2  0  0  0  0
M  END
>  <MODEL>
1

>  <REMARK>
 VINA RESULT:      -7.3      0.000      0.000
  Name = 
  17 active torsions:
  status: ('A' for Active; 'I' for Inactive)
    1  A    between atoms: C_1  and  C_10
    2  A    between atoms: C_1  and  N_39
    3  A    between atoms: C_4  and  N_7
    4  A    between atoms: N_7  and  C_30
    5  A    between atoms: C_8  and  C_27
    6  A    between atoms: C_10  and  C_25
    7  A    between atoms: C_14  and  C_45
    8  A    between atoms: C_15  and  C_45
    9  A    between atoms: C_19  and  C_44
   10  A    between atoms: C_19  and  C_45
   11  A    between atoms: O_21  and  C_25
   12  A    between atoms: O_21  and  C_43
   13  A    between atoms: C_27  and  N_39
   14  A    between atoms: C_29  and  C_32
   15  A    between atoms: C_30  and  C_49
   16  A    between atoms: C_38  and  C_43
   17  A    between atoms: C_42  and  C_48
                            x       y       z     vdW  Elec       q    Type
                         _______ _______ _______ _____ _____    ______ ____

>  <TORSDO>
F 17

$$$$
=
 OpenBabel10232409163D

 49 55  0  0  1  0  0  0  0  0999 V2000
  184.8580  178.8980  139.7090 C   0  0  0  0  0  0  0  0  0  0  0  0
  183.3970  178.9710  139.3640 C   0  0  1  0  0  3  0  0  0  0  0  0
  184.6950  178.6680  143.8410 C   0  0  0  0  0  2  0  0  0  0  0  0
  186.0110  178.3270  143.1500 C   0  0  0  0  0  0  0  0  0  0  0  0
  182.7400  178.8270  140.6690 N   0  0  0  0  0  0  0  0  0  0  0  0
  183.4350  178.3660  143.0020 C   0  0  0  0  0  2  0  0  0  0  0  0
  183.6570  178.7450  141.5730 C   0  0  0  0  0  0  0  0  0  0  0  0
  186.1510  178.4420  141.8190 C   0  0  0  0  0  3  0  0  0  0  0  0
  184.9740  178.7660  141.0130 C   0  0  0  0  0  0  0  0  0  0  0  0
  185.9510  178.7310  138.7980 N   0  0  0  0  0  2  0  0  0  0  0  0
  184.7080  177.0510  137.5660 C   0  0  0  0  0  1  0  0  0  0  0  0
  186.0770  177.6750  137.7970 C   0  0  2  0  0  0  0  0  0  0  0  0
  186.9640  176.6910  138.2530 O   0  0  0  0  0  1  0  0  0  0  0  0
  188.0930  178.2080  136.3650 C   0  0  0  0  0  0  0  0  0  0  0  0
  188.4710  177.4030  135.2500 N   0  0  0  0  0  0  0  0  0  0  0  0
  189.8280  177.1710  134.7740 C   0  0  0  0  0  1  0  0  0  0  0  0
  186.2130  177.4880  135.2660 C   0  0  0  0  0  0  0  0  0  0  0  0
  185.0310  177.3080  134.8740 O   0  0  0  0  0  0  0  0  0  0  0  0
  187.3360  176.9770  134.5620 N   0  0  0  0  0  2  0  0  0  0  0  0
  188.9300  179.0290  136.9890 C   0  0  0  0  0  2  0  0  0  0  0  0
  186.5960  178.2950  136.4800 C   0  0  1  0  0  3  0  0  0  0  0  0
  183.0470  180.3180  138.7510 C   0  0  0  0  0  2  0  0  0  0  0  0
  181.6040  180.4470  138.6540 N   0  0  0  0  0  2  0  0  0  0  0  0
  181.1800  179.6710  137.5010 C   0  0  0  0  0  2  0  0  0  0  0  0
  180.1860  180.4660  136.6760 C   0  0  0  0  0  2  0  0  0  0  0  0
  180.8030  180.8840  135.3520 C   0  0  0  0  0  2  0  0  0  0  0  0
  180.4160  182.1890  135.0210 O   0  0  0  0  0  0  0  0  0  0  0  0
  180.4830  182.8900  136.2270 C   0  0  0  0  0  2  0  0  0  0  0  0
  180.8230  184.8920  134.7850 O   0  0  0  0  0  0  0  0  0  0  0  0
  181.7230  184.8120  136.8920 O   0  0  0  0  0  1  0  0  0  0  0  0
  181.0500  184.2440  135.9910 C   0  0  0  0  0  0  0  0  0  0  0  0
  187.2020  177.9090  143.9520 C   0  0  1  0  0  3  0  0  0  0  0  0
  187.8740  177.5690  146.3390 C   0  0  2  0  0  3  0  0  0  0  0  0
  186.7970  177.3190  145.3000 C   0  0  1  0  0  3  0  0  0  0  0  0
  187.1910  177.9420  147.6460 C   0  0  0  0  0  2  0  0  0  0  0  0
  186.6420  178.4360  146.3210 C   0  0  1  0  0  3  0  0  0  0  0  0
  188.1080  176.9870  143.1270 C   0  0  2  0  0  3  0  0  0  0  0  0
  187.8820  175.6420  143.4420 O   0  0  0  0  0  1  0  0  0  0  0  0
  191.6720  178.1280  142.9350 N   0  0  0  0  0  0  0  0  0  0  0  0
  190.1550  177.3500  144.4160 N   0  0  0  0  0  0  0  0  0  0  0  0
  191.4670  177.8280  144.1740 C   0  0  0  0  0  3  0  0  0  0  0  0
  189.5580  177.3500  143.2700 C   0  0  0  0  0  0  0  0  0  0  0  0
  190.4490  177.8700  142.1910 C   0  0  2  0  0  3  0  0  0  0  0  0
  190.6110  177.4350  139.7850 C   0  0  1  0  0  3  0  0  0  0  0  0
  189.5530  176.6900  140.3200 O   0  0  0  0  0  0  0  0  0  0  0  0
  190.7020  176.8170  141.1230 C   0  0  2  0  0  3  0  0  0  0  0  0
  192.7240  176.6540  138.7330 O   0  0  0  0  0  1  0  0  0  0  0  0
  190.7000  175.9170  137.9570 O   0  0  0  0  0  0  0  0  0  0  0  0
  191.3380  176.6170  138.7830 C   0  0  0  0  0  0  0  0  0  0  0  0
  1  9  2  0  0  0  0
  2 22  1  1  0  0  0
  2  1  1  0  0  0  0
  2  5  1  0  0  0  0
  4  3  1  0  0  0  0
  4 32  1  0  0  0  0
  5  7  2  0  0  0  0
  6  3  1  0  0  0  0
  7  6  1  0  0  0  0
  8  4  2  0  0  0  0
  9  7  1  0  0  0  0
  9  8  1  0  0  0  0
 10  1  1  0  0  0  0
 12 11  1  6  0  0  0
 12 13  1  0  0  0  0
 12 10  1  0  0  0  0
 14 21  1  0  0  0  0
 14 20  2  0  0  0  0
 15 14  1  0  0  0  0
 16 15  1  0  0  0  0
 17 21  1  0  0  0  0
 18 17  2  0  0  0  0
 19 15  1  0  0  0  0
 19 17  1  0  0  0  0
 21 12  1  1  0  0  0
 23 22  1  0  0  0  0
 24 23  1  0  0  0  0
 25 24  1  0  0  0  0
 26 25  1  0  0  0  0
 27 26  1  0  0  0  0
 27 28  1  0  0  0  0
 29 31  2  0  0  0  0
 31 28  1  0  0  0  0
 31 30  1  0  0  0  0
 32 37  1  6  0  0  0
 33 35  1  1  0  0  0
 34 32  1  6  0  0  0
 34 36  1  0  0  0  0
 34 33  1  0  0  0  0
 36 33  1  0  0  0  0
 36 35  1  1  0  0  0
 37 42  1  0  0  0  0
 37 38  1  1  0  0  0
 39 41  2  0  0  0  0
 41 40  1  0  0  0  0
 42 40  2  0  0  0  0
 43 39  1  1  0  0  0
 43 42  1  0  0  0  0
 44 49  1  6  0  0  0
 44 45  1  0  0  0  0
 44 46  1  0  0  0  0
 46 45  1  6  0  0  0
 46 43  1  0  0  0  0
 47 49  1  0  0  0  0
 48 49  2  0  0  0  0
M  END
>  <MODEL>
2

>  <REMARK>
 VINA RESULT:      -7.3      2.114      3.055
  Name = 
  17 active torsions:
  status: ('A' for Active; 'I' for Inactive)
    1  A    between atoms: C_1  and  C_10
    2  A    between atoms: C_1  and  N_39
    3  A    between atoms: C_4  and  N_7
    4  A    between atoms: N_7  and  C_30
    5  A    between atoms: C_8  and  C_27
    6  A    between atoms: C_10  and  C_25
    7  A    between atoms: C_14  and  C_45
    8  A    between atoms: C_15  and  C_45
    9  A    between atoms: C_19  and  C_44
   10  A    between atoms: C_19  and  C_45
   11  A    between atoms: O_21  and  C_25
   12  A    between atoms: O_21  and  C_43
   13  A    between atoms: C_27  and  N_39
   14  A    between atoms: C_29  and  C_32
   15  A    between atoms: C_30  and  C_49
   16  A    between atoms: C_38  and  C_43
   17  A    between atoms: C_42  and  C_48
                            x       y       z     vdW  Elec       q    Type
                         _______ _______ _______ _____ _____    ______ ____

>  <TORSDO>
F 17

$$$$
=
 OpenBabel10232409163D

 49 55  0  0  1  0  0  0  0  0999 V2000
  189.2680  177.1340  140.2250 C   0  0  0  0  0  0  0  0  0  0  0  0
  188.6050  178.4800  140.3190 C   0  0  1  0  0  3  0  0  0  0  0  0
  189.7680  176.7730  136.1290 C   0  0  0  0  0  2  0  0  0  0  0  0
  190.5330  175.8160  137.0370 C   0  0  0  0  0  0  0  0  0  0  0  0
  188.5930  178.9420  138.9260 N   0  0  0  0  0  0  0  0  0  0  0  0
  189.4840  178.1570  136.7520 C   0  0  0  0  0  2  0  0  0  0  0  0
  189.1010  178.0120  138.1900 C   0  0  0  0  0  0  0  0  0  0  0  0
  190.3680  175.8370  138.3710 C   0  0  0  0  0  3  0  0  0  0  0  0
  189.5450  176.8920  138.9620 C   0  0  0  0  0  0  0  0  0  0  0  0
  189.7680  176.3420  141.3090 N   0  0  0  0  0  2  0  0  0  0  0  0
  191.8740  177.4920  141.6730 C   0  0  0  0  0  1  0  0  0  0  0  0
  190.6980  176.7950  142.3410 C   0  0  2  0  0  0  0  0  0  0  0  0
  191.1660  175.6960  143.0730 O   0  0  0  0  0  1  0  0  0  0  0  0
  189.0310  177.0870  144.2210 C   0  0  0  0  0  0  0  0  0  0  0  0
  189.4340  177.2890  145.5740 N   0  0  0  0  0  0  0  0  0  0  0  0
  188.7210  176.8430  146.7630 C   0  0  0  0  0  1  0  0  0  0  0  0
  190.8860  178.4330  144.2750 C   0  0  0  0  0  0  0  0  0  0  0  0
  191.8350  179.2040  143.9770 O   0  0  0  0  0  0  0  0  0  0  0  0
  190.5500  178.1240  145.6190 N   0  0  0  0  0  2  0  0  0  0  0  0
  187.8270  176.6420  143.8770 C   0  0  0  0  0  2  0  0  0  0  0  0
  189.9650  177.7870  143.2730 C   0  0  1  0  0  3  0  0  0  0  0  0
  187.1810  178.3510  140.8370 C   0  0  0  0  0  2  0  0  0  0  0  0
  186.2490  178.7560  139.7990 N   0  0  0  0  0  2  0  0  0  0  0  0
  184.9170  178.7180  140.3800 C   0  0  0  0  0  2  0  0  0  0  0  0
  185.0100  178.5380  141.8840 C   0  0  0  0  0  2  0  0  0  0  0  0
  183.6490  178.7270  142.5300 C   0  0  0  0  0  2  0  0  0  0  0  0
  183.7210  178.4810  143.9080 O   0  0  0  0  0  0  0  0  0  0  0  0
  184.9230  179.0720  144.3050 C   0  0  0  0  0  2  0  0  0  0  0  0
  186.3530  179.1300  146.3440 O   0  0  0  0  0  0  0  0  0  0  0  0
  184.1410  178.5470  146.4920 O   0  0  0  0  0  1  0  0  0  0  0  0
  185.1110  178.8950  145.7680 C   0  0  0  0  0  0  0  0  0  0  0  0
  191.4470  174.7860  136.4550 C   0  0  1  0  0  3  0  0  0  0  0  0
  191.1540  172.5960  135.2770 C   0  0  2  0  0  3  0  0  0  0  0  0
  190.8100  174.0740  135.2650 C   0  0  1  0  0  3  0  0  0  0  0  0
  189.9080  171.8190  134.8810 C   0  0  0  0  0  2  0  0  0  0  0  0
  189.8010  173.0500  135.7600 C   0  0  1  0  0  3  0  0  0  0  0  0
  192.8170  175.3970  136.1420 C   0  0  2  0  0  3  0  0  0  0  0  0
  192.7660  176.1890  134.9890 O   0  0  0  0  0  1  0  0  0  0  0  0
  195.2930  172.6000  136.4330 N   0  0  0  0  0  0  0  0  0  0  0  0
  194.4800  174.0760  134.9290 N   0  0  0  0  0  0  0  0  0  0  0  0
  195.3510  172.9930  135.2040 C   0  0  0  0  0  3  0  0  0  0  0  0
  193.8910  174.3520  136.0450 C   0  0  0  0  0  0  0  0  0  0  0  0
  194.3220  173.4260  137.1330 C   0  0  2  0  0  3  0  0  0  0  0  0
  196.3880  173.6970  138.4230 C   0  0  1  0  0  3  0  0  0  0  0  0
  195.3640  173.2650  139.2750 O   0  0  0  0  0  0  0  0  0  0  0  0
  195.0010  174.1780  138.2670 C   0  0  2  0  0  3  0  0  0  0  0  0
  198.1700  175.4300  138.4110 O   0  0  0  0  0  0  0  0  0  0  0  0
  197.0810  174.8990  140.3540 O   0  0  0  0  0  1  0  0  0  0  0  0
  197.2170  174.7120  139.1190 C   0  0  0  0  0  0  0  0  0  0  0  0
  1  2  1  0  0  0  0
  1 10  1  0  0  0  0
  2 22  1  6  0  0  0
  3  6  1  0  0  0  0
  3  4  1  0  0  0  0
  4  8  2  0  0  0  0
  5  2  1  0  0  0  0
  6  7  1  0  0  0  0
  7  5  2  0  0  0  0
  7  9  1  0  0  0  0
  8  9  1  0  0  0  0
  9  1  2  0  0  0  0
 10 12  1  0  0  0  0
 12 11  1  6  0  0  0
 12 13  1  0  0  0  0
 14 15  1  0  0  0  0
 15 19  1  0  0  0  0
 15 16  1  0  0  0  0
 17 19  1  0  0  0  0
 18 17  2  0  0  0  0
 20 14  2  0  0  0  0
 21 12  1  6  0  0  0
 21 14  1  0  0  0  0
 21 17  1  0  0  0  0
 23 24  1  0  0  0  0
 23 22  1  0  0  0  0
 24 25  1  0  0  0  0
 25 26  1  0  0  0  0
 26 27  1  0  0  0  0
 27 28  1  0  0  0  0
 28 31  1  0  0  0  0
 31 29  2  0  0  0  0
 31 30  1  0  0  0  0
 32 37  1  6  0  0  0
 32  4  1  0  0  0  0
 33 35  1  6  0  0  0
 33 36  1  0  0  0  0
 34 33  1  0  0  0  0
 34 36  1  0  0  0  0
 34 32  1  1  0  0  0
 36 35  1  6  0  0  0
 37 38  1  6  0  0  0
 39 43  1  0  0  0  0
 40 41  1  0  0  0  0
 40 42  2  0  0  0  0
 41 39  2  0  0  0  0
 42 37  1  0  0  0  0
 43 42  1  6  0  0  0
 43 46  1  0  0  0  0
 44 49  1  1  0  0  0
 44 45  1  0  0  0  0
 46 44  1  0  0  0  0
 46 45  1  1  0  0  0
 47 49  2  0  0  0  0
 49 48  1  0  0  0  0
M  END
>  <MODEL>
3

>  <REMARK>
 VINA RESULT:      -7.1      3.483      8.310
  Name = 
  17 active torsions:
  status: ('A' for Active; 'I' for Inactive)
    1  A    between atoms: C_1  and  C_10
    2  A    between atoms: C_1  and  N_39
    3  A    between atoms: C_4  and  N_7
    4  A    between atoms: N_7  and  C_30
    5  A    between atoms: C_8  and  C_27
    6  A    between atoms: C_10  and  C_25
    7  A    between atoms: C_14  and  C_45
    8  A    between atoms: C_15  and  C_45
    9  A    between atoms: C_19  and  C_44
   10  A    between atoms: C_19  and  C_45
   11  A    between atoms: O_21  and  C_25
   12  A    between atoms: O_21  and  C_43
   13  A    between atoms: C_27  and  N_39
   14  A    between atoms: C_29  and  C_32
   15  A    between atoms: C_30  and  C_49
   16  A    between atoms: C_38  and  C_43
   17  A    between atoms: C_42  and  C_48
                            x       y       z     vdW  Elec       q    Type
                         _______ _______ _______ _____ _____    ______ ____

>  <TORSDO>
F 17

$$$$
=
 OpenBabel10232409163D

 49 55  0  0  1  0  0  0  0  0999 V2000
  189.1280  177.2120  140.4370 C   0  0  0  0  0  0  0  0  0  0  0  0
  188.4180  178.5320  140.5560 C   0  0  1  0  0  3  0  0  0  0  0  0
  189.7900  177.0240  136.3530 C   0  0  0  0  0  2  0  0  0  0  0  0
  190.5500  176.0570  137.2530 C   0  0  0  0  0  0  0  0  0  0  0  0
  188.4430  179.0470  139.1820 N   0  0  0  0  0  0  0  0  0  0  0  0
  189.4390  178.3730  137.0160 C   0  0  0  0  0  2  0  0  0  0  0  0
  189.0080  178.1620  138.4310 C   0  0  0  0  0  0  0  0  0  0  0  0
  190.3360  176.0210  138.5790 C   0  0  0  0  0  3  0  0  0  0  0  0
  189.4580  177.0270  139.1780 C   0  0  0  0  0  0  0  0  0  0  0  0
  189.6120  176.3950  141.5090 N   0  0  0  0  0  2  0  0  0  0  0  0
  191.7860  177.4380  141.7780 C   0  0  0  0  0  1  0  0  0  0  0  0
  190.6140  176.7860  142.4970 C   0  0  2  0  0  0  0  0  0  0  0  0
  191.0660  175.6540  143.1890 O   0  0  0  0  0  1  0  0  0  0  0  0
  189.0570  177.1270  144.4610 C   0  0  0  0  0  0  0  0  0  0  0  0
  189.5340  177.2830  145.7960 N   0  0  0  0  0  0  0  0  0  0  0  0
  188.8570  176.8510  147.0110 C   0  0  0  0  0  1  0  0  0  0  0  0
  190.9790  178.3760  144.4460 C   0  0  0  0  0  0  0  0  0  0  0  0
  191.9510  179.1040  144.1140 O   0  0  0  0  0  0  0  0  0  0  0  0
  190.6920  178.0600  145.8000 N   0  0  0  0  0  2  0  0  0  0  0  0
  187.8170  176.7500  144.1700 C   0  0  0  0  0  2  0  0  0  0  0  0
  189.9790  177.7960  143.4800 C   0  0  1  0  0  3  0  0  0  0  0  0
  186.9810  178.3400  141.0140 C   0  0  0  0  0  2  0  0  0  0  0  0
  186.0760  178.7910  139.9720 N   0  0  0  0  0  2  0  0  0  0  0  0
  184.7660  178.9480  140.5800 C   0  0  0  0  0  2  0  0  0  0  0  0
  184.8700  178.7960  142.0860 C   0  0  0  0  0  2  0  0  0  0  0  0
  183.4960  178.8810  142.7280 C   0  0  0  0  0  2  0  0  0  0  0  0
  183.6110  179.0420  144.1160 O   0  0  0  0  0  0  0  0  0  0  0  0
  184.9000  178.5930  144.4130 C   0  0  0  0  0  2  0  0  0  0  0  0
  184.1990  178.3900  146.7940 O   0  0  0  0  0  1  0  0  0  0  0  0
  186.2760  179.2010  146.2600 O   0  0  0  0  0  0  0  0  0  0  0  0
  185.1660  178.7520  145.8660 C   0  0  0  0  0  0  0  0  0  0  0  0
  191.5180  175.0770  136.6690 C   0  0  1  0  0  3  0  0  0  0  0  0
  191.2490  172.8950  135.4720 C   0  0  2  0  0  3  0  0  0  0  0  0
  190.9410  174.3800  135.4390 C   0  0  1  0  0  3  0  0  0  0  0  0
  190.0140  172.1470  134.9960 C   0  0  0  0  0  2  0  0  0  0  0  0
  189.8790  173.3800  135.8680 C   0  0  1  0  0  3  0  0  0  0  0  0
  192.8730  175.7470  136.4140 C   0  0  2  0  0  3  0  0  0  0  0  0
  193.3360  175.4770  135.1210 O   0  0  0  0  0  1  0  0  0  0  0  0
  195.6790  174.5000  138.5630 N   0  0  0  0  0  0  0  0  0  0  0  0
  193.9930  176.0040  138.5730 N   0  0  0  0  0  0  0  0  0  0  0  0
  195.1050  175.4360  139.2440 C   0  0  0  0  0  3  0  0  0  0  0  0
  193.8900  175.3700  137.4530 C   0  0  0  0  0  0  0  0  0  0  0  0
  194.9700  174.3500  137.3020 C   0  0  2  0  0  3  0  0  0  0  0  0
  195.4850  171.9850  136.9180 C   0  0  1  0  0  3  0  0  0  0  0  0
  194.6430  172.4470  135.8990 O   0  0  0  0  0  0  0  0  0  0  0  0
  194.3970  172.9460  137.1910 C   0  0  2  0  0  3  0  0  0  0  0  0
  195.2970  170.1740  138.6100 O   0  0  0  0  0  1  0  0  0  0  0  0
  194.5700  169.8370  136.4650 O   0  0  0  0  0  0  0  0  0  0  0  0
  195.0790  170.6130  137.3120 C   0  0  0  0  0  0  0  0  0  0  0  0
  1  2  1  0  0  0  0
  1 10  1  0  0  0  0
  2 22  1  6  0  0  0
  3  6  1  0  0  0  0
  3  4  1  0  0  0  0
  4  8  2  0  0  0  0
  5  2  1  0  0  0  0
  6  7  1  0  0  0  0
  7  9  1  0  0  0  0
  7  5  2  0  0  0  0
  8  9  1  0  0  0  0
  9  1  2  0  0  0  0
 10 12  1  0  0  0  0
 12 11  1  6  0  0  0
 12 13  1  0  0  0  0
 14 15  1  0  0  0  0
 15 19  1  0  0  0  0
 15 16  1  0  0  0  0
 17 19  1  0  0  0  0
 18 17  2  0  0  0  0
 20 14  2  0  0  0  0
 21 12  1  6  0  0  0
 21 17  1  0  0  0  0
 21 14  1  0  0  0  0
 23 24  1  0  0  0  0
 23 22  1  0  0  0  0
 24 25  1  0  0  0  0
 25 26  1  0  0  0  0
 26 27  1  0  0  0  0
 27 28  1  0  0  0  0
 28 31  1  0  0  0  0
 31 30  2  0  0  0  0
 31 29  1  0  0  0  0
 32 37  1  6  0  0  0
 32  4  1  0  0  0  0
 33 35  1  6  0  0  0
 33 36  1  0  0  0  0
 34 33  1  0  0  0  0
 34 36  1  0  0  0  0
 34 32  1  1  0  0  0
 36 35  1  6  0  0  0
 37 38  1  6  0  0  0
 37 42  1  0  0  0  0
 39 41  2  0  0  0  0
 40 41  1  0  0  0  0
 42 40  2  0  0  0  0
 43 42  1  1  0  0  0
 43 39  1  0  0  0  0
 44 46  1  0  0  0  0
 44 49  1  1  0  0  0
 45 44  1  0  0  0  0
 46 45  1  6  0  0  0
 46 43  1  0  0  0  0
 48 49  2  0  0  0  0
 49 47  1  0  0  0  0
M  END
>  <MODEL>
4

>  <REMARK>
 VINA RESULT:      -7.0      3.546      8.121
  Name = 
  17 active torsions:
  status: ('A' for Active; 'I' for Inactive)
    1  A    between atoms: C_1  and  C_10
    2  A    between atoms: C_1  and  N_39
    3  A    between atoms: C_4  and  N_7
    4  A    between atoms: N_7  and  C_30
    5  A    between atoms: C_8  and  C_27
    6  A    between atoms: C_10  and  C_25
    7  A    between atoms: C_14  and  C_45
    8  A    between atoms: C_15  and  C_45
    9  A    between atoms: C_19  and  C_44
   10  A    between atoms: C_19  and  C_45
   11  A    between atoms: O_21  and  C_25
   12  A    between atoms: O_21  and  C_43
   13  A    between atoms: C_27  and  N_39
   14  A    between atoms: C_29  and  C_32
   15  A    between atoms: C_30  and  C_49
   16  A    between atoms: C_38  and  C_43
   17  A    between atoms: C_42  and  C_48
                            x       y       z     vdW  Elec       q    Type
                         _______ _______ _______ _____ _____    ______ ____

>  <TORSDO>
F 17

$$$$
=
 OpenBabel10232409163D

 49 55  0  0  1  0  0  0  0  0999 V2000
  188.5450  178.0750  139.3880 C   0  0  0  0  0  0  0  0  0  0  0  0
  189.8920  177.9610  138.7290 C   0  0  1  0  0  3  0  0  0  0  0  0
  189.4700  177.0330  143.2880 C   0  0  0  0  0  2  0  0  0  0  0  0
  188.1250  177.6980  143.0180 C   0  0  0  0  0  0  0  0  0  0  0  0
  190.7830  177.6380  139.8500 N   0  0  0  0  0  0  0  0  0  0  0  0
  190.5940  177.4430  142.3120 C   0  0  0  0  0  2  0  0  0  0  0  0
  190.0650  177.5360  140.9180 C   0  0  0  0  0  0  0  0  0  0  0  0
  187.7350  178.0040  141.7690 C   0  0  0  0  0  3  0  0  0  0  0  0
  188.6840  177.8190  140.6700 C   0  0  0  0  0  0  0  0  0  0  0  0
  187.3500  178.6200  138.8160 N   0  0  0  0  0  2  0  0  0  0  0  0
  186.6830  176.4870  137.8700 C   0  0  0  0  0  1  0  0  0  0  0  0
  186.5430  177.9990  137.7680 C   0  0  2  0  0  0  0  0  0  0  0  0
  186.9920  178.4220  136.5100 O   0  0  0  0  0  1  0  0  0  0  0  0
  184.1240  177.2670  137.6700 C   0  0  0  0  0  0  0  0  0  0  0  0
  183.3940  176.8880  138.8340 N   0  0  0  0  0  0  0  0  0  0  0  0
  182.3300  175.8950  138.9020 C   0  0  0  0  0  1  0  0  0  0  0  0
  184.7160  178.6240  139.4210 C   0  0  0  0  0  0  0  0  0  0  0  0
  185.2040  179.5350  140.1390 O   0  0  0  0  0  0  0  0  0  0  0  0
  183.7310  177.7210  139.9010 N   0  0  0  0  0  2  0  0  0  0  0  0
  183.7750  176.9050  136.4410 C   0  0  0  0  0  2  0  0  0  0  0  0
  185.0650  178.4010  137.9720 C   0  0  1  0  0  3  0  0  0  0  0  0
  189.9070  176.8330  137.7100 C   0  0  0  0  0  2  0  0  0  0  0  0
  190.2720  175.5900  138.3670 N   0  0  0  0  0  2  0  0  0  0  0  0
  191.5060  175.1280  137.7560 C   0  0  0  0  0  2  0  0  0  0  0  0
  191.1970  174.1830  136.6100 C   0  0  0  0  0  2  0  0  0  0  0  0
  192.3540  173.2260  136.3790 C   0  0  0  0  0  2  0  0  0  0  0  0
  193.5440  173.9360  136.1710 O   0  0  0  0  0  0  0  0  0  0  0  0
  194.5330  173.1370  136.7490 C   0  0  0  0  0  2  0  0  0  0  0  0
  195.0410  175.1420  138.1370 O   0  0  0  0  0  0  0  0  0  0  0  0
  195.3650  173.0340  138.9780 O   0  0  0  0  0  1  0  0  0  0  0  0
  195.0080  173.7590  138.0120 C   0  0  0  0  0  0  0  0  0  0  0  0
  187.1760  177.9750  144.1400 C   0  0  1  0  0  3  0  0  0  0  0  0
  184.8430  178.6560  144.7420 C   0  0  2  0  0  3  0  0  0  0  0  0
  185.7400  178.1190  143.6420 C   0  0  1  0  0  3  0  0  0  0  0  0
  183.8930  179.6690  144.1230 C   0  0  0  0  0  2  0  0  0  0  0  0
  185.3360  179.5850  143.6620 C   0  0  1  0  0  3  0  0  0  0  0  0
  187.3380  176.9310  145.2510 C   0  0  2  0  0  3  0  0  0  0  0  0
  186.1610  176.1950  145.4290 O   0  0  0  0  0  1  0  0  0  0  0  0
  189.0250  178.5340  148.1880 N   0  0  0  0  0  0  0  0  0  0  0  0
  186.9720  177.9590  147.4400 N   0  0  0  0  0  0  0  0  0  0  0  0
  187.7620  178.5570  148.4540 C   0  0  0  0  0  3  0  0  0  0  0  0
  187.8020  177.5470  146.5390 C   0  0  0  0  0  0  0  0  0  0  0  0
  189.2100  177.8880  146.8980 C   0  0  2  0  0  3  0  0  0  0  0  0
  191.4810  176.9680  146.8290 C   0  0  1  0  0  3  0  0  0  0  0  0
  190.7030  176.3540  145.8400 O   0  0  0  0  0  0  0  0  0  0  0  0
  190.0610  176.6370  147.0600 C   0  0  2  0  0  3  0  0  0  0  0  0
  192.9860  176.2450  148.6710 O   0  0  0  0  0  1  0  0  0  0  0  0
  192.5710  174.8560  146.8990 O   0  0  0  0  0  0  0  0  0  0  0  0
  192.3620  175.9580  147.4650 C   0  0  0  0  0  0  0  0  0  0  0  0
  1  9  2  0  0  0  0
  2 22  1  6  0  0  0
  2  1  1  0  0  0  0
  2  5  1  0  0  0  0
  4  3  1  0  0  0  0
  4 32  1  0  0  0  0
  5  7  2  0  0  0  0
  6  3  1  0  0  0  0
  7  6  1  0  0  0  0
  8  4  2  0  0  0  0
  9  7  1  0  0  0  0
  9  8  1  0  0  0  0
 10  1  1  0  0  0  0
 12 11  1  1  0  0  0
 12 10  1  0  0  0  0
 13 12  1  0  0  0  0
 14 21  1  0  0  0  0
 14 15  1  0  0  0  0
 15 16  1  0  0  0  0
 15 19  1  0  0  0  0
 17 19  1  0  0  0  0
 17 18  2  0  0  0  0
 20 14  2  0  0  0  0
 21 12  1  1  0  0  0
 21 17  1  0  0  0  0
 22 23  1  0  0  0  0
 24 23  1  0  0  0  0
 25 24  1  0  0  0  0
 26 25  1  0  0  0  0
 27 26  1  0  0  0  0
 27 28  1  0  0  0  0
 28 31  1  0  0  0  0
 31 29  2  0  0  0  0
 31 30  1  0  0  0  0
 32 37  1  1  0  0  0
 33 35  1  6  0  0  0
 34 36  1  0  0  0  0
 34 32  1  1  0  0  0
 34 33  1  0  0  0  0
 36 35  1  6  0  0  0
 36 33  1  0  0  0  0
 37 38  1  1  0  0  0
 37 42  1  0  0  0  0
 39 41  2  0  0  0  0
 40 41  1  0  0  0  0
 42 40  2  0  0  0  0
 43 42  1  1  0  0  0
 43 46  1  0  0  0  0
 43 39  1  0  0  0  0
 44 46  1  0  0  0  0
 44 49  1  1  0  0  0
 45 44  1  0  0  0  0
 46 45  1  6  0  0  0
 48 49  2  0  0  0  0
 49 47  1  0  0  0  0
M  END
>  <MODEL>
5

>  <REMARK>
 VINA RESULT:      -7.0      2.807      7.323
  Name = 
  17 active torsions:
  status: ('A' for Active; 'I' for Inactive)
    1  A    between atoms: C_1  and  C_10
    2  A    between atoms: C_1  and  N_39
    3  A    between atoms: C_4  and  N_7
    4  A    between atoms: N_7  and  C_30
    5  A    between atoms: C_8  and  C_27
    6  A    between atoms: C_10  and  C_25
    7  A    between atoms: C_14  and  C_45
    8  A    between atoms: C_15  and  C_45
    9  A    between atoms: C_19  and  C_44
   10  A    between atoms: C_19  and  C_45
   11  A    between atoms: O_21  and  C_25
   12  A    between atoms: O_21  and  C_43
   13  A    between atoms: C_27  and  N_39
   14  A    between atoms: C_29  and  C_32
   15  A    between atoms: C_30  and  C_49
   16  A    between atoms: C_38  and  C_43
   17  A    between atoms: C_42  and  C_48
                            x       y       z     vdW  Elec       q    Type
                         _______ _______ _______ _____ _____    ______ ____

>  <TORSDO>
F 17

$$$$
=
 OpenBabel10232409163D

 49 55  0  0  1  0  0  0  0  0999 V2000
  185.8330  178.4630  142.8460 C   0  0  0  0  0  0  0  0  0  0  0  0
  185.6270  178.0440  144.2750 C   0  0  1  0  0  3  0  0  0  0  0  0
  189.5620  176.8380  142.0650 C   0  0  0  0  0  2  0  0  0  0  0  0
  188.7180  177.3110  140.8850 C   0  0  0  0  0  0  0  0  0  0  0  0
  186.8120  177.2240  144.5550 N   0  0  0  0  0  0  0  0  0  0  0  0
  188.7450  176.3450  143.2780 C   0  0  0  0  0  2  0  0  0  0  0  0
  187.5610  177.2300  143.5030 C   0  0  0  0  0  0  0  0  0  0  0  0
  187.5280  177.9060  141.0720 C   0  0  0  0  0  3  0  0  0  0  0  0
  186.9770  177.9690  142.4260 C   0  0  0  0  0  0  0  0  0  0  0  0
  184.8670  179.0660  141.9770 N   0  0  0  0  0  2  0  0  0  0  0  0
  182.6810  179.0660  143.0290 C   0  0  0  0  0  1  0  0  0  0  0  0
  183.4810  178.6360  141.8090 C   0  0  2  0  0  0  0  0  0  0  0  0
  183.4280  177.2410  141.6880 O   0  0  0  0  0  1  0  0  0  0  0  0
  183.5610  178.8100  139.2870 C   0  0  0  0  0  0  0  0  0  0  0  0
  182.6210  178.1450  138.4450 N   0  0  0  0  0  0  0  0  0  0  0  0
  182.8760  177.6180  137.1110 C   0  0  0  0  0  1  0  0  0  0  0  0
  181.4840  178.8790  140.2550 C   0  0  0  0  0  0  0  0  0  0  0  0
  180.5010  179.1250  141.0010 O   0  0  0  0  0  0  0  0  0  0  0  0
  181.3490  178.2000  139.0150 N   0  0  0  0  0  2  0  0  0  0  0  0
  184.7510  179.2240  138.8650 C   0  0  0  0  0  2  0  0  0  0  0  0
  182.9000  179.3060  140.5430 C   0  0  1  0  0  3  0  0  0  0  0  0
  185.6000  179.2510  145.1990 C   0  0  0  0  0  2  0  0  0  0  0  0
  185.2830  178.8210  146.5500 N   0  0  0  0  0  2  0  0  0  0  0  0
  186.4100  179.1850  147.3920 C   0  0  0  0  0  2  0  0  0  0  0  0
  187.0970  177.9350  147.9090 C   0  0  0  0  0  2  0  0  0  0  0  0
  188.5860  178.1790  148.0910 C   0  0  0  0  0  2  0  0  0  0  0  0
  189.2560  178.0600  146.8670 O   0  0  0  0  0  0  0  0  0  0  0  0
  189.8840  176.8140  146.9320 C   0  0  0  0  0  2  0  0  0  0  0  0
  192.3290  176.3540  147.0400 O   0  0  0  0  0  1  0  0  0  0  0  0
  191.4370  177.4810  145.2540 O   0  0  0  0  0  0  0  0  0  0  0  0
  191.2530  176.9100  146.3620 C   0  0  0  0  0  0  0  0  0  0  0  0
  189.2280  177.1770  139.4860 C   0  0  1  0  0  3  0  0  0  0  0  0
  189.3250  178.2500  137.2260 C   0  0  2  0  0  3  0  0  0  0  0  0
  189.0890  178.4820  138.7070 C   0  0  1  0  0  3  0  0  0  0  0  0
  188.3070  179.0740  136.4530 C   0  0  0  0  0  2  0  0  0  0  0  0
  187.9160  178.3830  137.7440 C   0  0  1  0  0  3  0  0  0  0  0  0
  190.6520  176.6100  139.4840 C   0  0  2  0  0  3  0  0  0  0  0  0
  191.6030  177.6320  139.3770 O   0  0  0  0  0  1  0  0  0  0  0  0
  191.7090  174.0460  136.9640 N   0  0  0  0  0  0  0  0  0  0  0  0
  189.8570  174.8690  137.9610 N   0  0  0  0  0  0  0  0  0  0  0  0
  190.4250  173.9410  137.0530 C   0  0  0  0  0  3  0  0  0  0  0  0
  190.8420  175.5690  138.4190 C   0  0  0  0  0  0  0  0  0  0  0  0
  192.1450  175.1100  137.8550 C   0  0  2  0  0  3  0  0  0  0  0  0
  194.1810  175.7800  136.6650 C   0  0  1  0  0  3  0  0  0  0  0  0
  193.9710  176.6440  137.7470 O   0  0  0  0  0  0  0  0  0  0  0  0
  192.8240  176.2120  137.0560 C   0  0  2  0  0  3  0  0  0  0  0  0
  195.0960  177.8630  135.6630 O   0  0  0  0  0  1  0  0  0  0  0  0
  194.6340  176.0480  134.3460 O   0  0  0  0  0  0  0  0  0  0  0  0
  194.6580  176.5570  135.4950 C   0  0  0  0  0  0  0  0  0  0  0  0
  1  2  1  0  0  0  0
  2  5  1  0  0  0  0
  2 22  1  1  0  0  0
  3  6  1  0  0  0  0
  4  8  2  0  0  0  0
  4  3  1  0  0  0  0
  6  7  1  0  0  0  0
  7  5  2  0  0  0  0
  8  9  1  0  0  0  0
  9  1  2  0  0  0  0
  9  7  1  0  0  0  0
 10  1  1  0  0  0  0
 12 10  1  0  0  0  0
 12 11  1  1  0  0  0
 13 12  1  0  0  0  0
 14 21  1  0  0  0  0
 15 19  1  0  0  0  0
 15 14  1  0  0  0  0
 16 15  1  0  0  0  0
 17 21  1  0  0  0  0
 17 18  2  0  0  0  0
 19 17  1  0  0  0  0
 20 14  2  0  0  0  0
 21 12  1  1  0  0  0
 22 23  1  0  0  0  0
 23 24  1  0  0  0  0
 24 25  1  0  0  0  0
 25 26  1  0  0  0  0
 27 28  1  0  0  0  0
 27 26  1  0  0  0  0
 30 31  2  0  0  0  0
 31 28  1  0  0  0  0
 31 29  1  0  0  0  0
 32 37  1  1  0  0  0
 32  4  1  0  0  0  0
 33 35  1  6  0  0  0
 33 36  1  0  0  0  0
 33 34  1  0  0  0  0
 34 32  1  1  0  0  0
 36 35  1  6  0  0  0
 36 34  1  0  0  0  0
 37 38  1  6  0  0  0
 39 41  2  0  0  0  0
 40 42  2  0  0  0  0
 41 40  1  0  0  0  0
 42 37  1  0  0  0  0
 43 39  1  6  0  0  0
 43 42  1  0  0  0  0
 44 49  1  6  0  0  0
 44 46  1  0  0  0  0
 44 45  1  0  0  0  0
 46 45  1  1  0  0  0
 46 43  1  0  0  0  0
 48 49  2  0  0  0  0
 49 47  1  0  0  0  0
M  END
>  <MODEL>
6

>  <REMARK>
 VINA RESULT:      -6.9      2.585      7.702
  Name = 
  17 active torsions:
  status: ('A' for Active; 'I' for Inactive)
    1  A    between atoms: C_1  and  C_10
    2  A    between atoms: C_1  and  N_39
    3  A    between atoms: C_4  and  N_7
    4  A    between atoms: N_7  and  C_30
    5  A    between atoms: C_8  and  C_27
    6  A    between atoms: C_10  and  C_25
    7  A    between atoms: C_14  and  C_45
    8  A    between atoms: C_15  and  C_45
    9  A    between atoms: C_19  and  C_44
   10  A    between atoms: C_19  and  C_45
   11  A    between atoms: O_21  and  C_25
   12  A    between atoms: O_21  and  C_43
   13  A    between atoms: C_27  and  N_39
   14  A    between atoms: C_29  and  C_32
   15  A    between atoms: C_30  and  C_49
   16  A    between atoms: C_38  and  C_43
   17  A    between atoms: C_42  and  C_48
                            x       y       z     vdW  Elec       q    Type
                         _______ _______ _______ _____ _____    ______ ____

>  <TORSDO>
F 17

$$$$
=
 OpenBabel10232409163D

 49 55  0  0  1  0  0  0  0  0999 V2000
  188.8140  177.7770  140.5680 C   0  0  0  0  0  0  0  0  0  0  0  0
  189.7960  176.9630  139.7720 C   0  0  1  0  0  3  0  0  0  0  0  0
  185.6500  178.0400  137.9080 C   0  0  0  0  0  2  0  0  0  0  0  0
  185.4030  178.4170  139.3650 C   0  0  0  0  0  0  0  0  0  0  0  0
  189.0500  176.6450  138.5490 N   0  0  0  0  0  0  0  0  0  0  0  0
  186.7440  176.9710  137.7010 C   0  0  0  0  0  2  0  0  0  0  0  0
  187.8950  177.2170  138.6230 C   0  0  0  0  0  0  0  0  0  0  0  0
  186.4000  178.4160  140.2660 C   0  0  0  0  0  3  0  0  0  0  0  0
  187.7110  177.9070  139.8640 C   0  0  0  0  0  0  0  0  0  0  0  0
  188.9160  178.1400  141.9500 N   0  0  0  0  0  2  0  0  0  0  0  0
  190.0370  176.1150  142.6780 C   0  0  0  0  0  1  0  0  0  0  0  0
  189.0600  177.2130  143.0700 C   0  0  2  0  0  0  0  0  0  0  0  0
  187.8180  176.6410  143.3750 O   0  0  0  0  0  1  0  0  0  0  0  0
  189.6100  177.1460  145.5380 C   0  0  0  0  0  0  0  0  0  0  0  0
  190.9390  176.9530  146.0190 N   0  0  0  0  0  0  0  0  0  0  0  0
  191.3220  176.2730  147.2490 C   0  0  0  0  0  1  0  0  0  0  0  0
  191.0850  178.2680  144.1870 C   0  0  0  0  0  0  0  0  0  0  0  0
  191.6090  179.0060  143.3130 O   0  0  0  0  0  0  0  0  0  0  0  0
  191.8420  177.6490  145.2160 N   0  0  0  0  0  2  0  0  0  0  0  0
  188.5280  176.9100  146.2710 C   0  0  0  0  0  2  0  0  0  0  0  0
  189.6080  177.9870  144.2910 C   0  0  1  0  0  3  0  0  0  0  0  0
  191.0320  177.7800  139.4300 C   0  0  0  0  0  2  0  0  0  0  0  0
  192.2230  176.9960  139.7030 N   0  0  0  0  0  2  0  0  0  0  0  0
  193.1100  177.1510  138.5630 C   0  0  0  0  0  2  0  0  0  0  0  0
  192.7480  176.1500  137.4820 C   0  0  0  0  0  2  0  0  0  0  0  0
  193.6970  174.9650  137.5100 C   0  0  0  0  0  2  0  0  0  0  0  0
  195.0180  175.3900  137.3130 O   0  0  0  0  0  0  0  0  0  0  0  0
  195.7630  174.2090  137.2750 C   0  0  0  0  0  2  0  0  0  0  0  0
  195.3580  172.3120  138.8380 O   0  0  0  0  0  0  0  0  0  0  0  0
  196.2980  174.2610  139.5960 O   0  0  0  0  0  1  0  0  0  0  0  0
  195.8180  173.6060  138.6320 C   0  0  0  0  0  0  0  0  0  0  0  0
  184.0460  178.8580  139.8140 C   0  0  1  0  0  3  0  0  0  0  0  0
  181.9010  179.9700  139.1580 C   0  0  2  0  0  3  0  0  0  0  0  0
  183.2220  179.4160  138.6570 C   0  0  1  0  0  3  0  0  0  0  0  0
  181.6200  181.2650  138.4120 C   0  0  0  0  0  2  0  0  0  0  0  0
  183.0320  180.9140  138.8390 C   0  0  1  0  0  3  0  0  0  0  0  0
  183.3420  177.7320  140.5810 C   0  0  2  0  0  3  0  0  0  0  0  0
  182.6830  176.8600  139.7070 O   0  0  0  0  0  1  0  0  0  0  0  0
  181.4830  179.4080  143.3700 N   0  0  0  0  0  0  0  0  0  0  0  0
  181.1330  178.0900  141.5690 N   0  0  0  0  0  0  0  0  0  0  0  0
  180.5860  178.8020  142.6650 C   0  0  0  0  0  3  0  0  0  0  0  0
  182.4120  178.2650  141.6330 C   0  0  0  0  0  0  0  0  0  0  0  0
  182.7850  179.1480  142.7760 C   0  0  2  0  0  3  0  0  0  0  0  0
  184.5850  179.3860  144.4230 C   0  0  1  0  0  3  0  0  0  0  0  0
  185.0190  178.5610  143.3790 O   0  0  0  0  0  0  0  0  0  0  0  0
  183.6750  178.4210  143.7730 C   0  0  2  0  0  3  0  0  0  0  0  0
  184.1690  178.4230  146.6770 O   0  0  0  0  0  1  0  0  0  0  0  0
  186.3080  178.8110  145.9580 O   0  0  0  0  0  0  0  0  0  0  0  0
  185.0750  178.8490  145.7160 C   0  0  0  0  0  0  0  0  0  0  0  0
  1 10  1  0  0  0  0
  2 22  1  6  0  0  0
  2  1  1  0  0  0  0
  3  4  1  0  0  0  0
  4 32  1  0  0  0  0
  4  8  2  0  0  0  0
  5  7  2  0  0  0  0
  5  2  1  0  0  0  0
  6  3  1  0  0  0  0
  6  7  1  0  0  0  0
  7  9  1  0  0  0  0
  9  8  1  0  0  0  0
  9  1  2  0  0  0  0
 10 12  1  0  0  0  0
 12 11  1  6  0  0  0
 12 13  1  0  0  0  0
 14 15  1  0  0  0  0
 14 20  2  0  0  0  0
 15 16  1  0  0  0  0
 17 21  1  0  0  0  0
 17 19  1  0  0  0  0
 18 17  2  0  0  0  0
 19 15  1  0  0  0  0
 21 12  1  6  0  0  0
 21 14  1  0  0  0  0
 22 23  1  0  0  0  0
 24 23  1  0  0  0  0
 25 26  1  0  0  0  0
 25 24  1  0  0  0  0
 27 26  1  0  0  0  0
 28 27  1  0  0  0  0
 28 31  1  0  0  0  0
 31 29  2  0  0  0  0
 31 30  1  0  0  0  0
 32 37  1  6  0  0  0
 33 35  1  6  0  0  0
 34 36  1  0  0  0  0
 34 33  1  0  0  0  0
 34 32  1  1  0  0  0
 36 35  1  6  0  0  0
 36 33  1  0  0  0  0
 37 38  1  6  0  0  0
 37 42  1  0  0  0  0
 40 42  2  0  0  0  0
 40 41  1  0  0  0  0
 41 39  2  0  0  0  0
 43 42  1  6  0  0  0
 43 39  1  0  0  0  0
 43 46  1  0  0  0  0
 44 49  1  1  0  0  0
 45 44  1  0  0  0  0
 46 45  1  6  0  0  0
 46 44  1  0  0  0  0
 49 48  2  0  0  0  0
 49 47  1  0  0  0  0
M  END
>  <MODEL>
7

>  <REMARK>
 VINA RESULT:      -6.8      2.540      9.287
  Name = 
  17 active torsions:
  status: ('A' for Active; 'I' for Inactive)
    1  A    between atoms: C_1  and  C_10
    2  A    between atoms: C_1  and  N_39
    3  A    between atoms: C_4  and  N_7
    4  A    between atoms: N_7  and  C_30
    5  A    between atoms: C_8  and  C_27
    6  A    between atoms: C_10  and  C_25
    7  A    between atoms: C_14  and  C_45
    8  A    between atoms: C_15  and  C_45
    9  A    between atoms: C_19  and  C_44
   10  A    between atoms: C_19  and  C_45
   11  A    between atoms: O_21  and  C_25
   12  A    between atoms: O_21  and  C_43
   13  A    between atoms: C_27  and  N_39
   14  A    between atoms: C_29  and  C_32
   15  A    between atoms: C_30  and  C_49
   16  A    between atoms: C_38  and  C_43
   17  A    between atoms: C_42  and  C_48
                            x       y       z     vdW  Elec       q    Type
                         _______ _______ _______ _____ _____    ______ ____

>  <TORSDO>
F 17

$$$$
=
 OpenBabel10232409163D

 49 55  0  0  1  0  0  0  0  0999 V2000
  186.1740  177.8950  143.0530 C   0  0  0  0  0  0  0  0  0  0  0  0
  186.7710  177.5460  144.3880 C   0  0  1  0  0  3  0  0  0  0  0  0
  189.4980  177.6390  140.5960 C   0  0  0  0  0  2  0  0  0  0  0  0
  188.1210  177.6860  139.9450 C   0  0  0  0  0  0  0  0  0  0  0  0
  188.1640  177.2240  144.0540 N   0  0  0  0  0  0  0  0  0  0  0  0
  189.5220  176.9870  141.9960 C   0  0  0  0  0  2  0  0  0  0  0  0
  188.3270  177.4100  142.7870 C   0  0  0  0  0  0  0  0  0  0  0  0
  187.0050  177.8340  140.6790 C   0  0  0  0  0  3  0  0  0  0  0  0
  187.1140  177.8060  142.1380 C   0  0  0  0  0  0  0  0  0  0  0  0
  184.7830  178.0450  142.7450 N   0  0  0  0  0  2  0  0  0  0  0  0
  184.6540  180.2430  143.7640 C   0  0  0  0  0  1  0  0  0  0  0  0
  183.8690  179.0040  143.3590 C   0  0  2  0  0  0  0  0  0  0  0  0
  183.2800  178.4360  144.4970 O   0  0  0  0  0  1  0  0  0  0  0  0
  183.0190  178.7460  140.9910 C   0  0  0  0  0  0  0  0  0  0  0  0
  181.9500  177.8630  140.6550 N   0  0  0  0  0  0  0  0  0  0  0  0
  181.7890  177.1390  139.4020 C   0  0  0  0  0  1  0  0  0  0  0  0
  181.4370  178.7920  142.6510 C   0  0  0  0  0  0  0  0  0  0  0  0
  180.7590  179.0710  143.6730 O   0  0  0  0  0  0  0  0  0  0  0  0
  180.9720  177.8990  141.6490 N   0  0  0  0  0  2  0  0  0  0  0  0
  183.9040  179.1880  140.1060 C   0  0  0  0  0  2  0  0  0  0  0  0
  182.7820  179.3890  142.3300 C   0  0  1  0  0  3  0  0  0  0  0  0
  186.7250  178.7350  145.3340 C   0  0  0  0  0  2  0  0  0  0  0  0
  186.1840  178.3150  146.6150 N   0  0  0  0  0  2  0  0  0  0  0  0
  187.1470  177.4040  147.2100 C   0  0  0  0  0  2  0  0  0  0  0  0
  187.8240  178.0650  148.3960 C   0  0  0  0  0  2  0  0  0  0  0  0
  189.3290  178.1120  148.1950 C   0  0  0  0  0  2  0  0  0  0  0  0
  189.7440  177.0710  147.3540 O   0  0  0  0  0  0  0  0  0  0  0  0
  191.1060  176.9230  147.6280 C   0  0  0  0  0  2  0  0  0  0  0  0
  192.6140  175.1620  146.7180 O   0  0  0  0  0  1  0  0  0  0  0  0
  191.5760  176.6430  145.3090 O   0  0  0  0  0  0  0  0  0  0  0  0
  191.7770  176.2460  146.4880 C   0  0  0  0  0  0  0  0  0  0  0  0
  187.9820  177.6290  138.4570 C   0  0  1  0  0  3  0  0  0  0  0  0
  186.3360  177.7370  136.5730 C   0  0  2  0  0  3  0  0  0  0  0  0
  186.6370  178.1810  137.9940 C   0  0  1  0  0  3  0  0  0  0  0  0
  184.8620  177.3720  136.4960 C   0  0  0  0  0  2  0  0  0  0  0  0
  185.6750  177.0320  137.7300 C   0  0  1  0  0  3  0  0  0  0  0  0
  189.1840  178.2960  137.7790 C   0  0  2  0  0  3  0  0  0  0  0  0
  188.8860  179.6110  137.4000 O   0  0  0  0  0  1  0  0  0  0  0  0
  190.6080  175.8790  135.2950 N   0  0  0  0  0  0  0  0  0  0  0  0
  189.3530  177.7540  135.4000 N   0  0  0  0  0  0  0  0  0  0  0  0
  189.9440  176.7430  134.6020 C   0  0  0  0  0  3  0  0  0  0  0  0
  189.6940  177.4920  136.6180 C   0  0  0  0  0  0  0  0  0  0  0  0
  190.5160  176.2480  136.6990 C   0  0  2  0  0  3  0  0  0  0  0  0
  192.5120  175.2790  137.7400 C   0  0  1  0  0  3  0  0  0  0  0  0
  191.9300  176.1990  138.6210 O   0  0  0  0  0  0  0  0  0  0  0  0
  191.9030  176.5340  137.2540 C   0  0  2  0  0  3  0  0  0  0  0  0
  194.7510  175.1060  136.6740 O   0  0  0  0  0  0  0  0  0  0  0  0
  194.5540  175.7480  138.8630 O   0  0  0  0  0  1  0  0  0  0  0  0
  193.9890  175.4050  137.7950 C   0  0  0  0  0  0  0  0  0  0  0  0
  1  2  1  0  0  0  0
  2 22  1  1  0  0  0
  3  6  1  0  0  0  0
  4  3  1  0  0  0  0
  4  8  2  0  0  0  0
  5  2  1  0  0  0  0
  6  7  1  0  0  0  0
  7  5  2  0  0  0  0
  8  9  1  0  0  0  0
  9  7  1  0  0  0  0
  9  1  2  0  0  0  0
 10  1  1  0  0  0  0
 10 12  1  0  0  0  0
 12 11  1  1  0  0  0
 12 13  1  0  0  0  0
 14 21  1  0  0  0  0
 15 14  1  0  0  0  0
 15 19  1  0  0  0  0
 16 15  1  0  0  0  0
 17 18  2  0  0  0  0
 19 17  1  0  0  0  0
 20 14  2  0  0  0  0
 21 17  1  0  0  0  0
 21 12  1  1  0  0  0
 22 23  1  0  0  0  0
 23 24  1  0  0  0  0
 24 25  1  0  0  0  0
 26 25  1  0  0  0  0
 27 28  1  0  0  0  0
 27 26  1  0  0  0  0
 30 31  2  0  0  0  0
 31 29  1  0  0  0  0
 31 28  1  0  0  0  0
 32 37  1  6  0  0  0
 32  4  1  0  0  0  0
 33 35  1  6  0  0  0
 33 36  1  0  0  0  0
 33 34  1  0  0  0  0
 34 32  1  1  0  0  0
 36 35  1  6  0  0  0
 36 34  1  0  0  0  0
 37 38  1  6  0  0  0
 40 42  2  0  0  0  0
 41 39  2  0  0  0  0
 41 40  1  0  0  0  0
 42 43  1  0  0  0  0
 42 37  1  0  0  0  0
 43 39  1  6  0  0  0
 43 46  1  0  0  0  0
 44 49  1  1  0  0  0
 44 45  1  0  0  0  0
 46 44  1  0  0  0  0
 46 45  1  1  0  0  0
 47 49  2  0  0  0  0
 49 48  1  0  0  0  0
M  END
>  <MODEL>
8

>  <REMARK>
 VINA RESULT:      -6.3      2.601      8.304
  Name = 
  17 active torsions:
  status: ('A' for Active; 'I' for Inactive)
    1  A    between atoms: C_1  and  C_10
    2  A    between atoms: C_1  and  N_39
    3  A    between atoms: C_4  and  N_7
    4  A    between atoms: N_7  and  C_30
    5  A    between atoms: C_8  and  C_27
    6  A    between atoms: C_10  and  C_25
    7  A    between atoms: C_14  and  C_45
    8  A    between atoms: C_15  and  C_45
    9  A    between atoms: C_19  and  C_44
   10  A    between atoms: C_19  and  C_45
   11  A    between atoms: O_21  and  C_25
   12  A    between atoms: O_21  and  C_43
   13  A    between atoms: C_27  and  N_39
   14  A    between atoms: C_29  and  C_32
   15  A    between atoms: C_30  and  C_49
   16  A    between atoms: C_38  and  C_43
   17  A    between atoms: C_42  and  C_48
                            x       y       z     vdW  Elec       q    Type
                         _______ _______ _______ _____ _____    ______ ____

>  <TORSDO>
F 17

$$$$
=
 OpenBabel10232409163D

 49 55  0  0  1  0  0  0  0  0999 V2000
  186.0770  177.6040  137.2330 C   0  0  0  0  0  0  0  0  0  0  0  0
  186.6580  177.9970  135.9040 C   0  0  1  0  0  3  0  0  0  0  0  0
  189.3330  178.1700  139.7300 C   0  0  0  0  0  2  0  0  0  0  0  0
  187.9560  178.0030  140.3650 C   0  0  0  0  0  0  0  0  0  0  0  0
  188.0120  178.4440  136.2530 N   0  0  0  0  0  0  0  0  0  0  0  0
  189.3160  178.8130  138.3270 C   0  0  0  0  0  2  0  0  0  0  0  0
  188.1740  178.2800  137.5230 C   0  0  0  0  0  0  0  0  0  0  0  0
  186.8680  177.7520  139.6170 C   0  0  0  0  0  3  0  0  0  0  0  0
  186.9930  177.7820  138.1600 C   0  0  0  0  0  0  0  0  0  0  0  0
  184.7010  177.3320  137.5250 N   0  0  0  0  0  2  0  0  0  0  0  0
  185.0630  174.9470  137.2630 C   0  0  0  0  0  1  0  0  0  0  0  0
  184.0210  176.0540  137.3290 C   0  0  2  0  0  0  0  0  0  0  0  0
  183.2960  176.0810  136.1300 O   0  0  0  0  0  1  0  0  0  0  0  0
  182.5770  177.0890  139.1300 C   0  0  0  0  0  0  0  0  0  0  0  0
  181.1610  177.1980  139.0040 N   0  0  0  0  0  0  0  0  0  0  0  0
  180.3230  178.2560  139.5530 C   0  0  0  0  0  1  0  0  0  0  0  0
  181.7520  175.2110  138.1050 C   0  0  0  0  0  0  0  0  0  0  0  0
  181.6160  174.0730  137.5850 O   0  0  0  0  0  0  0  0  0  0  0  0
  180.6460  176.0510  138.4000 N   0  0  0  0  0  2  0  0  0  0  0  0
  183.2950  177.8400  139.9580 C   0  0  0  0  0  2  0  0  0  0  0  0
  183.0720  175.8050  138.5240 C   0  0  1  0  0  3  0  0  0  0  0  0
  186.7300  176.8030  134.9650 C   0  0  0  0  0  2  0  0  0  0  0  0
  188.0940  176.6400  134.4920 N   0  0  0  0  0  2  0  0  0  0  0  0
  188.4300  175.2330  134.6280 C   0  0  0  0  0  2  0  0  0  0  0  0
  188.5040  174.8550  136.0960 C   0  0  0  0  0  2  0  0  0  0  0  0
  189.7900  174.1020  136.3900 C   0  0  0  0  0  2  0  0  0  0  0  0
  190.2130  174.3460  137.7030 O   0  0  0  0  0  0  0  0  0  0  0  0
  190.9510  175.5290  137.6190 C   0  0  0  0  0  2  0  0  0  0  0  0
  193.0750  174.2330  137.7170 O   0  0  0  0  0  1  0  0  0  0  0  0
  192.7900  175.8790  136.1470 O   0  0  0  0  0  0  0  0  0  0  0  0
  192.3190  175.2340  137.1220 C   0  0  0  0  0  0  0  0  0  0  0  0
  187.7940  178.0560  141.8510 C   0  0  1  0  0  3  0  0  0  0  0  0
  186.1230  178.7120  143.5960 C   0  0  2  0  0  3  0  0  0  0  0  0
  186.3240  178.0230  142.2590 C   0  0  1  0  0  3  0  0  0  0  0  0
  184.8460  179.5340  143.5170 C   0  0  0  0  0  2  0  0  0  0  0  0
  185.7780  179.4410  142.3240 C   0  0  1  0  0  3  0  0  0  0  0  0
  188.6410  176.9700  142.5230 C   0  0  2  0  0  3  0  0  0  0  0  0
  187.8480  176.1200  143.3020 O   0  0  0  0  0  1  0  0  0  0  0  0
  191.2990  178.0330  144.9420 N   0  0  0  0  0  0  0  0  0  0  0  0
  190.7020  178.2630  142.7750 N   0  0  0  0  0  0  0  0  0  0  0  0
  191.6290  178.5540  143.8070 C   0  0  0  0  0  3  0  0  0  0  0  0
  189.7720  177.5530  143.3220 C   0  0  0  0  0  0  0  0  0  0  0  0
  190.0550  177.3000  144.7660 C   0  0  2  0  0  3  0  0  0  0  0  0
  188.9460  177.1770  146.9480 C   0  0  1  0  0  3  0  0  0  0  0  0
  188.0150  176.9000  145.9400 O   0  0  0  0  0  0  0  0  0  0  0  0
  188.9720  177.8920  145.6560 C   0  0  2  0  0  3  0  0  0  0  0  0
  186.9800  178.3920  147.8650 O   0  0  0  0  0  0  0  0  0  0  0  0
  188.9810  178.4160  148.9780 O   0  0  0  0  0  1  0  0  0  0  0  0
  188.3100  178.0160  147.9940 C   0  0  0  0  0  0  0  0  0  0  0  0
  1 10  1  0  0  0  0
  1  9  2  0  0  0  0
  2 22  1  6  0  0  0
  2  5  1  0  0  0  0
  2  1  1  0  0  0  0
  3  4  1  0  0  0  0
  4 32  1  0  0  0  0
  5  7  2  0  0  0  0
  6  3  1  0  0  0  0
  7  9  1  0  0  0  0
  7  6  1  0  0  0  0
  8  4  2  0  0  0  0
  9  8  1  0  0  0  0
 12 11  1  6  0  0  0
 12 10  1  0  0  0  0
 13 12  1  0  0  0  0
 14 20  2  0  0  0  0
 15 14  1  0  0  0  0
 15 16  1  0  0  0  0
 17 19  1  0  0  0  0
 17 21  1  0  0  0  0
 18 17  2  0  0  0  0
 19 15  1  0  0  0  0
 21 12  1  6  0  0  0
 21 14  1  0  0  0  0
 23 24  1  0  0  0  0
 23 22  1  0  0  0  0
 24 25  1  0  0  0  0
 25 26  1  0  0  0  0
 26 27  1  0  0  0  0
 28 27  1  0  0  0  0
 30 31  2  0  0  0  0
 31 28  1  0  0  0  0
 31 29  1  0  0  0  0
 32 37  1  1  0  0  0
 33 35  1  1  0  0  0
 34 32  1  6  0  0  0
 34 36  1  0  0  0  0
 34 33  1  0  0  0  0
 36 35  1  1  0  0  0
 36 33  1  0  0  0  0
 37 38  1  1  0  0  0
 37 42  1  0  0  0  0
 40 42  2  0  0  0  0
 40 41  1  0  0  0  0
 41 39  2  0  0  0  0
 43 42  1  6  0  0  0
 43 39  1  0  0  0  0
 43 46  1  0  0  0  0
 44 49  1  1  0  0  0
 45 44  1  0  0  0  0
 46 45  1  6  0  0  0
 46 44  1  0  0  0  0
 47 49  2  0  0  0  0
 49 48  1  0  0  0  0
M  END
>  <MODEL>
9

>  <REMARK>
 VINA RESULT:      -6.2      2.074      6.838
  Name = 
  17 active torsions:
  status: ('A' for Active; 'I' for Inactive)
    1  A    between atoms: C_1  and  C_10
    2  A    between atoms: C_1  and  N_39
    3  A    between atoms: C_4  and  N_7
    4  A    between atoms: N_7  and  C_30
    5  A    between atoms: C_8  and  C_27
    6  A    between atoms: C_10  and  C_25
    7  A    between atoms: C_14  and  C_45
    8  A    between atoms: C_15  and  C_45
    9  A    between atoms: C_19  and  C_44
   10  A    between atoms: C_19  and  C_45
   11  A    between atoms: O_21  and  C_25
   12  A    between atoms: O_21  and  C_43
   13  A    between atoms: C_27  and  N_39
   14  A    between atoms: C_29  and  C_32
   15  A    between atoms: C_30  and  C_49
   16  A    between atoms: C_38  and  C_43
   17  A    between atoms: C_42  and  C_48
                            x       y       z     vdW  Elec       q    Type
                         _______ _______ _______ _____ _____    ______ ____

>  <TORSDO>
F 17

$$$$
