=
 OpenBabel10232408273D

 45 50  0  0  1  0  0  0  0  0999 V2000
  188.8260  175.6600  137.5630 C   0  0  0  0  0  2  0  0  0  0  0  0
  190.4240  173.2900  135.6060 C   0  0  1  0  0  3  0  0  0  0  0  0
  193.8750  174.1400  135.9900 C   0  0  0  0  0  3  0  0  0  0  0  0
  191.1970  175.4780  136.7030 C   0  0  0  0  0  0  0  0  0  0  0  0
  194.2650  175.3980  136.2130 C   0  0  0  0  0  0  0  0  0  0  0  0
  191.4280  174.1920  136.3170 C   0  0  0  0  0  0  0  0  0  0  0  0
  192.2250  176.3150  137.3650 C   0  0  0  0  0  3  0  0  0  0  0  0
  189.3880  174.9170  134.3970 C   0  0  0  0  0  2  0  0  0  0  0  0
  189.3060  176.2430  135.1380 C   0  0  1  0  0  3  0  0  0  0  0  0
  189.8610  176.1680  136.5650 C   0  0  1  0  0  3  0  0  0  0  0  0
  193.5460  176.2910  137.1500 C   0  0  0  0  0  3  0  0  0  0  0  0
  192.7130  173.5190  136.6870 C   0  0  0  0  0  2  0  0  0  0  0  0
  190.0330  177.3140  134.3460 C   0  0  0  0  0  1  0  0  0  0  0  0
  189.1710  173.8610  135.2940 O   0  0  0  0  0  0  0  0  0  0  0  0
  195.4960  175.8870  135.5680 C   0  0  0  0  0  0  0  0  0  0  0  0
  195.7470  177.2510  135.4720 O   0  0  0  0  0  1  0  0  0  0  0  0
  196.3340  175.0750  135.0940 O   0  0  0  0  0  0  0  0  0  0  0  0
  190.9960  172.6850  134.4780 O   0  0  0  0  0  0  0  0  0  0  0  0
  190.4150  171.4170  134.4170 C   0  0  0  0  0  2  0  0  0  0  0  0
  192.7410  170.6850  134.5650 C   0  0  0  0  0  3  0  0  0  0  0  0
  191.4520  170.3830  134.6930 C   0  0  0  0  0  3  0  0  0  0  0  0
  195.1140  170.3340  135.0770 C   0  0  0  0  0  1  0  0  0  0  0  0
  193.7790  169.6550  134.8460 C   0  0  0  0  0  2  0  0  0  0  0  0
  185.6110  177.2730  137.4450 C   0  0  0  0  0  0  0  0  0  0  0  0
  183.6300  177.7810  138.5950 C   0  0  0  0  0  3  0  0  0  0  0  0
  185.7170  178.7590  139.3520 N   0  0  0  0  0  0  0  0  0  0  0  0
  187.6850  177.7900  138.2230 C   0  0  0  0  0  0  0  0  0  0  0  0
  186.3550  176.2450  137.2090 N   0  0  0  0  0  0  0  0  0  0  0  0
  187.6650  176.5980  137.6390 C   0  0  0  0  0  0  0  0  0  0  0  0
  186.3430  178.4150  138.0700 C   0  0  1  0  0  3  0  0  0  0  0  0
  184.4520  178.5290  139.5800 C   0  0  0  0  0  3  0  0  0  0  0  0
  184.1960  177.1670  137.5960 N   0  0  0  0  0  0  0  0  0  0  0  0
  188.8920  178.4580  138.8000 C   0  0  0  0  0  2  0  0  0  0  0  0
  190.4550  177.3190  140.3610 C   0  0  0  0  0  3  0  0  0  0  0  0
  188.4420  177.7670  141.1040 N   0  0  0  0  0  0  0  0  0  0  0  0
  189.1410  177.1820  142.0920 C   0  0  0  0  0  0  0  0  0  0  0  0
  190.4240  176.8760  141.6740 C   0  0  0  0  0  3  0  0  0  0  0  0
  189.2510  177.8360  140.0630 N   0  0  0  0  0  0  0  0  0  0  0  0
  188.5970  176.9030  143.4530 C   0  0  0  0  0  3  0  0  0  0  0  0
  187.2040  177.5160  143.6030 C   0  0  0  0  0  2  0  0  0  0  0  0
  186.7110  177.3260  145.0360 C   0  0  0  0  0  2  0  0  0  0  0  0
  187.1090  177.7220  147.3040 C   0  0  0  0  0  1  0  0  0  0  0  0
  187.6410  177.9540  145.9730 N   0  0  0  0  0  0  0  0  0  0  0  0
  189.5450  177.4420  144.5250 C   0  0  0  0  0  2  0  0  0  0  0  0
  188.9200  177.2470  145.9030 C   0  0  0  0  0  2  0  0  0  0  0  0
  1 29  1  0  0  0  0
  2 18  1  6  0  0  0
  2  6  1  0  0  0  0
  3  5  2  0  0  0  0
  3 12  1  0  0  0  0
  4  7  1  0  0  0  0
  5 11  1  0  0  0  0
  6 12  1  0  0  0  0
  6  4  2  0  0  0  0
  8  9  1  0  0  0  0
  8 14  1  0  0  0  0
  9 13  1  6  0  0  0
  9 10  1  0  0  0  0
 10  4  1  0  0  0  0
 10  1  1  1  0  0  0
 11  7  2  0  0  0  0
 14  2  1  0  0  0  0
 15  5  1  0  0  0  0
 16 15  1  0  0  0  0
 17 15  2  0  0  0  0
 19 18  1  0  0  0  0
 19 21  1  0  0  0  0
 20 21  2  0  0  0  0
 20 23  1  0  0  0  0
 23 22  1  0  0  0  0
 24 32  1  0  0  0  0
 25 31  1  0  0  0  0
 26 31  2  0  0  0  0
 27 33  1  0  0  0  0
 28 24  2  0  0  0  0
 28 29  1  0  0  0  0
 29 27  2  0  0  0  0
 30 24  1  1  0  0  0
 30 27  1  0  0  0  0
 30 26  1  0  0  0  0
 32 25  2  0  0  0  0
 33 38  1  0  0  0  0
 34 37  2  0  0  0  0
 35 36  2  0  0  0  0
 36 39  1  0  0  0  0
 37 36  1  0  0  0  0
 38 34  1  0  0  0  0
 38 35  1  0  0  0  0
 39 40  1  0  0  0  0
 39 44  1  0  0  0  0
 40 41  1  0  0  0  0
 41 43  1  0  0  0  0
 43 42  1  0  0  0  0
 44 45  1  0  0  0  0
 45 43  1  0  0  0  0
M  END
>  <MODEL>
1

>  <REMARK>
 VINA RESULT:      -7.5      0.000      0.000
  Name = 
  10 active torsions:
  status: ('A' for Active; 'I' for Inactive)
    1  A    between atoms: C_3  and  O_25
    2  A    between atoms: C_4  and  C_34
    3  A    between atoms: C_7  and  O_25
    4  A    between atoms: C_7  and  C_40
    5  A    between atoms: C_8  and  C_16
    6  A    between atoms: C_11  and  C_18
    7  A    between atoms: C_12  and  C_30
    8  A    between atoms: C_12  and  C_32
    9  A    between atoms: C_21  and  C_22
   10  A    between atoms: C_22  and  N_39
                            x       y       z     vdW  Elec       q    Type
                         _______ _______ _______ _____ _____    ______ ____

>  <TORSDO>
F 10

$$$$
=
 OpenBabel10232408273D

 45 50  0  0  1  0  0  0  0  0999 V2000
  188.1330  176.0080  138.0590 C   0  0  0  0  0  2  0  0  0  0  0  0
  184.8680  177.0800  137.6200 C   0  0  1  0  0  3  0  0  0  0  0  0
  183.1160  174.0350  136.9580 C   0  0  0  0  0  3  0  0  0  0  0  0
  186.0740  174.8650  137.1390 C   0  0  0  0  0  0  0  0  0  0  0  0
  183.7120  173.0010  136.3610 C   0  0  0  0  0  0  0  0  0  0  0  0
  184.9710  175.5600  137.5350 C   0  0  0  0  0  0  0  0  0  0  0  0
  186.1010  173.3870  137.0470 C   0  0  0  0  0  3  0  0  0  0  0  0
  186.2250  177.5560  135.8560 C   0  0  0  0  0  2  0  0  0  0  0  0
  187.3660  176.5620  135.7020 C   0  0  1  0  0  3  0  0  0  0  0  0
  187.4010  175.5110  136.8180 C   0  0  1  0  0  3  0  0  0  0  0  0
  185.0900  172.5800  136.7030 C   0  0  0  0  0  3  0  0  0  0  0  0
  183.7660  174.8280  138.0400 C   0  0  0  0  0  2  0  0  0  0  0  0
  187.2740  175.8870  134.3460 C   0  0  0  0  0  1  0  0  0  0  0  0
  186.0040  177.8140  137.2160 O   0  0  0  0  0  0  0  0  0  0  0  0
  182.9470  172.2020  135.3860 C   0  0  0  0  0  0  0  0  0  0  0  0
  183.4580  171.0040  134.9020 O   0  0  0  0  0  0  0  0  0  0  0  0
  181.8230  172.5990  134.9790 O   0  0  0  0  0  1  0  0  0  0  0  0
  183.7130  177.5480  136.9790 O   0  0  0  0  0  0  0  0  0  0  0  0
  182.9580  178.1470  137.9890 C   0  0  0  0  0  2  0  0  0  0  0  0
  183.2390  178.4960  140.3900 C   0  0  0  0  0  3  0  0  0  0  0  0
  183.8080  178.3310  139.2000 C   0  0  0  0  0  3  0  0  0  0  0  0
  183.2060  178.6790  142.8360 C   0  0  0  0  0  1  0  0  0  0  0  0
  184.0850  178.6740  141.6030 C   0  0  0  0  0  2  0  0  0  0  0  0
  191.3430  174.4960  137.4560 C   0  0  0  0  0  0  0  0  0  0  0  0
  193.2400  174.4090  136.0780 C   0  0  0  0  0  3  0  0  0  0  0  0
  192.8030  176.4240  137.3580 N   0  0  0  0  0  0  0  0  0  0  0  0
  190.5790  176.4070  138.4260 C   0  0  0  0  0  0  0  0  0  0  0  0
  190.0570  174.4780  137.3320 N   0  0  0  0  0  0  0  0  0  0  0  0
  189.5810  175.6430  137.9970 C   0  0  0  0  0  0  0  0  0  0  0  0
  191.8590  175.6820  138.2020 C   0  0  1  0  0  3  0  0  0  0  0  0
  193.4900  175.8330  136.4190 C   0  0  0  0  0  3  0  0  0  0  0  0
  192.2000  173.7910  136.5600 N   0  0  0  0  0  0  0  0  0  0  0  0
  190.4330  177.7060  139.1510 C   0  0  0  0  0  2  0  0  0  0  0  0
  191.4360  177.4190  141.4070 C   0  0  0  0  0  3  0  0  0  0  0  0
  189.2490  177.3560  141.2640 N   0  0  0  0  0  0  0  0  0  0  0  0
  189.5960  177.2120  142.5540 C   0  0  0  0  0  0  0  0  0  0  0  0
  190.9720  177.2430  142.7010 C   0  0  0  0  0  3  0  0  0  0  0  0
  190.3750  177.4740  140.5840 N   0  0  0  0  0  0  0  0  0  0  0  0
  188.6220  177.0400  143.6710 C   0  0  0  0  0  3  0  0  0  0  0  0
  187.2890  177.6990  143.3180 C   0  0  0  0  0  2  0  0  0  0  0  0
  186.3430  177.6190  144.5140 C   0  0  0  0  0  2  0  0  0  0  0  0
  185.9910  178.1570  146.7610 C   0  0  0  0  0  1  0  0  0  0  0  0
  186.9420  178.2840  145.6710 N   0  0  0  0  0  0  0  0  0  0  0  0
  189.1900  177.6240  144.9650 C   0  0  0  0  0  2  0  0  0  0  0  0
  188.1370  177.5390  146.0670 C   0  0  0  0  0  2  0  0  0  0  0  0
  2 18  1  6  0  0  0
  3 12  1  0  0  0  0
  4  6  2  0  0  0  0
  5 11  1  0  0  0  0
  5  3  2  0  0  0  0
  6  2  1  0  0  0  0
  6 12  1  0  0  0  0
  7  4  1  0  0  0  0
  8 14  1  0  0  0  0
  9 13  1  6  0  0  0
  9  8  1  0  0  0  0
  9 10  1  0  0  0  0
 10  4  1  0  0  0  0
 10  1  1  1  0  0  0
 11  7  2  0  0  0  0
 14  2  1  0  0  0  0
 15  5  1  0  0  0  0
 16 15  2  0  0  0  0
 17 15  1  0  0  0  0
 18 19  1  0  0  0  0
 19 21  1  0  0  0  0
 20 23  1  0  0  0  0
 21 20  2  0  0  0  0
 23 22  1  0  0  0  0
 24 30  1  0  0  0  0
 25 31  1  0  0  0  0
 25 32  2  0  0  0  0
 27 33  1  0  0  0  0
 28 24  2  0  0  0  0
 28 29  1  0  0  0  0
 29  1  1  0  0  0  0
 29 27  2  0  0  0  0
 30 26  1  6  0  0  0
 30 27  1  0  0  0  0
 31 26  2  0  0  0  0
 32 24  1  0  0  0  0
 33 38  1  0  0  0  0
 34 37  2  0  0  0  0
 35 36  2  0  0  0  0
 36 37  1  0  0  0  0
 36 39  1  0  0  0  0
 38 35  1  0  0  0  0
 38 34  1  0  0  0  0
 39 44  1  0  0  0  0
 40 39  1  0  0  0  0
 40 41  1  0  0  0  0
 41 43  1  0  0  0  0
 43 45  1  0  0  0  0
 43 42  1  0  0  0  0
 44 45  1  0  0  0  0
M  END
>  <MODEL>
2

>  <REMARK>
 VINA RESULT:      -7.3      3.482      7.751
  Name = 
  10 active torsions:
  status: ('A' for Active; 'I' for Inactive)
    1  A    between atoms: C_3  and  O_25
    2  A    between atoms: C_4  and  C_34
    3  A    between atoms: C_7  and  O_25
    4  A    between atoms: C_7  and  C_40
    5  A    between atoms: C_8  and  C_16
    6  A    between atoms: C_11  and  C_18
    7  A    between atoms: C_12  and  C_30
    8  A    between atoms: C_12  and  C_32
    9  A    between atoms: C_21  and  C_22
   10  A    between atoms: C_22  and  N_39
                            x       y       z     vdW  Elec       q    Type
                         _______ _______ _______ _____ _____    ______ ____

>  <TORSDO>
F 10

$$$$
=
 OpenBabel10232408273D

 45 50  0  0  1  0  0  0  0  0999 V2000
  187.6550  176.0790  138.0450 C   0  0  0  0  0  2  0  0  0  0  0  0
  184.3460  176.9000  137.4360 C   0  0  1  0  0  3  0  0  0  0  0  0
  182.7940  173.7030  137.0460 C   0  0  0  0  0  3  0  0  0  0  0  0
  185.6920  174.7270  137.2020 C   0  0  0  0  0  0  0  0  0  0  0  0
  183.4660  172.6540  136.5670 C   0  0  0  0  0  0  0  0  0  0  0  0
  184.5400  175.3880  137.5040 C   0  0  0  0  0  0  0  0  0  0  0  0
  185.8090  173.2510  137.2590 C   0  0  0  0  0  3  0  0  0  0  0  0
  185.7170  177.2820  135.6600 C   0  0  0  0  0  2  0  0  0  0  0  0
  186.9190  176.3490  135.6290 C   0  0  1  0  0  3  0  0  0  0  0  0
  186.9860  175.4170  136.8450 C   0  0  1  0  0  3  0  0  0  0  0  0
  184.8560  172.3540  136.9770 C   0  0  0  0  0  3  0  0  0  0  0  0
  183.3670  174.6370  138.0560 C   0  0  0  0  0  2  0  0  0  0  0  0
  186.9020  175.5400  134.3460 C   0  0  0  0  0  1  0  0  0  0  0  0
  185.4470  177.6590  136.9830 O   0  0  0  0  0  0  0  0  0  0  0  0
  182.7750  171.7170  135.6620 C   0  0  0  0  0  0  0  0  0  0  0  0
  183.4930  170.9790  134.7300 O   0  0  0  0  0  0  0  0  0  0  0  0
  181.5240  171.5780  135.7220 O   0  0  0  0  0  1  0  0  0  0  0  0
  183.1820  177.2310  136.7280 O   0  0  0  0  0  0  0  0  0  0  0  0
  182.6140  178.2860  137.4430 C   0  0  0  0  0  2  0  0  0  0  0  0
  183.0300  178.7520  139.8040 C   0  0  0  0  0  3  0  0  0  0  0  0
  182.5400  177.9250  138.8870 C   0  0  0  0  0  3  0  0  0  0  0  0
  184.3490  178.3530  141.8330 C   0  0  0  0  0  1  0  0  0  0  0  0
  182.9520  178.3960  141.2480 C   0  0  0  0  0  2  0  0  0  0  0  0
  190.9590  174.7010  137.6670 C   0  0  0  0  0  0  0  0  0  0  0  0
  192.8970  174.5900  136.3510 C   0  0  0  0  0  3  0  0  0  0  0  0
  192.3140  176.6900  137.4190 N   0  0  0  0  0  0  0  0  0  0  0  0
  190.0640  176.6480  138.4290 C   0  0  0  0  0  0  0  0  0  0  0  0
  189.6800  174.5980  137.5160 N   0  0  0  0  0  0  0  0  0  0  0  0
  189.1220  175.7920  138.0530 C   0  0  0  0  0  0  0  0  0  0  0  0
  191.3880  175.9790  138.3080 C   0  0  1  0  0  3  0  0  0  0  0  0
  193.0600  176.0520  136.5580 C   0  0  0  0  0  3  0  0  0  0  0  0
  191.8790  173.9630  136.8640 N   0  0  0  0  0  0  0  0  0  0  0  0
  189.8270  178.0000  139.0220 C   0  0  0  0  0  2  0  0  0  0  0  0
  188.2720  178.3160  140.9350 C   0  0  0  0  0  3  0  0  0  0  0  0
  190.1380  177.2340  141.3250 N   0  0  0  0  0  0  0  0  0  0  0  0
  189.4250  177.2770  142.4630 C   0  0  0  0  0  0  0  0  0  0  0  0
  188.2320  177.9530  142.2720 C   0  0  0  0  0  3  0  0  0  0  0  0
  189.4280  177.8720  140.4130 N   0  0  0  0  0  0  0  0  0  0  0  0
  189.8680  176.6760  143.7550 C   0  0  0  0  0  3  0  0  0  0  0  0
  189.5580  177.6230  144.9140 C   0  0  0  0  0  2  0  0  0  0  0  0
  190.1230  177.0500  146.2110 C   0  0  0  0  0  2  0  0  0  0  0  0
  192.0230  176.3070  147.3510 C   0  0  0  0  0  1  0  0  0  0  0  0
  191.5680  176.8600  146.0880 N   0  0  0  0  0  0  0  0  0  0  0  0
  191.3610  176.3510  143.7050 C   0  0  0  0  0  2  0  0  0  0  0  0
  191.8180  175.8420  145.0690 C   0  0  0  0  0  2  0  0  0  0  0  0
  1 29  1  0  0  0  0
  2 18  1  6  0  0  0
  2  6  1  0  0  0  0
  3 12  1  0  0  0  0
  4  7  1  0  0  0  0
  4  6  2  0  0  0  0
  5 11  1  0  0  0  0
  5  3  2  0  0  0  0
  6 12  1  0  0  0  0
  8 14  1  0  0  0  0
  9 13  1  6  0  0  0
  9  8  1  0  0  0  0
  9 10  1  0  0  0  0
 10  4  1  0  0  0  0
 10  1  1  1  0  0  0
 11  7  2  0  0  0  0
 14  2  1  0  0  0  0
 15 17  1  0  0  0  0
 15  5  1  0  0  0  0
 16 15  2  0  0  0  0
 18 19  1  0  0  0  0
 19 21  1  0  0  0  0
 20 23  1  0  0  0  0
 21 20  2  0  0  0  0
 23 22  1  0  0  0  0
 24 30  1  0  0  0  0
 25 31  1  0  0  0  0
 25 32  2  0  0  0  0
 27 33  1  0  0  0  0
 28 24  2  0  0  0  0
 28 29  1  0  0  0  0
 29 27  2  0  0  0  0
 30 26  1  6  0  0  0
 30 27  1  0  0  0  0
 31 26  2  0  0  0  0
 32 24  1  0  0  0  0
 33 38  1  0  0  0  0
 34 37  2  0  0  0  0
 35 36  2  0  0  0  0
 36 39  1  0  0  0  0
 37 36  1  0  0  0  0
 38 34  1  0  0  0  0
 38 35  1  0  0  0  0
 39 40  1  0  0  0  0
 40 41  1  0  0  0  0
 43 41  1  0  0  0  0
 43 42  1  0  0  0  0
 44 39  1  0  0  0  0
 44 45  1  0  0  0  0
 45 43  1  0  0  0  0
M  END
>  <MODEL>
3

>  <REMARK>
 VINA RESULT:      -7.2      3.720      7.893
  Name = 
  10 active torsions:
  status: ('A' for Active; 'I' for Inactive)
    1  A    between atoms: C_3  and  O_25
    2  A    between atoms: C_4  and  C_34
    3  A    between atoms: C_7  and  O_25
    4  A    between atoms: C_7  and  C_40
    5  A    between atoms: C_8  and  C_16
    6  A    between atoms: C_11  and  C_18
    7  A    between atoms: C_12  and  C_30
    8  A    between atoms: C_12  and  C_32
    9  A    between atoms: C_21  and  C_22
   10  A    between atoms: C_22  and  N_39
                            x       y       z     vdW  Elec       q    Type
                         _______ _______ _______ _____ _____    ______ ____

>  <TORSDO>
F 10

$$$$
=
 OpenBabel10232408273D

 45 50  0  0  1  0  0  0  0  0999 V2000
  189.1410  178.6190  142.1290 C   0  0  0  0  0  2  0  0  0  0  0  0
  187.4590  177.9460  145.0820 C   0  0  1  0  0  3  0  0  0  0  0  0
  190.1210  177.3900  147.4020 C   0  0  0  0  0  3  0  0  0  0  0  0
  189.9030  177.6690  144.3450 C   0  0  0  0  0  0  0  0  0  0  0  0
  191.2960  176.8910  147.0120 C   0  0  0  0  0  0  0  0  0  0  0  0
  188.9700  177.9630  145.2940 C   0  0  0  0  0  0  0  0  0  0  0  0
  191.3580  177.6730  144.6220 C   0  0  0  0  0  3  0  0  0  0  0  0
  187.4010  176.2270  143.5920 C   0  0  0  0  0  2  0  0  0  0  0  0
  188.6160  176.1950  142.6770 C   0  0  1  0  0  3  0  0  0  0  0  0
  189.5680  177.3760  142.9020 C   0  0  1  0  0  3  0  0  0  0  0  0
  191.9630  177.3300  145.7650 C   0  0  0  0  0  3  0  0  0  0  0  0
  189.4010  178.4520  146.6420 C   0  0  0  0  0  2  0  0  0  0  0  0
  189.3550  174.8820  142.8570 C   0  0  0  0  0  1  0  0  0  0  0  0
  187.0040  177.5550  143.8040 O   0  0  0  0  0  0  0  0  0  0  0  0
  191.9900  175.9320  147.8900 C   0  0  0  0  0  0  0  0  0  0  0  0
  193.0070  176.3590  148.7350 O   0  0  0  0  0  1  0  0  0  0  0  0
  191.6710  174.7130  147.8810 O   0  0  0  0  0  0  0  0  0  0  0  0
  186.8130  177.2180  146.0900 O   0  0  0  0  0  0  0  0  0  0  0  0
  185.8940  178.1100  146.6460 C   0  0  0  0  0  2  0  0  0  0  0  0
  183.9670  178.6770  145.2560 C   0  0  0  0  0  3  0  0  0  0  0  0
  185.2440  178.8940  145.5580 C   0  0  0  0  0  3  0  0  0  0  0  0
  183.5220  178.7630  142.8450 C   0  0  0  0  0  1  0  0  0  0  0  0
  183.3130  179.4620  144.1730 C   0  0  0  0  0  2  0  0  0  0  0  0
  187.5530  178.0910  138.9430 C   0  0  0  0  0  0  0  0  0  0  0  0
  187.1210  178.9500  136.8020 C   0  0  0  0  0  3  0  0  0  0  0  0
  189.3990  178.3690  137.4030 N   0  0  0  0  0  0  0  0  0  0  0  0
  189.6460  177.8450  139.8010 C   0  0  0  0  0  0  0  0  0  0  0  0
  187.4910  178.4830  140.1720 N   0  0  0  0  0  0  0  0  0  0  0  0
  188.7870  178.2660  140.7210 C   0  0  0  0  0  0  0  0  0  0  0  0
  188.8990  177.5870  138.5390 C   0  0  1  0  0  3  0  0  0  0  0  0
  188.5860  178.9470  136.5600 C   0  0  0  0  0  3  0  0  0  0  0  0
  186.6430  178.5620  137.9500 N   0  0  0  0  0  0  0  0  0  0  0  0
  191.0900  177.5350  140.0330 C   0  0  0  0  0  2  0  0  0  0  0  0
  190.8360  175.5180  138.6030 C   0  0  0  0  0  3  0  0  0  0  0  0
  192.7240  176.6220  138.4580 N   0  0  0  0  0  0  0  0  0  0  0  0
  192.7660  175.5900  137.5970 C   0  0  0  0  0  0  0  0  0  0  0  0
  191.5940  174.8570  137.6490 C   0  0  0  0  0  3  0  0  0  0  0  0
  191.5530  176.5580  139.0620 N   0  0  0  0  0  0  0  0  0  0  0  0
  193.9260  175.2840  136.7100 C   0  0  0  0  0  3  0  0  0  0  0  0
  195.0620  174.6570  137.5190 C   0  0  0  0  0  2  0  0  0  0  0  0
  196.2820  174.4600  136.6240 C   0  0  0  0  0  2  0  0  0  0  0  0
  197.8610  175.4710  135.2280 C   0  0  0  0  0  1  0  0  0  0  0  0
  196.7090  175.7440  136.0690 N   0  0  0  0  0  0  0  0  0  0  0  0
  194.4020  176.5530  136.0020 C   0  0  0  0  0  2  0  0  0  0  0  0
  195.6540  176.2430  135.1870 C   0  0  0  0  0  2  0  0  0  0  0  0
  2  6  1  0  0  0  0
  2 18  1  1  0  0  0
  4  7  1  0  0  0  0
  4  6  2  0  0  0  0
  5  3  2  0  0  0  0
  5 15  1  0  0  0  0
  6 12  1  0  0  0  0
  7 11  2  0  0  0  0
  8 14  1  0  0  0  0
  9 13  1  1  0  0  0
  9 10  1  0  0  0  0
  9  8  1  0  0  0  0
 10  1  1  1  0  0  0
 10  4  1  0  0  0  0
 11  5  1  0  0  0  0
 12  3  1  0  0  0  0
 14  2  1  0  0  0  0
 15 16  1  0  0  0  0
 17 15  2  0  0  0  0
 18 19  1  0  0  0  0
 20 21  2  0  0  0  0
 21 19  1  0  0  0  0
 22 23  1  0  0  0  0
 23 20  1  0  0  0  0
 24 28  2  0  0  0  0
 25 32  2  0  0  0  0
 27 33  1  0  0  0  0
 27 29  2  0  0  0  0
 28 29  1  0  0  0  0
 29  1  1  0  0  0  0
 30 26  1  6  0  0  0
 30 24  1  0  0  0  0
 30 27  1  0  0  0  0
 31 25  1  0  0  0  0
 31 26  2  0  0  0  0
 32 24  1  0  0  0  0
 34 38  1  0  0  0  0
 35 38  1  0  0  0  0
 36 37  1  0  0  0  0
 36 35  2  0  0  0  0
 37 34  2  0  0  0  0
 38 33  1  0  0  0  0
 39 40  1  0  0  0  0
 39 36  1  0  0  0  0
 41 40  1  0  0  0  0
 42 43  1  0  0  0  0
 43 41  1  0  0  0  0
 44 39  1  0  0  0  0
 45 44  1  0  0  0  0
 45 43  1  0  0  0  0
M  END
>  <MODEL>
4

>  <REMARK>
 VINA RESULT:      -7.0      4.312      9.973
  Name = 
  10 active torsions:
  status: ('A' for Active; 'I' for Inactive)
    1  A    between atoms: C_3  and  O_25
    2  A    between atoms: C_4  and  C_34
    3  A    between atoms: C_7  and  O_25
    4  A    between atoms: C_7  and  C_40
    5  A    between atoms: C_8  and  C_16
    6  A    between atoms: C_11  and  C_18
    7  A    between atoms: C_12  and  C_30
    8  A    between atoms: C_12  and  C_32
    9  A    between atoms: C_21  and  C_22
   10  A    between atoms: C_22  and  N_39
                            x       y       z     vdW  Elec       q    Type
                         _______ _______ _______ _____ _____    ______ ____

>  <TORSDO>
F 10

$$$$
=
 OpenBabel10232408273D

 45 50  0  0  1  0  0  0  0  0999 V2000
  188.5700  176.5360  139.9690 C   0  0  0  0  0  2  0  0  0  0  0  0
  188.7980  174.9640  136.8910 C   0  0  1  0  0  3  0  0  0  0  0  0
  192.3180  174.9360  136.2730 C   0  0  0  0  0  3  0  0  0  0  0  0
  190.4630  176.3080  138.3080 C   0  0  0  0  0  0  0  0  0  0  0  0
  193.1200  175.8900  136.7530 C   0  0  0  0  0  0  0  0  0  0  0  0
  190.1780  175.2860  137.4540 C   0  0  0  0  0  0  0  0  0  0  0  0
  191.8330  176.5890  138.7970 C   0  0  0  0  0  3  0  0  0  0  0  0
  188.0370  177.1060  136.7630 C   0  0  0  0  0  2  0  0  0  0  0  0
  188.5620  177.9880  137.8860 C   0  0  1  0  0  3  0  0  0  0  0  0
  189.4160  177.2210  138.9020 C   0  0  1  0  0  3  0  0  0  0  0  0
  192.9790  176.4190  138.1280 C   0  0  0  0  0  3  0  0  0  0  0  0
  191.2430  174.2990  137.0860 C   0  0  0  0  0  2  0  0  0  0  0  0
  189.3520  179.1420  137.2990 C   0  0  0  0  0  1  0  0  0  0  0  0
  187.7450  175.8290  137.2630 O   0  0  0  0  0  0  0  0  0  0  0  0
  194.2320  176.3750  135.9150 C   0  0  0  0  0  0  0  0  0  0  0  0
  194.7030  175.6080  134.8560 O   0  0  0  0  0  0  0  0  0  0  0  0
  194.7690  177.4890  136.1520 O   0  0  0  0  0  1  0  0  0  0  0  0
  188.8430  174.7970  135.5000 O   0  0  0  0  0  0  0  0  0  0  0  0
  188.4090  173.4890  135.2790 C   0  0  0  0  0  2  0  0  0  0  0  0
  186.4990  172.2410  136.1530 C   0  0  0  0  0  3  0  0  0  0  0  0
  186.9690  173.3760  135.6440 C   0  0  0  0  0  3  0  0  0  0  0  0
  184.7500  173.0990  137.6430 C   0  0  0  0  0  1  0  0  0  0  0  0
  185.0610  172.1280  136.5230 C   0  0  0  0  0  2  0  0  0  0  0  0
  190.1490  176.7050  143.1990 C   0  0  0  0  0  0  0  0  0  0  0  0
  191.9860  177.4640  144.4450 C   0  0  0  0  0  3  0  0  0  0  0  0
  190.4560  179.0870  143.4910 N   0  0  0  0  0  0  0  0  0  0  0  0
  188.8380  178.0670  141.9340 C   0  0  0  0  0  0  0  0  0  0  0  0
  189.9240  176.0720  142.0960 N   0  0  0  0  0  0  0  0  0  0  0  0
  189.0510  176.9010  141.3360 C   0  0  0  0  0  0  0  0  0  0  0  0
  189.4620  178.0280  143.2840 C   0  0  1  0  0  3  0  0  0  0  0  0
  191.5960  178.8500  144.0820 C   0  0  0  0  0  3  0  0  0  0  0  0
  191.3030  176.4500  143.9980 N   0  0  0  0  0  0  0  0  0  0  0  0
  187.9830  179.1740  141.4050 C   0  0  0  0  0  2  0  0  0  0  0  0
  185.9780  178.3660  142.6320 C   0  0  0  0  0  3  0  0  0  0  0  0
  185.7030  178.9650  140.5410 N   0  0  0  0  0  0  0  0  0  0  0  0
  184.5120  178.5880  141.0370 C   0  0  0  0  0  0  0  0  0  0  0  0
  184.6300  178.1980  142.3600 C   0  0  0  0  0  3  0  0  0  0  0  0
  186.5790  178.8180  141.5180 N   0  0  0  0  0  0  0  0  0  0  0  0
  183.2390  178.5930  140.2590 C   0  0  0  0  0  3  0  0  0  0  0  0
  182.9030  177.1790  139.7850 C   0  0  0  0  0  2  0  0  0  0  0  0
  181.6660  177.2170  138.8910 C   0  0  0  0  0  2  0  0  0  0  0  0
  180.6860  178.0780  136.9520 C   0  0  0  0  0  1  0  0  0  0  0  0
  181.9040  178.0890  137.7420 N   0  0  0  0  0  0  0  0  0  0  0  0
  183.3470  179.5510  139.0720 C   0  0  0  0  0  2  0  0  0  0  0  0
  182.0800  179.4570  138.2260 C   0  0  0  0  0  2  0  0  0  0  0  0
  1 29  1  0  0  0  0
  2 18  1  6  0  0  0
  2 14  1  0  0  0  0
  2  6  1  0  0  0  0
  3  5  2  0  0  0  0
  3 12  1  0  0  0  0
  4  7  1  0  0  0  0
  4 10  1  0  0  0  0
  5 11  1  0  0  0  0
  6  4  2  0  0  0  0
  8 14  1  0  0  0  0
  8  9  1  0  0  0  0
  9 13  1  6  0  0  0
  9 10  1  0  0  0  0
 10  1  1  6  0  0  0
 11  7  2  0  0  0  0
 12  6  1  0  0  0  0
 15 17  1  0  0  0  0
 15  5  1  0  0  0  0
 16 15  2  0  0  0  0
 19 18  1  0  0  0  0
 19 21  1  0  0  0  0
 20 23  1  0  0  0  0
 21 20  2  0  0  0  0
 23 22  1  0  0  0  0
 24 30  1  0  0  0  0
 24 32  1  0  0  0  0
 26 31  2  0  0  0  0
 28 24  2  0  0  0  0
 29 27  2  0  0  0  0
 29 28  1  0  0  0  0
 30 27  1  6  0  0  0
 30 26  1  0  0  0  0
 31 25  1  0  0  0  0
 32 25  2  0  0  0  0
 33 38  1  0  0  0  0
 33 27  1  0  0  0  0
 35 36  2  0  0  0  0
 35 38  1  0  0  0  0
 36 37  1  0  0  0  0
 37 34  2  0  0  0  0
 38 34  1  0  0  0  0
 39 36  1  0  0  0  0
 40 39  1  0  0  0  0
 41 40  1  0  0  0  0
 42 43  1  0  0  0  0
 43 45  1  0  0  0  0
 43 41  1  0  0  0  0
 44 39  1  0  0  0  0
 45 44  1  0  0  0  0
M  END
>  <MODEL>
5

>  <REMARK>
 VINA RESULT:      -6.8      2.531      5.871
  Name = 
  10 active torsions:
  status: ('A' for Active; 'I' for Inactive)
    1  A    between atoms: C_3  and  O_25
    2  A    between atoms: C_4  and  C_34
    3  A    between atoms: C_7  and  O_25
    4  A    between atoms: C_7  and  C_40
    5  A    between atoms: C_8  and  C_16
    6  A    between atoms: C_11  and  C_18
    7  A    between atoms: C_12  and  C_30
    8  A    between atoms: C_12  and  C_32
    9  A    between atoms: C_21  and  C_22
   10  A    between atoms: C_22  and  N_39
                            x       y       z     vdW  Elec       q    Type
                         _______ _______ _______ _____ _____    ______ ____

>  <TORSDO>
F 10

$$$$
=
 OpenBabel10232408273D

 45 50  0  0  1  0  0  0  0  0999 V2000
  187.8730  175.8370  137.4010 C   0  0  0  0  0  2  0  0  0  0  0  0
  184.8650  176.4090  135.7820 C   0  0  1  0  0  3  0  0  0  0  0  0
  182.9370  173.5270  136.6500 C   0  0  0  0  0  3  0  0  0  0  0  0
  185.8910  174.3450  136.9120 C   0  0  0  0  0  0  0  0  0  0  0  0
  183.5120  172.3470  136.8890 C   0  0  0  0  0  0  0  0  0  0  0  0
  184.8180  175.1260  136.6060 C   0  0  0  0  0  0  0  0  0  0  0  0
  185.7760  173.0910  137.6920 C   0  0  0  0  0  3  0  0  0  0  0  0
  186.5460  175.7840  134.3810 C   0  0  0  0  0  2  0  0  0  0  0  0
  187.5840  174.9020  135.0580 C   0  0  1  0  0  3  0  0  0  0  0  0
  187.3150  174.7000  136.5540 C   0  0  1  0  0  3  0  0  0  0  0  0
  184.7580  172.2220  137.6780 C   0  0  0  0  0  3  0  0  0  0  0  0
  183.4730  174.8110  137.1850 C   0  0  0  0  0  2  0  0  0  0  0  0
  187.6530  173.5620  134.3490 C   0  0  0  0  0  1  0  0  0  0  0  0
  186.1250  176.7850  135.2690 O   0  0  0  0  0  0  0  0  0  0  0  0
  182.8430  171.1200  136.4200 C   0  0  0  0  0  0  0  0  0  0  0  0
  181.4780  171.1160  136.1610 O   0  0  0  0  0  0  0  0  0  0  0  0
  183.5020  170.0590  136.2510 O   0  0  0  0  0  1  0  0  0  0  0  0
  183.8930  176.4000  134.7730 O   0  0  0  0  0  0  0  0  0  0  0  0
  183.3910  177.7020  134.7450 C   0  0  0  0  0  2  0  0  0  0  0  0
  181.9040  178.2520  136.6030 C   0  0  0  0  0  3  0  0  0  0  0  0
  182.0470  177.7300  135.3890 C   0  0  0  0  0  3  0  0  0  0  0  0
  179.9860  179.6830  137.1430 C   0  0  0  0  0  1  0  0  0  0  0  0
  180.5610  178.2850  137.2470 C   0  0  0  0  0  2  0  0  0  0  0  0
  191.2420  174.6010  137.6820 C   0  0  0  0  0  0  0  0  0  0  0  0
  193.3790  174.4990  136.7190 C   0  0  0  0  0  3  0  0  0  0  0  0
  192.5450  176.6330  137.5180 N   0  0  0  0  0  0  0  0  0  0  0  0
  190.1590  176.5480  138.1390 C   0  0  0  0  0  0  0  0  0  0  0  0
  190.0120  174.4260  137.3270 N   0  0  0  0  0  0  0  0  0  0  0  0
  189.3270  175.6240  137.6750 C   0  0  0  0  0  0  0  0  0  0  0  0
  191.5080  175.9380  138.2900 C   0  0  1  0  0  3  0  0  0  0  0  0
  193.4500  175.9770  136.8430 C   0  0  0  0  0  3  0  0  0  0  0  0
  192.3120  173.8570  137.1010 N   0  0  0  0  0  0  0  0  0  0  0  0
  189.7750  177.9230  138.5830 C   0  0  0  0  0  2  0  0  0  0  0  0
  189.6940  177.2360  140.9710 C   0  0  0  0  0  3  0  0  0  0  0  0
  188.0690  178.5100  140.2360 N   0  0  0  0  0  0  0  0  0  0  0  0
  187.8660  178.2710  141.5440 C   0  0  0  0  0  0  0  0  0  0  0  0
  188.8670  177.4660  142.0590 C   0  0  0  0  0  3  0  0  0  0  0  0
  189.1750  177.8710  139.9060 N   0  0  0  0  0  0  0  0  0  0  0  0
  186.7120  178.8040  142.3250 C   0  0  0  0  0  3  0  0  0  0  0  0
  186.5310  178.0030  143.6150 C   0  0  0  0  0  2  0  0  0  0  0  0
  185.2780  178.4810  144.3450 C   0  0  0  0  0  2  0  0  0  0  0  0
  182.9660  178.8040  144.2430 C   0  0  0  0  0  1  0  0  0  0  0  0
  184.1060  178.3220  143.4850 N   0  0  0  0  0  0  0  0  0  0  0  0
  185.4370  178.7680  141.4820 C   0  0  0  0  0  2  0  0  0  0  0  0
  184.2510  179.2110  142.3330 C   0  0  0  0  0  2  0  0  0  0  0  0
  1 29  1  0  0  0  0
  2 18  1  6  0  0  0
  2  6  1  0  0  0  0
  3  5  2  0  0  0  0
  3 12  1  0  0  0  0
  4  7  1  0  0  0  0
  5 11  1  0  0  0  0
  6  4  2  0  0  0  0
  6 12  1  0  0  0  0
  8  9  1  0  0  0  0
  8 14  1  0  0  0  0
  9 13  1  6  0  0  0
  9 10  1  0  0  0  0
 10  4  1  0  0  0  0
 10  1  1  1  0  0  0
 11  7  2  0  0  0  0
 14  2  1  0  0  0  0
 15  5  1  0  0  0  0
 16 15  2  0  0  0  0
 17 15  1  0  0  0  0
 19 18  1  0  0  0  0
 19 21  1  0  0  0  0
 20 23  1  0  0  0  0
 21 20  2  0  0  0  0
 22 23  1  0  0  0  0
 24 30  1  0  0  0  0
 25 31  1  0  0  0  0
 25 32  2  0  0  0  0
 27 30  1  0  0  0  0
 27 33  1  0  0  0  0
 28 29  1  0  0  0  0
 28 24  2  0  0  0  0
 29 27  2  0  0  0  0
 30 26  1  6  0  0  0
 31 26  2  0  0  0  0
 32 24  1  0  0  0  0
 33 38  1  0  0  0  0
 34 37  2  0  0  0  0
 35 36  2  0  0  0  0
 36 37  1  0  0  0  0
 36 39  1  0  0  0  0
 38 35  1  0  0  0  0
 38 34  1  0  0  0  0
 39 40  1  0  0  0  0
 40 41  1  0  0  0  0
 43 42  1  0  0  0  0
 43 41  1  0  0  0  0
 44 39  1  0  0  0  0
 44 45  1  0  0  0  0
 45 43  1  0  0  0  0
M  END
>  <MODEL>
6

>  <REMARK>
 VINA RESULT:      -6.6      3.531      8.018
  Name = 
  10 active torsions:
  status: ('A' for Active; 'I' for Inactive)
    1  A    between atoms: C_3  and  O_25
    2  A    between atoms: C_4  and  C_34
    3  A    between atoms: C_7  and  O_25
    4  A    between atoms: C_7  and  C_40
    5  A    between atoms: C_8  and  C_16
    6  A    between atoms: C_11  and  C_18
    7  A    between atoms: C_12  and  C_30
    8  A    between atoms: C_12  and  C_32
    9  A    between atoms: C_21  and  C_22
   10  A    between atoms: C_22  and  N_39
                            x       y       z     vdW  Elec       q    Type
                         _______ _______ _______ _____ _____    ______ ____

>  <TORSDO>
F 10

$$$$
=
 OpenBabel10232408273D

 45 50  0  0  1  0  0  0  0  0999 V2000
  188.2170  175.5090  137.5140 C   0  0  0  0  0  2  0  0  0  0  0  0
  185.4840  176.2810  135.5300 C   0  0  1  0  0  3  0  0  0  0  0  0
  183.2820  173.5260  136.1070 C   0  0  0  0  0  3  0  0  0  0  0  0
  186.2240  174.1500  136.7550 C   0  0  0  0  0  0  0  0  0  0  0  0
  183.7460  172.3090  136.4020 C   0  0  0  0  0  0  0  0  0  0  0  0
  185.2500  175.0000  136.3250 C   0  0  0  0  0  0  0  0  0  0  0  0
  185.9300  172.9030  137.4980 C   0  0  0  0  0  3  0  0  0  0  0  0
  187.2890  175.5560  134.3470 C   0  0  0  0  0  2  0  0  0  0  0  0
  188.1730  174.6050  135.1410 C   0  0  1  0  0  3  0  0  0  0  0  0
  187.7020  174.4140  136.5870 C   0  0  1  0  0  3  0  0  0  0  0  0
  184.8690  172.1010  137.3430 C   0  0  0  0  0  3  0  0  0  0  0  0
  183.8250  174.7700  136.7230 C   0  0  0  0  0  2  0  0  0  0  0  0
  188.2480  173.2670  134.4300 C   0  0  0  0  0  1  0  0  0  0  0  0
  186.8210  176.5770  135.1870 O   0  0  0  0  0  0  0  0  0  0  0  0
  183.0670  171.1300  135.8350 C   0  0  0  0  0  0  0  0  0  0  0  0
  182.0130  171.2850  134.9430 O   0  0  0  0  0  0  0  0  0  0  0  0
  183.4330  169.9680  136.1550 O   0  0  0  0  0  1  0  0  0  0  0  0
  184.6520  176.3400  134.4040 O   0  0  0  0  0  0  0  0  0  0  0  0
  184.1920  177.6570  134.3640 C   0  0  0  0  0  2  0  0  0  0  0  0
  182.0390  177.2510  135.4440 C   0  0  0  0  0  3  0  0  0  0  0  0
  182.7020  177.6630  134.3680 C   0  0  0  0  0  3  0  0  0  0  0  0
  180.0420  176.1160  136.3050 C   0  0  0  0  0  1  0  0  0  0  0  0
  180.5500  177.2610  135.4520 C   0  0  0  0  0  2  0  0  0  0  0  0
  191.6640  174.4790  137.6240 C   0  0  0  0  0  0  0  0  0  0  0  0
  193.7270  174.4160  136.5100 C   0  0  0  0  0  3  0  0  0  0  0  0
  192.8300  176.5580  137.2120 N   0  0  0  0  0  0  0  0  0  0  0  0
  190.5050  176.3960  138.0200 C   0  0  0  0  0  0  0  0  0  0  0  0
  190.4240  174.2120  137.3790 N   0  0  0  0  0  0  0  0  0  0  0  0
  189.6970  175.3960  137.6900 C   0  0  0  0  0  0  0  0  0  0  0  0
  191.8950  175.8710  138.1100 C   0  0  1  0  0  3  0  0  0  0  0  0
  193.7200  175.9010  136.5190 C   0  0  0  0  0  3  0  0  0  0  0  0
  192.7310  173.7500  137.0180 N   0  0  0  0  0  0  0  0  0  0  0  0
  190.0740  177.7790  138.3900 C   0  0  0  0  0  2  0  0  0  0  0  0
  188.3730  178.3560  140.1080 C   0  0  0  0  0  3  0  0  0  0  0  0
  190.0970  177.1700  140.7600 N   0  0  0  0  0  0  0  0  0  0  0  0
  189.2830  177.3550  141.8140 C   0  0  0  0  0  0  0  0  0  0  0  0
  188.1740  178.1020  141.4560 C   0  0  0  0  0  3  0  0  0  0  0  0
  189.5330  177.7880  139.7390 N   0  0  0  0  0  0  0  0  0  0  0  0
  189.5490  176.8230  143.1830 C   0  0  0  0  0  3  0  0  0  0  0  0
  188.6150  177.4830  144.1980 C   0  0  0  0  0  2  0  0  0  0  0  0
  188.9780  177.0190  145.6070 C   0  0  0  0  0  2  0  0  0  0  0  0
  190.6340  176.8820  147.2480 C   0  0  0  0  0  1  0  0  0  0  0  0
  190.3680  177.3610  145.9040 N   0  0  0  0  0  0  0  0  0  0  0  0
  191.0120  177.0490  143.5650 C   0  0  0  0  0  2  0  0  0  0  0  0
  191.2360  176.6010  145.0070 C   0  0  0  0  0  2  0  0  0  0  0  0
  1 29  1  0  0  0  0
  2 18  1  6  0  0  0
  2  6  1  0  0  0  0
  3  5  2  0  0  0  0
  3 12  1  0  0  0  0
  4  7  1  0  0  0  0
  5 11  1  0  0  0  0
  6 12  1  0  0  0  0
  6  4  2  0  0  0  0
  8  9  1  0  0  0  0
  8 14  1  0  0  0  0
  9 13  1  6  0  0  0
  9 10  1  0  0  0  0
 10  4  1  0  0  0  0
 10  1  1  1  0  0  0
 11  7  2  0  0  0  0
 14  2  1  0  0  0  0
 15 17  1  0  0  0  0
 15  5  1  0  0  0  0
 16 15  2  0  0  0  0
 19 21  1  0  0  0  0
 19 18  1  0  0  0  0
 20 23  1  0  0  0  0
 21 20  2  0  0  0  0
 23 22  1  0  0  0  0
 24 30  1  0  0  0  0
 25 31  1  0  0  0  0
 25 32  2  0  0  0  0
 27 30  1  0  0  0  0
 27 33  1  0  0  0  0
 28 24  2  0  0  0  0
 28 29  1  0  0  0  0
 29 27  2  0  0  0  0
 30 26  1  6  0  0  0
 31 26  2  0  0  0  0
 32 24  1  0  0  0  0
 33 38  1  0  0  0  0
 34 37  2  0  0  0  0
 35 36  2  0  0  0  0
 36 39  1  0  0  0  0
 37 36  1  0  0  0  0
 38 34  1  0  0  0  0
 38 35  1  0  0  0  0
 39 44  1  0  0  0  0
 39 40  1  0  0  0  0
 40 41  1  0  0  0  0
 41 43  1  0  0  0  0
 43 42  1  0  0  0  0
 44 45  1  0  0  0  0
 45 43  1  0  0  0  0
M  END
>  <MODEL>
7

>  <REMARK>
 VINA RESULT:      -6.5      3.445      7.682
  Name = 
  10 active torsions:
  status: ('A' for Active; 'I' for Inactive)
    1  A    between atoms: C_3  and  O_25
    2  A    between atoms: C_4  and  C_34
    3  A    between atoms: C_7  and  O_25
    4  A    between atoms: C_7  and  C_40
    5  A    between atoms: C_8  and  C_16
    6  A    between atoms: C_11  and  C_18
    7  A    between atoms: C_12  and  C_30
    8  A    between atoms: C_12  and  C_32
    9  A    between atoms: C_21  and  C_22
   10  A    between atoms: C_22  and  N_39
                            x       y       z     vdW  Elec       q    Type
                         _______ _______ _______ _____ _____    ______ ____

>  <TORSDO>
F 10

$$$$
=
 OpenBabel10232408273D

 45 50  0  0  1  0  0  0  0  0999 V2000
  191.0640  174.4710  137.6130 C   0  0  0  0  0  2  0  0  0  0  0  0
  193.0070  172.0680  136.0490 C   0  0  1  0  0  3  0  0  0  0  0  0
  196.2370  172.6010  137.4860 C   0  0  0  0  0  3  0  0  0  0  0  0
  193.5650  174.1280  137.4750 C   0  0  0  0  0  0  0  0  0  0  0  0
  196.6270  173.8080  137.9010 C   0  0  0  0  0  0  0  0  0  0  0  0
  193.8120  172.8460  137.0850 C   0  0  0  0  0  0  0  0  0  0  0  0
  194.4040  174.8420  138.4660 C   0  0  0  0  0  3  0  0  0  0  0  0
  192.4910  173.8320  134.7070 C   0  0  0  0  0  2  0  0  0  0  0  0
  192.2820  175.1240  135.4820 C   0  0  1  0  0  3  0  0  0  0  0  0
  192.3800  174.9350  137.0000 C   0  0  1  0  0  3  0  0  0  0  0  0
  195.7240  174.7150  138.6470 C   0  0  0  0  0  3  0  0  0  0  0  0
  194.8810  172.0490  137.7660 C   0  0  0  0  0  2  0  0  0  0  0  0
  193.2820  176.1650  135.0150 C   0  0  0  0  0  1  0  0  0  0  0  0
  191.9460  172.7580  135.4240 O   0  0  0  0  0  0  0  0  0  0  0  0
  198.0240  174.2210  137.6810 C   0  0  0  0  0  0  0  0  0  0  0  0
  198.9720  173.3000  137.2500 O   0  0  0  0  0  0  0  0  0  0  0  0
  198.3770  175.4130  137.8850 O   0  0  0  0  0  1  0  0  0  0  0  0
  193.8460  171.4690  135.0980 O   0  0  0  0  0  0  0  0  0  0  0  0
  193.2400  170.2480  134.8010 C   0  0  0  0  0  2  0  0  0  0  0  0
  194.7190  168.8870  136.1900 C   0  0  0  0  0  3  0  0  0  0  0  0
  193.4820  169.2900  135.9170 C   0  0  0  0  0  3  0  0  0  0  0  0
  194.7550  168.6440  138.6310 C   0  0  0  0  0  1  0  0  0  0  0  0
  194.9640  167.9350  137.3080 C   0  0  0  0  0  2  0  0  0  0  0  0
  188.0970  175.3010  135.7500 C   0  0  0  0  0  0  0  0  0  0  0  0
  185.7750  175.6270  135.8070 C   0  0  0  0  0  3  0  0  0  0  0  0
  187.2130  177.1690  137.0090 N   0  0  0  0  0  0  0  0  0  0  0  0
  189.5570  176.4060  137.1010 C   0  0  0  0  0  0  0  0  0  0  0  0
  188.9610  174.4260  136.1470 N   0  0  0  0  0  0  0  0  0  0  0  0
  189.9070  175.1360  136.9390 C   0  0  0  0  0  0  0  0  0  0  0  0
  188.3690  176.6820  136.2470 C   0  0  1  0  0  3  0  0  0  0  0  0
  186.0050  176.7350  136.7690 C   0  0  0  0  0  3  0  0  0  0  0  0
  186.7780  174.9360  135.3480 N   0  0  0  0  0  0  0  0  0  0  0  0
  190.3180  177.4260  137.8850 C   0  0  0  0  0  2  0  0  0  0  0  0
  190.5460  176.8040  140.2810 C   0  0  0  0  0  3  0  0  0  0  0  0
  188.8300  178.0500  139.7250 N   0  0  0  0  0  0  0  0  0  0  0  0
  188.7960  177.8450  141.0530 C   0  0  0  0  0  0  0  0  0  0  0  0
  189.8610  177.0610  141.4590 C   0  0  0  0  0  3  0  0  0  0  0  0
  189.8910  177.4070  139.2740 N   0  0  0  0  0  0  0  0  0  0  0  0
  187.7460  178.3940  141.9600 C   0  0  0  0  0  3  0  0  0  0  0  0
  187.4360  177.3960  143.0770 C   0  0  0  0  0  2  0  0  0  0  0  0
  186.2790  177.9180  143.9250 C   0  0  0  0  0  2  0  0  0  0  0  0
  184.0510  178.6210  143.9630 C   0  0  0  0  0  1  0  0  0  0  0  0
  185.0960  178.1200  143.0890 N   0  0  0  0  0  0  0  0  0  0  0  0
  186.4820  178.7290  141.1670 C   0  0  0  0  0  2  0  0  0  0  0  0
  185.3850  179.1820  142.1260 C   0  0  0  0  0  2  0  0  0  0  0  0
  2 18  1  6  0  0  0
  2  6  1  0  0  0  0
  3 12  1  0  0  0  0
  3  5  2  0  0  0  0
  4  7  1  0  0  0  0
  5 11  1  0  0  0  0
  6  4  2  0  0  0  0
  6 12  1  0  0  0  0
  7 11  2  0  0  0  0
  8 14  1  0  0  0  0
  8  9  1  0  0  0  0
  9 13  1  6  0  0  0
  9 10  1  0  0  0  0
 10  4  1  0  0  0  0
 10  1  1  6  0  0  0
 14  2  1  0  0  0  0
 15 17  1  0  0  0  0
 15  5  1  0  0  0  0
 16 15  2  0  0  0  0
 19 18  1  0  0  0  0
 19 21  1  0  0  0  0
 20 23  1  0  0  0  0
 21 20  2  0  0  0  0
 23 22  1  0  0  0  0
 24 28  2  0  0  0  0
 25 31  1  0  0  0  0
 27 33  1  0  0  0  0
 28 29  1  0  0  0  0
 29 27  2  0  0  0  0
 29  1  1  0  0  0  0
 30 24  1  1  0  0  0
 30 26  1  0  0  0  0
 30 27  1  0  0  0  0
 31 26  2  0  0  0  0
 32 24  1  0  0  0  0
 32 25  2  0  0  0  0
 33 38  1  0  0  0  0
 34 37  2  0  0  0  0
 35 36  2  0  0  0  0
 36 37  1  0  0  0  0
 36 39  1  0  0  0  0
 38 35  1  0  0  0  0
 38 34  1  0  0  0  0
 39 40  1  0  0  0  0
 40 41  1  0  0  0  0
 43 41  1  0  0  0  0
 43 42  1  0  0  0  0
 44 39  1  0  0  0  0
 44 45  1  0  0  0  0
 45 43  1  0  0  0  0
M  END
>  <MODEL>
8

>  <REMARK>
 VINA RESULT:      -6.4      2.246      3.188
  Name = 
  10 active torsions:
  status: ('A' for Active; 'I' for Inactive)
    1  A    between atoms: C_3  and  O_25
    2  A    between atoms: C_4  and  C_34
    3  A    between atoms: C_7  and  O_25
    4  A    between atoms: C_7  and  C_40
    5  A    between atoms: C_8  and  C_16
    6  A    between atoms: C_11  and  C_18
    7  A    between atoms: C_12  and  C_30
    8  A    between atoms: C_12  and  C_32
    9  A    between atoms: C_21  and  C_22
   10  A    between atoms: C_22  and  N_39
                            x       y       z     vdW  Elec       q    Type
                         _______ _______ _______ _____ _____    ______ ____

>  <TORSDO>
F 10

$$$$
=
 OpenBabel10232408273D

 45 50  0  0  1  0  0  0  0  0999 V2000
  189.0310  175.8760  137.7140 C   0  0  0  0  0  2  0  0  0  0  0  0
  190.2530  173.2770  135.7790 C   0  0  1  0  0  3  0  0  0  0  0  0
  193.7880  173.7960  135.8940 C   0  0  0  0  0  3  0  0  0  0  0  0
  191.3080  175.4230  136.7120 C   0  0  0  0  0  0  0  0  0  0  0  0
  194.3120  175.0170  136.0280 C   0  0  0  0  0  0  0  0  0  0  0  0
  191.3860  174.1050  136.3770 C   0  0  0  0  0  0  0  0  0  0  0  0
  192.4550  176.1820  137.2620 C   0  0  0  0  0  3  0  0  0  0  0  0
  189.2960  174.9440  134.5600 C   0  0  0  0  0  2  0  0  0  0  0  0
  189.3940  176.3020  135.2370 C   0  0  1  0  0  3  0  0  0  0  0  0
  190.0370  176.2350  136.6270 C   0  0  1  0  0  3  0  0  0  0  0  0
  193.7490  176.0170  136.9630 C   0  0  0  0  0  3  0  0  0  0  0  0
  192.6240  173.3240  136.6960 C   0  0  0  0  0  2  0  0  0  0  0  0
  190.1630  177.2600  134.3460 C   0  0  0  0  0  1  0  0  0  0  0  0
  189.0420  173.9550  135.5210 O   0  0  0  0  0  0  0  0  0  0  0  0
  195.5360  175.3530  135.2800 C   0  0  0  0  0  0  0  0  0  0  0  0
  196.1220  174.4220  134.4310 O   0  0  0  0  0  0  0  0  0  0  0  0
  196.0670  176.4890  135.4040 O   0  0  0  0  0  1  0  0  0  0  0  0
  190.6840  172.5690  134.6480 O   0  0  0  0  0  0  0  0  0  0  0  0
  190.4460  171.2270  134.9510 C   0  0  0  0  0  2  0  0  0  0  0  0
  188.0890  170.6100  135.1310 C   0  0  0  0  0  3  0  0  0  0  0  0
  189.1480  170.8070  134.3510 C   0  0  0  0  0  3  0  0  0  0  0  0
  186.5340  168.7350  134.8470 C   0  0  0  0  0  1  0  0  0  0  0  0
  186.7900  170.1950  134.5340 C   0  0  0  0  0  2  0  0  0  0  0  0
  185.7790  177.2560  137.0210 C   0  0  0  0  0  0  0  0  0  0  0  0
  183.5770  177.5540  137.7710 C   0  0  0  0  0  3  0  0  0  0  0  0
  185.3880  178.6380  138.9680 N   0  0  0  0  0  0  0  0  0  0  0  0
  187.6110  177.8790  138.2170 C   0  0  0  0  0  0  0  0  0  0  0  0
  186.6370  176.2980  136.8980 N   0  0  0  0  0  0  0  0  0  0  0  0
  187.8040  176.7220  137.5950 C   0  0  0  0  0  0  0  0  0  0  0  0
  186.2790  178.4110  137.8240 C   0  0  1  0  0  3  0  0  0  0  0  0
  184.1260  178.3050  138.9290 C   0  0  0  0  0  3  0  0  0  0  0  0
  184.3760  177.0390  136.8820 N   0  0  0  0  0  0  0  0  0  0  0  0
  188.6230  178.6000  139.0490 C   0  0  0  0  0  2  0  0  0  0  0  0
  187.3220  178.5780  141.1660 C   0  0  0  0  0  3  0  0  0  0  0  0
  189.2930  177.6190  141.1880 N   0  0  0  0  0  0  0  0  0  0  0  0
  188.7380  177.4810  142.4050 C   0  0  0  0  0  0  0  0  0  0  0  0
  187.4870  178.0720  142.4460 C   0  0  0  0  0  3  0  0  0  0  0  0
  188.4250  178.2900  140.4550 N   0  0  0  0  0  0  0  0  0  0  0  0
  189.3910  176.7840  143.5510 C   0  0  0  0  0  3  0  0  0  0  0  0
  189.1180  177.5360  144.8540 C   0  0  0  0  0  2  0  0  0  0  0  0
  189.8890  176.8800  145.9970 C   0  0  0  0  0  2  0  0  0  0  0  0
  191.9790  176.2410  146.8250 C   0  0  0  0  0  1  0  0  0  0  0  0
  191.3220  176.8850  145.7030 N   0  0  0  0  0  0  0  0  0  0  0  0
  190.8950  176.6530  143.3050 C   0  0  0  0  0  2  0  0  0  0  0  0
  191.5600  176.0390  144.5340 C   0  0  0  0  0  2  0  0  0  0  0  0
  2 18  1  6  0  0  0
  2  6  1  0  0  0  0
  3  5  2  0  0  0  0
  3 12  1  0  0  0  0
  4  7  1  0  0  0  0
  5 11  1  0  0  0  0
  6 12  1  0  0  0  0
  6  4  2  0  0  0  0
  8  9  1  0  0  0  0
  8 14  1  0  0  0  0
  9 13  1  6  0  0  0
  9 10  1  0  0  0  0
 10  4  1  0  0  0  0
 10  1  1  1  0  0  0
 11  7  2  0  0  0  0
 14  2  1  0  0  0  0
 15 17  1  0  0  0  0
 15  5  1  0  0  0  0
 16 15  2  0  0  0  0
 18 19  1  0  0  0  0
 21 19  1  0  0  0  0
 21 20  2  0  0  0  0
 23 22  1  0  0  0  0
 23 20  1  0  0  0  0
 25 31  1  0  0  0  0
 27 33  1  0  0  0  0
 28 24  2  0  0  0  0
 28 29  1  0  0  0  0
 29  1  1  0  0  0  0
 29 27  2  0  0  0  0
 30 24  1  6  0  0  0
 30 27  1  0  0  0  0
 30 26  1  0  0  0  0
 31 26  2  0  0  0  0
 32 24  1  0  0  0  0
 32 25  2  0  0  0  0
 33 38  1  0  0  0  0
 34 37  2  0  0  0  0
 35 36  2  0  0  0  0
 36 37  1  0  0  0  0
 36 39  1  0  0  0  0
 38 34  1  0  0  0  0
 38 35  1  0  0  0  0
 39 40  1  0  0  0  0
 40 41  1  0  0  0  0
 43 41  1  0  0  0  0
 43 42  1  0  0  0  0
 44 39  1  0  0  0  0
 44 45  1  0  0  0  0
 45 43  1  0  0  0  0
M  END
>  <MODEL>
9

>  <REMARK>
 VINA RESULT:      -6.4      1.479      2.432
  Name = 
  10 active torsions:
  status: ('A' for Active; 'I' for Inactive)
    1  A    between atoms: C_3  and  O_25
    2  A    between atoms: C_4  and  C_34
    3  A    between atoms: C_7  and  O_25
    4  A    between atoms: C_7  and  C_40
    5  A    between atoms: C_8  and  C_16
    6  A    between atoms: C_11  and  C_18
    7  A    between atoms: C_12  and  C_30
    8  A    between atoms: C_12  and  C_32
    9  A    between atoms: C_21  and  C_22
   10  A    between atoms: C_22  and  N_39
                            x       y       z     vdW  Elec       q    Type
                         _______ _______ _______ _____ _____    ______ ____

>  <TORSDO>
F 10

$$$$
