=
 OpenBabel10232408163D

 32 35  0  0  1  0  0  0  0  0999 V2000
  184.1080  179.2360  138.7720 C   0  0  1  0  0  3  0  0  0  0  0  0
  182.9140  181.3050  138.9420 O   0  0  0  0  0  0  0  0  0  0  0  0
  182.8300  177.5260  137.4150 C   0  0  0  0  0  0  0  0  0  0  0  0
  184.0690  178.0460  137.8390 C   0  0  0  0  0  0  0  0  0  0  0  0
  181.6960  179.5350  138.1210 O   0  0  0  0  0  0  0  0  0  0  0  0
  181.5520  178.1300  137.9160 C   0  0  0  0  0  2  0  0  0  0  0  0
  185.1680  176.3130  136.5490 C   0  0  0  0  0  3  0  0  0  0  0  0
  182.8780  180.0870  138.6260 C   0  0  0  0  0  0  0  0  0  0  0  0
  185.2530  177.4290  137.3920 C   0  0  0  0  0  0  0  0  0  0  0  0
  182.7860  176.4380  136.6010 N   0  0  0  0  0  0  0  0  0  0  0  0
  183.9180  175.8310  136.1610 C   0  0  0  0  0  3  0  0  0  0  0  0
  186.5960  177.9370  137.8330 C   0  0  2  0  0  3  0  0  0  0  0  0
  187.3270  178.6470  136.6890 C   0  0  0  0  0  2  0  0  0  0  0  0
  188.3200  176.0980  137.6250 C   0  0  0  0  0  0  0  0  0  0  0  0
  189.7120  178.1490  137.2040 C   0  0  0  0  0  3  0  0  0  0  0  0
  191.7010  176.3920  136.2410 N   0  0  0  0  0  0  0  0  0  0  0  0
  188.0450  174.9080  137.3170 O   0  0  0  0  0  0  0  0  0  0  0  0
  187.4010  176.8420  138.5440 C   0  0  0  0  0  2  0  0  0  0  0  0
  189.5150  176.7240  137.1240 N   0  0  0  0  0  0  0  0  0  0  0  0
  190.5850  175.8890  136.6630 C   0  0  0  0  0  3  0  0  0  0  0  0
  188.7290  179.0400  137.0460 C   0  0  0  0  0  3  0  0  0  0  0  0
  192.7800  175.5350  135.7790 C   0  0  0  0  0  2  0  0  0  0  0  0
  194.7340  176.8990  135.8710 O   0  0  0  0  0  0  0  0  0  0  0  0
  194.5550  175.3160  137.5610 N   0  0  0  0  0  1  0  0  0  0  0  0
  194.0780  175.9550  136.3830 C   0  0  0  0  0  0  0  0  0  0  0  0
  182.9840  178.1900  142.1960 C   0  0  0  0  0  3  0  0  0  0  0  0
  183.2200  178.1600  140.8850 C   0  0  0  0  0  3  0  0  0  0  0  0
  186.0070  178.5730  142.0860 C   0  0  0  0  0  3  0  0  0  0  0  0
  184.3460  178.8300  140.1990 C   0  0  0  0  0  0  0  0  0  0  0  0
  183.8010  178.9930  143.1520 C   0  0  0  0  0  2  0  0  0  0  0  0
  185.2230  178.5440  143.1640 C   0  0  0  0  0  3  0  0  0  0  0  0
  185.5760  178.9610  140.7290 C   0  0  0  0  0  3  0  0  0  0  0  0
  1 29  1  1  0  0  0
  3  4  1  0  0  0  0
  3  6  1  0  0  0  0
  4  1  1  0  0  0  0
  5  8  1  0  0  0  0
  6  5  1  0  0  0  0
  7  9  1  0  0  0  0
  8  1  1  0  0  0  0
  8  2  2  0  0  0  0
  9  4  2  0  0  0  0
 10  3  2  0  0  0  0
 11  7  2  0  0  0  0
 11 10  1  0  0  0  0
 12  9  1  6  0  0  0
 12 18  1  0  0  0  0
 13 21  1  0  0  0  0
 13 12  1  0  0  0  0
 14 18  1  0  0  0  0
 16 20  2  0  0  0  0
 17 14  2  0  0  0  0
 19 15  1  0  0  0  0
 19 14  1  0  0  0  0
 20 19  1  0  0  0  0
 21 15  2  0  0  0  0
 22 16  1  0  0  0  0
 22 25  1  0  0  0  0
 23 25  2  0  0  0  0
 25 24  1  0  0  0  0
 26 30  1  0  0  0  0
 27 26  2  0  0  0  0
 28 31  2  0  0  0  0
 29 32  2  0  0  0  0
 29 27  1  0  0  0  0
 30 31  1  0  0  0  0
 32 28  1  0  0  0  0
M  END
>  <MODEL>
1

>  <REMARK>
 VINA RESULT:      -6.4      0.000      0.000
  Name = 
  4 active torsions:
  status: ('A' for Active; 'I' for Inactive)
    1  A    between atoms: C_1  and  C_21
    2  A    between atoms: C_2  and  C_19
    3  A    between atoms: N_14  and  C_18
    4  A    between atoms: C_18  and  C_23
                            x       y       z     vdW  Elec       q    Type
                         _______ _______ _______ _____ _____    ______ ____

>  <TORSDO>
F 4

$$$$
=
 OpenBabel10232408163D

 32 35  0  0  1  0  0  0  0  0999 V2000
  189.5970  175.0370  136.8950 C   0  0  1  0  0  3  0  0  0  0  0  0
  189.3390  172.6680  137.1340 O   0  0  0  0  0  0  0  0  0  0  0  0
  187.9210  176.0030  135.2660 C   0  0  0  0  0  0  0  0  0  0  0  0
  188.7180  176.1710  136.4150 C   0  0  0  0  0  0  0  0  0  0  0  0
  188.1900  173.6080  135.3770 O   0  0  0  0  0  0  0  0  0  0  0  0
  187.9680  174.7130  134.5010 C   0  0  0  0  0  2  0  0  0  0  0  0
  187.8830  178.4390  136.5890 C   0  0  0  0  0  3  0  0  0  0  0  0
  189.0450  173.7030  136.4790 C   0  0  0  0  0  0  0  0  0  0  0  0
  188.6920  177.4080  137.0850 C   0  0  0  0  0  0  0  0  0  0  0  0
  187.1520  177.0270  134.8090 N   0  0  0  0  0  0  0  0  0  0  0  0
  187.1150  178.2270  135.4440 C   0  0  0  0  0  3  0  0  0  0  0  0
  189.5410  177.6400  138.3020 C   0  0  2  0  0  3  0  0  0  0  0  0
  189.7480  176.3440  139.0930 C   0  0  0  0  0  2  0  0  0  0  0  0
  188.0940  178.4300  140.2200 C   0  0  0  0  0  0  0  0  0  0  0  0
  189.9070  177.1800  141.4340 C   0  0  0  0  0  3  0  0  0  0  0  0
  188.2250  177.2830  143.6990 N   0  0  0  0  0  0  0  0  0  0  0  0
  186.8680  178.7020  140.1110 O   0  0  0  0  0  0  0  0  0  0  0  0
  189.0280  178.8320  139.1210 C   0  0  0  0  0  2  0  0  0  0  0  0
  188.5920  177.7680  141.3970 N   0  0  0  0  0  0  0  0  0  0  0  0
  187.8100  177.8220  142.5970 C   0  0  0  0  0  3  0  0  0  0  0  0
  190.4670  176.5600  140.3900 C   0  0  0  0  0  3  0  0  0  0  0  0
  187.4250  177.3470  144.9110 C   0  0  0  0  0  2  0  0  0  0  0  0
  189.5010  177.9410  145.9200 O   0  0  0  0  0  0  0  0  0  0  0  0
  187.6930  177.8300  147.3740 N   0  0  0  0  0  1  0  0  0  0  0  0
  188.2750  177.7090  146.0810 C   0  0  0  0  0  0  0  0  0  0  0  0
  193.2950  175.1020  137.5260 C   0  0  0  0  0  3  0  0  0  0  0  0
  192.0510  174.6480  137.3850 C   0  0  0  0  0  3  0  0  0  0  0  0
  192.6400  175.9250  134.6640 C   0  0  0  0  0  3  0  0  0  0  0  0
  191.0290  175.2110  136.4750 C   0  0  0  0  0  0  0  0  0  0  0  0
  193.8030  176.3180  136.8260 C   0  0  0  0  0  2  0  0  0  0  0  0
  193.7640  176.1490  135.3440 C   0  0  0  0  0  3  0  0  0  0  0  0
  191.3060  175.7270  135.2630 C   0  0  0  0  0  3  0  0  0  0  0  0
  1 29  1  6  0  0  0
  3  4  1  0  0  0  0
  4  1  1  0  0  0  0
  4  9  2  0  0  0  0
  5  8  1  0  0  0  0
  6  3  1  0  0  0  0
  6  5  1  0  0  0  0
  7  9  1  0  0  0  0
  8  1  1  0  0  0  0
  8  2  2  0  0  0  0
 10  3  2  0  0  0  0
 10 11  1  0  0  0  0
 11  7  2  0  0  0  0
 12  9  1  6  0  0  0
 12 13  1  0  0  0  0
 12 18  1  0  0  0  0
 13 21  1  0  0  0  0
 14 19  1  0  0  0  0
 16 22  1  0  0  0  0
 17 14  2  0  0  0  0
 18 14  1  0  0  0  0
 19 15  1  0  0  0  0
 19 20  1  0  0  0  0
 20 16  2  0  0  0  0
 21 15  2  0  0  0  0
 22 25  1  0  0  0  0
 23 25  2  0  0  0  0
 25 24  1  0  0  0  0
 27 26  2  0  0  0  0
 28 32  1  0  0  0  0
 28 31  2  0  0  0  0
 29 27  1  0  0  0  0
 30 26  1  0  0  0  0
 31 30  1  0  0  0  0
 32 29  2  0  0  0  0
M  END
>  <MODEL>
2

>  <REMARK>
 VINA RESULT:      -6.2      3.927      8.048
  Name = 
  4 active torsions:
  status: ('A' for Active; 'I' for Inactive)
    1  A    between atoms: C_1  and  C_21
    2  A    between atoms: C_2  and  C_19
    3  A    between atoms: N_14  and  C_18
    4  A    between atoms: C_18  and  C_23
                            x       y       z     vdW  Elec       q    Type
                         _______ _______ _______ _____ _____    ______ ____

>  <TORSDO>
F 4

$$$$
=
 OpenBabel10232408163D

 32 35  0  0  1  0  0  0  0  0999 V2000
  194.0610  173.7530  137.0210 C   0  0  1  0  0  3  0  0  0  0  0  0
  195.4920  173.1620  138.8470 O   0  0  0  0  0  0  0  0  0  0  0  0
  193.1580  171.7080  135.8380 C   0  0  0  0  0  0  0  0  0  0  0  0
  192.9800  173.0490  136.2310 C   0  0  0  0  0  0  0  0  0  0  0  0
  194.9550  171.4360  137.4240 O   0  0  0  0  0  0  0  0  0  0  0  0
  194.4310  170.9890  136.1740 C   0  0  0  0  0  2  0  0  0  0  0  0
  190.8330  173.0300  135.1060 C   0  0  0  0  0  3  0  0  0  0  0  0
  194.8820  172.7770  137.8150 C   0  0  0  0  0  0  0  0  0  0  0  0
  191.7960  173.7140  135.8600 C   0  0  0  0  0  0  0  0  0  0  0  0
  192.2050  171.0770  135.1020 N   0  0  0  0  0  0  0  0  0  0  0  0
  191.0560  171.7040  134.7350 C   0  0  0  0  0  3  0  0  0  0  0  0
  191.5710  175.1490  136.2390 C   0  0  2  0  0  3  0  0  0  0  0  0
  191.2410  175.2880  137.7300 C   0  0  0  0  0  2  0  0  0  0  0  0
  189.1700  175.7950  135.7770 C   0  0  0  0  0  0  0  0  0  0  0  0
  189.7180  177.2590  137.7470 C   0  0  0  0  0  3  0  0  0  0  0  0
  186.9400  177.7090  137.9680 N   0  0  0  0  0  0  0  0  0  0  0  0
  188.3390  175.0450  135.1980 O   0  0  0  0  0  0  0  0  0  0  0  0
  190.5830  175.8310  135.2840 C   0  0  0  0  0  2  0  0  0  0  0  0
  188.7590  176.6250  136.8790 N   0  0  0  0  0  0  0  0  0  0  0  0
  187.3660  176.9330  137.0230 C   0  0  0  0  0  3  0  0  0  0  0  0
  190.8680  176.6870  138.1170 C   0  0  0  0  0  3  0  0  0  0  0  0
  185.5260  178.0170  138.1030 C   0  0  0  0  0  2  0  0  0  0  0  0
  186.0050  178.7850  140.3080 O   0  0  0  0  0  0  0  0  0  0  0  0
  184.2940  179.9180  139.2180 N   0  0  0  0  0  1  0  0  0  0  0  0
  185.2940  178.9060  139.2770 C   0  0  0  0  0  0  0  0  0  0  0  0
  197.1470  174.5240  135.0310 C   0  0  0  0  0  3  0  0  0  0  0  0
  196.0000  173.9600  135.4060 C   0  0  0  0  0  3  0  0  0  0  0  0
  195.2680  176.9230  135.1440 C   0  0  0  0  0  3  0  0  0  0  0  0
  194.9160  174.6340  136.1530 C   0  0  0  0  0  0  0  0  0  0  0  0
  197.5270  175.9180  135.4000 C   0  0  0  0  0  2  0  0  0  0  0  0
  196.5660  176.9120  134.8400 C   0  0  0  0  0  3  0  0  0  0  0  0
  194.5820  175.9270  135.9890 C   0  0  0  0  0  3  0  0  0  0  0  0
  1 29  1  6  0  0  0
  1  8  1  0  0  0  0
  3  6  1  0  0  0  0
  3  4  1  0  0  0  0
  4  1  1  0  0  0  0
  5  8  1  0  0  0  0
  6  5  1  0  0  0  0
  7  9  1  0  0  0  0
  8  2  2  0  0  0  0
  9  4  2  0  0  0  0
 10  3  2  0  0  0  0
 11 10  1  0  0  0  0
 11  7  2  0  0  0  0
 12  9  1  6  0  0  0
 12 13  1  0  0  0  0
 13 21  1  0  0  0  0
 14 19  1  0  0  0  0
 15 21  2  0  0  0  0
 16 22  1  0  0  0  0
 17 14  2  0  0  0  0
 18 14  1  0  0  0  0
 18 12  1  0  0  0  0
 19 20  1  0  0  0  0
 19 15  1  0  0  0  0
 20 16  2  0  0  0  0
 22 25  1  0  0  0  0
 24 25  1  0  0  0  0
 25 23  2  0  0  0  0
 26 30  1  0  0  0  0
 26 27  2  0  0  0  0
 27 29  1  0  0  0  0
 28 32  1  0  0  0  0
 31 28  2  0  0  0  0
 31 30  1  0  0  0  0
 32 29  2  0  0  0  0
M  END
>  <MODEL>
3

>  <REMARK>
 VINA RESULT:      -5.8      3.073     10.342
  Name = 
  4 active torsions:
  status: ('A' for Active; 'I' for Inactive)
    1  A    between atoms: C_1  and  C_21
    2  A    between atoms: C_2  and  C_19
    3  A    between atoms: N_14  and  C_18
    4  A    between atoms: C_18  and  C_23
                            x       y       z     vdW  Elec       q    Type
                         _______ _______ _______ _____ _____    ______ ____

>  <TORSDO>
F 4

$$$$
=
 OpenBabel10232408163D

 32 35  0  0  1  0  0  0  0  0999 V2000
  189.1470  176.7000  136.6300 C   0  0  1  0  0  3  0  0  0  0  0  0
  188.2810  177.4730  134.5360 O   0  0  0  0  0  0  0  0  0  0  0  0
  191.6700  176.5200  136.5920 C   0  0  0  0  0  0  0  0  0  0  0  0
  190.4900  176.7570  137.3240 C   0  0  0  0  0  0  0  0  0  0  0  0
  190.4940  176.8470  134.5110 O   0  0  0  0  0  0  0  0  0  0  0  0
  191.5920  176.1800  135.1330 C   0  0  0  0  0  2  0  0  0  0  0  0
  191.8520  177.0410  139.3090 C   0  0  0  0  0  3  0  0  0  0  0  0
  189.2730  177.0240  135.1680 C   0  0  0  0  0  0  0  0  0  0  0  0
  190.5890  177.0250  138.7030 C   0  0  0  0  0  0  0  0  0  0  0  0
  192.8780  176.5380  137.2140 N   0  0  0  0  0  0  0  0  0  0  0  0
  192.9920  176.7950  138.5430 C   0  0  0  0  0  3  0  0  0  0  0  0
  189.3580  177.2640  139.5290 C   0  0  2  0  0  3  0  0  0  0  0  0
  189.3600  178.6680  140.1420 C   0  0  0  0  0  2  0  0  0  0  0  0
  189.7080  176.3770  141.8710 C   0  0  0  0  0  0  0  0  0  0  0  0
  188.1470  178.3050  142.2870 C   0  0  0  0  0  3  0  0  0  0  0  0
  188.8250  178.0430  145.0140 N   0  0  0  0  0  0  0  0  0  0  0  0
  190.7240  175.7240  142.2310 O   0  0  0  0  0  0  0  0  0  0  0  0
  189.1180  176.1180  140.5190 C   0  0  0  0  0  2  0  0  0  0  0  0
  189.1070  177.3390  142.7580 N   0  0  0  0  0  0  0  0  0  0  0  0
  189.3710  177.2350  144.1630 C   0  0  0  0  0  3  0  0  0  0  0  0
  188.2210  178.8940  141.0890 C   0  0  0  0  0  3  0  0  0  0  0  0
  189.0980  177.9270  146.4370 C   0  0  0  0  0  2  0  0  0  0  0  0
  186.7310  177.6940  146.5950 O   0  0  0  0  0  0  0  0  0  0  0  0
  187.8550  177.7410  148.6270 N   0  0  0  0  0  1  0  0  0  0  0  0
  187.8260  177.7940  147.2050 C   0  0  0  0  0  0  0  0  0  0  0  0
  188.9660  172.9530  136.6880 C   0  0  0  0  0  3  0  0  0  0  0  0
  189.3090  174.2020  137.0020 C   0  0  0  0  0  3  0  0  0  0  0  0
  186.2660  174.2080  137.3480 C   0  0  0  0  0  3  0  0  0  0  0  0
  188.4430  175.3920  136.8600 C   0  0  0  0  0  0  0  0  0  0  0  0
  187.6590  172.6030  136.0590 C   0  0  0  0  0  2  0  0  0  0  0  0
  186.5130  172.9620  136.9440 C   0  0  0  0  0  3  0  0  0  0  0  0
  187.1130  175.3820  137.0600 C   0  0  0  0  0  3  0  0  0  0  0  0
  1 29  1  6  0  0  0
  1  4  1  0  0  0  0
  2  8  2  0  0  0  0
  3 10  2  0  0  0  0
  3  4  1  0  0  0  0
  4  9  2  0  0  0  0
  5  6  1  0  0  0  0
  5  8  1  0  0  0  0
  6  3  1  0  0  0  0
  8  1  1  0  0  0  0
  9  7  1  0  0  0  0
 10 11  1  0  0  0  0
 11  7  2  0  0  0  0
 12  9  1  1  0  0  0
 12 13  1  0  0  0  0
 12 18  1  0  0  0  0
 13 21  1  0  0  0  0
 14 17  2  0  0  0  0
 14 19  1  0  0  0  0
 15 19  1  0  0  0  0
 16 22  1  0  0  0  0
 18 14  1  0  0  0  0
 19 20  1  0  0  0  0
 20 16  2  0  0  0  0
 21 15  2  0  0  0  0
 22 25  1  0  0  0  0
 23 25  2  0  0  0  0
 25 24  1  0  0  0  0
 26 27  2  0  0  0  0
 29 27  1  0  0  0  0
 29 32  2  0  0  0  0
 30 26  1  0  0  0  0
 30 31  1  0  0  0  0
 31 28  2  0  0  0  0
 32 28  1  0  0  0  0
M  END
>  <MODEL>
4

>  <REMARK>
 VINA RESULT:      -5.8      4.287      8.243
  Name = 
  4 active torsions:
  status: ('A' for Active; 'I' for Inactive)
    1  A    between atoms: C_1  and  C_21
    2  A    between atoms: C_2  and  C_19
    3  A    between atoms: N_14  and  C_18
    4  A    between atoms: C_18  and  C_23
                            x       y       z     vdW  Elec       q    Type
                         _______ _______ _______ _____ _____    ______ ____

>  <TORSDO>
F 4

$$$$
=
 OpenBabel10232408163D

 32 35  0  0  1  0  0  0  0  0999 V2000
  189.2710  177.8170  137.9000 C   0  0  1  0  0  3  0  0  0  0  0  0
  188.9850  180.1280  137.3460 O   0  0  0  0  0  0  0  0  0  0  0  0
  187.4880  176.3710  136.8380 C   0  0  0  0  0  0  0  0  0  0  0  0
  188.8100  176.5040  137.3060 C   0  0  0  0  0  0  0  0  0  0  0  0
  187.2070  178.7670  136.8200 O   0  0  0  0  0  0  0  0  0  0  0  0
  186.5290  177.5180  136.9580 C   0  0  0  0  0  2  0  0  0  0  0  0
  189.1960  174.1910  136.6910 C   0  0  0  0  0  3  0  0  0  0  0  0
  188.4850  178.9720  137.3490 C   0  0  0  0  0  0  0  0  0  0  0  0
  189.6730  175.3950  137.2250 C   0  0  0  0  0  0  0  0  0  0  0  0
  187.0560  175.1850  136.3310 N   0  0  0  0  0  0  0  0  0  0  0  0
  187.8770  174.1060  136.2460 C   0  0  0  0  0  3  0  0  0  0  0  0
  191.0850  175.4840  137.7300 C   0  0  2  0  0  3  0  0  0  0  0  0
  191.8940  176.5230  136.9450 C   0  0  0  0  0  2  0  0  0  0  0  0
  192.5100  173.7180  136.6140 C   0  0  0  0  0  0  0  0  0  0  0  0
  194.1870  175.5510  137.0010 C   0  0  0  0  0  3  0  0  0  0  0  0
  195.8710  174.1530  135.2180 N   0  0  0  0  0  0  0  0  0  0  0  0
  192.0540  172.8270  135.8470 O   0  0  0  0  0  0  0  0  0  0  0  0
  191.7300  174.0960  137.8340 C   0  0  0  0  0  2  0  0  0  0  0  0
  193.7760  174.3420  136.3330 N   0  0  0  0  0  0  0  0  0  0  0  0
  194.7000  173.6640  135.4730 C   0  0  0  0  0  3  0  0  0  0  0  0
  193.3450  176.5390  137.3210 C   0  0  0  0  0  3  0  0  0  0  0  0
  196.8010  173.4550  134.3460 C   0  0  0  0  0  2  0  0  0  0  0  0
  198.9030  172.5530  135.0220 O   0  0  0  0  0  0  0  0  0  0  0  0
  198.7410  174.8680  135.1310 N   0  0  0  0  0  1  0  0  0  0  0  0
  198.1960  173.5810  134.8600 C   0  0  0  0  0  0  0  0  0  0  0  0
  190.7920  177.1000  141.2540 C   0  0  0  0  0  3  0  0  0  0  0  0
  190.5780  177.6550  140.0620 C   0  0  0  0  0  3  0  0  0  0  0  0
  187.9250  178.1010  141.5240 C   0  0  0  0  0  3  0  0  0  0  0  0
  189.2620  177.7940  139.4030 C   0  0  0  0  0  0  0  0  0  0  0  0
  189.7120  176.4580  142.0580 C   0  0  0  0  0  2  0  0  0  0  0  0
  188.6490  177.4390  142.4260 C   0  0  0  0  0  3  0  0  0  0  0  0
  188.1140  178.0350  140.0620 C   0  0  0  0  0  3  0  0  0  0  0  0
  1 29  1  1  0  0  0
  2  8  2  0  0  0  0
  3  6  1  0  0  0  0
  3  4  1  0  0  0  0
  4  1  1  0  0  0  0
  5  6  1  0  0  0  0
  5  8  1  0  0  0  0
  7  9  1  0  0  0  0
  8  1  1  0  0  0  0
  9  4  2  0  0  0  0
 10  3  2  0  0  0  0
 11 10  1  0  0  0  0
 11  7  2  0  0  0  0
 12  9  1  6  0  0  0
 12 18  1  0  0  0  0
 13 21  1  0  0  0  0
 13 12  1  0  0  0  0
 14 18  1  0  0  0  0
 15 21  2  0  0  0  0
 16 20  2  0  0  0  0
 17 14  2  0  0  0  0
 19 14  1  0  0  0  0
 19 15  1  0  0  0  0
 20 19  1  0  0  0  0
 22 25  1  0  0  0  0
 22 16  1  0  0  0  0
 25 23  2  0  0  0  0
 25 24  1  0  0  0  0
 26 30  1  0  0  0  0
 27 26  2  0  0  0  0
 28 31  2  0  0  0  0
 29 27  1  0  0  0  0
 29 32  2  0  0  0  0
 30 31  1  0  0  0  0
 32 28  1  0  0  0  0
M  END
>  <MODEL>
5

>  <REMARK>
 VINA RESULT:      -5.8      3.336      5.201
  Name = 
  4 active torsions:
  status: ('A' for Active; 'I' for Inactive)
    1  A    between atoms: C_1  and  C_21
    2  A    between atoms: C_2  and  C_19
    3  A    between atoms: N_14  and  C_18
    4  A    between atoms: C_18  and  C_23
                            x       y       z     vdW  Elec       q    Type
                         _______ _______ _______ _____ _____    ______ ____

>  <TORSDO>
F 4

$$$$
=
 OpenBabel10232408163D

 32 35  0  0  1  0  0  0  0  0999 V2000
  197.0240  174.1840  135.7190 C   0  0  1  0  0  3  0  0  0  0  0  0
  198.8840  174.8530  134.3690 O   0  0  0  0  0  0  0  0  0  0  0  0
  197.4630  174.5720  138.1800 C   0  0  0  0  0  0  0  0  0  0  0  0
  196.5410  174.5010  137.1180 C   0  0  0  0  0  0  0  0  0  0  0  0
  199.3030  174.7380  136.6280 O   0  0  0  0  0  0  0  0  0  0  0  0
  198.9170  174.3000  137.9310 C   0  0  0  0  0  2  0  0  0  0  0  0
  194.7710  174.9770  138.7030 C   0  0  0  0  0  3  0  0  0  0  0  0
  198.4530  174.6040  135.5260 C   0  0  0  0  0  0  0  0  0  0  0  0
  195.1760  174.7120  137.3890 C   0  0  0  0  0  0  0  0  0  0  0  0
  197.0340  174.8260  139.4450 N   0  0  0  0  0  0  0  0  0  0  0  0
  195.7210  175.0320  139.7240 C   0  0  0  0  0  3  0  0  0  0  0  0
  194.1530  174.6270  136.2920 C   0  0  2  0  0  3  0  0  0  0  0  0
  194.0060  175.9670  135.5610 C   0  0  0  0  0  2  0  0  0  0  0  0
  191.8420  175.0310  137.2360 C   0  0  0  0  0  0  0  0  0  0  0  0
  191.6030  175.9420  134.9050 C   0  0  0  0  0  3  0  0  0  0  0  0
  189.2130  177.1450  135.8040 N   0  0  0  0  0  0  0  0  0  0  0  0
  191.5980  175.1570  138.4660 O   0  0  0  0  0  0  0  0  0  0  0  0
  192.8440  174.0090  136.7950 C   0  0  0  0  0  2  0  0  0  0  0  0
  191.1500  175.8400  136.2680 N   0  0  0  0  0  0  0  0  0  0  0  0
  189.9040  176.4430  136.6440 C   0  0  0  0  0  3  0  0  0  0  0  0
  192.8940  175.9640  134.5570 C   0  0  0  0  0  3  0  0  0  0  0  0
  187.9500  177.7490  136.1950 C   0  0  0  0  0  2  0  0  0  0  0  0
  188.9360  179.5980  137.3330 O   0  0  0  0  0  0  0  0  0  0  0  0
  187.3820  178.3930  138.5690 N   0  0  0  0  0  1  0  0  0  0  0  0
  188.1370  178.6270  137.3860 C   0  0  0  0  0  0  0  0  0  0  0  0
  194.9990  171.3390  134.3470 C   0  0  0  0  0  3  0  0  0  0  0  0
  195.7060  172.4670  134.4060 C   0  0  0  0  0  3  0  0  0  0  0  0
  197.6510  170.3650  135.4920 C   0  0  0  0  0  3  0  0  0  0  0  0
  196.8050  172.7420  135.3570 C   0  0  0  0  0  0  0  0  0  0  0  0
  195.1770  170.2150  135.3110 C   0  0  0  0  0  2  0  0  0  0  0  0
  196.5560  169.6490  135.2410 C   0  0  0  0  0  3  0  0  0  0  0  0
  197.6770  171.8110  135.7860 C   0  0  0  0  0  3  0  0  0  0  0  0
  1 29  1  1  0  0  0
  1  4  1  0  0  0  0
  2  8  2  0  0  0  0
  3 10  1  0  0  0  0
  4  9  1  0  0  0  0
  4  3  2  0  0  0  0
  5  6  1  0  0  0  0
  6  3  1  0  0  0  0
  7 11  1  0  0  0  0
  8  1  1  0  0  0  0
  8  5  1  0  0  0  0
  9  7  2  0  0  0  0
 10 11  2  0  0  0  0
 12 18  1  0  0  0  0
 12  9  1  1  0  0  0
 13 12  1  0  0  0  0
 14 17  2  0  0  0  0
 15 19  1  0  0  0  0
 16 22  1  0  0  0  0
 16 20  2  0  0  0  0
 18 14  1  0  0  0  0
 19 20  1  0  0  0  0
 19 14  1  0  0  0  0
 21 15  2  0  0  0  0
 21 13  1  0  0  0  0
 22 25  1  0  0  0  0
 23 25  2  0  0  0  0
 25 24  1  0  0  0  0
 26 27  2  0  0  0  0
 26 30  1  0  0  0  0
 27 29  1  0  0  0  0
 28 32  1  0  0  0  0
 29 32  2  0  0  0  0
 31 30  1  0  0  0  0
 31 28  2  0  0  0  0
M  END
>  <MODEL>
6

>  <REMARK>
 VINA RESULT:      -5.6      4.380     11.923
  Name = 
  4 active torsions:
  status: ('A' for Active; 'I' for Inactive)
    1  A    between atoms: C_1  and  C_21
    2  A    between atoms: C_2  and  C_19
    3  A    between atoms: N_14  and  C_18
    4  A    between atoms: C_18  and  C_23
                            x       y       z     vdW  Elec       q    Type
                         _______ _______ _______ _____ _____    ______ ____

>  <TORSDO>
F 4

$$$$
=
 OpenBabel10232408163D

 32 35  0  0  1  0  0  0  0  0999 V2000
  184.0370  176.4240  136.6230 C   0  0  1  0  0  3  0  0  0  0  0  0
  182.1890  177.4820  135.5280 O   0  0  0  0  0  0  0  0  0  0  0  0
  183.7280  173.9180  136.7710 C   0  0  0  0  0  0  0  0  0  0  0  0
  184.5990  175.0210  136.6680 C   0  0  0  0  0  0  0  0  0  0  0  0
  181.8510  175.2860  136.1200 O   0  0  0  0  0  0  0  0  0  0  0  0
  182.2480  174.1380  136.8700 C   0  0  0  0  0  2  0  0  0  0  0  0
  186.4640  173.4730  136.6970 C   0  0  0  0  0  3  0  0  0  0  0  0
  182.6420  176.4370  136.0640 C   0  0  0  0  0  0  0  0  0  0  0  0
  185.9870  174.7880  136.6260 C   0  0  0  0  0  0  0  0  0  0  0  0
  184.2270  172.6550  136.8430 N   0  0  0  0  0  0  0  0  0  0  0  0
  185.5630  172.4130  136.8040 C   0  0  0  0  0  3  0  0  0  0  0  0
  186.9550  175.9330  136.5370 C   0  0  2  0  0  3  0  0  0  0  0  0
  187.3970  176.1790  135.0900 C   0  0  0  0  0  2  0  0  0  0  0  0
  189.3040  175.1100  136.9810 C   0  0  0  0  0  0  0  0  0  0  0  0
  189.7250  177.0090  135.3880 C   0  0  0  0  0  3  0  0  0  0  0  0
  192.3330  175.9670  135.1040 N   0  0  0  0  0  0  0  0  0  0  0  0
  189.5810  173.9360  137.3460 O   0  0  0  0  0  0  0  0  0  0  0  0
  188.0940  175.7820  137.5520 C   0  0  0  0  0  2  0  0  0  0  0  0
  190.1550  175.8040  136.0510 N   0  0  0  0  0  0  0  0  0  0  0  0
  191.5070  175.3570  135.8920 C   0  0  0  0  0  3  0  0  0  0  0  0
  188.4710  177.2170  134.9750 C   0  0  0  0  0  3  0  0  0  0  0  0
  193.7030  175.5050  134.9530 C   0  0  0  0  0  2  0  0  0  0  0  0
  194.9810  177.3200  135.8230 O   0  0  0  0  0  0  0  0  0  0  0  0
  194.9420  175.4140  137.1510 N   0  0  0  0  0  1  0  0  0  0  0  0
  194.5840  176.1370  135.9780 C   0  0  0  0  0  0  0  0  0  0  0  0
  182.7370  177.2880  140.0350 C   0  0  0  0  0  3  0  0  0  0  0  0
  183.2300  176.5830  139.0170 C   0  0  0  0  0  3  0  0  0  0  0  0
  185.3170  178.7890  139.4150 C   0  0  0  0  0  3  0  0  0  0  0  0
  184.1170  177.1110  137.9570 C   0  0  0  0  0  0  0  0  0  0  0  0
  182.9560  178.7550  140.1910 C   0  0  0  0  0  2  0  0  0  0  0  0
  184.4050  179.0770  140.3430 C   0  0  0  0  0  3  0  0  0  0  0  0
  185.0580  178.0490  138.1650 C   0  0  0  0  0  3  0  0  0  0  0  0
  1  4  1  0  0  0  0
  1 29  1  1  0  0  0
  2  8  2  0  0  0  0
  3 10  1  0  0  0  0
  3  6  1  0  0  0  0
  4  3  2  0  0  0  0
  5  6  1  0  0  0  0
  7 11  1  0  0  0  0
  8  5  1  0  0  0  0
  8  1  1  0  0  0  0
  9  4  1  0  0  0  0
  9  7  2  0  0  0  0
 11 10  2  0  0  0  0
 12  9  1  6  0  0  0
 12 18  1  0  0  0  0
 13 12  1  0  0  0  0
 14 17  2  0  0  0  0
 14 18  1  0  0  0  0
 15 19  1  0  0  0  0
 16 20  2  0  0  0  0
 19 14  1  0  0  0  0
 20 19  1  0  0  0  0
 21 13  1  0  0  0  0
 21 15  2  0  0  0  0
 22 16  1  0  0  0  0
 22 25  1  0  0  0  0
 23 25  2  0  0  0  0
 25 24  1  0  0  0  0
 26 30  1  0  0  0  0
 27 26  2  0  0  0  0
 28 31  2  0  0  0  0
 29 32  2  0  0  0  0
 29 27  1  0  0  0  0
 30 31  1  0  0  0  0
 32 28  1  0  0  0  0
M  END
>  <MODEL>
7

>  <REMARK>
 VINA RESULT:      -5.4      2.081      2.904
  Name = 
  4 active torsions:
  status: ('A' for Active; 'I' for Inactive)
    1  A    between atoms: C_1  and  C_21
    2  A    between atoms: C_2  and  C_19
    3  A    between atoms: N_14  and  C_18
    4  A    between atoms: C_18  and  C_23
                            x       y       z     vdW  Elec       q    Type
                         _______ _______ _______ _____ _____    ______ ____

>  <TORSDO>
F 4

$$$$
=
 OpenBabel10232408163D

 32 35  0  0  1  0  0  0  0  0999 V2000
  182.6260  177.9620  136.2680 C   0  0  1  0  0  3  0  0  0  0  0  0
  180.9900  179.6250  135.7290 O   0  0  0  0  0  0  0  0  0  0  0  0
  181.9740  175.6840  135.3810 C   0  0  0  0  0  0  0  0  0  0  0  0
  182.9900  176.5970  135.7250 C   0  0  0  0  0  0  0  0  0  0  0  0
  180.3300  177.4500  135.3750 O   0  0  0  0  0  0  0  0  0  0  0  0
  180.5340  176.0520  135.5820 C   0  0  0  0  0  2  0  0  0  0  0  0
  184.6250  174.9230  135.0910 C   0  0  0  0  0  3  0  0  0  0  0  0
  181.2720  178.3990  135.7840 C   0  0  0  0  0  0  0  0  0  0  0  0
  184.3340  176.2070  135.5730 C   0  0  0  0  0  0  0  0  0  0  0  0
  182.2930  174.4450  134.9220 N   0  0  0  0  0  0  0  0  0  0  0  0
  183.5840  174.0520  134.7680 C   0  0  0  0  0  3  0  0  0  0  0  0
  185.4510  177.1390  135.9460 C   0  0  2  0  0  3  0  0  0  0  0  0
  186.4730  177.2690  134.8110 C   0  0  0  0  0  2  0  0  0  0  0  0
  187.2290  175.8800  137.2310 C   0  0  0  0  0  0  0  0  0  0  0  0
  188.5970  177.6330  136.0580 C   0  0  0  0  0  3  0  0  0  0  0  0
  190.8570  176.0960  136.7630 N   0  0  0  0  0  0  0  0  0  0  0  0
  187.1130  174.6800  137.6000 O   0  0  0  0  0  0  0  0  0  0  0  0
  186.0390  176.7850  137.3170 C   0  0  0  0  0  2  0  0  0  0  0  0
  188.4930  176.3790  136.7590 N   0  0  0  0  0  0  0  0  0  0  0  0
  189.6870  175.6720  137.1200 C   0  0  0  0  0  3  0  0  0  0  0  0
  187.6750  178.0750  135.1970 C   0  0  0  0  0  3  0  0  0  0  0  0
  192.0610  175.3730  137.1380 C   0  0  0  0  0  2  0  0  0  0  0  0
  193.1420  176.9140  138.6010 O   0  0  0  0  0  0  0  0  0  0  0  0
  194.2330  176.5360  136.5850 N   0  0  0  0  0  1  0  0  0  0  0  0
  193.1550  176.3250  137.4900 C   0  0  0  0  0  0  0  0  0  0  0  0
  183.7410  179.5380  139.4840 C   0  0  0  0  0  3  0  0  0  0  0  0
  183.0920  179.3430  138.3380 C   0  0  0  0  0  3  0  0  0  0  0  0
  182.3820  176.8530  139.9740 C   0  0  0  0  0  3  0  0  0  0  0  0
  182.7380  178.0260  137.7650 C   0  0  0  0  0  0  0  0  0  0  0  0
  184.2790  178.4220  140.3160 C   0  0  0  0  0  2  0  0  0  0  0  0
  183.1880  177.5250  140.7960 C   0  0  0  0  0  3  0  0  0  0  0  0
  182.3850  176.9570  138.5020 C   0  0  0  0  0  3  0  0  0  0  0  0
  1 29  1  1  0  0  0
  2  8  2  0  0  0  0
  3  6  1  0  0  0  0
  3  4  1  0  0  0  0
  4  1  1  0  0  0  0
  5  6  1  0  0  0  0
  5  8  1  0  0  0  0
  7  9  1  0  0  0  0
  8  1  1  0  0  0  0
  9  4  2  0  0  0  0
 10  3  2  0  0  0  0
 11 10  1  0  0  0  0
 11  7  2  0  0  0  0
 12  9  1  6  0  0  0
 12 18  1  0  0  0  0
 13 21  1  0  0  0  0
 13 12  1  0  0  0  0
 14 18  1  0  0  0  0
 14 17  2  0  0  0  0
 15 19  1  0  0  0  0
 16 20  2  0  0  0  0
 16 22  1  0  0  0  0
 19 20  1  0  0  0  0
 19 14  1  0  0  0  0
 21 15  2  0  0  0  0
 22 25  1  0  0  0  0
 24 25  1  0  0  0  0
 25 23  2  0  0  0  0
 26 30  1  0  0  0  0
 27 26  2  0  0  0  0
 28 31  2  0  0  0  0
 29 27  1  0  0  0  0
 29 32  2  0  0  0  0
 30 31  1  0  0  0  0
 32 28  1  0  0  0  0
M  END
>  <MODEL>
8

>  <REMARK>
 VINA RESULT:      -5.4      1.789      2.712
  Name = 
  4 active torsions:
  status: ('A' for Active; 'I' for Inactive)
    1  A    between atoms: C_1  and  C_21
    2  A    between atoms: C_2  and  C_19
    3  A    between atoms: N_14  and  C_18
    4  A    between atoms: C_18  and  C_23
                            x       y       z     vdW  Elec       q    Type
                         _______ _______ _______ _____ _____    ______ ____

>  <TORSDO>
F 4

$$$$
=
 OpenBabel10232408163D

 32 35  0  0  1  0  0  0  0  0999 V2000
  187.9230  177.1600  135.5420 C   0  0  1  0  0  3  0  0  0  0  0  0
  186.5440  178.7160  134.3550 O   0  0  0  0  0  0  0  0  0  0  0  0
  186.9980  174.8090  135.4250 C   0  0  0  0  0  0  0  0  0  0  0  0
  188.1170  175.6600  135.5190 C   0  0  0  0  0  0  0  0  0  0  0  0
  185.6090  176.6440  134.7030 O   0  0  0  0  0  0  0  0  0  0  0  0
  185.6160  175.3880  135.3820 C   0  0  0  0  0  2  0  0  0  0  0  0
  189.5300  173.6930  135.6080 C   0  0  0  0  0  3  0  0  0  0  0  0
  186.6570  177.5590  134.8390 C   0  0  0  0  0  0  0  0  0  0  0  0
  189.4000  175.0880  135.6070 C   0  0  0  0  0  0  0  0  0  0  0  0
  187.1620  173.4590  135.4350 N   0  0  0  0  0  0  0  0  0  0  0  0
  188.3930  172.8910  135.5190 C   0  0  0  0  0  3  0  0  0  0  0  0
  190.6200  175.9550  135.7290 C   0  0  2  0  0  3  0  0  0  0  0  0
  191.5780  175.7400  134.5510 C   0  0  0  0  0  2  0  0  0  0  0  0
  192.3480  174.8110  137.1790 C   0  0  0  0  0  0  0  0  0  0  0  0
  193.8000  176.1300  135.6060 C   0  0  0  0  0  3  0  0  0  0  0  0
  195.9450  174.5450  136.5290 N   0  0  0  0  0  0  0  0  0  0  0  0
  192.1430  173.7320  137.7980 O   0  0  0  0  0  0  0  0  0  0  0  0
  191.2560  175.8330  137.1190 C   0  0  0  0  0  2  0  0  0  0  0  0
  193.6230  175.0660  136.5610 N   0  0  0  0  0  0  0  0  0  0  0  0
  194.7650  174.3290  137.0150 C   0  0  0  0  0  3  0  0  0  0  0  0
  192.8720  176.4780  134.7090 C   0  0  0  0  0  3  0  0  0  0  0  0
  197.0970  173.7940  137.0000 C   0  0  0  0  0  2  0  0  0  0  0  0
  199.1230  174.6510  137.9190 O   0  0  0  0  0  0  0  0  0  0  0  0
  198.6250  175.3860  135.7730 N   0  0  0  0  0  1  0  0  0  0  0  0
  198.3280  174.6340  136.9440 C   0  0  0  0  0  0  0  0  0  0  0  0
  189.7320  178.6780  138.4580 C   0  0  0  0  0  3  0  0  0  0  0  0
  189.1890  178.5350  137.2500 C   0  0  0  0  0  3  0  0  0  0  0  0
  186.8150  178.1020  139.1360 C   0  0  0  0  0  3  0  0  0  0  0  0
  187.9960  177.7200  136.9350 C   0  0  0  0  0  0  0  0  0  0  0  0
  189.2400  177.9480  139.6620 C   0  0  0  0  0  2  0  0  0  0  0  0
  187.8270  178.3080  139.9790 C   0  0  0  0  0  3  0  0  0  0  0  0
  186.9430  177.5800  137.7610 C   0  0  0  0  0  3  0  0  0  0  0  0
  1 29  1  1  0  0  0
  2  8  2  0  0  0  0
  3 10  2  0  0  0  0
  3  4  1  0  0  0  0
  4  1  1  0  0  0  0
  4  9  2  0  0  0  0
  5  8  1  0  0  0  0
  5  6  1  0  0  0  0
  6  3  1  0  0  0  0
  8  1  1  0  0  0  0
  9  7  1  0  0  0  0
 10 11  1  0  0  0  0
 11  7  2  0  0  0  0
 12  9  1  1  0  0  0
 12 18  1  0  0  0  0
 13 21  1  0  0  0  0
 13 12  1  0  0  0  0
 14 17  2  0  0  0  0
 15 19  1  0  0  0  0
 16 22  1  0  0  0  0
 16 20  2  0  0  0  0
 18 14  1  0  0  0  0
 19 20  1  0  0  0  0
 19 14  1  0  0  0  0
 21 15  2  0  0  0  0
 24 25  1  0  0  0  0
 25 22  1  0  0  0  0
 25 23  2  0  0  0  0
 26 30  1  0  0  0  0
 27 26  2  0  0  0  0
 28 31  2  0  0  0  0
 29 27  1  0  0  0  0
 29 32  2  0  0  0  0
 30 31  1  0  0  0  0
 32 28  1  0  0  0  0
M  END
>  <MODEL>
9

>  <REMARK>
 VINA RESULT:      -5.1      3.416      5.214
  Name = 
  4 active torsions:
  status: ('A' for Active; 'I' for Inactive)
    1  A    between atoms: C_1  and  C_21
    2  A    between atoms: C_2  and  C_19
    3  A    between atoms: N_14  and  C_18
    4  A    between atoms: C_18  and  C_23
                            x       y       z     vdW  Elec       q    Type
                         _______ _______ _______ _____ _____    ______ ____

>  <TORSDO>
F 4

$$$$
