=
 OpenBabel10232410543D

 49 56  0  0  1  0  0  0  0  0999 V2000
  189.3940  178.3480  138.0120 C   0  0  0  0  0  2  0  0  0  0  0  0
  190.3680  177.4850  138.7990 C   0  0  2  0  0  3  0  0  0  0  0  0
  188.6600  177.1030  137.5370 C   0  0  2  0  0  3  0  0  0  0  0  0
  189.6250  176.2330  138.3560 C   0  0  1  0  0  3  0  0  0  0  0  0
  186.6390  170.7210  135.1510 C   0  0  0  0  0  0  0  0  0  0  0  0
  184.4870  169.6520  135.0520 C   0  0  0  0  0  3  0  0  0  0  0  0
  190.0680  173.8360  137.3530 C   0  0  0  0  0  2  0  0  0  0  0  0
  190.4840  175.2730  137.5650 C   0  0  0  0  0  0  0  0  0  0  0  0
  187.9510  170.8810  134.8380 N   0  0  0  0  0  0  0  0  0  0  0  0
  191.6480  173.8520  135.5170 N   0  0  0  0  0  0  0  0  0  0  0  0
  189.8240  172.3840  135.2520 N   0  0  0  0  0  2  0  0  0  0  0  0
  191.5770  175.7040  137.0300 N   0  0  0  0  0  0  0  0  0  0  0  0
  185.8350  169.6940  134.6590 C   0  0  0  0  0  3  0  0  0  0  0  0
  187.3140  172.7740  136.4130 S   0  0  0  0  0  0  0  0  0  0  0  0
  192.4440  174.8210  136.2740 C   0  0  0  0  0  2  0  0  0  0  0  0
  190.5400  173.3730  136.0010 C   0  0  0  0  0  0  0  0  0  0  0  0
  186.1150  171.6750  136.0100 C   0  0  0  0  0  0  0  0  0  0  0  0
  184.7830  171.6580  136.4120 C   0  0  0  0  0  3  0  0  0  0  0  0
  188.4700  171.9620  135.4670 C   0  0  0  0  0  0  0  0  0  0  0  0
  183.9650  170.6270  135.9230 C   0  0  0  0  0  3  0  0  0  0  0  0
  188.7420  176.9420  136.0420 C   0  0  0  0  0  0  0  0  0  0  0  0
  189.5770  177.6120  135.3750 O   0  0  0  0  0  0  0  0  0  0  0  0
  184.5140  175.0210  134.8650 C   0  0  0  0  0  3  0  0  0  0  0  0
  185.8930  177.8000  134.8380 S   0  0  0  0  0  0  0  0  0  0  0  0
  183.9440  175.9970  135.5970 C   0  0  0  0  0  3  0  0  0  0  0  0
  185.9330  175.0410  134.3460 C   0  0  0  0  0  2  0  0  0  0  0  0
  184.6650  177.2340  136.0680 C   0  0  1  0  0  3  0  0  0  0  0  0
  187.8730  175.9890  135.4130 N   0  0  0  0  0  0  0  0  0  0  0  0
  186.7080  176.1990  134.8720 C   0  0  0  0  0  0  0  0  0  0  0  0
  185.2880  176.9830  137.2940 O   0  0  0  0  0  0  0  0  0  0  0  0
  185.4450  178.2390  137.8840 C   0  0  0  0  0  2  0  0  0  0  0  0
  184.8640  179.2880  139.9310 F   0  0  0  0  0  0  0  0  0  0  0  0
  184.3870  178.4380  138.9510 C   0  0  0  0  0  2  0  0  0  0  0  0
  190.1800  177.7000  140.2890 C   0  0  0  0  0  2  0  0  0  0  0  0
  188.9690  176.5230  141.9050 C   0  0  0  0  0  2  0  0  0  0  0  0
  188.1230  178.5080  141.0510 C   0  0  0  0  0  2  0  0  0  0  0  0
  188.8410  177.2980  140.6800 N   0  0  0  0  0  0  0  0  0  0  0  0
  187.2240  178.1650  142.2170 C   0  0  0  0  0  2  0  0  0  0  0  0
  187.8510  176.9400  142.8420 C   0  0  2  0  0  3  0  0  0  0  0  0
  186.2720  177.3360  145.0630 O   0  0  0  0  0  0  0  0  0  0  0  0
  189.4160  177.7530  146.6380 C   0  0  0  0  0  0  0  0  0  0  0  0
  189.7130  177.3130  144.3500 N   0  0  0  0  0  0  0  0  0  0  0  0
  187.3420  177.8820  147.6760 C   0  0  0  0  0  3  0  0  0  0  0  0
  188.0520  177.6770  146.4890 C   0  0  0  0  0  0  0  0  0  0  0  0
  189.7860  178.0730  148.2350 S   0  0  0  0  0  0  0  0  0  0  0  0
  188.1790  178.1220  148.7710 C   0  0  0  0  0  3  0  0  0  0  0  0
  187.5190  177.4130  145.2270 C   0  0  0  0  0  0  0  0  0  0  0  0
  188.3820  177.2380  144.1730 N   0  0  0  0  0  0  0  0  0  0  0  0
  190.2710  177.5690  145.5660 C   0  0  0  0  0  3  0  0  0  0  0  0
  1  2  1  0  0  0  0
  2 34  1  1  0  0  0
  3 21  1  6  0  0  0
  3  1  1  0  0  0  0
  3  4  1  0  0  0  0
  4  8  1  6  0  0  0
  4  2  1  0  0  0  0
  5 17  1  0  0  0  0
  6 20  2  0  0  0  0
  7  8  1  0  0  0  0
  9  5  1  0  0  0  0
  9 19  2  0  0  0  0
 10 16  2  0  0  0  0
 10 15  1  0  0  0  0
 11 19  1  0  0  0  0
 11 16  1  0  0  0  0
 12  8  2  0  0  0  0
 13  6  1  0  0  0  0
 13  5  2  0  0  0  0
 15 12  1  0  0  0  0
 16  7  1  0  0  0  0
 17 18  2  0  0  0  0
 17 14  1  0  0  0  0
 19 14  1  0  0  0  0
 20 18  1  0  0  0  0
 22 21  2  0  0  0  0
 23 25  2  0  0  0  0
 24 29  1  0  0  0  0
 24 27  1  0  0  0  0
 25 27  1  0  0  0  0
 26 23  1  0  0  0  0
 26 29  1  0  0  0  0
 27 30  1  1  0  0  0
 28 21  1  0  0  0  0
 29 28  2  0  0  0  0
 30 31  1  0  0  0  0
 31 33  1  0  0  0  0
 33 32  1  0  0  0  0
 34 37  1  0  0  0  0
 36 38  1  0  0  0  0
 37 36  1  0  0  0  0
 37 35  1  0  0  0  0
 38 39  1  0  0  0  0
 39 35  1  6  0  0  0
 39 48  1  0  0  0  0
 40 47  2  0  0  0  0
 41 45  1  0  0  0  0
 42 49  2  0  0  0  0
 43 46  2  0  0  0  0
 44 41  2  0  0  0  0
 44 43  1  0  0  0  0
 45 46  1  0  0  0  0
 47 44  1  0  0  0  0
 48 42  1  0  0  0  0
 48 47  1  0  0  0  0
 49 41  1  0  0  0  0
M  END
>  <MODEL>
1

>  <REMARK>
 VINA RESULT:      -8.0      0.000      0.000
  Name = 
  9 active torsions:
  status: ('A' for Active; 'I' for Inactive)
    1  A    between atoms: C_7  and  C_32
    2  A    between atoms: C_7  and  N_42
    3  A    between atoms: C_12  and  C_47
    4  A    between atoms: C_15  and  C_24
    5  A    between atoms: C_15  and  O_48
    6  A    between atoms: C_21  and  C_43
    7  A    between atoms: N_30  and  C_43
    8  A    between atoms: N_33  and  C_38
    9  A    between atoms: C_35  and  O_48
                            x       y       z     vdW  Elec       q    Type
                         _______ _______ _______ _____ _____    ______ ____

>  <TORSDO>
F 9

$$$$
=
 OpenBabel10232410543D

 49 56  0  0  1  0  0  0  0  0999 V2000
  190.9460  176.1460  139.8480 C   0  0  0  0  0  2  0  0  0  0  0  0
  189.8780  177.1470  140.2620 C   0  0  2  0  0  3  0  0  0  0  0  0
  191.1480  176.8890  138.5360 C   0  0  2  0  0  3  0  0  0  0  0  0
  190.0930  177.9170  138.9660 C   0  0  1  0  0  3  0  0  0  0  0  0
  183.7970  178.8360  141.9800 C   0  0  0  0  0  0  0  0  0  0  0  0
  182.8570  178.8850  144.1940 C   0  0  0  0  0  3  0  0  0  0  0  0
  187.4940  177.6180  138.6410 C   0  0  0  0  0  2  0  0  0  0  0  0
  188.8540  177.9950  138.1020 C   0  0  0  0  0  0  0  0  0  0  0  0
  183.7610  178.9090  140.6250 N   0  0  0  0  0  0  0  0  0  0  0  0
  186.6160  178.8930  136.7780 N   0  0  0  0  0  0  0  0  0  0  0  0
  185.2380  178.8390  138.6880 N   0  0  0  0  0  2  0  0  0  0  0  0
  188.9610  178.4270  136.8900 N   0  0  0  0  0  0  0  0  0  0  0  0
  182.6790  178.9670  142.8030 C   0  0  0  0  0  3  0  0  0  0  0  0
  186.1840  178.5250  141.2970 S   0  0  0  0  0  0  0  0  0  0  0  0
  187.8060  178.5070  136.0150 C   0  0  0  0  0  2  0  0  0  0  0  0
  186.4440  178.4860  138.0000 C   0  0  0  0  0  0  0  0  0  0  0  0
  185.0530  178.6280  142.5300 C   0  0  0  0  0  0  0  0  0  0  0  0
  185.2570  178.5460  143.9030 C   0  0  0  0  0  3  0  0  0  0  0  0
  184.9980  178.7420  140.0990 C   0  0  0  0  0  0  0  0  0  0  0  0
  184.1380  178.6760  144.7400 C   0  0  0  0  0  3  0  0  0  0  0  0
  190.7860  176.0350  137.3490 C   0  0  0  0  0  0  0  0  0  0  0  0
  189.8440  175.2010  137.4300 O   0  0  0  0  0  0  0  0  0  0  0  0
  194.6080  175.7450  134.4750 C   0  0  0  0  0  3  0  0  0  0  0  0
  192.9530  173.8950  136.3360 S   0  0  0  0  0  0  0  0  0  0  0  0
  195.2560  175.1740  135.5080 C   0  0  0  0  0  3  0  0  0  0  0  0
  193.1070  175.8720  134.3550 C   0  0  0  0  0  2  0  0  0  0  0  0
  194.5760  174.6320  136.7390 C   0  0  1  0  0  3  0  0  0  0  0  0
  191.5170  176.2250  136.1290 N   0  0  0  0  0  0  0  0  0  0  0  0
  192.4050  175.4380  135.5940 C   0  0  0  0  0  0  0  0  0  0  0  0
  194.4240  175.6490  137.6850 O   0  0  0  0  0  0  0  0  0  0  0  0
  194.6940  175.0450  138.9140 C   0  0  0  0  0  2  0  0  0  0  0  0
  196.9880  174.6260  139.3520 F   0  0  0  0  0  0  0  0  0  0  0  0
  195.8590  174.0850  138.7680 C   0  0  0  0  0  2  0  0  0  0  0  0
  190.3570  177.9730  141.4410 C   0  0  0  0  0  2  0  0  0  0  0  0
  191.5960  177.9440  143.4230 C   0  0  0  0  0  2  0  0  0  0  0  0
  190.8560  175.9480  142.4980 C   0  0  0  0  0  2  0  0  0  0  0  0
  191.3970  177.2550  142.1570 N   0  0  0  0  0  0  0  0  0  0  0  0
  191.3900  175.5770  143.8630 C   0  0  0  0  0  2  0  0  0  0  0  0
  191.7580  176.8940  144.5070 C   0  0  2  0  0  3  0  0  0  0  0  0
  189.0850  177.5060  144.2560 O   0  0  0  0  0  0  0  0  0  0  0  0
  189.2860  177.7010  147.7870 C   0  0  0  0  0  0  0  0  0  0  0  0
  191.3870  177.1560  146.8890 N   0  0  0  0  0  0  0  0  0  0  0  0
  187.3780  178.0490  146.5080 C   0  0  0  0  0  3  0  0  0  0  0  0
  188.7420  177.7400  146.5250 C   0  0  0  0  0  0  0  0  0  0  0  0
  188.1030  178.0440  148.9150 S   0  0  0  0  0  0  0  0  0  0  0  0
  186.8540  178.2530  147.7880 C   0  0  0  0  0  3  0  0  0  0  0  0
  189.5590  177.4790  145.4240 C   0  0  0  0  0  0  0  0  0  0  0  0
  190.8830  177.1910  145.6420 N   0  0  0  0  0  0  0  0  0  0  0  0
  190.6220  177.4050  147.9880 C   0  0  0  0  0  3  0  0  0  0  0  0
  1  2  1  0  0  0  0
  2 34  1  1  0  0  0
  3 21  1  6  0  0  0
  3  4  1  0  0  0  0
  3  1  1  0  0  0  0
  4  8  1  6  0  0  0
  4  2  1  0  0  0  0
  5 17  2  0  0  0  0
  5 13  1  0  0  0  0
  6 20  1  0  0  0  0
  8  7  1  0  0  0  0
  9  5  1  0  0  0  0
 10 16  2  0  0  0  0
 11 19  1  0  0  0  0
 12  8  2  0  0  0  0
 13  6  2  0  0  0  0
 14 17  1  0  0  0  0
 15 10  1  0  0  0  0
 15 12  1  0  0  0  0
 16  7  1  0  0  0  0
 16 11  1  0  0  0  0
 17 18  1  0  0  0  0
 18 20  2  0  0  0  0
 19  9  2  0  0  0  0
 19 14  1  0  0  0  0
 21 22  2  0  0  0  0
 23 25  2  0  0  0  0
 24 27  1  0  0  0  0
 25 27  1  0  0  0  0
 26 23  1  0  0  0  0
 26 29  1  0  0  0  0
 27 30  1  1  0  0  0
 28 21  1  0  0  0  0
 29 28  2  0  0  0  0
 29 24  1  0  0  0  0
 30 31  1  0  0  0  0
 33 31  1  0  0  0  0
 33 32  1  0  0  0  0
 34 37  1  0  0  0  0
 36 38  1  0  0  0  0
 37 36  1  0  0  0  0
 37 35  1  0  0  0  0
 38 39  1  0  0  0  0
 39 35  1  6  0  0  0
 39 48  1  0  0  0  0
 40 47  2  0  0  0  0
 41 49  1  0  0  0  0
 41 45  1  0  0  0  0
 42 49  2  0  0  0  0
 43 44  1  0  0  0  0
 43 46  2  0  0  0  0
 44 41  2  0  0  0  0
 46 45  1  0  0  0  0
 47 48  1  0  0  0  0
 47 44  1  0  0  0  0
 48 42  1  0  0  0  0
M  END
>  <MODEL>
2

>  <REMARK>
 VINA RESULT:      -7.9      4.318      7.108
  Name = 
  9 active torsions:
  status: ('A' for Active; 'I' for Inactive)
    1  A    between atoms: C_7  and  C_32
    2  A    between atoms: C_7  and  N_42
    3  A    between atoms: C_12  and  C_47
    4  A    between atoms: C_15  and  C_24
    5  A    between atoms: C_15  and  O_48
    6  A    between atoms: C_21  and  C_43
    7  A    between atoms: N_30  and  C_43
    8  A    between atoms: N_33  and  C_38
    9  A    between atoms: C_35  and  O_48
                            x       y       z     vdW  Elec       q    Type
                         _______ _______ _______ _____ _____    ______ ____

>  <TORSDO>
F 9

$$$$
=
 OpenBabel10232410543D

 49 56  0  0  1  0  0  0  0  0999 V2000
  192.3580  176.1770  139.5970 C   0  0  0  0  0  2  0  0  0  0  0  0
  190.9150  176.4780  139.2210 C   0  0  2  0  0  3  0  0  0  0  0  0
  192.8210  176.6170  138.2170 C   0  0  2  0  0  3  0  0  0  0  0  0
  191.3680  176.9500  137.8460 C   0  0  1  0  0  3  0  0  0  0  0  0
  184.4270  177.1570  136.6890 C   0  0  0  0  0  0  0  0  0  0  0  0
  182.4560  178.0420  137.7480 C   0  0  0  0  0  3  0  0  0  0  0  0
  189.3390  175.6810  136.7420 C   0  0  0  0  0  2  0  0  0  0  0  0
  190.7750  176.1470  136.7100 C   0  0  0  0  0  0  0  0  0  0  0  0
  185.1140  176.4930  135.7250 N   0  0  0  0  0  0  0  0  0  0  0  0
  189.5740  175.4140  134.3460 N   0  0  0  0  0  0  0  0  0  0  0  0
  187.3940  175.9150  135.0860 N   0  0  0  0  0  2  0  0  0  0  0  0
  191.5050  175.8870  135.6780 N   0  0  0  0  0  0  0  0  0  0  0  0
  183.0420  177.3190  136.6950 C   0  0  0  0  0  3  0  0  0  0  0  0
  186.8150  177.3490  137.4110 S   0  0  0  0  0  0  0  0  0  0  0  0
  190.9900  175.1080  134.5680 C   0  0  0  0  0  2  0  0  0  0  0  0
  188.7830  175.6780  135.3430 C   0  0  0  0  0  0  0  0  0  0  0  0
  185.2020  177.6980  137.7030 C   0  0  0  0  0  0  0  0  0  0  0  0
  184.6480  178.4210  138.7550 C   0  0  0  0  0  3  0  0  0  0  0  0
  186.4430  176.4970  135.9870 C   0  0  0  0  0  0  0  0  0  0  0  0
  183.2550  178.5890  138.7700 C   0  0  0  0  0  3  0  0  0  0  0  0
  193.4490  175.4830  137.4500 C   0  0  0  0  0  0  0  0  0  0  0  0
  193.0770  174.2950  137.6530 O   0  0  0  0  0  0  0  0  0  0  0  0
  197.8350  175.3990  135.5230 C   0  0  0  0  0  3  0  0  0  0  0  0
  195.7620  173.3980  136.6750 S   0  0  0  0  0  0  0  0  0  0  0  0
  198.2130  174.6660  136.5870 C   0  0  0  0  0  3  0  0  0  0  0  0
  196.4060  175.6100  135.0790 C   0  0  0  0  0  2  0  0  0  0  0  0
  197.2560  173.9970  137.5400 C   0  0  1  0  0  3  0  0  0  0  0  0
  194.4490  175.7990  136.4700 N   0  0  0  0  0  0  0  0  0  0  0  0
  195.4270  175.0490  136.0500 C   0  0  0  0  0  0  0  0  0  0  0  0
  196.9010  174.8860  138.5590 O   0  0  0  0  0  0  0  0  0  0  0  0
  198.0590  175.0430  139.3220 C   0  0  0  0  0  2  0  0  0  0  0  0
  196.3120  175.4140  140.8840 F   0  0  0  0  0  0  0  0  0  0  0  0
  197.6870  175.3920  140.7500 C   0  0  0  0  0  2  0  0  0  0  0  0
  190.3920  177.6520  140.0260 C   0  0  0  0  0  2  0  0  0  0  0  0
  188.9840  176.6100  141.5750 C   0  0  0  0  0  2  0  0  0  0  0  0
  188.4470  178.7180  140.7660 C   0  0  0  0  0  2  0  0  0  0  0  0
  188.9990  177.4310  140.3730 N   0  0  0  0  0  0  0  0  0  0  0  0
  187.4780  178.4710  141.8990 C   0  0  0  0  0  2  0  0  0  0  0  0
  187.9100  177.1520  142.4990 C   0  0  2  0  0  3  0  0  0  0  0  0
  186.3290  177.4630  144.7320 O   0  0  0  0  0  0  0  0  0  0  0  0
  189.4730  177.6320  146.3520 C   0  0  0  0  0  0  0  0  0  0  0  0
  189.7730  177.3380  144.0410 N   0  0  0  0  0  0  0  0  0  0  0  0
  187.3980  177.7800  147.3830 C   0  0  0  0  0  3  0  0  0  0  0  0
  188.1080  177.6260  146.1890 C   0  0  0  0  0  0  0  0  0  0  0  0
  189.8420  177.8250  147.9700 S   0  0  0  0  0  0  0  0  0  0  0  0
  188.2330  177.9070  148.4980 C   0  0  0  0  0  3  0  0  0  0  0  0
  187.5770  177.4740  144.9080 C   0  0  0  0  0  0  0  0  0  0  0  0
  188.4410  177.3340  143.8510 N   0  0  0  0  0  0  0  0  0  0  0  0
  190.3300  177.4860  145.2750 C   0  0  0  0  0  3  0  0  0  0  0  0
  2  1  1  0  0  0  0
  2 34  1  1  0  0  0
  3 21  1  6  0  0  0
  3  1  1  0  0  0  0
  4  8  1  6  0  0  0
  4  3  1  0  0  0  0
  4  2  1  0  0  0  0
  5 13  2  0  0  0  0
  5 17  1  0  0  0  0
  6 20  2  0  0  0  0
  8  7  1  0  0  0  0
  9 19  2  0  0  0  0
  9  5  1  0  0  0  0
 10 15  1  0  0  0  0
 10 16  2  0  0  0  0
 11 16  1  0  0  0  0
 11 19  1  0  0  0  0
 12  8  2  0  0  0  0
 13  6  1  0  0  0  0
 14 17  1  0  0  0  0
 15 12  1  0  0  0  0
 16  7  1  0  0  0  0
 17 18  2  0  0  0  0
 18 20  1  0  0  0  0
 19 14  1  0  0  0  0
 21 22  2  0  0  0  0
 23 25  2  0  0  0  0
 24 27  1  0  0  0  0
 25 27  1  0  0  0  0
 26 23  1  0  0  0  0
 26 29  1  0  0  0  0
 27 30  1  1  0  0  0
 28 21  1  0  0  0  0
 29 28  2  0  0  0  0
 29 24  1  0  0  0  0
 30 31  1  0  0  0  0
 31 33  1  0  0  0  0
 33 32  1  0  0  0  0
 34 37  1  0  0  0  0
 36 38  1  0  0  0  0
 37 36  1  0  0  0  0
 37 35  1  0  0  0  0
 38 39  1  0  0  0  0
 39 35  1  6  0  0  0
 39 48  1  0  0  0  0
 40 47  2  0  0  0  0
 41 45  1  0  0  0  0
 42 49  2  0  0  0  0
 43 46  2  0  0  0  0
 44 41  2  0  0  0  0
 44 43  1  0  0  0  0
 45 46  1  0  0  0  0
 47 44  1  0  0  0  0
 48 42  1  0  0  0  0
 48 47  1  0  0  0  0
 49 41  1  0  0  0  0
M  END
>  <MODEL>
3

>  <REMARK>
 VINA RESULT:      -7.5      3.495      6.630
  Name = 
  9 active torsions:
  status: ('A' for Active; 'I' for Inactive)
    1  A    between atoms: C_7  and  C_32
    2  A    between atoms: C_7  and  N_42
    3  A    between atoms: C_12  and  C_47
    4  A    between atoms: C_15  and  C_24
    5  A    between atoms: C_15  and  O_48
    6  A    between atoms: C_21  and  C_43
    7  A    between atoms: N_30  and  C_43
    8  A    between atoms: N_33  and  C_38
    9  A    between atoms: C_35  and  O_48
                            x       y       z     vdW  Elec       q    Type
                         _______ _______ _______ _____ _____    ______ ____

>  <TORSDO>
F 9

$$$$
=
 OpenBabel10232410543D

 49 56  0  0  1  0  0  0  0  0999 V2000
  190.0050  176.8950  140.4600 C   0  0  0  0  0  2  0  0  0  0  0  0
  188.7130  177.4840  139.9140 C   0  0  2  0  0  3  0  0  0  0  0  0
  190.7750  177.4620  139.2780 C   0  0  2  0  0  3  0  0  0  0  0  0
  189.4780  178.0830  138.7420 C   0  0  1  0  0  3  0  0  0  0  0  0
  182.5910  177.2360  137.5480 C   0  0  0  0  0  0  0  0  0  0  0  0
  180.5300  177.3260  138.7870 C   0  0  0  0  0  3  0  0  0  0  0  0
  187.6960  176.8430  137.2460 C   0  0  0  0  0  2  0  0  0  0  0  0
  189.0080  177.5760  137.3970 C   0  0  0  0  0  0  0  0  0  0  0  0
  183.3550  177.0630  136.4400 N   0  0  0  0  0  0  0  0  0  0  0  0
  187.8780  177.3970  134.8950 N   0  0  0  0  0  0  0  0  0  0  0  0
  185.6750  177.1870  135.7040 N   0  0  0  0  0  2  0  0  0  0  0  0
  189.7310  177.8070  136.3520 N   0  0  0  0  0  0  0  0  0  0  0  0
  181.2030  177.1050  137.5730 C   0  0  0  0  0  3  0  0  0  0  0  0
  184.9220  177.6700  138.3500 S   0  0  0  0  0  0  0  0  0  0  0  0
  189.3340  177.3290  135.0410 C   0  0  0  0  0  2  0  0  0  0  0  0
  187.0930  177.1680  135.9060 C   0  0  0  0  0  0  0  0  0  0  0  0
  183.2850  177.5760  138.7000 C   0  0  0  0  0  0  0  0  0  0  0  0
  182.6430  177.8040  139.9130 C   0  0  0  0  0  3  0  0  0  0  0  0
  184.6660  177.2520  136.7210 C   0  0  0  0  0  0  0  0  0  0  0  0
  181.2460  177.6740  139.9480 C   0  0  0  0  0  3  0  0  0  0  0  0
  191.3800  176.3740  138.4310 C   0  0  0  0  0  0  0  0  0  0  0  0
  190.9110  175.2040  138.4700 O   0  0  0  0  0  0  0  0  0  0  0  0
  195.2280  175.4840  135.7200 C   0  0  0  0  0  3  0  0  0  0  0  0
  192.3380  174.4130  136.0780 S   0  0  0  0  0  0  0  0  0  0  0  0
  195.0900  174.1910  136.0690 C   0  0  0  0  0  3  0  0  0  0  0  0
  194.1520  176.5370  135.8490 C   0  0  0  0  0  2  0  0  0  0  0  0
  193.8540  173.6130  136.7110 C   0  0  1  0  0  3  0  0  0  0  0  0
  192.4710  176.7160  137.5650 N   0  0  0  0  0  0  0  0  0  0  0  0
  192.9520  176.0290  136.5680 C   0  0  0  0  0  0  0  0  0  0  0  0
  193.9300  173.7510  138.0990 O   0  0  0  0  0  0  0  0  0  0  0  0
  195.1840  173.2430  138.4450 C   0  0  0  0  0  2  0  0  0  0  0  0
  195.1170  175.2980  139.6290 F   0  0  0  0  0  0  0  0  0  0  0  0
  195.9660  174.2910  139.2130 C   0  0  0  0  0  2  0  0  0  0  0  0
  188.2090  178.5880  140.8230 C   0  0  0  0  0  2  0  0  0  0  0  0
  186.9300  177.3710  142.3560 C   0  0  0  0  0  2  0  0  0  0  0  0
  186.3010  179.5320  141.7910 C   0  0  0  0  0  2  0  0  0  0  0  0
  186.8470  178.3020  141.2400 N   0  0  0  0  0  0  0  0  0  0  0  0
  185.4170  179.1550  142.9580 C   0  0  0  0  0  2  0  0  0  0  0  0
  185.9130  177.7970  143.3970 C   0  0  2  0  0  3  0  0  0  0  0  0
  188.4880  176.9730  143.9220 O   0  0  0  0  0  0  0  0  0  0  0  0
  187.6560  178.0380  147.1950 C   0  0  0  0  0  0  0  0  0  0  0  0
  185.8300  178.3630  145.7540 N   0  0  0  0  0  0  0  0  0  0  0  0
  189.6950  177.1480  146.5260 C   0  0  0  0  0  3  0  0  0  0  0  0
  188.4000  177.5270  146.1580 C   0  0  0  0  0  0  0  0  0  0  0  0
  188.5720  178.0390  148.5920 S   0  0  0  0  0  0  0  0  0  0  0  0
  189.9590  177.3730  147.8810 C   0  0  0  0  0  3  0  0  0  0  0  0
  187.8260  177.4360  144.8900 C   0  0  0  0  0  0  0  0  0  0  0  0
  186.5330  177.8620  144.7220 N   0  0  0  0  0  0  0  0  0  0  0  0
  186.3540  178.4670  147.0070 C   0  0  0  0  0  3  0  0  0  0  0  0
  2  1  1  0  0  0  0
  2 34  1  1  0  0  0
  3 21  1  6  0  0  0
  3  1  1  0  0  0  0
  4  8  1  6  0  0  0
  4  3  1  0  0  0  0
  4  2  1  0  0  0  0
  5 13  2  0  0  0  0
  5 17  1  0  0  0  0
  6 20  2  0  0  0  0
  7  8  1  0  0  0  0
  9 19  2  0  0  0  0
  9  5  1  0  0  0  0
 10 15  1  0  0  0  0
 10 16  2  0  0  0  0
 11 16  1  0  0  0  0
 11 19  1  0  0  0  0
 12  8  2  0  0  0  0
 13  6  1  0  0  0  0
 14 17  1  0  0  0  0
 15 12  1  0  0  0  0
 16  7  1  0  0  0  0
 17 18  2  0  0  0  0
 18 20  1  0  0  0  0
 19 14  1  0  0  0  0
 21 22  2  0  0  0  0
 23 26  1  0  0  0  0
 23 25  2  0  0  0  0
 24 29  1  0  0  0  0
 24 27  1  0  0  0  0
 25 27  1  0  0  0  0
 26 29  1  0  0  0  0
 27 30  1  1  0  0  0
 28 21  1  0  0  0  0
 29 28  2  0  0  0  0
 30 31  1  0  0  0  0
 31 33  1  0  0  0  0
 33 32  1  0  0  0  0
 34 37  1  0  0  0  0
 36 38  1  0  0  0  0
 37 36  1  0  0  0  0
 37 35  1  0  0  0  0
 38 39  1  0  0  0  0
 39 35  1  6  0  0  0
 39 48  1  0  0  0  0
 40 47  2  0  0  0  0
 41 45  1  0  0  0  0
 42 49  2  0  0  0  0
 43 46  2  0  0  0  0
 44 43  1  0  0  0  0
 44 41  2  0  0  0  0
 46 45  1  0  0  0  0
 47 44  1  0  0  0  0
 48 47  1  0  0  0  0
 48 42  1  0  0  0  0
 49 41  1  0  0  0  0
M  END
>  <MODEL>
4

>  <REMARK>
 VINA RESULT:      -7.4      3.779      6.161
  Name = 
  9 active torsions:
  status: ('A' for Active; 'I' for Inactive)
    1  A    between atoms: C_7  and  C_32
    2  A    between atoms: C_7  and  N_42
    3  A    between atoms: C_12  and  C_47
    4  A    between atoms: C_15  and  C_24
    5  A    between atoms: C_15  and  O_48
    6  A    between atoms: C_21  and  C_43
    7  A    between atoms: N_30  and  C_43
    8  A    between atoms: N_33  and  C_38
    9  A    between atoms: C_35  and  O_48
                            x       y       z     vdW  Elec       q    Type
                         _______ _______ _______ _____ _____    ______ ____

>  <TORSDO>
F 9

$$$$
=
 OpenBabel10232410543D

 49 56  0  0  1  0  0  0  0  0999 V2000
  190.5960  176.1690  139.7120 C   0  0  0  0  0  2  0  0  0  0  0  0
  189.5850  177.1950  140.2000 C   0  0  2  0  0  3  0  0  0  0  0  0
  190.7760  176.9460  138.4170 C   0  0  2  0  0  3  0  0  0  0  0  0
  189.7780  177.9990  138.9220 C   0  0  1  0  0  3  0  0  0  0  0  0
  183.6180  178.8560  142.2200 C   0  0  0  0  0  0  0  0  0  0  0  0
  182.7600  178.7920  144.4670 C   0  0  0  0  0  3  0  0  0  0  0  0
  187.1640  177.7680  138.6780 C   0  0  0  0  0  2  0  0  0  0  0  0
  188.5110  178.1510  138.1110 C   0  0  0  0  0  0  0  0  0  0  0  0
  183.5340  179.0100  140.8740 N   0  0  0  0  0  0  0  0  0  0  0  0
  186.2450  179.1680  136.9270 N   0  0  0  0  0  0  0  0  0  0  0  0
  184.9370  179.0270  138.8820 N   0  0  0  0  0  2  0  0  0  0  0  0
  188.5820  178.6520  136.9240 N   0  0  0  0  0  0  0  0  0  0  0  0
  182.5340  178.9590  143.0900 C   0  0  0  0  0  3  0  0  0  0  0  0
  185.9710  178.5410  141.4300 S   0  0  0  0  0  0  0  0  0  0  0  0
  187.3980  178.8060  136.0990 C   0  0  0  0  0  2  0  0  0  0  0  0
  186.1100  178.6920  138.1290 C   0  0  0  0  0  0  0  0  0  0  0  0
  184.8880  178.5920  142.7080 C   0  0  0  0  0  0  0  0  0  0  0  0
  185.1410  178.4250  144.0660 C   0  0  0  0  0  3  0  0  0  0  0  0
  184.7460  178.8510  140.2920 C   0  0  0  0  0  0  0  0  0  0  0  0
  184.0560  178.5260  144.9510 C   0  0  0  0  0  3  0  0  0  0  0  0
  190.3350  176.1470  137.2200 C   0  0  0  0  0  0  0  0  0  0  0  0
  190.5780  176.5610  136.0540 O   0  0  0  0  0  0  0  0  0  0  0  0
  187.5480  172.4270  136.0580 C   0  0  0  0  0  3  0  0  0  0  0  0
  189.9470  173.9940  134.8700 S   0  0  0  0  0  0  0  0  0  0  0  0
  187.3610  173.0270  134.8670 C   0  0  0  0  0  3  0  0  0  0  0  0
  188.6610  172.7490  137.0270 C   0  0  0  0  0  2  0  0  0  0  0  0
  188.2040  174.1650  134.3500 C   0  0  1  0  0  3  0  0  0  0  0  0
  189.6670  174.8970  137.4470 N   0  0  0  0  0  0  0  0  0  0  0  0
  189.4550  173.9330  136.5980 C   0  0  0  0  0  0  0  0  0  0  0  0
  187.6830  175.3830  134.7950 O   0  0  0  0  0  0  0  0  0  0  0  0
  186.3100  175.2990  134.5530 C   0  0  0  0  0  2  0  0  0  0  0  0
  185.9070  175.2460  136.8900 F   0  0  0  0  0  0  0  0  0  0  0  0
  185.5470  175.8900  135.7220 C   0  0  0  0  0  2  0  0  0  0  0  0
  190.1400  177.9630  141.3840 C   0  0  0  0  0  2  0  0  0  0  0  0
  191.4590  177.8320  143.3110 C   0  0  0  0  0  2  0  0  0  0  0  0
  190.5680  175.8970  142.3920 C   0  0  0  0  0  2  0  0  0  0  0  0
  191.1670  177.1760  142.0450 N   0  0  0  0  0  0  0  0  0  0  0  0
  191.1370  175.4750  143.7280 C   0  0  0  0  0  2  0  0  0  0  0  0
  191.6060  176.7590  144.3720 C   0  0  2  0  0  3  0  0  0  0  0  0
  188.9440  177.4540  144.2520 O   0  0  0  0  0  0  0  0  0  0  0  0
  189.3270  177.6530  147.7670 C   0  0  0  0  0  0  0  0  0  0  0  0
  191.3620  177.0390  146.7690 N   0  0  0  0  0  0  0  0  0  0  0  0
  187.3700  178.0570  146.5820 C   0  0  0  0  0  3  0  0  0  0  0  0
  188.7220  177.7050  146.5330 C   0  0  0  0  0  0  0  0  0  0  0  0
  188.2120  178.0380  148.9510 S   0  0  0  0  0  0  0  0  0  0  0  0
  186.9170  178.2810  147.8860 C   0  0  0  0  0  3  0  0  0  0  0  0
  189.4750  177.4150  145.3950 C   0  0  0  0  0  0  0  0  0  0  0  0
  190.7990  177.0870  145.5480 N   0  0  0  0  0  0  0  0  0  0  0  0
  190.6620  177.3160  147.9040 C   0  0  0  0  0  3  0  0  0  0  0  0
  1  2  1  0  0  0  0
  2 34  1  1  0  0  0
  3 21  1  6  0  0  0
  3  4  1  0  0  0  0
  3  1  1  0  0  0  0
  4  8  1  6  0  0  0
  4  2  1  0  0  0  0
  5 17  2  0  0  0  0
  5 13  1  0  0  0  0
  6 20  1  0  0  0  0
  8  7  1  0  0  0  0
  9  5  1  0  0  0  0
 10 16  2  0  0  0  0
 11 19  1  0  0  0  0
 12  8  2  0  0  0  0
 13  6  2  0  0  0  0
 14 17  1  0  0  0  0
 15 12  1  0  0  0  0
 15 10  1  0  0  0  0
 16  7  1  0  0  0  0
 16 11  1  0  0  0  0
 17 18  1  0  0  0  0
 18 20  2  0  0  0  0
 19  9  2  0  0  0  0
 19 14  1  0  0  0  0
 21 28  1  0  0  0  0
 22 21  2  0  0  0  0
 23 26  1  0  0  0  0
 24 29  1  0  0  0  0
 25 23  2  0  0  0  0
 27 30  1  1  0  0  0
 27 25  1  0  0  0  0
 27 24  1  0  0  0  0
 29 26  1  0  0  0  0
 29 28  2  0  0  0  0
 31 30  1  0  0  0  0
 31 33  1  0  0  0  0
 33 32  1  0  0  0  0
 34 37  1  0  0  0  0
 36 38  1  0  0  0  0
 37 36  1  0  0  0  0
 37 35  1  0  0  0  0
 38 39  1  0  0  0  0
 39 35  1  6  0  0  0
 39 48  1  0  0  0  0
 40 47  2  0  0  0  0
 41 49  1  0  0  0  0
 41 45  1  0  0  0  0
 42 49  2  0  0  0  0
 43 46  2  0  0  0  0
 44 43  1  0  0  0  0
 44 41  2  0  0  0  0
 46 45  1  0  0  0  0
 47 48  1  0  0  0  0
 47 44  1  0  0  0  0
 48 42  1  0  0  0  0
M  END
>  <MODEL>
5

>  <REMARK>
 VINA RESULT:      -7.3      2.686      5.942
  Name = 
  9 active torsions:
  status: ('A' for Active; 'I' for Inactive)
    1  A    between atoms: C_7  and  C_32
    2  A    between atoms: C_7  and  N_42
    3  A    between atoms: C_12  and  C_47
    4  A    between atoms: C_15  and  C_24
    5  A    between atoms: C_15  and  O_48
    6  A    between atoms: C_21  and  C_43
    7  A    between atoms: N_30  and  C_43
    8  A    between atoms: N_33  and  C_38
    9  A    between atoms: C_35  and  O_48
                            x       y       z     vdW  Elec       q    Type
                         _______ _______ _______ _____ _____    ______ ____

>  <TORSDO>
F 9

$$$$
=
 OpenBabel10232410543D

 49 56  0  0  1  0  0  0  0  0999 V2000
  192.5090  176.3990  139.6820 C   0  0  0  0  0  2  0  0  0  0  0  0
  191.0210  176.5750  139.4200 C   0  0  2  0  0  3  0  0  0  0  0  0
  192.8240  176.8680  138.2700 C   0  0  2  0  0  3  0  0  0  0  0  0
  191.3240  177.0740  138.0140 C   0  0  1  0  0  3  0  0  0  0  0  0
  184.3760  177.2960  136.8970 C   0  0  0  0  0  0  0  0  0  0  0  0
  182.4230  178.2600  137.9200 C   0  0  0  0  0  3  0  0  0  0  0  0
  189.2720  175.7700  136.9960 C   0  0  0  0  0  2  0  0  0  0  0  0
  190.7130  176.2170  136.9290 C   0  0  0  0  0  0  0  0  0  0  0  0
  185.0490  176.5730  135.9660 N   0  0  0  0  0  0  0  0  0  0  0  0
  189.4860  175.3700  134.6170 N   0  0  0  0  0  0  0  0  0  0  0  0
  187.3160  175.9350  135.3430 N   0  0  0  0  0  2  0  0  0  0  0  0
  191.4320  175.8930  135.9070 N   0  0  0  0  0  0  0  0  0  0  0  0
  182.9930  177.4740  136.9040 C   0  0  0  0  0  3  0  0  0  0  0  0
  186.7720  177.5000  137.5910 S   0  0  0  0  0  0  0  0  0  0  0  0
  190.8990  175.0610  134.8450 C   0  0  0  0  0  2  0  0  0  0  0  0
  188.7050  175.6970  135.6040 C   0  0  0  0  0  0  0  0  0  0  0  0
  185.1650  177.8840  137.8750 C   0  0  0  0  0  0  0  0  0  0  0  0
  184.6270  178.6690  138.8890 C   0  0  0  0  0  3  0  0  0  0  0  0
  186.3790  176.5760  136.2190 C   0  0  0  0  0  0  0  0  0  0  0  0
  183.2350  178.8540  138.9060 C   0  0  0  0  0  3  0  0  0  0  0  0
  193.4830  175.7860  137.4560 C   0  0  0  0  0  0  0  0  0  0  0  0
  193.2900  174.5710  137.7370 O   0  0  0  0  0  0  0  0  0  0  0  0
  197.4710  175.8670  134.8010 C   0  0  0  0  0  3  0  0  0  0  0  0
  195.6150  173.7750  136.1460 S   0  0  0  0  0  0  0  0  0  0  0  0
  198.0220  175.0620  135.7290 C   0  0  0  0  0  3  0  0  0  0  0  0
  195.9880  176.1010  134.6260 C   0  0  0  0  0  2  0  0  0  0  0  0
  197.2390  174.3210  136.7830 C   0  0  1  0  0  3  0  0  0  0  0  0
  194.3010  176.1770  136.3440 N   0  0  0  0  0  0  0  0  0  0  0  0
  195.1870  175.4650  135.7080 C   0  0  0  0  0  0  0  0  0  0  0  0
  197.0700  175.1320  137.9080 O   0  0  0  0  0  0  0  0  0  0  0  0
  196.6200  174.2720  138.9110 C   0  0  0  0  0  2  0  0  0  0  0  0
  197.1540  175.1340  141.0550 F   0  0  0  0  0  0  0  0  0  0  0  0
  196.1520  175.0780  140.1060 C   0  0  0  0  0  2  0  0  0  0  0  0
  190.4660  177.7060  140.2640 C   0  0  0  0  0  2  0  0  0  0  0  0
  189.8050  178.3440  142.4150 C   0  0  0  0  0  2  0  0  0  0  0  0
  190.0030  176.0920  141.8910 C   0  0  0  0  0  2  0  0  0  0  0  0
  190.6190  177.3910  141.6740 N   0  0  0  0  0  0  0  0  0  0  0  0
  189.3360  176.1250  143.2470 C   0  0  0  0  0  2  0  0  0  0  0  0
  189.1010  177.5910  143.5280 C   0  0  2  0  0  3  0  0  0  0  0  0
  187.6210  177.9310  145.8250 O   0  0  0  0  0  0  0  0  0  0  0  0
  185.0210  178.5290  143.4960 C   0  0  0  0  0  0  0  0  0  0  0  0
  187.0240  178.0580  142.3640 N   0  0  0  0  0  0  0  0  0  0  0  0
  184.8210  178.5880  145.8090 C   0  0  0  0  0  3  0  0  0  0  0  0
  185.6560  178.3850  144.7070 C   0  0  0  0  0  0  0  0  0  0  0  0
  183.4150  178.9110  143.7500 S   0  0  0  0  0  0  0  0  0  0  0  0
  183.5070  178.8970  145.4420 C   0  0  0  0  0  3  0  0  0  0  0  0
  187.0140  178.0660  144.7280 C   0  0  0  0  0  0  0  0  0  0  0  0
  187.6710  177.9060  143.5340 N   0  0  0  0  0  0  0  0  0  0  0  0
  185.7000  178.3680  142.3010 C   0  0  0  0  0  3  0  0  0  0  0  0
  2  1  1  0  0  0  0
  2 34  1  1  0  0  0
  3 21  1  6  0  0  0
  3  1  1  0  0  0  0
  4  8  1  6  0  0  0
  4  3  1  0  0  0  0
  4  2  1  0  0  0  0
  5 13  2  0  0  0  0
  5 17  1  0  0  0  0
  6 20  2  0  0  0  0
  8  7  1  0  0  0  0
  9 19  2  0  0  0  0
  9  5  1  0  0  0  0
 10 15  1  0  0  0  0
 10 16  2  0  0  0  0
 11 16  1  0  0  0  0
 11 19  1  0  0  0  0
 12  8  2  0  0  0  0
 13  6  1  0  0  0  0
 14 17  1  0  0  0  0
 15 12  1  0  0  0  0
 16  7  1  0  0  0  0
 17 18  2  0  0  0  0
 18 20  1  0  0  0  0
 19 14  1  0  0  0  0
 21 22  2  0  0  0  0
 23 25  2  0  0  0  0
 24 27  1  0  0  0  0
 25 27  1  0  0  0  0
 26 23  1  0  0  0  0
 26 29  1  0  0  0  0
 27 30  1  1  0  0  0
 28 21  1  0  0  0  0
 29 24  1  0  0  0  0
 29 28  2  0  0  0  0
 30 31  1  0  0  0  0
 31 33  1  0  0  0  0
 33 32  1  0  0  0  0
 34 37  1  0  0  0  0
 36 38  1  0  0  0  0
 37 36  1  0  0  0  0
 37 35  1  0  0  0  0
 38 39  1  0  0  0  0
 39 35  1  6  0  0  0
 39 48  1  0  0  0  0
 41 45  1  0  0  0  0
 41 44  2  0  0  0  0
 42 48  1  0  0  0  0
 44 47  1  0  0  0  0
 44 43  1  0  0  0  0
 45 46  1  0  0  0  0
 46 43  2  0  0  0  0
 47 40  2  0  0  0  0
 48 47  1  0  0  0  0
 49 42  2  0  0  0  0
 49 41  1  0  0  0  0
M  END
>  <MODEL>
6

>  <REMARK>
 VINA RESULT:      -7.2      3.915      6.873
  Name = 
  9 active torsions:
  status: ('A' for Active; 'I' for Inactive)
    1  A    between atoms: C_7  and  C_32
    2  A    between atoms: C_7  and  N_42
    3  A    between atoms: C_12  and  C_47
    4  A    between atoms: C_15  and  C_24
    5  A    between atoms: C_15  and  O_48
    6  A    between atoms: C_21  and  C_43
    7  A    between atoms: N_30  and  C_43
    8  A    between atoms: N_33  and  C_38
    9  A    between atoms: C_35  and  O_48
                            x       y       z     vdW  Elec       q    Type
                         _______ _______ _______ _____ _____    ______ ____

>  <TORSDO>
F 9

$$$$
=
 OpenBabel10232410543D

 49 56  0  0  1  0  0  0  0  0999 V2000
  192.0090  176.3660  139.0830 C   0  0  0  0  0  2  0  0  0  0  0  0
  191.8980  176.5760  137.5800 C   0  0  2  0  0  3  0  0  0  0  0  0
  190.5430  175.9640  139.1450 C   0  0  2  0  0  3  0  0  0  0  0  0
  190.4380  176.1450  137.6240 C   0  0  1  0  0  3  0  0  0  0  0  0
  183.6470  174.5650  136.6480 C   0  0  0  0  0  0  0  0  0  0  0  0
  182.2410  172.6130  136.6450 C   0  0  0  0  0  3  0  0  0  0  0  0
  188.2230  176.8680  136.3920 C   0  0  0  0  0  2  0  0  0  0  0  0
  189.4820  177.2170  137.1510 C   0  0  0  0  0  0  0  0  0  0  0  0
  183.9140  175.8910  136.5300 N   0  0  0  0  0  0  0  0  0  0  0  0
  187.4580  179.0760  137.0280 N   0  0  0  0  0  0  0  0  0  0  0  0
  185.7550  177.4750  136.7370 N   0  0  0  0  0  2  0  0  0  0  0  0
  189.7320  178.4510  137.4350 N   0  0  0  0  0  0  0  0  0  0  0  0
  182.3830  174.0010  136.4810 C   0  0  0  0  0  3  0  0  0  0  0  0
  186.1010  174.7290  137.1120 S   0  0  0  0  0  0  0  0  0  0  0  0
  188.8550  179.5180  136.9920 C   0  0  0  0  0  2  0  0  0  0  0  0
  187.1370  177.8480  136.7460 C   0  0  0  0  0  0  0  0  0  0  0  0
  184.7360  173.7670  136.9660 C   0  0  0  0  0  0  0  0  0  0  0  0
  184.6220  172.3910  137.1370 C   0  0  0  0  0  3  0  0  0  0  0  0
  185.2280  176.1410  136.7430 C   0  0  0  0  0  0  0  0  0  0  0  0
  183.3540  171.8140  136.9710 C   0  0  0  0  0  3  0  0  0  0  0  0
  189.7350  176.9240  139.9770 C   0  0  0  0  0  0  0  0  0  0  0  0
  188.4950  177.0440  139.7830 O   0  0  0  0  0  0  0  0  0  0  0  0
  190.4680  178.4790  144.4490 C   0  0  0  0  0  3  0  0  0  0  0  0
  189.9860  175.7940  142.9710 S   0  0  0  0  0  0  0  0  0  0  0  0
  189.3790  177.7700  144.8010 C   0  0  0  0  0  3  0  0  0  0  0  0
  191.2550  178.2850  143.1740 C   0  0  0  0  0  2  0  0  0  0  0  0
  188.7370  176.7150  143.9350 C   0  0  1  0  0  3  0  0  0  0  0  0
  190.4080  177.6630  141.0060 N   0  0  0  0  0  0  0  0  0  0  0  0
  190.5970  177.3220  142.2480 C   0  0  0  0  0  0  0  0  0  0  0  0
  187.8040  177.3060  143.0790 O   0  0  0  0  0  0  0  0  0  0  0  0
  186.7340  177.6630  143.9010 C   0  0  0  0  0  2  0  0  0  0  0  0
  184.4160  178.0380  143.5590 F   0  0  0  0  0  0  0  0  0  0  0  0
  185.6700  178.3670  143.0810 C   0  0  0  0  0  2  0  0  0  0  0  0
  192.7220  175.5410  136.8390 C   0  0  0  0  0  2  0  0  0  0  0  0
  194.6590  174.7650  137.8950 C   0  0  0  0  0  2  0  0  0  0  0  0
  194.7840  175.6130  135.7390 C   0  0  0  0  0  2  0  0  0  0  0  0
  194.1370  175.8100  137.0270 N   0  0  0  0  0  0  0  0  0  0  0  0
  196.1380  174.9950  135.9990 C   0  0  0  0  0  2  0  0  0  0  0  0
  196.0110  174.3390  137.3550 C   0  0  2  0  0  3  0  0  0  0  0  0
  198.3600  172.9110  137.5140 O   0  0  0  0  0  0  0  0  0  0  0  0
  196.1660  170.1650  137.0790 C   0  0  0  0  0  0  0  0  0  0  0  0
  194.9510  172.1750  137.0760 N   0  0  0  0  0  0  0  0  0  0  0  0
  198.4710  170.0420  137.3380 C   0  0  0  0  0  3  0  0  0  0  0  0
  197.3390  170.8590  137.2600 C   0  0  0  0  0  0  0  0  0  0  0  0
  196.4900  168.5280  137.0120 S   0  0  0  0  0  0  0  0  0  0  0  0
  198.1660  168.6830  137.2150 C   0  0  0  0  0  3  0  0  0  0  0  0
  197.2990  172.2510  137.3460 C   0  0  0  0  0  0  0  0  0  0  0  0
  196.0830  172.8810  137.2470 N   0  0  0  0  0  0  0  0  0  0  0  0
  194.9480  170.8170  136.9850 C   0  0  0  0  0  3  0  0  0  0  0  0
  1  3  1  0  0  0  0
  2 34  1  6  0  0  0
  2  4  1  0  0  0  0
  2  1  1  0  0  0  0
  3 21  1  1  0  0  0
  4  8  1  1  0  0  0
  4  3  1  0  0  0  0
  5 17  1  0  0  0  0
  6 20  2  0  0  0  0
  7 16  1  0  0  0  0
  7  8  1  0  0  0  0
  8 12  2  0  0  0  0
  9  5  1  0  0  0  0
  9 19  2  0  0  0  0
 11 19  1  0  0  0  0
 11 16  1  0  0  0  0
 13  6  1  0  0  0  0
 13  5  2  0  0  0  0
 15 10  1  0  0  0  0
 15 12  1  0  0  0  0
 16 10  2  0  0  0  0
 17 14  1  0  0  0  0
 17 18  2  0  0  0  0
 19 14  1  0  0  0  0
 20 18  1  0  0  0  0
 21 28  1  0  0  0  0
 22 21  2  0  0  0  0
 23 25  2  0  0  0  0
 24 27  1  0  0  0  0
 26 23  1  0  0  0  0
 27 30  1  6  0  0  0
 27 25  1  0  0  0  0
 28 29  2  0  0  0  0
 29 24  1  0  0  0  0
 29 26  1  0  0  0  0
 30 31  1  0  0  0  0
 33 32  1  0  0  0  0
 33 31  1  0  0  0  0
 34 37  1  0  0  0  0
 36 38  1  0  0  0  0
 36 37  1  0  0  0  0
 37 35  1  0  0  0  0
 39 38  1  6  0  0  0
 39 35  1  0  0  0  0
 41 44  2  0  0  0  0
 42 48  1  0  0  0  0
 44 43  1  0  0  0  0
 44 47  1  0  0  0  0
 45 41  1  0  0  0  0
 45 46  1  0  0  0  0
 46 43  2  0  0  0  0
 47 40  2  0  0  0  0
 48 47  1  0  0  0  0
 48 39  1  0  0  0  0
 49 42  2  0  0  0  0
 49 41  1  0  0  0  0
M  END
>  <MODEL>
7

>  <REMARK>
 VINA RESULT:      -7.2      3.923      8.668
  Name = 
  9 active torsions:
  status: ('A' for Active; 'I' for Inactive)
    1  A    between atoms: C_7  and  C_32
    2  A    between atoms: C_7  and  N_42
    3  A    between atoms: C_12  and  C_47
    4  A    between atoms: C_15  and  C_24
    5  A    between atoms: C_15  and  O_48
    6  A    between atoms: C_21  and  C_43
    7  A    between atoms: N_30  and  C_43
    8  A    between atoms: N_33  and  C_38
    9  A    between atoms: C_35  and  O_48
                            x       y       z     vdW  Elec       q    Type
                         _______ _______ _______ _____ _____    ______ ____

>  <TORSDO>
F 9

$$$$
=
 OpenBabel10232410543D

 49 56  0  0  1  0  0  0  0  0999 V2000
  189.5560  173.4700  136.5910 C   0  0  0  0  0  2  0  0  0  0  0  0
  190.0810  174.6810  137.3470 C   0  0  2  0  0  3  0  0  0  0  0  0
  189.0850  174.3690  135.4580 C   0  0  2  0  0  3  0  0  0  0  0  0
  189.6430  175.5880  136.2060 C   0  0  1  0  0  3  0  0  0  0  0  0
  189.4860  177.8210  142.8810 C   0  0  0  0  0  0  0  0  0  0  0  0
  190.5140  177.2660  144.9840 C   0  0  0  0  0  3  0  0  0  0  0  0
  188.1470  176.7320  138.0510 C   0  0  0  0  0  2  0  0  0  0  0  0
  188.6280  176.6290  136.6230 C   0  0  0  0  0  0  0  0  0  0  0  0
  188.6660  178.5240  142.0580 N   0  0  0  0  0  0  0  0  0  0  0  0
  187.4380  178.9680  137.4490 N   0  0  0  0  0  0  0  0  0  0  0  0
  188.0240  178.6820  139.7130 N   0  0  0  0  0  2  0  0  0  0  0  0
  188.1930  177.4680  135.7440 N   0  0  0  0  0  0  0  0  0  0  0  0
  189.6180  178.0600  144.2480 C   0  0  0  0  0  3  0  0  0  0  0  0
  189.8590  176.7880  140.6320 S   0  0  0  0  0  0  0  0  0  0  0  0
  187.2090  178.4770  136.0880 C   0  0  0  0  0  2  0  0  0  0  0  0
  187.8690  178.1730  138.3830 C   0  0  0  0  0  0  0  0  0  0  0  0
  190.2250  176.8210  142.2680 C   0  0  0  0  0  0  0  0  0  0  0  0
  191.1210  176.0240  142.9720 C   0  0  0  0  0  3  0  0  0  0  0  0
  188.7470  178.0650  140.7870 C   0  0  0  0  0  0  0  0  0  0  0  0
  191.2610  176.2550  144.3490 C   0  0  0  0  0  3  0  0  0  0  0  0
  187.5890  174.3270  135.2960 C   0  0  0  0  0  0  0  0  0  0  0  0
  187.0340  174.9470  134.3470 O   0  0  0  0  0  0  0  0  0  0  0  0
  183.5830  172.5790  137.2590 C   0  0  0  0  0  3  0  0  0  0  0  0
  184.8420  172.9030  134.4420 S   0  0  0  0  0  0  0  0  0  0  0  0
  182.9030  173.3190  136.3630 C   0  0  0  0  0  3  0  0  0  0  0  0
  185.0450  172.2130  137.1510 C   0  0  0  0  0  2  0  0  0  0  0  0
  183.5220  173.9540  135.1440 C   0  0  1  0  0  3  0  0  0  0  0  0
  186.8280  173.5430  136.2250 N   0  0  0  0  0  0  0  0  0  0  0  0
  185.7150  172.9020  136.0130 C   0  0  0  0  0  0  0  0  0  0  0  0
  184.0280  175.2150  135.4690 O   0  0  0  0  0  0  0  0  0  0  0  0
  182.9160  175.9620  135.8630 C   0  0  0  0  0  2  0  0  0  0  0  0
  184.4660  177.2330  137.1310 F   0  0  0  0  0  0  0  0  0  0  0  0
  183.3580  177.3400  136.3130 C   0  0  0  0  0  2  0  0  0  0  0  0
  191.5950  174.6400  137.4240 C   0  0  0  0  0  2  0  0  0  0  0  0
  193.3960  176.0440  136.9230 C   0  0  0  0  0  2  0  0  0  0  0  0
  192.5720  174.6040  135.3000 C   0  0  0  0  0  2  0  0  0  0  0  0
  192.1660  175.4820  136.3870 N   0  0  0  0  0  0  0  0  0  0  0  0
  193.8540  175.1600  134.7220 C   0  0  0  0  0  2  0  0  0  0  0  0
  194.4460  176.0010  135.8290 C   0  0  2  0  0  3  0  0  0  0  0  0
  196.8220  176.0200  134.4360 O   0  0  0  0  0  0  0  0  0  0  0  0
  197.9830  174.3390  137.3290 C   0  0  0  0  0  0  0  0  0  0  0  0
  195.6990  174.8380  137.5500 N   0  0  0  0  0  0  0  0  0  0  0  0
  199.2580  174.8910  135.4670 C   0  0  0  0  0  3  0  0  0  0  0  0
  198.0040  174.9250  136.0850 C   0  0  0  0  0  0  0  0  0  0  0  0
  199.5080  173.7660  137.7020 S   0  0  0  0  0  0  0  0  0  0  0  0
  200.2310  174.2650  136.2530 C   0  0  0  0  0  3  0  0  0  0  0  0
  196.8290  175.4750  135.5730 C   0  0  0  0  0  0  0  0  0  0  0  0
  195.6880  175.4130  136.3340 N   0  0  0  0  0  0  0  0  0  0  0  0
  196.8250  174.2880  138.0840 C   0  0  0  0  0  3  0  0  0  0  0  0
  1  2  1  0  0  0  0
  2 34  1  6  0  0  0
  3 21  1  1  0  0  0
  3  4  1  0  0  0  0
  3  1  1  0  0  0  0
  4  8  1  1  0  0  0
  4  2  1  0  0  0  0
  5 13  1  0  0  0  0
  7 16  1  0  0  0  0
  8  7  1  0  0  0  0
  9  5  1  0  0  0  0
 10 16  2  0  0  0  0
 11 19  1  0  0  0  0
 12 15  1  0  0  0  0
 12  8  2  0  0  0  0
 13  6  2  0  0  0  0
 14 19  1  0  0  0  0
 14 17  1  0  0  0  0
 15 10  1  0  0  0  0
 16 11  1  0  0  0  0
 17  5  2  0  0  0  0
 17 18  1  0  0  0  0
 18 20  2  0  0  0  0
 19  9  2  0  0  0  0
 20  6  1  0  0  0  0
 21 28  1  0  0  0  0
 22 21  2  0  0  0  0
 24 27  1  0  0  0  0
 24 29  1  0  0  0  0
 25 23  2  0  0  0  0
 26 23  1  0  0  0  0
 27 30  1  1  0  0  0
 27 25  1  0  0  0  0
 29 28  2  0  0  0  0
 29 26  1  0  0  0  0
 30 31  1  0  0  0  0
 31 33  1  0  0  0  0
 33 32  1  0  0  0  0
 36 37  1  0  0  0  0
 37 35  1  0  0  0  0
 37 34  1  0  0  0  0
 38 36  1  0  0  0  0
 39 38  1  6  0  0  0
 39 48  1  0  0  0  0
 39 35  1  0  0  0  0
 40 47  2  0  0  0  0
 41 45  1  0  0  0  0
 41 49  1  0  0  0  0
 42 49  2  0  0  0  0
 43 44  1  0  0  0  0
 43 46  2  0  0  0  0
 44 41  2  0  0  0  0
 46 45  1  0  0  0  0
 47 44  1  0  0  0  0
 47 48  1  0  0  0  0
 48 42  1  0  0  0  0
M  END
>  <MODEL>
8

>  <REMARK>
 VINA RESULT:      -7.1      3.626      8.814
  Name = 
  9 active torsions:
  status: ('A' for Active; 'I' for Inactive)
    1  A    between atoms: C_7  and  C_32
    2  A    between atoms: C_7  and  N_42
    3  A    between atoms: C_12  and  C_47
    4  A    between atoms: C_15  and  C_24
    5  A    between atoms: C_15  and  O_48
    6  A    between atoms: C_21  and  C_43
    7  A    between atoms: N_30  and  C_43
    8  A    between atoms: N_33  and  C_38
    9  A    between atoms: C_35  and  O_48
                            x       y       z     vdW  Elec       q    Type
                         _______ _______ _______ _____ _____    ______ ____

>  <TORSDO>
F 9

$$$$
=
 OpenBabel10232410543D

 49 56  0  0  1  0  0  0  0  0999 V2000
  190.3820  174.6550  135.8100 C   0  0  0  0  0  2  0  0  0  0  0  0
  189.8200  175.7250  136.7350 C   0  0  2  0  0  3  0  0  0  0  0  0
  191.1920  174.0740  136.9590 C   0  0  2  0  0  3  0  0  0  0  0  0
  190.6010  175.1340  137.8990 C   0  0  1  0  0  3  0  0  0  0  0  0
  189.4080  177.7360  144.3320 C   0  0  0  0  0  0  0  0  0  0  0  0
  187.6500  177.7260  145.9740 C   0  0  0  0  0  3  0  0  0  0  0  0
  191.1660  177.1070  139.5540 C   0  0  0  0  0  2  0  0  0  0  0  0
  191.5900  176.1010  138.5100 C   0  0  0  0  0  0  0  0  0  0  0  0
  190.6300  178.0600  143.8370 N   0  0  0  0  0  0  0  0  0  0  0  0
  193.5200  177.2420  140.1050 N   0  0  0  0  0  0  0  0  0  0  0  0
  192.0500  177.6670  141.8960 N   0  0  0  0  0  2  0  0  0  0  0  0
  192.8300  176.0390  138.1550 N   0  0  0  0  0  0  0  0  0  0  0  0
  188.9310  178.1450  145.5760 C   0  0  0  0  0  3  0  0  0  0  0  0
  189.4770  176.6020  142.1020 S   0  0  0  0  0  0  0  0  0  0  0  0
  193.8160  176.9530  138.7000 C   0  0  0  0  0  2  0  0  0  0  0  0
  192.2930  177.3260  140.5270 C   0  0  0  0  0  0  0  0  0  0  0  0
  188.6310  176.9340  143.5100 C   0  0  0  0  0  0  0  0  0  0  0  0
  187.3620  176.5020  143.8820 C   0  0  0  0  0  3  0  0  0  0  0  0
  190.8140  177.5230  142.6080 C   0  0  0  0  0  0  0  0  0  0  0  0
  186.8710  176.9090  145.1320 C   0  0  0  0  0  3  0  0  0  0  0  0
  192.6730  174.1760  136.7050 C   0  0  0  0  0  0  0  0  0  0  0  0
  193.4640  173.3340  137.2110 O   0  0  0  0  0  0  0  0  0  0  0  0
  195.9950  176.8730  134.5510 C   0  0  0  0  0  3  0  0  0  0  0  0
  195.3610  173.8660  134.9780 S   0  0  0  0  0  0  0  0  0  0  0  0
  196.9160  176.1370  135.2010 C   0  0  0  0  0  3  0  0  0  0  0  0
  194.5520  176.4750  134.3460 C   0  0  0  0  0  2  0  0  0  0  0  0
  196.6240  174.8250  135.8860 C   0  0  1  0  0  3  0  0  0  0  0  0
  193.1450  175.2290  135.8530 N   0  0  0  0  0  0  0  0  0  0  0  0
  194.2010  175.2340  135.0910 C   0  0  0  0  0  0  0  0  0  0  0  0
  196.2050  175.0570  137.1990 O   0  0  0  0  0  0  0  0  0  0  0  0
  197.0550  174.2840  137.9920 C   0  0  0  0  0  2  0  0  0  0  0  0
  197.3960  175.0690  140.2050 F   0  0  0  0  0  0  0  0  0  0  0  0
  196.5630  174.2890  139.4260 C   0  0  0  0  0  2  0  0  0  0  0  0
  188.3330  175.5110  136.9460 C   0  0  0  0  0  2  0  0  0  0  0  0
  186.3380  176.7190  137.1200 C   0  0  0  0  0  2  0  0  0  0  0  0
  188.3280  177.8360  136.6980 C   0  0  0  0  0  2  0  0  0  0  0  0
  187.5890  176.6240  136.3820 N   0  0  0  0  0  0  0  0  0  0  0  0
  187.3180  178.9240  136.9860 C   0  0  0  0  0  2  0  0  0  0  0  0
  186.0570  178.1870  137.3770 C   0  0  2  0  0  3  0  0  0  0  0  0
  183.4890  178.1870  138.3710 O   0  0  0  0  0  0  0  0  0  0  0  0
  185.1780  178.7830  141.4260 C   0  0  0  0  0  0  0  0  0  0  0  0
  186.7270  178.6080  139.6700 N   0  0  0  0  0  0  0  0  0  0  0  0
  182.8800  178.5830  141.1540 C   0  0  0  0  0  3  0  0  0  0  0  0
  184.1400  178.5750  140.5480 C   0  0  0  0  0  0  0  0  0  0  0  0
  184.5720  178.9820  142.9700 S   0  0  0  0  0  0  0  0  0  0  0  0
  182.9440  178.8020  142.5330 C   0  0  0  0  0  3  0  0  0  0  0  0
  184.4220  178.3820  139.1960 C   0  0  0  0  0  0  0  0  0  0  0  0
  185.7320  178.4070  138.7880 N   0  0  0  0  0  0  0  0  0  0  0  0
  186.4930  178.8020  140.9970 C   0  0  0  0  0  3  0  0  0  0  0  0
  1  2  1  0  0  0  0
  1  3  1  0  0  0  0
  2 34  1  1  0  0  0
  2  4  1  0  0  0  0
  3 21  1  6  0  0  0
  3  4  1  0  0  0  0
  4  8  1  6  0  0  0
  5 13  1  0  0  0  0
  7 16  1  0  0  0  0
  8  7  1  0  0  0  0
  9  5  1  0  0  0  0
 10 16  2  0  0  0  0
 11 19  1  0  0  0  0
 12  8  2  0  0  0  0
 12 15  1  0  0  0  0
 13  6  2  0  0  0  0
 14 19  1  0  0  0  0
 14 17  1  0  0  0  0
 15 10  1  0  0  0  0
 16 11  1  0  0  0  0
 17 18  1  0  0  0  0
 17  5  2  0  0  0  0
 18 20  2  0  0  0  0
 19  9  2  0  0  0  0
 20  6  1  0  0  0  0
 21 22  2  0  0  0  0
 23 25  2  0  0  0  0
 24 29  1  0  0  0  0
 24 27  1  0  0  0  0
 25 27  1  0  0  0  0
 26 23  1  0  0  0  0
 26 29  1  0  0  0  0
 27 30  1  1  0  0  0
 28 21  1  0  0  0  0
 29 28  2  0  0  0  0
 30 31  1  0  0  0  0
 31 33  1  0  0  0  0
 33 32  1  0  0  0  0
 35 39  1  0  0  0  0
 36 38  1  0  0  0  0
 37 36  1  0  0  0  0
 37 34  1  0  0  0  0
 37 35  1  0  0  0  0
 39 38  1  1  0  0  0
 39 48  1  0  0  0  0
 40 47  2  0  0  0  0
 41 45  1  0  0  0  0
 42 49  2  0  0  0  0
 43 46  2  0  0  0  0
 44 43  1  0  0  0  0
 44 41  2  0  0  0  0
 46 45  1  0  0  0  0
 47 44  1  0  0  0  0
 48 47  1  0  0  0  0
 48 42  1  0  0  0  0
 49 41  1  0  0  0  0
M  END
>  <MODEL>
9

>  <REMARK>
 VINA RESULT:      -7.1      4.090      8.320
  Name = 
  9 active torsions:
  status: ('A' for Active; 'I' for Inactive)
    1  A    between atoms: C_7  and  C_32
    2  A    between atoms: C_7  and  N_42
    3  A    between atoms: C_12  and  C_47
    4  A    between atoms: C_15  and  C_24
    5  A    between atoms: C_15  and  O_48
    6  A    between atoms: C_21  and  C_43
    7  A    between atoms: N_30  and  C_43
    8  A    between atoms: N_33  and  C_38
    9  A    between atoms: C_35  and  O_48
                            x       y       z     vdW  Elec       q    Type
                         _______ _______ _______ _____ _____    ______ ____

>  <TORSDO>
F 9

$$$$
