=
 OpenBabel10232412253D

 38 41  0  0  1  0  0  0  0  0999 V2000
  186.9100  177.2750  145.1370 C   0  0  0  0  0  2  0  0  0  0  0  0
  184.8630  178.1890  144.0070 C   0  0  1  0  0  3  0  0  0  0  0  0
  179.9830  180.2580  138.1150 C   0  0  0  0  0  1  0  0  0  0  0  0
  182.8510  178.6140  142.5770 O   0  0  0  0  0  0  0  0  0  0  0  0
  180.8690  179.9810  139.2340 N   0  0  0  0  0  0  0  0  0  0  0  0
  180.3760  180.1260  140.5970 C   0  0  0  0  0  2  0  0  0  0  0  0
  182.1820  178.4550  141.3280 C   0  0  1  0  0  3  0  0  0  0  0  0
  185.1020  179.5420  139.2240 O   0  0  0  0  0  1  0  0  0  0  0  0
  184.3230  179.0810  140.2830 C   0  0  0  0  0  0  0  0  0  0  0  0
  184.9870  178.6670  141.5430 C   0  0  0  0  0  0  0  0  0  0  0  0
  182.7670  179.6930  137.8940 O   0  0  0  0  0  0  0  0  0  0  0  0
  186.4020  178.1780  144.0230 C   0  0  2  0  0  3  0  0  0  0  0  0
  180.7030  178.8740  141.4130 C   0  0  0  0  0  2  0  0  0  0  0  0
  182.2330  179.5900  139.0320 C   0  0  0  0  0  0  0  0  0  0  0  0
  186.4880  178.5970  141.5850 C   0  0  0  0  0  2  0  0  0  0  0  0
  184.3410  179.1550  145.0570 C   0  0  0  0  0  1  0  0  0  0  0  0
  184.2460  178.5100  142.6630 C   0  0  0  0  0  0  0  0  0  0  0  0
  186.9610  177.6760  142.7000 C   0  0  0  0  0  2  0  0  0  0  0  0
  182.9800  179.0590  140.1920 C   0  0  0  0  0  0  0  0  0  0  0  0
  188.3470  177.6170  145.4950 C   0  0  2  0  0  3  0  0  0  0  0  0
  190.3200  177.6330  143.9100 C   0  0  0  0  0  0  0  0  0  0  0  0
  190.4950  178.8700  144.0790 O   0  0  0  0  0  0  0  0  0  0  0  0
  189.2490  176.9510  144.5650 N   0  0  0  0  0  2  0  0  0  0  0  0
  191.2550  176.8650  143.0450 C   0  0  0  0  0  2  0  0  0  0  0  0
  191.2330  177.4180  141.6620 C   0  0  0  0  0  3  0  0  0  0  0  0
  190.5350  176.8010  140.7110 C   0  0  0  0  0  3  0  0  0  0  0  0
  190.4910  177.3350  139.3110 C   0  0  1  0  0  3  0  0  0  0  0  0
  190.9880  176.2500  138.3590 C   0  0  0  0  0  2  0  0  0  0  0  0
  192.4700  176.4210  138.0900 C   0  0  0  0  0  1  0  0  0  0  0  0
  189.0580  177.7550  138.9470 C   0  0  1  0  0  3  0  0  0  0  0  0
  188.9980  179.1490  138.5650 N   0  0  0  0  0  0  0  0  0  0  0  0
  188.9090  179.4720  137.4180 O   0  0  0  0  0  0  0  0  0  0  0  0
  187.2840  176.7440  137.7540 O   0  0  0  0  0  0  0  0  0  0  0  0
  188.4900  176.9000  137.8520 C   0  0  0  0  0  3  0  0  0  0  0  0
  188.6140  177.1860  146.7980 O   0  0  0  0  0  0  0  0  0  0  0  0
  188.3220  178.2860  147.6070 C   0  0  0  0  0  3  0  0  0  0  0  0
  188.1390  177.8190  149.0370 C   0  0  0  0  0  2  0  0  0  0  0  0
  189.4390  178.4700  148.6140 C   0  0  0  0  0  2  0  0  0  0  0  0
  2 12  1  0  0  0  0
  2 16  1  1  0  0  0
  3  5  1  0  0  0  0
  4 17  1  0  0  0  0
  5  6  1  0  0  0  0
  6 13  1  0  0  0  0
  7 13  1  1  0  0  0
  7  4  1  0  0  0  0
  8  9  1  0  0  0  0
  9 10  1  0  0  0  0
 10 15  1  0  0  0  0
 10 17  2  0  0  0  0
 11 14  2  0  0  0  0
 12  1  1  1  0  0  0
 14  5  1  0  0  0  0
 14 19  1  0  0  0  0
 15 18  1  0  0  0  0
 17  2  1  0  0  0  0
 18 12  1  0  0  0  0
 19  9  2  0  0  0  0
 19  7  1  0  0  0  0
 20  1  1  6  0  0  0
 20 35  1  0  0  0  0
 21 22  2  0  0  0  0
 21 23  1  0  0  0  0
 23 20  1  0  0  0  0
 24 21  1  0  0  0  0
 25 24  1  0  0  0  0
 26 25  2  0  0  0  0
 27 28  1  6  0  0  0
 27 26  1  0  0  0  0
 29 28  1  0  0  0  0
 30 34  1  6  0  0  0
 30 27  1  0  0  0  0
 31 30  1  0  0  0  0
 32 31  2  0  0  0  0
 33 34  2  0  0  0  0
 35 36  1  0  0  0  0
 36 38  1  0  0  0  0
 36 37  1  0  0  0  0
 38 37  1  0  0  0  0
M  END
>  <MODEL>
1

>  <REMARK>
 VINA RESULT:      -8.6      0.000      0.000
  Name = 
  12 active torsions:
  status: ('A' for Active; 'I' for Inactive)
    1  A    between atoms: C_1  and  O_27
    2  A    between atoms: C_3  and  C_28
    3  A    between atoms: C_6  and  C_20
    4  A    between atoms: C_6  and  C_22
    5  A    between atoms: C_7  and  C_12
    6  A    between atoms: N_9  and  C_30
    7  A    between atoms: C_12  and  C_18
    8  A    between atoms: C_22  and  O_27
    9  A    between atoms: C_22  and  N_38
   10  A    between atoms: C_28  and  C_30
   11  A    between atoms: C_28  and  C_31
   12  A    between atoms: C_30  and  C_33
                            x       y       z     vdW  Elec       q    Type
                         _______ _______ _______ _____ _____    ______ ____

>  <TORSDO>
F 12

$$$$
=
 OpenBabel10232412253D

 38 41  0  0  1  0  0  0  0  0999 V2000
  185.2710  179.8060  142.9000 C   0  0  0  0  0  2  0  0  0  0  0  0
  186.8750  178.7250  141.3010 C   0  0  1  0  0  3  0  0  0  0  0  0
  189.8010  176.1120  134.4140 C   0  0  0  0  0  1  0  0  0  0  0  0
  188.3820  178.1200  139.3930 O   0  0  0  0  0  0  0  0  0  0  0  0
  189.2790  176.4910  135.7170 N   0  0  0  0  0  0  0  0  0  0  0  0
  190.1310  176.3800  136.8950 C   0  0  0  0  0  2  0  0  0  0  0  0
  188.6770  178.1840  138.0000 C   0  0  1  0  0  3  0  0  0  0  0  0
  185.2380  177.1700  136.8660 O   0  0  0  0  0  1  0  0  0  0  0  0
  186.3030  177.6340  137.6350 C   0  0  0  0  0  0  0  0  0  0  0  0
  186.0400  178.1430  139.0030 C   0  0  0  0  0  0  0  0  0  0  0  0
  187.0940  176.8250  134.9470 O   0  0  0  0  0  0  0  0  0  0  0  0
  185.4040  178.8250  141.7450 C   0  0  2  0  0  3  0  0  0  0  0  0
  190.1000  177.6850  137.6930 C   0  0  0  0  0  2  0  0  0  0  0  0
  187.9320  176.9490  135.8820 C   0  0  0  0  0  0  0  0  0  0  0  0
  184.6160  178.3010  139.4590 C   0  0  0  0  0  2  0  0  0  0  0  0
  187.6310  177.7800  142.2190 C   0  0  0  0  0  1  0  0  0  0  0  0
  187.0730  178.3080  139.8590 C   0  0  0  0  0  0  0  0  0  0  0  0
  184.5160  179.2970  140.6040 C   0  0  0  0  0  2  0  0  0  0  0  0
  187.5660  177.5740  137.1700 C   0  0  0  0  0  0  0  0  0  0  0  0
  184.6990  179.1160  144.1290 C   0  0  2  0  0  3  0  0  0  0  0  0
  186.1850  178.4290  146.0590 C   0  0  0  0  0  0  0  0  0  0  0  0
  185.7600  179.3760  146.7750 O   0  0  0  0  0  0  0  0  0  0  0  0
  185.7170  178.2590  144.7200 N   0  0  0  0  0  2  0  0  0  0  0  0
  187.1590  177.4580  146.6230 C   0  0  0  0  0  2  0  0  0  0  0  0
  188.4810  177.6250  145.9580 C   0  0  0  0  0  3  0  0  0  0  0  0
  189.5620  177.0450  146.4730 C   0  0  0  0  0  3  0  0  0  0  0  0
  190.9060  177.1920  145.8240 C   0  0  1  0  0  3  0  0  0  0  0  0
  191.7560  175.9750  146.1820 C   0  0  0  0  0  2  0  0  0  0  0  0
  192.0810  175.9750  147.6630 C   0  0  0  0  0  1  0  0  0  0  0  0
  190.7500  177.3100  144.3000 C   0  0  1  0  0  3  0  0  0  0  0  0
  191.4920  178.4390  143.7790 N   0  0  0  0  0  0  0  0  0  0  0  0
  191.0310  179.5400  143.7950 O   0  0  0  0  0  0  0  0  0  0  0  0
  190.4340  175.5150  142.7940 O   0  0  0  0  0  0  0  0  0  0  0  0
  191.1750  176.0530  143.6000 C   0  0  0  0  0  3  0  0  0  0  0  0
  183.5950  178.3450  143.7560 O   0  0  0  0  0  0  0  0  0  0  0  0
  182.5270  179.2440  143.7120 C   0  0  0  0  0  3  0  0  0  0  0  0
  181.5870  178.8480  142.5910 C   0  0  0  0  0  2  0  0  0  0  0  0
  181.2430  178.5020  144.0250 C   0  0  0  0  0  2  0  0  0  0  0  0
  2 12  1  0  0  0  0
  2 16  1  1  0  0  0
  3  5  1  0  0  0  0
  4 17  1  0  0  0  0
  5 14  1  0  0  0  0
  5  6  1  0  0  0  0
  6 13  1  0  0  0  0
  7 13  1  1  0  0  0
  7  4  1  0  0  0  0
  8  9  1  0  0  0  0
  9 10  1  0  0  0  0
 10 15  1  0  0  0  0
 10 17  2  0  0  0  0
 11 14  2  0  0  0  0
 12  1  1  1  0  0  0
 14 19  1  0  0  0  0
 15 18  1  0  0  0  0
 17  2  1  0  0  0  0
 18 12  1  0  0  0  0
 19  9  2  0  0  0  0
 19  7  1  0  0  0  0
 20  1  1  6  0  0  0
 20 23  1  0  0  0  0
 21 24  1  0  0  0  0
 21 22  2  0  0  0  0
 23 21  1  0  0  0  0
 25 26  2  0  0  0  0
 25 24  1  0  0  0  0
 27 28  1  6  0  0  0
 27 26  1  0  0  0  0
 28 29  1  0  0  0  0
 30 34  1  6  0  0  0
 30 27  1  0  0  0  0
 31 32  2  0  0  0  0
 31 30  1  0  0  0  0
 33 34  2  0  0  0  0
 35 20  1  0  0  0  0
 36 35  1  0  0  0  0
 36 38  1  0  0  0  0
 37 36  1  0  0  0  0
 37 38  1  0  0  0  0
M  END
>  <MODEL>
2

>  <REMARK>
 VINA RESULT:      -8.3      2.502      6.492
  Name = 
  12 active torsions:
  status: ('A' for Active; 'I' for Inactive)
    1  A    between atoms: C_1  and  O_27
    2  A    between atoms: C_3  and  C_28
    3  A    between atoms: C_6  and  C_20
    4  A    between atoms: C_6  and  C_22
    5  A    between atoms: C_7  and  C_12
    6  A    between atoms: N_9  and  C_30
    7  A    between atoms: C_12  and  C_18
    8  A    between atoms: C_22  and  O_27
    9  A    between atoms: C_22  and  N_38
   10  A    between atoms: C_28  and  C_30
   11  A    between atoms: C_28  and  C_31
   12  A    between atoms: C_30  and  C_33
                            x       y       z     vdW  Elec       q    Type
                         _______ _______ _______ _____ _____    ______ ____

>  <TORSDO>
F 12

$$$$
=
 OpenBabel10232412253D

 38 41  0  0  1  0  0  0  0  0999 V2000
  190.0280  177.8410  145.2510 C   0  0  0  0  0  2  0  0  0  0  0  0
  190.9920  177.0300  143.0800 C   0  0  1  0  0  3  0  0  0  0  0  0
  191.7770  176.0650  135.2520 C   0  0  0  0  0  1  0  0  0  0  0  0
  191.8990  176.7720  140.7590 O   0  0  0  0  0  0  0  0  0  0  0  0
  191.6340  176.1330  136.6980 N   0  0  0  0  0  0  0  0  0  0  0  0
  192.6720  175.5690  137.5520 C   0  0  0  0  0  2  0  0  0  0  0  0
  191.9010  177.1820  139.3940 C   0  0  1  0  0  3  0  0  0  0  0  0
  188.1650  177.0530  138.9840 O   0  0  0  0  0  1  0  0  0  0  0  0
  189.4420  177.1170  139.5380 C   0  0  0  0  0  0  0  0  0  0  0  0
  189.5880  177.2520  141.0080 C   0  0  0  0  0  0  0  0  0  0  0  0
  189.4580  176.9930  136.6250 O   0  0  0  0  0  0  0  0  0  0  0  0
  189.7040  177.2180  143.9020 C   0  0  2  0  0  3  0  0  0  0  0  0
  193.0880  176.5840  138.6180 C   0  0  0  0  0  2  0  0  0  0  0  0
  190.4810  176.7210  137.3110 C   0  0  0  0  0  0  0  0  0  0  0  0
  188.3590  177.4850  141.8420 C   0  0  0  0  0  2  0  0  0  0  0  0
  191.7060  175.7630  143.5170 C   0  0  0  0  0  1  0  0  0  0  0  0
  190.7890  177.0130  141.5800 C   0  0  0  0  0  0  0  0  0  0  0  0
  188.7170  178.1200  143.1770 C   0  0  0  0  0  2  0  0  0  0  0  0
  190.5360  177.0040  138.7610 C   0  0  0  0  0  0  0  0  0  0  0  0
  189.1850  177.2140  146.3510 C   0  0  2  0  0  3  0  0  0  0  0  0
  186.7350  177.8380  146.2600 C   0  0  0  0  0  0  0  0  0  0  0  0
  186.4660  176.8360  145.5450 O   0  0  0  0  0  0  0  0  0  0  0  0
  188.0760  178.1010  146.6740 N   0  0  0  0  0  2  0  0  0  0  0  0
  185.6410  178.7420  146.7070 C   0  0  0  0  0  2  0  0  0  0  0  0
  184.4930  178.6510  145.7620 C   0  0  0  0  0  3  0  0  0  0  0  0
  184.7090  178.6910  144.4490 C   0  0  0  0  0  3  0  0  0  0  0  0
  183.5740  178.5980  143.4730 C   0  0  1  0  0  3  0  0  0  0  0  0
  182.3570  179.2970  144.0730 C   0  0  0  0  0  2  0  0  0  0  0  0
  181.0780  178.7140  143.5020 C   0  0  0  0  0  1  0  0  0  0  0  0
  183.9670  179.2520  142.1390 C   0  0  1  0  0  3  0  0  0  0  0  0
  185.4000  179.4190  142.0340 N   0  0  0  0  0  0  0  0  0  0  0  0
  185.9120  179.7270  141.0000 O   0  0  0  0  0  0  0  0  0  0  0  0
  183.3010  177.2600  141.0520 O   0  0  0  0  0  0  0  0  0  0  0  0
  183.4570  178.4670  140.9650 C   0  0  0  0  0  3  0  0  0  0  0  0
  189.9770  177.0180  147.4860 O   0  0  0  0  0  0  0  0  0  0  0  0
  191.2750  176.8600  146.9960 C   0  0  0  0  0  3  0  0  0  0  0  0
  192.2100  176.5570  148.1500 C   0  0  0  0  0  2  0  0  0  0  0  0
  191.7300  175.4370  147.2500 C   0  0  0  0  0  2  0  0  0  0  0  0
  2 16  1  1  0  0  0
  2 12  1  0  0  0  0
  3  5  1  0  0  0  0
  4 17  1  0  0  0  0
  5 14  1  0  0  0  0
  5  6  1  0  0  0  0
  6 13  1  0  0  0  0
  7 13  1  6  0  0  0
  7  4  1  0  0  0  0
  8  9  1  0  0  0  0
  9 10  1  0  0  0  0
 10 17  2  0  0  0  0
 10 15  1  0  0  0  0
 11 14  2  0  0  0  0
 12  1  1  1  0  0  0
 14 19  1  0  0  0  0
 15 18  1  0  0  0  0
 17  2  1  0  0  0  0
 18 12  1  0  0  0  0
 19  7  1  0  0  0  0
 19  9  2  0  0  0  0
 20  1  1  6  0  0  0
 20 23  1  0  0  0  0
 20 35  1  0  0  0  0
 21 23  1  0  0  0  0
 21 24  1  0  0  0  0
 22 21  2  0  0  0  0
 25 24  1  0  0  0  0
 26 25  2  0  0  0  0
 27 28  1  1  0  0  0
 27 26  1  0  0  0  0
 29 28  1  0  0  0  0
 30 34  1  6  0  0  0
 30 27  1  0  0  0  0
 31 30  1  0  0  0  0
 32 31  2  0  0  0  0
 34 33  2  0  0  0  0
 36 38  1  0  0  0  0
 36 35  1  0  0  0  0
 36 37  1  0  0  0  0
 38 37  1  0  0  0  0
M  END
>  <MODEL>
3

>  <REMARK>
 VINA RESULT:      -8.0      2.307      7.341
  Name = 
  12 active torsions:
  status: ('A' for Active; 'I' for Inactive)
    1  A    between atoms: C_1  and  O_27
    2  A    between atoms: C_3  and  C_28
    3  A    between atoms: C_6  and  C_20
    4  A    between atoms: C_6  and  C_22
    5  A    between atoms: C_7  and  C_12
    6  A    between atoms: N_9  and  C_30
    7  A    between atoms: C_12  and  C_18
    8  A    between atoms: C_22  and  O_27
    9  A    between atoms: C_22  and  N_38
   10  A    between atoms: C_28  and  C_30
   11  A    between atoms: C_28  and  C_31
   12  A    between atoms: C_30  and  C_33
                            x       y       z     vdW  Elec       q    Type
                         _______ _______ _______ _____ _____    ______ ____

>  <TORSDO>
F 12

$$$$
=
 OpenBabel10232412253D

 38 41  0  0  1  0  0  0  0  0999 V2000
  188.4860  177.9920  144.2210 C   0  0  0  0  0  2  0  0  0  0  0  0
  189.7570  177.0190  142.2880 C   0  0  1  0  0  3  0  0  0  0  0  0
  192.0750  175.8930  134.7930 C   0  0  0  0  0  1  0  0  0  0  0  0
  191.0970  176.6000  140.2130 O   0  0  0  0  0  0  0  0  0  0  0  0
  191.6310  175.9920  136.1740 N   0  0  0  0  0  0  0  0  0  0  0  0
  192.3470  175.2660  137.2150 C   0  0  0  0  0  2  0  0  0  0  0  0
  191.4660  176.9960  138.8950 C   0  0  1  0  0  3  0  0  0  0  0  0
  187.9440  177.4930  137.6770 O   0  0  0  0  0  1  0  0  0  0  0  0
  189.0600  177.3450  138.4980 C   0  0  0  0  0  0  0  0  0  0  0  0
  188.8990  177.4620  139.9670 C   0  0  0  0  0  0  0  0  0  0  0  0
  189.6960  177.2030  135.6550 O   0  0  0  0  0  0  0  0  0  0  0  0
  188.3690  177.4250  142.8150 C   0  0  2  0  0  3  0  0  0  0  0  0
  192.6800  176.2040  138.3770 C   0  0  0  0  0  2  0  0  0  0  0  0
  190.4840  176.7680  136.5400 C   0  0  0  0  0  0  0  0  0  0  0  0
  187.5720  177.9020  140.5210 C   0  0  0  0  0  2  0  0  0  0  0  0
  190.1390  175.6530  142.8300 C   0  0  0  0  0  1  0  0  0  0  0  0
  189.8890  177.0280  140.7800 C   0  0  0  0  0  0  0  0  0  0  0  0
  187.7270  178.4760  141.9210 C   0  0  0  0  0  2  0  0  0  0  0  0
  190.2650  177.0460  137.9750 C   0  0  0  0  0  0  0  0  0  0  0  0
  187.4610  177.3550  145.1470 C   0  0  2  0  0  3  0  0  0  0  0  0
  185.2990  178.6440  144.8810 C   0  0  0  0  0  0  0  0  0  0  0  0
  185.6770  179.5230  145.7010 O   0  0  0  0  0  0  0  0  0  0  0  0
  186.1300  177.5210  144.5800 N   0  0  0  0  0  2  0  0  0  0  0  0
  183.9890  178.7900  144.1920 C   0  0  0  0  0  2  0  0  0  0  0  0
  184.1760  178.6630  142.7200 C   0  0  0  0  0  3  0  0  0  0  0  0
  183.1470  178.3210  141.9480 C   0  0  0  0  0  3  0  0  0  0  0  0
  183.3030  178.1880  140.4620 C   0  0  1  0  0  3  0  0  0  0  0  0
  182.1570  177.3340  139.9260 C   0  0  0  0  0  2  0  0  0  0  0  0
  182.6870  176.0240  139.3760 C   0  0  0  0  0  1  0  0  0  0  0  0
  183.2960  179.5750  139.8000 C   0  0  1  0  0  3  0  0  0  0  0  0
  184.5880  179.8970  139.2350 N   0  0  0  0  0  0  0  0  0  0  0  0
  185.1810  179.1100  138.5610 O   0  0  0  0  0  0  0  0  0  0  0  0
  181.8650  180.7730  138.3480 O   0  0  0  0  0  0  0  0  0  0  0  0
  182.2360  179.6790  138.7430 C   0  0  0  0  0  3  0  0  0  0  0  0
  187.5200  177.9750  146.3980 O   0  0  0  0  0  0  0  0  0  0  0  0
  188.8710  177.9490  146.7480 C   0  0  0  0  0  3  0  0  0  0  0  0
  189.0020  178.1490  148.2450 C   0  0  0  0  0  2  0  0  0  0  0  0
  189.1250  176.7600  147.6540 C   0  0  0  0  0  2  0  0  0  0  0  0
  2 12  1  0  0  0  0
  2 16  1  6  0  0  0
  3  5  1  0  0  0  0
  4 17  1  0  0  0  0
  5 14  1  0  0  0  0
  5  6  1  0  0  0  0
  6 13  1  0  0  0  0
  7 13  1  6  0  0  0
  7  4  1  0  0  0  0
  8  9  1  0  0  0  0
  9 10  1  0  0  0  0
 10 15  1  0  0  0  0
 10 17  2  0  0  0  0
 11 14  2  0  0  0  0
 12  1  1  1  0  0  0
 14 19  1  0  0  0  0
 15 18  1  0  0  0  0
 17  2  1  0  0  0  0
 18 12  1  0  0  0  0
 19  9  2  0  0  0  0
 19  7  1  0  0  0  0
 20  1  1  6  0  0  0
 20 35  1  0  0  0  0
 21 22  2  0  0  0  0
 23 21  1  0  0  0  0
 23 20  1  0  0  0  0
 24 21  1  0  0  0  0
 25 24  1  0  0  0  0
 26 25  2  0  0  0  0
 27 28  1  6  0  0  0
 27 26  1  0  0  0  0
 29 28  1  0  0  0  0
 30 34  1  6  0  0  0
 30 27  1  0  0  0  0
 31 30  1  0  0  0  0
 32 31  2  0  0  0  0
 33 34  2  0  0  0  0
 35 36  1  0  0  0  0
 36 38  1  0  0  0  0
 36 37  1  0  0  0  0
 38 37  1  0  0  0  0
M  END
>  <MODEL>
4

>  <REMARK>
 VINA RESULT:      -7.8      2.024      7.007
  Name = 
  12 active torsions:
  status: ('A' for Active; 'I' for Inactive)
    1  A    between atoms: C_1  and  O_27
    2  A    between atoms: C_3  and  C_28
    3  A    between atoms: C_6  and  C_20
    4  A    between atoms: C_6  and  C_22
    5  A    between atoms: C_7  and  C_12
    6  A    between atoms: N_9  and  C_30
    7  A    between atoms: C_12  and  C_18
    8  A    between atoms: C_22  and  O_27
    9  A    between atoms: C_22  and  N_38
   10  A    between atoms: C_28  and  C_30
   11  A    between atoms: C_28  and  C_31
   12  A    between atoms: C_30  and  C_33
                            x       y       z     vdW  Elec       q    Type
                         _______ _______ _______ _____ _____    ______ ____

>  <TORSDO>
F 12

$$$$
=
 OpenBabel10232412253D

 38 41  0  0  1  0  0  0  0  0999 V2000
  183.5200  178.7520  142.1560 C   0  0  0  0  0  2  0  0  0  0  0  0
  184.5500  178.5600  139.8750 C   0  0  1  0  0  3  0  0  0  0  0  0
  190.0110  177.0010  134.3460 C   0  0  0  0  0  1  0  0  0  0  0  0
  185.7340  177.8460  137.7850 O   0  0  0  0  0  0  0  0  0  0  0  0
  189.0010  177.3880  135.3180 N   0  0  0  0  0  0  0  0  0  0  0  0
  187.6750  177.7850  134.8600 C   0  0  0  0  0  2  0  0  0  0  0  0
  186.7770  177.0990  137.1650 C   0  0  1  0  0  3  0  0  0  0  0  0
  189.5020  178.3520  139.4320 O   0  0  0  0  0  1  0  0  0  0  0  0
  188.2550  178.0200  138.9080 C   0  0  0  0  0  0  0  0  0  0  0  0
  187.0400  178.2570  139.7240 C   0  0  0  0  0  0  0  0  0  0  0  0
  190.4680  177.3220  137.1410 O   0  0  0  0  0  0  0  0  0  0  0  0
  184.7560  179.0480  141.3200 C   0  0  2  0  0  3  0  0  0  0  0  0
  186.5990  177.0250  135.6380 C   0  0  0  0  0  2  0  0  0  0  0  0
  189.2810  177.4140  136.7220 C   0  0  0  0  0  0  0  0  0  0  0  0
  187.1990  178.6890  141.1550 C   0  0  0  0  0  2  0  0  0  0  0  0
  183.7470  179.5830  139.0900 C   0  0  0  0  0  1  0  0  0  0  0  0
  185.8260  178.2280  139.1310 C   0  0  0  0  0  0  0  0  0  0  0  0
  185.9520  178.3660  141.9650 C   0  0  0  0  0  2  0  0  0  0  0  0
  188.1410  177.5410  137.6540 C   0  0  0  0  0  0  0  0  0  0  0  0
  183.6770  179.3020  143.5640 C   0  0  2  0  0  3  0  0  0  0  0  0
  185.1720  178.6840  145.5110 C   0  0  0  0  0  0  0  0  0  0  0  0
  185.3680  179.8970  145.7960 O   0  0  0  0  0  0  0  0  0  0  0  0
  184.3610  178.3190  144.3930 N   0  0  0  0  0  2  0  0  0  0  0  0
  185.7630  177.6200  146.3660 C   0  0  0  0  0  2  0  0  0  0  0  0
  187.2110  177.8920  146.5820 C   0  0  0  0  0  3  0  0  0  0  0  0
  188.1160  177.3550  145.7690 C   0  0  0  0  0  3  0  0  0  0  0  0
  189.5810  177.6130  145.9590 C   0  0  1  0  0  3  0  0  0  0  0  0
  190.0380  176.9100  147.2350 C   0  0  0  0  0  2  0  0  0  0  0  0
  191.4670  176.4240  147.0880 C   0  0  0  0  0  1  0  0  0  0  0  0
  190.3740  177.0970  144.7470 C   0  0  1  0  0  3  0  0  0  0  0  0
  189.4920  176.6140  143.7070 N   0  0  0  0  0  0  0  0  0  0  0  0
  189.8570  175.7940  142.9190 O   0  0  0  0  0  0  0  0  0  0  0  0
  190.8310  179.1980  143.7620 O   0  0  0  0  0  0  0  0  0  0  0  0
  191.2870  178.1510  144.1930 C   0  0  0  0  0  3  0  0  0  0  0  0
  182.4150  179.5720  144.1000 O   0  0  0  0  0  0  0  0  0  0  0  0
  181.5140  178.9810  143.2110 C   0  0  0  0  0  3  0  0  0  0  0  0
  180.2790  178.5410  143.9710 C   0  0  0  0  0  2  0  0  0  0  0  0
  180.2510  179.8170  143.1570 C   0  0  0  0  0  2  0  0  0  0  0  0
  2 16  1  6  0  0  0
  2 12  1  0  0  0  0
  3  5  1  0  0  0  0
  4 17  1  0  0  0  0
  5 14  1  0  0  0  0
  6  5  1  0  0  0  0
  6 13  1  0  0  0  0
  7 13  1  6  0  0  0
  7 19  1  0  0  0  0
  7  4  1  0  0  0  0
  9  8  1  0  0  0  0
  9 10  1  0  0  0  0
 10 15  1  0  0  0  0
 12 18  1  0  0  0  0
 12  1  1  1  0  0  0
 14 11  2  0  0  0  0
 14 19  1  0  0  0  0
 15 18  1  0  0  0  0
 17 10  2  0  0  0  0
 17  2  1  0  0  0  0
 19  9  2  0  0  0  0
 20  1  1  6  0  0  0
 20 35  1  0  0  0  0
 20 23  1  0  0  0  0
 21 22  2  0  0  0  0
 21 24  1  0  0  0  0
 23 21  1  0  0  0  0
 24 25  1  0  0  0  0
 26 25  2  0  0  0  0
 27 26  1  6  0  0  0
 27 28  1  0  0  0  0
 29 28  1  0  0  0  0
 30 34  1  6  0  0  0
 30 27  1  0  0  0  0
 31 30  1  0  0  0  0
 32 31  2  0  0  0  0
 33 34  2  0  0  0  0
 36 37  1  0  0  0  0
 36 35  1  0  0  0  0
 38 36  1  0  0  0  0
 38 37  1  0  0  0  0
M  END
>  <MODEL>
5

>  <REMARK>
 VINA RESULT:      -7.8      2.371      6.760
  Name = 
  12 active torsions:
  status: ('A' for Active; 'I' for Inactive)
    1  A    between atoms: C_1  and  O_27
    2  A    between atoms: C_3  and  C_28
    3  A    between atoms: C_6  and  C_20
    4  A    between atoms: C_6  and  C_22
    5  A    between atoms: C_7  and  C_12
    6  A    between atoms: N_9  and  C_30
    7  A    between atoms: C_12  and  C_18
    8  A    between atoms: C_22  and  O_27
    9  A    between atoms: C_22  and  N_38
   10  A    between atoms: C_28  and  C_30
   11  A    between atoms: C_28  and  C_31
   12  A    between atoms: C_30  and  C_33
                            x       y       z     vdW  Elec       q    Type
                         _______ _______ _______ _____ _____    ______ ____

>  <TORSDO>
F 12

$$$$
=
 OpenBabel10232412253D

 38 41  0  0  1  0  0  0  0  0999 V2000
  187.0650  177.8880  139.9880 C   0  0  0  0  0  2  0  0  0  0  0  0
  188.7100  177.4700  138.1380 C   0  0  1  0  0  3  0  0  0  0  0  0
  195.3940  175.1090  134.5950 C   0  0  0  0  0  1  0  0  0  0  0  0
  190.3890  176.5330  136.5330 O   0  0  0  0  0  0  0  0  0  0  0  0
  194.1830  175.6410  135.1990 N   0  0  0  0  0  0  0  0  0  0  0  0
  193.1060  176.1260  134.3460 C   0  0  0  0  0  2  0  0  0  0  0  0
  191.4890  175.6600  136.2840 C   0  0  1  0  0  3  0  0  0  0  0  0
  193.5160  176.7980  139.2390 O   0  0  0  0  0  1  0  0  0  0  0  0
  192.4580  176.5480  138.3680 C   0  0  0  0  0  0  0  0  0  0  0  0
  191.0840  176.9390  138.7670 C   0  0  0  0  0  0  0  0  0  0  0  0
  195.0170  175.5520  137.3840 O   0  0  0  0  0  0  0  0  0  0  0  0
  188.5190  178.0230  139.5620 C   0  0  2  0  0  3  0  0  0  0  0  0
  191.7730  175.5130  134.7790 C   0  0  0  0  0  2  0  0  0  0  0  0
  194.0270  175.7240  136.6200 C   0  0  0  0  0  0  0  0  0  0  0  0
  190.8470  177.4390  140.1640 C   0  0  0  0  0  2  0  0  0  0  0  0
  188.2910  178.5130  137.1170 C   0  0  0  0  0  1  0  0  0  0  0  0
  190.1090  176.9830  137.8310 C   0  0  0  0  0  0  0  0  0  0  0  0
  189.3880  177.2770  140.5630 C   0  0  0  0  0  2  0  0  0  0  0  0
  192.6790  176.0070  137.1540 C   0  0  0  0  0  0  0  0  0  0  0  0
  186.7350  178.8710  141.1000 C   0  0  2  0  0  3  0  0  0  0  0  0
  185.7790  178.6500  143.4330 C   0  0  0  0  0  0  0  0  0  0  0  0
  185.2390  179.7870  143.3610 O   0  0  0  0  0  0  0  0  0  0  0  0
  186.5630  178.1450  142.3510 N   0  0  0  0  0  2  0  0  0  0  0  0
  185.5740  177.8110  144.6430 C   0  0  0  0  0  2  0  0  0  0  0  0
  186.6840  178.0380  145.6100 C   0  0  0  0  0  3  0  0  0  0  0  0
  187.8630  177.4510  145.4190 C   0  0  0  0  0  3  0  0  0  0  0  0
  189.0000  177.6630  146.3720 C   0  0  1  0  0  3  0  0  0  0  0  0
  188.5810  177.1580  147.7510 C   0  0  0  0  0  2  0  0  0  0  0  0
  188.4540  178.3160  148.7220 C   0  0  0  0  0  1  0  0  0  0  0  0
  190.2510  176.9160  145.8830 C   0  0  1  0  0  3  0  0  0  0  0  0
  191.0760  177.7600  145.0460 N   0  0  0  0  0  0  0  0  0  0  0  0
  190.8340  177.9040  143.8850 O   0  0  0  0  0  0  0  0  0  0  0  0
  191.9770  177.0410  147.4940 O   0  0  0  0  0  0  0  0  0  0  0  0
  191.0620  176.3830  147.0280 C   0  0  0  0  0  3  0  0  0  0  0  0
  185.5540  179.5480  140.7840 O   0  0  0  0  0  0  0  0  0  0  0  0
  184.8930  178.7140  139.8800 C   0  0  0  0  0  3  0  0  0  0  0  0
  183.4620  178.5160  140.3400 C   0  0  0  0  0  2  0  0  0  0  0  0
  183.7700  179.4900  139.2220 C   0  0  0  0  0  2  0  0  0  0  0  0
  2 16  1  6  0  0  0
  2 12  1  0  0  0  0
  3  5  1  0  0  0  0
  4 17  1  0  0  0  0
  5 14  1  0  0  0  0
  6 13  1  0  0  0  0
  6  5  1  0  0  0  0
  7 13  1  6  0  0  0
  7  4  1  0  0  0  0
  7 19  1  0  0  0  0
  9 10  1  0  0  0  0
  9  8  1  0  0  0  0
 10 15  1  0  0  0  0
 12  1  1  1  0  0  0
 12 18  1  0  0  0  0
 14 19  1  0  0  0  0
 14 11  2  0  0  0  0
 15 18  1  0  0  0  0
 17  2  1  0  0  0  0
 17 10  2  0  0  0  0
 19  9  2  0  0  0  0
 20  1  1  6  0  0  0
 20 23  1  0  0  0  0
 21 24  1  0  0  0  0
 22 21  2  0  0  0  0
 23 21  1  0  0  0  0
 24 25  1  0  0  0  0
 26 25  2  0  0  0  0
 27 26  1  6  0  0  0
 27 28  1  0  0  0  0
 28 29  1  0  0  0  0
 30 27  1  0  0  0  0
 30 34  1  1  0  0  0
 31 30  1  0  0  0  0
 32 31  2  0  0  0  0
 34 33  2  0  0  0  0
 35 20  1  0  0  0  0
 36 37  1  0  0  0  0
 36 35  1  0  0  0  0
 38 36  1  0  0  0  0
 38 37  1  0  0  0  0
M  END
>  <MODEL>
6

>  <REMARK>
 VINA RESULT:      -7.6      2.728      9.153
  Name = 
  12 active torsions:
  status: ('A' for Active; 'I' for Inactive)
    1  A    between atoms: C_1  and  O_27
    2  A    between atoms: C_3  and  C_28
    3  A    between atoms: C_6  and  C_20
    4  A    between atoms: C_6  and  C_22
    5  A    between atoms: C_7  and  C_12
    6  A    between atoms: N_9  and  C_30
    7  A    between atoms: C_12  and  C_18
    8  A    between atoms: C_22  and  O_27
    9  A    between atoms: C_22  and  N_38
   10  A    between atoms: C_28  and  C_30
   11  A    between atoms: C_28  and  C_31
   12  A    between atoms: C_30  and  C_33
                            x       y       z     vdW  Elec       q    Type
                         _______ _______ _______ _____ _____    ______ ____

>  <TORSDO>
F 12

$$$$
=
 OpenBabel10232412253D

 38 41  0  0  1  0  0  0  0  0999 V2000
  188.1640  177.1580  146.0690 C   0  0  0  0  0  2  0  0  0  0  0  0
  185.9570  178.0740  145.2980 C   0  0  1  0  0  3  0  0  0  0  0  0
  179.9870  179.7840  140.3740 C   0  0  0  0  0  1  0  0  0  0  0  0
  183.6980  178.4680  144.2890 O   0  0  0  0  0  0  0  0  0  0  0  0
  181.0860  179.5770  141.3030 N   0  0  0  0  0  0  0  0  0  0  0  0
  180.9110  179.9080  142.7120 C   0  0  0  0  0  2  0  0  0  0  0  0
  182.7650  178.2130  143.2420 C   0  0  1  0  0  3  0  0  0  0  0  0
  185.1910  178.8590  140.4440 O   0  0  0  0  0  1  0  0  0  0  0  0
  184.6470  178.5730  141.6940 C   0  0  0  0  0  0  0  0  0  0  0  0
  185.5550  178.2610  142.8240 C   0  0  0  0  0  0  0  0  0  0  0  0
  182.6290  179.0140  139.6350 O   0  0  0  0  0  0  0  0  0  0  0  0
  187.4600  177.9610  144.9850 C   0  0  2  0  0  3  0  0  0  0  0  0
  181.3590  178.7370  143.5880 C   0  0  0  0  0  2  0  0  0  0  0  0
  182.3540  179.0760  140.8650 C   0  0  0  0  0  0  0  0  0  0  0  0
  187.0240  178.0950  142.5530 C   0  0  0  0  0  2  0  0  0  0  0  0
  185.7190  179.1840  146.3060 C   0  0  0  0  0  1  0  0  0  0  0  0
  185.0730  178.2810  144.0870 C   0  0  0  0  0  0  0  0  0  0  0  0
  187.6930  177.2770  143.6470 C   0  0  0  0  0  2  0  0  0  0  0  0
  183.3170  178.6310  141.8950 C   0  0  0  0  0  0  0  0  0  0  0  0
  189.6190  177.5800  146.1930 C   0  0  2  0  0  3  0  0  0  0  0  0
  190.9450  178.2070  144.1310 C   0  0  0  0  0  0  0  0  0  0  0  0
  190.8500  179.4360  144.3960 O   0  0  0  0  0  0  0  0  0  0  0  0
  190.3300  177.2290  144.9720 N   0  0  0  0  0  2  0  0  0  0  0  0
  191.7320  177.7650  142.9490 C   0  0  0  0  0  2  0  0  0  0  0  0
  190.8100  177.3580  141.8530 C   0  0  0  0  0  3  0  0  0  0  0  0
  191.2830  177.1690  140.6230 C   0  0  0  0  0  3  0  0  0  0  0  0
  190.3810  176.7550  139.4990 C   0  0  1  0  0  3  0  0  0  0  0  0
  189.1870  177.7050  139.4580 C   0  0  0  0  0  2  0  0  0  0  0  0
  189.1800  178.4900  138.1610 C   0  0  0  0  0  1  0  0  0  0  0  0
  191.1430  176.7910  138.1650 C   0  0  1  0  0  3  0  0  0  0  0  0
  192.5570  176.5490  138.3580 N   0  0  0  0  0  0  0  0  0  0  0  0
  193.3430  176.7510  137.4820 O   0  0  0  0  0  0  0  0  0  0  0  0
  190.8540  175.8980  135.9940 O   0  0  0  0  0  0  0  0  0  0  0  0
  190.5860  175.8040  137.1810 C   0  0  0  0  0  3  0  0  0  0  0  0
  190.2000  176.9210  147.2810 O   0  0  0  0  0  0  0  0  0  0  0  0
  191.5590  176.8420  146.9680 C   0  0  0  0  0  3  0  0  0  0  0  0
  192.3200  176.3380  148.1780 C   0  0  0  0  0  2  0  0  0  0  0  0
  191.9980  175.3930  147.0400 C   0  0  0  0  0  2  0  0  0  0  0  0
  2 16  1  1  0  0  0
  3  5  1  0  0  0  0
  5  6  1  0  0  0  0
  6 13  1  0  0  0  0
  7 13  1  1  0  0  0
  7  4  1  0  0  0  0
  8  9  1  0  0  0  0
  9 19  2  0  0  0  0
  9 10  1  0  0  0  0
 10 17  2  0  0  0  0
 11 14  2  0  0  0  0
 12  2  1  0  0  0  0
 12  1  1  1  0  0  0
 14  5  1  0  0  0  0
 14 19  1  0  0  0  0
 15 10  1  0  0  0  0
 15 18  1  0  0  0  0
 17  4  1  0  0  0  0
 17  2  1  0  0  0  0
 18 12  1  0  0  0  0
 19  7  1  0  0  0  0
 20  1  1  6  0  0  0
 20 35  1  0  0  0  0
 21 22  2  0  0  0  0
 21 23  1  0  0  0  0
 23 20  1  0  0  0  0
 24 21  1  0  0  0  0
 25 24  1  0  0  0  0
 26 25  2  0  0  0  0
 27 28  1  6  0  0  0
 27 26  1  0  0  0  0
 29 28  1  0  0  0  0
 30 34  1  6  0  0  0
 30 31  1  0  0  0  0
 30 27  1  0  0  0  0
 32 31  2  0  0  0  0
 33 34  2  0  0  0  0
 36 38  1  0  0  0  0
 36 35  1  0  0  0  0
 36 37  1  0  0  0  0
 38 37  1  0  0  0  0
M  END
>  <MODEL>
7

>  <REMARK>
 VINA RESULT:      -7.6      2.013      2.404
  Name = 
  12 active torsions:
  status: ('A' for Active; 'I' for Inactive)
    1  A    between atoms: C_1  and  O_27
    2  A    between atoms: C_3  and  C_28
    3  A    between atoms: C_6  and  C_20
    4  A    between atoms: C_6  and  C_22
    5  A    between atoms: C_7  and  C_12
    6  A    between atoms: N_9  and  C_30
    7  A    between atoms: C_12  and  C_18
    8  A    between atoms: C_22  and  O_27
    9  A    between atoms: C_22  and  N_38
   10  A    between atoms: C_28  and  C_30
   11  A    between atoms: C_28  and  C_31
   12  A    between atoms: C_30  and  C_33
                            x       y       z     vdW  Elec       q    Type
                         _______ _______ _______ _____ _____    ______ ____

>  <TORSDO>
F 12

$$$$
=
 OpenBabel10232412253D

 38 41  0  0  1  0  0  0  0  0999 V2000
  190.5770  176.9480  137.3980 C   0  0  0  0  0  2  0  0  0  0  0  0
  188.3690  178.0870  137.7540 C   0  0  1  0  0  3  0  0  0  0  0  0
  180.5140  178.9310  138.3880 C   0  0  0  0  0  1  0  0  0  0  0  0
  186.0640  178.7750  138.4550 O   0  0  0  0  0  0  0  0  0  0  0  0
  181.9540  178.8570  138.1980 N   0  0  0  0  0  0  0  0  0  0  0  0
  182.7810  180.0180  138.5010 C   0  0  0  0  0  2  0  0  0  0  0  0
  184.7470  178.4060  138.8560 C   0  0  1  0  0  3  0  0  0  0  0  0
  184.2070  175.9420  136.0690 O   0  0  0  0  0  1  0  0  0  0  0  0
  184.8050  176.7910  136.9980 C   0  0  0  0  0  0  0  0  0  0  0  0
  186.2850  176.8650  137.0620 C   0  0  0  0  0  0  0  0  0  0  0  0
  181.8950  176.7460  137.1890 O   0  0  0  0  0  0  0  0  0  0  0  0
  189.1640  177.1150  136.8630 C   0  0  2  0  0  3  0  0  0  0  0  0
  183.9540  179.6120  139.3940 C   0  0  0  0  0  2  0  0  0  0  0  0
  182.5850  177.6740  137.6940 C   0  0  0  0  0  0  0  0  0  0  0  0
  187.0980  175.9020  136.2430 C   0  0  0  0  0  2  0  0  0  0  0  0
  188.7020  179.5220  137.3840 C   0  0  0  0  0  1  0  0  0  0  0  0
  186.8690  177.8850  137.7300 C   0  0  0  0  0  0  0  0  0  0  0  0
  188.5000  175.7480  136.8130 C   0  0  0  0  0  2  0  0  0  0  0  0
  184.0560  177.5780  137.7940 C   0  0  0  0  0  0  0  0  0  0  0  0
  190.6000  175.9800  138.5700 C   0  0  2  0  0  3  0  0  0  0  0  0
  190.2050  177.0450  140.8310 C   0  0  0  0  0  0  0  0  0  0  0  0
  188.9650  176.8270  140.7610 O   0  0  0  0  0  0  0  0  0  0  0  0
  191.0740  176.6720  139.7600 N   0  0  0  0  0  2  0  0  0  0  0  0
  190.7770  177.6670  142.0550 C   0  0  0  0  0  2  0  0  0  0  0  0
  189.7340  177.7500  143.1140 C   0  0  0  0  0  3  0  0  0  0  0  0
  190.0900  177.7890  144.3960 C   0  0  0  0  0  3  0  0  0  0  0  0
  189.0620  177.8750  145.4850 C   0  0  1  0  0  3  0  0  0  0  0  0
  187.7530  177.2860  144.9670 C   0  0  0  0  0  2  0  0  0  0  0  0
  186.5740  178.1030  145.4590 C   0  0  0  0  0  1  0  0  0  0  0  0
  189.5420  177.1120  146.7290 C   0  0  1  0  0  3  0  0  0  0  0  0
  190.9490  176.7860  146.6390 N   0  0  0  0  0  0  0  0  0  0  0  0
  191.6740  176.9170  147.5790 O   0  0  0  0  0  0  0  0  0  0  0  0
  188.2510  177.6910  148.6240 O   0  0  0  0  0  0  0  0  0  0  0  0
  189.2750  177.8830  147.9890 C   0  0  0  0  0  3  0  0  0  0  0  0
  191.4550  174.9150  138.2740 O   0  0  0  0  0  0  0  0  0  0  0  0
  192.4210  175.4560  137.4230 C   0  0  0  0  0  3  0  0  0  0  0  0
  193.7540  174.7840  137.6900 C   0  0  0  0  0  2  0  0  0  0  0  0
  192.9240  174.3720  136.4920 C   0  0  0  0  0  2  0  0  0  0  0  0
  2 16  1  6  0  0  0
  4  7  1  0  0  0  0
  5  3  1  0  0  0  0
  5  6  1  0  0  0  0
  6 13  1  0  0  0  0
  7 13  1  6  0  0  0
  8  9  1  0  0  0  0
  9 10  1  0  0  0  0
  9 19  2  0  0  0  0
 10 17  2  0  0  0  0
 11 14  2  0  0  0  0
 12  1  1  1  0  0  0
 12  2  1  0  0  0  0
 14 19  1  0  0  0  0
 14  5  1  0  0  0  0
 15 18  1  0  0  0  0
 15 10  1  0  0  0  0
 17  2  1  0  0  0  0
 17  4  1  0  0  0  0
 18 12  1  0  0  0  0
 19  7  1  0  0  0  0
 20  1  1  6  0  0  0
 20 23  1  0  0  0  0
 21 24  1  0  0  0  0
 22 21  2  0  0  0  0
 23 21  1  0  0  0  0
 24 25  1  0  0  0  0
 25 26  2  0  0  0  0
 27 26  1  6  0  0  0
 27 30  1  0  0  0  0
 28 29  1  0  0  0  0
 28 27  1  0  0  0  0
 30 34  1  1  0  0  0
 31 30  1  0  0  0  0
 31 32  2  0  0  0  0
 34 33  2  0  0  0  0
 35 20  1  0  0  0  0
 36 37  1  0  0  0  0
 36 35  1  0  0  0  0
 38 36  1  0  0  0  0
 38 37  1  0  0  0  0
M  END
>  <MODEL>
8

>  <REMARK>
 VINA RESULT:      -7.5      2.254      7.048
  Name = 
  12 active torsions:
  status: ('A' for Active; 'I' for Inactive)
    1  A    between atoms: C_1  and  O_27
    2  A    between atoms: C_3  and  C_28
    3  A    between atoms: C_6  and  C_20
    4  A    between atoms: C_6  and  C_22
    5  A    between atoms: C_7  and  C_12
    6  A    between atoms: N_9  and  C_30
    7  A    between atoms: C_12  and  C_18
    8  A    between atoms: C_22  and  O_27
    9  A    between atoms: C_22  and  N_38
   10  A    between atoms: C_28  and  C_30
   11  A    between atoms: C_28  and  C_31
   12  A    between atoms: C_30  and  C_33
                            x       y       z     vdW  Elec       q    Type
                         _______ _______ _______ _____ _____    ______ ____

>  <TORSDO>
F 12

$$$$
=
 OpenBabel10232412253D

 38 41  0  0  1  0  0  0  0  0999 V2000
  189.1860  177.9760  144.6120 C   0  0  0  0  0  2  0  0  0  0  0  0
  189.9180  176.9380  142.4470 C   0  0  1  0  0  3  0  0  0  0  0  0
  190.9420  176.1050  134.6320 C   0  0  0  0  0  1  0  0  0  0  0  0
  190.8430  176.4320  140.1740 O   0  0  0  0  0  0  0  0  0  0  0  0
  190.7090  176.1580  136.0660 N   0  0  0  0  0  0  0  0  0  0  0  0
  191.3340  175.1690  136.9350 C   0  0  0  0  0  2  0  0  0  0  0  0
  191.1400  176.8670  138.8500 C   0  0  1  0  0  3  0  0  0  0  0  0
  187.7460  178.3470  138.1970 O   0  0  0  0  0  1  0  0  0  0  0  0
  188.8770  177.8400  138.8340 C   0  0  0  0  0  0  0  0  0  0  0  0
  188.9300  177.8300  140.3160 C   0  0  0  0  0  0  0  0  0  0  0  0
  189.1060  177.8580  135.9260 O   0  0  0  0  0  0  0  0  0  0  0  0
  188.7570  177.6130  143.1990 C   0  0  2  0  0  3  0  0  0  0  0  0
  192.0360  175.8620  138.1040 C   0  0  0  0  0  2  0  0  0  0  0  0
  189.8560  177.1480  136.6520 C   0  0  0  0  0  0  0  0  0  0  0  0
  187.8400  178.5200  141.0870 C   0  0  0  0  0  2  0  0  0  0  0  0
  189.9960  175.4690  142.8240 C   0  0  0  0  0  1  0  0  0  0  0  0
  189.8650  177.0800  140.9410 C   0  0  0  0  0  0  0  0  0  0  0  0
  188.3060  178.8810  142.4890 C   0  0  0  0  0  2  0  0  0  0  0  0
  189.8900  177.3120  138.1200 C   0  0  0  0  0  0  0  0  0  0  0  0
  188.4870  177.0910  145.6320 C   0  0  2  0  0  3  0  0  0  0  0  0
  186.4050  178.1840  146.5650 C   0  0  0  0  0  0  0  0  0  0  0  0
  187.0510  178.6850  147.5250 O   0  0  0  0  0  0  0  0  0  0  0  0
  187.0560  177.3550  145.6010 N   0  0  0  0  0  2  0  0  0  0  0  0
  184.9560  178.4830  146.4150 C   0  0  0  0  0  2  0  0  0  0  0  0
  184.5780  178.4400  144.9750 C   0  0  0  0  0  3  0  0  0  0  0  0
  183.6000  179.2200  144.5210 C   0  0  0  0  0  3  0  0  0  0  0  0
  183.2000  179.2010  143.0760 C   0  0  1  0  0  3  0  0  0  0  0  0
  184.2120  178.3630  142.3000 C   0  0  0  0  0  2  0  0  0  0  0  0
  184.3250  178.8590  140.8720 C   0  0  0  0  0  1  0  0  0  0  0  0
  181.7870  178.6160  142.9240 C   0  0  1  0  0  3  0  0  0  0  0  0
  181.0200  178.7630  144.1420 N   0  0  0  0  0  0  0  0  0  0  0  0
  179.9850  178.1880  144.2930 O   0  0  0  0  0  0  0  0  0  0  0  0
  180.5220  178.5430  140.9270 O   0  0  0  0  0  0  0  0  0  0  0  0
  181.0480  179.2430  141.7770 C   0  0  0  0  0  3  0  0  0  0  0  0
  188.9890  177.3680  146.9060 O   0  0  0  0  0  0  0  0  0  0  0  0
  190.3720  177.4530  146.7370 C   0  0  0  0  0  3  0  0  0  0  0  0
  191.0450  177.4030  148.0950 C   0  0  0  0  0  2  0  0  0  0  0  0
  191.0100  176.1660  147.2210 C   0  0  0  0  0  2  0  0  0  0  0  0
  2 16  1  6  0  0  0
  2 12  1  0  0  0  0
  3  5  1  0  0  0  0
  4 17  1  0  0  0  0
  5 14  1  0  0  0  0
  5  6  1  0  0  0  0
  6 13  1  0  0  0  0
  7 13  1  6  0  0  0
  7  4  1  0  0  0  0
  8  9  1  0  0  0  0
  9 10  1  0  0  0  0
 10 17  2  0  0  0  0
 10 15  1  0  0  0  0
 11 14  2  0  0  0  0
 12  1  1  1  0  0  0
 14 19  1  0  0  0  0
 15 18  1  0  0  0  0
 17  2  1  0  0  0  0
 18 12  1  0  0  0  0
 19  9  2  0  0  0  0
 19  7  1  0  0  0  0
 20  1  1  6  0  0  0
 20 35  1  0  0  0  0
 21 22  2  0  0  0  0
 23 20  1  0  0  0  0
 23 21  1  0  0  0  0
 24 21  1  0  0  0  0
 25 24  1  0  0  0  0
 26 25  2  0  0  0  0
 27 28  1  6  0  0  0
 27 26  1  0  0  0  0
 29 28  1  0  0  0  0
 30 34  1  6  0  0  0
 30 27  1  0  0  0  0
 30 31  1  0  0  0  0
 31 32  2  0  0  0  0
 33 34  2  0  0  0  0
 36 35  1  0  0  0  0
 36 38  1  0  0  0  0
 36 37  1  0  0  0  0
 38 37  1  0  0  0  0
M  END
>  <MODEL>
9

>  <REMARK>
 VINA RESULT:      -7.4      2.166      7.256
  Name = 
  12 active torsions:
  status: ('A' for Active; 'I' for Inactive)
    1  A    between atoms: C_1  and  O_27
    2  A    between atoms: C_3  and  C_28
    3  A    between atoms: C_6  and  C_20
    4  A    between atoms: C_6  and  C_22
    5  A    between atoms: C_7  and  C_12
    6  A    between atoms: N_9  and  C_30
    7  A    between atoms: C_12  and  C_18
    8  A    between atoms: C_22  and  O_27
    9  A    between atoms: C_22  and  N_38
   10  A    between atoms: C_28  and  C_30
   11  A    between atoms: C_28  and  C_31
   12  A    between atoms: C_30  and  C_33
                            x       y       z     vdW  Elec       q    Type
                         _______ _______ _______ _____ _____    ______ ____

>  <TORSDO>
F 12

$$$$
