=
 OpenBabel10232408503D

 25 27  0  0  1  0  0  0  0  0999 V2000
  190.9530  176.8260  144.8690 C   0  0  0  0  0  2  0  0  0  0  0  0
  188.6800  176.0500  143.3150 C   0  0  0  0  0  3  0  0  0  0  0  0
  191.1730  176.2690  143.4570 C   0  0  1  0  0  3  0  0  0  0  0  0
  188.4830  176.8830  144.5580 C   0  0  1  0  0  3  0  0  0  0  0  0
  189.7150  177.7160  144.9080 C   0  0  0  0  0  2  0  0  0  0  0  0
  189.8980  175.7400  142.8450 C   0  0  0  0  0  3  0  0  0  0  0  0
  186.7980  178.0190  143.2600 N   0  0  0  0  0  0  0  0  0  0  0  0
  184.4070  178.3200  143.6350 C   0  0  2  0  0  3  0  0  0  0  0  0
  187.2640  177.7390  144.4450 C   0  0  0  0  0  0  0  0  0  0  0  0
  184.4040  178.2770  140.8460 C   0  0  0  0  0  2  0  0  0  0  0  0
  185.4800  178.7390  145.9660 C   0  0  0  0  0  3  0  0  0  0  0  0
  185.5550  179.0770  141.4470 C   0  0  0  0  0  2  0  0  0  0  0  0
  185.6710  178.8890  142.9700 C   0  0  2  0  0  3  0  0  0  0  0  0
  183.1970  178.6490  142.8980 N   0  0  0  0  0  0  0  0  0  0  0  0
  183.1630  178.6120  141.6110 C   0  0  0  0  0  3  0  0  0  0  0  0
  186.7110  178.2790  145.7090 C   0  0  0  0  0  3  0  0  0  0  0  0
  184.3270  178.7990  145.0530 C   0  0  0  0  0  0  0  0  0  0  0  0
  183.2380  179.2420  145.5040 O   0  0  0  0  0  0  0  0  0  0  0  0
  191.7660  177.3320  142.5450 C   0  0  0  0  0  2  0  0  0  0  0  0
  190.8290  177.6550  141.4800 N   0  0  0  0  0  2  0  0  0  0  0  0
  191.4700  177.3020  140.2230 C   0  0  0  0  0  2  0  0  0  0  0  0
  190.3980  175.9830  138.4310 C   0  0  0  0  0  1  0  0  0  0  0  0
  190.4660  177.3490  139.0790 C   0  0  1  0  0  3  0  0  0  0  0  0
  188.6710  178.9290  139.0290 O   0  0  0  0  0  1  0  0  0  0  0  0
  189.0830  177.7210  139.5900 C   0  0  0  0  0  2  0  0  0  0  0  0
  1  5  1  0  0  0  0
  2  4  1  0  0  0  0
  3 19  1  6  0  0  0
  3  1  1  0  0  0  0
  4  9  1  6  0  0  0
  4  5  1  0  0  0  0
  6  2  2  0  0  0  0
  6  3  1  0  0  0  0
  7  9  2  0  0  0  0
  8 14  1  6  0  0  0
  8 17  1  0  0  0  0
  9 16  1  0  0  0  0
 10 12  1  0  0  0  0
 10 15  1  0  0  0  0
 13 12  1  6  0  0  0
 13  7  1  0  0  0  0
 13  8  1  0  0  0  0
 15 14  2  0  0  0  0
 16 11  2  0  0  0  0
 17 18  2  0  0  0  0
 17 11  1  0  0  0  0
 20 19  1  0  0  0  0
 21 20  1  0  0  0  0
 23 22  1  1  0  0  0
 23 25  1  0  0  0  0
 23 21  1  0  0  0  0
 24 25  1  0  0  0  0
M  END
>  <MODEL>
1

>  <REMARK>
 VINA RESULT:      -8.4      0.000      0.000
  Name = 
  6 active torsions:
  status: ('A' for Active; 'I' for Inactive)
    1  A    between atoms: C_1  and  C_9
    2  A    between atoms: C_1  and  N_15
    3  A    between atoms: C_5  and  N_15
    4  A    between atoms: C_5  and  C_17
    5  A    between atoms: C_8  and  C_17
    6  A    between atoms: C_11  and  C_12
                            x       y       z     vdW  Elec       q    Type
                         _______ _______ _______ _____ _____    ______ ____

>  <TORSDO>
F 6

$$$$
=
 OpenBabel10232408503D

 25 27  0  0  1  0  0  0  0  0999 V2000
  187.8180  177.5650  146.5860 C   0  0  0  0  0  2  0  0  0  0  0  0
  187.1260  176.8370  143.9070 C   0  0  0  0  0  3  0  0  0  0  0  0
  188.9400  177.2460  145.5880 C   0  0  1  0  0  3  0  0  0  0  0  0
  186.0810  177.4530  144.8060 C   0  0  1  0  0  3  0  0  0  0  0  0
  186.6900  178.3280  145.9000 C   0  0  0  0  0  2  0  0  0  0  0  0
  188.4070  176.7070  144.2820 C   0  0  0  0  0  3  0  0  0  0  0  0
  185.2310  178.3220  142.7230 N   0  0  0  0  0  0  0  0  0  0  0  0
  182.9560  178.5030  141.8620 C   0  0  2  0  0  3  0  0  0  0  0  0
  185.0660  178.2080  144.0110 C   0  0  0  0  0  0  0  0  0  0  0  0
  184.3050  178.1470  139.4460 C   0  0  0  0  0  2  0  0  0  0  0  0
  182.7640  179.2500  144.3450 C   0  0  0  0  0  3  0  0  0  0  0  0
  185.0180  179.0850  140.4160 C   0  0  0  0  0  2  0  0  0  0  0  0
  184.3820  179.0770  141.8180 C   0  0  2  0  0  3  0  0  0  0  0  0
  182.2530  178.6650  140.5990 N   0  0  0  0  0  0  0  0  0  0  0  0
  182.8470  178.4820  139.4710 C   0  0  0  0  0  3  0  0  0  0  0  0
  183.9670  178.8470  144.7720 C   0  0  0  0  0  3  0  0  0  0  0  0
  182.1970  179.1300  142.9910 C   0  0  0  0  0  0  0  0  0  0  0  0
  181.0240  179.5470  142.8030 O   0  0  0  0  0  0  0  0  0  0  0  0
  189.7840  178.4810  145.3160 C   0  0  0  0  0  2  0  0  0  0  0  0
  190.1600  178.5290  143.9110 N   0  0  0  0  0  2  0  0  0  0  0  0
  191.5900  178.2750  143.8410 C   0  0  0  0  0  2  0  0  0  0  0  0
  191.6520  175.8270  143.5200 C   0  0  0  0  0  1  0  0  0  0  0  0
  191.8870  177.1620  142.8460 C   0  0  1  0  0  3  0  0  0  0  0  0
  190.2700  176.0780  141.4550 O   0  0  0  0  0  1  0  0  0  0  0  0
  190.9790  177.2660  141.6310 C   0  0  0  0  0  2  0  0  0  0  0  0
  2  6  2  0  0  0  0
  2  4  1  0  0  0  0
  3 19  1  6  0  0  0
  3  1  1  0  0  0  0
  4  9  1  6  0  0  0
  4  5  1  0  0  0  0
  5  1  1  0  0  0  0
  6  3  1  0  0  0  0
  7  9  2  0  0  0  0
  8 14  1  6  0  0  0
  8 17  1  0  0  0  0
  9 16  1  0  0  0  0
 10 15  1  0  0  0  0
 10 12  1  0  0  0  0
 11 16  2  0  0  0  0
 13 12  1  6  0  0  0
 13  8  1  0  0  0  0
 13  7  1  0  0  0  0
 15 14  2  0  0  0  0
 17 11  1  0  0  0  0
 18 17  2  0  0  0  0
 20 19  1  0  0  0  0
 21 20  1  0  0  0  0
 23 22  1  1  0  0  0
 23 21  1  0  0  0  0
 24 25  1  0  0  0  0
 25 23  1  0  0  0  0
M  END
>  <MODEL>
2

>  <REMARK>
 VINA RESULT:      -7.8      1.900      2.981
  Name = 
  6 active torsions:
  status: ('A' for Active; 'I' for Inactive)
    1  A    between atoms: C_1  and  C_9
    2  A    between atoms: C_1  and  N_15
    3  A    between atoms: C_5  and  N_15
    4  A    between atoms: C_5  and  C_17
    5  A    between atoms: C_8  and  C_17
    6  A    between atoms: C_11  and  C_12
                            x       y       z     vdW  Elec       q    Type
                         _______ _______ _______ _____ _____    ______ ____

>  <TORSDO>
F 6

$$$$
=
 OpenBabel10232408503D

 25 27  0  0  1  0  0  0  0  0999 V2000
  191.6150  175.6230  144.2650 C   0  0  0  0  0  2  0  0  0  0  0  0
  191.3980  178.3460  143.4160 C   0  0  0  0  0  3  0  0  0  0  0  0
  191.5190  176.7270  145.3260 C   0  0  1  0  0  3  0  0  0  0  0  0
  191.1760  177.2350  142.4190 C   0  0  1  0  0  3  0  0  0  0  0  0
  190.7100  175.9380  143.0780 C   0  0  0  0  0  2  0  0  0  0  0  0
  191.5940  178.1090  144.7220 C   0  0  0  0  0  3  0  0  0  0  0  0
  190.4890  177.3100  140.1090 N   0  0  0  0  0  0  0  0  0  0  0  0
  188.2810  177.1820  139.0800 C   0  0  2  0  0  3  0  0  0  0  0  0
  190.2370  177.6620  141.3380 C   0  0  0  0  0  0  0  0  0  0  0  0
  189.7730  175.9860  137.0490 C   0  0  0  0  0  2  0  0  0  0  0  0
  187.9490  178.7640  141.1170 C   0  0  0  0  0  3  0  0  0  0  0  0
  190.4480  177.2050  137.6720 C   0  0  0  0  0  2  0  0  0  0  0  0
  189.7220  177.6980  138.9370 C   0  0  2  0  0  3  0  0  0  0  0  0
  187.6660  176.8880  137.7950 N   0  0  0  0  0  0  0  0  0  0  0  0
  188.3270  176.3140  136.8500 C   0  0  0  0  0  3  0  0  0  0  0  0
  189.1100  178.5340  141.7430 C   0  0  0  0  0  3  0  0  0  0  0  0
  187.4690  178.1730  139.8570 C   0  0  0  0  0  0  0  0  0  0  0  0
  186.3230  178.5000  139.4500 O   0  0  0  0  0  0  0  0  0  0  0  0
  190.2310  176.5960  146.1240 C   0  0  0  0  0  2  0  0  0  0  0  0
  189.5150  177.8630  146.1280 N   0  0  0  0  0  2  0  0  0  0  0  0
  188.1810  177.6000  146.6430 C   0  0  0  0  0  2  0  0  0  0  0  0
  187.0660  177.1470  144.4870 C   0  0  0  0  0  1  0  0  0  0  0  0
  187.1230  178.0940  145.6660 C   0  0  1  0  0  3  0  0  0  0  0  0
  185.5040  179.4160  146.8300 O   0  0  0  0  0  1  0  0  0  0  0  0
  185.7550  178.1390  146.3290 C   0  0  0  0  0  2  0  0  0  0  0  0
  1  3  1  0  0  0  0
  2  6  2  0  0  0  0
  3 19  1  6  0  0  0
  4  9  1  6  0  0  0
  4  5  1  0  0  0  0
  4  2  1  0  0  0  0
  5  1  1  0  0  0  0
  6  3  1  0  0  0  0
  7  9  2  0  0  0  0
  8 14  1  6  0  0  0
  8 17  1  0  0  0  0
  9 16  1  0  0  0  0
 10 12  1  0  0  0  0
 11 16  2  0  0  0  0
 13 12  1  6  0  0  0
 13  8  1  0  0  0  0
 13  7  1  0  0  0  0
 15 10  1  0  0  0  0
 15 14  2  0  0  0  0
 17 11  1  0  0  0  0
 18 17  2  0  0  0  0
 19 20  1  0  0  0  0
 20 21  1  0  0  0  0
 23 22  1  6  0  0  0
 23 25  1  0  0  0  0
 23 21  1  0  0  0  0
 25 24  1  0  0  0  0
M  END
>  <MODEL>
3

>  <REMARK>
 VINA RESULT:      -7.6      2.509      5.714
  Name = 
  6 active torsions:
  status: ('A' for Active; 'I' for Inactive)
    1  A    between atoms: C_1  and  C_9
    2  A    between atoms: C_1  and  N_15
    3  A    between atoms: C_5  and  N_15
    4  A    between atoms: C_5  and  C_17
    5  A    between atoms: C_8  and  C_17
    6  A    between atoms: C_11  and  C_12
                            x       y       z     vdW  Elec       q    Type
                         _______ _______ _______ _____ _____    ______ ____

>  <TORSDO>
F 6

$$$$
=
 OpenBabel10232408503D

 25 27  0  0  1  0  0  0  0  0999 V2000
  191.4220  176.3550  144.7430 C   0  0  0  0  0  2  0  0  0  0  0  0
  190.8180  178.6770  143.1860 C   0  0  0  0  0  3  0  0  0  0  0  0
  190.5630  177.4650  145.3650 C   0  0  1  0  0  3  0  0  0  0  0  0
  191.3800  177.4510  142.5080 C   0  0  1  0  0  3  0  0  0  0  0  0
  191.0700  176.1640  143.2710 C   0  0  0  0  0  2  0  0  0  0  0  0
  190.4900  178.6910  144.4870 C   0  0  0  0  0  3  0  0  0  0  0  0
  191.7560  176.9410  140.1820 N   0  0  0  0  0  0  0  0  0  0  0  0
  190.3140  175.9100  138.5050 C   0  0  2  0  0  3  0  0  0  0  0  0
  190.9210  177.3630  141.0890 C   0  0  0  0  0  0  0  0  0  0  0  0
  192.7820  175.0130  137.5630 C   0  0  0  0  0  2  0  0  0  0  0  0
  188.7530  177.5660  139.7640 C   0  0  0  0  0  3  0  0  0  0  0  0
  192.7920  176.4670  138.0240 C   0  0  0  0  0  2  0  0  0  0  0  0
  191.4950  176.8630  138.7540 C   0  0  2  0  0  3  0  0  0  0  0  0
  190.4070  175.2360  137.2200 N   0  0  0  0  0  0  0  0  0  0  0  0
  191.5300  174.7900  136.7740 C   0  0  0  0  0  3  0  0  0  0  0  0
  189.5490  177.8450  140.8030 C   0  0  0  0  0  3  0  0  0  0  0  0
  189.0260  176.6650  138.6310 C   0  0  0  0  0  0  0  0  0  0  0  0
  188.1240  176.5140  137.7660 O   0  0  0  0  0  0  0  0  0  0  0  0
  189.1560  176.9620  145.6460 C   0  0  0  0  0  2  0  0  0  0  0  0
  188.2230  178.0780  145.6680 N   0  0  0  0  0  2  0  0  0  0  0  0
  187.0090  177.6360  145.0010 C   0  0  0  0  0  2  0  0  0  0  0  0
  186.2310  178.7070  147.0860 C   0  0  0  0  0  1  0  0  0  0  0  0
  185.7800  178.0260  145.8110 C   0  0  1  0  0  3  0  0  0  0  0  0
  183.6420  179.0840  145.6260 O   0  0  0  0  0  1  0  0  0  0  0  0
  184.8980  178.9840  145.0270 C   0  0  0  0  0  2  0  0  0  0  0  0
  1  3  1  0  0  0  0
  2  6  2  0  0  0  0
  3 19  1  6  0  0  0
  4  9  1  6  0  0  0
  4  2  1  0  0  0  0
  4  5  1  0  0  0  0
  5  1  1  0  0  0  0
  6  3  1  0  0  0  0
  7  9  2  0  0  0  0
  8 14  1  6  0  0  0
  8 17  1  0  0  0  0
  8 13  1  0  0  0  0
 10 12  1  0  0  0  0
 11 16  2  0  0  0  0
 13 12  1  6  0  0  0
 13  7  1  0  0  0  0
 15 14  2  0  0  0  0
 15 10  1  0  0  0  0
 16  9  1  0  0  0  0
 17 11  1  0  0  0  0
 18 17  2  0  0  0  0
 19 20  1  0  0  0  0
 21 20  1  0  0  0  0
 21 23  1  0  0  0  0
 23 22  1  1  0  0  0
 25 24  1  0  0  0  0
 25 23  1  0  0  0  0
M  END
>  <MODEL>
4

>  <REMARK>
 VINA RESULT:      -7.4      2.205      6.954
  Name = 
  6 active torsions:
  status: ('A' for Active; 'I' for Inactive)
    1  A    between atoms: C_1  and  C_9
    2  A    between atoms: C_1  and  N_15
    3  A    between atoms: C_5  and  N_15
    4  A    between atoms: C_5  and  C_17
    5  A    between atoms: C_8  and  C_17
    6  A    between atoms: C_11  and  C_12
                            x       y       z     vdW  Elec       q    Type
                         _______ _______ _______ _____ _____    ______ ____

>  <TORSDO>
F 6

$$$$
=
 OpenBabel10232408503D

 25 27  0  0  1  0  0  0  0  0999 V2000
  189.0740  178.6290  139.7080 C   0  0  0  0  0  2  0  0  0  0  0  0
  190.1580  177.2380  141.9600 C   0  0  0  0  0  3  0  0  0  0  0  0
  189.9500  177.3910  139.4670 C   0  0  1  0  0  3  0  0  0  0  0  0
  189.0550  178.2470  142.1680 C   0  0  1  0  0  3  0  0  0  0  0  0
  188.1820  178.4260  140.9280 C   0  0  0  0  0  2  0  0  0  0  0  0
  190.5880  176.8860  140.7390 C   0  0  0  0  0  3  0  0  0  0  0  0
  188.8350  177.6240  144.4870 N   0  0  0  0  0  0  0  0  0  0  0  0
  187.2320  178.3090  146.1940 C   0  0  2  0  0  3  0  0  0  0  0  0
  188.2310  177.9050  143.3660 C   0  0  0  0  0  0  0  0  0  0  0  0
  189.4490  177.8790  147.8320 C   0  0  0  0  0  2  0  0  0  0  0  0
  185.7810  177.9180  144.0710 C   0  0  0  0  0  3  0  0  0  0  0  0
  189.2700  176.8200  146.7490 C   0  0  0  0  0  2  0  0  0  0  0  0
  188.1910  177.2040  145.7200 C   0  0  2  0  0  3  0  0  0  0  0  0
  187.0900  178.3390  147.6410 N   0  0  0  0  0  0  0  0  0  0  0  0
  188.1030  178.1680  148.4180 C   0  0  0  0  0  3  0  0  0  0  0  0
  186.7650  177.8330  143.1660 C   0  0  0  0  0  3  0  0  0  0  0  0
  185.9030  178.1410  145.5210 C   0  0  0  0  0  0  0  0  0  0  0  0
  184.8440  178.2220  146.1970 O   0  0  0  0  0  0  0  0  0  0  0  0
  189.1380  176.2730  138.8320 C   0  0  0  0  0  2  0  0  0  0  0  0
  188.7310  176.6540  137.4890 N   0  0  0  0  0  2  0  0  0  0  0  0
  187.3450  176.2430  137.3280 C   0  0  0  0  0  2  0  0  0  0  0  0
  185.8300  178.0670  138.0190 C   0  0  0  0  0  1  0  0  0  0  0  0
  186.4960  177.4060  136.8320 C   0  0  1  0  0  3  0  0  0  0  0  0
  187.4090  179.6180  136.8510 O   0  0  0  0  0  1  0  0  0  0  0  0
  187.3570  178.4350  136.1140 C   0  0  0  0  0  2  0  0  0  0  0  0
  1  5  1  0  0  0  0
  2  4  1  0  0  0  0
  3 19  1  1  0  0  0
  3  1  1  0  0  0  0
  3  6  1  0  0  0  0
  4  9  1  1  0  0  0
  5  4  1  0  0  0  0
  6  2  2  0  0  0  0
  7 13  1  0  0  0  0
  8 17  1  6  0  0  0
  8 14  1  0  0  0  0
  9  7  2  0  0  0  0
 10 15  1  0  0  0  0
 11 17  1  0  0  0  0
 12 10  1  0  0  0  0
 13  8  1  0  0  0  0
 13 12  1  1  0  0  0
 14 15  2  0  0  0  0
 16  9  1  0  0  0  0
 16 11  2  0  0  0  0
 17 18  2  0  0  0  0
 20 19  1  0  0  0  0
 21 20  1  0  0  0  0
 23 21  1  0  0  0  0
 23 22  1  1  0  0  0
 25 23  1  0  0  0  0
 25 24  1  0  0  0  0
M  END
>  <MODEL>
5

>  <REMARK>
 VINA RESULT:      -7.4      2.495      4.544
  Name = 
  6 active torsions:
  status: ('A' for Active; 'I' for Inactive)
    1  A    between atoms: C_1  and  C_9
    2  A    between atoms: C_1  and  N_15
    3  A    between atoms: C_5  and  N_15
    4  A    between atoms: C_5  and  C_17
    5  A    between atoms: C_8  and  C_17
    6  A    between atoms: C_11  and  C_12
                            x       y       z     vdW  Elec       q    Type
                         _______ _______ _______ _____ _____    ______ ____

>  <TORSDO>
F 6

$$$$
=
 OpenBabel10232408503D

 25 27  0  0  1  0  0  0  0  0999 V2000
  191.5860  176.0040  143.6150 C   0  0  0  0  0  2  0  0  0  0  0  0
  190.4600  178.6210  143.3610 C   0  0  0  0  0  3  0  0  0  0  0  0
  191.9020  177.0570  144.6860 C   0  0  1  0  0  3  0  0  0  0  0  0
  189.9220  177.4930  142.5140 C   0  0  1  0  0  3  0  0  0  0  0  0
  190.1370  176.1230  143.1560 C   0  0  0  0  0  2  0  0  0  0  0  0
  191.3850  178.4250  144.3120 C   0  0  0  0  0  3  0  0  0  0  0  0
  187.6070  177.7440  143.1390 N   0  0  0  0  0  0  0  0  0  0  0  0
  185.8570  179.2110  142.2800 C   0  0  2  0  0  3  0  0  0  0  0  0
  188.4840  177.7130  142.1750 C   0  0  0  0  0  0  0  0  0  0  0  0
  185.0070  179.0320  144.9310 C   0  0  0  0  0  2  0  0  0  0  0  0
  187.0710  178.3450  140.1490 C   0  0  0  0  0  3  0  0  0  0  0  0
  185.4890  177.7060  144.3490 C   0  0  0  0  0  2  0  0  0  0  0  0
  186.1680  177.8770  142.9780 C   0  0  2  0  0  3  0  0  0  0  0  0
  184.5680  179.7560  142.6750 N   0  0  0  0  0  0  0  0  0  0  0  0
  184.1640  179.7080  143.8970 C   0  0  0  0  0  3  0  0  0  0  0  0
  188.1470  177.8040  140.7350 C   0  0  0  0  0  3  0  0  0  0  0  0
  185.9390  179.0300  140.7940 C   0  0  0  0  0  0  0  0  0  0  0  0
  185.0340  179.5000  140.0550 O   0  0  0  0  0  0  0  0  0  0  0  0
  191.3200  176.6480  146.0300 C   0  0  0  0  0  2  0  0  0  0  0  0
  190.3840  177.6600  146.4960 N   0  0  0  0  0  2  0  0  0  0  0  0
  189.0670  177.0420  146.5280 C   0  0  0  0  0  2  0  0  0  0  0  0
  189.2250  178.2310  148.6880 C   0  0  0  0  0  1  0  0  0  0  0  0
  188.4320  177.2090  147.9020 C   0  0  1  0  0  3  0  0  0  0  0  0
  186.9580  179.0820  147.7050 O   0  0  0  0  0  1  0  0  0  0  0  0
  186.9950  177.6900  147.7780 C   0  0  0  0  0  2  0  0  0  0  0  0
  1  3  1  0  0  0  0
  2  6  2  0  0  0  0
  3 19  1  1  0  0  0
  4  9  1  1  0  0  0
  4  5  1  0  0  0  0
  4  2  1  0  0  0  0
  5  1  1  0  0  0  0
  6  3  1  0  0  0  0
  8 17  1  6  0  0  0
  8 14  1  0  0  0  0
  8 13  1  0  0  0  0
  9  7  2  0  0  0  0
 11 16  2  0  0  0  0
 11 17  1  0  0  0  0
 12 10  1  0  0  0  0
 13  7  1  0  0  0  0
 13 12  1  1  0  0  0
 14 15  2  0  0  0  0
 15 10  1  0  0  0  0
 16  9  1  0  0  0  0
 18 17  2  0  0  0  0
 19 20  1  0  0  0  0
 20 21  1  0  0  0  0
 21 23  1  0  0  0  0
 23 22  1  1  0  0  0
 24 25  1  0  0  0  0
 25 23  1  0  0  0  0
M  END
>  <MODEL>
6

>  <REMARK>
 VINA RESULT:      -7.2      2.223      5.041
  Name = 
  6 active torsions:
  status: ('A' for Active; 'I' for Inactive)
    1  A    between atoms: C_1  and  C_9
    2  A    between atoms: C_1  and  N_15
    3  A    between atoms: C_5  and  N_15
    4  A    between atoms: C_5  and  C_17
    5  A    between atoms: C_8  and  C_17
    6  A    between atoms: C_11  and  C_12
                            x       y       z     vdW  Elec       q    Type
                         _______ _______ _______ _____ _____    ______ ____

>  <TORSDO>
F 6

$$$$
=
 OpenBabel10232408503D

 25 27  0  0  1  0  0  0  0  0999 V2000
  183.3540  178.7870  145.4440 C   0  0  0  0  0  2  0  0  0  0  0  0
  185.8610  179.7090  144.4210 C   0  0  0  0  0  3  0  0  0  0  0  0
  183.4070  179.3830  144.0300 C   0  0  1  0  0  3  0  0  0  0  0  0
  185.8340  178.8440  145.6580 C   0  0  1  0  0  3  0  0  0  0  0  0
  184.5970  177.9480  145.7210 C   0  0  0  0  0  2  0  0  0  0  0  0
  184.7550  179.9840  143.7130 C   0  0  0  0  0  3  0  0  0  0  0  0
  187.7120  177.6750  144.6980 N   0  0  0  0  0  0  0  0  0  0  0  0
  190.0460  177.5320  145.3930 C   0  0  2  0  0  3  0  0  0  0  0  0
  187.0890  178.0440  145.7820 C   0  0  0  0  0  0  0  0  0  0  0  0
  190.4020  177.3070  142.6350 C   0  0  0  0  0  2  0  0  0  0  0  0
  188.7020  177.2860  147.6050 C   0  0  0  0  0  3  0  0  0  0  0  0
  189.2150  176.5110  143.1690 C   0  0  0  0  0  2  0  0  0  0  0  0
  188.8990  176.8390  144.6390 C   0  0  2  0  0  3  0  0  0  0  0  0
  191.3520  177.1960  144.8470 N   0  0  0  0  0  0  0  0  0  0  0  0
  191.5480  177.1110  143.5770 C   0  0  0  0  0  3  0  0  0  0  0  0
  187.4970  177.6570  147.1530 C   0  0  0  0  0  3  0  0  0  0  0  0
  189.9630  177.1970  146.8510 C   0  0  0  0  0  0  0  0  0  0  0  0
  191.0020  176.8560  147.4750 O   0  0  0  0  0  0  0  0  0  0  0  0
  183.0690  178.3270  142.9890 C   0  0  0  0  0  2  0  0  0  0  0  0
  181.9700  178.7840  142.1530 N   0  0  0  0  0  2  0  0  0  0  0  0
  182.5120  179.0240  140.8250 C   0  0  0  0  0  2  0  0  0  0  0  0
  183.1840  177.0680  139.4750 C   0  0  0  0  0  1  0  0  0  0  0  0
  183.6470  178.0530  140.5270 C   0  0  1  0  0  3  0  0  0  0  0  0
  184.4770  179.9220  139.2860 O   0  0  0  0  0  1  0  0  0  0  0  0
  184.8680  178.7930  140.0060 C   0  0  0  0  0  2  0  0  0  0  0  0
  1  5  1  0  0  0  0
  2  4  1  0  0  0  0
  3 19  1  6  0  0  0
  3  1  1  0  0  0  0
  4  5  1  0  0  0  0
  4  9  1  6  0  0  0
  6  3  1  0  0  0  0
  6  2  2  0  0  0  0
  7  9  2  0  0  0  0
  8 14  1  6  0  0  0
  8 17  1  0  0  0  0
  9 16  1  0  0  0  0
 10 12  1  0  0  0  0
 10 15  1  0  0  0  0
 13 12  1  6  0  0  0
 13  7  1  0  0  0  0
 13  8  1  0  0  0  0
 15 14  2  0  0  0  0
 16 11  2  0  0  0  0
 17 18  2  0  0  0  0
 17 11  1  0  0  0  0
 20 19  1  0  0  0  0
 21 20  1  0  0  0  0
 23 22  1  6  0  0  0
 23 21  1  0  0  0  0
 24 25  1  0  0  0  0
 25 23  1  0  0  0  0
M  END
>  <MODEL>
7

>  <REMARK>
 VINA RESULT:      -7.1      2.410      6.375
  Name = 
  6 active torsions:
  status: ('A' for Active; 'I' for Inactive)
    1  A    between atoms: C_1  and  C_9
    2  A    between atoms: C_1  and  N_15
    3  A    between atoms: C_5  and  N_15
    4  A    between atoms: C_5  and  C_17
    5  A    between atoms: C_8  and  C_17
    6  A    between atoms: C_11  and  C_12
                            x       y       z     vdW  Elec       q    Type
                         _______ _______ _______ _____ _____    ______ ____

>  <TORSDO>
F 6

$$$$
=
 OpenBabel10232408503D

 25 27  0  0  1  0  0  0  0  0999 V2000
  188.9870  178.6130  139.0010 C   0  0  0  0  0  2  0  0  0  0  0  0
  189.3430  178.0350  141.7800 C   0  0  0  0  0  3  0  0  0  0  0  0
  190.1000  177.6440  139.4230 C   0  0  1  0  0  3  0  0  0  0  0  0
  188.0800  178.7190  141.3170 C   0  0  1  0  0  3  0  0  0  0  0  0
  187.7430  178.4080  139.8600 C   0  0  0  0  0  2  0  0  0  0  0  0
  190.2720  177.5890  140.9220 C   0  0  0  0  0  3  0  0  0  0  0  0
  187.1770  178.0540  143.4520 N   0  0  0  0  0  0  0  0  0  0  0  0
  185.1920  178.7930  144.6630 C   0  0  2  0  0  3  0  0  0  0  0  0
  186.9320  178.3980  142.2190 C   0  0  0  0  0  0  0  0  0  0  0  0
  186.8260  178.1890  146.8420 C   0  0  0  0  0  2  0  0  0  0  0  0
  184.3870  178.5430  142.2020 C   0  0  0  0  0  3  0  0  0  0  0  0
  186.9090  177.1690  145.7100 C   0  0  0  0  0  2  0  0  0  0  0  0
  186.1880  177.6440  144.4350 C   0  0  2  0  0  3  0  0  0  0  0  0
  184.6460  178.7950  146.0110 N   0  0  0  0  0  0  0  0  0  0  0  0
  185.3860  178.5450  147.0360 C   0  0  0  0  0  3  0  0  0  0  0  0
  185.5820  178.4200  141.6100 C   0  0  0  0  0  3  0  0  0  0  0  0
  184.1030  178.7230  143.6360 C   0  0  0  0  0  0  0  0  0  0  0  0
  182.9010  178.8510  143.9880 O   0  0  0  0  0  0  0  0  0  0  0  0
  189.8240  176.2450  138.8960 C   0  0  0  0  0  2  0  0  0  0  0  0
  189.7490  176.2650  137.4430 N   0  0  0  0  0  2  0  0  0  0  0  0
  191.1150  176.2690  136.9430 C   0  0  0  0  0  2  0  0  0  0  0  0
  191.8390  173.9150  136.7540 C   0  0  0  0  0  1  0  0  0  0  0  0
  191.9290  175.1650  137.6040 C   0  0  1  0  0  3  0  0  0  0  0  0
  193.4850  176.9100  138.1070 O   0  0  0  0  0  1  0  0  0  0  0  0
  193.3890  175.5710  137.7290 C   0  0  0  0  0  2  0  0  0  0  0  0
  1  3  1  0  0  0  0
  1  5  1  0  0  0  0
  3 19  1  1  0  0  0
  3  6  1  0  0  0  0
  4  2  1  0  0  0  0
  4  9  1  1  0  0  0
  5  4  1  0  0  0  0
  6  2  2  0  0  0  0
  7 13  1  0  0  0  0
  8 17  1  6  0  0  0
  8 14  1  0  0  0  0
  9  7  2  0  0  0  0
 10 15  1  0  0  0  0
 11 17  1  0  0  0  0
 12 10  1  0  0  0  0
 13  8  1  0  0  0  0
 13 12  1  1  0  0  0
 14 15  2  0  0  0  0
 16 11  2  0  0  0  0
 16  9  1  0  0  0  0
 17 18  2  0  0  0  0
 20 19  1  0  0  0  0
 21 20  1  0  0  0  0
 21 23  1  0  0  0  0
 23 22  1  6  0  0  0
 23 25  1  0  0  0  0
 25 24  1  0  0  0  0
M  END
>  <MODEL>
8

>  <REMARK>
 VINA RESULT:      -7.1      2.270      4.013
  Name = 
  6 active torsions:
  status: ('A' for Active; 'I' for Inactive)
    1  A    between atoms: C_1  and  C_9
    2  A    between atoms: C_1  and  N_15
    3  A    between atoms: C_5  and  N_15
    4  A    between atoms: C_5  and  C_17
    5  A    between atoms: C_8  and  C_17
    6  A    between atoms: C_11  and  C_12
                            x       y       z     vdW  Elec       q    Type
                         _______ _______ _______ _____ _____    ______ ____

>  <TORSDO>
F 6

$$$$
=
 OpenBabel10232408503D

 25 27  0  0  1  0  0  0  0  0999 V2000
  183.3170  178.9980  142.4510 C   0  0  0  0  0  2  0  0  0  0  0  0
  186.1060  178.9430  141.8200 C   0  0  0  0  0  3  0  0  0  0  0  0
  183.7450  178.7920  140.9920 C   0  0  1  0  0  3  0  0  0  0  0  0
  185.6660  178.8250  143.2590 C   0  0  1  0  0  3  0  0  0  0  0  0
  184.2550  178.2550  143.3960 C   0  0  0  0  0  2  0  0  0  0  0  0
  185.2320  178.9700  140.8020 C   0  0  0  0  0  3  0  0  0  0  0  0
  187.6500  177.4680  143.4470 N   0  0  0  0  0  0  0  0  0  0  0  0
  189.4060  177.4080  145.1390 C   0  0  2  0  0  3  0  0  0  0  0  0
  186.6500  178.0370  144.0600 C   0  0  0  0  0  0  0  0  0  0  0  0
  190.9260  176.6850  142.9140 C   0  0  0  0  0  2  0  0  0  0  0  0
  187.2020  177.5890  146.5080 C   0  0  0  0  0  3  0  0  0  0  0  0
  189.5530  176.0200  142.9640 C   0  0  0  0  0  2  0  0  0  0  0  0
  188.6510  176.6120  144.0620 C   0  0  2  0  0  3  0  0  0  0  0  0
  190.7780  176.9550  145.3040 N   0  0  0  0  0  0  0  0  0  0  0  0
  191.5080  176.6390  144.2910 C   0  0  0  0  0  3  0  0  0  0  0  0
  186.3670  177.8950  145.5070 C   0  0  0  0  0  3  0  0  0  0  0  0
  188.6520  177.3420  146.4320 C   0  0  0  0  0  0  0  0  0  0  0  0
  189.2660  177.0980  147.5040 O   0  0  0  0  0  0  0  0  0  0  0  0
  183.3360  177.4130  140.5010 C   0  0  0  0  0  2  0  0  0  0  0  0
  181.9780  177.4520  139.9810 N   0  0  0  0  0  2  0  0  0  0  0  0
  181.9180  178.5400  139.0180 C   0  0  0  0  0  2  0  0  0  0  0  0
  180.0130  178.9710  140.5310 C   0  0  0  0  0  1  0  0  0  0  0  0
  180.6450  179.3530  139.2090 C   0  0  1  0  0  3  0  0  0  0  0  0
  182.0800  181.1090  138.4470 O   0  0  0  0  0  1  0  0  0  0  0  0
  180.9510  180.8430  139.2210 C   0  0  0  0  0  2  0  0  0  0  0  0
  1  5  1  0  0  0  0
  2  4  1  0  0  0  0
  3 19  1  1  0  0  0
  3  1  1  0  0  0  0
  4  5  1  0  0  0  0
  4  9  1  1  0  0  0
  6  3  1  0  0  0  0
  6  2  2  0  0  0  0
  7  9  2  0  0  0  0
  7 13  1  0  0  0  0
  8 14  1  1  0  0  0
  8 17  1  0  0  0  0
  9 16  1  0  0  0  0
 10 12  1  0  0  0  0
 10 15  1  0  0  0  0
 13 12  1  6  0  0  0
 13  8  1  0  0  0  0
 15 14  2  0  0  0  0
 16 11  2  0  0  0  0
 17 11  1  0  0  0  0
 17 18  2  0  0  0  0
 20 19  1  0  0  0  0
 21 23  1  0  0  0  0
 21 20  1  0  0  0  0
 23 25  1  0  0  0  0
 23 22  1  1  0  0  0
 24 25  1  0  0  0  0
M  END
>  <MODEL>
9

>  <REMARK>
 VINA RESULT:      -7.0      2.761      6.851
  Name = 
  6 active torsions:
  status: ('A' for Active; 'I' for Inactive)
    1  A    between atoms: C_1  and  C_9
    2  A    between atoms: C_1  and  N_15
    3  A    between atoms: C_5  and  N_15
    4  A    between atoms: C_5  and  C_17
    5  A    between atoms: C_8  and  C_17
    6  A    between atoms: C_11  and  C_12
                            x       y       z     vdW  Elec       q    Type
                         _______ _______ _______ _____ _____    ______ ____

>  <TORSDO>
F 6

$$$$
