=
 OpenBabel10232410503D

 65 69  0  0  1  0  0  0  0  0999 V2000
  186.1050  179.2780  142.7380 C   0  0  0  0  0  2  0  0  0  0  0  0
  184.8250  178.9350  142.0430 C   0  0  0  0  0  3  0  0  0  0  0  0
  187.5790  177.7980  144.0680 C   0  0  0  0  0  0  0  0  0  0  0  0
  184.0540  179.0180  144.9600 N   0  0  0  0  0  2  0  0  0  0  0  0
  185.5010  177.5960  146.0390 O   0  0  0  0  0  0  0  0  0  0  0  0
  186.3600  178.4050  143.9430 C   0  0  0  0  0  0  0  0  0  0  0  0
  185.3110  178.3240  145.0280 C   0  0  0  0  0  0  0  0  0  0  0  0
  183.6480  179.2480  142.5890 C   0  0  0  0  0  0  0  0  0  0  0  0
  183.6170  179.9330  143.9130 C   0  0  0  0  0  2  0  0  0  0  0  0
  191.3150  177.2450  146.2610 C   0  0  0  0  0  3  0  0  0  0  0  0
  189.2340  177.0610  145.9030 C   0  0  0  0  0  0  0  0  0  0  0  0
  190.7210  176.6040  147.3330 C   0  0  0  0  0  3  0  0  0  0  0  0
  190.3650  177.5350  145.3500 N   0  0  0  0  0  0  0  0  0  0  0  0
  189.4390  176.5080  147.0700 O   0  0  0  0  0  0  0  0  0  0  0  0
  187.9340  177.1560  145.3080 N   0  0  0  0  0  2  0  0  0  0  0  0
  188.8040  176.8530  142.1200 C   0  0  0  0  0  3  0  0  0  0  0  0
  188.6010  177.8370  142.9910 C   0  0  0  0  0  3  0  0  0  0  0  0
  190.9340  176.6990  139.0180 C   0  0  1  0  0  3  0  0  0  0  0  0
  189.5570  176.5900  139.6990 C   0  0  1  0  0  3  0  0  0  0  0  0
  192.9820  177.6260  139.9510 O   0  0  0  0  0  0  0  0  0  0  0  0
  189.7910  176.9650  141.0920 N   0  0  0  0  0  0  0  0  0  0  0  0
  191.7790  177.2850  140.0970 C   0  0  0  0  0  0  0  0  0  0  0  0
  191.0940  177.4030  141.3220 N   0  0  0  0  0  2  0  0  0  0  0  0
  188.3900  177.7250  138.9510 S   0  0  0  0  0  0  0  0  0  0  0  0
  189.0280  179.0770  138.7830 O   0  0  0  0  0  0  0  0  0  0  0  0
  187.2090  177.8580  139.8690 O   0  0  0  0  0  0  0  0  0  0  0  0
  187.7950  177.1250  137.3720 C   0  0  2  0  0  3  0  0  0  0  0  0
  187.3490  178.2400  136.4840 C   0  0  0  0  0  0  0  0  0  0  0  0
  186.7150  179.2110  136.9750 O   0  0  0  0  0  1  0  0  0  0  0  0
  187.6680  178.2350  135.1310 O   0  0  0  0  0  0  0  0  0  0  0  0
  187.1570  175.0470  136.9570 C   0  0  0  0  0  1  0  0  0  0  0  0
  186.7410  176.2310  137.5710 O   0  0  0  0  0  0  0  0  0  0  0  0
  191.3930  175.4110  138.7290 O   0  0  0  0  0  0  0  0  0  0  0  0
  191.3080  175.2910  137.3400 C   0  0  0  0  0  2  0  0  0  0  0  0
  192.7000  175.3660  136.7510 C   0  0  0  0  0  2  0  0  0  0  0  0
  193.6880  174.6230  137.6310 C   0  0  0  0  0  2  0  0  0  0  0  0
  195.2140  175.2150  139.1810 O   0  0  0  0  0  1  0  0  0  0  0  0
  194.8450  175.4600  137.9010 N   0  0  0  0  0  2  0  0  0  0  0  0
  182.4370  178.9500  141.9560 O   0  0  0  0  0  0  0  0  0  0  0  0
  181.9190  177.6270  141.8540 C   0  0  0  0  0  2  0  0  0  0  0  0
  181.1420  177.4870  140.5850 C   0  0  0  0  0  0  0  0  0  0  0  0
  181.4350  176.5280  139.7710 N   0  0  0  0  0  0  0  0  0  0  0  0
  180.7230  176.2980  138.5370 C   0  0  0  0  0  2  0  0  0  0  0  0
  181.4960  174.4620  136.9240 N   0  0  0  0  0  2  0  0  0  0  0  0
  180.8490  174.8610  138.1400 C   0  0  0  0  0  0  0  0  0  0  0  0
  180.3400  173.9770  138.8780 O   0  0  0  0  0  0  0  0  0  0  0  0
  182.2170  175.3180  135.9800 C   0  0  2  0  0  3  0  0  0  0  0  0
  184.3650  172.8200  134.6580 C   0  0  2  0  0  3  0  0  0  0  0  0
  184.1440  173.9910  135.4010 O   0  0  0  0  0  0  0  0  0  0  0  0
  182.1000  173.3550  134.3490 C   0  0  0  0  0  2  0  0  0  0  0  0
  183.0120  172.1680  134.4010 C   0  0  2  0  0  3  0  0  0  0  0  0
  182.9350  174.5030  134.9010 C   0  0  1  0  0  3  0  0  0  0  0  0
  182.5650  171.2780  135.5530 C   0  0  0  0  0  1  0  0  0  0  0  0
  185.4020  171.9100  135.3260 C   0  0  2  0  0  3  0  0  0  0  0  0
  185.1620  170.4620  134.9420 C   0  0  0  0  0  1  0  0  0  0  0  0
  185.3110  172.0290  136.7140 O   0  0  0  0  0  1  0  0  0  0  0  0
  183.0960  176.3610  136.6690 C   0  0  0  0  0  2  0  0  0  0  0  0
  184.0300  176.8660  135.7640 O   0  0  0  0  0  1  0  0  0  0  0  0
  180.0050  178.4340  140.3250 C   0  0  0  0  0  2  0  0  0  0  0  0
  180.3630  179.4090  139.2540 C   0  0  0  0  0  0  0  0  0  0  0  0
  181.0540  180.5820  139.5790 C   0  0  0  0  0  3  0  0  0  0  0  0
  180.9900  181.2670  137.2590 C   0  0  0  0  0  3  0  0  0  0  0  0
  179.9830  179.1690  137.9280 C   0  0  0  0  0  3  0  0  0  0  0  0
  180.2950  180.0980  136.9320 C   0  0  0  0  0  3  0  0  0  0  0  0
  181.3680  181.5090  138.5830 C   0  0  0  0  0  3  0  0  0  0  0  0
  1  6  1  0  0  0  0
  2  8  2  0  0  0  0
  2  1  1  0  0  0  0
  3 15  1  0  0  0  0
  4  7  1  0  0  0  0
  6  3  2  0  0  0  0
  6  7  1  0  0  0  0
  7  5  2  0  0  0  0
  8  9  1  0  0  0  0
  9  4  1  0  0  0  0
 10 12  2  0  0  0  0
 11 14  1  0  0  0  0
 13 11  2  0  0  0  0
 13 10  1  0  0  0  0
 14 12  1  0  0  0  0
 15 11  1  0  0  0  0
 16 17  2  0  0  0  0
 17  3  1  0  0  0  0
 18 33  1  1  0  0  0
 18 19  1  0  0  0  0
 18 22  1  0  0  0  0
 19 24  1  6  0  0  0
 19 21  1  0  0  0  0
 20 22  2  0  0  0  0
 21 23  1  0  0  0  0
 21 16  1  0  0  0  0
 22 23  1  0  0  0  0
 24 26  2  0  0  0  0
 25 24  2  0  0  0  0
 27 28  1  6  0  0  0
 27 32  1  0  0  0  0
 27 24  1  0  0  0  0
 28 29  1  0  0  0  0
 30 28  2  0  0  0  0
 31 32  1  0  0  0  0
 34 33  1  0  0  0  0
 35 34  1  0  0  0  0
 35 36  1  0  0  0  0
 36 38  1  0  0  0  0
 38 37  1  0  0  0  0
 39  8  1  0  0  0  0
 40 39  1  0  0  0  0
 41 40  1  0  0  0  0
 42 41  2  0  0  0  0
 43 42  1  0  0  0  0
 44 45  1  0  0  0  0
 45 43  1  0  0  0  0
 45 46  2  0  0  0  0
 47 57  1  1  0  0  0
 47 44  1  0  0  0  0
 48 54  1  1  0  0  0
 48 49  1  0  0  0  0
 50 51  1  0  0  0  0
 50 52  1  0  0  0  0
 51 48  1  0  0  0  0
 51 53  1  1  0  0  0
 52 49  1  0  0  0  0
 52 47  1  1  0  0  0
 54 55  1  1  0  0  0
 54 56  1  0  0  0  0
 58 57  1  0  0  0  0
 59 41  1  0  0  0  0
 60 61  1  0  0  0  0
 60 59  1  0  0  0  0
 62 65  1  0  0  0  0
 63 60  2  0  0  0  0
 64 62  2  0  0  0  0
 64 63  1  0  0  0  0
 65 61  2  0  0  0  0
M  END
>  <MODEL>
1

>  <REMARK>
 VINA RESULT:      -6.3      0.000      0.000
  Name = 
  23 active torsions:
  status: ('A' for Active; 'I' for Inactive)
    1  A    between atoms: C_1  and  C_13
    2  A    between atoms: C_2  and  N_25
    3  A    between atoms: C_3  and  C_62
    4  A    between atoms: S_4  and  C_9
    5  A    between atoms: S_4  and  C_21
    6  A    between atoms: C_6  and  O_63
    7  A    between atoms: N_7  and  CA_49
    8  A    between atoms: C_8  and  C_38
    9  A    between atoms: C_17  and  CA_49
   10  A    between atoms: C_20  and  C_26
   11  A    between atoms: C_21  and  O_30
   12  A    between atoms: C_21  and  C_33
   13  A    between atoms: C_26  and  N_61
   14  A    between atoms: C_31  and  CA_49
   15  A    between atoms: C_32  and  C_44
   16  A    between atoms: C_32  and  C_64
   17  A    between atoms: C_38  and  N_54
   18  A    between atoms: C_39  and  C_47
   19  A    between atoms: C_39  and  O_56
   20  A    between atoms: C_44  and  O_63
   21  A    between atoms: C_47  and  C_62
   22  A    between atoms: C_53  and  O_56
   23  A    between atoms: N_55  and  C_64
                            x       y       z     vdW  Elec       q    Type
                         _______ _______ _______ _____ _____    ______ ____

>  <TORSDO>
F 23

$$$$
=
 OpenBabel10232410503D

 65 69  0  0  1  0  0  0  0  0999 V2000
  187.7730  178.5320  139.5490 C   0  0  0  0  0  2  0  0  0  0  0  0
  188.6580  177.4480  139.0180 C   0  0  0  0  0  3  0  0  0  0  0  0
  185.4450  178.3530  140.3750 C   0  0  0  0  0  0  0  0  0  0  0  0
  186.6980  177.9330  136.7740 N   0  0  0  0  0  2  0  0  0  0  0  0
  184.6060  177.7230  137.7030 O   0  0  0  0  0  0  0  0  0  0  0  0
  186.3080  178.2470  139.3190 C   0  0  0  0  0  0  0  0  0  0  0  0
  185.8240  177.9700  137.9150 C   0  0  0  0  0  0  0  0  0  0  0  0
  188.8350  177.2950  137.7050 C   0  0  0  0  0  0  0  0  0  0  0  0
  188.1290  178.2080  136.7620 C   0  0  0  0  0  2  0  0  0  0  0  0
  181.9220  178.8150  142.9140 C   0  0  0  0  0  3  0  0  0  0  0  0
  182.9760  178.4930  141.1040 C   0  0  0  0  0  0  0  0  0  0  0  0
  181.0190  178.7070  141.8720 C   0  0  0  0  0  3  0  0  0  0  0  0
  183.1690  178.6780  142.4220 N   0  0  0  0  0  0  0  0  0  0  0  0
  181.7100  178.5070  140.7750 O   0  0  0  0  0  0  0  0  0  0  0  0
  184.0240  178.3190  140.1420 N   0  0  0  0  0  2  0  0  0  0  0  0
  186.3800  177.6290  142.5640 C   0  0  0  0  0  3  0  0  0  0  0  0
  185.9140  178.5850  141.7650 C   0  0  0  0  0  3  0  0  0  0  0  0
  188.0920  177.8590  145.9100 C   0  0  1  0  0  3  0  0  0  0  0  0
  188.1210  177.4760  144.4180 C   0  0  1  0  0  3  0  0  0  0  0  0
  186.4360  179.2220  147.0600 O   0  0  0  0  0  0  0  0  0  0  0  0
  186.8360  177.9240  143.8860 N   0  0  0  0  0  0  0  0  0  0  0  0
  186.8250  178.6370  146.0160 C   0  0  0  0  0  0  0  0  0  0  0  0
  186.0830  178.6350  144.8180 N   0  0  0  0  0  2  0  0  0  0  0  0
  189.4580  178.3200  143.5740 S   0  0  0  0  0  0  0  0  0  0  0  0
  190.4080  178.9060  144.5810 O   0  0  0  0  0  0  0  0  0  0  0  0
  188.8690  179.4350  142.7580 O   0  0  0  0  0  0  0  0  0  0  0  0
  190.3370  177.2270  142.4600 C   0  0  2  0  0  3  0  0  0  0  0  0
  190.5600  175.8790  143.0620 C   0  0  0  0  0  0  0  0  0  0  0  0
  191.6110  175.6560  143.7180 O   0  0  0  0  0  1  0  0  0  0  0  0
  189.5960  174.8840  142.9400 O   0  0  0  0  0  0  0  0  0  0  0  0
  191.7320  177.4710  140.7600 C   0  0  0  0  0  1  0  0  0  0  0  0
  191.5630  177.7950  142.1090 O   0  0  0  0  0  0  0  0  0  0  0  0
  187.9760  176.6930  146.6690 O   0  0  0  0  0  0  0  0  0  0  0  0
  188.2410  177.0780  147.9850 C   0  0  0  0  0  2  0  0  0  0  0  0
  189.6720  177.5660  148.0780 C   0  0  0  0  0  2  0  0  0  0  0  0
  190.5750  176.7290  147.1900 C   0  0  0  0  0  2  0  0  0  0  0  0
  192.5620  175.6760  147.0400 O   0  0  0  0  0  1  0  0  0  0  0  0
  191.8230  176.4420  147.8770 N   0  0  0  0  0  2  0  0  0  0  0  0
  189.6650  176.2970  137.1820 O   0  0  0  0  0  0  0  0  0  0  0  0
  190.1610  176.3190  135.8480 C   0  0  0  0  0  2  0  0  0  0  0  0
  191.3120  175.3740  135.7220 C   0  0  0  0  0  0  0  0  0  0  0  0
  192.3500  175.7350  135.0430 N   0  0  0  0  0  0  0  0  0  0  0  0
  193.5180  174.9020  134.8900 C   0  0  0  0  0  2  0  0  0  0  0  0
  195.8990  174.8380  135.8370 N   0  0  0  0  0  2  0  0  0  0  0  0
  194.5290  175.2500  135.9370 C   0  0  0  0  0  0  0  0  0  0  0  0
  194.1580  175.8920  136.9530 O   0  0  0  0  0  0  0  0  0  0  0  0
  196.5440  174.1640  134.7080 C   0  0  2  0  0  3  0  0  0  0  0  0
  197.2730  171.0580  136.2640 C   0  0  2  0  0  3  0  0  0  0  0  0
  197.6740  172.2490  135.6370 O   0  0  0  0  0  0  0  0  0  0  0  0
  195.2960  172.0930  135.5340 C   0  0  0  0  0  2  0  0  0  0  0  0
  195.7980  171.1920  136.6210 C   0  0  2  0  0  3  0  0  0  0  0  0
  196.5570  172.6430  134.8810 C   0  0  1  0  0  3  0  0  0  0  0  0
  195.5810  171.8930  137.9550 C   0  0  0  0  0  1  0  0  0  0  0  0
  198.1900  170.6970  137.4380 C   0  0  2  0  0  3  0  0  0  0  0  0
  199.5660  171.3030  137.2410 C   0  0  0  0  0  1  0  0  0  0  0  0
  198.3160  169.3090  137.5300 O   0  0  0  0  0  1  0  0  0  0  0  0
  197.8990  174.7690  134.3460 C   0  0  0  0  0  2  0  0  0  0  0  0
  198.1230  175.9200  135.1030 O   0  0  0  0  0  1  0  0  0  0  0  0
  191.2470  174.0560  136.4390 C   0  0  0  0  0  2  0  0  0  0  0  0
  190.0340  173.2890  136.0270 C   0  0  0  0  0  0  0  0  0  0  0  0
  189.0100  173.0530  136.9500 C   0  0  0  0  0  3  0  0  0  0  0  0
  187.7840  171.8060  135.2760 C   0  0  0  0  0  3  0  0  0  0  0  0
  189.9330  172.7780  134.7280 C   0  0  0  0  0  3  0  0  0  0  0  0
  188.8100  172.0360  134.3530 C   0  0  0  0  0  3  0  0  0  0  0  0
  187.8850  172.3140  136.5750 C   0  0  0  0  0  3  0  0  0  0  0  0
  2  1  1  0  0  0  0
  3 17  1  0  0  0  0
  4  7  1  0  0  0  0
  5  7  2  0  0  0  0
  6  1  1  0  0  0  0
  6  3  2  0  0  0  0
  7  6  1  0  0  0  0
  8  2  2  0  0  0  0
  9  4  1  0  0  0  0
  9  8  1  0  0  0  0
 11 13  2  0  0  0  0
 12 10  2  0  0  0  0
 13 10  1  0  0  0  0
 14 11  1  0  0  0  0
 14 12  1  0  0  0  0
 15  3  1  0  0  0  0
 15 11  1  0  0  0  0
 16 21  1  0  0  0  0
 17 16  2  0  0  0  0
 18 22  1  0  0  0  0
 18 33  1  1  0  0  0
 19 24  1  6  0  0  0
 19 18  1  0  0  0  0
 21 19  1  0  0  0  0
 21 23  1  0  0  0  0
 22 20  2  0  0  0  0
 23 22  1  0  0  0  0
 24 25  2  0  0  0  0
 26 24  2  0  0  0  0
 27 32  1  1  0  0  0
 27 28  1  0  0  0  0
 27 24  1  0  0  0  0
 28 29  1  0  0  0  0
 30 28  2  0  0  0  0
 31 32  1  0  0  0  0
 33 34  1  0  0  0  0
 34 35  1  0  0  0  0
 36 38  1  0  0  0  0
 36 35  1  0  0  0  0
 37 38  1  0  0  0  0
 39  8  1  0  0  0  0
 40 39  1  0  0  0  0
 41 40  1  0  0  0  0
 41 59  1  0  0  0  0
 42 41  2  0  0  0  0
 43 42  1  0  0  0  0
 43 45  1  0  0  0  0
 44 45  1  0  0  0  0
 45 46  2  0  0  0  0
 47 57  1  1  0  0  0
 47 44  1  0  0  0  0
 48 51  1  0  0  0  0
 48 54  1  1  0  0  0
 49 48  1  0  0  0  0
 50 51  1  0  0  0  0
 51 53  1  1  0  0  0
 52 47  1  1  0  0  0
 52 50  1  0  0  0  0
 52 49  1  0  0  0  0
 54 55  1  6  0  0  0
 54 56  1  0  0  0  0
 57 58  1  0  0  0  0
 60 59  1  0  0  0  0
 60 61  1  0  0  0  0
 62 65  1  0  0  0  0
 63 60  2  0  0  0  0
 64 63  1  0  0  0  0
 64 62  2  0  0  0  0
 65 61  2  0  0  0  0
M  END
>  <MODEL>
2

>  <REMARK>
 VINA RESULT:      -6.3      3.231     10.195
  Name = 
  23 active torsions:
  status: ('A' for Active; 'I' for Inactive)
    1  A    between atoms: C_1  and  C_13
    2  A    between atoms: C_2  and  N_25
    3  A    between atoms: C_3  and  C_62
    4  A    between atoms: S_4  and  C_9
    5  A    between atoms: S_4  and  C_21
    6  A    between atoms: C_6  and  O_63
    7  A    between atoms: N_7  and  CA_49
    8  A    between atoms: C_8  and  C_38
    9  A    between atoms: C_17  and  CA_49
   10  A    between atoms: C_20  and  C_26
   11  A    between atoms: C_21  and  O_30
   12  A    between atoms: C_21  and  C_33
   13  A    between atoms: C_26  and  N_61
   14  A    between atoms: C_31  and  CA_49
   15  A    between atoms: C_32  and  C_44
   16  A    between atoms: C_32  and  C_64
   17  A    between atoms: C_38  and  N_54
   18  A    between atoms: C_39  and  C_47
   19  A    between atoms: C_39  and  O_56
   20  A    between atoms: C_44  and  O_63
   21  A    between atoms: C_47  and  C_62
   22  A    between atoms: C_53  and  O_56
   23  A    between atoms: N_55  and  C_64
                            x       y       z     vdW  Elec       q    Type
                         _______ _______ _______ _____ _____    ______ ____

>  <TORSDO>
F 23

$$$$
=
 OpenBabel10232410503D

 65 69  0  0  1  0  0  0  0  0999 V2000
  188.8320  177.7270  139.1080 C   0  0  0  0  0  2  0  0  0  0  0  0
  187.4890  177.4600  138.5060 C   0  0  0  0  0  3  0  0  0  0  0  0
  190.0260  176.4280  140.8460 C   0  0  0  0  0  0  0  0  0  0  0  0
  186.8410  178.5250  141.2550 N   0  0  0  0  0  2  0  0  0  0  0  0
  188.0120  177.2140  142.7350 O   0  0  0  0  0  0  0  0  0  0  0  0
  188.9480  177.2030  140.5190 C   0  0  0  0  0  0  0  0  0  0  0  0
  187.9380  177.6440  141.5530 C   0  0  0  0  0  0  0  0  0  0  0  0
  186.4140  178.1420  138.9070 C   0  0  0  0  0  0  0  0  0  0  0  0
  186.5600  179.1690  139.9780 C   0  0  0  0  0  2  0  0  0  0  0  0
  191.7610  178.6120  144.2060 C   0  0  0  0  0  3  0  0  0  0  0  0
  190.8730  176.9580  143.2230 C   0  0  0  0  0  0  0  0  0  0  0  0
  191.5540  177.5940  145.1190 C   0  0  0  0  0  3  0  0  0  0  0  0
  191.3270  178.2040  142.9970 N   0  0  0  0  0  0  0  0  0  0  0  0
  191.0080  176.5920  144.4710 O   0  0  0  0  0  0  0  0  0  0  0  0
  190.2860  176.1110  142.2270 N   0  0  0  0  0  2  0  0  0  0  0  0
  191.4040  176.6780  138.7900 C   0  0  0  0  0  3  0  0  0  0  0  0
  191.0010  175.9550  139.8310 C   0  0  0  0  0  3  0  0  0  0  0  0
  193.7650  174.6670  136.6530 C   0  0  1  0  0  3  0  0  0  0  0  0
  192.5010  174.7530  137.5290 C   0  0  1  0  0  3  0  0  0  0  0  0
  195.0560  176.5110  135.7260 O   0  0  0  0  0  0  0  0  0  0  0  0
  192.3650  176.1700  137.8610 N   0  0  0  0  0  0  0  0  0  0  0  0
  194.1190  176.1030  136.4600 C   0  0  0  0  0  0  0  0  0  0  0  0
  193.3000  176.9700  137.2080 N   0  0  0  0  0  2  0  0  0  0  0  0
  191.0610  174.2010  136.6180 S   0  0  0  0  0  0  0  0  0  0  0  0
  190.1170  173.4830  137.5430 O   0  0  0  0  0  0  0  0  0  0  0  0
  191.5160  173.2430  135.5540 O   0  0  0  0  0  0  0  0  0  0  0  0
  190.2200  175.5610  135.8120 C   0  0  2  0  0  3  0  0  0  0  0  0
  188.9010  175.1440  135.2480 C   0  0  0  0  0  0  0  0  0  0  0  0
  188.8310  174.1200  134.5190 O   0  0  0  0  0  0  0  0  0  0  0  0
  187.7450  175.8530  135.5580 O   0  0  0  0  0  1  0  0  0  0  0  0
  190.4000  177.2750  134.4240 C   0  0  0  0  0  1  0  0  0  0  0  0
  191.0230  176.0800  134.7950 O   0  0  0  0  0  0  0  0  0  0  0  0
  194.7760  174.0440  137.3870 O   0  0  0  0  0  0  0  0  0  0  0  0
  195.5430  173.3490  136.4480 C   0  0  0  0  0  2  0  0  0  0  0  0
  196.9810  173.3060  136.9180 C   0  0  0  0  0  2  0  0  0  0  0  0
  197.9060  173.8410  135.8410 C   0  0  0  0  0  2  0  0  0  0  0  0
  197.8870  175.8020  136.9520 O   0  0  0  0  0  1  0  0  0  0  0  0
  198.7300  174.9110  136.3770 N   0  0  0  0  0  2  0  0  0  0  0  0
  185.1490  177.9210  138.3540 O   0  0  0  0  0  0  0  0  0  0  0  0
  184.0560  178.8160  138.5300 C   0  0  0  0  0  2  0  0  0  0  0  0
  182.7680  178.0850  138.3320 C   0  0  0  0  0  0  0  0  0  0  0  0
  182.1400  178.2100  137.2100 N   0  0  0  0  0  0  0  0  0  0  0  0
  180.9050  177.5220  136.9180 C   0  0  0  0  0  2  0  0  0  0  0  0
  181.2610  175.9480  134.9280 N   0  0  0  0  0  2  0  0  0  0  0  0
  180.8330  177.2090  135.4570 C   0  0  0  0  0  0  0  0  0  0  0  0
  180.4150  178.0940  134.6640 O   0  0  0  0  0  0  0  0  0  0  0  0
  181.6940  174.7700  135.6810 C   0  0  2  0  0  3  0  0  0  0  0  0
  184.5770  172.7140  135.4260 C   0  0  2  0  0  3  0  0  0  0  0  0
  183.9220  173.8720  135.8770 O   0  0  0  0  0  0  0  0  0  0  0  0
  182.4530  172.6770  134.4260 C   0  0  0  0  0  2  0  0  0  0  0  0
  183.5160  171.7440  134.9200 C   0  0  2  0  0  3  0  0  0  0  0  0
  182.8460  174.0370  134.9880 C   0  0  1  0  0  3  0  0  0  0  0  0
  182.9190  170.8970  136.0360 C   0  0  0  0  0  1  0  0  0  0  0  0
  185.5170  172.1410  136.4920 C   0  0  2  0  0  3  0  0  0  0  0  0
  185.6030  173.0790  137.6810 C   0  0  0  0  0  1  0  0  0  0  0  0
  186.7950  171.9750  135.9550 O   0  0  0  0  0  1  0  0  0  0  0  0
  180.5340  173.8660  136.0970 C   0  0  0  0  0  2  0  0  0  0  0  0
  180.5920  173.6230  137.4700 O   0  0  0  0  0  1  0  0  0  0  0  0
  182.2740  177.1820  139.4260 C   0  0  0  0  0  2  0  0  0  0  0  0
  182.2740  177.8920  140.7390 C   0  0  0  0  0  0  0  0  0  0  0  0
  183.4200  177.8770  141.5410 C   0  0  0  0  0  3  0  0  0  0  0  0
  182.2640  179.1760  143.2240 C   0  0  0  0  0  3  0  0  0  0  0  0
  181.1200  178.5480  141.1840 C   0  0  0  0  0  3  0  0  0  0  0  0
  181.1150  179.1880  142.4260 C   0  0  0  0  0  3  0  0  0  0  0  0
  183.4160  178.5190  142.7820 C   0  0  0  0  0  3  0  0  0  0  0  0
  1  6  1  0  0  0  0
  2  8  2  0  0  0  0
  2  1  1  0  0  0  0
  3 15  1  0  0  0  0
  4  7  1  0  0  0  0
  6  3  2  0  0  0  0
  6  7  1  0  0  0  0
  7  5  2  0  0  0  0
  8  9  1  0  0  0  0
  9  4  1  0  0  0  0
 10 12  2  0  0  0  0
 11 14  1  0  0  0  0
 13 11  2  0  0  0  0
 13 10  1  0  0  0  0
 14 12  1  0  0  0  0
 15 11  1  0  0  0  0
 16 17  2  0  0  0  0
 17  3  1  0  0  0  0
 18 33  1  1  0  0  0
 18 19  1  0  0  0  0
 19 24  1  6  0  0  0
 19 21  1  0  0  0  0
 20 22  2  0  0  0  0
 21 16  1  0  0  0  0
 22 18  1  0  0  0  0
 22 23  1  0  0  0  0
 23 21  1  0  0  0  0
 24 25  2  0  0  0  0
 26 24  2  0  0  0  0
 27 32  1  6  0  0  0
 27 24  1  0  0  0  0
 28 30  1  0  0  0  0
 28 27  1  0  0  0  0
 29 28  2  0  0  0  0
 31 32  1  0  0  0  0
 34 35  1  0  0  0  0
 34 33  1  0  0  0  0
 36 38  1  0  0  0  0
 36 35  1  0  0  0  0
 38 37  1  0  0  0  0
 39 40  1  0  0  0  0
 39  8  1  0  0  0  0
 41 40  1  0  0  0  0
 41 59  1  0  0  0  0
 42 41  2  0  0  0  0
 43 42  1  0  0  0  0
 44 45  1  0  0  0  0
 44 47  1  0  0  0  0
 45 43  1  0  0  0  0
 46 45  2  0  0  0  0
 47 57  1  6  0  0  0
 48 49  1  0  0  0  0
 48 54  1  1  0  0  0
 50 51  1  0  0  0  0
 50 52  1  0  0  0  0
 51 48  1  0  0  0  0
 51 53  1  1  0  0  0
 52 47  1  1  0  0  0
 52 49  1  0  0  0  0
 54 55  1  1  0  0  0
 56 54  1  0  0  0  0
 57 58  1  0  0  0  0
 59 60  1  0  0  0  0
 60 63  2  0  0  0  0
 60 61  1  0  0  0  0
 61 65  2  0  0  0  0
 63 64  1  0  0  0  0
 64 62  2  0  0  0  0
 65 62  1  0  0  0  0
M  END
>  <MODEL>
3

>  <REMARK>
 VINA RESULT:      -6.1      2.446      4.050
  Name = 
  23 active torsions:
  status: ('A' for Active; 'I' for Inactive)
    1  A    between atoms: C_1  and  C_13
    2  A    between atoms: C_2  and  N_25
    3  A    between atoms: C_3  and  C_62
    4  A    between atoms: S_4  and  C_9
    5  A    between atoms: S_4  and  C_21
    6  A    between atoms: C_6  and  O_63
    7  A    between atoms: N_7  and  CA_49
    8  A    between atoms: C_8  and  C_38
    9  A    between atoms: C_17  and  CA_49
   10  A    between atoms: C_20  and  C_26
   11  A    between atoms: C_21  and  O_30
   12  A    between atoms: C_21  and  C_33
   13  A    between atoms: C_26  and  N_61
   14  A    between atoms: C_31  and  CA_49
   15  A    between atoms: C_32  and  C_44
   16  A    between atoms: C_32  and  C_64
   17  A    between atoms: C_38  and  N_54
   18  A    between atoms: C_39  and  C_47
   19  A    between atoms: C_39  and  O_56
   20  A    between atoms: C_44  and  O_63
   21  A    between atoms: C_47  and  C_62
   22  A    between atoms: C_53  and  O_56
   23  A    between atoms: N_55  and  C_64
                            x       y       z     vdW  Elec       q    Type
                         _______ _______ _______ _____ _____    ______ ____

>  <TORSDO>
F 23

$$$$
=
 OpenBabel10232410503D

 65 69  0  0  1  0  0  0  0  0999 V2000
  187.3300  178.5160  140.2800 C   0  0  0  0  0  2  0  0  0  0  0  0
  187.9340  177.3510  139.5620 C   0  0  0  0  0  3  0  0  0  0  0  0
  185.1420  178.6480  141.4330 C   0  0  0  0  0  0  0  0  0  0  0  0
  185.7960  178.3270  137.6680 N   0  0  0  0  0  2  0  0  0  0  0  0
  183.8470  178.3800  138.8850 O   0  0  0  0  0  0  0  0  0  0  0  0
  185.8200  178.4900  140.2570 C   0  0  0  0  0  0  0  0  0  0  0  0
  185.1070  178.4100  138.9270 C   0  0  0  0  0  0  0  0  0  0  0  0
  187.9000  177.2790  138.2300 C   0  0  0  0  0  0  0  0  0  0  0  0
  187.2370  178.3680  137.4570 C   0  0  0  0  0  2  0  0  0  0  0  0
  182.0130  178.6560  144.4800 C   0  0  0  0  0  3  0  0  0  0  0  0
  182.8130  178.8300  142.5260 C   0  0  0  0  0  0  0  0  0  0  0  0
  181.0040  179.0080  143.6030 C   0  0  0  0  0  3  0  0  0  0  0  0
  183.1660  178.5420  143.7910 N   0  0  0  0  0  0  0  0  0  0  0  0
  181.5390  179.1020  142.4080 O   0  0  0  0  0  0  0  0  0  0  0  0
  183.7170  178.8610  141.4140 N   0  0  0  0  0  2  0  0  0  0  0  0
  186.6500  177.7370  143.1900 C   0  0  0  0  0  3  0  0  0  0  0  0
  185.8300  178.6870  142.7490 C   0  0  0  0  0  3  0  0  0  0  0  0
  188.8180  177.4870  146.2590 C   0  0  1  0  0  3  0  0  0  0  0  0
  188.6220  177.2960  144.7430 C   0  0  1  0  0  3  0  0  0  0  0  0
  187.4050  178.7430  147.7910 O   0  0  0  0  0  0  0  0  0  0  0  0
  187.2990  177.8470  144.4590 N   0  0  0  0  0  0  0  0  0  0  0  0
  187.6170  178.2830  146.6390 C   0  0  0  0  0  0  0  0  0  0  0  0
  186.7170  178.4560  145.5690 N   0  0  0  0  0  2  0  0  0  0  0  0
  189.8680  178.1980  143.8250 S   0  0  0  0  0  0  0  0  0  0  0  0
  190.3560  179.3650  144.6390 O   0  0  0  0  0  0  0  0  0  0  0  0
  189.2390  178.7180  142.5640 O   0  0  0  0  0  0  0  0  0  0  0  0
  191.2450  177.1510  143.3630 C   0  0  2  0  0  3  0  0  0  0  0  0
  191.4540  177.1260  141.8840 C   0  0  0  0  0  0  0  0  0  0  0  0
  192.3470  177.8490  141.3700 O   0  0  0  0  0  1  0  0  0  0  0  0
  190.7020  176.2780  141.0790 O   0  0  0  0  0  0  0  0  0  0  0  0
  189.8960  175.4100  143.1460 C   0  0  0  0  0  1  0  0  0  0  0  0
  191.0310  175.8530  143.8300 O   0  0  0  0  0  0  0  0  0  0  0  0
  188.7520  176.2370  146.8790 O   0  0  0  0  0  0  0  0  0  0  0  0
  189.7240  176.2690  147.8820 C   0  0  0  0  0  2  0  0  0  0  0  0
  191.0310  176.7470  147.2880 C   0  0  0  0  0  2  0  0  0  0  0  0
  192.1030  175.6830  147.4400 C   0  0  0  0  0  2  0  0  0  0  0  0
  192.6710  177.2560  148.9510 O   0  0  0  0  0  1  0  0  0  0  0  0
  193.1550  176.1580  148.3230 N   0  0  0  0  0  2  0  0  0  0  0  0
  188.4670  176.2070  137.5340 O   0  0  0  0  0  0  0  0  0  0  0  0
  187.7020  175.3040  136.7410 C   0  0  0  0  0  2  0  0  0  0  0  0
  188.4640  174.9480  135.5060 C   0  0  0  0  0  0  0  0  0  0  0  0
  189.7440  175.1200  135.4850 N   0  0  0  0  0  0  0  0  0  0  0  0
  190.5650  174.7800  134.3480 C   0  0  0  0  0  2  0  0  0  0  0  0
  192.7420  173.9870  135.4440 N   0  0  0  0  0  2  0  0  0  0  0  0
  191.5340  173.7040  134.7260 C   0  0  0  0  0  0  0  0  0  0  0  0
  191.2990  172.5190  134.3710 O   0  0  0  0  0  0  0  0  0  0  0  0
  193.1550  175.2700  136.0160 C   0  0  2  0  0  3  0  0  0  0  0  0
  196.6460  174.9460  136.5740 C   0  0  2  0  0  3  0  0  0  0  0  0
  195.3560  175.3120  136.9950 O   0  0  0  0  0  0  0  0  0  0  0  0
  195.2640  174.7000  134.6910 C   0  0  0  0  0  2  0  0  0  0  0  0
  196.5040  174.1200  135.3010 C   0  0  2  0  0  3  0  0  0  0  0  0
  194.6470  175.5380  135.8030 C   0  0  1  0  0  3  0  0  0  0  0  0
  196.2470  172.6470  135.5860 C   0  0  0  0  0  1  0  0  0  0  0  0
  197.4400  174.2680  137.6970 C   0  0  2  0  0  3  0  0  0  0  0  0
  196.5470  174.0160  138.8970 C   0  0  0  0  0  1  0  0  0  0  0  0
  198.5000  175.0880  138.0870 O   0  0  0  0  0  1  0  0  0  0  0  0
  192.6800  175.4650  137.4540 C   0  0  0  0  0  2  0  0  0  0  0  0
  192.2120  176.7690  137.6270 O   0  0  0  0  0  1  0  0  0  0  0  0
  187.7200  174.3480  134.3460 C   0  0  0  0  0  2  0  0  0  0  0  0
  186.8580  173.2170  134.7980 C   0  0  0  0  0  0  0  0  0  0  0  0
  187.4050  171.9370  134.9430 C   0  0  0  0  0  3  0  0  0  0  0  0
  185.2360  171.0810  135.5920 C   0  0  0  0  0  3  0  0  0  0  0  0
  185.4970  173.4260  135.0480 C   0  0  0  0  0  3  0  0  0  0  0  0
  184.6870  172.3590  135.4430 C   0  0  0  0  0  3  0  0  0  0  0  0
  186.5950  170.8700  135.3410 C   0  0  0  0  0  3  0  0  0  0  0  0
  2  1  1  0  0  0  0
  3 17  1  0  0  0  0
  4  7  1  0  0  0  0
  5  7  2  0  0  0  0
  6  1  1  0  0  0  0
  6  3  2  0  0  0  0
  7  6  1  0  0  0  0
  8  2  2  0  0  0  0
  9  4  1  0  0  0  0
  9  8  1  0  0  0  0
 11 13  2  0  0  0  0
 12 10  2  0  0  0  0
 13 10  1  0  0  0  0
 14 11  1  0  0  0  0
 14 12  1  0  0  0  0
 15  3  1  0  0  0  0
 15 11  1  0  0  0  0
 16 21  1  0  0  0  0
 17 16  2  0  0  0  0
 18 22  1  0  0  0  0
 18 33  1  1  0  0  0
 19 24  1  6  0  0  0
 19 18  1  0  0  0  0
 21 19  1  0  0  0  0
 21 23  1  0  0  0  0
 22 20  2  0  0  0  0
 23 22  1  0  0  0  0
 24 25  2  0  0  0  0
 26 24  2  0  0  0  0
 27 28  1  6  0  0  0
 27 24  1  0  0  0  0
 27 32  1  0  0  0  0
 29 28  1  0  0  0  0
 30 28  2  0  0  0  0
 31 32  1  0  0  0  0
 33 34  1  0  0  0  0
 35 36  1  0  0  0  0
 35 34  1  0  0  0  0
 36 38  1  0  0  0  0
 38 37  1  0  0  0  0
 39  8  1  0  0  0  0
 40 39  1  0  0  0  0
 41 40  1  0  0  0  0
 42 41  2  0  0  0  0
 43 45  1  0  0  0  0
 43 42  1  0  0  0  0
 44 47  1  0  0  0  0
 45 44  1  0  0  0  0
 46 45  2  0  0  0  0
 47 57  1  1  0  0  0
 48 49  1  0  0  0  0
 48 54  1  1  0  0  0
 50 51  1  0  0  0  0
 50 52  1  0  0  0  0
 51 53  1  1  0  0  0
 51 48  1  0  0  0  0
 52 47  1  1  0  0  0
 52 49  1  0  0  0  0
 54 56  1  0  0  0  0
 54 55  1  1  0  0  0
 57 58  1  0  0  0  0
 59 60  1  0  0  0  0
 59 41  1  0  0  0  0
 60 61  2  0  0  0  0
 60 63  1  0  0  0  0
 61 65  1  0  0  0  0
 63 64  2  0  0  0  0
 64 62  1  0  0  0  0
 65 62  2  0  0  0  0
M  END
>  <MODEL>
4

>  <REMARK>
 VINA RESULT:      -6.1      3.105      9.123
  Name = 
  23 active torsions:
  status: ('A' for Active; 'I' for Inactive)
    1  A    between atoms: C_1  and  C_13
    2  A    between atoms: C_2  and  N_25
    3  A    between atoms: C_3  and  C_62
    4  A    between atoms: S_4  and  C_9
    5  A    between atoms: S_4  and  C_21
    6  A    between atoms: C_6  and  O_63
    7  A    between atoms: N_7  and  CA_49
    8  A    between atoms: C_8  and  C_38
    9  A    between atoms: C_17  and  CA_49
   10  A    between atoms: C_20  and  C_26
   11  A    between atoms: C_21  and  O_30
   12  A    between atoms: C_21  and  C_33
   13  A    between atoms: C_26  and  N_61
   14  A    between atoms: C_31  and  CA_49
   15  A    between atoms: C_32  and  C_44
   16  A    between atoms: C_32  and  C_64
   17  A    between atoms: C_38  and  N_54
   18  A    between atoms: C_39  and  C_47
   19  A    between atoms: C_39  and  O_56
   20  A    between atoms: C_44  and  O_63
   21  A    between atoms: C_47  and  C_62
   22  A    between atoms: C_53  and  O_56
   23  A    between atoms: N_55  and  C_64
                            x       y       z     vdW  Elec       q    Type
                         _______ _______ _______ _____ _____    ______ ____

>  <TORSDO>
F 23

$$$$
=
 OpenBabel10232410503D

 65 69  0  0  1  0  0  0  0  0999 V2000
  187.4210  178.6110  141.5550 C   0  0  0  0  0  2  0  0  0  0  0  0
  186.1450  178.4130  140.7980 C   0  0  0  0  0  3  0  0  0  0  0  0
  188.6360  176.9850  142.9740 C   0  0  0  0  0  0  0  0  0  0  0  0
  185.2450  178.6340  143.6710 N   0  0  0  0  0  2  0  0  0  0  0  0
  186.4530  177.0660  144.8370 O   0  0  0  0  0  0  0  0  0  0  0  0
  187.5080  177.7320  142.7810 C   0  0  0  0  0  0  0  0  0  0  0  0
  186.4040  177.7950  143.8100 C   0  0  0  0  0  0  0  0  0  0  0  0
  184.9890  178.8740  141.2790 C   0  0  0  0  0  0  0  0  0  0  0  0
  184.9750  179.5780  142.5940 C   0  0  0  0  0  2  0  0  0  0  0  0
  190.9760  177.9040  146.5450 C   0  0  0  0  0  3  0  0  0  0  0  0
  189.6640  176.7680  145.3300 C   0  0  0  0  0  0  0  0  0  0  0  0
  190.5430  176.7960  147.2510 C   0  0  0  0  0  3  0  0  0  0  0  0
  190.4150  177.8830  145.3200 N   0  0  0  0  0  0  0  0  0  0  0  0
  189.7380  176.1210  146.4640 O   0  0  0  0  0  0  0  0  0  0  0  0
  188.8480  176.3250  144.2380 N   0  0  0  0  0  2  0  0  0  0  0  0
  189.4980  176.5510  140.6810 C   0  0  0  0  0  3  0  0  0  0  0  0
  189.7080  176.8840  141.9520 C   0  0  0  0  0  3  0  0  0  0  0  0
  191.9440  175.8180  137.9120 C   0  0  1  0  0  3  0  0  0  0  0  0
  190.5170  175.7450  138.4880 C   0  0  1  0  0  3  0  0  0  0  0  0
  193.8000  177.1710  138.7160 O   0  0  0  0  0  0  0  0  0  0  0  0
  190.5740  176.4940  139.7420 N   0  0  0  0  0  0  0  0  0  0  0  0
  192.6210  176.7540  138.8550 C   0  0  0  0  0  0  0  0  0  0  0  0
  191.8050  177.1140  139.9440 N   0  0  0  0  0  2  0  0  0  0  0  0
  189.3440  176.5130  137.3730 S   0  0  0  0  0  0  0  0  0  0  0  0
  189.7530  177.9350  137.1020 O   0  0  0  0  0  0  0  0  0  0  0  0
  187.9960  176.5160  138.0360 O   0  0  0  0  0  0  0  0  0  0  0  0
  189.1980  175.6100  135.8330 C   0  0  2  0  0  3  0  0  0  0  0  0
  189.3230  174.1360  136.0380 C   0  0  0  0  0  0  0  0  0  0  0  0
  188.6120  173.5660  136.9060 O   0  0  0  0  0  1  0  0  0  0  0  0
  190.1850  173.3840  135.2470 O   0  0  0  0  0  0  0  0  0  0  0  0
  189.6310  177.1920  134.3480 C   0  0  0  0  0  1  0  0  0  0  0  0
  190.1730  176.0450  134.9340 O   0  0  0  0  0  0  0  0  0  0  0  0
  192.5340  174.5570  138.0190 O   0  0  0  0  0  0  0  0  0  0  0  0
  192.7180  174.1220  136.7050 C   0  0  0  0  0  2  0  0  0  0  0  0
  194.0470  174.6390  136.1950 C   0  0  0  0  0  2  0  0  0  0  0  0
  195.1770  174.1680  137.0920 C   0  0  0  0  0  2  0  0  0  0  0  0
  197.2010  174.7490  136.2900 O   0  0  0  0  0  1  0  0  0  0  0  0
  196.2300  175.1690  137.1350 N   0  0  0  0  0  2  0  0  0  0  0  0
  183.7840  178.7130  140.5880 O   0  0  0  0  0  0  0  0  0  0  0  0
  183.3530  177.4640  140.0580 C   0  0  0  0  0  2  0  0  0  0  0  0
  183.5330  177.4560  138.5740 C   0  0  0  0  0  0  0  0  0  0  0  0
  183.5400  176.3270  137.9480 N   0  0  0  0  0  0  0  0  0  0  0  0
  183.6800  176.2230  136.5150 C   0  0  0  0  0  2  0  0  0  0  0  0
  185.5230  174.6530  135.6750 N   0  0  0  0  0  2  0  0  0  0  0  0
  185.1050  175.9340  136.1640 C   0  0  0  0  0  0  0  0  0  0  0  0
  185.9700  176.8330  136.3380 O   0  0  0  0  0  0  0  0  0  0  0  0
  184.6720  173.5150  135.3270 C   0  0  2  0  0  3  0  0  0  0  0  0
  182.1250  172.3920  137.5310 C   0  0  2  0  0  3  0  0  0  0  0  0
  182.8330  173.4170  136.8810 O   0  0  0  0  0  0  0  0  0  0  0  0
  183.9060  171.3370  136.4220 C   0  0  0  0  0  2  0  0  0  0  0  0
  182.4990  171.0730  136.8660 C   0  0  2  0  0  3  0  0  0  0  0  0
  184.0760  172.8430  136.5680 C   0  0  1  0  0  3  0  0  0  0  0  0
  181.6590  170.7840  135.6290 C   0  0  0  0  0  1  0  0  0  0  0  0
  180.6210  172.6840  137.5830 C   0  0  2  0  0  3  0  0  0  0  0  0
  180.3700  174.0610  138.1680 C   0  0  0  0  0  1  0  0  0  0  0  0
  179.9830  171.7320  138.3800 O   0  0  0  0  0  1  0  0  0  0  0  0
  185.3350  172.5490  134.3460 C   0  0  0  0  0  2  0  0  0  0  0  0
  186.6880  172.4090  134.6610 O   0  0  0  0  0  1  0  0  0  0  0  0
  183.6420  178.7700  137.8530 C   0  0  0  0  0  2  0  0  0  0  0  0
  182.3660  179.5370  137.9530 C   0  0  0  0  0  0  0  0  0  0  0  0
  181.1890  179.0090  137.4120 C   0  0  0  0  0  3  0  0  0  0  0  0
  179.9820  180.9940  138.0910 C   0  0  0  0  0  3  0  0  0  0  0  0
  182.3490  180.7980  138.5610 C   0  0  0  0  0  3  0  0  0  0  0  0
  181.1590  181.5260  138.6280 C   0  0  0  0  0  3  0  0  0  0  0  0
  179.9980  179.7360  137.4820 C   0  0  0  0  0  3  0  0  0  0  0  0
  1  6  1  0  0  0  0
  2  8  2  0  0  0  0
  2  1  1  0  0  0  0
  3 15  1  0  0  0  0
  4  7  1  0  0  0  0
  6  3  2  0  0  0  0
  6  7  1  0  0  0  0
  7  5  2  0  0  0  0
  8  9  1  0  0  0  0
  9  4  1  0  0  0  0
 10 12  2  0  0  0  0
 11 14  1  0  0  0  0
 13 11  2  0  0  0  0
 13 10  1  0  0  0  0
 14 12  1  0  0  0  0
 15 11  1  0  0  0  0
 16 17  2  0  0  0  0
 17  3  1  0  0  0  0
 18 33  1  1  0  0  0
 18 19  1  0  0  0  0
 18 22  1  0  0  0  0
 19 24  1  6  0  0  0
 19 21  1  0  0  0  0
 20 22  2  0  0  0  0
 21 23  1  0  0  0  0
 21 16  1  0  0  0  0
 22 23  1  0  0  0  0
 24 26  2  0  0  0  0
 25 24  2  0  0  0  0
 27 32  1  6  0  0  0
 27 28  1  0  0  0  0
 27 24  1  0  0  0  0
 28 29  1  0  0  0  0
 30 28  2  0  0  0  0
 31 32  1  0  0  0  0
 34 33  1  0  0  0  0
 35 34  1  0  0  0  0
 35 36  1  0  0  0  0
 36 38  1  0  0  0  0
 37 38  1  0  0  0  0
 39  8  1  0  0  0  0
 40 39  1  0  0  0  0
 41 40  1  0  0  0  0
 42 41  2  0  0  0  0
 43 42  1  0  0  0  0
 44 45  1  0  0  0  0
 45 46  2  0  0  0  0
 45 43  1  0  0  0  0
 47 57  1  1  0  0  0
 47 44  1  0  0  0  0
 48 54  1  6  0  0  0
 49 48  1  0  0  0  0
 50 52  1  0  0  0  0
 50 51  1  0  0  0  0
 51 53  1  6  0  0  0
 51 48  1  0  0  0  0
 52 47  1  6  0  0  0
 52 49  1  0  0  0  0
 54 55  1  1  0  0  0
 54 56  1  0  0  0  0
 57 58  1  0  0  0  0
 59 60  1  0  0  0  0
 59 41  1  0  0  0  0
 60 63  1  0  0  0  0
 61 65  1  0  0  0  0
 61 60  2  0  0  0  0
 62 64  1  0  0  0  0
 63 64  2  0  0  0  0
 65 62  2  0  0  0  0
M  END
>  <MODEL>
5

>  <REMARK>
 VINA RESULT:      -5.6      1.913      3.095
  Name = 
  23 active torsions:
  status: ('A' for Active; 'I' for Inactive)
    1  A    between atoms: C_1  and  C_13
    2  A    between atoms: C_2  and  N_25
    3  A    between atoms: C_3  and  C_62
    4  A    between atoms: S_4  and  C_9
    5  A    between atoms: S_4  and  C_21
    6  A    between atoms: C_6  and  O_63
    7  A    between atoms: N_7  and  CA_49
    8  A    between atoms: C_8  and  C_38
    9  A    between atoms: C_17  and  CA_49
   10  A    between atoms: C_20  and  C_26
   11  A    between atoms: C_21  and  O_30
   12  A    between atoms: C_21  and  C_33
   13  A    between atoms: C_26  and  N_61
   14  A    between atoms: C_31  and  CA_49
   15  A    between atoms: C_32  and  C_44
   16  A    between atoms: C_32  and  C_64
   17  A    between atoms: C_38  and  N_54
   18  A    between atoms: C_39  and  C_47
   19  A    between atoms: C_39  and  O_56
   20  A    between atoms: C_44  and  O_63
   21  A    between atoms: C_47  and  C_62
   22  A    between atoms: C_53  and  O_56
   23  A    between atoms: N_55  and  C_64
                            x       y       z     vdW  Elec       q    Type
                         _______ _______ _______ _____ _____    ______ ____

>  <TORSDO>
F 23

$$$$
=
 OpenBabel10232410503D

 65 69  0  0  1  0  0  0  0  0999 V2000
  186.2340  177.3690  143.0860 C   0  0  0  0  0  2  0  0  0  0  0  0
  187.6470  177.7980  143.3270 C   0  0  0  0  0  3  0  0  0  0  0  0
  184.3010  178.7540  142.3930 C   0  0  0  0  0  0  0  0  0  0  0  0
  186.1630  178.8320  145.7450 N   0  0  0  0  0  2  0  0  0  0  0  0
  184.4240  180.0920  144.9300 O   0  0  0  0  0  0  0  0  0  0  0  0
  185.2400  178.4760  143.3470 C   0  0  0  0  0  0  0  0  0  0  0  0
  185.2390  179.1610  144.6940 C   0  0  0  0  0  0  0  0  0  0  0  0
  188.0990  177.9880  144.5680 C   0  0  0  0  0  0  0  0  0  0  0  0
  187.1750  177.7830  145.7210 C   0  0  0  0  0  2  0  0  0  0  0  0
  180.3170  178.1870  144.0880 C   0  0  0  0  0  3  0  0  0  0  0  0
  181.9360  179.2840  143.2720 C   0  0  0  0  0  0  0  0  0  0  0  0
  180.0040  179.5350  144.0910 C   0  0  0  0  0  3  0  0  0  0  0  0
  181.5480  178.0300  143.5650 N   0  0  0  0  0  0  0  0  0  0  0  0
  181.0280  180.1750  143.5760 O   0  0  0  0  0  0  0  0  0  0  0  0
  183.2040  179.6350  142.7050 N   0  0  0  0  0  2  0  0  0  0  0  0
  183.3610  178.2710  140.1410 C   0  0  0  0  0  3  0  0  0  0  0  0
  184.3180  178.1170  141.0520 C   0  0  0  0  0  3  0  0  0  0  0  0
  183.0320  176.1860  137.0220 C   0  0  1  0  0  3  0  0  0  0  0  0
  182.4250  176.7560  138.3180 C   0  0  1  0  0  3  0  0  0  0  0  0
  185.0900  176.8740  135.9210 O   0  0  0  0  0  0  0  0  0  0  0  0
  183.4490  177.6470  138.8580 N   0  0  0  0  0  0  0  0  0  0  0  0
  184.3010  176.9580  136.8970 C   0  0  0  0  0  0  0  0  0  0  0  0
  184.5430  177.7900  138.0080 N   0  0  0  0  0  2  0  0  0  0  0  0
  180.9350  177.6860  137.9630 S   0  0  0  0  0  0  0  0  0  0  0  0
  180.2690  178.0930  139.2480 O   0  0  0  0  0  0  0  0  0  0  0  0
  179.9990  176.7990  137.1920 O   0  0  0  0  0  0  0  0  0  0  0  0
  181.2750  179.1310  136.9600 C   0  0  2  0  0  3  0  0  0  0  0  0
  181.2230  180.3900  137.7620 C   0  0  0  0  0  0  0  0  0  0  0  0
  182.2590  180.7950  138.3510 O   0  0  0  0  0  1  0  0  0  0  0  0
  180.0530  181.1390  137.8250 O   0  0  0  0  0  0  0  0  0  0  0  0
  181.1040  178.8980  134.7670 C   0  0  0  0  0  1  0  0  0  0  0  0
  180.3600  179.2050  135.9090 O   0  0  0  0  0  0  0  0  0  0  0  0
  183.3370  174.8380  137.2270 O   0  0  0  0  0  0  0  0  0  0  0  0
  182.1060  174.2040  137.4170 C   0  0  0  0  0  2  0  0  0  0  0  0
  182.0960  172.9040  136.6410 C   0  0  0  0  0  2  0  0  0  0  0  0
  183.3180  172.0730  136.9850 C   0  0  0  0  0  2  0  0  0  0  0  0
  182.8160  170.5390  135.4110 O   0  0  0  0  0  1  0  0  0  0  0  0
  183.0490  170.6660  136.7390 N   0  0  0  0  0  2  0  0  0  0  0  0
  189.4180  178.3780  144.8230 O   0  0  0  0  0  0  0  0  0  0  0  0
  190.2820  178.8980  143.8180 C   0  0  0  0  0  2  0  0  0  0  0  0
  190.6920  177.8030  142.8880 C   0  0  0  0  0  0  0  0  0  0  0  0
  189.9970  177.5910  141.8200 N   0  0  0  0  0  0  0  0  0  0  0  0
  190.3310  176.5750  140.8520 C   0  0  0  0  0  2  0  0  0  0  0  0
  190.8380  177.3320  138.4560 N   0  0  0  0  0  2  0  0  0  0  0  0
  191.2500  177.1430  139.8170 C   0  0  0  0  0  0  0  0  0  0  0  0
  192.4310  177.4320  140.1420 O   0  0  0  0  0  0  0  0  0  0  0  0
  189.4980  177.1400  137.8990 C   0  0  2  0  0  3  0  0  0  0  0  0
  190.0950  174.9480  135.1720 C   0  0  2  0  0  3  0  0  0  0  0  0
  190.5420  175.7180  136.2590 O   0  0  0  0  0  0  0  0  0  0  0  0
  188.2180  176.1400  135.9280 C   0  0  0  0  0  2  0  0  0  0  0  0
  188.5770  174.8430  135.2680 C   0  0  2  0  0  3  0  0  0  0  0  0
  189.5440  176.6900  136.4370 C   0  0  1  0  0  3  0  0  0  0  0  0
  188.1260  173.7080  136.1780 C   0  0  0  0  0  1  0  0  0  0  0  0
  190.8290  173.6050  135.0860 C   0  0  2  0  0  3  0  0  0  0  0  0
  190.9240  172.9650  136.4580 C   0  0  0  0  0  1  0  0  0  0  0  0
  192.1180  173.8020  134.5900 O   0  0  0  0  0  1  0  0  0  0  0  0
  188.5660  178.3210  138.1660 C   0  0  0  0  0  2  0  0  0  0  0  0
  188.1880  178.3330  139.5090 O   0  0  0  0  0  1  0  0  0  0  0  0
  191.9340  177.0170  143.2000 C   0  0  0  0  0  2  0  0  0  0  0  0
  191.8540  176.4190  144.5650 C   0  0  0  0  0  0  0  0  0  0  0  0
  191.7330  175.0330  144.7140 C   0  0  0  0  0  3  0  0  0  0  0  0
  191.6480  175.2960  147.1180 C   0  0  0  0  0  3  0  0  0  0  0  0
  191.8680  177.2430  145.6960 C   0  0  0  0  0  3  0  0  0  0  0  0
  191.7640  176.6820  146.9710 C   0  0  0  0  0  3  0  0  0  0  0  0
  191.6310  174.4720  145.9890 C   0  0  0  0  0  3  0  0  0  0  0  0
  1  2  1  0  0  0  0
  1  6  1  0  0  0  0
  2  8  2  0  0  0  0
  3 15  1  0  0  0  0
  3  6  2  0  0  0  0
  6  7  1  0  0  0  0
  7  5  2  0  0  0  0
  7  4  1  0  0  0  0
  8 39  1  0  0  0  0
  8  9  1  0  0  0  0
  9  4  1  0  0  0  0
 10 12  2  0  0  0  0
 11 13  2  0  0  0  0
 11 14  1  0  0  0  0
 13 10  1  0  0  0  0
 14 12  1  0  0  0  0
 15 11  1  0  0  0  0
 16 17  2  0  0  0  0
 17  3  1  0  0  0  0
 18 33  1  1  0  0  0
 18 19  1  0  0  0  0
 19 24  1  6  0  0  0
 19 21  1  0  0  0  0
 20 22  2  0  0  0  0
 21 16  1  0  0  0  0
 22 18  1  0  0  0  0
 22 23  1  0  0  0  0
 23 21  1  0  0  0  0
 24 25  2  0  0  0  0
 26 24  2  0  0  0  0
 27 32  1  6  0  0  0
 27 28  1  0  0  0  0
 27 24  1  0  0  0  0
 28 30  2  0  0  0  0
 28 29  1  0  0  0  0
 31 32  1  0  0  0  0
 33 34  1  0  0  0  0
 35 36  1  0  0  0  0
 35 34  1  0  0  0  0
 37 38  1  0  0  0  0
 38 36  1  0  0  0  0
 40 39  1  0  0  0  0
 41 59  1  0  0  0  0
 41 40  1  0  0  0  0
 42 41  2  0  0  0  0
 43 42  1  0  0  0  0
 44 45  1  0  0  0  0
 45 46  2  0  0  0  0
 45 43  1  0  0  0  0
 47 57  1  6  0  0  0
 47 44  1  0  0  0  0
 48 54  1  1  0  0  0
 48 51  1  0  0  0  0
 48 49  1  0  0  0  0
 49 52  1  0  0  0  0
 50 52  1  0  0  0  0
 51 50  1  0  0  0  0
 51 53  1  1  0  0  0
 52 47  1  1  0  0  0
 54 55  1  1  0  0  0
 56 54  1  0  0  0  0
 57 58  1  0  0  0  0
 59 60  1  0  0  0  0
 60 61  2  0  0  0  0
 60 63  1  0  0  0  0
 61 65  1  0  0  0  0
 63 64  2  0  0  0  0
 64 62  1  0  0  0  0
 65 62  2  0  0  0  0
M  END
>  <MODEL>
6

>  <REMARK>
 VINA RESULT:      -4.5      2.568      8.749
  Name = 
  23 active torsions:
  status: ('A' for Active; 'I' for Inactive)
    1  A    between atoms: C_1  and  C_13
    2  A    between atoms: C_2  and  N_25
    3  A    between atoms: C_3  and  C_62
    4  A    between atoms: S_4  and  C_9
    5  A    between atoms: S_4  and  C_21
    6  A    between atoms: C_6  and  O_63
    7  A    between atoms: N_7  and  CA_49
    8  A    between atoms: C_8  and  C_38
    9  A    between atoms: C_17  and  CA_49
   10  A    between atoms: C_20  and  C_26
   11  A    between atoms: C_21  and  O_30
   12  A    between atoms: C_21  and  C_33
   13  A    between atoms: C_26  and  N_61
   14  A    between atoms: C_31  and  CA_49
   15  A    between atoms: C_32  and  C_44
   16  A    between atoms: C_32  and  C_64
   17  A    between atoms: C_38  and  N_54
   18  A    between atoms: C_39  and  C_47
   19  A    between atoms: C_39  and  O_56
   20  A    between atoms: C_44  and  O_63
   21  A    between atoms: C_47  and  C_62
   22  A    between atoms: C_53  and  O_56
   23  A    between atoms: N_55  and  C_64
                            x       y       z     vdW  Elec       q    Type
                         _______ _______ _______ _____ _____    ______ ____

>  <TORSDO>
F 23

$$$$
=
 OpenBabel10232410503D

 65 69  0  0  1  0  0  0  0  0999 V2000
  186.1170  177.2230  143.0540 C   0  0  0  0  0  2  0  0  0  0  0  0
  187.5120  177.6500  143.3870 C   0  0  0  0  0  3  0  0  0  0  0  0
  184.2340  178.6120  142.2440 C   0  0  0  0  0  0  0  0  0  0  0  0
  185.8780  178.6750  145.7080 N   0  0  0  0  0  2  0  0  0  0  0  0
  184.1940  179.9400  144.7890 O   0  0  0  0  0  0  0  0  0  0  0  0
  185.1100  178.3300  143.2550 C   0  0  0  0  0  0  0  0  0  0  0  0
  185.0230  179.0090  144.6020 C   0  0  0  0  0  0  0  0  0  0  0  0
  187.8840  177.8350  144.6550 C   0  0  0  0  0  0  0  0  0  0  0  0
  186.8880  177.6260  145.7450 C   0  0  0  0  0  2  0  0  0  0  0  0
  180.3520  178.1570  144.1940 C   0  0  0  0  0  3  0  0  0  0  0  0
  181.8910  179.1830  143.1590 C   0  0  0  0  0  0  0  0  0  0  0  0
  179.9900  179.4810  144.0310 C   0  0  0  0  0  3  0  0  0  0  0  0
  181.5650  177.9680  143.6360 N   0  0  0  0  0  0  0  0  0  0  0  0
  180.9650  180.0770  143.3860 O   0  0  0  0  0  0  0  0  0  0  0  0
  183.1190  179.4930  142.4890 N   0  0  0  0  0  2  0  0  0  0  0  0
  183.2990  177.7690  140.0980 C   0  0  0  0  0  3  0  0  0  0  0  0
  184.3350  177.9800  140.9040 C   0  0  0  0  0  3  0  0  0  0  0  0
  183.5480  175.5640  137.0560 C   0  0  1  0  0  3  0  0  0  0  0  0
  182.9720  175.8480  138.4560 C   0  0  1  0  0  3  0  0  0  0  0  0
  184.7300  177.1120  135.5950 O   0  0  0  0  0  0  0  0  0  0  0  0
  183.4690  177.1760  138.8090 N   0  0  0  0  0  0  0  0  0  0  0  0
  184.1950  176.8610  136.7070 C   0  0  0  0  0  0  0  0  0  0  0  0
  184.1650  177.7870  137.7680 N   0  0  0  0  0  2  0  0  0  0  0  0
  181.1810  175.8600  138.4120 S   0  0  0  0  0  0  0  0  0  0  0  0
  180.6360  175.7090  139.8060 O   0  0  0  0  0  0  0  0  0  0  0  0
  180.7220  174.6940  137.5840 O   0  0  0  0  0  0  0  0  0  0  0  0
  180.5420  177.3550  137.6600 C   0  0  2  0  0  3  0  0  0  0  0  0
  180.9580  177.4810  136.2310 C   0  0  0  0  0  0  0  0  0  0  0  0
  181.3270  178.6000  135.7870 O   0  0  0  0  0  1  0  0  0  0  0  0
  180.9810  176.3650  135.4020 O   0  0  0  0  0  0  0  0  0  0  0  0
  180.0270  178.6390  139.3870 C   0  0  0  0  0  1  0  0  0  0  0  0
  180.9780  178.4710  138.3770 O   0  0  0  0  0  0  0  0  0  0  0  0
  184.5320  174.5800  137.1690 O   0  0  0  0  0  0  0  0  0  0  0  0
  184.1260  173.5490  136.3180 C   0  0  0  0  0  2  0  0  0  0  0  0
  184.2950  172.2250  137.0310 C   0  0  0  0  0  2  0  0  0  0  0  0
  183.7270  171.0950  136.1920 C   0  0  0  0  0  2  0  0  0  0  0  0
  181.8760  170.2780  135.1990 O   0  0  0  0  0  1  0  0  0  0  0  0
  182.3120  171.3190  135.9470 N   0  0  0  0  0  2  0  0  0  0  0  0
  189.1840  178.2230  144.9940 O   0  0  0  0  0  0  0  0  0  0  0  0
  190.0940  178.7930  144.0600 C   0  0  0  0  0  2  0  0  0  0  0  0
  190.5940  177.7340  143.1320 C   0  0  0  0  0  0  0  0  0  0  0  0
  189.9610  177.5160  142.0280 N   0  0  0  0  0  0  0  0  0  0  0  0
  190.3840  176.5340  141.0590 C   0  0  0  0  0  2  0  0  0  0  0  0
  191.1540  176.9160  138.6440 N   0  0  0  0  0  2  0  0  0  0  0  0
  191.2840  177.1730  140.0490 C   0  0  0  0  0  0  0  0  0  0  0  0
  192.2060  177.9320  140.4470 O   0  0  0  0  0  0  0  0  0  0  0  0
  190.1070  176.1400  137.9770 C   0  0  2  0  0  3  0  0  0  0  0  0
  192.4440  175.2760  135.4480 C   0  0  2  0  0  3  0  0  0  0  0  0
  191.7010  176.2240  136.1720 O   0  0  0  0  0  0  0  0  0  0  0  0
  191.0030  174.0400  136.8300 C   0  0  0  0  0  2  0  0  0  0  0  0
  192.3550  173.9480  136.1900 C   0  0  2  0  0  3  0  0  0  0  0  0
  190.6070  175.5020  136.6770 C   0  0  1  0  0  3  0  0  0  0  0  0
  193.3950  173.8270  137.2960 C   0  0  0  0  0  1  0  0  0  0  0  0
  193.8700  175.7640  135.1680 C   0  0  2  0  0  3  0  0  0  0  0  0
  194.7110  174.6390  134.5940 C   0  0  0  0  0  1  0  0  0  0  0  0
  194.4590  176.2070  136.3540 O   0  0  0  0  0  1  0  0  0  0  0  0
  188.7920  176.9050  137.8380 C   0  0  0  0  0  2  0  0  0  0  0  0
  187.7320  176.0060  137.7110 O   0  0  0  0  0  1  0  0  0  0  0  0
  191.8530  176.9960  143.4890 C   0  0  0  0  0  2  0  0  0  0  0  0
  191.7850  176.4800  144.8880 C   0  0  0  0  0  0  0  0  0  0  0  0
  191.5270  177.3600  145.9450 C   0  0  0  0  0  3  0  0  0  0  0  0
  191.7100  175.5290  147.5180 C   0  0  0  0  0  3  0  0  0  0  0  0
  192.0090  175.1230  145.1500 C   0  0  0  0  0  3  0  0  0  0  0  0
  191.9740  174.6490  146.4640 C   0  0  0  0  0  3  0  0  0  0  0  0
  191.4880  176.8850  147.2590 C   0  0  0  0  0  3  0  0  0  0  0  0
  1  6  1  0  0  0  0
  1  2  1  0  0  0  0
  2  8  2  0  0  0  0
  3 15  1  0  0  0  0
  3  6  2  0  0  0  0
  4  9  1  0  0  0  0
  6  7  1  0  0  0  0
  7  5  2  0  0  0  0
  7  4  1  0  0  0  0
  8 39  1  0  0  0  0
  8  9  1  0  0  0  0
 11 14  1  0  0  0  0
 11 13  2  0  0  0  0
 12 10  2  0  0  0  0
 13 10  1  0  0  0  0
 14 12  1  0  0  0  0
 15 11  1  0  0  0  0
 16 17  2  0  0  0  0
 17  3  1  0  0  0  0
 18 33  1  1  0  0  0
 18 19  1  0  0  0  0
 19 24  1  6  0  0  0
 19 21  1  0  0  0  0
 20 22  2  0  0  0  0
 21 16  1  0  0  0  0
 22 18  1  0  0  0  0
 22 23  1  0  0  0  0
 23 21  1  0  0  0  0
 24 25  2  0  0  0  0
 26 24  2  0  0  0  0
 27 28  1  6  0  0  0
 27 32  1  0  0  0  0
 27 24  1  0  0  0  0
 29 28  1  0  0  0  0
 30 28  2  0  0  0  0
 32 31  1  0  0  0  0
 34 35  1  0  0  0  0
 34 33  1  0  0  0  0
 36 35  1  0  0  0  0
 37 38  1  0  0  0  0
 38 36  1  0  0  0  0
 40 39  1  0  0  0  0
 41 59  1  0  0  0  0
 41 40  1  0  0  0  0
 42 41  2  0  0  0  0
 43 42  1  0  0  0  0
 44 45  1  0  0  0  0
 45 46  2  0  0  0  0
 45 43  1  0  0  0  0
 47 57  1  6  0  0  0
 47 44  1  0  0  0  0
 48 54  1  1  0  0  0
 48 49  1  0  0  0  0
 48 51  1  0  0  0  0
 49 52  1  0  0  0  0
 51 50  1  0  0  0  0
 51 53  1  1  0  0  0
 52 50  1  0  0  0  0
 52 47  1  1  0  0  0
 54 55  1  1  0  0  0
 54 56  1  0  0  0  0
 58 57  1  0  0  0  0
 59 60  1  0  0  0  0
 60 63  2  0  0  0  0
 60 61  1  0  0  0  0
 61 65  2  0  0  0  0
 63 64  1  0  0  0  0
 64 62  2  0  0  0  0
 65 62  1  0  0  0  0
M  END
>  <MODEL>
7

>  <REMARK>
 VINA RESULT:      -4.5      2.301      9.062
  Name = 
  23 active torsions:
  status: ('A' for Active; 'I' for Inactive)
    1  A    between atoms: C_1  and  C_13
    2  A    between atoms: C_2  and  N_25
    3  A    between atoms: C_3  and  C_62
    4  A    between atoms: S_4  and  C_9
    5  A    between atoms: S_4  and  C_21
    6  A    between atoms: C_6  and  O_63
    7  A    between atoms: N_7  and  CA_49
    8  A    between atoms: C_8  and  C_38
    9  A    between atoms: C_17  and  CA_49
   10  A    between atoms: C_20  and  C_26
   11  A    between atoms: C_21  and  O_30
   12  A    between atoms: C_21  and  C_33
   13  A    between atoms: C_26  and  N_61
   14  A    between atoms: C_31  and  CA_49
   15  A    between atoms: C_32  and  C_44
   16  A    between atoms: C_32  and  C_64
   17  A    between atoms: C_38  and  N_54
   18  A    between atoms: C_39  and  C_47
   19  A    between atoms: C_39  and  O_56
   20  A    between atoms: C_44  and  O_63
   21  A    between atoms: C_47  and  C_62
   22  A    between atoms: C_53  and  O_56
   23  A    between atoms: N_55  and  C_64
                            x       y       z     vdW  Elec       q    Type
                         _______ _______ _______ _____ _____    ______ ____

>  <TORSDO>
F 23

$$$$
=
 OpenBabel10232410503D

 65 69  0  0  1  0  0  0  0  0999 V2000
  186.0890  179.0710  140.9740 C   0  0  0  0  0  2  0  0  0  0  0  0
  186.8320  178.3520  139.8930 C   0  0  0  0  0  3  0  0  0  0  0  0
  184.4820  178.1440  142.6160 C   0  0  0  0  0  0  0  0  0  0  0  0
  184.0130  178.5240  138.8290 N   0  0  0  0  0  2  0  0  0  0  0  0
  182.6640  177.6220  140.4560 O   0  0  0  0  0  0  0  0  0  0  0  0
  184.7710  178.4120  141.3070 C   0  0  0  0  0  0  0  0  0  0  0  0
  183.7670  178.1770  140.2020 C   0  0  0  0  0  0  0  0  0  0  0  0
  186.4190  178.4110  138.6260 C   0  0  0  0  0  0  0  0  0  0  0  0
  185.1930  179.1920  138.2950 C   0  0  0  0  0  2  0  0  0  0  0  0
  180.7150  180.2530  143.2720 C   0  0  0  0  0  3  0  0  0  0  0  0
  181.9980  178.5700  143.1620 C   0  0  0  0  0  0  0  0  0  0  0  0
  179.9840  179.1030  143.5120 C   0  0  0  0  0  3  0  0  0  0  0  0
  181.9990  179.9110  143.0500 N   0  0  0  0  0  0  0  0  0  0  0  0
  180.8140  178.0890  143.4370 O   0  0  0  0  0  0  0  0  0  0  0  0
  183.1500  177.7360  142.9850 N   0  0  0  0  0  2  0  0  0  0  0  0
  186.3750  177.4200  144.0590 C   0  0  0  0  0  3  0  0  0  0  0  0
  185.4750  178.3330  143.7040 C   0  0  0  0  0  3  0  0  0  0  0  0
  189.2490  177.5200  146.4900 C   0  0  1  0  0  3  0  0  0  0  0  0
  188.6840  177.1540  145.1050 C   0  0  1  0  0  3  0  0  0  0  0  0
  188.2340  178.9530  148.1760 O   0  0  0  0  0  0  0  0  0  0  0  0
  187.3180  177.6750  145.1020 N   0  0  0  0  0  0  0  0  0  0  0  0
  188.1620  178.3610  147.0670 C   0  0  0  0  0  0  0  0  0  0  0  0
  187.0190  178.4120  146.2460 N   0  0  0  0  0  2  0  0  0  0  0  0
  189.6360  177.9370  143.8060 S   0  0  0  0  0  0  0  0  0  0  0  0
  190.4280  179.0840  144.3730 O   0  0  0  0  0  0  0  0  0  0  0  0
  188.6810  178.4710  142.7770 O   0  0  0  0  0  0  0  0  0  0  0  0
  190.7310  176.7780  142.9900 C   0  0  2  0  0  3  0  0  0  0  0  0
  191.5330  177.4320  141.9140 C   0  0  0  0  0  0  0  0  0  0  0  0
  192.5990  178.0330  142.2090 O   0  0  0  0  0  1  0  0  0  0  0  0
  191.1350  177.3420  140.5840 O   0  0  0  0  0  0  0  0  0  0  0  0
  188.9360  175.5350  143.3480 C   0  0  0  0  0  1  0  0  0  0  0  0
  189.9910  175.7240  142.4520 O   0  0  0  0  0  0  0  0  0  0  0  0
  189.3720  176.3520  147.2460 O   0  0  0  0  0  0  0  0  0  0  0  0
  190.5980  176.4630  147.9050 C   0  0  0  0  0  2  0  0  0  0  0  0
  191.6590  175.7450  147.0980 C   0  0  0  0  0  2  0  0  0  0  0  0
  192.8960  175.5070  147.9440 C   0  0  0  0  0  2  0  0  0  0  0  0
  193.6530  176.1180  149.9770 O   0  0  0  0  0  1  0  0  0  0  0  0
  193.1060  176.6260  148.8470 N   0  0  0  0  0  2  0  0  0  0  0  0
  187.1010  177.7580  137.5940 O   0  0  0  0  0  0  0  0  0  0  0  0
  188.4720  177.9970  137.2960 C   0  0  0  0  0  2  0  0  0  0  0  0
  189.2190  176.7030  137.2840 C   0  0  0  0  0  0  0  0  0  0  0  0
  190.4480  176.6890  136.8890 N   0  0  0  0  0  0  0  0  0  0  0  0
  191.2560  175.4930  136.8690 C   0  0  0  0  0  2  0  0  0  0  0  0
  193.7210  174.8790  137.2020 N   0  0  0  0  0  2  0  0  0  0  0  0
  192.6390  175.8070  137.3450 C   0  0  0  0  0  0  0  0  0  0  0  0
  192.8500  176.9070  137.9210 O   0  0  0  0  0  0  0  0  0  0  0  0
  193.7040  173.5970  136.4940 C   0  0  2  0  0  3  0  0  0  0  0  0
  196.4780  171.4000  136.7810 C   0  0  2  0  0  3  0  0  0  0  0  0
  195.2740  171.7980  136.1750 O   0  0  0  0  0  0  0  0  0  0  0  0
  195.6650  173.1810  138.0780 C   0  0  0  0  0  2  0  0  0  0  0  0
  196.9580  172.5480  137.6610 C   0  0  2  0  0  3  0  0  0  0  0  0
  194.6220  172.5650  137.1540 C   0  0  1  0  0  3  0  0  0  0  0  0
  197.7630  173.5820  136.8850 C   0  0  0  0  0  1  0  0  0  0  0  0
  197.5000  170.9090  135.7490 C   0  0  2  0  0  3  0  0  0  0  0  0
  196.8080  170.1170  134.6550 C   0  0  0  0  0  1  0  0  0  0  0  0
  198.4430  170.0900  136.3710 O   0  0  0  0  0  1  0  0  0  0  0  0
  193.9030  173.7430  134.9870 C   0  0  0  0  0  2  0  0  0  0  0  0
  194.6040  174.9190  134.7130 O   0  0  0  0  0  1  0  0  0  0  0  0
  188.5290  175.4660  137.7860 C   0  0  0  0  0  2  0  0  0  0  0  0
  188.0120  174.6490  136.6490 C   0  0  0  0  0  0  0  0  0  0  0  0
  187.7750  175.2510  135.4080 C   0  0  0  0  0  3  0  0  0  0  0  0
  186.9910  173.1360  134.5290 C   0  0  0  0  0  3  0  0  0  0  0  0
  187.7340  173.2890  136.8290 C   0  0  0  0  0  3  0  0  0  0  0  0
  187.2230  172.5340  135.7700 C   0  0  0  0  0  3  0  0  0  0  0  0
  187.2670  174.4950  134.3490 C   0  0  0  0  0  3  0  0  0  0  0  0
  1  6  1  0  0  0  0
  2  1  1  0  0  0  0
  3 15  1  0  0  0  0
  3 17  1  0  0  0  0
  4  7  1  0  0  0  0
  6  3  2  0  0  0  0
  7  5  2  0  0  0  0
  7  6  1  0  0  0  0
  8  2  2  0  0  0  0
  9  8  1  0  0  0  0
  9  4  1  0  0  0  0
 10 12  2  0  0  0  0
 11 14  1  0  0  0  0
 13 11  2  0  0  0  0
 13 10  1  0  0  0  0
 14 12  1  0  0  0  0
 15 11  1  0  0  0  0
 16 21  1  0  0  0  0
 17 16  2  0  0  0  0
 18 22  1  0  0  0  0
 18 33  1  1  0  0  0
 19 24  1  6  0  0  0
 19 18  1  0  0  0  0
 21 19  1  0  0  0  0
 21 23  1  0  0  0  0
 22 20  2  0  0  0  0
 23 22  1  0  0  0  0
 24 25  2  0  0  0  0
 26 24  2  0  0  0  0
 27 28  1  6  0  0  0
 27 24  1  0  0  0  0
 28 29  1  0  0  0  0
 30 28  2  0  0  0  0
 32 27  1  0  0  0  0
 32 31  1  0  0  0  0
 33 34  1  0  0  0  0
 35 34  1  0  0  0  0
 35 36  1  0  0  0  0
 36 38  1  0  0  0  0
 38 37  1  0  0  0  0
 39  8  1  0  0  0  0
 40 39  1  0  0  0  0
 41 40  1  0  0  0  0
 41 59  1  0  0  0  0
 42 41  2  0  0  0  0
 43 42  1  0  0  0  0
 43 45  1  0  0  0  0
 44 45  1  0  0  0  0
 45 46  2  0  0  0  0
 47 57  1  6  0  0  0
 47 44  1  0  0  0  0
 48 54  1  6  0  0  0
 48 51  1  0  0  0  0
 49 48  1  0  0  0  0
 49 52  1  0  0  0  0
 51 53  1  6  0  0  0
 51 50  1  0  0  0  0
 52 47  1  6  0  0  0
 52 50  1  0  0  0  0
 54 55  1  6  0  0  0
 54 56  1  0  0  0  0
 58 57  1  0  0  0  0
 60 63  1  0  0  0  0
 60 59  1  0  0  0  0
 61 60  2  0  0  0  0
 62 64  1  0  0  0  0
 64 63  2  0  0  0  0
 65 62  2  0  0  0  0
 65 61  1  0  0  0  0
M  END
>  <MODEL>
8

>  <REMARK>
 VINA RESULT:      -4.3      3.169      9.179
  Name = 
  23 active torsions:
  status: ('A' for Active; 'I' for Inactive)
    1  A    between atoms: C_1  and  C_13
    2  A    between atoms: C_2  and  N_25
    3  A    between atoms: C_3  and  C_62
    4  A    between atoms: S_4  and  C_9
    5  A    between atoms: S_4  and  C_21
    6  A    between atoms: C_6  and  O_63
    7  A    between atoms: N_7  and  CA_49
    8  A    between atoms: C_8  and  C_38
    9  A    between atoms: C_17  and  CA_49
   10  A    between atoms: C_20  and  C_26
   11  A    between atoms: C_21  and  O_30
   12  A    between atoms: C_21  and  C_33
   13  A    between atoms: C_26  and  N_61
   14  A    between atoms: C_31  and  CA_49
   15  A    between atoms: C_32  and  C_44
   16  A    between atoms: C_32  and  C_64
   17  A    between atoms: C_38  and  N_54
   18  A    between atoms: C_39  and  C_47
   19  A    between atoms: C_39  and  O_56
   20  A    between atoms: C_44  and  O_63
   21  A    between atoms: C_47  and  C_62
   22  A    between atoms: C_53  and  O_56
   23  A    between atoms: N_55  and  C_64
                            x       y       z     vdW  Elec       q    Type
                         _______ _______ _______ _____ _____    ______ ____

>  <TORSDO>
F 23

$$$$
=
 OpenBabel10232410503D

 65 69  0  0  1  0  0  0  0  0999 V2000
  191.2060  175.3930  138.2870 C   0  0  0  0  0  2  0  0  0  0  0  0
  190.2150  176.5070  138.1630 C   0  0  0  0  0  3  0  0  0  0  0  0
  192.8310  174.5830  136.6020 C   0  0  0  0  0  0  0  0  0  0  0  0
  189.0080  174.2900  136.5080 N   0  0  0  0  0  2  0  0  0  0  0  0
  190.6300  173.6670  135.0040 O   0  0  0  0  0  0  0  0  0  0  0  0
  191.5210  174.7480  136.9580 C   0  0  0  0  0  0  0  0  0  0  0  0
  190.3900  174.2020  136.1190 C   0  0  0  0  0  0  0  0  0  0  0  0
  188.9290  176.2510  137.9190 C   0  0  0  0  0  0  0  0  0  0  0  0
  188.4850  174.8370  137.7530 C   0  0  0  0  0  2  0  0  0  0  0  0
  193.9470  170.3950  136.0610 C   0  0  0  0  0  3  0  0  0  0  0  0
  193.5140  172.3780  135.4510 C   0  0  0  0  0  0  0  0  0  0  0  0
  194.0090  170.4740  134.6820 C   0  0  0  0  0  3  0  0  0  0  0  0
  193.6330  171.6110  136.5500 N   0  0  0  0  0  0  0  0  0  0  0  0
  193.7390  171.7140  134.3480 O   0  0  0  0  0  0  0  0  0  0  0  0
  193.1640  173.7680  135.4610 N   0  0  0  0  0  2  0  0  0  0  0  0
  194.6210  174.4760  138.3270 C   0  0  0  0  0  3  0  0  0  0  0  0
  193.9490  175.1510  137.3980 C   0  0  0  0  0  3  0  0  0  0  0  0
  197.8150  175.3890  140.1000 C   0  0  1  0  0  3  0  0  0  0  0  0
  197.0590  174.5310  139.0680 C   0  0  1  0  0  3  0  0  0  0  0  0
  197.0440  177.4230  141.1900 O   0  0  0  0  0  0  0  0  0  0  0  0
  195.7030  175.0760  139.0420 N   0  0  0  0  0  0  0  0  0  0  0  0
  196.8160  176.4440  140.4330 C   0  0  0  0  0  0  0  0  0  0  0  0
  195.5660  176.2220  139.8240 N   0  0  0  0  0  2  0  0  0  0  0  0
  197.8070  174.6830  137.4480 S   0  0  0  0  0  0  0  0  0  0  0  0
  199.2280  175.1570  137.5850 O   0  0  0  0  0  0  0  0  0  0  0  0
  197.0310  175.7030  136.6640 O   0  0  0  0  0  0  0  0  0  0  0  0
  197.7580  173.1390  136.5430 C   0  0  2  0  0  3  0  0  0  0  0  0
  197.5850  173.3580  135.0760 C   0  0  0  0  0  0  0  0  0  0  0  0
  198.5970  173.5400  134.3500 O   0  0  0  0  0  0  0  0  0  0  0  0
  196.3200  173.3170  134.5010 O   0  0  0  0  0  1  0  0  0  0  0  0
  197.2280  171.0380  136.9910 C   0  0  0  0  0  1  0  0  0  0  0  0
  196.7200  172.3390  137.0250 O   0  0  0  0  0  0  0  0  0  0  0  0
  198.0550  174.6120  141.2370 O   0  0  0  0  0  0  0  0  0  0  0  0
  199.4440  174.5830  141.3800 C   0  0  0  0  0  2  0  0  0  0  0  0
  199.8520  175.5760  142.4470 C   0  0  0  0  0  2  0  0  0  0  0  0
  198.8300  175.5950  143.5700 C   0  0  0  0  0  2  0  0  0  0  0  0
  199.4790  177.2610  144.9420 O   0  0  0  0  0  1  0  0  0  0  0  0
  198.5700  176.9630  143.9840 N   0  0  0  0  0  2  0  0  0  0  0  0
  187.9800  177.2720  137.8090 O   0  0  0  0  0  0  0  0  0  0  0  0
  186.6040  177.0290  137.5340 C   0  0  0  0  0  2  0  0  0  0  0  0
  185.7580  177.9760  138.3210 C   0  0  0  0  0  0  0  0  0  0  0  0
  186.0640  178.2190  139.5520 N   0  0  0  0  0  0  0  0  0  0  0  0
  185.3230  179.1390  140.3810 C   0  0  0  0  0  2  0  0  0  0  0  0
  184.6000  178.0270  142.5740 N   0  0  0  0  0  2  0  0  0  0  0  0
  184.3320  178.3860  141.2120 C   0  0  0  0  0  0  0  0  0  0  0  0
  183.2450  178.0270  140.6890 O   0  0  0  0  0  0  0  0  0  0  0  0
  185.7550  178.4170  143.3840 C   0  0  2  0  0  3  0  0  0  0  0  0
  189.0830  177.1900  143.2510 C   0  0  2  0  0  3  0  0  0  0  0  0
  188.0030  177.8930  142.6930 O   0  0  0  0  0  0  0  0  0  0  0  0
  187.2750  176.8490  144.7100 C   0  0  0  0  0  2  0  0  0  0  0  0
  188.7700  176.9460  144.7230 C   0  0  2  0  0  3  0  0  0  0  0  0
  186.8700  177.3690  143.3370 C   0  0  1  0  0  3  0  0  0  0  0  0
  189.1610  178.1230  145.6060 C   0  0  0  0  0  1  0  0  0  0  0  0
  190.4190  177.8930  142.9850 C   0  0  2  0  0  3  0  0  0  0  0  0
  191.5770  177.0050  143.3990 C   0  0  0  0  0  1  0  0  0  0  0  0
  190.4800  179.0830  143.7140 O   0  0  0  0  0  1  0  0  0  0  0  0
  185.3720  178.8650  144.7940 C   0  0  0  0  0  2  0  0  0  0  0  0
  184.7460  180.1110  144.7410 O   0  0  0  0  0  1  0  0  0  0  0  0
  184.6080  178.6580  137.6360 C   0  0  0  0  0  2  0  0  0  0  0  0
  183.5330  177.6770  137.3020 C   0  0  0  0  0  0  0  0  0  0  0  0
  183.8670  176.4400  136.7410 C   0  0  0  0  0  3  0  0  0  0  0  0
  181.5210  175.8560  136.6240 C   0  0  0  0  0  3  0  0  0  0  0  0
  182.1900  178.0040  137.5200 C   0  0  0  0  0  3  0  0  0  0  0  0
  181.1850  177.0950  137.1800 C   0  0  0  0  0  3  0  0  0  0  0  0
  182.8620  175.5290  136.4030 C   0  0  0  0  0  3  0  0  0  0  0  0
  2  1  1  0  0  0  0
  3  6  2  0  0  0  0
  3 17  1  0  0  0  0
  4  9  1  0  0  0  0
  5  7  2  0  0  0  0
  6  1  1  0  0  0  0
  7  4  1  0  0  0  0
  7  6  1  0  0  0  0
  8  2  2  0  0  0  0
  9  8  1  0  0  0  0
 10 13  1  0  0  0  0
 11 15  1  0  0  0  0
 11 13  2  0  0  0  0
 12 10  2  0  0  0  0
 14 12  1  0  0  0  0
 14 11  1  0  0  0  0
 15  3  1  0  0  0  0
 16 21  1  0  0  0  0
 17 16  2  0  0  0  0
 18 22  1  0  0  0  0
 18 33  1  1  0  0  0
 19 24  1  6  0  0  0
 19 18  1  0  0  0  0
 21 19  1  0  0  0  0
 21 23  1  0  0  0  0
 22 20  2  0  0  0  0
 23 22  1  0  0  0  0
 24 25  2  0  0  0  0
 26 24  2  0  0  0  0
 27 28  1  6  0  0  0
 27 32  1  0  0  0  0
 27 24  1  0  0  0  0
 29 28  2  0  0  0  0
 30 28  1  0  0  0  0
 31 32  1  0  0  0  0
 33 34  1  0  0  0  0
 34 35  1  0  0  0  0
 35 36  1  0  0  0  0
 36 38  1  0  0  0  0
 38 37  1  0  0  0  0
 39  8  1  0  0  0  0
 40 39  1  0  0  0  0
 40 41  1  0  0  0  0
 41 42  2  0  0  0  0
 42 43  1  0  0  0  0
 43 45  1  0  0  0  0
 44 47  1  0  0  0  0
 45 44  1  0  0  0  0
 46 45  2  0  0  0  0
 47 57  1  1  0  0  0
 48 54  1  1  0  0  0
 48 51  1  0  0  0  0
 49 48  1  0  0  0  0
 49 52  1  0  0  0  0
 50 51  1  0  0  0  0
 51 53  1  1  0  0  0
 52 47  1  1  0  0  0
 52 50  1  0  0  0  0
 54 55  1  1  0  0  0
 54 56  1  0  0  0  0
 58 57  1  0  0  0  0
 59 41  1  0  0  0  0
 60 63  1  0  0  0  0
 60 59  1  0  0  0  0
 61 60  2  0  0  0  0
 62 64  1  0  0  0  0
 64 63  2  0  0  0  0
 65 62  2  0  0  0  0
 65 61  1  0  0  0  0
M  END
>  <MODEL>
9

>  <REMARK>
 VINA RESULT:      -4.1      3.820      9.236
  Name = 
  23 active torsions:
  status: ('A' for Active; 'I' for Inactive)
    1  A    between atoms: C_1  and  C_13
    2  A    between atoms: C_2  and  N_25
    3  A    between atoms: C_3  and  C_62
    4  A    between atoms: S_4  and  C_9
    5  A    between atoms: S_4  and  C_21
    6  A    between atoms: C_6  and  O_63
    7  A    between atoms: N_7  and  CA_49
    8  A    between atoms: C_8  and  C_38
    9  A    between atoms: C_17  and  CA_49
   10  A    between atoms: C_20  and  C_26
   11  A    between atoms: C_21  and  O_30
   12  A    between atoms: C_21  and  C_33
   13  A    between atoms: C_26  and  N_61
   14  A    between atoms: C_31  and  CA_49
   15  A    between atoms: C_32  and  C_44
   16  A    between atoms: C_32  and  C_64
   17  A    between atoms: C_38  and  N_54
   18  A    between atoms: C_39  and  C_47
   19  A    between atoms: C_39  and  O_56
   20  A    between atoms: C_44  and  O_63
   21  A    between atoms: C_47  and  C_62
   22  A    between atoms: C_53  and  O_56
   23  A    between atoms: N_55  and  C_64
                            x       y       z     vdW  Elec       q    Type
                         _______ _______ _______ _____ _____    ______ ____

>  <TORSDO>
F 23

$$$$
