=
 OpenBabel10232410283D

 43 49  0  0  1  0  0  0  0  0999 V2000
  187.1290  178.7680  143.3300 C   0  0  0  0  0  2  0  0  0  0  0  0
  187.9840  178.8220  140.9170 C   0  0  1  0  0  3  0  0  0  0  0  0
  182.5890  177.2810  138.1360 C   0  0  0  0  0  0  0  0  0  0  0  0
  181.4580  176.9400  135.9770 C   0  0  0  0  0  2  0  0  0  0  0  0
  188.7380  176.6460  139.6420 C   0  0  0  0  0  2  0  0  0  0  0  0
  181.5570  177.4380  137.3510 N   0  0  0  0  0  0  0  0  0  0  0  0
  182.2120  173.2130  136.8940 C   0  0  0  0  0  1  0  0  0  0  0  0
  183.6540  175.3490  136.9940 C   0  0  0  0  0  0  0  0  0  0  0  0
  184.8230  174.7040  136.2570 C   0  0  1  0  0  3  0  0  0  0  0  0
  184.4800  179.1700  140.3220 C   0  0  2  0  0  0  0  0  0  0  0  0
  187.3690  178.0370  142.0630 C   0  0  2  0  0  0  0  0  0  0  0  0
  184.2210  180.1090  139.3190 O   0  0  0  0  0  1  0  0  0  0  0  0
  190.0620  177.7920  137.9480 C   0  0  1  0  0  3  0  0  0  0  0  0
  186.7880  176.2020  136.7690 C   0  0  1  0  0  3  0  0  0  0  0  0
  184.3620  173.8910  135.2130 O   0  0  0  0  0  1  0  0  0  0  0  0
  187.3810  177.4920  136.4340 N   0  0  0  0  0  2  0  0  0  0  0  0
  183.5980  177.9210  140.4320 C   0  0  2  0  0  3  0  0  0  0  0  0
  189.6490  176.4100  138.4480 C   0  0  0  0  0  2  0  0  0  0  0  0
  189.0470  178.0610  140.1000 C   0  0  1  0  0  3  0  0  0  0  0  0
  188.6740  177.2220  135.8220 C   0  0  1  0  0  3  0  0  0  0  0  0
  181.3380  175.4170  135.9240 C   0  0  2  0  0  3  0  0  0  0  0  0
  182.5480  177.9200  139.4180 N   0  0  0  0  0  2  0  0  0  0  0  0
  188.6070  177.5520  134.3460 C   0  0  0  0  0  1  0  0  0  0  0  0
  186.1810  176.2570  138.0970 N   0  0  0  0  0  2  0  0  0  0  0  0
  183.3390  179.1190  141.3180 C   0  0  0  0  0  2  0  0  0  0  0  0
  189.7770  178.0670  136.4630 C   0  0  0  0  0  2  0  0  0  0  0  0
  186.5420  178.2940  140.8080 C   0  0  1  0  0  3  0  0  0  0  0  0
  187.8130  176.7340  142.2860 O   0  0  0  0  0  0  0  0  0  0  0  0
  189.3760  178.8130  138.8320 C   0  0  0  0  0  2  0  0  0  0  0  0
  187.4540  176.4620  143.5400 O   0  0  0  0  0  0  0  0  0  0  0  0
  186.5030  175.2390  134.6020 O   0  0  0  0  0  1  0  0  0  0  0  0
  182.2690  174.7360  136.9260 C   0  0  1  0  0  3  0  0  0  0  0  0
  185.6640  179.3620  141.0500 O   0  0  0  0  0  0  0  0  0  0  0  0
  185.0410  177.0350  138.0400 O   0  0  0  0  0  0  0  0  0  0  0  0
  187.5480  177.6720  144.2670 C   0  0  2  0  0  3  0  0  0  0  0  0
  181.6110  174.9890  134.6380 F   0  0  0  0  0  0  0  0  0  0  0  0
  185.7920  175.7550  135.6940 C   0  0  1  0  0  3  0  0  0  0  0  0
  183.7880  176.5040  137.7040 C   0  0  0  0  0  0  0  0  0  0  0  0
  187.4190  177.2750  146.6190 O   0  0  0  0  0  1  0  0  0  0  0  0
  186.6490  177.6090  145.5010 C   0  0  1  0  0  3  0  0  0  0  0  0
  184.7220  179.1470  145.3590 C   0  0  0  0  0  3  0  0  0  0  0  0
  185.9720  178.9200  145.7490 C   0  0  0  0  0  3  0  0  0  0  0  0
  183.9800  178.1770  144.6980 O   0  0  0  0  0  1  0  0  0  0  0  0
  1 35  1  0  0  0  0
  2 11  1  0  0  0  0
  3 22  1  0  0  0  0
  4  6  1  0  0  0  0
  5 19  1  0  0  0  0
  6  3  2  0  0  0  0
  7 32  1  0  0  0  0
  8 38  2  0  0  0  0
  9  8  1  0  0  0  0
 10 17  1  0  0  0  0
 10 33  1  0  0  0  0
 10 25  1  0  0  0  0
 11 28  1  0  0  0  0
 11  1  1  0  0  0  0
 12 10  1  0  0  0  0
 13 18  1  0  0  0  0
 13 29  1  0  0  0  0
 14 24  1  0  0  0  0
 15  9  1  0  0  0  0
 16 14  1  0  0  0  0
 17 25  1  0  0  0  0
 18  5  1  0  0  0  0
 19  2  1  0  0  0  0
 20 16  1  0  0  0  0
 20 26  1  0  0  0  0
 21  4  1  0  0  0  0
 21 32  1  0  0  0  0
 22 17  1  0  0  0  0
 23 20  1  0  0  0  0
 26 13  1  0  0  0  0
 27  2  1  0  0  0  0
 27 33  1  0  0  0  0
 27 11  1  0  0  0  0
 28 30  1  0  0  0  0
 29 19  1  0  0  0  0
 30 35  1  0  0  0  0
 31 37  1  0  0  0  0
 32  8  1  0  0  0  0
 34 24  1  0  0  0  0
 35 40  1  0  0  0  0
 36 21  1  0  0  0  0
 37  9  1  0  0  0  0
 37 14  1  0  0  0  0
 38 34  1  0  0  0  0
 38  3  1  0  0  0  0
 40 42  1  0  0  0  0
 40 39  1  0  0  0  0
 41 42  2  0  0  0  0
 43 41  1  0  0  0  0
M  END
>  <MODEL>
1

>  <REMARK>
 VINA RESULT:      -6.9      0.000      0.000
  Name = 
  2 active torsions:
  status: ('A' for Active; 'I' for Inactive)
    1  A    between atoms: C_10  and  C_24
    2  A    between atoms: C_10  and  C_40
                            x       y       z     vdW  Elec       q    Type
                         _______ _______ _______ _____ _____    ______ ____

>  <TORSDO>
F 2

$$$$
=
 OpenBabel10232410283D

 43 49  0  0  1  0  0  0  0  0999 V2000
  189.7940  174.4560  135.7060 C   0  0  0  0  0  2  0  0  0  0  0  0
  187.3490  174.0190  135.0840 C   0  0  1  0  0  3  0  0  0  0  0  0
  184.8600  178.7840  138.2960 C   0  0  0  0  0  0  0  0  0  0  0  0
  182.7820  179.9920  138.8270 C   0  0  0  0  0  2  0  0  0  0  0  0
  185.7100  172.6950  136.6610 C   0  0  0  0  0  2  0  0  0  0  0  0
  184.1990  179.8980  138.4700 N   0  0  0  0  0  0  0  0  0  0  0  0
  183.0780  177.7920  142.0470 C   0  0  0  0  0  1  0  0  0  0  0  0
  183.3600  177.2460  139.5430 C   0  0  0  0  0  0  0  0  0  0  0  0
  182.4370  176.0340  139.6100 C   0  0  1  0  0  3  0  0  0  0  0  0
  187.1210  177.4490  136.0550 C   0  0  2  0  0  0  0  0  0  0  0  0
  188.4180  174.1370  136.1560 C   0  0  2  0  0  0  0  0  0  0  0  0
  186.2930  178.1720  135.1920 O   0  0  0  0  0  1  0  0  0  0  0  0
  184.0900  172.1350  134.9290 C   0  0  1  0  0  3  0  0  0  0  0  0
  182.9860  174.7140  137.5310 C   0  0  1  0  0  3  0  0  0  0  0  0
  181.3310  176.2990  140.4280 O   0  0  0  0  0  1  0  0  0  0  0  0
  182.7920  174.6940  136.0850 N   0  0  0  0  0  2  0  0  0  0  0  0
  187.1270  177.7810  137.5510 C   0  0  2  0  0  3  0  0  0  0  0  0
  184.4200  171.9340  136.4060 C   0  0  0  0  0  2  0  0  0  0  0  0
  186.3390  172.8730  135.2910 C   0  0  1  0  0  3  0  0  0  0  0  0
  182.0350  173.4890  135.7730 C   0  0  1  0  0  3  0  0  0  0  0  0
  182.5190  179.5450  140.2650 C   0  0  2  0  0  3  0  0  0  0  0  0
  186.2200  178.8840  137.8540 N   0  0  0  0  0  2  0  0  0  0  0  0
  180.6340  173.8750  135.3470 C   0  0  0  0  0  1  0  0  0  0  0  0
  184.3560  175.1100  137.8480 N   0  0  0  0  0  2  0  0  0  0  0  0
  188.1960  178.3420  136.6410 C   0  0  0  0  0  2  0  0  0  0  0  0
  182.6920  172.7020  134.6380 C   0  0  0  0  0  2  0  0  0  0  0  0
  187.2920  175.1640  136.1130 C   0  0  1  0  0  3  0  0  0  0  0  0
  188.4100  173.2150  137.2020 O   0  0  0  0  0  0  0  0  0  0  0  0
  185.1710  173.0230  134.3460 C   0  0  0  0  0  2  0  0  0  0  0  0
  189.6390  173.2740  137.7170 O   0  0  0  0  0  0  0  0  0  0  0  0
  180.7360  174.9150  138.3050 O   0  0  0  0  0  1  0  0  0  0  0  0
  183.3260  178.3000  140.6320 C   0  0  1  0  0  3  0  0  0  0  0  0
  187.7630  176.3330  135.4960 O   0  0  0  0  0  0  0  0  0  0  0  0
  184.5140  176.4540  137.5670 O   0  0  0  0  0  0  0  0  0  0  0  0
  190.5220  173.5360  136.6440 C   0  0  2  0  0  3  0  0  0  0  0  0
  181.1660  179.3110  140.4230 F   0  0  0  0  0  0  0  0  0  0  0  0
  181.9500  175.6100  138.2160 C   0  0  1  0  0  3  0  0  0  0  0  0
  184.2150  177.4550  138.5030 C   0  0  0  0  0  0  0  0  0  0  0  0
  192.8970  173.6930  136.4370 O   0  0  0  0  0  1  0  0  0  0  0  0
  191.8080  174.1700  137.1720 C   0  0  1  0  0  3  0  0  0  0  0  0
  191.3120  176.4220  138.0570 C   0  0  0  0  0  3  0  0  0  0  0  0
  191.7630  175.6620  137.0650 C   0  0  0  0  0  3  0  0  0  0  0  0
  190.8560  175.8690  139.2460 O   0  0  0  0  0  1  0  0  0  0  0  0
  1 11  1  0  0  0  0
  1 35  1  0  0  0  0
  2 19  1  0  0  0  0
  2 27  1  0  0  0  0
  2 11  1  0  0  0  0
  3  6  2  0  0  0  0
  3 38  1  0  0  0  0
  4 21  1  0  0  0  0
  6  4  1  0  0  0  0
  8  9  1  0  0  0  0
  8 32  1  0  0  0  0
  9 15  1  0  0  0  0
 10 25  1  0  0  0  0
 10 17  1  0  0  0  0
 11 28  1  0  0  0  0
 12 10  1  0  0  0  0
 13 18  1  0  0  0  0
 14 24  1  0  0  0  0
 14 37  1  0  0  0  0
 16 14  1  0  0  0  0
 17 22  1  0  0  0  0
 18  5  1  0  0  0  0
 19  5  1  0  0  0  0
 20 16  1  0  0  0  0
 21 36  1  0  0  0  0
 21 32  1  0  0  0  0
 22  3  1  0  0  0  0
 23 20  1  0  0  0  0
 25 17  1  0  0  0  0
 26 13  1  0  0  0  0
 26 20  1  0  0  0  0
 27 11  1  0  0  0  0
 28 30  1  0  0  0  0
 29 13  1  0  0  0  0
 29 19  1  0  0  0  0
 32  7  1  0  0  0  0
 33 10  1  0  0  0  0
 33 27  1  0  0  0  0
 34 24  1  0  0  0  0
 34 38  1  0  0  0  0
 35 40  1  0  0  0  0
 35 30  1  0  0  0  0
 37 31  1  0  0  0  0
 37  9  1  0  0  0  0
 38  8  2  0  0  0  0
 39 40  1  0  0  0  0
 41 43  1  0  0  0  0
 42 40  1  0  0  0  0
 42 41  2  0  0  0  0
M  END
>  <MODEL>
2

>  <REMARK>
 VINA RESULT:      -6.7      3.419      6.899
  Name = 
  2 active torsions:
  status: ('A' for Active; 'I' for Inactive)
    1  A    between atoms: C_10  and  C_24
    2  A    between atoms: C_10  and  C_40
                            x       y       z     vdW  Elec       q    Type
                         _______ _______ _______ _____ _____    ______ ____

>  <TORSDO>
F 2

$$$$
=
 OpenBabel10232410283D

 43 49  0  0  1  0  0  0  0  0999 V2000
  187.6080  178.7720  143.3990 C   0  0  0  0  0  2  0  0  0  0  0  0
  188.2790  178.7880  140.9290 C   0  0  1  0  0  3  0  0  0  0  0  0
  182.6750  177.2670  138.5830 C   0  0  0  0  0  0  0  0  0  0  0  0
  181.3810  176.9110  136.5210 C   0  0  0  0  0  2  0  0  0  0  0  0
  188.9140  176.5900  139.6280 C   0  0  0  0  0  2  0  0  0  0  0  0
  181.5880  177.4250  137.8760 N   0  0  0  0  0  0  0  0  0  0  0  0
  182.1690  173.1880  137.4250 C   0  0  0  0  0  1  0  0  0  0  0  0
  183.6330  175.3110  137.3890 C   0  0  0  0  0  0  0  0  0  0  0  0
  184.7370  174.6450  136.5740 C   0  0  1  0  0  3  0  0  0  0  0  0
  184.7430  179.1630  140.5950 C   0  0  2  0  0  0  0  0  0  0  0  0
  187.7450  178.0240  142.1270 C   0  0  2  0  0  0  0  0  0  0  0  0
  184.4170  180.0930  139.6030 O   0  0  0  0  0  1  0  0  0  0  0  0
  190.1160  177.7030  137.8240 C   0  0  1  0  0  3  0  0  0  0  0  0
  186.7480  176.1300  136.9170 C   0  0  1  0  0  3  0  0  0  0  0  0
  184.1910  173.8250  135.5780 O   0  0  0  0  0  1  0  0  0  0  0  0
  187.3260  177.4110  136.5220 N   0  0  0  0  0  2  0  0  0  0  0  0
  183.8610  177.9250  140.7880 C   0  0  2  0  0  3  0  0  0  0  0  0
  189.7300  176.3310  138.3720 C   0  0  0  0  0  2  0  0  0  0  0  0
  189.2690  178.0070  140.0430 C   0  0  1  0  0  3  0  0  0  0  0  0
  188.5670  177.1200  135.8170 C   0  0  1  0  0  3  0  0  0  0  0  0
  181.2440  175.3880  136.4960 C   0  0  2  0  0  3  0  0  0  0  0  0
  182.7370  177.9220  139.8560 N   0  0  0  0  0  2  0  0  0  0  0  0
  188.3910  177.4330  134.3460 C   0  0  0  0  0  1  0  0  0  0  0  0
  186.2440  176.2070  138.2860 N   0  0  0  0  0  2  0  0  0  0  0  0
  183.6800  179.1360  141.6760 C   0  0  0  0  0  2  0  0  0  0  0  0
  189.7220  177.9620  136.3620 C   0  0  0  0  0  2  0  0  0  0  0  0
  186.8270  178.2730  140.9350 C   0  0  1  0  0  3  0  0  0  0  0  0
  188.1930  176.7200  142.3330 O   0  0  0  0  0  0  0  0  0  0  0  0
  189.5080  178.7410  138.7450 C   0  0  0  0  0  2  0  0  0  0  0  0
  187.9270  176.4660  143.6150 O   0  0  0  0  0  0  0  0  0  0  0  0
  186.2920  175.1440  134.7900 O   0  0  0  0  0  1  0  0  0  0  0  0
  182.2420  174.7110  137.4330 C   0  0  1  0  0  3  0  0  0  0  0  0
  185.9800  179.3530  141.2300 O   0  0  0  0  0  0  0  0  0  0  0  0
  185.1110  176.9960  138.3060 O   0  0  0  0  0  0  0  0  0  0  0  0
  188.0870  177.6840  144.3170 C   0  0  2  0  0  3  0  0  0  0  0  0
  181.4140  174.9420  135.1990 F   0  0  0  0  0  0  0  0  0  0  0  0
  185.6700  175.6800  135.9260 C   0  0  1  0  0  3  0  0  0  0  0  0
  183.8300  176.4730  138.0710 C   0  0  0  0  0  0  0  0  0  0  0  0
  186.1060  176.9200  145.4100 O   0  0  0  0  0  1  0  0  0  0  0  0
  187.2830  177.6450  145.6150 C   0  0  1  0  0  3  0  0  0  0  0  0
  188.1360  177.5460  147.9310 C   0  0  0  0  0  3  0  0  0  0  0  0
  188.0630  177.0040  146.7190 C   0  0  0  0  0  3  0  0  0  0  0  0
  187.4910  178.7380  148.2330 O   0  0  0  0  0  1  0  0  0  0  0  0
  1 35  1  0  0  0  0
  2 27  1  0  0  0  0
  2 11  1  0  0  0  0
  3 22  1  0  0  0  0
  4  6  1  0  0  0  0
  5 19  1  0  0  0  0
  6  3  2  0  0  0  0
  7 32  1  0  0  0  0
  8 32  1  0  0  0  0
  8 38  2  0  0  0  0
  9  8  1  0  0  0  0
 10 17  1  0  0  0  0
 10 33  1  0  0  0  0
 10 25  1  0  0  0  0
 11 28  1  0  0  0  0
 11  1  1  0  0  0  0
 12 10  1  0  0  0  0
 13 18  1  0  0  0  0
 13 29  1  0  0  0  0
 14 24  1  0  0  0  0
 15  9  1  0  0  0  0
 16 14  1  0  0  0  0
 17 25  1  0  0  0  0
 18  5  1  0  0  0  0
 19  2  1  0  0  0  0
 20 26  1  0  0  0  0
 20 16  1  0  0  0  0
 21  4  1  0  0  0  0
 21 32  1  0  0  0  0
 22 17  1  0  0  0  0
 23 20  1  0  0  0  0
 24 34  1  0  0  0  0
 26 13  1  0  0  0  0
 27 33  1  0  0  0  0
 27 11  1  0  0  0  0
 28 30  1  0  0  0  0
 29 19  1  0  0  0  0
 30 35  1  0  0  0  0
 31 37  1  0  0  0  0
 35 40  1  0  0  0  0
 36 21  1  0  0  0  0
 37  9  1  0  0  0  0
 37 14  1  0  0  0  0
 38 34  1  0  0  0  0
 38  3  1  0  0  0  0
 39 40  1  0  0  0  0
 40 42  1  0  0  0  0
 41 43  1  0  0  0  0
 42 41  2  0  0  0  0
M  END
>  <MODEL>
3

>  <REMARK>
 VINA RESULT:      -6.6      0.808      1.222
  Name = 
  2 active torsions:
  status: ('A' for Active; 'I' for Inactive)
    1  A    between atoms: C_10  and  C_24
    2  A    between atoms: C_10  and  C_40
                            x       y       z     vdW  Elec       q    Type
                         _______ _______ _______ _____ _____    ______ ____

>  <TORSDO>
F 2

$$$$
=
 OpenBabel10232410283D

 43 49  0  0  1  0  0  0  0  0999 V2000
  180.3370  179.9220  137.5650 C   0  0  0  0  0  2  0  0  0  0  0  0
  180.8340  177.4170  137.3780 C   0  0  1  0  0  3  0  0  0  0  0  0
  187.0000  177.7610  138.4210 C   0  0  0  0  0  0  0  0  0  0  0  0
  189.0720  176.4660  138.7070 C   0  0  0  0  0  2  0  0  0  0  0  0
  181.7300  176.3210  135.1600 C   0  0  0  0  0  2  0  0  0  0  0  0
  188.1260  177.5310  139.0430 N   0  0  0  0  0  0  0  0  0  0  0  0
  189.5030  177.5350  134.9690 C   0  0  0  0  0  1  0  0  0  0  0  0
  187.4930  176.5960  136.2840 C   0  0  0  0  0  0  0  0  0  0  0  0
  187.1990  175.5200  135.2430 C   0  0  1  0  0  3  0  0  0  0  0  0
  183.7140  178.4680  139.2110 C   0  0  2  0  0  0  0  0  0  0  0  0
  181.0590  178.8300  136.8700 C   0  0  2  0  0  0  0  0  0  0  0  0
  184.0380  177.5600  140.2230 O   0  0  0  0  0  1  0  0  0  0  0  0
  181.0810  174.0410  135.7240 C   0  0  1  0  0  3  0  0  0  0  0  0
  184.8310  174.8020  135.7370 C   0  0  1  0  0  3  0  0  0  0  0  0
  188.3900  174.9610  134.7600 O   0  0  0  0  0  1  0  0  0  0  0  0
  184.0260  174.0200  136.6700 N   0  0  0  0  0  2  0  0  0  0  0  0
  184.8360  179.1830  138.4500 C   0  0  2  0  0  3  0  0  0  0  0  0
  181.7010  174.9000  134.6230 C   0  0  0  0  0  2  0  0  0  0  0  0
  180.7090  176.3400  136.2830 C   0  0  1  0  0  3  0  0  0  0  0  0
  183.4280  172.9330  135.9090 C   0  0  1  0  0  3  0  0  0  0  0  0
  189.7910  176.7290  137.3840 C   0  0  2  0  0  3  0  0  0  0  0  0
  186.1510  178.7890  138.9490 N   0  0  0  0  0  2  0  0  0  0  0  0
  184.0740  171.6240  136.3150 C   0  0  0  0  0  1  0  0  0  0  0  0
  184.6300  176.2300  135.9740 N   0  0  0  0  0  2  0  0  0  0  0  0
  184.1320  179.8740  139.5960 C   0  0  0  0  0  2  0  0  0  0  0  0
  181.9240  172.8370  136.1720 C   0  0  0  0  0  2  0  0  0  0  0  0
  182.2170  178.0800  137.5190 C   0  0  1  0  0  3  0  0  0  0  0  0
  181.1170  179.0350  135.4910 O   0  0  0  0  0  0  0  0  0  0  0  0
  180.7790  174.9590  136.8910 C   0  0  0  0  0  2  0  0  0  0  0  0
  180.8880  180.3390  135.3320 O   0  0  0  0  0  0  0  0  0  0  0  0
  186.4940  173.2110  135.1020 O   0  0  0  0  0  1  0  0  0  0  0  0
  188.8430  177.2820  136.3200 C   0  0  1  0  0  3  0  0  0  0  0  0
  182.3600  178.5200  138.8440 O   0  0  0  0  0  0  0  0  0  0  0  0
  185.2370  176.5800  137.1640 O   0  0  0  0  0  0  0  0  0  0  0  0
  179.9820  180.7250  136.3470 C   0  0  2  0  0  3  0  0  0  0  0  0
  190.3790  175.5560  136.9490 F   0  0  0  0  0  0  0  0  0  0  0  0
  186.3080  174.4050  135.8130 C   0  0  1  0  0  3  0  0  0  0  0  0
  186.5860  176.9580  137.2340 C   0  0  0  0  0  0  0  0  0  0  0  0
  180.8760  182.4390  137.7490 O   0  0  0  0  0  1  0  0  0  0  0  0
  180.1010  182.2260  136.6060 C   0  0  1  0  0  3  0  0  0  0  0  0
  180.7310  184.2550  135.3470 C   0  0  0  0  0  3  0  0  0  0  0  0
  180.7350  182.9300  135.4490 C   0  0  0  0  0  3  0  0  0  0  0  0
  180.1340  185.0550  136.3120 O   0  0  0  0  0  1  0  0  0  0  0  0
  2 27  1  0  0  0  0
  3 22  1  0  0  0  0
  3  6  2  0  0  0  0
  4  6  1  0  0  0  0
  5 19  1  0  0  0  0
  7 32  1  0  0  0  0
  8 32  1  0  0  0  0
  8 38  2  0  0  0  0
  9 37  1  0  0  0  0
  9  8  1  0  0  0  0
 10 25  1  0  0  0  0
 10 12  1  0  0  0  0
 11  2  1  0  0  0  0
 11 27  1  0  0  0  0
 11  1  1  0  0  0  0
 13 26  1  0  0  0  0
 13 29  1  0  0  0  0
 14 37  1  0  0  0  0
 14 24  1  0  0  0  0
 14 16  1  0  0  0  0
 15  9  1  0  0  0  0
 17 22  1  0  0  0  0
 17 10  1  0  0  0  0
 17 25  1  0  0  0  0
 18  5  1  0  0  0  0
 18 13  1  0  0  0  0
 19 29  1  0  0  0  0
 19  2  1  0  0  0  0
 20 26  1  0  0  0  0
 20 23  1  0  0  0  0
 20 16  1  0  0  0  0
 21  4  1  0  0  0  0
 24 34  1  0  0  0  0
 27 33  1  0  0  0  0
 28 11  1  0  0  0  0
 30 28  1  0  0  0  0
 30 35  1  0  0  0  0
 31 37  1  0  0  0  0
 32 21  1  0  0  0  0
 33 10  1  0  0  0  0
 34 38  1  0  0  0  0
 35 40  1  0  0  0  0
 35  1  1  0  0  0  0
 36 21  1  0  0  0  0
 38  3  1  0  0  0  0
 40 39  1  0  0  0  0
 41 42  2  0  0  0  0
 41 43  1  0  0  0  0
 42 40  1  0  0  0  0
M  END
>  <MODEL>
4

>  <REMARK>
 VINA RESULT:      -6.5      3.449      7.616
  Name = 
  2 active torsions:
  status: ('A' for Active; 'I' for Inactive)
    1  A    between atoms: C_10  and  C_24
    2  A    between atoms: C_10  and  C_40
                            x       y       z     vdW  Elec       q    Type
                         _______ _______ _______ _____ _____    ______ ____

>  <TORSDO>
F 2

$$$$
=
 OpenBabel10232410283D

 43 49  0  0  1  0  0  0  0  0999 V2000
  183.4370  172.5910  134.5440 C   0  0  0  0  0  2  0  0  0  0  0  0
  182.5430  174.8850  135.2470 C   0  0  1  0  0  3  0  0  0  0  0  0
  187.9620  177.2330  137.3330 C   0  0  0  0  0  0  0  0  0  0  0  0
  189.0740  179.2230  138.2570 C   0  0  0  0  0  2  0  0  0  0  0  0
  181.8720  175.4330  137.7320 C   0  0  0  0  0  2  0  0  0  0  0  0
  188.9730  178.0580  137.3760 N   0  0  0  0  0  0  0  0  0  0  0  0
  188.5070  177.2180  141.5670 C   0  0  0  0  0  1  0  0  0  0  0  0
  186.9710  177.7180  139.5570 C   0  0  0  0  0  0  0  0  0  0  0  0
  185.8210  178.1960  140.4390 C   0  0  1  0  0  3  0  0  0  0  0  0
  186.0180  175.6560  134.9540 C   0  0  2  0  0  0  0  0  0  0  0  0
  183.2110  173.5760  135.6290 C   0  0  2  0  0  0  0  0  0  0  0  0
  186.2190  176.8990  134.3470 O   0  0  0  0  0  1  0  0  0  0  0  0
  180.4710  177.3540  137.1980 C   0  0  1  0  0  3  0  0  0  0  0  0
  183.7970  178.0980  138.9360 C   0  0  1  0  0  3  0  0  0  0  0  0
  186.3040  178.9640  141.5080 O   0  0  0  0  0  1  0  0  0  0  0  0
  183.1400  178.7840  137.8290 N   0  0  0  0  0  2  0  0  0  0  0  0
  186.9580  175.2030  136.0760 C   0  0  2  0  0  3  0  0  0  0  0  0
  180.9550  176.4760  138.3490 C   0  0  0  0  0  2  0  0  0  0  0  0
  181.5050  175.4090  136.2590 C   0  0  1  0  0  3  0  0  0  0  0  0
  181.8520  179.2510  138.3210 C   0  0  1  0  0  3  0  0  0  0  0  0
  189.2640  178.8240  139.7210 C   0  0  2  0  0  3  0  0  0  0  0  0
  187.9920  176.2010  136.3380 N   0  0  0  0  0  2  0  0  0  0  0  0
  181.8810  180.7610  138.4440 C   0  0  0  0  0  1  0  0  0  0  0  0
  184.4210  176.8640  138.4630 N   0  0  0  0  0  2  0  0  0  0  0  0
  187.1760  174.7220  134.6600 C   0  0  0  0  0  2  0  0  0  0  0  0
  180.7210  178.8600  137.3680 C   0  0  0  0  0  2  0  0  0  0  0  0
  184.0070  174.8730  135.7260 C   0  0  1  0  0  3  0  0  0  0  0  0
  182.8310  172.9620  136.8220 O   0  0  0  0  0  0  0  0  0  0  0  0
  181.1220  176.8330  135.9330 C   0  0  0  0  0  2  0  0  0  0  0  0
  183.2220  171.6940  136.6930 O   0  0  0  0  0  0  0  0  0  0  0  0
  184.0930  179.8870  140.4900 O   0  0  0  0  0  1  0  0  0  0  0  0
  188.3800  177.6390  140.1080 C   0  0  1  0  0  3  0  0  0  0  0  0
  184.8370  174.9840  134.6000 O   0  0  0  0  0  0  0  0  0  0  0  0
  185.5220  177.1820  137.6930 O   0  0  0  0  0  0  0  0  0  0  0  0
  183.0830  171.3580  135.3260 C   0  0  2  0  0  3  0  0  0  0  0  0
  188.9920  179.9170  140.5240 F   0  0  0  0  0  0  0  0  0  0  0  0
  184.7960  179.0180  139.6430 C   0  0  1  0  0  3  0  0  0  0  0  0
  186.7940  177.3810  138.2490 C   0  0  0  0  0  0  0  0  0  0  0  0
  185.3310  170.5610  135.2070 O   0  0  0  0  0  1  0  0  0  0  0  0
  184.0020  170.1880  134.9820 C   0  0  1  0  0  3  0  0  0  0  0  0
  182.7010  168.1540  135.4970 C   0  0  0  0  0  3  0  0  0  0  0  0
  183.6870  168.9850  135.8140 C   0  0  0  0  0  3  0  0  0  0  0  0
  181.9080  168.3600  134.3760 O   0  0  0  0  0  1  0  0  0  0  0  0
  1 35  1  0  0  0  0
  1 11  1  0  0  0  0
  2 11  1  0  0  0  0
  2 27  1  0  0  0  0
  2 19  1  0  0  0  0
  3  6  2  0  0  0  0
  3 38  1  0  0  0  0
  4 21  1  0  0  0  0
  5 18  1  0  0  0  0
  6  4  1  0  0  0  0
  8 32  1  0  0  0  0
  8  9  1  0  0  0  0
  9 15  1  0  0  0  0
 10 17  1  0  0  0  0
 11 27  1  0  0  0  0
 11 28  1  0  0  0  0
 12 10  1  0  0  0  0
 13 26  1  0  0  0  0
 13 18  1  0  0  0  0
 14 37  1  0  0  0  0
 16 20  1  0  0  0  0
 16 14  1  0  0  0  0
 17 22  1  0  0  0  0
 19  5  1  0  0  0  0
 20 23  1  0  0  0  0
 21 32  1  0  0  0  0
 21 36  1  0  0  0  0
 22  3  1  0  0  0  0
 24 14  1  0  0  0  0
 25 10  1  0  0  0  0
 25 17  1  0  0  0  0
 26 20  1  0  0  0  0
 29 19  1  0  0  0  0
 29 13  1  0  0  0  0
 30 28  1  0  0  0  0
 32  7  1  0  0  0  0
 33 10  1  0  0  0  0
 33 27  1  0  0  0  0
 34 38  1  0  0  0  0
 34 24  1  0  0  0  0
 35 30  1  0  0  0  0
 37  9  1  0  0  0  0
 37 31  1  0  0  0  0
 38  8  2  0  0  0  0
 40 39  1  0  0  0  0
 40 35  1  0  0  0  0
 40 42  1  0  0  0  0
 41 42  2  0  0  0  0
 43 41  1  0  0  0  0
M  END
>  <MODEL>
5

>  <REMARK>
 VINA RESULT:      -4.0      2.832      8.705
  Name = 
  2 active torsions:
  status: ('A' for Active; 'I' for Inactive)
    1  A    between atoms: C_10  and  C_24
    2  A    between atoms: C_10  and  C_40
                            x       y       z     vdW  Elec       q    Type
                         _______ _______ _______ _____ _____    ______ ____

>  <TORSDO>
F 2

$$$$
