=
 OpenBabel10232409033D

 43 46  0  0  1  0  0  0  0  0999 V2000
  187.7320  177.8130  139.9160 C   0  0  2  0  0  3  0  0  0  0  0  0
  190.5180  176.0450  139.7850 O   0  0  0  0  0  1  0  0  0  0  0  0
  190.1920  176.9060  144.4000 N   0  0  0  0  0  0  0  0  0  0  0  0
  190.1780  176.0320  143.2330 C   0  0  0  0  0  2  0  0  0  0  0  0
  189.2700  178.7670  141.6860 C   0  0  0  0  0  2  0  0  0  0  0  0
  189.1670  177.8890  140.4630 C   0  0  1  0  0  3  0  0  0  0  0  0
  190.6720  176.8150  142.0390 C   0  0  2  0  0  3  0  0  0  0  0  0
  190.4980  178.2660  142.4180 C   0  0  2  0  0  3  0  0  0  0  0  0
  189.7690  176.5480  140.8470 C   0  0  2  0  0  3  0  0  0  0  0  0
  190.2480  178.2800  143.9100 C   0  0  0  0  0  2  0  0  0  0  0  0
  188.9890  176.7610  145.0110 O   0  0  0  0  0  0  0  0  0  0  0  0
  189.0790  177.5150  146.1870 C   0  0  0  0  0  2  0  0  0  0  0  0
  189.6860  176.6690  147.2890 C   0  0  0  0  0  2  0  0  0  0  0  0
  190.9970  177.0770  147.5320 O   0  0  0  0  0  0  0  0  0  0  0  0
  191.7720  175.9540  147.2460 C   0  0  0  0  0  2  0  0  0  0  0  0
  192.8140  175.7710  148.3310 C   0  0  0  0  0  1  0  0  0  0  0  0
  187.6290  177.7470  138.3910 C   0  0  0  0  0  2  0  0  0  0  0  0
  188.7790  178.4180  137.7090 C   0  0  0  0  0  0  0  0  0  0  0  0
  188.9280  179.6600  137.8390 O   0  0  0  0  0  0  0  0  0  0  0  0
  189.7080  177.6810  136.9100 N   0  0  0  0  0  2  0  0  0  0  0  0
  189.5240  176.3220  136.6160 N   0  0  0  0  0  2  0  0  0  0  0  0
  189.2870  176.2130  135.1820 C   0  0  0  0  0  2  0  0  0  0  0  0
  186.6030  176.8360  134.8500 S   0  0  0  0  0  0  0  0  0  0  0  0
  185.6160  175.8230  135.9300 C   0  0  0  0  0  0  0  0  0  0  0  0
  184.2190  176.2130  136.2860 C   0  0  0  0  0  1  0  0  0  0  0  0
  187.5930  174.4880  135.9020 C   0  0  0  0  0  2  0  0  0  0  0  0
  186.2050  174.7210  136.3800 C   0  0  0  0  0  0  0  0  0  0  0  0
  187.9280  175.5790  134.8890 C   0  0  2  0  0  3  0  0  0  0  0  0
  185.5580  173.7800  137.3360 C   0  0  0  0  0  1  0  0  0  0  0  0
  186.9670  178.9540  140.3950 N   0  0  0  0  0  2  0  0  0  0  0  0
  183.4280  178.6720  141.5810 C   0  0  0  0  0  0  0  0  0  0  0  0
  183.6200  178.5910  142.9630 C   0  0  0  0  0  3  0  0  0  0  0  0
  185.8370  178.8340  141.2660 C   0  0  0  0  0  0  0  0  0  0  0  0
  184.3550  178.8760  139.3140 N   0  0  0  0  0  1  0  0  0  0  0  0
  184.5390  178.7900  140.7250 C   0  0  0  0  0  0  0  0  0  0  0  0
  186.0110  178.7600  142.6550 C   0  0  0  0  0  3  0  0  0  0  0  0
  184.9100  178.6360  143.5100 C   0  0  0  0  0  0  0  0  0  0  0  0
  183.8550  178.4370  145.6100 F   0  0  0  0  0  0  0  0  0  0  0  0
  185.7200  179.6930  145.4540 F   0  0  0  0  0  0  0  0  0  0  0  0
  185.0920  178.5490  145.0000 C   0  0  0  0  0  0  0  0  0  0  0  0
  185.8610  177.4490  145.3450 F   0  0  0  0  0  0  0  0  0  0  0  0
  181.0270  178.7950  142.1620 C   0  0  0  0  0  1  0  0  0  0  0  0
  182.0360  178.6100  141.0410 C   0  0  0  0  0  2  0  0  0  0  0  0
  1 17  1  6  0  0  0
  1 30  1  0  0  0  0
  3 11  1  0  0  0  0
  4  3  1  0  0  0  0
  6  1  1  1  0  0  0
  6  9  1  0  0  0  0
  6  5  1  0  0  0  0
  7  8  1  0  0  0  0
  7  4  1  1  0  0  0
  8  5  1  6  0  0  0
  8 10  1  0  0  0  0
  9  2  1  6  0  0  0
  9  7  1  0  0  0  0
 10  3  1  0  0  0  0
 11 12  1  0  0  0  0
 12 13  1  0  0  0  0
 13 14  1  0  0  0  0
 15 14  1  0  0  0  0
 15 16  1  0  0  0  0
 18 19  2  0  0  0  0
 18 17  1  0  0  0  0
 20 18  1  0  0  0  0
 21 20  1  0  0  0  0
 22 21  1  0  0  0  0
 23 28  1  0  0  0  0
 23 24  1  0  0  0  0
 24 25  1  0  0  0  0
 24 27  2  0  0  0  0
 26 27  1  0  0  0  0
 27 29  1  0  0  0  0
 28 22  1  1  0  0  0
 28 26  1  0  0  0  0
 30 33  1  0  0  0  0
 31 32  1  0  0  0  0
 32 37  2  0  0  0  0
 33 36  2  0  0  0  0
 34 35  1  0  0  0  0
 35 33  1  0  0  0  0
 35 31  2  0  0  0  0
 36 37  1  0  0  0  0
 37 40  1  0  0  0  0
 40 41  1  0  0  0  0
 40 39  1  0  0  0  0
 40 38  1  0  0  0  0
 43 31  1  0  0  0  0
 43 42  1  0  0  0  0
M  END
>  <MODEL>
1

>  <REMARK>
 VINA RESULT:      -7.8      0.000      0.000
  Name = 
  15 active torsions:
  status: ('A' for Active; 'I' for Inactive)
    1  A    between atoms: O_3  and  C_7
    2  A    between atoms: O_3  and  C_29
    3  A    between atoms: C_4  and  C_30
    4  A    between atoms: C_7  and  C_31
    5  A    between atoms: N_8  and  O_20
    6  A    between atoms: C_11  and  C_19
    7  A    between atoms: C_11  and  C_38
    8  A    between atoms: C_11  and  N_41
    9  A    between atoms: C_12  and  N_41
   10  A    between atoms: C_14  and  C_38
   11  A    between atoms: C_16  and  C_24
   12  A    between atoms: C_16  and  N_28
   13  A    between atoms: O_20  and  C_31
   14  A    between atoms: N_28  and  N_42
   15  A    between atoms: C_39  and  C_43
                            x       y       z     vdW  Elec       q    Type
                         _______ _______ _______ _____ _____    ______ ____

>  <TORSDO>
F 15

$$$$
=
 OpenBabel10232409033D

 43 46  0  0  1  0  0  0  0  0999 V2000
  186.7840  178.4140  141.8340 C   0  0  2  0  0  3  0  0  0  0  0  0
  183.7670  178.6190  143.1610 O   0  0  0  0  0  1  0  0  0  0  0  0
  182.7610  177.1250  138.8130 N   0  0  0  0  0  0  0  0  0  0  0  0
  182.8360  176.9680  140.2610 C   0  0  0  0  0  2  0  0  0  0  0  0
  185.2360  179.1720  139.9800 C   0  0  0  0  0  2  0  0  0  0  0  0
  185.4050  178.9880  141.4680 C   0  0  1  0  0  3  0  0  0  0  0  0
  183.1490  178.3120  140.8760 C   0  0  2  0  0  3  0  0  0  0  0  0
  183.7390  179.1320  139.7550 C   0  0  2  0  0  3  0  0  0  0  0  0
  184.2280  178.1480  141.9330 C   0  0  2  0  0  3  0  0  0  0  0  0
  183.4310  178.3790  138.4800 C   0  0  0  0  0  2  0  0  0  0  0  0
  183.5080  176.1310  138.2720 O   0  0  0  0  0  0  0  0  0  0  0  0
  182.5980  175.1170  137.9520 C   0  0  0  0  0  2  0  0  0  0  0  0
  182.3250  175.1290  136.4600 C   0  0  0  0  0  2  0  0  0  0  0  0
  183.4440  175.6010  135.7760 O   0  0  0  0  0  0  0  0  0  0  0  0
  182.9260  176.2220  134.6410 C   0  0  0  0  0  2  0  0  0  0  0  0
  182.3870  177.5870  135.0160 C   0  0  0  0  0  1  0  0  0  0  0  0
  187.5030  177.6910  140.6930 C   0  0  0  0  0  2  0  0  0  0  0  0
  188.8250  178.3090  140.3650 C   0  0  0  0  0  0  0  0  0  0  0  0
  189.7080  178.3780  141.2590 O   0  0  0  0  0  0  0  0  0  0  0  0
  189.1070  178.8240  139.0620 N   0  0  0  0  0  2  0  0  0  0  0  0
  188.1260  178.8980  138.0620 N   0  0  0  0  0  2  0  0  0  0  0  0
  188.7990  178.7440  136.7770 C   0  0  0  0  0  2  0  0  0  0  0  0
  186.6870  176.9520  136.6120 S   0  0  0  0  0  0  0  0  0  0  0  0
  187.2870  175.2950  136.8620 C   0  0  0  0  0  0  0  0  0  0  0  0
  186.3590  174.1920  137.2500 C   0  0  0  0  0  1  0  0  0  0  0  0
  189.3520  176.3340  136.2740 C   0  0  0  0  0  2  0  0  0  0  0  0
  188.5910  175.1240  136.6780 C   0  0  0  0  0  0  0  0  0  0  0  0
  188.3520  177.4680  136.0660 C   0  0  2  0  0  3  0  0  0  0  0  0
  189.2830  173.8220  136.8960 C   0  0  0  0  0  1  0  0  0  0  0  0
  186.6500  177.5040  142.9620 N   0  0  0  0  0  2  0  0  0  0  0  0
  188.0380  177.7180  146.4320 C   0  0  0  0  0  0  0  0  0  0  0  0
  189.3750  177.3850  146.2010 C   0  0  0  0  0  3  0  0  0  0  0  0
  187.5750  177.4650  144.0550 C   0  0  0  0  0  0  0  0  0  0  0  0
  185.7630  178.0980  145.5800 N   0  0  0  0  0  1  0  0  0  0  0  0
  187.1300  177.7560  145.3570 C   0  0  0  0  0  0  0  0  0  0  0  0
  188.9220  177.1410  143.8400 C   0  0  0  0  0  3  0  0  0  0  0  0
  189.8270  177.0950  144.9060 C   0  0  0  0  0  0  0  0  0  0  0  0
  191.8870  176.5210  145.9000 F   0  0  0  0  0  0  0  0  0  0  0  0
  191.9060  177.7840  144.0340 F   0  0  0  0  0  0  0  0  0  0  0  0
  191.2710  176.7400  144.6820 C   0  0  0  0  0  0  0  0  0  0  0  0
  191.3880  175.5960  143.9100 F   0  0  0  0  0  0  0  0  0  0  0  0
  188.8030  178.2480  148.7230 C   0  0  0  0  0  1  0  0  0  0  0  0
  187.5980  178.0090  147.8300 C   0  0  0  0  0  2  0  0  0  0  0  0
  1 17  1  6  0  0  0
  1 30  1  0  0  0  0
  3  4  1  0  0  0  0
  5  6  1  0  0  0  0
  6  1  1  6  0  0  0
  6  9  1  0  0  0  0
  7  4  1  6  0  0  0
  7  9  1  0  0  0  0
  8 10  1  6  0  0  0
  8  5  1  0  0  0  0
  8  7  1  0  0  0  0
  9  2  1  1  0  0  0
 10  3  1  0  0  0  0
 11  3  1  0  0  0  0
 12 11  1  0  0  0  0
 13 12  1  0  0  0  0
 14 13  1  0  0  0  0
 15 16  1  0  0  0  0
 15 14  1  0  0  0  0
 18 17  1  0  0  0  0
 18 19  2  0  0  0  0
 20 18  1  0  0  0  0
 21 20  1  0  0  0  0
 22 21  1  0  0  0  0
 23 24  1  0  0  0  0
 24 25  1  0  0  0  0
 26 27  1  0  0  0  0
 27 24  2  0  0  0  0
 27 29  1  0  0  0  0
 28 26  1  0  0  0  0
 28 23  1  0  0  0  0
 28 22  1  1  0  0  0
 30 33  1  0  0  0  0
 31 43  1  0  0  0  0
 32 31  1  0  0  0  0
 33 35  1  0  0  0  0
 35 34  1  0  0  0  0
 35 31  2  0  0  0  0
 36 33  2  0  0  0  0
 36 37  1  0  0  0  0
 37 32  2  0  0  0  0
 39 40  1  0  0  0  0
 40 37  1  0  0  0  0
 40 38  1  0  0  0  0
 41 40  1  0  0  0  0
 43 42  1  0  0  0  0
M  END
>  <MODEL>
2

>  <REMARK>
 VINA RESULT:      -7.5      2.992      7.256
  Name = 
  15 active torsions:
  status: ('A' for Active; 'I' for Inactive)
    1  A    between atoms: O_3  and  C_7
    2  A    between atoms: O_3  and  C_29
    3  A    between atoms: C_4  and  C_30
    4  A    between atoms: C_7  and  C_31
    5  A    between atoms: N_8  and  O_20
    6  A    between atoms: C_11  and  C_19
    7  A    between atoms: C_11  and  C_38
    8  A    between atoms: C_11  and  N_41
    9  A    between atoms: C_12  and  N_41
   10  A    between atoms: C_14  and  C_38
   11  A    between atoms: C_16  and  C_24
   12  A    between atoms: C_16  and  N_28
   13  A    between atoms: O_20  and  C_31
   14  A    between atoms: N_28  and  N_42
   15  A    between atoms: C_39  and  C_43
                            x       y       z     vdW  Elec       q    Type
                         _______ _______ _______ _____ _____    ______ ____

>  <TORSDO>
F 15

$$$$
=
 OpenBabel10232409033D

 43 46  0  0  1  0  0  0  0  0999 V2000
  187.8560  178.0390  138.1730 C   0  0  2  0  0  3  0  0  0  0  0  0
  186.7730  175.1200  137.0690 O   0  0  0  0  0  1  0  0  0  0  0  0
  191.4130  174.6900  136.4090 N   0  0  0  0  0  0  0  0  0  0  0  0
  190.1500  174.3460  137.0520 C   0  0  0  0  0  2  0  0  0  0  0  0
  189.3500  177.4080  136.2290 C   0  0  0  0  0  2  0  0  0  0  0  0
  188.0550  177.1280  136.9500 C   0  0  1  0  0  3  0  0  0  0  0  0
  189.0250  175.0020  136.2860 C   0  0  2  0  0  3  0  0  0  0  0  0
  189.6760  176.1180  135.5060 C   0  0  2  0  0  3  0  0  0  0  0  0
  188.0510  175.6410  137.2620 C   0  0  2  0  0  3  0  0  0  0  0  0
  191.1650  175.8570  135.5670 C   0  0  0  0  0  2  0  0  0  0  0  0
  192.2560  175.0930  137.3920 O   0  0  0  0  0  0  0  0  0  0  0  0
  193.3810  175.5990  136.7310 C   0  0  0  0  0  2  0  0  0  0  0  0
  194.6240  174.8770  137.2150 C   0  0  0  0  0  2  0  0  0  0  0  0
  194.9510  175.3070  138.5000 O   0  0  0  0  0  0  0  0  0  0  0  0
  195.7120  174.2680  139.0340 C   0  0  0  0  0  2  0  0  0  0  0  0
  195.2830  172.9560  138.4070 C   0  0  0  0  0  1  0  0  0  0  0  0
  187.9300  177.3240  139.5240 C   0  0  0  0  0  2  0  0  0  0  0  0
  189.2280  177.5640  140.2290 C   0  0  0  0  0  0  0  0  0  0  0  0
  190.2430  177.8720  139.5550 O   0  0  0  0  0  0  0  0  0  0  0  0
  189.3390  177.4470  141.6500 N   0  0  0  0  0  2  0  0  0  0  0  0
  188.2820  176.9790  142.4440 N   0  0  0  0  0  2  0  0  0  0  0  0
  188.8450  176.5810  143.7300 C   0  0  0  0  0  2  0  0  0  0  0  0
  189.4980  177.2360  146.3460 S   0  0  0  0  0  0  0  0  0  0  0  0
  188.0310  177.7350  147.2220 C   0  0  0  0  0  0  0  0  0  0  0  0
  187.9880  177.7300  148.7150 C   0  0  0  0  0  1  0  0  0  0  0  0
  187.2420  178.0640  144.9950 C   0  0  0  0  0  2  0  0  0  0  0  0
  187.0070  178.1040  146.4620 C   0  0  0  0  0  0  0  0  0  0  0  0
  188.7050  177.6950  144.7660 C   0  0  2  0  0  3  0  0  0  0  0  0
  185.6800  178.5000  147.0130 C   0  0  0  0  0  1  0  0  0  0  0  0
  186.5770  178.7240  138.0680 N   0  0  0  0  0  2  0  0  0  0  0  0
  183.2360  177.3930  139.1040 C   0  0  0  0  0  0  0  0  0  0  0  0
  183.2170  177.7510  140.4550 C   0  0  0  0  0  3  0  0  0  0  0  0
  185.4410  178.3990  138.8780 C   0  0  0  0  0  0  0  0  0  0  0  0
  184.3810  177.3540  136.9300 N   0  0  0  0  0  1  0  0  0  0  0  0
  184.3530  177.7130  138.3100 C   0  0  0  0  0  0  0  0  0  0  0  0
  185.4030  178.7590  140.2320 C   0  0  0  0  0  3  0  0  0  0  0  0
  184.2980  178.4370  141.0280 C   0  0  0  0  0  0  0  0  0  0  0  0
  184.6110  177.7220  143.2530 F   0  0  0  0  0  0  0  0  0  0  0  0
  182.9730  179.2090  142.8190 F   0  0  0  0  0  0  0  0  0  0  0  0
  184.2550  178.8140  142.4830 C   0  0  0  0  0  0  0  0  0  0  0  0
  185.1290  179.8550  142.7540 F   0  0  0  0  0  0  0  0  0  0  0  0
  181.2470  176.0300  139.6540 C   0  0  0  0  0  1  0  0  0  0  0  0
  182.0670  176.6540  138.5390 C   0  0  0  0  0  2  0  0  0  0  0  0
  1 17  1  1  0  0  0
  3  4  1  0  0  0  0
  3 11  1  0  0  0  0
  5  6  1  0  0  0  0
  6  9  1  0  0  0  0
  6  1  1  1  0  0  0
  7  4  1  1  0  0  0
  7  9  1  0  0  0  0
  8 10  1  1  0  0  0
  8  5  1  0  0  0  0
  8  7  1  0  0  0  0
  9  2  1  6  0  0  0
 10  3  1  0  0  0  0
 12 13  1  0  0  0  0
 12 11  1  0  0  0  0
 13 14  1  0  0  0  0
 14 15  1  0  0  0  0
 16 15  1  0  0  0  0
 17 18  1  0  0  0  0
 18 20  1  0  0  0  0
 19 18  2  0  0  0  0
 20 21  1  0  0  0  0
 21 22  1  0  0  0  0
 23 24  1  0  0  0  0
 24 25  1  0  0  0  0
 26 27  1  0  0  0  0
 27 29  1  0  0  0  0
 27 24  2  0  0  0  0
 28 22  1  6  0  0  0
 28 26  1  0  0  0  0
 28 23  1  0  0  0  0
 30  1  1  0  0  0  0
 30 33  1  0  0  0  0
 31 32  1  0  0  0  0
 32 37  2  0  0  0  0
 33 36  2  0  0  0  0
 34 35  1  0  0  0  0
 35 33  1  0  0  0  0
 35 31  2  0  0  0  0
 36 37  1  0  0  0  0
 37 40  1  0  0  0  0
 40 41  1  0  0  0  0
 40 39  1  0  0  0  0
 40 38  1  0  0  0  0
 43 31  1  0  0  0  0
 43 42  1  0  0  0  0
M  END
>  <MODEL>
3

>  <REMARK>
 VINA RESULT:      -7.3      3.381      7.028
  Name = 
  15 active torsions:
  status: ('A' for Active; 'I' for Inactive)
    1  A    between atoms: O_3  and  C_7
    2  A    between atoms: O_3  and  C_29
    3  A    between atoms: C_4  and  C_30
    4  A    between atoms: C_7  and  C_31
    5  A    between atoms: N_8  and  O_20
    6  A    between atoms: C_11  and  C_19
    7  A    between atoms: C_11  and  C_38
    8  A    between atoms: C_11  and  N_41
    9  A    between atoms: C_12  and  N_41
   10  A    between atoms: C_14  and  C_38
   11  A    between atoms: C_16  and  C_24
   12  A    between atoms: C_16  and  N_28
   13  A    between atoms: O_20  and  C_31
   14  A    between atoms: N_28  and  N_42
   15  A    between atoms: C_39  and  C_43
                            x       y       z     vdW  Elec       q    Type
                         _______ _______ _______ _____ _____    ______ ____

>  <TORSDO>
F 15

$$$$
=
 OpenBabel10232409033D

 43 46  0  0  1  0  0  0  0  0999 V2000
  185.1670  178.1560  138.8030 C   0  0  2  0  0  3  0  0  0  0  0  0
  182.2240  179.2570  137.7870 O   0  0  0  0  0  1  0  0  0  0  0  0
  182.1120  174.8020  136.2750 N   0  0  0  0  0  0  0  0  0  0  0  0
  181.6680  175.9030  137.1210 C   0  0  0  0  0  2  0  0  0  0  0  0
  184.6980  177.0130  136.5940 C   0  0  0  0  0  2  0  0  0  0  0  0
  184.3120  178.1350  137.5250 C   0  0  1  0  0  3  0  0  0  0  0  0
  182.2760  177.1850  136.6030 C   0  0  2  0  0  3  0  0  0  0  0  0
  183.4560  176.7540  135.7670 C   0  0  2  0  0  3  0  0  0  0  0  0
  182.8190  177.9970  137.7670 C   0  0  2  0  0  3  0  0  0  0  0  0
  183.2880  175.2670  135.5450 C   0  0  0  0  0  2  0  0  0  0  0  0
  182.5360  173.8170  137.1050 O   0  0  0  0  0  0  0  0  0  0  0  0
  183.2250  172.9140  136.2870 C   0  0  0  0  0  2  0  0  0  0  0  0
  184.2190  172.1280  137.1200 C   0  0  0  0  0  2  0  0  0  0  0  0
  184.9760  172.9970  137.9030 O   0  0  0  0  0  0  0  0  0  0  0  0
  186.2820  172.8380  137.4420 C   0  0  0  0  0  2  0  0  0  0  0  0
  186.8450  174.1890  137.0480 C   0  0  0  0  0  1  0  0  0  0  0  0
  184.5500  178.9210  139.9770 C   0  0  0  0  0  2  0  0  0  0  0  0
  183.9990  178.0100  141.0280 C   0  0  0  0  0  0  0  0  0  0  0  0
  183.0680  177.2190  140.7270 O   0  0  0  0  0  0  0  0  0  0  0  0
  184.5040  178.0200  142.3650 N   0  0  0  0  0  2  0  0  0  0  0  0
  185.4460  178.9650  142.7990 N   0  0  0  0  0  2  0  0  0  0  0  0
  185.1460  179.2720  144.1930 C   0  0  0  0  0  2  0  0  0  0  0  0
  185.6620  178.7200  146.8640 S   0  0  0  0  0  0  0  0  0  0  0  0
  187.3200  178.0960  147.0370 C   0  0  0  0  0  0  0  0  0  0  0  0
  188.0150  178.1180  148.3580 C   0  0  0  0  0  1  0  0  0  0  0  0
  187.0190  177.6610  144.7100 C   0  0  0  0  0  2  0  0  0  0  0  0
  187.8710  177.6190  145.9270 C   0  0  0  0  0  0  0  0  0  0  0  0
  185.6390  178.1640  145.1240 C   0  0  2  0  0  3  0  0  0  0  0  0
  189.2690  177.1060  145.8640 C   0  0  0  0  0  1  0  0  0  0  0  0
  186.4760  178.7200  138.5060 N   0  0  0  0  0  2  0  0  0  0  0  0
  189.7360  176.9070  138.1940 C   0  0  0  0  0  0  0  0  0  0  0  0
  190.1210  176.8270  139.5350 C   0  0  0  0  0  3  0  0  0  0  0  0
  187.7070  178.0780  138.8580 C   0  0  0  0  0  0  0  0  0  0  0  0
  188.1220  177.6250  136.4850 N   0  0  0  0  0  1  0  0  0  0  0  0
  188.5260  177.5390  137.8490 C   0  0  0  0  0  0  0  0  0  0  0  0
  188.1040  177.9810  140.1980 C   0  0  0  0  0  3  0  0  0  0  0  0
  189.3090  177.3600  140.5460 C   0  0  0  0  0  0  0  0  0  0  0  0
  189.4020  178.4240  142.6490 F   0  0  0  0  0  0  0  0  0  0  0  0
  191.1130  177.0900  142.0380 F   0  0  0  0  0  0  0  0  0  0  0  0
  189.7420  177.2600  141.9820 C   0  0  0  0  0  0  0  0  0  0  0  0
  189.1320  176.1890  142.6140 F   0  0  0  0  0  0  0  0  0  0  0  0
  191.4190  175.1600  137.7140 C   0  0  0  0  0  1  0  0  0  0  0  0
  190.6360  176.3340  137.1500 C   0  0  0  0  0  2  0  0  0  0  0  0
  1 17  1  1  0  0  0
  3 11  1  0  0  0  0
  3  4  1  0  0  0  0
  5  6  1  0  0  0  0
  6  9  1  0  0  0  0
  6  1  1  1  0  0  0
  7  4  1  1  0  0  0
  7  9  1  0  0  0  0
  8 10  1  1  0  0  0
  8  5  1  0  0  0  0
  8  7  1  0  0  0  0
  9  2  1  6  0  0  0
 10  3  1  0  0  0  0
 12 11  1  0  0  0  0
 12 13  1  0  0  0  0
 13 14  1  0  0  0  0
 15 14  1  0  0  0  0
 16 15  1  0  0  0  0
 17 18  1  0  0  0  0
 18 20  1  0  0  0  0
 19 18  2  0  0  0  0
 20 21  1  0  0  0  0
 21 22  1  0  0  0  0
 23 24  1  0  0  0  0
 24 25  1  0  0  0  0
 26 28  1  0  0  0  0
 26 27  1  0  0  0  0
 27 24  2  0  0  0  0
 28 22  1  6  0  0  0
 28 23  1  0  0  0  0
 29 27  1  0  0  0  0
 30  1  1  0  0  0  0
 30 33  1  0  0  0  0
 31 32  1  0  0  0  0
 32 37  2  0  0  0  0
 33 36  2  0  0  0  0
 34 35  1  0  0  0  0
 35 31  2  0  0  0  0
 35 33  1  0  0  0  0
 36 37  1  0  0  0  0
 37 40  1  0  0  0  0
 40 39  1  0  0  0  0
 40 41  1  0  0  0  0
 40 38  1  0  0  0  0
 43 42  1  0  0  0  0
 43 31  1  0  0  0  0
M  END
>  <MODEL>
4

>  <REMARK>
 VINA RESULT:      -7.3      3.818      8.932
  Name = 
  15 active torsions:
  status: ('A' for Active; 'I' for Inactive)
    1  A    between atoms: O_3  and  C_7
    2  A    between atoms: O_3  and  C_29
    3  A    between atoms: C_4  and  C_30
    4  A    between atoms: C_7  and  C_31
    5  A    between atoms: N_8  and  O_20
    6  A    between atoms: C_11  and  C_19
    7  A    between atoms: C_11  and  C_38
    8  A    between atoms: C_11  and  N_41
    9  A    between atoms: C_12  and  N_41
   10  A    between atoms: C_14  and  C_38
   11  A    between atoms: C_16  and  C_24
   12  A    between atoms: C_16  and  N_28
   13  A    between atoms: O_20  and  C_31
   14  A    between atoms: N_28  and  N_42
   15  A    between atoms: C_39  and  C_43
                            x       y       z     vdW  Elec       q    Type
                         _______ _______ _______ _____ _____    ______ ____

>  <TORSDO>
F 15

$$$$
=
 OpenBabel10232409033D

 43 46  0  0  1  0  0  0  0  0999 V2000
  187.7680  177.7800  139.9050 C   0  0  2  0  0  3  0  0  0  0  0  0
  190.5920  176.0780  139.7120 O   0  0  0  0  0  1  0  0  0  0  0  0
  190.2450  176.7620  144.3550 N   0  0  0  0  0  0  0  0  0  0  0  0
  190.2510  175.9320  143.1560 C   0  0  0  0  0  2  0  0  0  0  0  0
  189.2850  178.7010  141.7100 C   0  0  0  0  0  2  0  0  0  0  0  0
  189.2010  177.8670  140.4560 C   0  0  1  0  0  3  0  0  0  0  0  0
  190.7280  176.7680  141.9930 C   0  0  2  0  0  3  0  0  0  0  0  0
  190.5220  178.2000  142.4250 C   0  0  2  0  0  3  0  0  0  0  0  0
  189.8310  176.5260  140.7910 C   0  0  2  0  0  3  0  0  0  0  0  0
  190.2720  178.1540  143.9160 C   0  0  0  0  0  2  0  0  0  0  0  0
  189.0450  176.5690  144.9590 O   0  0  0  0  0  0  0  0  0  0  0  0
  188.8240  177.7240  145.7180 C   0  0  0  0  0  2  0  0  0  0  0  0
  188.5490  177.3410  147.1600 C   0  0  0  0  0  2  0  0  0  0  0  0
  187.4140  178.0070  147.6200 O   0  0  0  0  0  0  0  0  0  0  0  0
  186.4910  177.8850  146.5820 C   0  0  0  0  0  2  0  0  0  0  0  0
  185.5130  179.0410  146.6410 C   0  0  0  0  0  1  0  0  0  0  0  0
  187.6710  177.6830  138.3810 C   0  0  0  0  0  2  0  0  0  0  0  0
  188.7970  178.3840  137.6890 C   0  0  0  0  0  0  0  0  0  0  0  0
  188.9120  179.6300  137.8120 O   0  0  0  0  0  0  0  0  0  0  0  0
  189.7420  177.6690  136.8890 N   0  0  0  0  0  2  0  0  0  0  0  0
  189.5960  176.3040  136.6020 N   0  0  0  0  0  2  0  0  0  0  0  0
  189.3130  176.1840  135.1770 C   0  0  0  0  0  2  0  0  0  0  0  0
  186.5770  176.5580  134.9000 S   0  0  0  0  0  0  0  0  0  0  0  0
  185.7100  175.4840  136.0240 C   0  0  0  0  0  0  0  0  0  0  0  0
  184.2920  175.7550  136.4060 C   0  0  0  0  0  1  0  0  0  0  0  0
  187.7970  174.3300  135.9730 C   0  0  0  0  0  2  0  0  0  0  0  0
  186.4060  174.4490  136.4810 C   0  0  0  0  0  0  0  0  0  0  0  0
  188.0100  175.4250  134.9310 C   0  0  2  0  0  3  0  0  0  0  0  0
  185.8680  173.4750  137.4710 C   0  0  0  0  0  1  0  0  0  0  0  0
  187.0010  178.9310  140.3570 N   0  0  0  0  0  2  0  0  0  0  0  0
  183.7930  178.6290  142.2610 C   0  0  0  0  0  0  0  0  0  0  0  0
  182.8610  178.7760  141.2310 C   0  0  0  0  0  3  0  0  0  0  0  0
  185.6000  178.8770  140.6480 C   0  0  0  0  0  0  0  0  0  0  0  0
  186.1300  178.5320  143.0170 N   0  0  0  0  0  1  0  0  0  0  0  0
  185.1700  178.6830  141.9730 C   0  0  0  0  0  0  0  0  0  0  0  0
  184.6520  179.0130  139.6250 C   0  0  0  0  0  3  0  0  0  0  0  0
  183.2810  178.9670  139.9070 C   0  0  0  0  0  0  0  0  0  0  0  0
  182.6280  178.3480  137.7270 F   0  0  0  0  0  0  0  0  0  0  0  0
  182.1960  180.4460  138.4270 F   0  0  0  0  0  0  0  0  0  0  0  0
  182.2600  179.1200  138.8140 C   0  0  0  0  0  0  0  0  0  0  0  0
  181.0060  178.7190  139.2430 F   0  0  0  0  0  0  0  0  0  0  0  0
  181.8540  178.8900  143.7740 C   0  0  0  0  0  1  0  0  0  0  0  0
  183.2990  178.4380  143.6580 C   0  0  0  0  0  2  0  0  0  0  0  0
  1 17  1  6  0  0  0
  1 30  1  0  0  0  0
  3 11  1  0  0  0  0
  4  3  1  0  0  0  0
  6  1  1  1  0  0  0
  6  9  1  0  0  0  0
  6  5  1  0  0  0  0
  7  8  1  0  0  0  0
  7  4  1  1  0  0  0
  8  5  1  6  0  0  0
  8 10  1  0  0  0  0
  9  2  1  6  0  0  0
  9  7  1  0  0  0  0
 10  3  1  0  0  0  0
 11 12  1  0  0  0  0
 12 13  1  0  0  0  0
 13 14  1  0  0  0  0
 15 16  1  0  0  0  0
 15 14  1  0  0  0  0
 18 19  2  0  0  0  0
 18 17  1  0  0  0  0
 20 18  1  0  0  0  0
 21 20  1  0  0  0  0
 22 21  1  0  0  0  0
 23 28  1  0  0  0  0
 23 24  1  0  0  0  0
 24 25  1  0  0  0  0
 24 27  2  0  0  0  0
 26 27  1  0  0  0  0
 27 29  1  0  0  0  0
 28 22  1  1  0  0  0
 28 26  1  0  0  0  0
 30 33  1  0  0  0  0
 31 43  1  0  0  0  0
 32 31  2  0  0  0  0
 33 35  2  0  0  0  0
 35 31  1  0  0  0  0
 35 34  1  0  0  0  0
 36 37  2  0  0  0  0
 36 33  1  0  0  0  0
 37 32  1  0  0  0  0
 38 40  1  0  0  0  0
 39 40  1  0  0  0  0
 40 41  1  0  0  0  0
 40 37  1  0  0  0  0
 43 42  1  0  0  0  0
M  END
>  <MODEL>
5

>  <REMARK>
 VINA RESULT:      -7.2      2.375      3.099
  Name = 
  15 active torsions:
  status: ('A' for Active; 'I' for Inactive)
    1  A    between atoms: O_3  and  C_7
    2  A    between atoms: O_3  and  C_29
    3  A    between atoms: C_4  and  C_30
    4  A    between atoms: C_7  and  C_31
    5  A    between atoms: N_8  and  O_20
    6  A    between atoms: C_11  and  C_19
    7  A    between atoms: C_11  and  C_38
    8  A    between atoms: C_11  and  N_41
    9  A    between atoms: C_12  and  N_41
   10  A    between atoms: C_14  and  C_38
   11  A    between atoms: C_16  and  C_24
   12  A    between atoms: C_16  and  N_28
   13  A    between atoms: O_20  and  C_31
   14  A    between atoms: N_28  and  N_42
   15  A    between atoms: C_39  and  C_43
                            x       y       z     vdW  Elec       q    Type
                         _______ _______ _______ _____ _____    ______ ____

>  <TORSDO>
F 15

$$$$
=
 OpenBabel10232409033D

 43 46  0  0  1  0  0  0  0  0999 V2000
  188.0710  177.6900  140.0190 C   0  0  2  0  0  3  0  0  0  0  0  0
  190.9560  176.1480  139.5680 O   0  0  0  0  0  1  0  0  0  0  0  0
  190.9520  176.7440  144.2360 N   0  0  0  0  0  0  0  0  0  0  0  0
  190.9050  175.9330  143.0250 C   0  0  0  0  0  2  0  0  0  0  0  0
  189.6790  178.6660  141.7140 C   0  0  0  0  0  2  0  0  0  0  0  0
  189.5380  177.8470  140.4550 C   0  0  1  0  0  3  0  0  0  0  0  0
  191.2410  176.8110  141.8430 C   0  0  2  0  0  3  0  0  0  0  0  0
  190.9950  178.2230  142.3170 C   0  0  2  0  0  3  0  0  0  0  0  0
  190.2630  176.5370  140.7120 C   0  0  2  0  0  3  0  0  0  0  0  0
  190.8700  178.1420  143.8220 C   0  0  0  0  0  2  0  0  0  0  0  0
  189.8180  176.4780  144.9300 O   0  0  0  0  0  0  0  0  0  0  0  0
  189.6130  177.5960  145.7470 C   0  0  0  0  0  2  0  0  0  0  0  0
  189.7340  177.1920  147.2040 C   0  0  0  0  0  2  0  0  0  0  0  0
  188.5750  176.5350  147.6120 O   0  0  0  0  0  0  0  0  0  0  0  0
  187.7680  177.5420  148.1410 C   0  0  0  0  0  2  0  0  0  0  0  0
  188.5930  178.4130  149.0670 C   0  0  0  0  0  1  0  0  0  0  0  0
  187.8630  177.5280  138.5120 C   0  0  0  0  0  2  0  0  0  0  0  0
  188.8030  178.3710  137.7090 C   0  0  0  0  0  0  0  0  0  0  0  0
  188.9810  179.5710  138.0370 O   0  0  0  0  0  0  0  0  0  0  0  0
  189.5000  177.8420  136.5780 N   0  0  0  0  0  2  0  0  0  0  0  0
  189.2470  176.5550  136.0810 N   0  0  0  0  0  2  0  0  0  0  0  0
  190.5080  175.8240  136.0980 C   0  0  0  0  0  2  0  0  0  0  0  0
  190.5110  173.2410  135.0840 S   0  0  0  0  0  0  0  0  0  0  0  0
  188.9820  172.4320  135.5040 C   0  0  0  0  0  0  0  0  0  0  0  0
  188.5200  171.2250  134.7560 C   0  0  0  0  0  1  0  0  0  0  0  0
  188.9320  174.1580  137.1500 C   0  0  0  0  0  2  0  0  0  0  0  0
  188.3050  172.9720  136.5120 C   0  0  0  0  0  0  0  0  0  0  0  0
  190.3000  174.3670  136.5070 C   0  0  2  0  0  3  0  0  0  0  0  0
  186.9800  172.4680  136.9690 C   0  0  0  0  0  1  0  0  0  0  0  0
  187.2990  178.8320  140.4850 N   0  0  0  0  0  2  0  0  0  0  0  0
  183.7870  178.6930  141.7720 C   0  0  0  0  0  0  0  0  0  0  0  0
  184.0150  178.4890  143.1350 C   0  0  0  0  0  3  0  0  0  0  0  0
  186.1910  178.7180  141.3840 C   0  0  0  0  0  0  0  0  0  0  0  0
  184.6570  179.0140  139.4950 N   0  0  0  0  0  1  0  0  0  0  0  0
  184.8770  178.8040  140.8880 C   0  0  0  0  0  0  0  0  0  0  0  0
  186.4020  178.5220  142.7560 C   0  0  0  0  0  3  0  0  0  0  0  0
  185.3210  178.4040  143.6380 C   0  0  0  0  0  0  0  0  0  0  0  0
  186.1310  176.9510  145.3090 F   0  0  0  0  0  0  0  0  0  0  0  0
  184.3270  178.2220  145.7670 F   0  0  0  0  0  0  0  0  0  0  0  0
  185.5420  178.1870  145.1090 C   0  0  0  0  0  0  0  0  0  0  0  0
  186.3670  179.1650  145.6390 F   0  0  0  0  0  0  0  0  0  0  0  0
  181.4110  178.8000  142.4500 C   0  0  0  0  0  1  0  0  0  0  0  0
  182.3790  178.7670  141.2790 C   0  0  0  0  0  2  0  0  0  0  0  0
  1 17  1  6  0  0  0
  1 30  1  0  0  0  0
  3 11  1  0  0  0  0
  4  3  1  0  0  0  0
  6  1  1  1  0  0  0
  6  9  1  0  0  0  0
  6  5  1  0  0  0  0
  7  8  1  0  0  0  0
  7  4  1  1  0  0  0
  8  5  1  6  0  0  0
  8 10  1  0  0  0  0
  9  2  1  6  0  0  0
  9  7  1  0  0  0  0
 10  3  1  0  0  0  0
 11 12  1  0  0  0  0
 12 13  1  0  0  0  0
 13 14  1  0  0  0  0
 14 15  1  0  0  0  0
 15 16  1  0  0  0  0
 18 19  2  0  0  0  0
 18 17  1  0  0  0  0
 20 18  1  0  0  0  0
 21 22  1  0  0  0  0
 21 20  1  0  0  0  0
 23 24  1  0  0  0  0
 23 28  1  0  0  0  0
 24 27  2  0  0  0  0
 25 24  1  0  0  0  0
 27 29  1  0  0  0  0
 27 26  1  0  0  0  0
 28 22  1  6  0  0  0
 28 26  1  0  0  0  0
 30 33  1  0  0  0  0
 31 32  1  0  0  0  0
 32 37  2  0  0  0  0
 33 36  2  0  0  0  0
 34 35  1  0  0  0  0
 35 33  1  0  0  0  0
 35 31  2  0  0  0  0
 36 37  1  0  0  0  0
 37 40  1  0  0  0  0
 40 38  1  0  0  0  0
 40 41  1  0  0  0  0
 40 39  1  0  0  0  0
 43 31  1  0  0  0  0
 43 42  1  0  0  0  0
M  END
>  <MODEL>
6

>  <REMARK>
 VINA RESULT:      -7.1      1.669      2.143
  Name = 
  15 active torsions:
  status: ('A' for Active; 'I' for Inactive)
    1  A    between atoms: O_3  and  C_7
    2  A    between atoms: O_3  and  C_29
    3  A    between atoms: C_4  and  C_30
    4  A    between atoms: C_7  and  C_31
    5  A    between atoms: N_8  and  O_20
    6  A    between atoms: C_11  and  C_19
    7  A    between atoms: C_11  and  C_38
    8  A    between atoms: C_11  and  N_41
    9  A    between atoms: C_12  and  N_41
   10  A    between atoms: C_14  and  C_38
   11  A    between atoms: C_16  and  C_24
   12  A    between atoms: C_16  and  N_28
   13  A    between atoms: O_20  and  C_31
   14  A    between atoms: N_28  and  N_42
   15  A    between atoms: C_39  and  C_43
                            x       y       z     vdW  Elec       q    Type
                         _______ _______ _______ _____ _____    ______ ____

>  <TORSDO>
F 15

$$$$
=
 OpenBabel10232409033D

 43 46  0  0  1  0  0  0  0  0999 V2000
  186.3190  178.4900  138.0020 C   0  0  2  0  0  3  0  0  0  0  0  0
  184.5100  175.7420  137.7160 O   0  0  0  0  0  1  0  0  0  0  0  0
  188.2830  174.6340  135.1300 N   0  0  0  0  0  0  0  0  0  0  0  0
  187.4050  174.4870  136.2860 C   0  0  0  0  0  2  0  0  0  0  0  0
  186.7050  177.6190  135.6570 C   0  0  0  0  0  2  0  0  0  0  0  0
  185.8410  177.5410  136.8910 C   0  0  1  0  0  3  0  0  0  0  0  0
  186.1480  175.2860  136.0400 C   0  0  2  0  0  3  0  0  0  0  0  0
  186.5150  176.2840  134.9680 C   0  0  2  0  0  3  0  0  0  0  0  0
  185.7950  176.0760  137.2900 C   0  0  2  0  0  3  0  0  0  0  0  0
  187.8320  175.8110  134.3930 C   0  0  0  0  0  2  0  0  0  0  0  0
  189.5170  174.9270  135.6110 O   0  0  0  0  0  0  0  0  0  0  0  0
  189.3950  174.8660  137.0040 C   0  0  0  0  0  2  0  0  0  0  0  0
  190.7600  175.0410  137.6430 C   0  0  0  0  0  2  0  0  0  0  0  0
  190.7650  176.1800  138.4470 O   0  0  0  0  0  0  0  0  0  0  0  0
  192.1110  176.5250  138.5590 C   0  0  0  0  0  2  0  0  0  0  0  0
  192.8190  176.2170  137.2550 C   0  0  0  0  0  1  0  0  0  0  0  0
  186.9430  177.7970  139.2160 C   0  0  0  0  0  2  0  0  0  0  0  0
  188.2560  178.3980  139.6070 C   0  0  0  0  0  0  0  0  0  0  0  0
  188.9550  178.9670  138.7300 O   0  0  0  0  0  0  0  0  0  0  0  0
  188.7350  178.3360  140.9520 N   0  0  0  0  0  2  0  0  0  0  0  0
  188.0710  177.6040  141.9470 N   0  0  0  0  0  2  0  0  0  0  0  0
  189.0770  176.8320  142.6670 C   0  0  0  0  0  2  0  0  0  0  0  0
  191.2340  176.9390  144.4100 S   0  0  0  0  0  0  0  0  0  0  0  0
  190.6470  176.9210  146.0900 C   0  0  0  0  0  0  0  0  0  0  0  0
  191.5510  176.5440  147.2170 C   0  0  0  0  0  1  0  0  0  0  0  0
  188.6350  177.6290  145.0200 C   0  0  0  0  0  2  0  0  0  0  0  0
  189.3740  177.2640  146.2570 C   0  0  0  0  0  0  0  0  0  0  0  0
  189.6260  177.6120  143.8600 C   0  0  2  0  0  3  0  0  0  0  0  0
  188.6920  177.2550  147.5810 C   0  0  0  0  0  1  0  0  0  0  0  0
  185.2080  179.3180  138.4480 N   0  0  0  0  0  2  0  0  0  0  0  0
  182.2110  178.1860  140.3840 C   0  0  0  0  0  0  0  0  0  0  0  0
  182.6930  178.2780  141.6920 C   0  0  0  0  0  3  0  0  0  0  0  0
  184.3600  178.9690  139.5480 C   0  0  0  0  0  0  0  0  0  0  0  0
  182.5640  178.4410  137.9650 N   0  0  0  0  0  1  0  0  0  0  0  0
  183.0470  178.5290  139.3040 C   0  0  0  0  0  0  0  0  0  0  0  0
  184.8250  179.0640  140.8670 C   0  0  0  0  0  3  0  0  0  0  0  0
  184.0000  178.7190  141.9440 C   0  0  0  0  0  0  0  0  0  0  0  0
  184.8510  180.1190  143.6400 F   0  0  0  0  0  0  0  0  0  0  0  0
  185.6040  177.9980  143.5130 F   0  0  0  0  0  0  0  0  0  0  0  0
  184.4970  178.8110  143.3600 C   0  0  0  0  0  0  0  0  0  0  0  0
  183.5210  178.4120  144.2580 F   0  0  0  0  0  0  0  0  0  0  0  0
  180.8030  176.1960  139.9670 C   0  0  0  0  0  1  0  0  0  0  0  0
  180.8150  177.7030  140.1620 C   0  0  0  0  0  2  0  0  0  0  0  0
  1 30  1  0  0  0  0
  1 17  1  1  0  0  0
  3 11  1  0  0  0  0
  3  4  1  0  0  0  0
  5  6  1  0  0  0  0
  6  9  1  0  0  0  0
  6  1  1  1  0  0  0
  7  4  1  1  0  0  0
  7  9  1  0  0  0  0
  8 10  1  1  0  0  0
  8  5  1  0  0  0  0
  8  7  1  0  0  0  0
  9  2  1  6  0  0  0
 10  3  1  0  0  0  0
 11 12  1  0  0  0  0
 12 13  1  0  0  0  0
 13 14  1  0  0  0  0
 14 15  1  0  0  0  0
 16 15  1  0  0  0  0
 17 18  1  0  0  0  0
 18 20  1  0  0  0  0
 19 18  2  0  0  0  0
 20 21  1  0  0  0  0
 21 22  1  0  0  0  0
 23 24  1  0  0  0  0
 24 27  2  0  0  0  0
 24 25  1  0  0  0  0
 26 27  1  0  0  0  0
 27 29  1  0  0  0  0
 28 22  1  6  0  0  0
 28 23  1  0  0  0  0
 28 26  1  0  0  0  0
 30 33  1  0  0  0  0
 31 32  1  0  0  0  0
 32 37  2  0  0  0  0
 33 36  2  0  0  0  0
 34 35  1  0  0  0  0
 35 33  1  0  0  0  0
 35 31  2  0  0  0  0
 36 37  1  0  0  0  0
 37 40  1  0  0  0  0
 40 39  1  0  0  0  0
 40 38  1  0  0  0  0
 40 41  1  0  0  0  0
 42 43  1  0  0  0  0
 43 31  1  0  0  0  0
M  END
>  <MODEL>
7

>  <REMARK>
 VINA RESULT:      -7.0      2.841      7.025
  Name = 
  15 active torsions:
  status: ('A' for Active; 'I' for Inactive)
    1  A    between atoms: O_3  and  C_7
    2  A    between atoms: O_3  and  C_29
    3  A    between atoms: C_4  and  C_30
    4  A    between atoms: C_7  and  C_31
    5  A    between atoms: N_8  and  O_20
    6  A    between atoms: C_11  and  C_19
    7  A    between atoms: C_11  and  C_38
    8  A    between atoms: C_11  and  N_41
    9  A    between atoms: C_12  and  N_41
   10  A    between atoms: C_14  and  C_38
   11  A    between atoms: C_16  and  C_24
   12  A    between atoms: C_16  and  N_28
   13  A    between atoms: O_20  and  C_31
   14  A    between atoms: N_28  and  N_42
   15  A    between atoms: C_39  and  C_43
                            x       y       z     vdW  Elec       q    Type
                         _______ _______ _______ _____ _____    ______ ____

>  <TORSDO>
F 15

$$$$
=
 OpenBabel10232409033D

 43 46  0  0  1  0  0  0  0  0999 V2000
  188.2840  177.7860  140.7080 C   0  0  2  0  0  3  0  0  0  0  0  0
  191.3830  176.9850  139.8950 O   0  0  0  0  0  1  0  0  0  0  0  0
  191.5760  176.7530  144.5910 N   0  0  0  0  0  0  0  0  0  0  0  0
  191.6100  176.1710  143.2550 C   0  0  0  0  0  2  0  0  0  0  0  0
  189.7740  178.7700  142.5030 C   0  0  0  0  0  2  0  0  0  0  0  0
  189.7150  178.1690  141.1200 C   0  0  1  0  0  3  0  0  0  0  0  0
  191.6820  177.2900  142.2430 C   0  0  2  0  0  3  0  0  0  0  0  0
  191.1900  178.5160  142.9740 C   0  0  2  0  0  3  0  0  0  0  0  0
  190.7050  177.0170  141.1120 C   0  0  2  0  0  3  0  0  0  0  0  0
  191.1860  178.1520  144.4420 C   0  0  0  0  0  2  0  0  0  0  0  0
  190.5680  176.1390  145.2600 O   0  0  0  0  0  0  0  0  0  0  0  0
  190.0310  177.1200  146.1020 C   0  0  0  0  0  2  0  0  0  0  0  0
  188.5520  177.2870  145.8100 C   0  0  0  0  0  2  0  0  0  0  0  0
  187.9600  178.0750  146.7960 O   0  0  0  0  0  0  0  0  0  0  0  0
  188.8910  178.0970  147.8330 C   0  0  0  0  0  2  0  0  0  0  0  0
  188.1660  178.0410  149.1630 C   0  0  0  0  0  1  0  0  0  0  0  0
  188.1420  177.2860  139.2690 C   0  0  0  0  0  2  0  0  0  0  0  0
  188.3760  178.3670  138.2610 C   0  0  0  0  0  0  0  0  0  0  0  0
  189.2650  179.2280  138.4820 O   0  0  0  0  0  0  0  0  0  0  0  0
  187.6110  178.4430  137.0560 N   0  0  0  0  0  2  0  0  0  0  0  0
  186.5200  177.5960  136.8100 N   0  0  0  0  0  2  0  0  0  0  0  0
  186.4620  177.3630  135.3720 C   0  0  0  0  0  2  0  0  0  0  0  0
  187.3210  174.8570  136.2000 S   0  0  0  0  0  0  0  0  0  0  0  0
  189.1000  174.8020  136.1930 C   0  0  0  0  0  0  0  0  0  0  0  0
  189.8390  173.7680  136.9760 C   0  0  0  0  0  1  0  0  0  0  0  0
  188.7980  176.6600  134.7270 C   0  0  0  0  0  2  0  0  0  0  0  0
  189.6990  175.7280  135.4530 C   0  0  0  0  0  0  0  0  0  0  0  0
  187.3620  176.1990  134.9610 C   0  0  2  0  0  3  0  0  0  0  0  0
  191.1800  175.8730  135.3680 C   0  0  0  0  0  1  0  0  0  0  0  0
  187.3980  178.9230  140.9050 N   0  0  0  0  0  2  0  0  0  0  0  0
  183.7160  178.7080  141.5390 C   0  0  0  0  0  0  0  0  0  0  0  0
  183.6920  178.6560  142.9350 C   0  0  0  0  0  3  0  0  0  0  0  0
  186.1460  178.8350  141.5950 C   0  0  0  0  0  0  0  0  0  0  0  0
  184.9830  178.8500  139.4370 N   0  0  0  0  0  1  0  0  0  0  0  0
  184.9470  178.7940  140.8620 C   0  0  0  0  0  0  0  0  0  0  0  0
  186.1040  178.7910  142.9950 C   0  0  0  0  0  3  0  0  0  0  0  0
  184.8830  178.6990  143.6730 C   0  0  0  0  0  0  0  0  0  0  0  0
  185.6040  179.6660  145.7000 F   0  0  0  0  0  0  0  0  0  0  0  0
  185.3330  177.4300  145.6080 F   0  0  0  0  0  0  0  0  0  0  0  0
  184.8330  178.6440  145.1750 C   0  0  0  0  0  0  0  0  0  0  0  0
  183.5340  178.7830  145.6360 F   0  0  0  0  0  0  0  0  0  0  0  0
  181.2690  179.0270  141.7060 C   0  0  0  0  0  1  0  0  0  0  0  0
  182.4230  178.6490  140.7930 C   0  0  0  0  0  2  0  0  0  0  0  0
  1 17  1  6  0  0  0
  1 30  1  0  0  0  0
  3 11  1  0  0  0  0
  4  3  1  0  0  0  0
  6  1  1  1  0  0  0
  6  5  1  0  0  0  0
  7  8  1  0  0  0  0
  7  4  1  1  0  0  0
  8  5  1  6  0  0  0
  8 10  1  0  0  0  0
  9  2  1  6  0  0  0
  9  6  1  0  0  0  0
  9  7  1  0  0  0  0
 10  3  1  0  0  0  0
 11 12  1  0  0  0  0
 13 12  1  0  0  0  0
 13 14  1  0  0  0  0
 14 15  1  0  0  0  0
 15 16  1  0  0  0  0
 18 19  2  0  0  0  0
 18 17  1  0  0  0  0
 20 18  1  0  0  0  0
 21 20  1  0  0  0  0
 22 21  1  0  0  0  0
 24 23  1  0  0  0  0
 24 25  1  0  0  0  0
 26 28  1  0  0  0  0
 26 27  1  0  0  0  0
 27 24  2  0  0  0  0
 28 22  1  1  0  0  0
 28 23  1  0  0  0  0
 29 27  1  0  0  0  0
 30 33  1  0  0  0  0
 31 32  1  0  0  0  0
 32 37  2  0  0  0  0
 33 36  2  0  0  0  0
 34 35  1  0  0  0  0
 35 31  2  0  0  0  0
 35 33  1  0  0  0  0
 36 37  1  0  0  0  0
 37 40  1  0  0  0  0
 40 39  1  0  0  0  0
 40 41  1  0  0  0  0
 40 38  1  0  0  0  0
 43 31  1  0  0  0  0
 43 42  1  0  0  0  0
M  END
>  <MODEL>
8

>  <REMARK>
 VINA RESULT:      -6.9      1.547      2.356
  Name = 
  15 active torsions:
  status: ('A' for Active; 'I' for Inactive)
    1  A    between atoms: O_3  and  C_7
    2  A    between atoms: O_3  and  C_29
    3  A    between atoms: C_4  and  C_30
    4  A    between atoms: C_7  and  C_31
    5  A    between atoms: N_8  and  O_20
    6  A    between atoms: C_11  and  C_19
    7  A    between atoms: C_11  and  C_38
    8  A    between atoms: C_11  and  N_41
    9  A    between atoms: C_12  and  N_41
   10  A    between atoms: C_14  and  C_38
   11  A    between atoms: C_16  and  C_24
   12  A    between atoms: C_16  and  N_28
   13  A    between atoms: O_20  and  C_31
   14  A    between atoms: N_28  and  N_42
   15  A    between atoms: C_39  and  C_43
                            x       y       z     vdW  Elec       q    Type
                         _______ _______ _______ _____ _____    ______ ____

>  <TORSDO>
F 15

$$$$
=
 OpenBabel10232409033D

 43 46  0  0  1  0  0  0  0  0999 V2000
  184.5270  178.1060  139.2590 C   0  0  2  0  0  3  0  0  0  0  0  0
  182.0870  175.8880  139.4310 O   0  0  0  0  0  1  0  0  0  0  0  0
  184.8490  173.9640  136.1430 N   0  0  0  0  0  0  0  0  0  0  0  0
  184.2240  174.0050  137.4600 C   0  0  0  0  0  2  0  0  0  0  0  0
  184.1900  177.2280  136.9090 C   0  0  0  0  0  2  0  0  0  0  0  0
  183.6110  177.3300  138.2980 C   0  0  1  0  0  3  0  0  0  0  0  0
  183.1760  175.0920  137.4610 C   0  0  2  0  0  3  0  0  0  0  0  0
  183.5420  175.9970  136.3110 C   0  0  2  0  0  3  0  0  0  0  0  0
  183.2950  175.9110  138.7360 C   0  0  2  0  0  3  0  0  0  0  0  0
  184.5540  175.2330  135.4850 C   0  0  0  0  0  2  0  0  0  0  0  0
  186.1900  173.9360  136.3470 O   0  0  0  0  0  0  0  0  0  0  0  0
  186.7450  173.5930  135.1080 C   0  0  0  0  0  2  0  0  0  0  0  0
  187.8300  172.5510  135.3070 C   0  0  0  0  0  2  0  0  0  0  0  0
  188.4640  172.7530  136.5310 O   0  0  0  0  0  0  0  0  0  0  0  0
  189.5190  173.6170  136.2420 C   0  0  0  0  0  2  0  0  0  0  0  0
  190.6180  172.8500  135.5330 C   0  0  0  0  0  1  0  0  0  0  0  0
  183.8530  179.2670  139.9930 C   0  0  0  0  0  2  0  0  0  0  0  0
  183.0090  178.8080  141.1400 C   0  0  0  0  0  0  0  0  0  0  0  0
  181.7990  178.5330  140.9390 O   0  0  0  0  0  0  0  0  0  0  0  0
  183.5470  178.6780  142.4580 N   0  0  0  0  0  2  0  0  0  0  0  0
  184.8480  179.0930  142.7770 N   0  0  0  0  0  2  0  0  0  0  0  0
  184.8680  179.4200  144.1970 C   0  0  0  0  0  2  0  0  0  0  0  0
  185.4510  178.6730  146.8060 S   0  0  0  0  0  0  0  0  0  0  0  0
  187.1140  178.0430  146.8900 C   0  0  0  0  0  0  0  0  0  0  0  0
  187.8430  177.9690  148.1910 C   0  0  0  0  0  1  0  0  0  0  0  0
  186.7550  177.7810  144.5460 C   0  0  0  0  0  2  0  0  0  0  0  0
  187.6380  177.6520  145.7340 C   0  0  0  0  0  0  0  0  0  0  0  0
  185.3850  178.2480  145.0300 C   0  0  2  0  0  3  0  0  0  0  0  0
  189.0340  177.1490  145.5980 C   0  0  0  0  0  1  0  0  0  0  0  0
  185.6820  178.6120  138.5310 N   0  0  0  0  0  2  0  0  0  0  0  0
  189.2220  177.5220  137.9930 C   0  0  0  0  0  0  0  0  0  0  0  0
  189.6580  177.3840  139.3140 C   0  0  0  0  0  3  0  0  0  0  0  0
  187.0250  178.1950  138.7990 C   0  0  0  0  0  0  0  0  0  0  0  0
  187.4450  178.0740  136.3870 N   0  0  0  0  0  1  0  0  0  0  0  0
  187.9010  177.9330  137.7310 C   0  0  0  0  0  0  0  0  0  0  0  0
  187.4760  178.0430  140.1180 C   0  0  0  0  0  3  0  0  0  0  0  0
  188.7900  177.6410  140.3840 C   0  0  0  0  0  0  0  0  0  0  0  0
  188.5820  176.4650  142.4180 F   0  0  0  0  0  0  0  0  0  0  0  0
  189.0730  178.6630  142.4890 F   0  0  0  0  0  0  0  0  0  0  0  0
  189.2810  177.4850  141.7970 C   0  0  0  0  0  0  0  0  0  0  0  0
  190.6320  177.1810  141.8250 F   0  0  0  0  0  0  0  0  0  0  0  0
  191.4070  176.5200  137.4140 C   0  0  0  0  0  1  0  0  0  0  0  0
  190.1840  177.2470  136.8840 C   0  0  0  0  0  2  0  0  0  0  0  0
  1 17  1  6  0  0  0
  3 11  1  0  0  0  0
  3  4  1  0  0  0  0
  5  6  1  0  0  0  0
  6  9  1  0  0  0  0
  6  1  1  1  0  0  0
  7  4  1  1  0  0  0
  7  9  1  0  0  0  0
  8 10  1  6  0  0  0
  8  5  1  0  0  0  0
  8  7  1  0  0  0  0
  9  2  1  6  0  0  0
 10  3  1  0  0  0  0
 12 13  1  0  0  0  0
 12 11  1  0  0  0  0
 13 14  1  0  0  0  0
 15 14  1  0  0  0  0
 16 15  1  0  0  0  0
 17 18  1  0  0  0  0
 18 20  1  0  0  0  0
 19 18  2  0  0  0  0
 20 21  1  0  0  0  0
 21 22  1  0  0  0  0
 23 24  1  0  0  0  0
 24 25  1  0  0  0  0
 26 28  1  0  0  0  0
 26 27  1  0  0  0  0
 27 24  2  0  0  0  0
 28 22  1  6  0  0  0
 28 23  1  0  0  0  0
 29 27  1  0  0  0  0
 30 33  1  0  0  0  0
 30  1  1  0  0  0  0
 31 32  1  0  0  0  0
 32 37  2  0  0  0  0
 33 36  2  0  0  0  0
 34 35  1  0  0  0  0
 35 31  2  0  0  0  0
 35 33  1  0  0  0  0
 36 37  1  0  0  0  0
 37 40  1  0  0  0  0
 40 41  1  0  0  0  0
 40 38  1  0  0  0  0
 40 39  1  0  0  0  0
 43 42  1  0  0  0  0
 43 31  1  0  0  0  0
M  END
>  <MODEL>
9

>  <REMARK>
 VINA RESULT:      -6.8      3.887      8.707
  Name = 
  15 active torsions:
  status: ('A' for Active; 'I' for Inactive)
    1  A    between atoms: O_3  and  C_7
    2  A    between atoms: O_3  and  C_29
    3  A    between atoms: C_4  and  C_30
    4  A    between atoms: C_7  and  C_31
    5  A    between atoms: N_8  and  O_20
    6  A    between atoms: C_11  and  C_19
    7  A    between atoms: C_11  and  C_38
    8  A    between atoms: C_11  and  N_41
    9  A    between atoms: C_12  and  N_41
   10  A    between atoms: C_14  and  C_38
   11  A    between atoms: C_16  and  C_24
   12  A    between atoms: C_16  and  N_28
   13  A    between atoms: O_20  and  C_31
   14  A    between atoms: N_28  and  N_42
   15  A    between atoms: C_39  and  C_43
                            x       y       z     vdW  Elec       q    Type
                         _______ _______ _______ _____ _____    ______ ____

>  <TORSDO>
F 15

$$$$
