=
 OpenBabel10232408213D

 30 33  0  0  1  0  0  0  0  0999 V2000
  189.2590  178.0820  148.5520 N   0  0  0  0  0  0  0  0  0  0  0  0
  185.6530  178.9010  146.0770 C   0  0  0  0  0  3  0  0  0  0  0  0
  186.8180  178.1410  146.0840 C   0  0  0  0  0  0  0  0  0  0  0  0
  191.0990  176.8590  147.3640 C   0  0  0  0  0  1  0  0  0  0  0  0
  189.6790  177.2580  147.5640 C   0  0  2  0  0  3  0  0  0  0  0  0
  188.6850  177.0000  146.7020 N   0  0  0  0  0  0  0  0  0  0  0  0
  186.7820  177.8460  143.6830 C   0  0  0  0  0  0  0  0  0  0  0  0
  187.6740  177.7230  147.1670 C   0  0  0  0  0  0  0  0  0  0  0  0
  185.6150  178.6640  143.6350 C   0  0  0  0  0  0  0  0  0  0  0  0
  187.9970  178.4060  148.2830 N   0  0  0  0  0  0  0  0  0  0  0  0
  187.3850  177.6400  144.9270 C   0  0  0  0  0  0  0  0  0  0  0  0
  188.6540  176.8860  145.2460 C   0  0  0  0  0  3  0  0  0  0  0  0
  185.0540  179.1570  144.8340 C   0  0  0  0  0  3  0  0  0  0  0  0
  187.3340  177.2220  142.5570 O   0  0  0  0  0  0  0  0  0  0  0  0
  187.8150  178.3950  140.4850 C   0  0  0  0  0  2  0  0  0  0  0  0
  189.4550  176.7490  141.5240 C   0  0  0  0  0  2  0  0  0  0  0  0
  190.4930  177.2820  140.5310 C   0  0  0  0  0  2  0  0  0  0  0  0
  188.3800  177.8000  141.7840 C   0  0  2  0  0  3  0  0  0  0  0  0
  189.9080  177.8590  139.2970 N   0  0  0  0  0  0  0  0  0  0  0  0
  188.4420  177.7660  139.2410 C   0  0  0  0  0  2  0  0  0  0  0  0
  190.4490  177.1910  138.1060 C   0  0  2  0  0  3  0  0  0  0  0  0
  189.4290  176.6110  137.3320 O   0  0  0  0  0  0  0  0  0  0  0  0
  189.7640  176.9020  136.0040 C   0  0  0  0  0  1  0  0  0  0  0  0
  191.4800  176.1400  138.5120 C   0  0  0  0  0  2  0  0  0  0  0  0
  192.8390  176.4770  137.9230 C   0  0  0  0  0  2  0  0  0  0  0  0
  193.7000  176.8900  138.9410 O   0  0  0  0  0  1  0  0  0  0  0  0
  185.0030  179.0400  142.4360 O   0  0  0  0  0  0  0  0  0  0  0  0
  184.1430  178.1650  141.7180 C   0  0  0  0  0  2  0  0  0  0  0  0
  183.6960  178.8290  140.4290 C   0  0  0  0  0  2  0  0  0  0  0  0
  184.6700  179.7290  139.9990 O   0  0  0  0  0  1  0  0  0  0  0  0
  2  3  1  0  0  0  0
  3  8  2  0  0  0  0
  5  4  1  6  0  0  0
  5  1  1  0  0  0  0
  6  8  1  0  0  0  0
  6  5  1  0  0  0  0
  7 11  1  0  0  0  0
  8 10  1  0  0  0  0
  9  7  2  0  0  0  0
  9 13  1  0  0  0  0
 10  1  2  0  0  0  0
 11 12  2  0  0  0  0
 11  3  1  0  0  0  0
 12  6  1  0  0  0  0
 13  2  2  0  0  0  0
 14  7  1  0  0  0  0
 15 18  1  0  0  0  0
 16 18  1  0  0  0  0
 17 16  1  0  0  0  0
 18 14  1  6  0  0  0
 19 17  1  0  0  0  0
 20 19  1  0  0  0  0
 20 15  1  0  0  0  0
 21 24  1  1  0  0  0
 21 19  1  0  0  0  0
 22 21  1  0  0  0  0
 23 22  1  0  0  0  0
 25 24  1  0  0  0  0
 25 26  1  0  0  0  0
 27  9  1  0  0  0  0
 28 27  1  0  0  0  0
 29 28  1  0  0  0  0
 30 29  1  0  0  0  0
M  END
>  <MODEL>
1

>  <REMARK>
 VINA RESULT:      -8.4      0.000      0.000
  Name = 
  9 active torsions:
  status: ('A' for Active; 'I' for Inactive)
    1  A    between atoms: C_1  and  C_6
    2  A    between atoms: C_1  and  O_9
    3  A    between atoms: C_1  and  N_19
    4  A    between atoms: C_5  and  C_6
    5  A    between atoms: C_7  and  C_29
    6  A    between atoms: O_16  and  C_17
    7  A    between atoms: O_16  and  C_20
    8  A    between atoms: C_23  and  O_27
    9  A    between atoms: O_27  and  C_29
                            x       y       z     vdW  Elec       q    Type
                         _______ _______ _______ _____ _____    ______ ____

>  <TORSDO>
F 9

$$$$
=
 OpenBabel10232408213D

 30 33  0  0  1  0  0  0  0  0999 V2000
  183.3490  178.9660  145.6640 N   0  0  0  0  0  0  0  0  0  0  0  0
  187.6250  178.1610  146.5970 C   0  0  0  0  0  3  0  0  0  0  0  0
  186.7540  178.3020  145.5220 C   0  0  0  0  0  0  0  0  0  0  0  0
  182.6770  178.4850  143.2950 C   0  0  0  0  0  1  0  0  0  0  0  0
  183.6660  178.8180  144.3570 C   0  0  2  0  0  3  0  0  0  0  0  0
  184.9950  178.8360  144.1820 N   0  0  0  0  0  0  0  0  0  0  0  0
  188.2150  177.0880  144.0250 C   0  0  0  0  0  0  0  0  0  0  0  0
  185.4700  178.9500  145.4170 C   0  0  0  0  0  0  0  0  0  0  0  0
  189.1070  176.8810  145.1190 C   0  0  0  0  0  0  0  0  0  0  0  0
  184.4930  179.0140  146.3420 N   0  0  0  0  0  0  0  0  0  0  0  0
  187.0220  177.7700  144.2740 C   0  0  0  0  0  0  0  0  0  0  0  0
  185.8830  178.0560  143.3240 C   0  0  0  0  0  3  0  0  0  0  0  0
  188.8100  177.4430  146.3800 C   0  0  0  0  0  3  0  0  0  0  0  0
  188.4880  176.6670  142.7170 O   0  0  0  0  0  0  0  0  0  0  0  0
  188.1880  178.1250  140.7970 C   0  0  0  0  0  2  0  0  0  0  0  0
  190.2270  176.6240  141.0540 C   0  0  0  0  0  2  0  0  0  0  0  0
  190.8500  177.4100  139.8960 C   0  0  0  0  0  2  0  0  0  0  0  0
  189.1820  177.4740  141.7700 C   0  0  2  0  0  3  0  0  0  0  0  0
  189.8590  178.0340  138.9870 N   0  0  0  0  0  0  0  0  0  0  0  0
  188.4650  177.7380  139.3440 C   0  0  0  0  0  2  0  0  0  0  0  0
  190.0750  177.5900  137.6030 C   0  0  2  0  0  3  0  0  0  0  0  0
  189.4530  178.4530  136.6830 O   0  0  0  0  0  0  0  0  0  0  0  0
  188.7860  177.6110  135.7840 C   0  0  0  0  0  1  0  0  0  0  0  0
  189.5760  176.1590  137.4220 C   0  0  0  0  0  2  0  0  0  0  0  0
  190.7460  175.2110  137.2250 C   0  0  0  0  0  2  0  0  0  0  0  0
  190.3880  173.9320  137.6530 O   0  0  0  0  0  1  0  0  0  0  0  0
  190.2660  176.1070  145.0150 O   0  0  0  0  0  0  0  0  0  0  0  0
  191.5500  176.6180  145.3470 C   0  0  0  0  0  2  0  0  0  0  0  0
  192.0880  175.8990  146.5690 C   0  0  0  0  0  2  0  0  0  0  0  0
  192.0390  176.7460  147.6760 O   0  0  0  0  0  1  0  0  0  0  0  0
  1 10  2  0  0  0  0
  3  2  1  0  0  0  0
  5  4  1  1  0  0  0
  5  1  1  0  0  0  0
  6  5  1  0  0  0  0
  6  8  1  0  0  0  0
  7 11  1  0  0  0  0
  7  9  2  0  0  0  0
  8  3  2  0  0  0  0
  8 10  1  0  0  0  0
  9 13  1  0  0  0  0
 11  3  1  0  0  0  0
 12  6  1  0  0  0  0
 12 11  2  0  0  0  0
 13  2  2  0  0  0  0
 14  7  1  0  0  0  0
 15 18  1  0  0  0  0
 16 18  1  0  0  0  0
 17 16  1  0  0  0  0
 18 14  1  1  0  0  0
 19 20  1  0  0  0  0
 19 17  1  0  0  0  0
 20 15  1  0  0  0  0
 21 24  1  1  0  0  0
 21 19  1  0  0  0  0
 22 21  1  0  0  0  0
 23 22  1  0  0  0  0
 25 24  1  0  0  0  0
 25 26  1  0  0  0  0
 27  9  1  0  0  0  0
 27 28  1  0  0  0  0
 28 29  1  0  0  0  0
 29 30  1  0  0  0  0
M  END
>  <MODEL>
2

>  <REMARK>
 VINA RESULT:      -7.9      2.444      4.780
  Name = 
  9 active torsions:
  status: ('A' for Active; 'I' for Inactive)
    1  A    between atoms: C_1  and  C_6
    2  A    between atoms: C_1  and  O_9
    3  A    between atoms: C_1  and  N_19
    4  A    between atoms: C_5  and  C_6
    5  A    between atoms: C_7  and  C_29
    6  A    between atoms: O_16  and  C_17
    7  A    between atoms: O_16  and  C_20
    8  A    between atoms: C_23  and  O_27
    9  A    between atoms: O_27  and  C_29
                            x       y       z     vdW  Elec       q    Type
                         _______ _______ _______ _____ _____    ______ ____

>  <TORSDO>
F 9

$$$$
=
 OpenBabel10232408213D

 30 33  0  0  1  0  0  0  0  0999 V2000
  182.8300  179.0790  144.3430 N   0  0  0  0  0  0  0  0  0  0  0  0
  186.3440  178.6160  147.0320 C   0  0  0  0  0  3  0  0  0  0  0  0
  185.9880  178.5660  145.6890 C   0  0  0  0  0  0  0  0  0  0  0  0
  183.1750  178.2460  142.0020 C   0  0  0  0  0  1  0  0  0  0  0  0
  183.6500  178.7680  143.3130 C   0  0  2  0  0  3  0  0  0  0  0  0
  184.9350  178.8260  143.6900 N   0  0  0  0  0  0  0  0  0  0  0  0
  187.9180  177.2290  145.1040 C   0  0  0  0  0  0  0  0  0  0  0  0
  184.8670  179.1320  144.9810 C   0  0  0  0  0  0  0  0  0  0  0  0
  188.2840  177.2170  146.4830 C   0  0  0  0  0  0  0  0  0  0  0  0
  183.5980  179.2750  145.4110 N   0  0  0  0  0  0  0  0  0  0  0  0
  186.7350  177.8810  144.7480 C   0  0  0  0  0  0  0  0  0  0  0  0
  186.0860  177.9790  143.3870 C   0  0  0  0  0  3  0  0  0  0  0  0
  187.5060  177.9320  147.4200 C   0  0  0  0  0  3  0  0  0  0  0  0
  188.6950  176.6460  144.0950 O   0  0  0  0  0  0  0  0  0  0  0  0
  189.1180  177.6700  141.9330 C   0  0  0  0  0  2  0  0  0  0  0  0
  190.9680  176.5890  143.3080 C   0  0  0  0  0  2  0  0  0  0  0  0
  191.9580  177.2460  142.3410 C   0  0  0  0  0  2  0  0  0  0  0  0
  189.6590  177.3720  143.3400 C   0  0  2  0  0  3  0  0  0  0  0  0
  191.3950  177.5290  140.9990 N   0  0  0  0  0  0  0  0  0  0  0  0
  190.0060  177.0810  140.8360 C   0  0  0  0  0  2  0  0  0  0  0  0
  192.2030  176.8870  139.9530 C   0  0  2  0  0  3  0  0  0  0  0  0
  193.4120  177.5730  139.7430 O   0  0  0  0  0  0  0  0  0  0  0  0
  194.4160  176.6210  139.9560 C   0  0  0  0  0  1  0  0  0  0  0  0
  191.4060  176.7890  138.6540 C   0  0  0  0  0  2  0  0  0  0  0  0
  191.7400  175.5010  137.9240 C   0  0  0  0  0  2  0  0  0  0  0  0
  190.6810  174.6020  138.0540 O   0  0  0  0  0  1  0  0  0  0  0  0
  189.3750  176.4930  146.9700 O   0  0  0  0  0  0  0  0  0  0  0  0
  190.6950  177.0220  146.9750 C   0  0  0  0  0  2  0  0  0  0  0  0
  191.6640  175.9810  147.5000 C   0  0  0  0  0  2  0  0  0  0  0  0
  192.3510  175.3970  146.4370 O   0  0  0  0  0  1  0  0  0  0  0  0
  1 10  2  0  0  0  0
  2 13  2  0  0  0  0
  3  2  1  0  0  0  0
  5  4  1  1  0  0  0
  5  6  1  0  0  0  0
  5  1  1  0  0  0  0
  6  8  1  0  0  0  0
  7  9  2  0  0  0  0
  8 10  1  0  0  0  0
  8  3  2  0  0  0  0
  9 27  1  0  0  0  0
  9 13  1  0  0  0  0
 11  7  1  0  0  0  0
 11  3  1  0  0  0  0
 12  6  1  0  0  0  0
 12 11  2  0  0  0  0
 14  7  1  0  0  0  0
 15 18  1  0  0  0  0
 16 18  1  0  0  0  0
 17 16  1  0  0  0  0
 18 14  1  1  0  0  0
 19 17  1  0  0  0  0
 20 19  1  0  0  0  0
 20 15  1  0  0  0  0
 21 24  1  6  0  0  0
 21 19  1  0  0  0  0
 22 21  1  0  0  0  0
 22 23  1  0  0  0  0
 25 26  1  0  0  0  0
 25 24  1  0  0  0  0
 27 28  1  0  0  0  0
 28 29  1  0  0  0  0
 30 29  1  0  0  0  0
M  END
>  <MODEL>
3

>  <REMARK>
 VINA RESULT:      -7.7      2.703      5.186
  Name = 
  9 active torsions:
  status: ('A' for Active; 'I' for Inactive)
    1  A    between atoms: C_1  and  C_6
    2  A    between atoms: C_1  and  O_9
    3  A    between atoms: C_1  and  N_19
    4  A    between atoms: C_5  and  C_6
    5  A    between atoms: C_7  and  C_29
    6  A    between atoms: O_16  and  C_17
    7  A    between atoms: O_16  and  C_20
    8  A    between atoms: C_23  and  O_27
    9  A    between atoms: O_27  and  C_29
                            x       y       z     vdW  Elec       q    Type
                         _______ _______ _______ _____ _____    ______ ____

>  <TORSDO>
F 9

$$$$
=
 OpenBabel10232408213D

 30 33  0  0  1  0  0  0  0  0999 V2000
  189.5330  177.9590  148.5460 N   0  0  0  0  0  0  0  0  0  0  0  0
  185.6020  178.8860  146.6800 C   0  0  0  0  0  3  0  0  0  0  0  0
  186.7580  178.1430  146.4680 C   0  0  0  0  0  0  0  0  0  0  0  0
  191.1850  176.8380  147.0260 C   0  0  0  0  0  1  0  0  0  0  0  0
  189.8080  177.2050  147.4560 C   0  0  2  0  0  3  0  0  0  0  0  0
  188.7000  176.9890  146.7330 N   0  0  0  0  0  0  0  0  0  0  0  0
  186.3740  178.0010  144.0840 C   0  0  0  0  0  0  0  0  0  0  0  0
  187.7640  177.6680  147.3850 C   0  0  0  0  0  0  0  0  0  0  0  0
  185.2090  178.8050  144.2590 C   0  0  0  0  0  0  0  0  0  0  0  0
  188.2450  178.2830  148.4840 N   0  0  0  0  0  0  0  0  0  0  0  0
  187.1520  177.7240  145.2110 C   0  0  0  0  0  0  0  0  0  0  0  0
  188.4570  176.9680  145.2920 C   0  0  0  0  0  3  0  0  0  0  0  0
  184.8280  179.2130  145.5560 C   0  0  0  0  0  3  0  0  0  0  0  0
  186.7580  177.4570  142.8520 O   0  0  0  0  0  0  0  0  0  0  0  0
  186.8800  178.5980  140.7100 C   0  0  0  0  0  2  0  0  0  0  0  0
  188.7970  177.1820  141.6040 C   0  0  0  0  0  2  0  0  0  0  0  0
  189.6560  177.7890  140.4900 C   0  0  0  0  0  2  0  0  0  0  0  0
  187.6440  178.1170  141.9530 C   0  0  2  0  0  3  0  0  0  0  0  0
  188.8810  178.2520  139.3130 N   0  0  0  0  0  0  0  0  0  0  0  0
  187.4380  177.9960  139.4210 C   0  0  0  0  0  2  0  0  0  0  0  0
  189.3650  177.6040  138.0870 C   0  0  2  0  0  3  0  0  0  0  0  0
  190.7020  177.1870  138.2180 O   0  0  0  0  0  0  0  0  0  0  0  0
  190.6810  175.8070  137.9860 C   0  0  0  0  0  1  0  0  0  0  0  0
  189.2080  178.5440  136.8940 C   0  0  0  0  0  2  0  0  0  0  0  0
  188.6130  177.8020  135.7100 C   0  0  0  0  0  2  0  0  0  0  0  0
  187.8280  176.7430  136.1700 O   0  0  0  0  0  1  0  0  0  0  0  0
  184.4280  179.2490  143.1880 O   0  0  0  0  0  0  0  0  0  0  0  0
  183.3190  178.5040  142.7010 C   0  0  0  0  0  2  0  0  0  0  0  0
  182.0700  178.8770  143.4760 C   0  0  0  0  0  2  0  0  0  0  0  0
  181.3530  179.8490  142.7780 O   0  0  0  0  0  1  0  0  0  0  0  0
  3  2  1  0  0  0  0
  3  8  2  0  0  0  0
  5  4  1  6  0  0  0
  5  1  1  0  0  0  0
  6  8  1  0  0  0  0
  6  5  1  0  0  0  0
  7  9  2  0  0  0  0
  7 11  1  0  0  0  0
  8 10  1  0  0  0  0
  9 13  1  0  0  0  0
 10  1  2  0  0  0  0
 11 12  2  0  0  0  0
 11  3  1  0  0  0  0
 12  6  1  0  0  0  0
 13  2  2  0  0  0  0
 14  7  1  0  0  0  0
 15 18  1  0  0  0  0
 16 18  1  0  0  0  0
 17 16  1  0  0  0  0
 18 14  1  1  0  0  0
 19 20  1  0  0  0  0
 19 17  1  0  0  0  0
 20 15  1  0  0  0  0
 21 24  1  6  0  0  0
 21 22  1  0  0  0  0
 21 19  1  0  0  0  0
 23 22  1  0  0  0  0
 25 26  1  0  0  0  0
 25 24  1  0  0  0  0
 27  9  1  0  0  0  0
 28 27  1  0  0  0  0
 28 29  1  0  0  0  0
 30 29  1  0  0  0  0
M  END
>  <MODEL>
4

>  <REMARK>
 VINA RESULT:      -7.5      1.279      2.100
  Name = 
  9 active torsions:
  status: ('A' for Active; 'I' for Inactive)
    1  A    between atoms: C_1  and  C_6
    2  A    between atoms: C_1  and  O_9
    3  A    between atoms: C_1  and  N_19
    4  A    between atoms: C_5  and  C_6
    5  A    between atoms: C_7  and  C_29
    6  A    between atoms: O_16  and  C_17
    7  A    between atoms: O_16  and  C_20
    8  A    between atoms: C_23  and  O_27
    9  A    between atoms: O_27  and  C_29
                            x       y       z     vdW  Elec       q    Type
                         _______ _______ _______ _____ _____    ______ ____

>  <TORSDO>
F 9

$$$$
=
 OpenBabel10232408213D

 30 33  0  0  1  0  0  0  0  0999 V2000
  187.1390  177.7380  147.2020 N   0  0  0  0  0  0  0  0  0  0  0  0
  184.6870  178.2960  143.5310 C   0  0  0  0  0  3  0  0  0  0  0  0
  185.9730  177.9600  143.9400 C   0  0  0  0  0  0  0  0  0  0  0  0
  189.6140  177.6160  146.8090 C   0  0  0  0  0  1  0  0  0  0  0  0
  188.1910  177.4840  146.3900 C   0  0  2  0  0  3  0  0  0  0  0  0
  187.7840  177.2720  145.1310 N   0  0  0  0  0  0  0  0  0  0  0  0
  186.9340  178.5460  141.7980 C   0  0  0  0  0  0  0  0  0  0  0  0
  186.4700  177.4520  145.1940 C   0  0  0  0  0  0  0  0  0  0  0  0
  185.6360  178.9480  141.3650 C   0  0  0  0  0  0  0  0  0  0  0  0
  186.0500  177.7530  146.4380 N   0  0  0  0  0  0  0  0  0  0  0  0
  187.0730  178.0940  143.1130 C   0  0  0  0  0  0  0  0  0  0  0  0
  188.3310  177.6830  143.8400 C   0  0  0  0  0  3  0  0  0  0  0  0
  184.5290  178.7920  142.2280 C   0  0  0  0  0  3  0  0  0  0  0  0
  188.0630  178.5570  140.9680 O   0  0  0  0  0  0  0  0  0  0  0  0
  189.9610  177.0840  140.6110 C   0  0  0  0  0  2  0  0  0  0  0  0
  188.3210  177.6590  138.7510 C   0  0  0  0  0  2  0  0  0  0  0  0
  188.9700  176.5320  137.9420 C   0  0  0  0  0  2  0  0  0  0  0  0
  188.5060  177.4130  140.2450 C   0  0  2  0  0  3  0  0  0  0  0  0
  190.3700  176.2360  138.3320 N   0  0  0  0  0  0  0  0  0  0  0  0
  190.8840  177.1140  139.3920 C   0  0  0  0  0  2  0  0  0  0  0  0
  191.2660  176.3520  137.1740 C   0  0  2  0  0  3  0  0  0  0  0  0
  190.5430  176.4810  135.9750 O   0  0  0  0  0  0  0  0  0  0  0  0
  191.2980  175.7960  135.0160 C   0  0  0  0  0  1  0  0  0  0  0  0
  192.2060  175.1500  137.1100 C   0  0  0  0  0  2  0  0  0  0  0  0
  193.5640  175.5100  137.6860 C   0  0  0  0  0  2  0  0  0  0  0  0
  193.8440  176.8510  137.4210 O   0  0  0  0  0  1  0  0  0  0  0  0
  185.4020  179.5320  140.1170 O   0  0  0  0  0  0  0  0  0  0  0  0
  184.1840  179.3410  139.4080 C   0  0  0  0  0  2  0  0  0  0  0  0
  184.2860  178.1040  138.5360 C   0  0  0  0  0  2  0  0  0  0  0  0
  183.4490  177.1060  139.0340 O   0  0  0  0  0  1  0  0  0  0  0  0
  2  3  1  0  0  0  0
  3  8  2  0  0  0  0
  5  4  1  6  0  0  0
  5  1  1  0  0  0  0
  6  8  1  0  0  0  0
  6  5  1  0  0  0  0
  7 11  1  0  0  0  0
  8 10  1  0  0  0  0
  9  7  2  0  0  0  0
  9 13  1  0  0  0  0
 10  1  2  0  0  0  0
 11 12  2  0  0  0  0
 11  3  1  0  0  0  0
 12  6  1  0  0  0  0
 13  2  2  0  0  0  0
 14  7  1  0  0  0  0
 16 18  1  0  0  0  0
 17 19  1  0  0  0  0
 17 16  1  0  0  0  0
 18 15  1  0  0  0  0
 18 14  1  1  0  0  0
 19 20  1  0  0  0  0
 20 15  1  0  0  0  0
 21 24  1  6  0  0  0
 21 19  1  0  0  0  0
 22 21  1  0  0  0  0
 23 22  1  0  0  0  0
 24 25  1  0  0  0  0
 26 25  1  0  0  0  0
 27  9  1  0  0  0  0
 28 27  1  0  0  0  0
 29 30  1  0  0  0  0
 29 28  1  0  0  0  0
M  END
>  <MODEL>
5

>  <REMARK>
 VINA RESULT:      -7.4      1.560      2.253
  Name = 
  9 active torsions:
  status: ('A' for Active; 'I' for Inactive)
    1  A    between atoms: C_1  and  C_6
    2  A    between atoms: C_1  and  O_9
    3  A    between atoms: C_1  and  N_19
    4  A    between atoms: C_5  and  C_6
    5  A    between atoms: C_7  and  C_29
    6  A    between atoms: O_16  and  C_17
    7  A    between atoms: O_16  and  C_20
    8  A    between atoms: C_23  and  O_27
    9  A    between atoms: O_27  and  C_29
                            x       y       z     vdW  Elec       q    Type
                         _______ _______ _______ _____ _____    ______ ____

>  <TORSDO>
F 9

$$$$
=
 OpenBabel10232408213D

 30 33  0  0  1  0  0  0  0  0999 V2000
  188.1540  178.4600  148.2600 N   0  0  0  0  0  0  0  0  0  0  0  0
  185.0870  179.1680  145.1150 C   0  0  0  0  0  3  0  0  0  0  0  0
  186.2040  178.3860  145.3890 C   0  0  0  0  0  0  0  0  0  0  0  0
  190.1350  177.1110  147.5180 C   0  0  0  0  0  1  0  0  0  0  0  0
  188.7170  177.5550  147.4260 C   0  0  2  0  0  3  0  0  0  0  0  0
  187.8870  177.2540  146.4170 N   0  0  0  0  0  0  0  0  0  0  0  0
  186.5930  177.9110  143.0480 C   0  0  0  0  0  0  0  0  0  0  0  0
  186.8340  178.0330  146.6360 C   0  0  0  0  0  0  0  0  0  0  0  0
  185.4830  178.7490  142.7300 C   0  0  0  0  0  0  0  0  0  0  0  0
  186.9740  178.7910  147.7410 N   0  0  0  0  0  0  0  0  0  0  0  0
  186.9530  177.7860  144.3930 C   0  0  0  0  0  0  0  0  0  0  0  0
  188.1160  177.0310  144.9910 C   0  0  0  0  0  3  0  0  0  0  0  0
  184.7330  179.3420  143.7680 C   0  0  0  0  0  3  0  0  0  0  0  0
  187.3180  177.1920  142.0900 O   0  0  0  0  0  0  0  0  0  0  0  0
  188.1770  177.8240  139.9070 C   0  0  0  0  0  2  0  0  0  0  0  0
  189.6740  176.8620  141.7280 C   0  0  0  0  0  2  0  0  0  0  0  0
  190.8630  177.2890  140.8610 C   0  0  0  0  0  2  0  0  0  0  0  0
  188.4540  177.7230  141.4150 C   0  0  2  0  0  3  0  0  0  0  0  0
  190.5530  177.3880  139.4150 N   0  0  0  0  0  0  0  0  0  0  0  0
  189.1730  177.0090  139.0810 C   0  0  0  0  0  2  0  0  0  0  0  0
  191.4570  176.5340  138.6320 C   0  0  2  0  0  3  0  0  0  0  0  0
  192.8010  176.9020  138.8190 O   0  0  0  0  0  0  0  0  0  0  0  0
  193.4990  176.2890  137.7720 C   0  0  0  0  0  1  0  0  0  0  0  0
  191.0850  176.5870  137.1520 C   0  0  0  0  0  2  0  0  0  0  0  0
  190.6390  175.2180  136.6700 C   0  0  0  0  0  2  0  0  0  0  0  0
  190.7330  174.3000  137.7180 O   0  0  0  0  0  1  0  0  0  0  0  0
  185.1130  179.0460  141.4160 O   0  0  0  0  0  0  0  0  0  0  0  0
  183.9740  178.4590  140.7990 C   0  0  0  0  0  2  0  0  0  0  0  0
  183.7150  179.1260  139.4610 C   0  0  0  0  0  2  0  0  0  0  0  0
  184.4850  180.2830  139.3530 O   0  0  0  0  0  1  0  0  0  0  0  0
  2  3  1  0  0  0  0
  3  8  2  0  0  0  0
  5  4  1  6  0  0  0
  5  1  1  0  0  0  0
  6  8  1  0  0  0  0
  6  5  1  0  0  0  0
  7 11  1  0  0  0  0
  8 10  1  0  0  0  0
  9  7  2  0  0  0  0
  9 13  1  0  0  0  0
 10  1  2  0  0  0  0
 11 12  2  0  0  0  0
 11  3  1  0  0  0  0
 12  6  1  0  0  0  0
 13  2  2  0  0  0  0
 14  7  1  0  0  0  0
 15 18  1  0  0  0  0
 17 16  1  0  0  0  0
 18 16  1  0  0  0  0
 18 14  1  1  0  0  0
 19 17  1  0  0  0  0
 20 19  1  0  0  0  0
 20 15  1  0  0  0  0
 21 24  1  6  0  0  0
 21 22  1  0  0  0  0
 21 19  1  0  0  0  0
 23 22  1  0  0  0  0
 25 24  1  0  0  0  0
 25 26  1  0  0  0  0
 27  9  1  0  0  0  0
 28 27  1  0  0  0  0
 29 28  1  0  0  0  0
 30 29  1  0  0  0  0
M  END
>  <MODEL>
6

>  <REMARK>
 VINA RESULT:      -7.4      0.981      1.629
  Name = 
  9 active torsions:
  status: ('A' for Active; 'I' for Inactive)
    1  A    between atoms: C_1  and  C_6
    2  A    between atoms: C_1  and  O_9
    3  A    between atoms: C_1  and  N_19
    4  A    between atoms: C_5  and  C_6
    5  A    between atoms: C_7  and  C_29
    6  A    between atoms: O_16  and  C_17
    7  A    between atoms: O_16  and  C_20
    8  A    between atoms: C_23  and  O_27
    9  A    between atoms: O_27  and  C_29
                            x       y       z     vdW  Elec       q    Type
                         _______ _______ _______ _____ _____    ______ ____

>  <TORSDO>
F 9

$$$$
=
 OpenBabel10232408213D

 30 33  0  0  1  0  0  0  0  0999 V2000
  189.5170  175.6210  136.3480 N   0  0  0  0  0  0  0  0  0  0  0  0
  186.1830  178.0740  137.9800 C   0  0  0  0  0  3  0  0  0  0  0  0
  187.5220  177.7730  138.2030 C   0  0  0  0  0  0  0  0  0  0  0  0
  191.5000  175.3910  137.8670 C   0  0  0  0  0  1  0  0  0  0  0  0
  190.2770  176.0790  137.3700 C   0  0  2  0  0  3  0  0  0  0  0  0
  189.6880  177.1210  137.9740 N   0  0  0  0  0  0  0  0  0  0  0  0
  187.4150  178.4630  140.5200 C   0  0  0  0  0  0  0  0  0  0  0  0
  188.5370  177.2480  137.3250 C   0  0  0  0  0  0  0  0  0  0  0  0
  186.0260  178.7330  140.3390 C   0  0  0  0  0  0  0  0  0  0  0  0
  188.3970  176.3390  136.3400 N   0  0  0  0  0  0  0  0  0  0  0  0
  188.1260  177.9400  139.4360 C   0  0  0  0  0  0  0  0  0  0  0  0
  189.5700  177.5010  139.3790 C   0  0  0  0  0  3  0  0  0  0  0  0
  185.4390  178.5600  139.0660 C   0  0  0  0  0  3  0  0  0  0  0  0
  188.1020  178.7180  141.7140 O   0  0  0  0  0  0  0  0  0  0  0  0
  187.3740  177.3930  143.6150 C   0  0  0  0  0  2  0  0  0  0  0  0
  189.7990  178.1010  143.3040 C   0  0  0  0  0  2  0  0  0  0  0  0
  190.1450  177.1100  144.4200 C   0  0  0  0  0  2  0  0  0  0  0  0
  188.5010  177.6900  142.6150 C   0  0  2  0  0  3  0  0  0  0  0  0
  189.0280  176.8400  145.3570 N   0  0  0  0  0  0  0  0  0  0  0  0
  187.8140  177.6120  145.0630 C   0  0  0  0  0  2  0  0  0  0  0  0
  189.4290  177.1350  146.7390 C   0  0  2  0  0  3  0  0  0  0  0  0
  188.7770  178.2800  147.2300 O   0  0  0  0  0  0  0  0  0  0  0  0
  188.6090  178.0470  148.6000 C   0  0  0  0  0  1  0  0  0  0  0  0
  190.9450  177.2990  146.8270 C   0  0  0  0  0  2  0  0  0  0  0  0
  191.5720  176.0800  147.4800 C   0  0  0  0  0  2  0  0  0  0  0  0
  192.3610  175.4050  146.5470 O   0  0  0  0  0  1  0  0  0  0  0  0
  185.1910  179.1380  141.3840 O   0  0  0  0  0  0  0  0  0  0  0  0
  184.1960  178.2830  141.9320 C   0  0  0  0  0  2  0  0  0  0  0  0
  183.9140  178.6800  143.3690 C   0  0  0  0  0  2  0  0  0  0  0  0
  182.5650  179.0000  143.5150 O   0  0  0  0  0  1  0  0  0  0  0  0
  1  5  1  0  0  0  0
  2  3  1  0  0  0  0
  2 13  2  0  0  0  0
  3 11  1  0  0  0  0
  5  4  1  1  0  0  0
  5  6  1  0  0  0  0
  6 12  1  0  0  0  0
  7 14  1  0  0  0  0
  8  6  1  0  0  0  0
  8  3  2  0  0  0  0
  9  7  2  0  0  0  0
  9 27  1  0  0  0  0
 10  1  2  0  0  0  0
 10  8  1  0  0  0  0
 11  7  1  0  0  0  0
 12 11  2  0  0  0  0
 13  9  1  0  0  0  0
 15 20  1  0  0  0  0
 16 17  1  0  0  0  0
 17 19  1  0  0  0  0
 18 14  1  6  0  0  0
 18 16  1  0  0  0  0
 18 15  1  0  0  0  0
 19 21  1  0  0  0  0
 20 19  1  0  0  0  0
 21 24  1  6  0  0  0
 21 22  1  0  0  0  0
 22 23  1  0  0  0  0
 24 25  1  0  0  0  0
 26 25  1  0  0  0  0
 27 28  1  0  0  0  0
 28 29  1  0  0  0  0
 29 30  1  0  0  0  0
M  END
>  <MODEL>
7

>  <REMARK>
 VINA RESULT:      -7.0      2.269      7.362
  Name = 
  9 active torsions:
  status: ('A' for Active; 'I' for Inactive)
    1  A    between atoms: C_1  and  C_6
    2  A    between atoms: C_1  and  O_9
    3  A    between atoms: C_1  and  N_19
    4  A    between atoms: C_5  and  C_6
    5  A    between atoms: C_7  and  C_29
    6  A    between atoms: O_16  and  C_17
    7  A    between atoms: O_16  and  C_20
    8  A    between atoms: C_23  and  O_27
    9  A    between atoms: O_27  and  C_29
                            x       y       z     vdW  Elec       q    Type
                         _______ _______ _______ _____ _____    ______ ____

>  <TORSDO>
F 9

$$$$
=
 OpenBabel10232408213D

 30 33  0  0  1  0  0  0  0  0999 V2000
  191.7780  177.5790  140.2450 N   0  0  0  0  0  0  0  0  0  0  0  0
  191.0010  177.4180  144.6230 C   0  0  0  0  0  3  0  0  0  0  0  0
  190.3860  177.1780  143.4000 C   0  0  0  0  0  0  0  0  0  0  0  0
  189.7320  177.4130  138.8030 C   0  0  0  0  0  1  0  0  0  0  0  0
  190.4950  177.1900  140.0610 C   0  0  2  0  0  3  0  0  0  0  0  0
  189.9620  176.7430  141.2080 N   0  0  0  0  0  0  0  0  0  0  0  0
  188.1660  177.3650  144.3440 C   0  0  0  0  0  0  0  0  0  0  0  0
  190.9360  176.9180  142.0930 C   0  0  0  0  0  0  0  0  0  0  0  0
  188.7650  177.6660  145.6030 C   0  0  0  0  0  0  0  0  0  0  0  0
  192.0480  177.4410  141.5400 N   0  0  0  0  0  0  0  0  0  0  0  0
  189.0110  177.1680  143.2490 C   0  0  0  0  0  0  0  0  0  0  0  0
  188.6410  176.9120  141.8070 C   0  0  0  0  0  3  0  0  0  0  0  0
  190.1720  177.6610  145.7290 C   0  0  0  0  0  3  0  0  0  0  0  0
  186.7840  177.2330  144.1590 O   0  0  0  0  0  0  0  0  0  0  0  0
  185.0830  178.8110  144.8790 C   0  0  0  0  0  2  0  0  0  0  0  0
  185.1220  177.8380  142.5270 C   0  0  0  0  0  2  0  0  0  0  0  0
  184.0790  178.8980  142.1600 C   0  0  0  0  0  2  0  0  0  0  0  0
  185.9530  178.3020  143.7200 C   0  0  2  0  0  3  0  0  0  0  0  0
  183.2690  179.3730  143.3070 N   0  0  0  0  0  0  0  0  0  0  0  0
  183.5890  178.6980  144.5730 C   0  0  0  0  0  2  0  0  0  0  0  0
  181.8360  179.1820  143.0430 C   0  0  2  0  0  3  0  0  0  0  0  0
  181.2730  178.2390  143.9210 O   0  0  0  0  0  0  0  0  0  0  0  0
  179.9970  178.7330  144.2200 C   0  0  0  0  0  1  0  0  0  0  0  0
  181.6170  178.7650  141.5910 C   0  0  0  0  0  2  0  0  0  0  0  0
  180.6940  179.7470  140.8920 C   0  0  0  0  0  2  0  0  0  0  0  0
  179.9900  179.0890  139.8820 O   0  0  0  0  0  1  0  0  0  0  0  0
  188.0180  178.0040  146.7350 O   0  0  0  0  0  0  0  0  0  0  0  0
  187.9520  177.1610  147.8780 C   0  0  0  0  0  2  0  0  0  0  0  0
  188.3280  177.9490  149.1190 C   0  0  0  0  0  2  0  0  0  0  0  0
  189.6370  178.4160  149.0020 O   0  0  0  0  0  1  0  0  0  0  0  0
  1 10  2  0  0  0  0
  2 13  2  0  0  0  0
  3  2  1  0  0  0  0
  5  4  1  1  0  0  0
  5  1  1  0  0  0  0
  5  6  1  0  0  0  0
  6 12  1  0  0  0  0
  6  8  1  0  0  0  0
  7  9  2  0  0  0  0
  8  3  2  0  0  0  0
  9 13  1  0  0  0  0
  9 27  1  0  0  0  0
 10  8  1  0  0  0  0
 11  3  1  0  0  0  0
 11  7  1  0  0  0  0
 12 11  2  0  0  0  0
 14  7  1  0  0  0  0
 16 18  1  0  0  0  0
 17 16  1  0  0  0  0
 17 19  1  0  0  0  0
 18 14  1  1  0  0  0
 18 15  1  0  0  0  0
 19 20  1  0  0  0  0
 20 15  1  0  0  0  0
 21 24  1  6  0  0  0
 21 19  1  0  0  0  0
 21 22  1  0  0  0  0
 22 23  1  0  0  0  0
 25 24  1  0  0  0  0
 26 25  1  0  0  0  0
 27 28  1  0  0  0  0
 28 29  1  0  0  0  0
 30 29  1  0  0  0  0
M  END
>  <MODEL>
8

>  <REMARK>
 VINA RESULT:      -6.9      3.455      7.795
  Name = 
  9 active torsions:
  status: ('A' for Active; 'I' for Inactive)
    1  A    between atoms: C_1  and  C_6
    2  A    between atoms: C_1  and  O_9
    3  A    between atoms: C_1  and  N_19
    4  A    between atoms: C_5  and  C_6
    5  A    between atoms: C_7  and  C_29
    6  A    between atoms: O_16  and  C_17
    7  A    between atoms: O_16  and  C_20
    8  A    between atoms: C_23  and  O_27
    9  A    between atoms: O_27  and  C_29
                            x       y       z     vdW  Elec       q    Type
                         _______ _______ _______ _____ _____    ______ ____

>  <TORSDO>
F 9

$$$$
=
 OpenBabel10232408213D

 30 33  0  0  1  0  0  0  0  0999 V2000
  180.0720  178.9040  140.8190 N   0  0  0  0  0  0  0  0  0  0  0  0
  183.7900  177.9280  138.5790 C   0  0  0  0  0  3  0  0  0  0  0  0
  183.3270  178.1590  139.8690 C   0  0  0  0  0  0  0  0  0  0  0  0
  180.4310  179.6420  143.1900 C   0  0  0  0  0  1  0  0  0  0  0  0
  180.8250  178.9300  141.9430 C   0  0  2  0  0  3  0  0  0  0  0  0
  182.0300  178.3860  141.7240 N   0  0  0  0  0  0  0  0  0  0  0  0
  185.5350  178.7090  140.6910 C   0  0  0  0  0  0  0  0  0  0  0  0
  182.0020  178.0770  140.4330 C   0  0  0  0  0  0  0  0  0  0  0  0
  186.0340  178.5300  139.3670 C   0  0  0  0  0  0  0  0  0  0  0  0
  180.8290  178.3960  139.8510 N   0  0  0  0  0  0  0  0  0  0  0  0
  184.1610  178.5560  140.8980 C   0  0  0  0  0  0  0  0  0  0  0  0
  183.3710  178.7580  142.1690 C   0  0  0  0  0  3  0  0  0  0  0  0
  185.1590  178.1170  138.3380 C   0  0  0  0  0  3  0  0  0  0  0  0
  186.3510  179.0030  141.7910 O   0  0  0  0  0  0  0  0  0  0  0  0
  186.4470  178.0100  144.0060 C   0  0  0  0  0  2  0  0  0  0  0  0
  188.5040  178.2140  142.5200 C   0  0  0  0  0  2  0  0  0  0  0  0
  189.2080  177.2750  143.5050 C   0  0  0  0  0  2  0  0  0  0  0  0
  186.9940  178.0000  142.5700 C   0  0  2  0  0  3  0  0  0  0  0  0
  188.6430  177.3040  144.8760 N   0  0  0  0  0  0  0  0  0  0  0  0
  187.5440  178.2650  145.0400 C   0  0  0  0  0  2  0  0  0  0  0  0
  189.6850  177.6360  145.8580 C   0  0  2  0  0  3  0  0  0  0  0  0
  190.9640  177.2950  145.3850 O   0  0  0  0  0  0  0  0  0  0  0  0
  191.5300  176.5060  146.3940 C   0  0  0  0  0  1  0  0  0  0  0  0
  189.3990  176.9420  147.1870 C   0  0  0  0  0  2  0  0  0  0  0  0
  189.1510  177.9700  148.2780 C   0  0  0  0  0  2  0  0  0  0  0  0
  187.8810  177.7750  148.8240 O   0  0  0  0  0  1  0  0  0  0  0  0
  187.3650  178.7800  139.0200 O   0  0  0  0  0  0  0  0  0  0  0  0
  188.3580  177.7630  139.0490 C   0  0  0  0  0  2  0  0  0  0  0  0
  189.2310  177.8640  137.8120 C   0  0  0  0  0  2  0  0  0  0  0  0
  189.2340  179.1760  137.3420 O   0  0  0  0  0  1  0  0  0  0  0  0
  1  5  1  0  0  0  0
  2  3  1  0  0  0  0
  3  8  2  0  0  0  0
  3 11  1  0  0  0  0
  5  4  1  6  0  0  0
  6  5  1  0  0  0  0
  6 12  1  0  0  0  0
  7 11  1  0  0  0  0
  7 14  1  0  0  0  0
  8  6  1  0  0  0  0
  9  7  2  0  0  0  0
 10  8  1  0  0  0  0
 10  1  2  0  0  0  0
 11 12  2  0  0  0  0
 13  2  2  0  0  0  0
 13  9  1  0  0  0  0
 15 20  1  0  0  0  0
 16 18  1  0  0  0  0
 16 17  1  0  0  0  0
 17 19  1  0  0  0  0
 18 14  1  6  0  0  0
 18 15  1  0  0  0  0
 19 20  1  0  0  0  0
 19 21  1  0  0  0  0
 21 24  1  1  0  0  0
 22 21  1  0  0  0  0
 22 23  1  0  0  0  0
 24 25  1  0  0  0  0
 25 26  1  0  0  0  0
 27 28  1  0  0  0  0
 27  9  1  0  0  0  0
 29 28  1  0  0  0  0
 30 29  1  0  0  0  0
M  END
>  <MODEL>
9

>  <REMARK>
 VINA RESULT:      -6.6      3.654      7.547
  Name = 
  9 active torsions:
  status: ('A' for Active; 'I' for Inactive)
    1  A    between atoms: C_1  and  C_6
    2  A    between atoms: C_1  and  O_9
    3  A    between atoms: C_1  and  N_19
    4  A    between atoms: C_5  and  C_6
    5  A    between atoms: C_7  and  C_29
    6  A    between atoms: O_16  and  C_17
    7  A    between atoms: O_16  and  C_20
    8  A    between atoms: C_23  and  O_27
    9  A    between atoms: O_27  and  C_29
                            x       y       z     vdW  Elec       q    Type
                         _______ _______ _______ _____ _____    ______ ____

>  <TORSDO>
F 9

$$$$
