=
 OpenBabel10232411283D

 36 40  0  0  1  0  0  0  0  0999 V2000
  186.4680  178.0380  144.9220 C   0  0  0  0  0  0  0  0  0  0  0  0
  187.6660  177.7420  144.3450 N   0  0  0  0  0  0  0  0  0  0  0  0
  188.5130  177.5460  145.3700 C   0  0  0  0  0  0  0  0  0  0  0  0
  186.5650  178.0360  146.3240 C   0  0  0  0  0  3  0  0  0  0  0  0
  188.5970  177.5430  147.7450 C   0  0  0  0  0  0  0  0  0  0  0  0
  190.5240  177.0220  146.4440 C   0  0  0  0  0  3  0  0  0  0  0  0
  189.9140  177.1980  147.6590 N   0  0  0  0  0  0  0  0  0  0  0  0
  187.8880  177.7200  146.5640 C   0  0  0  0  0  0  0  0  0  0  0  0
  188.0470  177.6900  148.8670 O   0  0  0  0  0  0  0  0  0  0  0  0
  189.8210  177.1930  145.2850 N   0  0  0  0  0  2  0  0  0  0  0  0
  185.2030  178.3060  144.1940 C   0  0  0  0  0  0  0  0  0  0  0  0
  183.9240  178.4220  142.1270 C   0  0  0  0  0  3  0  0  0  0  0  0
  184.0630  178.7180  144.9010 C   0  0  0  0  0  3  0  0  0  0  0  0
  185.1220  178.1670  142.7990 C   0  0  0  0  0  3  0  0  0  0  0  0
  182.8620  178.9720  144.2300 C   0  0  0  0  0  3  0  0  0  0  0  0
  182.7910  178.8170  142.8430 C   0  0  0  0  0  0  0  0  0  0  0  0
  181.5190  179.0930  142.1220 C   0  0  0  0  0  2  0  0  0  0  0  0
  181.1610  177.9480  141.2870 N   0  0  0  0  0  2  0  0  0  0  0  0
  181.0810  178.3330  139.8740 C   0  0  0  0  0  3  0  0  0  0  0  0
  182.5460  178.6400  137.9880 C   0  0  0  0  0  2  0  0  0  0  0  0
  181.2650  179.8330  139.6690 C   0  0  0  0  0  2  0  0  0  0  0  0
  182.3940  179.9870  138.6640 C   0  0  0  0  0  2  0  0  0  0  0  0
  182.1140  177.6180  139.0170 C   0  0  0  0  0  2  0  0  0  0  0  0
  188.2670  178.8780  142.2360 C   0  0  0  0  0  2  0  0  0  0  0  0
  188.5430  178.6490  140.7530 C   0  0  0  0  0  2  0  0  0  0  0  0
  189.0840  176.5430  142.7320 C   0  0  0  0  0  2  0  0  0  0  0  0
  187.9470  177.5480  142.9220 C   0  0  1  0  0  3  0  0  0  0  0  0
  189.3540  176.3340  141.2450 C   0  0  0  0  0  2  0  0  0  0  0  0
  189.6970  177.6660  140.5780 C   0  0  1  0  0  3  0  0  0  0  0  0
  189.9610  177.4550  139.0950 C   0  0  0  0  0  2  0  0  0  0  0  0
  189.1540  178.3710  138.3060 N   0  0  0  0  0  2  0  0  0  0  0  0
  188.5620  177.5950  137.2270 C   0  0  0  0  0  2  0  0  0  0  0  0
  187.3910  179.5300  136.4850 F   0  0  0  0  0  0  0  0  0  0  0  0
  186.6830  177.4550  135.5890 C   0  0  0  0  0  1  0  0  0  0  0  0
  186.2440  178.0670  137.9370 C   0  0  0  0  0  1  0  0  0  0  0  0
  187.2300  178.1930  136.7960 C   0  0  0  0  0  0  0  0  0  0  0  0
  1  4  2  0  0  0  0
  2  1  1  0  0  0  0
  2  3  1  0  0  0  0
  3  8  2  0  0  0  0
  4  8  1  0  0  0  0
  5  9  2  0  0  0  0
  6  7  2  0  0  0  0
  7  5  1  0  0  0  0
  8  5  1  0  0  0  0
 10  3  1  0  0  0  0
 10  6  1  0  0  0  0
 11 13  1  0  0  0  0
 11  1  1  0  0  0  0
 12 14  1  0  0  0  0
 12 16  2  0  0  0  0
 14 11  2  0  0  0  0
 15 13  2  0  0  0  0
 16 15  1  0  0  0  0
 17 16  1  0  0  0  0
 18 17  1  0  0  0  0
 19 18  1  0  0  0  0
 20 22  1  0  0  0  0
 20 23  1  0  0  0  0
 21 19  1  0  0  0  0
 22 21  1  0  0  0  0
 23 19  1  0  0  0  0
 25 24  1  0  0  0  0
 26 27  1  0  0  0  0
 27 24  1  1  0  0  0
 27  2  1  0  0  0  0
 28 26  1  0  0  0  0
 29 30  1  6  0  0  0
 29 25  1  0  0  0  0
 29 28  1  0  0  0  0
 31 30  1  0  0  0  0
 32 31  1  0  0  0  0
 33 36  1  0  0  0  0
 34 36  1  0  0  0  0
 36 32  1  0  0  0  0
 36 35  1  0  0  0  0
M  END
>  <MODEL>
1

>  <REMARK>
 VINA RESULT:      -8.8      0.000      0.000
  Name = 
  9 active torsions:
  status: ('A' for Active; 'I' for Inactive)
    1  A    between atoms: C_1  and  C_3
    2  A    between atoms: N_2  and  C_20
    3  A    between atoms: N_4  and  C_10
    4  A    between atoms: N_4  and  C_15
    5  A    between atoms: C_8  and  N_27
    6  A    between atoms: C_8  and  C_33
    7  A    between atoms: C_10  and  C_34
    8  A    between atoms: C_24  and  N_27
    9  A    between atoms: C_24  and  C_36
                            x       y       z     vdW  Elec       q    Type
                         _______ _______ _______ _____ _____    ______ ____

>  <TORSDO>
F 9

$$$$
=
 OpenBabel10232411283D

 36 40  0  0  1  0  0  0  0  0999 V2000
  189.0430  177.3760  140.4550 C   0  0  0  0  0  0  0  0  0  0  0  0
  190.3420  177.0820  140.7410 N   0  0  0  0  0  0  0  0  0  0  0  0
  190.9330  176.8940  139.5480 C   0  0  0  0  0  0  0  0  0  0  0  0
  188.8120  177.3640  139.0690 C   0  0  0  0  0  3  0  0  0  0  0  0
  190.4720  176.9080  137.2170 C   0  0  0  0  0  0  0  0  0  0  0  0
  192.6660  176.4680  138.0360 C   0  0  0  0  0  3  0  0  0  0  0  0
  191.7860  176.6140  136.9950 N   0  0  0  0  0  2  0  0  0  0  0  0
  190.0450  177.0490  138.5310 C   0  0  0  0  0  0  0  0  0  0  0  0
  189.6780  177.0510  136.2510 O   0  0  0  0  0  0  0  0  0  0  0  0
  192.2410  176.6110  139.3270 N   0  0  0  0  0  0  0  0  0  0  0  0
  187.9920  177.6980  141.4510 C   0  0  0  0  0  0  0  0  0  0  0  0
  186.1590  179.0960  142.2320 C   0  0  0  0  0  3  0  0  0  0  0  0
  187.8420  176.8960  142.5930 C   0  0  0  0  0  3  0  0  0  0  0  0
  187.1440  178.8050  141.2850 C   0  0  0  0  0  3  0  0  0  0  0  0
  186.8550  177.1840  143.5410 C   0  0  0  0  0  3  0  0  0  0  0  0
  186.0080  178.2810  143.3570 C   0  0  0  0  0  0  0  0  0  0  0  0
  184.9620  178.5980  144.3650 C   0  0  0  0  0  2  0  0  0  0  0  0
  183.9110  179.4100  143.7550 N   0  0  0  0  0  2  0  0  0  0  0  0
  182.8060  178.5700  143.2820 C   0  0  0  0  0  3  0  0  0  0  0  0
  181.0720  178.6180  141.6110 C   0  0  0  0  0  2  0  0  0  0  0  0
  181.4910  178.8890  143.9860 C   0  0  0  0  0  2  0  0  0  0  0  0
  180.4820  179.1810  142.8870 C   0  0  0  0  0  2  0  0  0  0  0  0
  182.5730  178.7040  141.7850 C   0  0  0  0  0  2  0  0  0  0  0  0
  190.5260  178.2930  142.8850 C   0  0  0  0  0  2  0  0  0  0  0  0
  191.2280  178.2930  144.2400 C   0  0  0  0  0  2  0  0  0  0  0  0
  190.7450  175.7810  142.7890 C   0  0  0  0  0  2  0  0  0  0  0  0
  190.9920  177.0980  142.0510 C   0  0  1  0  0  3  0  0  0  0  0  0
  191.4440  175.8010  144.1440 C   0  0  0  0  0  2  0  0  0  0  0  0
  190.9500  176.9850  144.9770 C   0  0  1  0  0  3  0  0  0  0  0  0
  191.6520  177.0050  146.3250 C   0  0  0  0  0  2  0  0  0  0  0  0
  190.6920  176.7880  147.3940 N   0  0  0  0  0  2  0  0  0  0  0  0
  189.3660  176.8990  146.8050 C   0  0  0  0  0  2  0  0  0  0  0  0
  187.8840  176.3300  148.5780 F   0  0  0  0  0  0  0  0  0  0  0  0
  188.9930  178.4160  148.7530 C   0  0  0  0  0  1  0  0  0  0  0  0
  187.1960  178.0400  147.1060 C   0  0  0  0  0  1  0  0  0  0  0  0
  188.3560  177.3930  147.8310 C   0  0  0  0  0  0  0  0  0  0  0  0
  1  2  1  0  0  0  0
  1 11  1  0  0  0  0
  3  2  1  0  0  0  0
  4  1  2  0  0  0  0
  5  8  1  0  0  0  0
  6 10  2  0  0  0  0
  7  5  1  0  0  0  0
  7  6  1  0  0  0  0
  8  4  1  0  0  0  0
  8  3  2  0  0  0  0
  9  5  2  0  0  0  0
 10  3  1  0  0  0  0
 11 13  1  0  0  0  0
 12 16  2  0  0  0  0
 13 15  2  0  0  0  0
 14 11  2  0  0  0  0
 14 12  1  0  0  0  0
 16 15  1  0  0  0  0
 16 17  1  0  0  0  0
 18 17  1  0  0  0  0
 19 18  1  0  0  0  0
 19 21  1  0  0  0  0
 20 23  1  0  0  0  0
 20 22  1  0  0  0  0
 22 21  1  0  0  0  0
 23 19  1  0  0  0  0
 24 25  1  0  0  0  0
 25 29  1  0  0  0  0
 26 28  1  0  0  0  0
 27  2  1  6  0  0  0
 27 26  1  0  0  0  0
 27 24  1  0  0  0  0
 28 29  1  0  0  0  0
 29 30  1  1  0  0  0
 30 31  1  0  0  0  0
 32 31  1  0  0  0  0
 32 36  1  0  0  0  0
 35 36  1  0  0  0  0
 36 33  1  0  0  0  0
 36 34  1  0  0  0  0
M  END
>  <MODEL>
2

>  <REMARK>
 VINA RESULT:      -8.7      3.619      7.024
  Name = 
  9 active torsions:
  status: ('A' for Active; 'I' for Inactive)
    1  A    between atoms: C_1  and  C_3
    2  A    between atoms: N_2  and  C_20
    3  A    between atoms: N_4  and  C_10
    4  A    between atoms: N_4  and  C_15
    5  A    between atoms: C_8  and  N_27
    6  A    between atoms: C_8  and  C_33
    7  A    between atoms: C_10  and  C_34
    8  A    between atoms: C_24  and  N_27
    9  A    between atoms: C_24  and  C_36
                            x       y       z     vdW  Elec       q    Type
                         _______ _______ _______ _____ _____    ______ ____

>  <TORSDO>
F 9

$$$$
=
 OpenBabel10232411283D

 36 40  0  0  1  0  0  0  0  0999 V2000
  189.4730  177.2850  139.3810 C   0  0  0  0  0  0  0  0  0  0  0  0
  189.2650  177.6100  140.6880 N   0  0  0  0  0  0  0  0  0  0  0  0
  188.0280  178.1350  140.7290 C   0  0  0  0  0  0  0  0  0  0  0  0
  188.3590  177.6170  138.5910 C   0  0  0  0  0  3  0  0  0  0  0  0
  186.1750  178.6530  139.3340 C   0  0  0  0  0  0  0  0  0  0  0  0
  186.1040  179.0650  141.6800 C   0  0  0  0  0  3  0  0  0  0  0  0
  185.5180  179.1040  140.4420 N   0  0  0  0  0  2  0  0  0  0  0  0
  187.4640  178.1590  139.4930 C   0  0  0  0  0  0  0  0  0  0  0  0
  185.6210  178.6840  138.2050 O   0  0  0  0  0  0  0  0  0  0  0  0
  187.3700  178.5740  141.8320 N   0  0  0  0  0  0  0  0  0  0  0  0
  190.6930  176.6410  138.8370 C   0  0  0  0  0  0  0  0  0  0  0  0
  193.1090  176.5560  138.5600 C   0  0  0  0  0  3  0  0  0  0  0  0
  190.5820  175.4820  138.0530 C   0  0  0  0  0  3  0  0  0  0  0  0
  191.9690  177.1740  139.0780 C   0  0  0  0  0  3  0  0  0  0  0  0
  191.7220  174.8600  137.5350 C   0  0  0  0  0  3  0  0  0  0  0  0
  192.9880  175.3940  137.7950 C   0  0  0  0  0  0  0  0  0  0  0  0
  194.2040  174.7420  137.2390 C   0  0  0  0  0  2  0  0  0  0  0  0
  194.3950  173.4320  137.8590 N   0  0  0  0  0  2  0  0  0  0  0  0
  195.7350  173.3180  138.4440 C   0  0  0  0  0  3  0  0  0  0  0  0
  197.5140  174.7520  139.2060 C   0  0  0  0  0  2  0  0  0  0  0  0
  196.8320  173.3010  137.3850 C   0  0  0  0  0  2  0  0  0  0  0  0
  197.8000  174.4110  137.7580 C   0  0  0  0  0  2  0  0  0  0  0  0
  196.0450  174.4500  139.4120 C   0  0  0  0  0  2  0  0  0  0  0  0
  190.2830  178.5590  142.7280 C   0  0  0  0  0  2  0  0  0  0  0  0
  191.2090  178.2440  143.8990 C   0  0  0  0  0  2  0  0  0  0  0  0
  189.6260  176.1260  142.6160 C   0  0  0  0  0  2  0  0  0  0  0  0
  190.1400  177.3300  141.8270 C   0  0  1  0  0  3  0  0  0  0  0  0
  190.5570  175.8310  143.7870 C   0  0  0  0  0  2  0  0  0  0  0  0
  190.6700  177.0580  144.6930 C   0  0  1  0  0  3  0  0  0  0  0  0
  191.6020  176.7630  145.8580 C   0  0  0  0  0  2  0  0  0  0  0  0
  190.8330  176.5260  147.0680 N   0  0  0  0  0  2  0  0  0  0  0  0
  189.9970  177.6990  147.2780 C   0  0  0  0  0  2  0  0  0  0  0  0
  188.5170  175.9350  147.8830 F   0  0  0  0  0  0  0  0  0  0  0  0
  188.0940  178.0530  148.8550 C   0  0  0  0  0  1  0  0  0  0  0  0
  187.6660  177.6170  146.4650 C   0  0  0  0  0  1  0  0  0  0  0  0
  188.5730  177.2930  147.6320 C   0  0  0  0  0  0  0  0  0  0  0  0
  1  2  1  0  0  0  0
  2  3  1  0  0  0  0
  3 10  1  0  0  0  0
  4  1  2  0  0  0  0
  4  8  1  0  0  0  0
  5  8  1  0  0  0  0
  5  7  1  0  0  0  0
  6 10  2  0  0  0  0
  7  6  1  0  0  0  0
  8  3  2  0  0  0  0
  9  5  2  0  0  0  0
 11 14  1  0  0  0  0
 11  1  1  0  0  0  0
 12 14  2  0  0  0  0
 13 11  2  0  0  0  0
 15 16  2  0  0  0  0
 15 13  1  0  0  0  0
 16 12  1  0  0  0  0
 17 16  1  0  0  0  0
 17 18  1  0  0  0  0
 18 19  1  0  0  0  0
 19 23  1  0  0  0  0
 20 23  1  0  0  0  0
 21 22  1  0  0  0  0
 21 19  1  0  0  0  0
 22 20  1  0  0  0  0
 24 25  1  0  0  0  0
 25 29  1  0  0  0  0
 26 28  1  0  0  0  0
 27  2  1  6  0  0  0
 27 26  1  0  0  0  0
 27 24  1  0  0  0  0
 28 29  1  0  0  0  0
 29 30  1  1  0  0  0
 30 31  1  0  0  0  0
 31 32  1  0  0  0  0
 32 36  1  0  0  0  0
 35 36  1  0  0  0  0
 36 33  1  0  0  0  0
 36 34  1  0  0  0  0
M  END
>  <MODEL>
3

>  <REMARK>
 VINA RESULT:      -8.6      4.617     10.001
  Name = 
  9 active torsions:
  status: ('A' for Active; 'I' for Inactive)
    1  A    between atoms: C_1  and  C_3
    2  A    between atoms: N_2  and  C_20
    3  A    between atoms: N_4  and  C_10
    4  A    between atoms: N_4  and  C_15
    5  A    between atoms: C_8  and  N_27
    6  A    between atoms: C_8  and  C_33
    7  A    between atoms: C_10  and  C_34
    8  A    between atoms: C_24  and  N_27
    9  A    between atoms: C_24  and  C_36
                            x       y       z     vdW  Elec       q    Type
                         _______ _______ _______ _____ _____    ______ ____

>  <TORSDO>
F 9

$$$$
=
 OpenBabel10232411283D

 36 40  0  0  1  0  0  0  0  0999 V2000
  188.7120  177.6490  143.8850 C   0  0  0  0  0  0  0  0  0  0  0  0
  187.5600  177.9900  144.5280 N   0  0  0  0  0  0  0  0  0  0  0  0
  187.8230  177.8260  145.8350 C   0  0  0  0  0  0  0  0  0  0  0  0
  189.7060  177.2570  144.7970 C   0  0  0  0  0  3  0  0  0  0  0  0
  189.5580  177.1670  147.3190 C   0  0  0  0  0  0  0  0  0  0  0  0
  187.4320  177.8620  148.1410 C   0  0  0  0  0  3  0  0  0  0  0  0
  188.7080  177.4100  148.3590 N   0  0  0  0  0  0  0  0  0  0  0  0
  189.0930  177.3820  146.0290 C   0  0  0  0  0  0  0  0  0  0  0  0
  190.7300  176.7630  147.5340 O   0  0  0  0  0  0  0  0  0  0  0  0
  186.9810  178.0760  146.8700 N   0  0  0  0  0  2  0  0  0  0  0  0
  188.9280  177.6990  142.4180 C   0  0  0  0  0  0  0  0  0  0  0  0
  188.5130  178.7070  140.2420 C   0  0  0  0  0  3  0  0  0  0  0  0
  189.7630  176.7550  141.8010 C   0  0  0  0  0  3  0  0  0  0  0  0
  188.3000  178.6700  141.6220 C   0  0  0  0  0  3  0  0  0  0  0  0
  189.9800  176.7910  140.4200 C   0  0  0  0  0  3  0  0  0  0  0  0
  189.3590  177.7720  139.6400 C   0  0  0  0  0  0  0  0  0  0  0  0
  189.5780  177.8100  138.1700 C   0  0  0  0  0  2  0  0  0  0  0  0
  188.7090  178.8150  137.5620 N   0  0  0  0  0  2  0  0  0  0  0  0
  187.6490  178.1830  136.7700 C   0  0  0  0  0  3  0  0  0  0  0  0
  185.6220  176.9300  137.1170 C   0  0  0  0  0  2  0  0  0  0  0  0
  187.9480  176.7210  136.4600 C   0  0  0  0  0  2  0  0  0  0  0  0
  186.7460  175.9290  136.9460 C   0  0  0  0  0  2  0  0  0  0  0  0
  186.2940  178.2420  137.4590 C   0  0  0  0  0  2  0  0  0  0  0  0
  185.6790  177.5410  142.9920 C   0  0  0  0  0  2  0  0  0  0  0  0
  184.4190  178.1480  142.3820 C   0  0  0  0  0  2  0  0  0  0  0  0
  185.3700  178.9900  145.0340 C   0  0  0  0  0  2  0  0  0  0  0  0
  186.3410  178.5450  143.9390 C   0  0  1  0  0  3  0  0  0  0  0  0
  184.1130  179.5850  144.4080 C   0  0  0  0  0  2  0  0  0  0  0  0
  183.4480  178.5630  143.4850 C   0  0  1  0  0  3  0  0  0  0  0  0
  182.1980  179.1600  142.8590 C   0  0  0  0  0  2  0  0  0  0  0  0
  181.8050  178.3900  141.6900 N   0  0  0  0  0  2  0  0  0  0  0  0
  181.4720  179.3460  140.6440 C   0  0  0  0  0  2  0  0  0  0  0  0
  183.5750  179.7900  139.6210 F   0  0  0  0  0  0  0  0  0  0  0  0
  182.6070  177.6740  139.1770 C   0  0  0  0  0  1  0  0  0  0  0  0
  181.6810  179.7470  138.2160 C   0  0  0  0  0  1  0  0  0  0  0  0
  182.3650  179.1510  139.4270 C   0  0  0  0  0  0  0  0  0  0  0  0
  1  2  1  0  0  0  0
  1  4  2  0  0  0  0
  2  3  1  0  0  0  0
  3  8  2  0  0  0  0
  3 10  1  0  0  0  0
  4  8  1  0  0  0  0
  5  9  2  0  0  0  0
  5  7  1  0  0  0  0
  6  7  2  0  0  0  0
  8  5  1  0  0  0  0
 10  6  1  0  0  0  0
 11  1  1  0  0  0  0
 12 14  1  0  0  0  0
 13 11  1  0  0  0  0
 14 11  2  0  0  0  0
 15 13  2  0  0  0  0
 16 12  2  0  0  0  0
 16 15  1  0  0  0  0
 17 16  1  0  0  0  0
 18 17  1  0  0  0  0
 19 23  1  0  0  0  0
 19 18  1  0  0  0  0
 20 23  1  0  0  0  0
 21 19  1  0  0  0  0
 21 22  1  0  0  0  0
 22 20  1  0  0  0  0
 25 24  1  0  0  0  0
 25 29  1  0  0  0  0
 27 24  1  1  0  0  0
 27  2  1  0  0  0  0
 27 26  1  0  0  0  0
 28 26  1  0  0  0  0
 29 30  1  6  0  0  0
 29 28  1  0  0  0  0
 31 30  1  0  0  0  0
 32 31  1  0  0  0  0
 34 36  1  0  0  0  0
 35 36  1  0  0  0  0
 36 33  1  0  0  0  0
 36 32  1  0  0  0  0
M  END
>  <MODEL>
4

>  <REMARK>
 VINA RESULT:      -8.3      1.455      5.524
  Name = 
  9 active torsions:
  status: ('A' for Active; 'I' for Inactive)
    1  A    between atoms: C_1  and  C_3
    2  A    between atoms: N_2  and  C_20
    3  A    between atoms: N_4  and  C_10
    4  A    between atoms: N_4  and  C_15
    5  A    between atoms: C_8  and  N_27
    6  A    between atoms: C_8  and  C_33
    7  A    between atoms: C_10  and  C_34
    8  A    between atoms: C_24  and  N_27
    9  A    between atoms: C_24  and  C_36
                            x       y       z     vdW  Elec       q    Type
                         _______ _______ _______ _____ _____    ______ ____

>  <TORSDO>
F 9

$$$$
=
 OpenBabel10232411283D

 36 40  0  0  1  0  0  0  0  0999 V2000
  189.9120  177.1320  139.9730 C   0  0  0  0  0  0  0  0  0  0  0  0
  189.6090  176.9930  138.6510 N   0  0  0  0  0  0  0  0  0  0  0  0
  190.7850  176.7670  138.0410 C   0  0  0  0  0  0  0  0  0  0  0  0
  191.2930  177.0000  140.1940 C   0  0  0  0  0  3  0  0  0  0  0  0
  193.1070  176.5380  138.4950 C   0  0  0  0  0  0  0  0  0  0  0  0
  192.2550  176.3070  136.2810 C   0  0  0  0  0  3  0  0  0  0  0  0
  193.3050  176.3130  137.1640 N   0  0  0  0  0  0  0  0  0  0  0  0
  191.8100  176.7710  138.9340 C   0  0  0  0  0  0  0  0  0  0  0  0
  194.0770  176.5290  139.2950 O   0  0  0  0  0  0  0  0  0  0  0  0
  190.9810  176.5330  136.7190 N   0  0  0  0  0  2  0  0  0  0  0  0
  188.9310  177.3650  141.0610 C   0  0  0  0  0  0  0  0  0  0  0  0
  187.0800  178.6190  142.0220 C   0  0  0  0  0  3  0  0  0  0  0  0
  188.9360  176.5390  142.1960 C   0  0  0  0  0  3  0  0  0  0  0  0
  187.9980  178.4110  140.9900 C   0  0  0  0  0  3  0  0  0  0  0  0
  188.0170  176.7430  143.2290 C   0  0  0  0  0  3  0  0  0  0  0  0
  187.0830  177.7800  143.1400 C   0  0  0  0  0  0  0  0  0  0  0  0
  186.1080  178.0080  144.2390 C   0  0  0  0  0  2  0  0  0  0  0  0
  186.5180  177.2670  145.4310 N   0  0  0  0  0  2  0  0  0  0  0  0
  187.4760  178.0400  146.2270 C   0  0  0  0  0  3  0  0  0  0  0  0
  189.2180  177.6620  147.8470 C   0  0  0  0  0  2  0  0  0  0  0  0
  186.9240  178.4140  147.5990 C   0  0  0  0  0  2  0  0  0  0  0  0
  187.9360  177.9110  148.6140 C   0  0  0  0  0  2  0  0  0  0  0  0
  188.7860  177.2990  146.4430 C   0  0  0  0  0  2  0  0  0  0  0  0
  188.0960  178.1280  137.0640 C   0  0  0  0  0  2  0  0  0  0  0  0
  186.7000  178.0810  136.4490 C   0  0  0  0  0  2  0  0  0  0  0  0
  188.0390  175.6210  137.3460 C   0  0  0  0  0  2  0  0  0  0  0  0
  188.2810  176.9630  138.0390 C   0  0  1  0  0  3  0  0  0  0  0  0
  186.6440  175.5940  136.7290 C   0  0  0  0  0  2  0  0  0  0  0  0
  186.4820  176.7480  135.7380 C   0  0  1  0  0  3  0  0  0  0  0  0
  185.0900  176.7210  135.1290 C   0  0  0  0  0  2  0  0  0  0  0  0
  184.1900  175.9450  135.9660 N   0  0  0  0  0  2  0  0  0  0  0  0
  183.1820  176.8640  136.4730 C   0  0  0  0  0  2  0  0  0  0  0  0
  184.2930  177.4480  138.4960 F   0  0  0  0  0  0  0  0  0  0  0  0
  181.9280  177.5860  138.5090 C   0  0  0  0  0  1  0  0  0  0  0  0
  183.0970  175.4150  138.4720 C   0  0  0  0  0  1  0  0  0  0  0  0
  183.1520  176.8500  137.9950 C   0  0  0  0  0  0  0  0  0  0  0  0
  1  4  2  0  0  0  0
  1 11  1  0  0  0  0
  2  1  1  0  0  0  0
  3  2  1  0  0  0  0
  3  8  2  0  0  0  0
  5  8  1  0  0  0  0
  5  9  2  0  0  0  0
  6 10  1  0  0  0  0
  6  7  2  0  0  0  0
  7  5  1  0  0  0  0
  8  4  1  0  0  0  0
 10  3  1  0  0  0  0
 11 13  1  0  0  0  0
 12 16  2  0  0  0  0
 13 15  2  0  0  0  0
 14 11  2  0  0  0  0
 14 12  1  0  0  0  0
 16 15  1  0  0  0  0
 16 17  1  0  0  0  0
 17 18  1  0  0  0  0
 18 19  1  0  0  0  0
 19 23  1  0  0  0  0
 19 21  1  0  0  0  0
 20 22  1  0  0  0  0
 21 22  1  0  0  0  0
 23 20  1  0  0  0  0
 25 24  1  0  0  0  0
 26 27  1  0  0  0  0
 27 24  1  6  0  0  0
 27  2  1  0  0  0  0
 28 26  1  0  0  0  0
 29 30  1  1  0  0  0
 29 25  1  0  0  0  0
 29 28  1  0  0  0  0
 30 31  1  0  0  0  0
 31 32  1  0  0  0  0
 32 36  1  0  0  0  0
 36 35  1  0  0  0  0
 36 33  1  0  0  0  0
 36 34  1  0  0  0  0
M  END
>  <MODEL>
5

>  <REMARK>
 VINA RESULT:      -8.2      2.956      7.325
  Name = 
  9 active torsions:
  status: ('A' for Active; 'I' for Inactive)
    1  A    between atoms: C_1  and  C_3
    2  A    between atoms: N_2  and  C_20
    3  A    between atoms: N_4  and  C_10
    4  A    between atoms: N_4  and  C_15
    5  A    between atoms: C_8  and  N_27
    6  A    between atoms: C_8  and  C_33
    7  A    between atoms: C_10  and  C_34
    8  A    between atoms: C_24  and  N_27
    9  A    between atoms: C_24  and  C_36
                            x       y       z     vdW  Elec       q    Type
                         _______ _______ _______ _____ _____    ______ ____

>  <TORSDO>
F 9

$$$$
=
 OpenBabel10232411283D

 36 40  0  0  1  0  0  0  0  0999 V2000
  186.4090  178.0280  144.9750 C   0  0  0  0  0  0  0  0  0  0  0  0
  187.6120  177.6870  144.4330 N   0  0  0  0  0  0  0  0  0  0  0  0
  188.4350  177.5120  145.4810 C   0  0  0  0  0  0  0  0  0  0  0  0
  186.4790  178.0760  146.3770 C   0  0  0  0  0  3  0  0  0  0  0  0
  188.4730  177.5960  147.8550 C   0  0  0  0  0  0  0  0  0  0  0  0
  190.4130  176.9890  146.6130 C   0  0  0  0  0  3  0  0  0  0  0  0
  189.7840  177.2230  147.8090 N   0  0  0  0  0  0  0  0  0  0  0  0
  187.7900  177.7430  146.6550 C   0  0  0  0  0  0  0  0  0  0  0  0
  187.9040  177.7970  148.9600 O   0  0  0  0  0  0  0  0  0  0  0  0
  189.7360  177.1300  145.4350 N   0  0  0  0  0  2  0  0  0  0  0  0
  185.1640  178.2930  144.2120 C   0  0  0  0  0  0  0  0  0  0  0  0
  183.9300  178.3620  142.1160 C   0  0  0  0  0  3  0  0  0  0  0  0
  184.0180  178.7500  144.8810 C   0  0  0  0  0  3  0  0  0  0  0  0
  185.1090  178.1090  142.8210 C   0  0  0  0  0  3  0  0  0  0  0  0
  182.8360  179.0020  144.1780 C   0  0  0  0  0  3  0  0  0  0  0  0
  182.7900  178.8010  142.7950 C   0  0  0  0  0  0  0  0  0  0  0  0
  181.5380  179.0750  142.0390 C   0  0  0  0  0  2  0  0  0  0  0  0
  181.8300  179.1710  140.6100 N   0  0  0  0  0  2  0  0  0  0  0  0
  181.0610  178.1810  139.8490 C   0  0  0  0  0  3  0  0  0  0  0  0
  180.0850  176.0020  140.1680 C   0  0  0  0  0  2  0  0  0  0  0  0
  181.9550  177.1640  139.1480 C   0  0  0  0  0  2  0  0  0  0  0  0
  181.4720  175.7940  139.5940 C   0  0  0  0  0  2  0  0  0  0  0  0
  180.0820  177.4100  140.7220 C   0  0  0  0  0  2  0  0  0  0  0  0
  188.1300  178.7430  142.2620 C   0  0  0  0  0  2  0  0  0  0  0  0
  188.4330  178.4520  140.7950 C   0  0  0  0  0  2  0  0  0  0  0  0
  189.1330  176.5160  142.8940 C   0  0  0  0  0  2  0  0  0  0  0  0
  187.9160  177.4340  143.0240 C   0  0  1  0  0  3  0  0  0  0  0  0
  189.4270  176.2430  141.4230 C   0  0  0  0  0  2  0  0  0  0  0  0
  189.6640  177.5580  140.6780 C   0  0  1  0  0  3  0  0  0  0  0  0
  189.9530  177.2830  139.2110 C   0  0  0  0  0  2  0  0  0  0  0  0
  190.8550  176.1510  139.0810 N   0  0  0  0  0  2  0  0  0  0  0  0
  191.9040  176.5480  138.1530 C   0  0  0  0  0  2  0  0  0  0  0  0
  193.2150  175.5820  136.4170 F   0  0  0  0  0  0  0  0  0  0  0  0
  191.5100  174.2200  137.3380 C   0  0  0  0  0  1  0  0  0  0  0  0
  190.9850  176.1500  135.8950 C   0  0  0  0  0  1  0  0  0  0  0  0
  191.9380  175.6220  136.9460 C   0  0  0  0  0  0  0  0  0  0  0  0
  1  4  2  0  0  0  0
  2  1  1  0  0  0  0
  2  3  1  0  0  0  0
  3  8  2  0  0  0  0
  4  8  1  0  0  0  0
  5  9  2  0  0  0  0
  6  7  2  0  0  0  0
  7  5  1  0  0  0  0
  8  5  1  0  0  0  0
 10  3  1  0  0  0  0
 10  6  1  0  0  0  0
 11 13  1  0  0  0  0
 11  1  1  0  0  0  0
 12 16  2  0  0  0  0
 12 14  1  0  0  0  0
 14 11  2  0  0  0  0
 15 13  2  0  0  0  0
 16 15  1  0  0  0  0
 17 16  1  0  0  0  0
 18 17  1  0  0  0  0
 19 18  1  0  0  0  0
 19 23  1  0  0  0  0
 20 23  1  0  0  0  0
 21 22  1  0  0  0  0
 21 19  1  0  0  0  0
 22 20  1  0  0  0  0
 25 24  1  0  0  0  0
 26 27  1  0  0  0  0
 27 24  1  6  0  0  0
 27  2  1  0  0  0  0
 28 26  1  0  0  0  0
 29 30  1  6  0  0  0
 29 25  1  0  0  0  0
 29 28  1  0  0  0  0
 31 30  1  0  0  0  0
 32 31  1  0  0  0  0
 33 36  1  0  0  0  0
 35 36  1  0  0  0  0
 36 34  1  0  0  0  0
 36 32  1  0  0  0  0
M  END
>  <MODEL>
6

>  <REMARK>
 VINA RESULT:      -8.2      1.884      2.483
  Name = 
  9 active torsions:
  status: ('A' for Active; 'I' for Inactive)
    1  A    between atoms: C_1  and  C_3
    2  A    between atoms: N_2  and  C_20
    3  A    between atoms: N_4  and  C_10
    4  A    between atoms: N_4  and  C_15
    5  A    between atoms: C_8  and  N_27
    6  A    between atoms: C_8  and  C_33
    7  A    between atoms: C_10  and  C_34
    8  A    between atoms: C_24  and  N_27
    9  A    between atoms: C_24  and  C_36
                            x       y       z     vdW  Elec       q    Type
                         _______ _______ _______ _____ _____    ______ ____

>  <TORSDO>
F 9

$$$$
=
 OpenBabel10232411283D

 36 40  0  0  1  0  0  0  0  0999 V2000
  190.5360  176.8060  139.4210 C   0  0  0  0  0  0  0  0  0  0  0  0
  189.8460  176.7870  138.2460 N   0  0  0  0  0  0  0  0  0  0  0  0
  190.7640  176.5260  137.3010 C   0  0  0  0  0  0  0  0  0  0  0  0
  191.9040  176.5620  139.2100 C   0  0  0  0  0  3  0  0  0  0  0  0
  193.0860  176.1040  137.0220 C   0  0  0  0  0  0  0  0  0  0  0  0
  191.6010  176.0980  135.1590 C   0  0  0  0  0  3  0  0  0  0  0  0
  192.8610  175.9650  135.6840 N   0  0  0  0  0  2  0  0  0  0  0  0
  192.0030  176.3930  137.8430 C   0  0  0  0  0  0  0  0  0  0  0  0
  194.2450  175.9680  137.4930 O   0  0  0  0  0  0  0  0  0  0  0  0
  190.5390  176.3780  135.9710 N   0  0  0  0  0  0  0  0  0  0  0  0
  189.9460  177.0240  140.7640 C   0  0  0  0  0  0  0  0  0  0  0  0
  188.3450  178.1260  142.2290 C   0  0  0  0  0  3  0  0  0  0  0  0
  190.4520  176.3280  141.8720 C   0  0  0  0  0  3  0  0  0  0  0  0
  188.8920  177.9310  140.9580 C   0  0  0  0  0  3  0  0  0  0  0  0
  189.9060  176.5190  143.1450 C   0  0  0  0  0  3  0  0  0  0  0  0
  188.8460  177.4140  143.3220 C   0  0  0  0  0  0  0  0  0  0  0  0
  188.2660  177.6300  144.6750 C   0  0  0  0  0  2  0  0  0  0  0  0
  186.8550  177.2480  144.6780 N   0  0  0  0  0  2  0  0  0  0  0  0
  185.9940  178.4210  144.8630 C   0  0  0  0  0  3  0  0  0  0  0  0
  183.7600  178.9380  145.6000 C   0  0  0  0  0  2  0  0  0  0  0  0
  185.1560  178.7290  143.6270 C   0  0  0  0  0  2  0  0  0  0  0  0
  183.7110  178.7780  144.0950 C   0  0  0  0  0  2  0  0  0  0  0  0
  185.0420  178.2640  146.0390 C   0  0  0  0  0  2  0  0  0  0  0  0
  188.0300  178.1910  137.3350 C   0  0  0  0  0  2  0  0  0  0  0  0
  186.5160  178.2850  137.1660 C   0  0  0  0  0  2  0  0  0  0  0  0
  187.8600  175.6740  137.3140 C   0  0  0  0  0  2  0  0  0  0  0  0
  188.3980  176.8950  138.0610 C   0  0  1  0  0  3  0  0  0  0  0  0
  186.3490  175.7880  137.1450 C   0  0  0  0  0  2  0  0  0  0  0  0
  185.9960  177.0740  136.3960 C   0  0  1  0  0  3  0  0  0  0  0  0
  184.4890  177.1870  136.2330 C   0  0  0  0  0  2  0  0  0  0  0  0
  183.8320  177.0350  137.5210 N   0  0  0  0  0  2  0  0  0  0  0  0
  182.8060  178.0630  137.5990 C   0  0  0  0  0  2  0  0  0  0  0  0
  181.6000  179.4360  139.1250 F   0  0  0  0  0  0  0  0  0  0  0  0
  182.6780  177.5340  140.0370 C   0  0  0  0  0  1  0  0  0  0  0  0
  183.9550  179.4930  139.2540 C   0  0  0  0  0  1  0  0  0  0  0  0
  182.7270  178.6440  139.0040 C   0  0  0  0  0  0  0  0  0  0  0  0
  1 11  1  0  0  0  0
  2  1  1  0  0  0  0
  3  8  2  0  0  0  0
  3  2  1  0  0  0  0
  4  1  2  0  0  0  0
  5  9  2  0  0  0  0
  5  8  1  0  0  0  0
  6  7  1  0  0  0  0
  6 10  2  0  0  0  0
  7  5  1  0  0  0  0
  8  4  1  0  0  0  0
 10  3  1  0  0  0  0
 11 14  2  0  0  0  0
 11 13  1  0  0  0  0
 12 16  2  0  0  0  0
 13 15  2  0  0  0  0
 14 12  1  0  0  0  0
 15 16  1  0  0  0  0
 16 17  1  0  0  0  0
 17 18  1  0  0  0  0
 18 19  1  0  0  0  0
 19 23  1  0  0  0  0
 20 23  1  0  0  0  0
 21 22  1  0  0  0  0
 21 19  1  0  0  0  0
 22 20  1  0  0  0  0
 24 27  1  0  0  0  0
 25 24  1  0  0  0  0
 27 26  1  6  0  0  0
 27  2  1  0  0  0  0
 28 26  1  0  0  0  0
 29 30  1  1  0  0  0
 29 28  1  0  0  0  0
 29 25  1  0  0  0  0
 30 31  1  0  0  0  0
 31 32  1  0  0  0  0
 32 36  1  0  0  0  0
 36 33  1  0  0  0  0
 36 35  1  0  0  0  0
 36 34  1  0  0  0  0
M  END
>  <MODEL>
7

>  <REMARK>
 VINA RESULT:      -7.9      3.158      7.341
  Name = 
  9 active torsions:
  status: ('A' for Active; 'I' for Inactive)
    1  A    between atoms: C_1  and  C_3
    2  A    between atoms: N_2  and  C_20
    3  A    between atoms: N_4  and  C_10
    4  A    between atoms: N_4  and  C_15
    5  A    between atoms: C_8  and  N_27
    6  A    between atoms: C_8  and  C_33
    7  A    between atoms: C_10  and  C_34
    8  A    between atoms: C_24  and  N_27
    9  A    between atoms: C_24  and  C_36
                            x       y       z     vdW  Elec       q    Type
                         _______ _______ _______ _____ _____    ______ ____

>  <TORSDO>
F 9

$$$$
=
 OpenBabel10232411283D

 36 40  0  0  1  0  0  0  0  0999 V2000
  191.1780  176.9170  139.1700 C   0  0  0  0  0  0  0  0  0  0  0  0
  190.3480  176.8050  138.0950 N   0  0  0  0  0  0  0  0  0  0  0  0
  191.1410  176.4440  137.0720 C   0  0  0  0  0  0  0  0  0  0  0  0
  192.5080  176.6340  138.8170 C   0  0  0  0  0  3  0  0  0  0  0  0
  193.4090  175.9610  136.5520 C   0  0  0  0  0  0  0  0  0  0  0  0
  191.7060  175.8120  134.8920 C   0  0  0  0  0  3  0  0  0  0  0  0
  193.0200  175.7060  135.2700 N   0  0  0  0  0  2  0  0  0  0  0  0
  192.4370  176.3400  137.4690 C   0  0  0  0  0  0  0  0  0  0  0  0
  194.6170  175.8490  136.8880 O   0  0  0  0  0  0  0  0  0  0  0  0
  190.7530  176.1810  135.7990 N   0  0  0  0  0  0  0  0  0  0  0  0
  190.7590  177.2660  140.5500 C   0  0  0  0  0  0  0  0  0  0  0  0
  189.0440  177.9140  142.1500 C   0  0  0  0  0  3  0  0  0  0  0  0
  191.7070  177.2890  141.5840 C   0  0  0  0  0  3  0  0  0  0  0  0
  189.4250  177.5890  140.8460 C   0  0  0  0  0  3  0  0  0  0  0  0
  191.3280  177.6120  142.8910 C   0  0  0  0  0  3  0  0  0  0  0  0
  189.9940  177.9180  143.1760 C   0  0  0  0  0  0  0  0  0  0  0  0
  189.5850  178.2710  144.5620 C   0  0  0  0  0  2  0  0  0  0  0  0
  188.2730  177.7000  144.8550 N   0  0  0  0  0  2  0  0  0  0  0  0
  188.2130  177.2010  146.2330 C   0  0  0  0  0  3  0  0  0  0  0  0
  187.8620  178.0500  148.4600 C   0  0  0  0  0  2  0  0  0  0  0  0
  189.5680  177.2530  146.9290 C   0  0  0  0  0  2  0  0  0  0  0  0
  189.3560  178.0390  148.2130 C   0  0  0  0  0  2  0  0  0  0  0  0
  187.2240  177.9770  147.0890 C   0  0  0  0  0  2  0  0  0  0  0  0
  188.4460  178.2460  137.4580 C   0  0  0  0  0  2  0  0  0  0  0  0
  186.9240  178.3450  137.4640 C   0  0  0  0  0  2  0  0  0  0  0  0
  188.2660  175.7320  137.3430 C   0  0  0  0  0  2  0  0  0  0  0  0
  188.8890  176.9190  138.0780 C   0  0  1  0  0  3  0  0  0  0  0  0
  186.7450  175.8510  137.3500 C   0  0  0  0  0  2  0  0  0  0  0  0
  186.3160  177.1690  136.7040 C   0  0  1  0  0  3  0  0  0  0  0  0
  184.8000  177.2880  136.7170 C   0  0  0  0  0  2  0  0  0  0  0  0
  184.3640  178.0100  137.9010 N   0  0  0  0  0  2  0  0  0  0  0  0
  183.3770  177.1740  138.5680 C   0  0  0  0  0  2  0  0  0  0  0  0
  181.7040  177.1830  140.2630 F   0  0  0  0  0  0  0  0  0  0  0  0
  183.8290  178.0390  140.8670 C   0  0  0  0  0  1  0  0  0  0  0  0
  182.3230  179.2680  139.3490 C   0  0  0  0  0  1  0  0  0  0  0  0
  182.7860  177.8910  139.7750 C   0  0  0  0  0  0  0  0  0  0  0  0
  1 11  1  0  0  0  0
  2  1  1  0  0  0  0
  3  8  2  0  0  0  0
  3  2  1  0  0  0  0
  4  1  2  0  0  0  0
  5  9  2  0  0  0  0
  5  8  1  0  0  0  0
  6  7  1  0  0  0  0
  6 10  2  0  0  0  0
  7  5  1  0  0  0  0
  8  4  1  0  0  0  0
 10  3  1  0  0  0  0
 11 14  2  0  0  0  0
 11 13  1  0  0  0  0
 12 16  2  0  0  0  0
 13 15  2  0  0  0  0
 14 12  1  0  0  0  0
 15 16  1  0  0  0  0
 16 17  1  0  0  0  0
 17 18  1  0  0  0  0
 18 19  1  0  0  0  0
 19 21  1  0  0  0  0
 19 23  1  0  0  0  0
 21 22  1  0  0  0  0
 22 20  1  0  0  0  0
 23 20  1  0  0  0  0
 24 25  1  0  0  0  0
 24 27  1  0  0  0  0
 26 28  1  0  0  0  0
 27 26  1  6  0  0  0
 27  2  1  0  0  0  0
 29 30  1  1  0  0  0
 29 28  1  0  0  0  0
 29 25  1  0  0  0  0
 30 31  1  0  0  0  0
 31 32  1  0  0  0  0
 32 36  1  0  0  0  0
 35 36  1  0  0  0  0
 36 33  1  0  0  0  0
 36 34  1  0  0  0  0
M  END
>  <MODEL>
8

>  <REMARK>
 VINA RESULT:      -7.7      3.437      8.331
  Name = 
  9 active torsions:
  status: ('A' for Active; 'I' for Inactive)
    1  A    between atoms: C_1  and  C_3
    2  A    between atoms: N_2  and  C_20
    3  A    between atoms: N_4  and  C_10
    4  A    between atoms: N_4  and  C_15
    5  A    between atoms: C_8  and  N_27
    6  A    between atoms: C_8  and  C_33
    7  A    between atoms: C_10  and  C_34
    8  A    between atoms: C_24  and  N_27
    9  A    between atoms: C_24  and  C_36
                            x       y       z     vdW  Elec       q    Type
                         _______ _______ _______ _____ _____    ______ ____

>  <TORSDO>
F 9

$$$$
=
 OpenBabel10232411283D

 36 40  0  0  1  0  0  0  0  0999 V2000
  188.6890  177.6720  143.9750 C   0  0  0  0  0  0  0  0  0  0  0  0
  187.5440  178.0520  144.6090 N   0  0  0  0  0  0  0  0  0  0  0  0
  187.8100  177.9300  145.9200 C   0  0  0  0  0  0  0  0  0  0  0  0
  189.6810  177.2990  144.8970 C   0  0  0  0  0  3  0  0  0  0  0  0
  189.5420  177.3010  147.4220 C   0  0  0  0  0  0  0  0  0  0  0  0
  187.4290  178.0550  148.2250 C   0  0  0  0  0  3  0  0  0  0  0  0
  188.6990  177.5930  148.4540 N   0  0  0  0  0  0  0  0  0  0  0  0
  189.0750  177.4770  146.1250 C   0  0  0  0  0  0  0  0  0  0  0  0
  190.7090  176.8890  147.6460 O   0  0  0  0  0  0  0  0  0  0  0  0
  186.9760  178.2300  146.9480 N   0  0  0  0  0  2  0  0  0  0  0  0
  188.9000  177.6670  142.5060 C   0  0  0  0  0  0  0  0  0  0  0  0
  188.5530  178.6470  140.3060 C   0  0  0  0  0  3  0  0  0  0  0  0
  189.6550  176.6450  141.9110 C   0  0  0  0  0  3  0  0  0  0  0  0
  188.3460  178.6640  141.6870 C   0  0  0  0  0  3  0  0  0  0  0  0
  189.8660  176.6270  140.5290 C   0  0  0  0  0  3  0  0  0  0  0  0
  189.3210  177.6330  139.7260 C   0  0  0  0  0  0  0  0  0  0  0  0
  189.5330  177.6160  138.2540 C   0  0  0  0  0  2  0  0  0  0  0  0
  189.2530  176.2820  137.7260 N   0  0  0  0  0  2  0  0  0  0  0  0
  190.4100  175.7530  136.9970 C   0  0  0  0  0  3  0  0  0  0  0  0
  192.1920  174.1650  137.3200 C   0  0  0  0  0  2  0  0  0  0  0  0
  191.6860  176.5380  137.2800 C   0  0  0  0  0  2  0  0  0  0  0  0
  192.7150  175.5210  137.7460 C   0  0  0  0  0  2  0  0  0  0  0  0
  190.6840  174.2920  137.3220 C   0  0  0  0  0  2  0  0  0  0  0  0
  185.7400  177.6350  142.9760 C   0  0  0  0  0  2  0  0  0  0  0  0
  184.4830  178.2370  142.3520 C   0  0  0  0  0  2  0  0  0  0  0  0
  185.3050  178.9520  145.0840 C   0  0  0  0  0  2  0  0  0  0  0  0
  186.3300  178.6020  144.0050 C   0  0  1  0  0  3  0  0  0  0  0  0
  184.0530  179.5420  144.4440 C   0  0  0  0  0  2  0  0  0  0  0  0
  183.4580  178.5560  143.4370 C   0  0  1  0  0  3  0  0  0  0  0  0
  182.2130  179.1500  142.7980 C   0  0  0  0  0  2  0  0  0  0  0  0
  181.8680  178.4120  141.5940 N   0  0  0  0  0  2  0  0  0  0  0  0
  181.4330  179.3890  140.6060 C   0  0  0  0  0  2  0  0  0  0  0  0
  183.5200  179.8890  139.5760 F   0  0  0  0  0  0  0  0  0  0  0  0
  182.4810  177.8600  138.9330 C   0  0  0  0  0  1  0  0  0  0  0  0
  181.5890  180.0490  138.2310 C   0  0  0  0  0  1  0  0  0  0  0  0
  182.2880  179.3060  139.3490 C   0  0  0  0  0  0  0  0  0  0  0  0
  1  2  1  0  0  0  0
  1  4  2  0  0  0  0
  2  3  1  0  0  0  0
  3  8  2  0  0  0  0
  3 10  1  0  0  0  0
  4  8  1  0  0  0  0
  5  9  2  0  0  0  0
  5  7  1  0  0  0  0
  6  7  2  0  0  0  0
  8  5  1  0  0  0  0
 10  6  1  0  0  0  0
 11  1  1  0  0  0  0
 12 14  1  0  0  0  0
 13 11  1  0  0  0  0
 14 11  2  0  0  0  0
 15 13  2  0  0  0  0
 16 12  2  0  0  0  0
 16 15  1  0  0  0  0
 17 16  1  0  0  0  0
 18 17  1  0  0  0  0
 19 21  1  0  0  0  0
 19 23  1  0  0  0  0
 19 18  1  0  0  0  0
 20 23  1  0  0  0  0
 20 22  1  0  0  0  0
 21 22  1  0  0  0  0
 25 24  1  0  0  0  0
 25 29  1  0  0  0  0
 27 24  1  6  0  0  0
 27  2  1  0  0  0  0
 27 26  1  0  0  0  0
 28 26  1  0  0  0  0
 29 30  1  6  0  0  0
 29 28  1  0  0  0  0
 31 30  1  0  0  0  0
 32 31  1  0  0  0  0
 34 36  1  0  0  0  0
 35 36  1  0  0  0  0
 36 33  1  0  0  0  0
 36 32  1  0  0  0  0
M  END
>  <MODEL>
9

>  <REMARK>
 VINA RESULT:      -7.7      1.903      6.388
  Name = 
  9 active torsions:
  status: ('A' for Active; 'I' for Inactive)
    1  A    between atoms: C_1  and  C_3
    2  A    between atoms: N_2  and  C_20
    3  A    between atoms: N_4  and  C_10
    4  A    between atoms: N_4  and  C_15
    5  A    between atoms: C_8  and  N_27
    6  A    between atoms: C_8  and  C_33
    7  A    between atoms: C_10  and  C_34
    8  A    between atoms: C_24  and  N_27
    9  A    between atoms: C_24  and  C_36
                            x       y       z     vdW  Elec       q    Type
                         _______ _______ _______ _____ _____    ______ ____

>  <TORSDO>
F 9

$$$$
