=
 OpenBabel10232410453D

 56 63  0  0  1  0  0  0  0  0999 V2000
  188.3360  176.6780  138.5480 C   0  0  0  0  0  3  0  0  0  0  0  0
  185.8570  178.5100  138.0840 S   0  0  0  0  0  0  0  0  0  0  0  0
  190.8980  175.3760  137.3440 C   0  0  0  0  0  0  0  0  0  0  0  0
  186.5470  176.1100  136.8960 C   0  0  0  0  0  0  0  0  0  0  0  0
  189.7870  174.5690  136.7790 C   0  0  0  0  0  3  0  0  0  0  0  0
  187.8660  175.9890  137.5080 C   0  0  0  0  0  0  0  0  0  0  0  0
  184.2980  177.0210  136.4490 C   0  0  0  0  0  2  0  0  0  0  0  0
  185.6440  177.0920  137.0510 C   0  0  0  0  0  0  0  0  0  0  0  0
  188.4750  174.8000  136.9130 C   0  0  0  0  0  0  0  0  0  0  0  0
  186.3050  174.9820  136.0570 N   0  0  0  0  0  2  0  0  0  0  0  0
  189.5640  176.2620  139.2880 C   0  0  0  0  0  2  0  0  0  0  0  0
  190.7790  176.1640  138.4200 C   0  0  0  0  0  3  0  0  0  0  0  0
  187.4480  174.0680  136.0950 C   0  0  2  0  0  3  0  0  0  0  0  0
  184.0650  178.4400  138.3830 C   0  0  1  0  0  3  0  0  0  0  0  0
  183.3530  177.7280  137.3110 N   0  0  0  0  0  2  0  0  0  0  0  0
  193.9970  174.0620  135.5920 C   0  0  0  0  0  3  0  0  0  0  0  0
  192.2030  175.3080  136.6570 C   0  0  0  0  0  0  0  0  0  0  0  0
  194.1680  176.4660  135.8100 C   0  0  0  0  0  0  0  0  0  0  0  0
  192.7550  174.0820  136.2310 C   0  0  0  0  0  0  0  0  0  0  0  0
  192.0810  172.8820  136.4320 O   0  0  0  0  0  1  0  0  0  0  0  0
  194.7060  175.2450  135.3740 C   0  0  0  0  0  0  0  0  0  0  0  0
  192.9230  176.4910  136.4420 C   0  0  0  0  0  3  0  0  0  0  0  0
  194.8620  177.6190  135.6600 F   0  0  0  0  0  0  0  0  0  0  0  0
  196.0510  175.1690  134.7160 C   0  0  0  0  0  2  0  0  0  0  0  0
  196.9880  174.6060  136.7860 C   0  0  0  0  0  2  0  0  0  0  0  0
  199.2160  174.3960  135.9900 C   0  0  0  0  0  2  0  0  0  0  0  0
  198.3970  175.2030  135.0130 C   0  0  0  0  0  2  0  0  0  0  0  0
  198.1820  173.6730  136.7980 C   0  0  0  0  0  2  0  0  0  0  0  0
  197.1190  175.5130  135.6490 N   0  0  0  0  0  0  0  0  0  0  0  0
  183.7620  177.8440  139.7570 C   0  0  2  0  0  3  0  0  0  0  0  0
  183.0920  176.6230  139.6390 O   0  0  0  0  0  1  0  0  0  0  0  0
  182.9530  178.7760  140.5320 N   0  0  0  0  0  2  0  0  0  0  0  0
  184.9700  178.0620  143.4620 C   0  0  2  0  0  3  0  0  0  0  0  0
  182.9280  179.2850  142.9520 C   0  0  1  0  0  3  0  0  0  0  0  0
  183.9250  178.9980  144.0540 C   0  0  0  0  0  2  0  0  0  0  0  0
  183.7560  179.1820  141.6780 C   0  0  1  0  0  3  0  0  0  0  0  0
  186.0000  178.8560  142.6770 C   0  0  2  0  0  3  0  0  0  0  0  0
  181.9340  178.2970  142.9750 O   0  0  0  0  0  1  0  0  0  0  0  0
  184.8520  178.1710  141.9530 C   0  0  1  0  0  3  0  0  0  0  0  0
  187.4910  176.9300  143.3390 N   0  0  0  0  0  2  0  0  0  0  0  0
  188.6710  176.0940  143.1910 C   0  0  0  0  0  1  0  0  0  0  0  0
  188.0630  178.3580  141.5810 O   0  0  0  0  0  0  0  0  0  0  0  0
  187.2520  178.0610  142.4990 C   0  0  0  0  0  0  0  0  0  0  0  0
  187.9440  171.6030  136.3460 C   0  0  0  0  0  1  0  0  0  0  0  0
  187.0330  172.7470  136.7580 C   0  0  2  0  0  3  0  0  0  0  0  0
  184.6450  172.5550  137.2390 N   0  0  0  0  0  0  0  0  0  0  0  0
  183.4200  172.0020  136.6720 C   0  0  2  0  0  3  0  0  0  0  0  0
  185.2810  171.7320  135.1850 N   0  0  0  0  0  2  0  0  0  0  0  0
  185.6260  172.3870  136.4050 C   0  0  0  0  0  0  0  0  0  0  0  0
  183.8940  171.5070  135.3510 C   0  0  0  0  0  0  0  0  0  0  0  0
  183.1840  170.9090  134.5000 O   0  0  0  0  0  0  0  0  0  0  0  0
  182.6360  174.1390  137.3920 O   0  0  0  0  0  1  0  0  0  0  0  0
  182.2960  173.0490  136.5840 C   0  0  2  0  0  3  0  0  0  0  0  0
  180.2110  171.9200  135.7600 C   0  0  0  0  0  1  0  0  0  0  0  0
  180.9040  172.5230  136.9720 C   0  0  1  0  0  3  0  0  0  0  0  0
  181.0070  171.5440  137.9630 O   0  0  0  0  0  1  0  0  0  0  0  0
  1 11  1  0  0  0  0
  2 14  1  0  0  0  0
  3 12  2  0  0  0  0
  4  8  2  0  0  0  0
  4  6  1  0  0  0  0
  5  9  2  0  0  0  0
  5  3  1  0  0  0  0
  6  1  2  0  0  0  0
  7  8  1  0  0  0  0
  7 15  1  0  0  0  0
  8  2  1  0  0  0  0
  9  6  1  0  0  0  0
 10 13  1  0  0  0  0
 10  4  1  0  0  0  0
 12 11  1  0  0  0  0
 13 45  1  1  0  0  0
 13  9  1  0  0  0  0
 14 30  1  1  0  0  0
 15 14  1  0  0  0  0
 16 19  1  0  0  0  0
 17  3  1  0  0  0  0
 18 22  2  0  0  0  0
 19 20  1  0  0  0  0
 19 17  2  0  0  0  0
 21 16  2  0  0  0  0
 21 18  1  0  0  0  0
 22 17  1  0  0  0  0
 23 18  1  0  0  0  0
 24 21  1  0  0  0  0
 24 29  1  0  0  0  0
 25 28  1  0  0  0  0
 26 28  1  0  0  0  0
 27 29  1  0  0  0  0
 27 26  1  0  0  0  0
 29 25  1  0  0  0  0
 30 31  1  6  0  0  0
 30 32  1  0  0  0  0
 33 35  1  1  0  0  0
 34 38  1  6  0  0  0
 34 35  1  0  0  0  0
 36 32  1  6  0  0  0
 36 39  1  0  0  0  0
 36 34  1  0  0  0  0
 37 43  1  6  0  0  0
 37 33  1  0  0  0  0
 39 37  1  0  0  0  0
 39 33  1  0  0  0  0
 41 40  1  0  0  0  0
 42 43  2  0  0  0  0
 43 40  1  0  0  0  0
 44 45  1  0  0  0  0
 47 46  1  0  0  0  0
 48 50  1  0  0  0  0
 48 49  1  0  0  0  0
 49 45  1  0  0  0  0
 49 46  2  0  0  0  0
 50 47  1  0  0  0  0
 51 50  2  0  0  0  0
 53 47  1  0  0  0  0
 53 55  1  0  0  0  0
 53 52  1  0  0  0  0
 54 55  1  0  0  0  0
 55 56  1  0  0  0  0
M  END
>  <MODEL>
1

>  <REMARK>
 VINA RESULT:      -6.9      0.000      0.000
  Name = 
  11 active torsions:
  status: ('A' for Active; 'I' for Inactive)
    1  A    between atoms: C_4  and  C_41
    2  A    between atoms: C_4  and  N_56
    3  A    between atoms: C_7  and  C_22
    4  A    between atoms: C_9  and  C_47
    5  A    between atoms: C_9  and  N_48
    6  A    between atoms: C_10  and  C_32
    7  A    between atoms: C_23  and  N_48
    8  A    between atoms: C_29  and  C_32
    9  A    between atoms: C_31  and  C_37
   10  A    between atoms: C_37  and  C_45
   11  A    between atoms: C_39  and  C_52
                            x       y       z     vdW  Elec       q    Type
                         _______ _______ _______ _____ _____    ______ ____

>  <TORSDO>
F 11

$$$$
=
 OpenBabel10232410453D

 56 63  0  0  1  0  0  0  0  0999 V2000
  188.4290  176.1530  134.9900 C   0  0  0  0  0  3  0  0  0  0  0  0
  185.7150  174.6210  134.9750 S   0  0  0  0  0  0  0  0  0  0  0  0
  191.4800  176.0810  135.6190 C   0  0  0  0  0  0  0  0  0  0  0  0
  187.3680  175.2970  137.0860 C   0  0  0  0  0  0  0  0  0  0  0  0
  190.8410  176.1940  136.9550 C   0  0  0  0  0  3  0  0  0  0  0  0
  188.4650  175.8270  136.2820 C   0  0  0  0  0  0  0  0  0  0  0  0
  185.1380  174.3800  137.6080 C   0  0  0  0  0  2  0  0  0  0  0  0
  186.2040  174.7760  136.6660 C   0  0  0  0  0  0  0  0  0  0  0  0
  189.5310  176.1550  137.2270 C   0  0  0  0  0  0  0  0  0  0  0  0
  187.6960  175.4090  138.4710 N   0  0  0  0  0  2  0  0  0  0  0  0
  189.4980  176.9750  134.3470 C   0  0  0  0  0  2  0  0  0  0  0  0
  190.8630  176.3750  134.4670 C   0  0  0  0  0  3  0  0  0  0  0  0
  189.0110  176.0290  138.6320 C   0  0  2  0  0  3  0  0  0  0  0  0
  184.0120  174.9070  135.5430 C   0  0  1  0  0  3  0  0  0  0  0  0
  183.8390  174.5730  136.9650 N   0  0  0  0  0  2  0  0  0  0  0  0
  194.5170  173.8060  135.5810 C   0  0  0  0  0  3  0  0  0  0  0  0
  192.8740  175.5960  135.5730 C   0  0  0  0  0  0  0  0  0  0  0  0
  195.2500  176.1100  135.4770 C   0  0  0  0  0  0  0  0  0  0  0  0
  193.1840  174.2220  135.6180 C   0  0  0  0  0  0  0  0  0  0  0  0
  192.1810  173.2610  135.6960 O   0  0  0  0  0  1  0  0  0  0  0  0
  195.5530  174.7400  135.5070 C   0  0  0  0  0  0  0  0  0  0  0  0
  193.9180  176.5290  135.5060 C   0  0  0  0  0  3  0  0  0  0  0  0
  196.2390  177.0370  135.4610 F   0  0  0  0  0  0  0  0  0  0  0  0
  196.9690  174.2490  135.5040 C   0  0  0  0  0  2  0  0  0  0  0  0
  198.3870  172.6910  136.5240 C   0  0  0  0  0  2  0  0  0  0  0  0
  199.2140  174.1730  138.1860 C   0  0  0  0  0  2  0  0  0  0  0  0
  197.9220  174.7070  137.6190 C   0  0  0  0  0  2  0  0  0  0  0  0
  199.6740  173.1960  137.1460 C   0  0  0  0  0  2  0  0  0  0  0  0
  197.3290  173.6610  136.7910 N   0  0  0  0  0  0  0  0  0  0  0  0
  183.5670  176.3360  135.2390 C   0  0  2  0  0  3  0  0  0  0  0  0
  184.5750  177.2540  135.5480 O   0  0  0  0  0  1  0  0  0  0  0  0
  182.3650  176.6510  136.0010 N   0  0  0  0  0  2  0  0  0  0  0  0
  182.1560  179.0730  138.6950 C   0  0  2  0  0  3  0  0  0  0  0  0
  181.3030  178.8440  136.4270 C   0  0  1  0  0  3  0  0  0  0  0  0
  181.4010  179.8040  137.5930 C   0  0  0  0  0  2  0  0  0  0  0  0
  182.5540  177.9850  136.5570 C   0  0  1  0  0  3  0  0  0  0  0  0
  183.6520  179.1520  138.4470 C   0  0  2  0  0  3  0  0  0  0  0  0
  180.1500  178.0630  136.5820 O   0  0  0  0  0  1  0  0  0  0  0  0
  182.8770  177.9100  138.0370 C   0  0  1  0  0  3  0  0  0  0  0  0
  183.6940  178.6970  140.9300 N   0  0  0  0  0  2  0  0  0  0  0  0
  184.3680  178.3910  142.1800 C   0  0  0  0  0  1  0  0  0  0  0  0
  185.6630  178.7590  139.6740 O   0  0  0  0  0  0  0  0  0  0  0  0
  184.4090  178.8790  139.7050 C   0  0  0  0  0  0  0  0  0  0  0  0
  189.5520  178.4940  138.5090 C   0  0  0  0  0  1  0  0  0  0  0  0
  188.8590  177.4000  139.3040 C   0  0  2  0  0  3  0  0  0  0  0  0
  188.7300  177.7700  141.7160 N   0  0  0  0  0  0  0  0  0  0  0  0
  189.5750  177.7670  142.9060 C   0  0  2  0  0  3  0  0  0  0  0  0
  190.7870  177.0650  140.9610 N   0  0  0  0  0  2  0  0  0  0  0  0
  189.4240  177.3870  140.6890 C   0  0  0  0  0  0  0  0  0  0  0  0
  190.8720  177.2910  142.3550 C   0  0  0  0  0  0  0  0  0  0  0  0
  191.9370  177.1550  143.0140 O   0  0  0  0  0  0  0  0  0  0  0  0
  188.1930  175.8970  143.4440 O   0  0  0  0  0  1  0  0  0  0  0  0
  189.0020  176.8780  144.0240 C   0  0  2  0  0  3  0  0  0  0  0  0
  186.7200  177.3980  144.9310 C   0  0  0  0  0  1  0  0  0  0  0  0
  188.2120  177.6400  145.1010 C   0  0  1  0  0  3  0  0  0  0  0  0
  188.5920  177.2190  146.3780 O   0  0  0  0  0  1  0  0  0  0  0  0
  1  6  2  0  0  0  0
  2 14  1  0  0  0  0
  2  8  1  0  0  0  0
  3  5  1  0  0  0  0
  4 10  1  0  0  0  0
  5  9  2  0  0  0  0
  6  4  1  0  0  0  0
  6  9  1  0  0  0  0
  8  4  2  0  0  0  0
  8  7  1  0  0  0  0
  9 13  1  0  0  0  0
 10 13  1  0  0  0  0
 11 12  1  0  0  0  0
 11  1  1  0  0  0  0
 12  3  2  0  0  0  0
 13 45  1  6  0  0  0
 14 30  1  1  0  0  0
 14 15  1  0  0  0  0
 15  7  1  0  0  0  0
 16 19  1  0  0  0  0
 17 19  2  0  0  0  0
 17  3  1  0  0  0  0
 18 22  2  0  0  0  0
 18 21  1  0  0  0  0
 19 20  1  0  0  0  0
 21 16  2  0  0  0  0
 22 17  1  0  0  0  0
 23 18  1  0  0  0  0
 24 21  1  0  0  0  0
 24 29  1  0  0  0  0
 25 29  1  0  0  0  0
 25 28  1  0  0  0  0
 27 26  1  0  0  0  0
 28 26  1  0  0  0  0
 29 27  1  0  0  0  0
 30 31  1  1  0  0  0
 30 32  1  0  0  0  0
 33 35  1  6  0  0  0
 34 36  1  0  0  0  0
 34 38  1  1  0  0  0
 34 35  1  0  0  0  0
 36 32  1  1  0  0  0
 36 39  1  0  0  0  0
 37 33  1  0  0  0  0
 37 43  1  1  0  0  0
 39 37  1  0  0  0  0
 39 33  1  0  0  0  0
 40 41  1  0  0  0  0
 42 43  2  0  0  0  0
 43 40  1  0  0  0  0
 44 45  1  0  0  0  0
 45 49  1  0  0  0  0
 46 47  1  0  0  0  0
 47 53  1  0  0  0  0
 48 50  1  0  0  0  0
 49 48  1  0  0  0  0
 49 46  2  0  0  0  0
 50 47  1  0  0  0  0
 50 51  2  0  0  0  0
 52 53  1  0  0  0  0
 53 55  1  0  0  0  0
 54 55  1  0  0  0  0
 55 56  1  0  0  0  0
M  END
>  <MODEL>
2

>  <REMARK>
 VINA RESULT:      -6.8      2.577      5.912
  Name = 
  11 active torsions:
  status: ('A' for Active; 'I' for Inactive)
    1  A    between atoms: C_4  and  C_41
    2  A    between atoms: C_4  and  N_56
    3  A    between atoms: C_7  and  C_22
    4  A    between atoms: C_9  and  C_47
    5  A    between atoms: C_9  and  N_48
    6  A    between atoms: C_10  and  C_32
    7  A    between atoms: C_23  and  N_48
    8  A    between atoms: C_29  and  C_32
    9  A    between atoms: C_31  and  C_37
   10  A    between atoms: C_37  and  C_45
   11  A    between atoms: C_39  and  C_52
                            x       y       z     vdW  Elec       q    Type
                         _______ _______ _______ _____ _____    ______ ____

>  <TORSDO>
F 11

$$$$
=
 OpenBabel10232410453D

 56 63  0  0  1  0  0  0  0  0999 V2000
  192.9220  175.0560  137.5610 C   0  0  0  0  0  3  0  0  0  0  0  0
  194.1590  172.2520  136.9940 S   0  0  0  0  0  0  0  0  0  0  0  0
  190.6770  176.6980  138.9670 C   0  0  0  0  0  0  0  0  0  0  0  0
  191.6740  173.2700  136.3350 C   0  0  0  0  0  0  0  0  0  0  0  0
  189.9950  176.0840  137.8000 C   0  0  0  0  0  3  0  0  0  0  0  0
  191.8030  174.5250  137.0670 C   0  0  0  0  0  0  0  0  0  0  0  0
  192.3340  171.1010  135.3620 C   0  0  0  0  0  2  0  0  0  0  0  0
  192.5630  172.2680  136.2360 C   0  0  1  0  0  3  0  0  0  0  0  0
  190.5110  175.1970  136.9400 C   0  0  0  0  0  0  0  0  0  0  0  0
  190.4050  173.2270  135.6830 N   0  0  0  0  0  0  0  0  0  0  0  0
  192.9970  176.4790  138.0090 C   0  0  0  0  0  2  0  0  0  0  0  0
  192.0070  176.8200  139.0780 C   0  0  0  0  0  3  0  0  0  0  0  0
  189.6570  174.4560  135.9480 C   0  0  2  0  0  3  0  0  0  0  0  0
  194.7280  171.3060  135.5490 C   0  0  1  0  0  3  0  0  0  0  0  0
  193.6220  170.6130  134.8710 N   0  0  0  0  0  2  0  0  0  0  0  0
  188.1550  178.6960  140.9770 C   0  0  0  0  0  3  0  0  0  0  0  0
  189.8270  177.1830  140.0720 C   0  0  0  0  0  0  0  0  0  0  0  0
  189.1500  177.0120  142.4020 C   0  0  0  0  0  0  0  0  0  0  0  0
  188.9350  178.2620  139.9030 C   0  0  0  0  0  0  0  0  0  0  0  0
  188.8120  178.9070  138.6770 O   0  0  0  0  0  1  0  0  0  0  0  0
  188.2520  178.0760  142.2250 C   0  0  0  0  0  0  0  0  0  0  0  0
  189.9260  176.5700  141.3280 C   0  0  0  0  0  3  0  0  0  0  0  0
  189.3020  176.4310  143.6170 F   0  0  0  0  0  0  0  0  0  0  0  0
  187.4200  178.5990  143.3570 C   0  0  0  0  0  2  0  0  0  0  0  0
  185.9980  177.6550  144.9600 C   0  0  0  0  0  2  0  0  0  0  0  0
  183.9980  178.5930  144.0870 C   0  0  0  0  0  2  0  0  0  0  0  0
  185.0770  178.6140  143.0320 C   0  0  0  0  0  2  0  0  0  0  0  0
  184.7630  178.4340  145.3660 C   0  0  0  0  0  2  0  0  0  0  0  0
  186.1980  177.8170  143.5230 N   0  0  0  0  0  0  0  0  0  0  0  0
  195.5130  172.1960  134.5870 C   0  0  2  0  0  3  0  0  0  0  0  0
  196.8900  172.0070  134.7350 O   0  0  0  0  0  1  0  0  0  0  0  0
  195.1810  173.5950  134.8260 N   0  0  0  0  0  2  0  0  0  0  0  0
  197.7170  175.7620  136.2540 C   0  0  2  0  0  3  0  0  0  0  0  0
  196.2050  175.7940  134.3460 C   0  0  1  0  0  3  0  0  0  0  0  0
  197.3580  176.5330  134.9910 C   0  0  0  0  0  2  0  0  0  0  0  0
  196.4290  174.3450  134.7560 C   0  0  1  0  0  3  0  0  0  0  0  0
  198.6080  174.5810  135.9120 C   0  0  2  0  0  3  0  0  0  0  0  0
  195.0040  176.2780  134.8820 O   0  0  0  0  0  1  0  0  0  0  0  0
  197.1140  174.3760  136.1080 C   0  0  1  0  0  3  0  0  0  0  0  0
  199.5490  175.0080  138.2150 N   0  0  0  0  0  2  0  0  0  0  0  0
  200.2230  174.5990  139.4350 C   0  0  0  0  0  1  0  0  0  0  0  0
  199.7320  172.9120  137.1990 O   0  0  0  0  0  0  0  0  0  0  0  0
  199.3430  174.1090  137.1230 C   0  0  0  0  0  0  0  0  0  0  0  0
  190.6940  176.1220  134.3570 C   0  0  0  0  0  1  0  0  0  0  0  0
  189.4840  175.2490  134.6460 C   0  0  2  0  0  3  0  0  0  0  0  0
  187.0710  175.6260  134.7160 N   0  0  0  0  0  0  0  0  0  0  0  0
  186.0940  176.7080  134.6470 C   0  0  2  0  0  3  0  0  0  0  0  0
  188.3410  177.5440  134.6330 N   0  0  0  0  0  2  0  0  0  0  0  0
  188.2710  176.1210  134.7040 C   0  0  0  0  0  0  0  0  0  0  0  0
  186.9730  177.9070  134.6130 C   0  0  0  0  0  0  0  0  0  0  0  0
  186.5760  179.0990  134.5200 O   0  0  0  0  0  0  0  0  0  0  0  0
  185.8210  176.3530  136.9920 O   0  0  0  0  0  1  0  0  0  0  0  0
  185.1130  176.6800  135.8320 C   0  0  2  0  0  3  0  0  0  0  0  0
  183.1330  175.6130  136.9470 C   0  0  0  0  0  1  0  0  0  0  0  0
  183.9260  175.7190  135.6530 C   0  0  1  0  0  3  0  0  0  0  0  0
  183.0750  176.1730  134.6430 O   0  0  0  0  0  1  0  0  0  0  0  0
  1 11  1  0  0  0  0
  3 12  2  0  0  0  0
  3 17  1  0  0  0  0
  4  6  1  0  0  0  0
  5  3  1  0  0  0  0
  6  1  2  0  0  0  0
  7  8  1  0  0  0  0
  8  4  1  6  0  0  0
  8  2  1  0  0  0  0
  9  6  1  0  0  0  0
  9  5  2  0  0  0  0
 10 13  1  0  0  0  0
 10  4  2  0  0  0  0
 11 12  1  0  0  0  0
 13 45  1  6  0  0  0
 13  9  1  0  0  0  0
 14 30  1  6  0  0  0
 14  2  1  0  0  0  0
 15  7  1  0  0  0  0
 15 14  1  0  0  0  0
 16 21  1  0  0  0  0
 17 22  2  0  0  0  0
 18 23  1  0  0  0  0
 19 17  1  0  0  0  0
 19 16  2  0  0  0  0
 20 19  1  0  0  0  0
 21 18  2  0  0  0  0
 21 24  1  0  0  0  0
 22 18  1  0  0  0  0
 24 29  1  0  0  0  0
 25 28  1  0  0  0  0
 26 28  1  0  0  0  0
 27 29  1  0  0  0  0
 27 26  1  0  0  0  0
 29 25  1  0  0  0  0
 30 31  1  1  0  0  0
 30 32  1  0  0  0  0
 33 35  1  6  0  0  0
 34 36  1  0  0  0  0
 34 38  1  1  0  0  0
 34 35  1  0  0  0  0
 36 32  1  1  0  0  0
 36 39  1  0  0  0  0
 37 39  1  0  0  0  0
 37 33  1  0  0  0  0
 37 43  1  1  0  0  0
 39 33  1  0  0  0  0
 40 41  1  0  0  0  0
 43 42  2  0  0  0  0
 43 40  1  0  0  0  0
 44 45  1  0  0  0  0
 45 49  1  0  0  0  0
 47 46  1  0  0  0  0
 47 53  1  0  0  0  0
 48 49  1  0  0  0  0
 49 46  2  0  0  0  0
 50 48  1  0  0  0  0
 50 47  1  0  0  0  0
 51 50  2  0  0  0  0
 53 52  1  0  0  0  0
 55 53  1  0  0  0  0
 55 54  1  0  0  0  0
 56 55  1  0  0  0  0
M  END
>  <MODEL>
3

>  <REMARK>
 VINA RESULT:      -6.7      3.488     10.384
  Name = 
  11 active torsions:
  status: ('A' for Active; 'I' for Inactive)
    1  A    between atoms: C_4  and  C_41
    2  A    between atoms: C_4  and  N_56
    3  A    between atoms: C_7  and  C_22
    4  A    between atoms: C_9  and  C_47
    5  A    between atoms: C_9  and  N_48
    6  A    between atoms: C_10  and  C_32
    7  A    between atoms: C_23  and  N_48
    8  A    between atoms: C_29  and  C_32
    9  A    between atoms: C_31  and  C_37
   10  A    between atoms: C_37  and  C_45
   11  A    between atoms: C_39  and  C_52
                            x       y       z     vdW  Elec       q    Type
                         _______ _______ _______ _____ _____    ______ ____

>  <TORSDO>
F 11

$$$$
=
 OpenBabel10232410453D

 56 63  0  0  1  0  0  0  0  0999 V2000
  189.6840  173.7030  136.2820 C   0  0  0  0  0  3  0  0  0  0  0  0
  192.1260  173.7430  134.3460 S   0  0  0  0  0  0  0  0  0  0  0  0
  186.8600  174.8280  136.9670 C   0  0  0  0  0  0  0  0  0  0  0  0
  191.0710  175.7520  135.9270 C   0  0  0  0  0  0  0  0  0  0  0  0
  187.7870  175.9180  137.3640 C   0  0  0  0  0  3  0  0  0  0  0  0
  189.8950  175.0150  136.3780 C   0  0  0  0  0  0  0  0  0  0  0  0
  193.2370  176.1650  134.8200 C   0  0  0  0  0  2  0  0  0  0  0  0
  192.0440  175.3400  135.0980 C   0  0  0  0  0  0  0  0  0  0  0  0
  189.1110  175.9610  137.1690 C   0  0  0  0  0  0  0  0  0  0  0  0
  191.0730  177.0520  136.5150 N   0  0  0  0  0  2  0  0  0  0  0  0
  188.6050  173.0120  137.0490 C   0  0  0  0  0  2  0  0  0  0  0  0
  187.2380  173.5570  136.7770 C   0  0  0  0  0  3  0  0  0  0  0  0
  189.9090  177.2170  137.3850 C   0  0  2  0  0  3  0  0  0  0  0  0
  193.9350  173.8840  134.4730 C   0  0  1  0  0  3  0  0  0  0  0  0
  194.3760  175.2840  134.5640 N   0  0  0  0  0  2  0  0  0  0  0  0
  183.6740  176.2560  135.4820 C   0  0  0  0  0  3  0  0  0  0  0  0
  185.4430  175.1840  136.7570 C   0  0  0  0  0  0  0  0  0  0  0  0
  183.1450  175.1220  137.5530 C   0  0  0  0  0  0  0  0  0  0  0  0
  185.0240  175.9320  135.6380 C   0  0  0  0  0  0  0  0  0  0  0  0
  185.9340  176.3540  134.6740 O   0  0  0  0  0  1  0  0  0  0  0  0
  182.7300  175.8530  136.4290 C   0  0  0  0  0  0  0  0  0  0  0  0
  184.4930  174.7890  137.7080 C   0  0  0  0  0  3  0  0  0  0  0  0
  182.2570  174.7680  138.5130 F   0  0  0  0  0  0  0  0  0  0  0  0
  181.2990  176.2530  136.2360 C   0  0  0  0  0  2  0  0  0  0  0  0
  180.1560  177.4530  137.8900 C   0  0  0  0  0  2  0  0  0  0  0  0
  182.0450  178.6790  138.6440 C   0  0  0  0  0  2  0  0  0  0  0  0
  182.3090  178.1280  137.2640 C   0  0  0  0  0  2  0  0  0  0  0  0
  180.9130  177.8360  139.1460 C   0  0  0  0  0  2  0  0  0  0  0  0
  181.0510  177.5990  136.7460 N   0  0  0  0  0  0  0  0  0  0  0  0
  194.4680  173.0460  135.6340 C   0  0  2  0  0  3  0  0  0  0  0  0
  193.4300  172.6290  136.4730 O   0  0  0  0  0  1  0  0  0  0  0  0
  195.4360  173.8220  136.3980 N   0  0  0  0  0  2  0  0  0  0  0  0
  198.9020  172.9520  137.0310 C   0  0  2  0  0  3  0  0  0  0  0  0
  197.6820  174.5680  135.6800 C   0  0  1  0  0  3  0  0  0  0  0  0
  199.0650  174.0190  135.9580 C   0  0  0  0  0  2  0  0  0  0  0  0
  196.7600  173.3910  135.9670 C   0  0  1  0  0  3  0  0  0  0  0  0
  198.4590  171.6410  136.4050 C   0  0  2  0  0  3  0  0  0  0  0  0
  197.4280  175.6210  136.5690 O   0  0  0  0  0  1  0  0  0  0  0  0
  197.4340  172.5640  137.0440 C   0  0  1  0  0  3  0  0  0  0  0  0
  197.7770  169.4570  137.4710 N   0  0  0  0  0  2  0  0  0  0  0  0
  198.0120  168.2990  138.3170 C   0  0  0  0  0  1  0  0  0  0  0  0
  199.8560  170.4270  137.9150 O   0  0  0  0  0  0  0  0  0  0  0  0
  198.7460  170.4970  137.3210 C   0  0  0  0  0  0  0  0  0  0  0  0
  191.0830  176.1020  139.3250 C   0  0  0  0  0  1  0  0  0  0  0  0
  190.3670  177.3520  138.8440 C   0  0  2  0  0  3  0  0  0  0  0  0
  188.3280  178.5350  139.4900 N   0  0  0  0  0  0  0  0  0  0  0  0
  187.3920  178.6460  140.6040 C   0  0  2  0  0  3  0  0  0  0  0  0
  189.0490  176.9610  141.0080 N   0  0  0  0  0  2  0  0  0  0  0  0
  189.2070  177.6150  139.7500 C   0  0  0  0  0  0  0  0  0  0  0  0
  187.9010  177.6010  141.5320 C   0  0  0  0  0  0  0  0  0  0  0  0
  187.4230  177.3410  142.6690 O   0  0  0  0  0  0  0  0  0  0  0  0
  185.7890  178.9230  138.8580 O   0  0  0  0  0  1  0  0  0  0  0  0
  185.9340  178.4380  140.1610 C   0  0  2  0  0  3  0  0  0  0  0  0
  184.0700  178.0210  141.7900 C   0  0  0  0  0  1  0  0  0  0  0  0
  184.8890  179.0900  141.0820 C   0  0  1  0  0  3  0  0  0  0  0  0
  185.5120  179.8880  142.0440 O   0  0  0  0  0  1  0  0  0  0  0  0
  1  6  2  0  0  0  0
  1 11  1  0  0  0  0
  2 14  1  0  0  0  0
  2  8  1  0  0  0  0
  3  5  1  0  0  0  0
  4  6  1  0  0  0  0
  4 10  1  0  0  0  0
  6  9  1  0  0  0  0
  7  8  1  0  0  0  0
  8  4  2  0  0  0  0
  9  5  2  0  0  0  0
  9 13  1  0  0  0  0
 10 13  1  0  0  0  0
 12  3  2  0  0  0  0
 12 11  1  0  0  0  0
 13 45  1  1  0  0  0
 14 15  1  0  0  0  0
 14 30  1  1  0  0  0
 15  7  1  0  0  0  0
 16 19  2  0  0  0  0
 16 21  1  0  0  0  0
 17  3  1  0  0  0  0
 17 22  2  0  0  0  0
 18 22  1  0  0  0  0
 18 23  1  0  0  0  0
 19 17  1  0  0  0  0
 20 19  1  0  0  0  0
 21 18  2  0  0  0  0
 24 21  1  0  0  0  0
 24 29  1  0  0  0  0
 25 28  1  0  0  0  0
 26 28  1  0  0  0  0
 27 26  1  0  0  0  0
 29 27  1  0  0  0  0
 29 25  1  0  0  0  0
 30 32  1  0  0  0  0
 30 31  1  1  0  0  0
 33 35  1  6  0  0  0
 33 39  1  0  0  0  0
 34 35  1  0  0  0  0
 34 36  1  0  0  0  0
 34 38  1  1  0  0  0
 36 32  1  1  0  0  0
 36 39  1  0  0  0  0
 37 33  1  0  0  0  0
 37 39  1  0  0  0  0
 37 43  1  1  0  0  0
 40 41  1  0  0  0  0
 43 40  1  0  0  0  0
 43 42  2  0  0  0  0
 45 44  1  0  0  0  0
 45 49  1  0  0  0  0
 46 49  2  0  0  0  0
 46 47  1  0  0  0  0
 47 50  1  0  0  0  0
 48 50  1  0  0  0  0
 49 48  1  0  0  0  0
 50 51  2  0  0  0  0
 52 53  1  0  0  0  0
 53 47  1  0  0  0  0
 53 55  1  0  0  0  0
 55 54  1  0  0  0  0
 55 56  1  0  0  0  0
M  END
>  <MODEL>
4

>  <REMARK>
 VINA RESULT:      -6.4      3.566     11.313
  Name = 
  11 active torsions:
  status: ('A' for Active; 'I' for Inactive)
    1  A    between atoms: C_4  and  C_41
    2  A    between atoms: C_4  and  N_56
    3  A    between atoms: C_7  and  C_22
    4  A    between atoms: C_9  and  C_47
    5  A    between atoms: C_9  and  N_48
    6  A    between atoms: C_10  and  C_32
    7  A    between atoms: C_23  and  N_48
    8  A    between atoms: C_29  and  C_32
    9  A    between atoms: C_31  and  C_37
   10  A    between atoms: C_37  and  C_45
   11  A    between atoms: C_39  and  C_52
                            x       y       z     vdW  Elec       q    Type
                         _______ _______ _______ _____ _____    ______ ____

>  <TORSDO>
F 11

$$$$
=
 OpenBabel10232410453D

 56 63  0  0  1  0  0  0  0  0999 V2000
  189.7500  173.6730  136.4650 C   0  0  0  0  0  3  0  0  0  0  0  0
  192.0420  173.7990  134.3560 S   0  0  0  0  0  0  0  0  0  0  0  0
  186.9090  174.6310  137.3110 C   0  0  0  0  0  0  0  0  0  0  0  0
  190.9600  175.7950  135.9340 C   0  0  0  0  0  0  0  0  0  0  0  0
  187.7800  175.7980  137.5990 C   0  0  0  0  0  3  0  0  0  0  0  0
  189.8740  175.0000  136.4960 C   0  0  0  0  0  0  0  0  0  0  0  0
  193.0080  176.3090  134.6570 C   0  0  0  0  0  2  0  0  0  0  0  0
  191.9000  175.4170  135.0520 C   0  0  0  0  0  0  0  0  0  0  0  0
  189.0810  175.9230  137.3070 C   0  0  0  0  0  0  0  0  0  0  0  0
  190.9110  177.1170  136.4710 N   0  0  0  0  0  2  0  0  0  0  0  0
  188.7790  172.9440  137.3340 C   0  0  0  0  0  2  0  0  0  0  0  0
  187.3610  173.3820  137.1410 C   0  0  0  0  0  3  0  0  0  0  0  0
  189.8010  177.2380  137.4180 C   0  0  2  0  0  3  0  0  0  0  0  0
  193.8400  174.0680  134.3460 C   0  0  1  0  0  3  0  0  0  0  0  0
  194.1860  175.4970  134.3530 N   0  0  0  0  0  2  0  0  0  0  0  0
  183.1460  174.1370  137.2710 C   0  0  0  0  0  3  0  0  0  0  0  0
  185.4590  174.8810  137.1920 C   0  0  0  0  0  0  0  0  0  0  0  0
  183.6510  176.4330  136.6970 C   0  0  0  0  0  0  0  0  0  0  0  0
  184.5090  173.8600  137.4030 C   0  0  0  0  0  0  0  0  0  0  0  0
  184.9050  172.5710  137.7470 O   0  0  0  0  0  1  0  0  0  0  0  0
  182.7090  175.4170  136.9240 C   0  0  0  0  0  0  0  0  0  0  0  0
  185.0150  176.1620  136.8360 C   0  0  0  0  0  3  0  0  0  0  0  0
  183.2550  177.6680  136.3060 F   0  0  0  0  0  0  0  0  0  0  0  0
  181.2390  175.6580  136.7600 C   0  0  0  0  0  2  0  0  0  0  0  0
  181.5940  175.6950  139.0740 C   0  0  0  0  0  2  0  0  0  0  0  0
  180.9140  177.9490  139.3850 C   0  0  0  0  0  2  0  0  0  0  0  0
  180.3810  177.4290  138.0730 C   0  0  0  0  0  2  0  0  0  0  0  0
  182.0280  177.0000  139.7100 C   0  0  0  0  0  2  0  0  0  0  0  0
  180.6100  175.9870  138.0360 N   0  0  0  0  0  0  0  0  0  0  0  0
  194.5120  173.3180  135.4950 C   0  0  2  0  0  3  0  0  0  0  0  0
  193.5660  172.8540  136.4150 O   0  0  0  0  0  1  0  0  0  0  0  0
  195.4620  174.1940  136.1680 N   0  0  0  0  0  2  0  0  0  0  0  0
  198.7680  172.9130  136.9380 C   0  0  2  0  0  3  0  0  0  0  0  0
  197.8190  174.8720  135.8480 C   0  0  1  0  0  3  0  0  0  0  0  0
  199.1220  174.1590  136.1370 C   0  0  0  0  0  2  0  0  0  0  0  0
  196.7950  173.7460  135.7860 C   0  0  1  0  0  3  0  0  0  0  0  0
  198.3150  171.8020  136.0060 C   0  0  2  0  0  3  0  0  0  0  0  0
  197.5340  175.7400  136.9120 O   0  0  0  0  0  1  0  0  0  0  0  0
  197.2860  172.6610  136.7240 C   0  0  1  0  0  3  0  0  0  0  0  0
  199.4350  170.2660  137.6680 N   0  0  0  0  0  2  0  0  0  0  0  0
  199.5660  169.0110  138.3870 C   0  0  0  0  0  1  0  0  0  0  0  0
  197.5890  169.5640  136.4190 O   0  0  0  0  0  0  0  0  0  0  0  0
  198.4210  170.4740  136.6820 C   0  0  0  0  0  0  0  0  0  0  0  0
  191.1670  176.2790  139.3150 C   0  0  0  0  0  1  0  0  0  0  0  0
  190.3490  177.4660  138.8330 C   0  0  2  0  0  3  0  0  0  0  0  0
  189.1280  177.0210  140.9020 N   0  0  0  0  0  0  0  0  0  0  0  0
  187.8920  177.3890  141.5850 C   0  0  2  0  0  3  0  0  0  0  0  0
  188.1750  178.6210  139.5490 N   0  0  0  0  0  2  0  0  0  0  0  0
  189.2410  177.7080  139.8060 C   0  0  0  0  0  0  0  0  0  0  0  0
  187.3400  178.4280  140.6750 C   0  0  0  0  0  0  0  0  0  0  0  0
  186.2450  179.0280  140.8340 O   0  0  0  0  0  0  0  0  0  0  0  0
  189.4390  177.5070  143.3990 O   0  0  0  0  0  1  0  0  0  0  0  0
  188.1460  177.8810  143.0210 C   0  0  2  0  0  3  0  0  0  0  0  0
  187.7360  177.4070  145.4510 C   0  0  0  0  0  1  0  0  0  0  0  0
  187.1290  177.3740  144.0570 C   0  0  1  0  0  3  0  0  0  0  0  0
  185.9810  178.1700  144.0480 O   0  0  0  0  0  1  0  0  0  0  0  0
  1  6  2  0  0  0  0
  1 11  1  0  0  0  0
  2  8  1  0  0  0  0
  3  5  1  0  0  0  0
  4 10  1  0  0  0  0
  4  6  1  0  0  0  0
  6  9  1  0  0  0  0
  7  8  1  0  0  0  0
  8  4  2  0  0  0  0
  9 13  1  0  0  0  0
  9  5  2  0  0  0  0
 10 13  1  0  0  0  0
 12  3  2  0  0  0  0
 12 11  1  0  0  0  0
 13 45  1  1  0  0  0
 14 15  1  0  0  0  0
 14  2  1  0  0  0  0
 14 30  1  1  0  0  0
 15  7  1  0  0  0  0
 16 19  1  0  0  0  0
 17  3  1  0  0  0  0
 17 19  2  0  0  0  0
 18 22  2  0  0  0  0
 18 21  1  0  0  0  0
 19 20  1  0  0  0  0
 21 16  2  0  0  0  0
 22 17  1  0  0  0  0
 23 18  1  0  0  0  0
 24 21  1  0  0  0  0
 24 29  1  0  0  0  0
 25 28  1  0  0  0  0
 26 28  1  0  0  0  0
 27 26  1  0  0  0  0
 29 27  1  0  0  0  0
 29 25  1  0  0  0  0
 30 32  1  0  0  0  0
 30 31  1  1  0  0  0
 33 35  1  6  0  0  0
 34 35  1  0  0  0  0
 34 38  1  1  0  0  0
 36 34  1  0  0  0  0
 36 32  1  1  0  0  0
 36 39  1  0  0  0  0
 37 43  1  1  0  0  0
 37 39  1  0  0  0  0
 37 33  1  0  0  0  0
 39 33  1  0  0  0  0
 40 41  1  0  0  0  0
 42 43  2  0  0  0  0
 43 40  1  0  0  0  0
 45 44  1  0  0  0  0
 45 49  1  0  0  0  0
 46 47  1  0  0  0  0
 47 53  1  0  0  0  0
 48 49  1  0  0  0  0
 48 50  1  0  0  0  0
 49 46  2  0  0  0  0
 50 51  2  0  0  0  0
 50 47  1  0  0  0  0
 53 52  1  0  0  0  0
 53 55  1  0  0  0  0
 55 54  1  0  0  0  0
 56 55  1  0  0  0  0
M  END
>  <MODEL>
5

>  <REMARK>
 VINA RESULT:      -6.0      3.276     11.464
  Name = 
  11 active torsions:
  status: ('A' for Active; 'I' for Inactive)
    1  A    between atoms: C_4  and  C_41
    2  A    between atoms: C_4  and  N_56
    3  A    between atoms: C_7  and  C_22
    4  A    between atoms: C_9  and  C_47
    5  A    between atoms: C_9  and  N_48
    6  A    between atoms: C_10  and  C_32
    7  A    between atoms: C_23  and  N_48
    8  A    between atoms: C_29  and  C_32
    9  A    between atoms: C_31  and  C_37
   10  A    between atoms: C_37  and  C_45
   11  A    between atoms: C_39  and  C_52
                            x       y       z     vdW  Elec       q    Type
                         _______ _______ _______ _____ _____    ______ ____

>  <TORSDO>
F 11

$$$$
=
 OpenBabel10232410453D

 56 63  0  0  1  0  0  0  0  0999 V2000
  192.8550  175.5330  138.5470 C   0  0  0  0  0  3  0  0  0  0  0  0
  193.4690  172.8190  137.1420 S   0  0  0  0  0  0  0  0  0  0  0  0
  191.1900  177.0580  140.6940 C   0  0  0  0  0  0  0  0  0  0  0  0
  191.1310  174.2940  137.2260 C   0  0  0  0  0  0  0  0  0  0  0  0
  190.2330  176.8530  139.5780 C   0  0  0  0  0  3  0  0  0  0  0  0
  191.5960  175.2980  138.1780 C   0  0  0  0  0  0  0  0  0  0  0  0
  191.2320  172.3680  135.6880 C   0  0  0  0  0  2  0  0  0  0  0  0
  191.8010  173.2380  136.7360 C   0  0  0  0  0  0  0  0  0  0  0  0
  190.4400  176.1470  138.4590 C   0  0  0  0  0  0  0  0  0  0  0  0
  189.7880  174.5860  136.8440 N   0  0  0  0  0  2  0  0  0  0  0  0
  193.2520  176.7750  139.2740 C   0  0  0  0  0  2  0  0  0  0  0  0
  192.5210  176.9690  140.5650 C   0  0  0  0  0  3  0  0  0  0  0  0
  189.3220  175.7990  137.5160 C   0  0  2  0  0  3  0  0  0  0  0  0
  193.6240  172.1950  135.4420 C   0  0  1  0  0  3  0  0  0  0  0  0
  192.3190  171.8490  134.8580 N   0  0  0  0  0  2  0  0  0  0  0  0
  188.7650  177.9390  143.4760 C   0  0  0  0  0  3  0  0  0  0  0  0
  190.6260  177.3630  142.0240 C   0  0  0  0  0  0  0  0  0  0  0  0
  190.9860  177.6930  144.4070 C   0  0  0  0  0  0  0  0  0  0  0  0
  189.2570  177.6470  142.2020 C   0  0  0  0  0  0  0  0  0  0  0  0
  188.3750  177.6390  141.1260 O   0  0  0  0  0  1  0  0  0  0  0  0
  189.6190  177.9600  144.5820 C   0  0  0  0  0  0  0  0  0  0  0  0
  191.4790  177.3930  143.1350 C   0  0  0  0  0  3  0  0  0  0  0  0
  191.8420  177.7630  145.4540 F   0  0  0  0  0  0  0  0  0  0  0  0
  189.0520  178.3120  145.9240 C   0  0  0  0  0  2  0  0  0  0  0  0
  187.3450  178.0170  147.4980 C   0  0  0  0  0  2  0  0  0  0  0  0
  185.5560  178.4220  145.9900 C   0  0  0  0  0  2  0  0  0  0  0  0
  186.8070  178.0750  145.2200 C   0  0  0  0  0  2  0  0  0  0  0  0
  186.0750  178.8280  147.3350 C   0  0  0  0  0  2  0  0  0  0  0  0
  187.8030  177.6000  146.1770 N   0  0  0  0  0  0  0  0  0  0  0  0
  194.3910  173.1840  134.5640 C   0  0  2  0  0  3  0  0  0  0  0  0
  195.7090  172.7620  134.3640 O   0  0  0  0  0  1  0  0  0  0  0  0
  194.3860  174.5020  135.1860 N   0  0  0  0  0  2  0  0  0  0  0  0
  197.4580  176.2730  135.9540 C   0  0  2  0  0  3  0  0  0  0  0  0
  195.4590  176.6570  134.6200 C   0  0  1  0  0  3  0  0  0  0  0  0
  196.8270  177.2190  134.9420 C   0  0  0  0  0  2  0  0  0  0  0  0
  195.6310  175.1550  134.8030 C   0  0  1  0  0  3  0  0  0  0  0  0
  198.0680  175.0770  135.2450 C   0  0  2  0  0  3  0  0  0  0  0  0
  194.5340  177.1640  135.5430 O   0  0  0  0  0  1  0  0  0  0  0  0
  196.6880  174.9670  135.8740 C   0  0  1  0  0  3  0  0  0  0  0  0
  199.1690  174.7750  137.4960 N   0  0  0  0  0  2  0  0  0  0  0  0
  200.1000  174.1310  138.4070 C   0  0  0  0  0  1  0  0  0  0  0  0
  199.7970  173.4800  135.6550 O   0  0  0  0  0  0  0  0  0  0  0  0
  199.0740  174.4040  136.1190 C   0  0  0  0  0  0  0  0  0  0  0  0
  189.0640  178.2830  137.1280 C   0  0  0  0  0  1  0  0  0  0  0  0
  189.0880  176.9080  136.4810 C   0  0  2  0  0  3  0  0  0  0  0  0
  187.5720  175.6360  135.0470 N   0  0  0  0  0  0  0  0  0  0  0  0
  186.2930  175.7690  134.3570 C   0  0  2  0  0  3  0  0  0  0  0  0
  186.7820  177.7010  135.6900 N   0  0  0  0  0  2  0  0  0  0  0  0
  187.7980  176.7020  135.7540 C   0  0  0  0  0  0  0  0  0  0  0  0
  185.8340  177.1040  134.8250 C   0  0  0  0  0  0  0  0  0  0  0  0
  184.7700  177.6750  134.4660 O   0  0  0  0  0  0  0  0  0  0  0  0
  184.2990  175.1180  135.4970 O   0  0  0  0  0  1  0  0  0  0  0  0
  185.3290  174.6180  134.6950 C   0  0  2  0  0  3  0  0  0  0  0  0
  186.3070  173.7400  136.8330 C   0  0  0  0  0  1  0  0  0  0  0  0
  185.9920  173.4130  135.3820 C   0  0  1  0  0  3  0  0  0  0  0  0
  185.1470  172.3010  135.3460 O   0  0  0  0  0  1  0  0  0  0  0  0
  1 11  1  0  0  0  0
  3 17  1  0  0  0  0
  4  6  1  0  0  0  0
  5  3  1  0  0  0  0
  6  9  1  0  0  0  0
  6  1  2  0  0  0  0
  7  8  1  0  0  0  0
  8  2  1  0  0  0  0
  8  4  2  0  0  0  0
  9  5  2  0  0  0  0
 10  4  1  0  0  0  0
 10 13  1  0  0  0  0
 11 12  1  0  0  0  0
 12  3  2  0  0  0  0
 13 45  1  6  0  0  0
 13  9  1  0  0  0  0
 14 30  1  6  0  0  0
 14  2  1  0  0  0  0
 15 14  1  0  0  0  0
 15  7  1  0  0  0  0
 16 21  1  0  0  0  0
 17 19  1  0  0  0  0
 17 22  2  0  0  0  0
 18 21  2  0  0  0  0
 18 23  1  0  0  0  0
 19 16  2  0  0  0  0
 20 19  1  0  0  0  0
 21 24  1  0  0  0  0
 22 18  1  0  0  0  0
 24 29  1  0  0  0  0
 26 28  1  0  0  0  0
 27 26  1  0  0  0  0
 27 29  1  0  0  0  0
 28 25  1  0  0  0  0
 29 25  1  0  0  0  0
 30 31  1  1  0  0  0
 30 32  1  0  0  0  0
 33 35  1  6  0  0  0
 34 36  1  0  0  0  0
 34 35  1  0  0  0  0
 34 38  1  1  0  0  0
 36 32  1  1  0  0  0
 36 39  1  0  0  0  0
 37 39  1  0  0  0  0
 37 33  1  0  0  0  0
 37 43  1  1  0  0  0
 39 33  1  0  0  0  0
 40 41  1  0  0  0  0
 42 43  2  0  0  0  0
 43 40  1  0  0  0  0
 45 44  1  0  0  0  0
 46 49  2  0  0  0  0
 47 53  1  0  0  0  0
 47 50  1  0  0  0  0
 47 46  1  0  0  0  0
 48 49  1  0  0  0  0
 49 45  1  0  0  0  0
 50 48  1  0  0  0  0
 51 50  2  0  0  0  0
 53 55  1  0  0  0  0
 53 52  1  0  0  0  0
 55 54  1  0  0  0  0
 56 55  1  0  0  0  0
M  END
>  <MODEL>
6

>  <REMARK>
 VINA RESULT:      -5.3      3.582     10.212
  Name = 
  11 active torsions:
  status: ('A' for Active; 'I' for Inactive)
    1  A    between atoms: C_4  and  C_41
    2  A    between atoms: C_4  and  N_56
    3  A    between atoms: C_7  and  C_22
    4  A    between atoms: C_9  and  C_47
    5  A    between atoms: C_9  and  N_48
    6  A    between atoms: C_10  and  C_32
    7  A    between atoms: C_23  and  N_48
    8  A    between atoms: C_29  and  C_32
    9  A    between atoms: C_31  and  C_37
   10  A    between atoms: C_37  and  C_45
   11  A    between atoms: C_39  and  C_52
                            x       y       z     vdW  Elec       q    Type
                         _______ _______ _______ _____ _____    ______ ____

>  <TORSDO>
F 11

$$$$
=
 OpenBabel10232410453D

 56 63  0  0  1  0  0  0  0  0999 V2000
  187.1300  178.2560  141.2800 C   0  0  0  0  0  3  0  0  0  0  0  0
  188.4290  176.8020  143.7120 S   0  0  0  0  0  0  0  0  0  0  0  0
  185.5130  178.0020  138.6290 C   0  0  0  0  0  0  0  0  0  0  0  0
  188.9800  176.5960  141.0110 C   0  0  0  0  0  0  0  0  0  0  0  0
  186.8780  177.5470  138.2620 C   0  0  0  0  0  3  0  0  0  0  0  0
  187.8780  177.4320  140.5460 C   0  0  0  0  0  0  0  0  0  0  0  0
  190.5190  175.4960  142.5950 C   0  0  0  0  0  2  0  0  0  0  0  0
  189.3010  176.2660  142.2720 C   0  0  1  0  0  3  0  0  0  0  0  0
  187.9170  177.3700  139.0860 C   0  0  0  0  0  0  0  0  0  0  0  0
  189.7380  176.1410  139.8900 N   0  0  0  0  0  0  0  0  0  0  0  0
  186.2490  179.2920  140.6640 C   0  0  0  0  0  2  0  0  0  0  0  0
  185.2340  178.7260  139.7210 C   0  0  0  0  0  3  0  0  0  0  0  0
  189.1740  176.6710  138.6480 C   0  0  2  0  0  3  0  0  0  0  0  0
  190.0330  176.7930  144.5680 C   0  0  1  0  0  3  0  0  0  0  0  0
  191.0050  175.9050  143.9120 N   0  0  0  0  0  2  0  0  0  0  0  0
  182.1560  177.9060  136.8640 C   0  0  0  0  0  3  0  0  0  0  0  0
  184.4040  177.6110  137.7370 C   0  0  0  0  0  0  0  0  0  0  0  0
  183.5280  176.0830  136.0580 C   0  0  0  0  0  0  0  0  0  0  0  0
  183.1830  178.3150  137.7170 C   0  0  0  0  0  0  0  0  0  0  0  0
  182.9800  179.4230  138.5340 O   0  0  0  0  0  1  0  0  0  0  0  0
  182.3200  176.7970  136.0300 C   0  0  0  0  0  0  0  0  0  0  0  0
  184.5610  176.4940  136.9050 C   0  0  0  0  0  3  0  0  0  0  0  0
  183.6910  174.9720  135.3010 F   0  0  0  0  0  0  0  0  0  0  0  0
  181.1780  176.3750  135.1570 C   0  0  0  0  0  2  0  0  0  0  0  0
  180.2790  174.2140  135.1050 C   0  0  0  0  0  2  0  0  0  0  0  0
  180.8490  173.6640  137.3440 C   0  0  0  0  0  2  0  0  0  0  0  0
  180.8670  175.1620  137.1640 C   0  0  0  0  0  2  0  0  0  0  0  0
  180.9480  173.1430  135.9420 C   0  0  0  0  0  2  0  0  0  0  0  0
  180.2810  175.4630  135.8610 N   0  0  0  0  0  0  0  0  0  0  0  0
  190.5780  178.2120  144.7230 C   0  0  2  0  0  3  0  0  0  0  0  0
  191.9750  178.2220  144.6800 O   0  0  0  0  0  1  0  0  0  0  0  0
  190.1210  178.7800  145.9840 N   0  0  0  0  0  2  0  0  0  0  0  0
  186.9980  178.2260  147.7460 C   0  0  2  0  0  3  0  0  0  0  0  0
  189.2960  177.4380  147.8910 C   0  0  1  0  0  3  0  0  0  0  0  0
  187.9050  177.2280  148.4510 C   0  0  0  0  0  2  0  0  0  0  0  0
  189.0460  177.9250  146.4700 C   0  0  1  0  0  3  0  0  0  0  0  0
  186.5810  177.6880  146.3880 C   0  0  2  0  0  3  0  0  0  0  0  0
  189.9410  178.4280  148.6450 O   0  0  0  0  0  1  0  0  0  0  0  0
  187.7300  178.6780  146.4950 C   0  0  1  0  0  3  0  0  0  0  0  0
  185.1600  178.5600  144.4920 N   0  0  0  0  0  2  0  0  0  0  0  0
  183.9730  179.1990  143.9510 C   0  0  0  0  0  1  0  0  0  0  0  0
  184.4830  178.7820  146.7180 O   0  0  0  0  0  0  0  0  0  0  0  0
  185.3570  178.3900  145.8980 C   0  0  0  0  0  0  0  0  0  0  0  0
  189.4870  178.5490  136.9870 C   0  0  0  0  0  1  0  0  0  0  0  0
  190.1680  177.6450  138.0010 C   0  0  2  0  0  3  0  0  0  0  0  0
  192.4930  176.9310  137.7640 N   0  0  0  0  0  0  0  0  0  0  0  0
  193.3700  176.2340  136.8300 C   0  0  2  0  0  3  0  0  0  0  0  0
  191.0960  176.2330  136.0730 N   0  0  0  0  0  2  0  0  0  0  0  0
  191.2750  176.9090  137.3170 C   0  0  0  0  0  0  0  0  0  0  0  0
  192.4100  175.7990  135.7800 C   0  0  0  0  0  0  0  0  0  0  0  0
  192.7140  175.1760  134.7290 O   0  0  0  0  0  0  0  0  0  0  0  0
  194.3620  175.4120  138.8400 O   0  0  0  0  0  1  0  0  0  0  0  0
  194.1340  175.0790  137.5010 C   0  0  2  0  0  3  0  0  0  0  0  0
  195.2770  173.4960  135.9240 C   0  0  0  0  0  1  0  0  0  0  0  0
  195.4620  174.7120  136.8180 C   0  0  1  0  0  3  0  0  0  0  0  0
  195.9240  175.7750  136.0400 O   0  0  0  0  0  1  0  0  0  0  0  0
  2 14  1  0  0  0  0
  3 12  2  0  0  0  0
  5  3  1  0  0  0  0
  5  9  2  0  0  0  0
  6  4  1  0  0  0  0
  6  1  2  0  0  0  0
  7 15  1  0  0  0  0
  8  4  1  1  0  0  0
  8  7  1  0  0  0  0
  8  2  1  0  0  0  0
  9  6  1  0  0  0  0
 10  4  2  0  0  0  0
 11  1  1  0  0  0  0
 12 11  1  0  0  0  0
 13 45  1  1  0  0  0
 13  9  1  0  0  0  0
 13 10  1  0  0  0  0
 14 30  1  6  0  0  0
 15 14  1  0  0  0  0
 16 19  1  0  0  0  0
 17  3  1  0  0  0  0
 18 22  2  0  0  0  0
 19 17  2  0  0  0  0
 19 20  1  0  0  0  0
 21 18  1  0  0  0  0
 21 16  2  0  0  0  0
 22 17  1  0  0  0  0
 23 18  1  0  0  0  0
 24 29  1  0  0  0  0
 24 21  1  0  0  0  0
 25 29  1  0  0  0  0
 25 28  1  0  0  0  0
 27 26  1  0  0  0  0
 28 26  1  0  0  0  0
 29 27  1  0  0  0  0
 30 31  1  1  0  0  0
 30 32  1  0  0  0  0
 33 35  1  1  0  0  0
 34 35  1  0  0  0  0
 34 38  1  1  0  0  0
 36 32  1  1  0  0  0
 36 39  1  0  0  0  0
 36 34  1  0  0  0  0
 37 43  1  6  0  0  0
 37 39  1  0  0  0  0
 37 33  1  0  0  0  0
 39 33  1  0  0  0  0
 40 43  1  0  0  0  0
 41 40  1  0  0  0  0
 43 42  2  0  0  0  0
 44 45  1  0  0  0  0
 47 53  1  0  0  0  0
 47 46  1  0  0  0  0
 48 49  1  0  0  0  0
 49 46  2  0  0  0  0
 49 45  1  0  0  0  0
 50 48  1  0  0  0  0
 50 47  1  0  0  0  0
 51 50  2  0  0  0  0
 53 52  1  0  0  0  0
 54 55  1  0  0  0  0
 55 53  1  0  0  0  0
 56 55  1  0  0  0  0
M  END
>  <MODEL>
7

>  <REMARK>
 VINA RESULT:      -5.2      3.803      9.898
  Name = 
  11 active torsions:
  status: ('A' for Active; 'I' for Inactive)
    1  A    between atoms: C_4  and  C_41
    2  A    between atoms: C_4  and  N_56
    3  A    between atoms: C_7  and  C_22
    4  A    between atoms: C_9  and  C_47
    5  A    between atoms: C_9  and  N_48
    6  A    between atoms: C_10  and  C_32
    7  A    between atoms: C_23  and  N_48
    8  A    between atoms: C_29  and  C_32
    9  A    between atoms: C_31  and  C_37
   10  A    between atoms: C_37  and  C_45
   11  A    between atoms: C_39  and  C_52
                            x       y       z     vdW  Elec       q    Type
                         _______ _______ _______ _____ _____    ______ ____

>  <TORSDO>
F 11

$$$$
=
 OpenBabel10232410453D

 56 63  0  0  1  0  0  0  0  0999 V2000
  187.8680  176.4700  135.0400 C   0  0  0  0  0  3  0  0  0  0  0  0
  185.0370  175.1700  135.1380 S   0  0  0  0  0  0  0  0  0  0  0  0
  190.9180  176.1610  135.5960 C   0  0  0  0  0  0  0  0  0  0  0  0
  186.7970  175.7650  137.1860 C   0  0  0  0  0  0  0  0  0  0  0  0
  190.3270  176.3660  136.9420 C   0  0  0  0  0  3  0  0  0  0  0  0
  187.9120  176.1790  136.3400 C   0  0  0  0  0  0  0  0  0  0  0  0
  184.5140  175.0530  137.7900 C   0  0  0  0  0  2  0  0  0  0  0  0
  185.5830  175.3320  136.8110 C   0  0  0  0  0  0  0  0  0  0  0  0
  189.0260  176.4430  137.2480 C   0  0  0  0  0  0  0  0  0  0  0  0
  187.1700  175.8890  138.5580 N   0  0  0  0  0  2  0  0  0  0  0  0
  188.9830  177.1810  134.3460 C   0  0  0  0  0  2  0  0  0  0  0  0
  190.2970  176.4730  134.4510 C   0  0  0  0  0  3  0  0  0  0  0  0
  188.5360  176.4010  138.6680 C   0  0  2  0  0  3  0  0  0  0  0  0
  183.3790  175.6120  135.7380 C   0  0  1  0  0  3  0  0  0  0  0  0
  183.2180  175.3350  137.1740 N   0  0  0  0  0  2  0  0  0  0  0  0
  193.7920  173.6950  135.8300 C   0  0  0  0  0  3  0  0  0  0  0  0
  192.2660  175.5620  135.5300 C   0  0  0  0  0  0  0  0  0  0  0  0
  194.6370  175.8260  135.0530 C   0  0  0  0  0  0  0  0  0  0  0  0
  192.5000  174.2210  135.8980 C   0  0  0  0  0  0  0  0  0  0  0  0
  191.4610  173.4020  136.3280 O   0  0  0  0  0  1  0  0  0  0  0  0
  194.8630  174.4860  135.4060 C   0  0  0  0  0  0  0  0  0  0  0  0
  193.3440  176.3530  135.1130 C   0  0  0  0  0  3  0  0  0  0  0  0
  195.6670  176.6280  134.6930 F   0  0  0  0  0  0  0  0  0  0  0  0
  196.2370  173.8880  135.3820 C   0  0  0  0  0  2  0  0  0  0  0  0
  197.1700  172.4700  136.9930 C   0  0  0  0  0  2  0  0  0  0  0  0
  199.1490  173.7430  137.3150 C   0  0  0  0  0  2  0  0  0  0  0  0
  198.0870  174.6000  136.6720 C   0  0  0  0  0  2  0  0  0  0  0  0
  198.6800  172.3460  137.0470 C   0  0  0  0  0  2  0  0  0  0  0  0
  196.8280  173.8620  136.7160 N   0  0  0  0  0  0  0  0  0  0  0  0
  183.0460  177.0650  135.4020 C   0  0  2  0  0  3  0  0  0  0  0  0
  183.9170  177.5700  134.4330 O   0  0  0  0  0  1  0  0  0  0  0  0
  183.1250  177.8810  136.6060 N   0  0  0  0  0  2  0  0  0  0  0  0
  180.8290  180.3280  137.9880 C   0  0  2  0  0  3  0  0  0  0  0  0
  181.2280  177.9360  138.1930 C   0  0  1  0  0  3  0  0  0  0  0  0
  180.2790  179.0450  138.5930 C   0  0  0  0  0  2  0  0  0  0  0  0
  181.7860  178.4010  136.8550 C   0  0  1  0  0  3  0  0  0  0  0  0
  180.4160  180.4400  136.5310 C   0  0  2  0  0  3  0  0  0  0  0  0
  182.2490  177.8490  139.1500 O   0  0  0  0  0  1  0  0  0  0  0  0
  181.7970  179.9170  136.8920 C   0  0  1  0  0  3  0  0  0  0  0  0
  180.5050  182.9150  137.0190 N   0  0  0  0  0  2  0  0  0  0  0  0
  180.6420  184.3090  136.6300 C   0  0  0  0  0  1  0  0  0  0  0  0
  180.6760  182.1030  134.8350 O   0  0  0  0  0  0  0  0  0  0  0  0
  180.5220  181.8540  136.0610 C   0  0  0  0  0  0  0  0  0  0  0  0
  189.6360  178.6740  138.7650 C   0  0  0  0  0  1  0  0  0  0  0  0
  188.5160  177.7990  139.3020 C   0  0  2  0  0  3  0  0  0  0  0  0
  189.7500  177.3480  141.3620 N   0  0  0  0  0  0  0  0  0  0  0  0
  189.5430  177.2420  142.8030 C   0  0  2  0  0  3  0  0  0  0  0  0
  187.5430  177.9260  141.6710 N   0  0  0  0  0  2  0  0  0  0  0  0
  188.6460  177.7180  140.7890 C   0  0  0  0  0  0  0  0  0  0  0  0
  188.1160  177.6410  142.9330 C   0  0  0  0  0  0  0  0  0  0  0  0
  187.4640  177.6720  144.0100 O   0  0  0  0  0  0  0  0  0  0  0  0
  191.4910  178.6190  142.7200 O   0  0  0  0  0  1  0  0  0  0  0  0
  190.5190  178.1280  143.5970 C   0  0  2  0  0  3  0  0  0  0  0  0
  190.2070  177.2710  145.9350 C   0  0  0  0  0  1  0  0  0  0  0  0
  191.1920  177.4250  144.7870 C   0  0  1  0  0  3  0  0  0  0  0  0
  191.6490  176.1580  144.4150 O   0  0  0  0  0  1  0  0  0  0  0  0
  1  6  2  0  0  0  0
  2 14  1  0  0  0  0
  2  8  1  0  0  0  0
  3  5  1  0  0  0  0
  4 10  1  0  0  0  0
  5  9  2  0  0  0  0
  6  4  1  0  0  0  0
  6  9  1  0  0  0  0
  8  4  2  0  0  0  0
  8  7  1  0  0  0  0
  9 13  1  0  0  0  0
 10 13  1  0  0  0  0
 11 12  1  0  0  0  0
 11  1  1  0  0  0  0
 12  3  2  0  0  0  0
 13 45  1  6  0  0  0
 14 30  1  1  0  0  0
 14 15  1  0  0  0  0
 15  7  1  0  0  0  0
 16 19  1  0  0  0  0
 17  3  1  0  0  0  0
 17 19  2  0  0  0  0
 18 22  2  0  0  0  0
 18 21  1  0  0  0  0
 19 20  1  0  0  0  0
 21 16  2  0  0  0  0
 22 17  1  0  0  0  0
 23 18  1  0  0  0  0
 24 21  1  0  0  0  0
 24 29  1  0  0  0  0
 25 28  1  0  0  0  0
 27 29  1  0  0  0  0
 27 26  1  0  0  0  0
 28 26  1  0  0  0  0
 29 25  1  0  0  0  0
 30 31  1  6  0  0  0
 30 32  1  0  0  0  0
 33 35  1  1  0  0  0
 34 35  1  0  0  0  0
 34 38  1  1  0  0  0
 36 32  1  1  0  0  0
 36 39  1  0  0  0  0
 36 34  1  0  0  0  0
 37 43  1  6  0  0  0
 37 39  1  0  0  0  0
 37 33  1  0  0  0  0
 39 33  1  0  0  0  0
 41 40  1  0  0  0  0
 42 43  2  0  0  0  0
 43 40  1  0  0  0  0
 44 45  1  0  0  0  0
 45 49  1  0  0  0  0
 46 47  1  0  0  0  0
 47 50  1  0  0  0  0
 47 53  1  0  0  0  0
 48 50  1  0  0  0  0
 49 46  2  0  0  0  0
 49 48  1  0  0  0  0
 50 51  2  0  0  0  0
 52 53  1  0  0  0  0
 53 55  1  0  0  0  0
 55 54  1  0  0  0  0
 56 55  1  0  0  0  0
M  END
>  <MODEL>
8

>  <REMARK>
 VINA RESULT:      -5.2      2.940      6.761
  Name = 
  11 active torsions:
  status: ('A' for Active; 'I' for Inactive)
    1  A    between atoms: C_4  and  C_41
    2  A    between atoms: C_4  and  N_56
    3  A    between atoms: C_7  and  C_22
    4  A    between atoms: C_9  and  C_47
    5  A    between atoms: C_9  and  N_48
    6  A    between atoms: C_10  and  C_32
    7  A    between atoms: C_23  and  N_48
    8  A    between atoms: C_29  and  C_32
    9  A    between atoms: C_31  and  C_37
   10  A    between atoms: C_37  and  C_45
   11  A    between atoms: C_39  and  C_52
                            x       y       z     vdW  Elec       q    Type
                         _______ _______ _______ _____ _____    ______ ____

>  <TORSDO>
F 11

$$$$
=
 OpenBabel10232410453D

 56 63  0  0  1  0  0  0  0  0999 V2000
  187.1830  177.0170  137.6250 C   0  0  0  0  0  3  0  0  0  0  0  0
  190.1260  177.1430  136.6070 S   0  0  0  0  0  0  0  0  0  0  0  0
  184.6930  178.5840  138.6520 C   0  0  0  0  0  0  0  0  0  0  0  0
  189.0530  177.8720  139.0480 C   0  0  0  0  0  0  0  0  0  0  0  0
  185.6180  178.5800  139.8130 C   0  0  0  0  0  3  0  0  0  0  0  0
  187.6530  177.6720  138.6870 C   0  0  0  0  0  0  0  0  0  0  0  0
  191.5100  177.8300  138.8280 C   0  0  0  0  0  2  0  0  0  0  0  0
  190.1430  177.6930  138.2860 C   0  0  0  0  0  0  0  0  0  0  0  0
  186.8750  178.1190  139.8410 C   0  0  0  0  0  0  0  0  0  0  0  0
  189.1370  178.3040  140.4060 N   0  0  0  0  0  2  0  0  0  0  0  0
  185.7530  176.6010  137.5160 C   0  0  0  0  0  2  0  0  0  0  0  0
  184.7910  177.7430  137.6140 C   0  0  0  0  0  3  0  0  0  0  0  0
  187.8000  178.3910  140.9940 C   0  0  2  0  0  3  0  0  0  0  0  0
  191.7050  176.3140  136.9640 C   0  0  1  0  0  3  0  0  0  0  0  0
  192.4000  176.9200  138.1100 N   0  0  0  0  0  2  0  0  0  0  0  0
  181.2650  180.2110  138.6310 C   0  0  0  0  0  3  0  0  0  0  0  0
  183.6150  179.5930  138.6460 C   0  0  0  0  0  0  0  0  0  0  0  0
  182.9630  181.9360  138.5960 C   0  0  0  0  0  0  0  0  0  0  0  0
  182.2540  179.2250  138.6450 C   0  0  0  0  0  0  0  0  0  0  0  0
  181.8720  177.8870  138.6620 O   0  0  0  0  0  1  0  0  0  0  0  0
  181.6090  181.5650  138.6110 C   0  0  0  0  0  0  0  0  0  0  0  0
  183.9540  180.9520  138.6180 C   0  0  0  0  0  3  0  0  0  0  0  0
  183.3210  183.2400  138.5200 F   0  0  0  0  0  0  0  0  0  0  0  0
  180.5140  182.5870  138.5610 C   0  0  0  0  0  2  0  0  0  0  0  0
  179.9960  184.1920  136.9380 C   0  0  0  0  0  2  0  0  0  0  0  0
  181.2470  183.1780  135.1920 C   0  0  0  0  0  2  0  0  0  0  0  0
  180.9740  182.1680  136.2790 C   0  0  0  0  0  2  0  0  0  0  0  0
  181.0350  184.4940  135.8760 C   0  0  0  0  0  2  0  0  0  0  0  0
  180.0070  182.7560  137.2030 N   0  0  0  0  0  0  0  0  0  0  0  0
  191.5020  174.8120  137.1560 C   0  0  2  0  0  3  0  0  0  0  0  0
  191.8950  174.4100  138.4360 O   0  0  0  0  0  1  0  0  0  0  0  0
  192.2670  174.0800  136.1550 N   0  0  0  0  0  2  0  0  0  0  0  0
  195.5140  172.6900  136.9870 C   0  0  2  0  0  3  0  0  0  0  0  0
  193.4050  171.8850  136.0750 C   0  0  1  0  0  3  0  0  0  0  0  0
  194.7610  171.4330  136.5720 C   0  0  0  0  0  2  0  0  0  0  0  0
  193.1290  173.1510  136.8750 C   0  0  1  0  0  3  0  0  0  0  0  0
  195.0940  173.1150  138.3830 C   0  0  2  0  0  3  0  0  0  0  0  0
  193.5010  172.1770  134.7070 O   0  0  0  0  0  1  0  0  0  0  0  0
  194.4760  173.7830  137.1660 C   0  0  1  0  0  3  0  0  0  0  0  0
  195.7140  174.9920  139.9530 N   0  0  0  0  0  2  0  0  0  0  0  0
  196.6670  175.8740  140.6050 C   0  0  0  0  0  1  0  0  0  0  0  0
  197.3350  173.8880  138.6830 O   0  0  0  0  0  0  0  0  0  0  0  0
  196.1180  174.0190  138.9870 C   0  0  0  0  0  0  0  0  0  0  0  0
  186.5330  177.6950  143.0670 C   0  0  0  0  0  1  0  0  0  0  0  0
  187.6500  177.3380  142.1000 C   0  0  2  0  0  3  0  0  0  0  0  0
  189.4320  178.1700  143.5510 N   0  0  0  0  0  0  0  0  0  0  0  0
  190.7250  177.7680  144.0950 C   0  0  2  0  0  3  0  0  0  0  0  0
  189.7120  176.0010  142.8320 N   0  0  0  0  0  2  0  0  0  0  0  0
  188.9200  177.1870  142.8750 C   0  0  0  0  0  0  0  0  0  0  0  0
  190.8350  176.3660  143.6110 C   0  0  0  0  0  0  0  0  0  0  0  0
  191.8180  175.6030  143.8070 O   0  0  0  0  0  0  0  0  0  0  0  0
  191.9140  177.2390  146.0970 O   0  0  0  0  0  1  0  0  0  0  0  0
  190.7820  177.9110  145.6260 C   0  0  2  0  0  3  0  0  0  0  0  0
  189.7140  177.5260  147.8650 C   0  0  0  0  0  1  0  0  0  0  0  0
  189.5280  177.4050  146.3600 C   0  0  1  0  0  3  0  0  0  0  0  0
  188.4070  178.1480  145.9850 O   0  0  0  0  0  1  0  0  0  0  0  0
  1  6  2  0  0  0  0
  2 14  1  0  0  0  0
  2  8  1  0  0  0  0
  3  5  1  0  0  0  0
  4 10  1  0  0  0  0
  5  9  2  0  0  0  0
  6  4  1  0  0  0  0
  6  9  1  0  0  0  0
  8  7  1  0  0  0  0
  8  4  2  0  0  0  0
  9 13  1  0  0  0  0
 10 13  1  0  0  0  0
 11 12  1  0  0  0  0
 11  1  1  0  0  0  0
 12  3  2  0  0  0  0
 13 45  1  1  0  0  0
 14 30  1  1  0  0  0
 14 15  1  0  0  0  0
 15  7  1  0  0  0  0
 16 19  1  0  0  0  0
 17  3  1  0  0  0  0
 18 21  1  0  0  0  0
 18 22  2  0  0  0  0
 19 17  2  0  0  0  0
 19 20  1  0  0  0  0
 21 16  2  0  0  0  0
 22 17  1  0  0  0  0
 23 18  1  0  0  0  0
 24 21  1  0  0  0  0
 25 29  1  0  0  0  0
 26 28  1  0  0  0  0
 26 27  1  0  0  0  0
 27 29  1  0  0  0  0
 28 25  1  0  0  0  0
 29 24  1  0  0  0  0
 30 31  1  1  0  0  0
 32 30  1  0  0  0  0
 33 35  1  6  0  0  0
 33 39  1  0  0  0  0
 33 37  1  0  0  0  0
 34 38  1  6  0  0  0
 34 35  1  0  0  0  0
 34 36  1  0  0  0  0
 36 32  1  6  0  0  0
 36 39  1  0  0  0  0
 37 43  1  1  0  0  0
 39 37  1  0  0  0  0
 40 41  1  0  0  0  0
 42 43  2  0  0  0  0
 43 40  1  0  0  0  0
 45 49  1  0  0  0  0
 45 44  1  0  0  0  0
 46 47  1  0  0  0  0
 47 53  1  0  0  0  0
 48 49  1  0  0  0  0
 48 50  1  0  0  0  0
 49 46  2  0  0  0  0
 50 51  2  0  0  0  0
 50 47  1  0  0  0  0
 53 52  1  0  0  0  0
 53 55  1  0  0  0  0
 55 54  1  0  0  0  0
 56 55  1  0  0  0  0
M  END
>  <MODEL>
9

>  <REMARK>
 VINA RESULT:      -5.0      4.276     11.764
  Name = 
  11 active torsions:
  status: ('A' for Active; 'I' for Inactive)
    1  A    between atoms: C_4  and  C_41
    2  A    between atoms: C_4  and  N_56
    3  A    between atoms: C_7  and  C_22
    4  A    between atoms: C_9  and  C_47
    5  A    between atoms: C_9  and  N_48
    6  A    between atoms: C_10  and  C_32
    7  A    between atoms: C_23  and  N_48
    8  A    between atoms: C_29  and  C_32
    9  A    between atoms: C_31  and  C_37
   10  A    between atoms: C_37  and  C_45
   11  A    between atoms: C_39  and  C_52
                            x       y       z     vdW  Elec       q    Type
                         _______ _______ _______ _____ _____    ______ ____

>  <TORSDO>
F 11

$$$$
