=
 OpenBabel10222421493D

 54 61  0  0  1  0  0  0  0  0999 V2000
  190.6090  176.4250  134.6940 N   0  0  0  0  0  0  0  0  0  0  0  0
  190.4190  176.5290  137.0960 C   0  0  0  0  0  0  0  0  0  0  0  0
  184.7140  178.6650  140.9220 C   0  0  2  0  0  3  0  0  0  0  0  0
  189.2860  176.8930  134.5700 N   0  0  0  0  0  2  0  0  0  0  0  0
  190.5210  176.5450  143.3840 C   0  0  0  0  0  2  0  0  0  0  0  0
  185.3760  178.9530  139.5570 C   0  0  0  0  0  2  0  0  0  0  0  0
  190.9420  176.2600  138.3720 C   0  0  0  0  0  3  0  0  0  0  0  0
  190.2310  176.6000  139.5270 C   0  0  0  0  0  0  0  0  0  0  0  0
  190.2970  177.1980  141.9990 C   0  0  2  0  0  3  0  0  0  0  0  0
  187.0040  177.7830  138.0290 C   0  0  0  0  0  0  0  0  0  0  0  0
  188.0160  176.9920  143.8850 C   0  0  2  0  0  3  0  0  0  0  0  0
  189.4840  177.0090  144.4360 C   0  0  2  0  0  3  0  0  0  0  0  0
  185.3980  178.1350  143.6310 S   0  0  0  0  0  0  0  0  0  0  0  0
  188.8140  177.5470  141.8570 C   0  0  2  0  0  3  0  0  0  0  0  0
  191.1750  176.2190  135.8410 C   0  0  0  0  0  0  0  0  0  0  0  0
  185.0360  178.3430  136.5150 C   0  0  0  0  0  1  0  0  0  0  0  0
  188.5370  177.2390  135.7290 C   0  0  0  0  0  0  0  0  0  0  0  0
  188.9770  177.2170  139.4120 C   0  0  0  0  0  0  0  0  0  0  0  0
  187.9990  176.6140  142.5240 O   0  0  0  0  0  0  0  0  0  0  0  0
  187.2300  177.7050  135.6030 C   0  0  0  0  0  3  0  0  0  0  0  0
  190.7920  176.2530  140.8860 C   0  0  0  0  0  2  0  0  0  0  0  0
  185.7770  178.0750  141.8490 C   0  0  0  0  0  2  0  0  0  0  0  0
  186.1930  177.8410  139.1720 O   0  0  0  0  0  0  0  0  0  0  0  0
  187.1730  178.2730  144.1350 C   0  0  0  0  0  2  0  0  0  0  0  0
  192.5510  175.8070  135.8310 N   0  0  0  0  0  2  0  0  0  0  0  0
  188.3640  177.3660  138.1530 C   0  0  0  0  0  0  0  0  0  0  0  0
  188.3660  177.7560  140.5350 O   0  0  0  0  0  0  0  0  0  0  0  0
  186.4670  177.9880  136.7410 C   0  0  0  0  0  0  0  0  0  0  0  0
  189.1120  177.0570  136.9930 C   0  0  0  0  0  0  0  0  0  0  0  0
  194.0680  174.7520  137.2950 C   0  0  0  0  0  0  0  0  0  0  0  0
  194.9710  174.8220  138.4650 C   0  0  0  0  0  3  0  0  0  0  0  0
  193.3710  175.7970  136.9700 N   0  0  0  0  0  0  0  0  0  0  0  0
  195.9800  172.6610  137.8210 C   0  0  0  0  0  2  0  0  0  0  0  0
  195.8360  173.8370  138.7340 C   0  0  0  0  0  3  0  0  0  0  0  0
  194.0610  173.5080  136.4320 C   0  0  0  0  0  2  0  0  0  0  0  0
  194.6180  172.3040  137.2050 C   0  0  0  0  0  2  0  0  0  0  0  0
  189.9000  178.2480  145.1660 C   0  0  0  0  0  0  0  0  0  0  0  0
  190.5290  179.1740  144.5730 O   0  0  0  0  0  0  0  0  0  0  0  0
  189.5030  178.4010  146.5030 O   0  0  0  0  0  0  0  0  0  0  0  0
  188.8950  177.6680  148.6150 O   0  0  0  0  0  1  0  0  0  0  0  0
  189.6270  177.3520  147.4680 C   0  0  2  0  0  3  0  0  0  0  0  0
  191.5440  175.8150  147.3250 N   0  0  0  0  0  1  0  0  0  0  0  0
  191.0870  177.1010  147.8430 C   0  0  0  0  0  2  0  0  0  0  0  0
  183.5980  177.6470  140.7190 C   0  0  0  0  0  2  0  0  0  0  0  0
  182.3370  177.0550  138.5590 C   0  0  0  0  0  0  0  0  0  0  0  0
  180.8030  179.2710  136.1160 O   0  0  0  0  0  0  0  0  0  0  0  0
  182.6890  175.8480  138.6950 O   0  0  0  0  0  0  0  0  0  0  0  0
  181.2610  178.8560  137.2180 C   0  0  0  0  0  0  0  0  0  0  0  0
  181.3600  176.5130  136.3120 C   0  0  0  0  0  1  0  0  0  0  0  0
  181.3740  179.8130  138.3780 C   0  0  2  0  0  3  0  0  0  0  0  0
  181.6350  177.4740  137.3740 N   0  0  0  0  0  0  0  0  0  0  0  0
  182.6970  178.0470  139.5910 C   0  0  0  0  0  0  0  0  0  0  0  0
  182.2820  179.3190  139.4780 C   0  0  0  0  0  3  0  0  0  0  0  0
  179.9930  180.1170  138.9380 C   0  0  0  0  0  1  0  0  0  0  0  0
  1 15  2  0  0  0  0
  2  7  1  0  0  0  0
  3 44  1  6  0  0  0
  3 22  1  0  0  0  0
  4  1  1  0  0  0  0
  4 17  1  0  0  0  0
  5 12  1  0  0  0  0
  6  3  1  0  0  0  0
  7  8  2  0  0  0  0
  8 21  1  0  0  0  0
  9 21  1  6  0  0  0
  9  5  1  0  0  0  0
 10 26  1  0  0  0  0
 10 23  1  0  0  0  0
 11 24  1  6  0  0  0
 11 12  1  0  0  0  0
 12 37  1  6  0  0  0
 13 24  1  0  0  0  0
 14 27  1  6  0  0  0
 14  9  1  0  0  0  0
 14 19  1  0  0  0  0
 15  2  1  0  0  0  0
 16 28  1  0  0  0  0
 17 29  1  0  0  0  0
 18  8  1  0  0  0  0
 18 27  1  0  0  0  0
 19 11  1  0  0  0  0
 20 17  2  0  0  0  0
 20 28  1  0  0  0  0
 22 13  1  0  0  0  0
 23  6  1  0  0  0  0
 25 15  1  0  0  0  0
 25 32  1  0  0  0  0
 26 18  2  0  0  0  0
 28 10  2  0  0  0  0
 29  2  2  0  0  0  0
 29 26  1  0  0  0  0
 30 31  1  0  0  0  0
 31 34  2  0  0  0  0
 32 30  2  0  0  0  0
 33 34  1  0  0  0  0
 35 36  1  0  0  0  0
 35 30  1  0  0  0  0
 36 33  1  0  0  0  0
 37 39  1  0  0  0  0
 38 37  2  0  0  0  0
 39 41  1  0  0  0  0
 41 43  1  0  0  0  0
 41 40  1  1  0  0  0
 42 43  1  0  0  0  0
 45 47  2  0  0  0  0
 45 52  1  0  0  0  0
 46 48  2  0  0  0  0
 48 51  1  0  0  0  0
 48 50  1  0  0  0  0
 49 51  1  0  0  0  0
 50 54  1  1  0  0  0
 50 53  1  0  0  0  0
 51 45  1  0  0  0  0
 52 44  1  0  0  0  0
 53 52  2  0  0  0  0
M  END
>  <MODEL>
1

>  <REMARK>
 VINA RESULT:      -8.5      0.000      0.000
  Name = 
  7 active torsions:
  status: ('A' for Active; 'I' for Inactive)
    1  A    between atoms: C_4  and  C_45
    2  A    between atoms: C_10  and  C_15
    3  A    between atoms: N_11  and  N_46
    4  A    between atoms: C_14  and  C_23
    5  A    between atoms: C_14  and  O_42
    6  A    between atoms: C_15  and  O_42
    7  A    between atoms: C_45  and  C_47
                            x       y       z     vdW  Elec       q    Type
                         _______ _______ _______ _____ _____    ______ ____

>  <TORSDO>
F 7

$$$$
=
 OpenBabel10222421493D

 54 61  0  0  1  0  0  0  0  0999 V2000
  180.5590  179.5250  142.1610 N   0  0  0  0  0  0  0  0  0  0  0  0
  182.3770  178.9180  140.6970 C   0  0  0  0  0  0  0  0  0  0  0  0
  189.1840  177.5220  142.5570 C   0  0  2  0  0  3  0  0  0  0  0  0
  181.4250  179.4390  143.2690 N   0  0  0  0  0  2  0  0  0  0  0  0
  186.6830  177.3440  136.3920 C   0  0  0  0  0  2  0  0  0  0  0  0
  188.0010  178.3940  143.0320 C   0  0  0  0  0  2  0  0  0  0  0  0
  182.8460  178.5600  139.4220 C   0  0  0  0  0  3  0  0  0  0  0  0
  184.1980  178.2750  139.2070 C   0  0  0  0  0  0  0  0  0  0  0  0
  186.1480  178.1870  137.5750 C   0  0  2  0  0  3  0  0  0  0  0  0
  185.5000  178.4130  142.7200 C   0  0  0  0  0  0  0  0  0  0  0  0
  188.6310  176.6050  137.9380 C   0  0  2  0  0  3  0  0  0  0  0  0
  188.2020  177.0640  136.5010 C   0  0  2  0  0  3  0  0  0  0  0  0
  190.4370  176.6280  140.1660 S   0  0  0  0  0  0  0  0  0  0  0  0
  187.0350  177.9370  138.7950 C   0  0  2  0  0  3  0  0  0  0  0  0
  180.9440  179.2730  140.9500 C   0  0  0  0  0  0  0  0  0  0  0  0
  185.8040  178.5090  145.2450 C   0  0  0  0  0  1  0  0  0  0  0  0
  182.8030  179.1440  143.0800 C   0  0  0  0  0  0  0  0  0  0  0  0
  185.0990  178.3460  140.2790 C   0  0  0  0  0  0  0  0  0  0  0  0
  187.5240  176.6180  138.8160 O   0  0  0  0  0  0  0  0  0  0  0  0
  183.6580  179.0630  144.1790 C   0  0  0  0  0  3  0  0  0  0  0  0
  184.6680  177.8430  137.8390 C   0  0  0  0  0  2  0  0  0  0  0  0
  188.9640  177.1890  141.0810 C   0  0  0  0  0  2  0  0  0  0  0  0
  186.7700  177.8430  142.5480 O   0  0  0  0  0  0  0  0  0  0  0  0
  189.8600  177.3280  138.5530 C   0  0  0  0  0  2  0  0  0  0  0  0
  179.9820  179.4650  139.9010 N   0  0  0  0  0  2  0  0  0  0  0  0
  184.6370  178.5580  141.5920 C   0  0  0  0  0  0  0  0  0  0  0  0
  186.4650  178.2840  140.0390 O   0  0  0  0  0  0  0  0  0  0  0  0
  185.0010  178.7120  144.0050 C   0  0  0  0  0  0  0  0  0  0  0  0
  183.2750  178.8860  141.7870 C   0  0  0  0  0  0  0  0  0  0  0  0
  180.4080  180.6040  137.8810 C   0  0  0  0  0  0  0  0  0  0  0  0
  180.8270  180.5730  136.4620 C   0  0  0  0  0  3  0  0  0  0  0  0
  180.3090  179.4880  138.5360 N   0  0  0  0  0  0  0  0  0  0  0  0
  181.0940  183.0280  136.4830 C   0  0  0  0  0  2  0  0  0  0  0  0
  181.1120  181.6990  135.7980 C   0  0  0  0  0  3  0  0  0  0  0  0
  180.2160  181.9370  138.5730 C   0  0  0  0  0  2  0  0  0  0  0  0
  179.9850  183.0560  137.5470 C   0  0  0  0  0  2  0  0  0  0  0  0
  189.0440  178.1300  135.8720 C   0  0  0  0  0  0  0  0  0  0  0  0
  189.1650  179.2690  136.4130 O   0  0  0  0  0  0  0  0  0  0  0  0
  189.7660  177.8140  134.7110 O   0  0  0  0  0  0  0  0  0  0  0  0
  189.4440  175.5200  134.7590 O   0  0  0  0  0  1  0  0  0  0  0  0
  190.3710  176.5340  134.5060 C   0  0  2  0  0  3  0  0  0  0  0  0
  191.4180  175.2050  136.2940 N   0  0  0  0  0  1  0  0  0  0  0  0
  191.5990  176.3410  135.3950 C   0  0  0  0  0  2  0  0  0  0  0  0
  189.2000  176.2340  143.3700 C   0  0  0  0  0  2  0  0  0  0  0  0
  188.9740  176.8490  145.8560 C   0  0  0  0  0  0  0  0  0  0  0  0
  191.5700  177.7210  148.2490 O   0  0  0  0  0  0  0  0  0  0  0  0
  187.7170  176.8900  145.7230 O   0  0  0  0  0  0  0  0  0  0  0  0
  191.0150  177.2150  147.2330 C   0  0  0  0  0  0  0  0  0  0  0  0
  188.7500  177.7250  148.1960 C   0  0  0  0  0  1  0  0  0  0  0  0
  191.8670  176.5510  146.1810 C   0  0  2  0  0  3  0  0  0  0  0  0
  189.5820  177.2430  147.0990 N   0  0  0  0  0  0  0  0  0  0  0  0
  189.8210  176.4480  144.7160 C   0  0  0  0  0  0  0  0  0  0  0  0
  191.1530  176.3530  144.8660 C   0  0  0  0  0  3  0  0  0  0  0  0
  192.3860  175.2180  146.6990 C   0  0  0  0  0  1  0  0  0  0  0  0
  1  4  1  0  0  0  0
  2 15  1  0  0  0  0
  2 29  1  0  0  0  0
  3  6  1  0  0  0  0
  3 44  1  1  0  0  0
  5 12  1  0  0  0  0
  7  2  2  0  0  0  0
  8  7  1  0  0  0  0
  8 18  2  0  0  0  0
  9  5  1  6  0  0  0
  9 21  1  0  0  0  0
  9 14  1  0  0  0  0
 10 28  1  0  0  0  0
 11 24  1  1  0  0  0
 11 19  1  0  0  0  0
 12 37  1  1  0  0  0
 12 11  1  0  0  0  0
 13 22  1  0  0  0  0
 14 19  1  1  0  0  0
 14 27  1  0  0  0  0
 15  1  2  0  0  0  0
 17  4  1  0  0  0  0
 17 20  1  0  0  0  0
 18 26  1  0  0  0  0
 21  8  1  0  0  0  0
 22  3  1  0  0  0  0
 23 10  1  0  0  0  0
 23  6  1  0  0  0  0
 24 13  1  0  0  0  0
 25 15  1  0  0  0  0
 26 29  1  0  0  0  0
 26 10  2  0  0  0  0
 27 18  1  0  0  0  0
 28 20  2  0  0  0  0
 28 16  1  0  0  0  0
 29 17  2  0  0  0  0
 30 32  2  0  0  0  0
 30 35  1  0  0  0  0
 31 30  1  0  0  0  0
 32 25  1  0  0  0  0
 33 36  1  0  0  0  0
 34 31  2  0  0  0  0
 34 33  1  0  0  0  0
 36 35  1  0  0  0  0
 37 38  2  0  0  0  0
 39 37  1  0  0  0  0
 41 39  1  0  0  0  0
 41 40  1  1  0  0  0
 41 43  1  0  0  0  0
 43 42  1  0  0  0  0
 44 52  1  0  0  0  0
 45 51  1  0  0  0  0
 47 45  2  0  0  0  0
 48 46  2  0  0  0  0
 50 54  1  1  0  0  0
 50 48  1  0  0  0  0
 51 48  1  0  0  0  0
 51 49  1  0  0  0  0
 52 53  2  0  0  0  0
 52 45  1  0  0  0  0
 53 50  1  0  0  0  0
M  END
>  <MODEL>
2

>  <REMARK>
 VINA RESULT:      -8.2      2.720     10.671
  Name = 
  7 active torsions:
  status: ('A' for Active; 'I' for Inactive)
    1  A    between atoms: C_4  and  C_45
    2  A    between atoms: C_10  and  C_15
    3  A    between atoms: N_11  and  N_46
    4  A    between atoms: C_14  and  C_23
    5  A    between atoms: C_14  and  O_42
    6  A    between atoms: C_15  and  O_42
    7  A    between atoms: C_45  and  C_47
                            x       y       z     vdW  Elec       q    Type
                         _______ _______ _______ _____ _____    ______ ____

>  <TORSDO>
F 7

$$$$
=
 OpenBabel10222421493D

 54 61  0  0  1  0  0  0  0  0999 V2000
  180.1620  179.5490  140.9470 N   0  0  0  0  0  0  0  0  0  0  0  0
  182.2120  178.8890  139.8590 C   0  0  0  0  0  0  0  0  0  0  0  0
  188.6160  177.7850  142.9450 C   0  0  2  0  0  3  0  0  0  0  0  0
  180.8260  179.5580  142.1890 N   0  0  0  0  0  2  0  0  0  0  0  0
  187.2110  177.1340  136.4720 C   0  0  0  0  0  2  0  0  0  0  0  0
  187.3580  178.6580  143.1480 C   0  0  0  0  0  2  0  0  0  0  0  0
  182.8960  178.4570  138.7110 C   0  0  0  0  0  3  0  0  0  0  0  0
  184.2690  178.1910  138.7500 C   0  0  0  0  0  0  0  0  0  0  0  0
  186.4700  178.0410  137.4840 C   0  0  2  0  0  3  0  0  0  0  0  0
  184.9470  178.5960  142.4160 C   0  0  0  0  0  0  0  0  0  0  0  0
  188.8740  176.5470  138.3750 C   0  0  2  0  0  3  0  0  0  0  0  0
  188.6920  176.8990  136.8570 C   0  0  2  0  0  3  0  0  0  0  0  0
  190.2710  176.7630  140.8700 S   0  0  0  0  0  0  0  0  0  0  0  0
  187.1380  177.8950  138.8520 C   0  0  2  0  0  3  0  0  0  0  0  0
  180.7520  179.2250  139.8400 C   0  0  0  0  0  0  0  0  0  0  0  0
  184.8130  178.8680  144.9420 C   0  0  0  0  0  1  0  0  0  0  0  0
  182.2200  179.2840  142.2590 C   0  0  0  0  0  0  0  0  0  0  0  0
  184.9720  178.3550  139.9520 C   0  0  0  0  0  0  0  0  0  0  0  0
  187.6330  176.5930  139.0480 O   0  0  0  0  0  0  0  0  0  0  0  0
  182.8740  179.2980  143.4900 C   0  0  0  0  0  3  0  0  0  0  0  0
  184.9720  177.6800  137.5160 C   0  0  0  0  0  2  0  0  0  0  0  0
  188.6550  177.3480  141.4790 C   0  0  0  0  0  2  0  0  0  0  0  0
  186.2350  178.0460  142.5030 O   0  0  0  0  0  0  0  0  0  0  0  0
  189.9700  177.3400  139.1380 C   0  0  0  0  0  2  0  0  0  0  0  0
  179.9820  179.3230  138.6310 N   0  0  0  0  0  2  0  0  0  0  0  0
  184.2890  178.6440  141.1490 C   0  0  0  0  0  0  0  0  0  0  0  0
  186.3590  178.3110  139.9530 O   0  0  0  0  0  0  0  0  0  0  0  0
  184.2310  178.9680  143.5720 C   0  0  0  0  0  0  0  0  0  0  0  0
  182.9100  178.9520  141.0870 C   0  0  0  0  0  0  0  0  0  0  0  0
  180.5810  178.1530  136.6740 C   0  0  0  0  0  0  0  0  0  0  0  0
  181.1120  178.1630  135.2930 C   0  0  0  0  0  3  0  0  0  0  0  0
  180.5380  179.2630  137.3440 N   0  0  0  0  0  0  0  0  0  0  0  0
  180.2980  175.8560  134.9580 C   0  0  0  0  0  2  0  0  0  0  0  0
  181.0150  177.0870  134.5040 C   0  0  0  0  0  3  0  0  0  0  0  0
  179.9920  176.8770  137.2370 C   0  0  0  0  0  2  0  0  0  0  0  0
  180.5070  175.6520  136.4670 C   0  0  0  0  0  2  0  0  0  0  0  0
  189.6160  177.9400  136.3070 C   0  0  0  0  0  0  0  0  0  0  0  0
  189.3620  179.1740  136.4430 O   0  0  0  0  0  0  0  0  0  0  0  0
  190.8150  177.5220  135.7100 O   0  0  0  0  0  0  0  0  0  0  0  0
  192.4950  176.3000  136.7350 O   0  0  0  0  0  1  0  0  0  0  0  0
  191.3650  176.2180  135.9180 C   0  0  2  0  0  3  0  0  0  0  0  0
  190.9260  174.3480  134.3790 N   0  0  0  0  0  1  0  0  0  0  0  0
  191.7330  175.5450  134.5970 C   0  0  0  0  0  2  0  0  0  0  0  0
  188.5070  176.5540  143.8370 C   0  0  0  0  0  2  0  0  0  0  0  0
  188.6770  177.1540  146.3310 C   0  0  0  0  0  0  0  0  0  0  0  0
  191.6380  177.8260  148.3320 O   0  0  0  0  0  0  0  0  0  0  0  0
  187.4200  177.2790  146.3780 O   0  0  0  0  0  0  0  0  0  0  0  0
  190.9130  177.3700  147.4040 C   0  0  0  0  0  0  0  0  0  0  0  0
  188.8470  178.0160  148.6810 C   0  0  0  0  0  1  0  0  0  0  0  0
  191.5610  176.6630  146.2410 C   0  0  2  0  0  3  0  0  0  0  0  0
  189.4800  177.4930  147.4760 N   0  0  0  0  0  0  0  0  0  0  0  0
  189.3260  176.7120  145.0810 C   0  0  0  0  0  0  0  0  0  0  0  0
  190.6560  176.5280  145.0400 C   0  0  0  0  0  3  0  0  0  0  0  0
  192.0580  175.2930  146.6770 C   0  0  0  0  0  1  0  0  0  0  0  0
  1  4  1  0  0  0  0
  2 29  1  0  0  0  0
  3  6  1  0  0  0  0
  3 44  1  1  0  0  0
  4 17  1  0  0  0  0
  5 12  1  0  0  0  0
  7  8  1  0  0  0  0
  7  2  2  0  0  0  0
  8 18  2  0  0  0  0
  9  5  1  6  0  0  0
  9 21  1  0  0  0  0
  9 14  1  0  0  0  0
 10 23  1  0  0  0  0
 10 28  1  0  0  0  0
 11 19  1  0  0  0  0
 11 24  1  1  0  0  0
 12 37  1  1  0  0  0
 12 11  1  0  0  0  0
 13 22  1  0  0  0  0
 14 19  1  1  0  0  0
 14 27  1  0  0  0  0
 15  2  1  0  0  0  0
 15  1  2  0  0  0  0
 17 20  1  0  0  0  0
 18 27  1  0  0  0  0
 18 26  1  0  0  0  0
 20 28  2  0  0  0  0
 21  8  1  0  0  0  0
 22  3  1  0  0  0  0
 23  6  1  0  0  0  0
 24 13  1  0  0  0  0
 25 15  1  0  0  0  0
 26 10  2  0  0  0  0
 28 16  1  0  0  0  0
 29 26  1  0  0  0  0
 29 17  2  0  0  0  0
 30 35  1  0  0  0  0
 30 32  2  0  0  0  0
 31 30  1  0  0  0  0
 32 25  1  0  0  0  0
 33 36  1  0  0  0  0
 34 33  1  0  0  0  0
 34 31  2  0  0  0  0
 36 35  1  0  0  0  0
 37 38  2  0  0  0  0
 39 41  1  0  0  0  0
 39 37  1  0  0  0  0
 41 40  1  1  0  0  0
 42 43  1  0  0  0  0
 43 41  1  0  0  0  0
 44 52  1  0  0  0  0
 45 47  2  0  0  0  0
 45 51  1  0  0  0  0
 48 51  1  0  0  0  0
 48 46  2  0  0  0  0
 50 54  1  1  0  0  0
 50 48  1  0  0  0  0
 51 49  1  0  0  0  0
 52 45  1  0  0  0  0
 53 52  2  0  0  0  0
 53 50  1  0  0  0  0
M  END
>  <MODEL>
3

>  <REMARK>
 VINA RESULT:      -8.1      2.636     10.254
  Name = 
  7 active torsions:
  status: ('A' for Active; 'I' for Inactive)
    1  A    between atoms: C_4  and  C_45
    2  A    between atoms: C_10  and  C_15
    3  A    between atoms: N_11  and  N_46
    4  A    between atoms: C_14  and  C_23
    5  A    between atoms: C_14  and  O_42
    6  A    between atoms: C_15  and  O_42
    7  A    between atoms: C_45  and  C_47
                            x       y       z     vdW  Elec       q    Type
                         _______ _______ _______ _____ _____    ______ ____

>  <TORSDO>
F 7

$$$$
=
 OpenBabel10222421493D

 54 61  0  0  1  0  0  0  0  0999 V2000
  185.9370  178.4320  146.9810 N   0  0  0  0  0  0  0  0  0  0  0  0
  186.3430  178.3640  144.6040 C   0  0  0  0  0  0  0  0  0  0  0  0
  181.4450  178.6600  139.3440 C   0  0  2  0  0  3  0  0  0  0  0  0
  184.5540  178.5460  146.7400 N   0  0  0  0  0  2  0  0  0  0  0  0
  188.0350  178.1770  138.5500 C   0  0  0  0  0  2  0  0  0  0  0  0
  181.5650  178.1560  140.7990 C   0  0  0  0  0  2  0  0  0  0  0  0
  187.2370  178.3700  143.5210 C   0  0  0  0  0  3  0  0  0  0  0  0
  186.7710  178.3260  142.2030 C   0  0  0  0  0  0  0  0  0  0  0  0
  187.2220  177.7010  139.7790 C   0  0  2  0  0  3  0  0  0  0  0  0
  183.0740  178.5920  142.7700 C   0  0  0  0  0  0  0  0  0  0  0  0
  185.7780  178.7800  137.4220 C   0  0  2  0  0  3  0  0  0  0  0  0
  187.2050  178.1550  137.2430 C   0  0  2  0  0  3  0  0  0  0  0  0
  182.9520  178.8080  136.9360 S   0  0  0  0  0  0  0  0  0  0  0  0
  185.7410  177.9900  139.5270 C   0  0  2  0  0  3  0  0  0  0  0  0
  186.8110  178.3650  146.0270 C   0  0  0  0  0  0  0  0  0  0  0  0
  180.7310  178.9150  143.7080 C   0  0  0  0  0  1  0  0  0  0  0  0
  184.0530  178.5120  145.4100 C   0  0  0  0  0  0  0  0  0  0  0  0
  185.3910  178.2760  141.9590 C   0  0  0  0  0  0  0  0  0  0  0  0
  185.5660  179.1600  138.7660 O   0  0  0  0  0  0  0  0  0  0  0  0
  182.6830  178.6210  145.1760 C   0  0  0  0  0  3  0  0  0  0  0  0
  187.7500  178.3860  141.0550 C   0  0  0  0  0  2  0  0  0  0  0  0
  182.8540  178.7460  138.7550 C   0  0  0  0  0  2  0  0  0  0  0  0
  182.6290  178.8460  141.4630 O   0  0  0  0  0  0  0  0  0  0  0  0
  184.5890  177.9490  136.8660 C   0  0  0  0  0  2  0  0  0  0  0  0
  188.1850  178.1800  146.4040 N   0  0  0  0  0  2  0  0  0  0  0  0
  184.4700  178.4160  143.0140 C   0  0  0  0  0  0  0  0  0  0  0  0
  184.9250  178.0090  140.6790 O   0  0  0  0  0  0  0  0  0  0  0  0
  182.1900  178.6500  143.8670 C   0  0  0  0  0  0  0  0  0  0  0  0
  184.9550  178.4170  144.3430 C   0  0  0  0  0  0  0  0  0  0  0  0
  190.2100  177.0990  145.8660 C   0  0  0  0  0  0  0  0  0  0  0  0
  191.2150  176.7030  144.8560 C   0  0  0  0  0  3  0  0  0  0  0  0
  189.2020  177.8320  145.5030 N   0  0  0  0  0  0  0  0  0  0  0  0
  192.2130  175.1170  146.4650 C   0  0  0  0  0  2  0  0  0  0  0  0
  192.1700  175.8090  145.1400 C   0  0  0  0  0  3  0  0  0  0  0  0
  190.3100  176.5490  147.2730 C   0  0  0  0  0  2  0  0  0  0  0  0
  191.7380  176.0710  147.5720 C   0  0  0  0  0  2  0  0  0  0  0  0
  187.2640  176.8390  136.5310 C   0  0  0  0  0  0  0  0  0  0  0  0
  187.3790  176.7850  135.2710 O   0  0  0  0  0  0  0  0  0  0  0  0
  187.2750  175.6640  137.2970 O   0  0  0  0  0  0  0  0  0  0  0  0
  186.8850  173.3830  137.4020 O   0  0  0  0  0  1  0  0  0  0  0  0
  187.5990  174.3860  136.7420 C   0  0  2  0  0  3  0  0  0  0  0  0
  189.7840  175.1380  137.5890 N   0  0  0  0  0  1  0  0  0  0  0  0
  189.0970  174.0950  136.8330 C   0  0  0  0  0  2  0  0  0  0  0  0
  180.8170  180.0480  139.3570 C   0  0  0  0  0  2  0  0  0  0  0  0
  181.3000  181.9770  137.7280 C   0  0  0  0  0  0  0  0  0  0  0  0
  179.9840  182.5420  134.3850 O   0  0  0  0  0  0  0  0  0  0  0  0
  181.9260  182.5830  138.6450 O   0  0  0  0  0  0  0  0  0  0  0  0
  180.3400  181.9300  135.4320 C   0  0  0  0  0  0  0  0  0  0  0  0
  181.5350  183.9870  136.2450 C   0  0  0  0  0  1  0  0  0  0  0  0
  180.0210  180.4640  135.5740 C   0  0  2  0  0  3  0  0  0  0  0  0
  181.0740  182.6200  136.4610 N   0  0  0  0  0  0  0  0  0  0  0  0
  180.7540  180.6290  137.9780 C   0  0  0  0  0  0  0  0  0  0  0  0
  180.1330  179.9590  136.9920 C   0  0  0  0  0  3  0  0  0  0  0  0
  180.9180  179.6460  134.6570 C   0  0  0  0  0  1  0  0  0  0  0  0
  2 15  1  0  0  0  0
  3 44  1  1  0  0  0
  3  6  1  0  0  0  0
  4  1  1  0  0  0  0
  6 23  1  0  0  0  0
  7  2  2  0  0  0  0
  8  7  1  0  0  0  0
  9  5  1  6  0  0  0
  9 21  1  0  0  0  0
 10 26  2  0  0  0  0
 10 28  1  0  0  0  0
 11 24  1  1  0  0  0
 11 19  1  0  0  0  0
 12 37  1  1  0  0  0
 12 11  1  0  0  0  0
 12  5  1  0  0  0  0
 13 22  1  0  0  0  0
 14 19  1  1  0  0  0
 14  9  1  0  0  0  0
 14 27  1  0  0  0  0
 15 25  1  0  0  0  0
 15  1  2  0  0  0  0
 16 28  1  0  0  0  0
 17  4  1  0  0  0  0
 18  8  2  0  0  0  0
 18 26  1  0  0  0  0
 20 17  1  0  0  0  0
 21  8  1  0  0  0  0
 22  3  1  0  0  0  0
 23 10  1  0  0  0  0
 24 13  1  0  0  0  0
 26 29  1  0  0  0  0
 27 18  1  0  0  0  0
 28 20  2  0  0  0  0
 29  2  1  0  0  0  0
 29 17  2  0  0  0  0
 30 35  1  0  0  0  0
 31 34  2  0  0  0  0
 31 30  1  0  0  0  0
 32 30  2  0  0  0  0
 32 25  1  0  0  0  0
 33 36  1  0  0  0  0
 34 33  1  0  0  0  0
 35 36  1  0  0  0  0
 37 39  1  0  0  0  0
 38 37  2  0  0  0  0
 41 43  1  0  0  0  0
 41 39  1  0  0  0  0
 41 40  1  1  0  0  0
 43 42  1  0  0  0  0
 45 52  1  0  0  0  0
 45 47  2  0  0  0  0
 46 48  2  0  0  0  0
 48 50  1  0  0  0  0
 48 51  1  0  0  0  0
 49 51  1  0  0  0  0
 50 54  1  6  0  0  0
 50 53  1  0  0  0  0
 51 45  1  0  0  0  0
 52 44  1  0  0  0  0
 53 52  2  0  0  0  0
M  END
>  <MODEL>
4

>  <REMARK>
 VINA RESULT:      -7.1      3.646      7.950
  Name = 
  7 active torsions:
  status: ('A' for Active; 'I' for Inactive)
    1  A    between atoms: C_4  and  C_45
    2  A    between atoms: C_10  and  C_15
    3  A    between atoms: N_11  and  N_46
    4  A    between atoms: C_14  and  C_23
    5  A    between atoms: C_14  and  O_42
    6  A    between atoms: C_15  and  O_42
    7  A    between atoms: C_45  and  C_47
                            x       y       z     vdW  Elec       q    Type
                         _______ _______ _______ _____ _____    ______ ____

>  <TORSDO>
F 7

$$$$
=
 OpenBabel10222421493D

 54 61  0  0  1  0  0  0  0  0999 V2000
  191.1550  177.4590  141.8340 N   0  0  0  0  0  0  0  0  0  0  0  0
  188.8040  177.7570  141.3830 C   0  0  0  0  0  0  0  0  0  0  0  0
  185.5640  177.7140  134.9610 C   0  0  2  0  0  3  0  0  0  0  0  0
  191.3980  177.3050  140.4550 N   0  0  0  0  0  2  0  0  0  0  0  0
  182.5890  178.5590  140.8530 C   0  0  0  0  0  2  0  0  0  0  0  0
  186.9290  178.0910  135.5760 C   0  0  0  0  0  2  0  0  0  0  0  0
  187.4830  177.8870  141.8430 C   0  0  0  0  0  3  0  0  0  0  0  0
  186.4190  178.0280  140.9460 C   0  0  0  0  0  0  0  0  0  0  0  0
  184.0630  178.8870  140.5160 C   0  0  2  0  0  3  0  0  0  0  0  0
  188.2020  177.5490  137.6820 C   0  0  0  0  0  0  0  0  0  0  0  0
  182.2590  177.9590  138.3510 C   0  0  2  0  0  3  0  0  0  0  0  0
  181.6590  178.6610  139.6200 C   0  0  2  0  0  3  0  0  0  0  0  0
  182.7810  177.8490  135.5340 S   0  0  0  0  0  0  0  0  0  0  0  0
  184.3130  178.5560  139.0430 C   0  0  2  0  0  3  0  0  0  0  0  0
  189.9690  177.6490  142.3190 C   0  0  0  0  0  0  0  0  0  0  0  0
  189.8570  177.0390  135.8170 C   0  0  0  0  0  1  0  0  0  0  0  0
  190.3340  177.4360  139.5200 C   0  0  0  0  0  0  0  0  0  0  0  0
  186.6740  178.0380  139.5670 C   0  0  0  0  0  0  0  0  0  0  0  0
  183.5470  177.4510  138.6260 O   0  0  0  0  0  0  0  0  0  0  0  0
  190.5790  177.2870  138.1560 C   0  0  0  0  0  3  0  0  0  0  0  0
  185.0040  178.1150  141.4640 C   0  0  0  0  0  2  0  0  0  0  0  0
  184.5180  177.7440  136.0770 C   0  0  0  0  0  2  0  0  0  0  0  0
  187.1120  177.3930  136.8120 O   0  0  0  0  0  0  0  0  0  0  0  0
  182.2340  178.7830  137.0340 C   0  0  0  0  0  2  0  0  0  0  0  0
  189.8630  177.8610  143.7360 N   0  0  0  0  0  2  0  0  0  0  0  0
  187.9640  177.7640  139.0730 C   0  0  0  0  0  0  0  0  0  0  0  0
  185.6680  178.3970  138.6810 O   0  0  0  0  0  0  0  0  0  0  0  0
  189.5260  177.3530  137.2380 C   0  0  0  0  0  0  0  0  0  0  0  0
  189.0350  177.6660  139.9920 C   0  0  0  0  0  0  0  0  0  0  0  0
  188.4200  178.0060  145.5940 C   0  0  0  0  0  0  0  0  0  0  0  0
  187.2230  178.5920  146.2370 C   0  0  0  0  0  3  0  0  0  0  0  0
  188.7050  178.3330  144.3710 N   0  0  0  0  0  0  0  0  0  0  0  0
  187.9590  177.7070  148.4220 C   0  0  0  0  0  2  0  0  0  0  0  0
  186.9850  178.4260  147.5430 C   0  0  0  0  0  3  0  0  0  0  0  0
  189.3500  177.1320  146.4070 C   0  0  0  0  0  2  0  0  0  0  0  0
  188.6310  176.5680  147.6400 C   0  0  0  0  0  2  0  0  0  0  0  0
  181.1050  180.0360  139.4120 C   0  0  0  0  0  0  0  0  0  0  0  0
  180.0170  180.3890  139.9560 O   0  0  0  0  0  0  0  0  0  0  0  0
  181.8610  180.9560  138.6700 O   0  0  0  0  0  0  0  0  0  0  0  0
  180.7750  181.9560  136.8860 O   0  0  0  0  0  1  0  0  0  0  0  0
  181.3070  182.1720  138.1580 C   0  0  2  0  0  3  0  0  0  0  0  0
  181.8570  184.4230  137.3280 N   0  0  0  0  0  1  0  0  0  0  0  0
  182.3530  183.2850  138.0960 C   0  0  0  0  0  2  0  0  0  0  0  0
  185.6560  176.3040  134.3910 C   0  0  0  0  0  2  0  0  0  0  0  0
  186.3450  174.4240  136.0030 C   0  0  0  0  0  0  0  0  0  0  0  0
  184.2540  171.9930  137.7210 O   0  0  0  0  0  0  0  0  0  0  0  0
  187.5590  174.6420  135.7250 O   0  0  0  0  0  0  0  0  0  0  0  0
  184.5960  173.0580  137.1340 C   0  0  0  0  0  0  0  0  0  0  0  0
  187.0170  172.4140  137.3460 C   0  0  0  0  0  1  0  0  0  0  0  0
  183.5430  174.0760  136.7770 C   0  0  2  0  0  3  0  0  0  0  0  0
  185.9840  173.3120  136.8430 N   0  0  0  0  0  0  0  0  0  0  0  0
  185.2920  175.2780  135.4200 C   0  0  0  0  0  0  0  0  0  0  0  0
  184.0050  175.0840  135.7520 C   0  0  0  0  0  3  0  0  0  0  0  0
  183.0630  174.7900  138.0310 C   0  0  0  0  0  1  0  0  0  0  0  0
  1 15  2  0  0  0  0
  2  7  1  0  0  0  0
  2 15  1  0  0  0  0
  3 44  1  1  0  0  0
  3  6  1  0  0  0  0
  3 22  1  0  0  0  0
  4  1  1  0  0  0  0
  6 23  1  0  0  0  0
  8 21  1  0  0  0  0
  8  7  2  0  0  0  0
  9  5  1  1  0  0  0
  9 21  1  0  0  0  0
 10 26  1  0  0  0  0
 11 24  1  6  0  0  0
 11 19  1  0  0  0  0
 11 12  1  0  0  0  0
 12 37  1  6  0  0  0
 12  5  1  0  0  0  0
 13 22  1  0  0  0  0
 13 24  1  0  0  0  0
 14 19  1  1  0  0  0
 14  9  1  0  0  0  0
 15 25  1  0  0  0  0
 16 28  1  0  0  0  0
 17 29  1  0  0  0  0
 17  4  1  0  0  0  0
 18  8  1  0  0  0  0
 20 17  2  0  0  0  0
 23 10  1  0  0  0  0
 25 32  1  0  0  0  0
 26 18  2  0  0  0  0
 26 29  1  0  0  0  0
 27 14  1  0  0  0  0
 27 18  1  0  0  0  0
 28 10  2  0  0  0  0
 28 20  1  0  0  0  0
 29  2  2  0  0  0  0
 30 31  1  0  0  0  0
 30 35  1  0  0  0  0
 31 34  2  0  0  0  0
 32 30  2  0  0  0  0
 34 33  1  0  0  0  0
 35 36  1  0  0  0  0
 36 33  1  0  0  0  0
 37 38  2  0  0  0  0
 39 37  1  0  0  0  0
 41 40  1  6  0  0  0
 41 39  1  0  0  0  0
 42 43  1  0  0  0  0
 43 41  1  0  0  0  0
 44 52  1  0  0  0  0
 45 51  1  0  0  0  0
 47 45  2  0  0  0  0
 48 46  2  0  0  0  0
 50 48  1  0  0  0  0
 50 54  1  1  0  0  0
 51 48  1  0  0  0  0
 51 49  1  0  0  0  0
 52 53  2  0  0  0  0
 52 45  1  0  0  0  0
 53 50  1  0  0  0  0
M  END
>  <MODEL>
5

>  <REMARK>
 VINA RESULT:      -6.7      3.828      8.285
  Name = 
  7 active torsions:
  status: ('A' for Active; 'I' for Inactive)
    1  A    between atoms: C_4  and  C_45
    2  A    between atoms: C_10  and  C_15
    3  A    between atoms: N_11  and  N_46
    4  A    between atoms: C_14  and  C_23
    5  A    between atoms: C_14  and  O_42
    6  A    between atoms: C_15  and  O_42
    7  A    between atoms: C_45  and  C_47
                            x       y       z     vdW  Elec       q    Type
                         _______ _______ _______ _____ _____    ______ ____

>  <TORSDO>
F 7

$$$$
=
 OpenBabel10222421493D

 54 61  0  0  1  0  0  0  0  0999 V2000
  186.5980  178.0210  147.9850 N   0  0  0  0  0  0  0  0  0  0  0  0
  187.5930  177.7800  145.8010 C   0  0  0  0  0  0  0  0  0  0  0  0
  184.3940  178.7370  139.4290 C   0  0  2  0  0  3  0  0  0  0  0  0
  185.3730  178.3750  147.3860 N   0  0  0  0  0  2  0  0  0  0  0  0
  190.7510  177.0310  140.4140 C   0  0  0  0  0  2  0  0  0  0  0  0
  184.0310  178.2820  140.8600 C   0  0  0  0  0  2  0  0  0  0  0  0
  188.7260  177.5780  144.9950 C   0  0  0  0  0  3  0  0  0  0  0  0
  188.6220  177.5630  143.6000 C   0  0  0  0  0  0  0  0  0  0  0  0
  189.5700  176.7640  141.3780 C   0  0  2  0  0  3  0  0  0  0  0  0
  185.0230  178.5200  143.1650 C   0  0  0  0  0  0  0  0  0  0  0  0
  189.0230  177.9860  138.7310 C   0  0  2  0  0  3  0  0  0  0  0  0
  190.3050  177.1050  138.9330 C   0  0  2  0  0  3  0  0  0  0  0  0
  186.4810  178.5070  137.5110 S   0  0  0  0  0  0  0  0  0  0  0  0
  188.2880  177.3060  140.7440 C   0  0  2  0  0  3  0  0  0  0  0  0
  187.6630  177.7570  147.2970 C   0  0  0  0  0  0  0  0  0  0  0  0
  182.6180  179.3030  143.4480 C   0  0  0  0  0  1  0  0  0  0  0  0
  185.2410  178.3750  145.9690 C   0  0  0  0  0  0  0  0  0  0  0  0
  187.3710  177.7540  142.9970 C   0  0  0  0  0  0  0  0  0  0  0  0
  188.5410  178.4550  139.9720 O   0  0  0  0  0  0  0  0  0  0  0  0
  184.0270  178.7220  145.3800 C   0  0  0  0  0  3  0  0  0  0  0  0
  189.8620  177.3940  142.7550 C   0  0  0  0  0  2  0  0  0  0  0  0
  185.8990  178.5400  139.2380 C   0  0  0  0  0  2  0  0  0  0  0  0
  184.9930  178.7940  141.7890 O   0  0  0  0  0  0  0  0  0  0  0  0
  187.8880  177.3620  137.8720 C   0  0  0  0  0  2  0  0  0  0  0  0
  188.8300  177.3410  148.0250 N   0  0  0  0  0  2  0  0  0  0  0  0
  186.2480  178.1040  143.7700 C   0  0  0  0  0  0  0  0  0  0  0  0
  187.2160  177.5220  141.6370 O   0  0  0  0  0  0  0  0  0  0  0  0
  183.9090  178.7850  143.9870 C   0  0  0  0  0  0  0  0  0  0  0  0
  186.3580  178.0730  145.1800 C   0  0  0  0  0  0  0  0  0  0  0  0
  191.1260  176.8050  148.0040 C   0  0  0  0  0  0  0  0  0  0  0  0
  192.2720  176.1300  147.3570 C   0  0  0  0  0  3  0  0  0  0  0  0
  189.9650  176.7760  147.4240 N   0  0  0  0  0  0  0  0  0  0  0  0
  193.6100  176.4240  149.4130 C   0  0  0  0  0  2  0  0  0  0  0  0
  193.4400  175.9820  147.9940 C   0  0  0  0  0  3  0  0  0  0  0  0
  191.2980  177.4160  149.3780 C   0  0  0  0  0  2  0  0  0  0  0  0
  192.7800  177.6910  149.6710 C   0  0  0  0  0  2  0  0  0  0  0  0
  190.3020  175.7710  138.2530 C   0  0  0  0  0  0  0  0  0  0  0  0
  189.2780  175.3590  137.6300 O   0  0  0  0  0  0  0  0  0  0  0  0
  191.4870  175.0210  138.2450 O   0  0  0  0  0  0  0  0  0  0  0  0
  193.1840  173.8020  137.2450 O   0  0  0  0  0  1  0  0  0  0  0  0
  192.2890  174.8600  137.0710 C   0  0  2  0  0  3  0  0  0  0  0  0
  193.6760  176.7010  137.9340 N   0  0  0  0  0  1  0  0  0  0  0  0
  193.0610  176.1360  136.7370 C   0  0  0  0  0  2  0  0  0  0  0  0
  184.0540  180.2150  139.2850 C   0  0  0  0  0  2  0  0  0  0  0  0
  182.2530  179.2570  137.7220 C   0  0  0  0  0  0  0  0  0  0  0  0
  179.9820  181.0130  135.4890 O   0  0  0  0  0  0  0  0  0  0  0  0
  182.6830  178.0910  137.9560 O   0  0  0  0  0  0  0  0  0  0  0  0
  180.7560  180.7980  136.4640 C   0  0  0  0  0  0  0  0  0  0  0  0
  180.6950  178.3310  135.9870 C   0  0  0  0  0  1  0  0  0  0  0  0
  181.1550  181.9460  137.3570 C   0  0  2  0  0  3  0  0  0  0  0  0
  181.2210  179.4640  136.7400 N   0  0  0  0  0  0  0  0  0  0  0  0
  182.8500  180.4140  138.4180 C   0  0  0  0  0  0  0  0  0  0  0  0
  182.3630  181.6490  138.2120 C   0  0  0  0  0  3  0  0  0  0  0  0
  179.9820  182.3540  138.2340 C   0  0  0  0  0  1  0  0  0  0  0  0
  2 15  1  0  0  0  0
  3 44  1  1  0  0  0
  3  6  1  0  0  0  0
  4  1  1  0  0  0  0
  6 23  1  0  0  0  0
  7  2  2  0  0  0  0
  8  7  1  0  0  0  0
  9  5  1  6  0  0  0
  9 21  1  0  0  0  0
 10 26  2  0  0  0  0
 10 28  1  0  0  0  0
 11 24  1  1  0  0  0
 11 12  1  0  0  0  0
 11 19  1  0  0  0  0
 12 37  1  1  0  0  0
 12  5  1  0  0  0  0
 13 24  1  0  0  0  0
 13 22  1  0  0  0  0
 14 19  1  1  0  0  0
 14  9  1  0  0  0  0
 14 27  1  0  0  0  0
 15  1  2  0  0  0  0
 15 25  1  0  0  0  0
 16 28  1  0  0  0  0
 17  4  1  0  0  0  0
 18  8  2  0  0  0  0
 18 26  1  0  0  0  0
 20 17  1  0  0  0  0
 21  8  1  0  0  0  0
 22  3  1  0  0  0  0
 23 10  1  0  0  0  0
 26 29  1  0  0  0  0
 27 18  1  0  0  0  0
 28 20  2  0  0  0  0
 29  2  1  0  0  0  0
 29 17  2  0  0  0  0
 30 35  1  0  0  0  0
 31 34  2  0  0  0  0
 31 30  1  0  0  0  0
 32 30  2  0  0  0  0
 32 25  1  0  0  0  0
 33 36  1  0  0  0  0
 34 33  1  0  0  0  0
 35 36  1  0  0  0  0
 38 37  2  0  0  0  0
 39 37  1  0  0  0  0
 41 40  1  1  0  0  0
 41 39  1  0  0  0  0
 43 41  1  0  0  0  0
 43 42  1  0  0  0  0
 45 47  2  0  0  0  0
 45 52  1  0  0  0  0
 46 48  2  0  0  0  0
 48 51  1  0  0  0  0
 48 50  1  0  0  0  0
 49 51  1  0  0  0  0
 50 53  1  0  0  0  0
 50 54  1  1  0  0  0
 51 45  1  0  0  0  0
 52 44  1  0  0  0  0
 53 52  2  0  0  0  0
M  END
>  <MODEL>
6

>  <REMARK>
 VINA RESULT:      -6.6      2.617      7.780
  Name = 
  7 active torsions:
  status: ('A' for Active; 'I' for Inactive)
    1  A    between atoms: C_4  and  C_45
    2  A    between atoms: C_10  and  C_15
    3  A    between atoms: N_11  and  N_46
    4  A    between atoms: C_14  and  C_23
    5  A    between atoms: C_14  and  O_42
    6  A    between atoms: C_15  and  O_42
    7  A    between atoms: C_45  and  C_47
                            x       y       z     vdW  Elec       q    Type
                         _______ _______ _______ _____ _____    ______ ____

>  <TORSDO>
F 7

$$$$
=
 OpenBabel10222421493D

 54 61  0  0  1  0  0  0  0  0999 V2000
  183.3150  177.2070  134.8730 N   0  0  0  0  0  0  0  0  0  0  0  0
  184.4990  177.6290  136.9320 C   0  0  0  0  0  0  0  0  0  0  0  0
  191.2700  175.7860  138.5150 C   0  0  2  0  0  3  0  0  0  0  0  0
  184.4590  176.5770  134.3460 N   0  0  0  0  0  2  0  0  0  0  0  0
  187.0560  179.0500  142.4990 C   0  0  0  0  0  2  0  0  0  0  0  0
  190.0920  175.2730  137.6580 C   0  0  0  0  0  2  0  0  0  0  0  0
  184.5640  178.2380  138.1970 C   0  0  0  0  0  3  0  0  0  0  0  0
  185.6940  178.0910  139.0080 C   0  0  0  0  0  0  0  0  0  0  0  0
  186.6710  178.0790  141.3570 C   0  0  2  0  0  3  0  0  0  0  0  0
  187.9800  176.2420  136.6810 C   0  0  0  0  0  0  0  0  0  0  0  0
  189.5360  178.4480  142.0340 C   0  0  2  0  0  3  0  0  0  0  0  0
  188.4370  178.7230  143.1180 C   0  0  2  0  0  3  0  0  0  0  0  0
  191.7950  176.9900  141.0370 S   0  0  0  0  0  0  0  0  0  0  0  0
  187.9540  177.5420  140.7180 C   0  0  2  0  0  3  0  0  0  0  0  0
  183.2870  177.7300  136.0580 C   0  0  0  0  0  0  0  0  0  0  0  0
  189.1230  175.1360  134.6950 C   0  0  0  0  0  1  0  0  0  0  0  0
  185.6240  176.4210  135.1470 C   0  0  0  0  0  0  0  0  0  0  0  0
  186.7770  177.3260  138.5540 C   0  0  0  0  0  0  0  0  0  0  0  0
  188.9810  178.5040  140.7370 O   0  0  0  0  0  0  0  0  0  0  0  0
  186.7540  175.7930  134.6230 C   0  0  0  0  0  3  0  0  0  0  0  0
  185.7600  178.7970  140.3410 C   0  0  0  0  0  2  0  0  0  0  0  0
  190.7010  176.6870  139.6110 C   0  0  0  0  0  2  0  0  0  0  0  0
  189.1970  176.3540  137.3710 O   0  0  0  0  0  0  0  0  0  0  0  0
  190.3970  177.1710  142.2360 C   0  0  0  0  0  2  0  0  0  0  0  0
  182.0370  178.2810  136.5050 N   0  0  0  0  0  2  0  0  0  0  0  0
  186.8020  176.8270  137.2370 C   0  0  0  0  0  0  0  0  0  0  0  0
  187.8020  176.9900  139.4280 O   0  0  0  0  0  0  0  0  0  0  0  0
  187.9230  175.6920  135.3840 C   0  0  0  0  0  0  0  0  0  0  0  0
  185.6370  176.9480  136.4440 C   0  0  0  0  0  0  0  0  0  0  0  0
  181.2500  177.8030  138.6750 C   0  0  0  0  0  0  0  0  0  0  0  0
  181.0610  178.2150  140.0830 C   0  0  0  0  0  3  0  0  0  0  0  0
  181.7740  178.6420  137.8350 N   0  0  0  0  0  0  0  0  0  0  0  0
  180.5280  175.8830  140.6980 C   0  0  0  0  0  2  0  0  0  0  0  0
  180.6910  177.3350  141.0210 C   0  0  0  0  0  3  0  0  0  0  0  0
  180.9380  176.3790  138.2660 C   0  0  0  0  0  2  0  0  0  0  0  0
  179.9820  175.7200  139.2710 C   0  0  0  0  0  2  0  0  0  0  0  0
  188.3590  177.7360  144.2420 C   0  0  0  0  0  0  0  0  0  0  0  0
  187.5670  176.7490  144.1890 O   0  0  0  0  0  0  0  0  0  0  0  0
  189.2450  177.8800  145.3200 O   0  0  0  0  0  0  0  0  0  0  0  0
  188.2150  177.0410  147.2180 O   0  0  0  0  0  1  0  0  0  0  0  0
  189.3280  176.9240  146.3820 C   0  0  2  0  0  3  0  0  0  0  0  0
  191.7360  176.4430  146.5490 N   0  0  0  0  0  1  0  0  0  0  0  0
  190.6060  177.1000  147.2000 C   0  0  0  0  0  2  0  0  0  0  0  0
  192.2040  176.5990  137.6260 C   0  0  0  0  0  2  0  0  0  0  0  0
  194.3460  175.1980  137.3860 C   0  0  0  0  0  0  0  0  0  0  0  0
  195.8720  173.8370  134.3780 O   0  0  0  0  0  0  0  0  0  0  0  0
  194.6130  175.4130  138.6030 O   0  0  0  0  0  0  0  0  0  0  0  0
  194.9870  174.2850  135.1600 C   0  0  0  0  0  0  0  0  0  0  0  0
  196.5740  174.0800  137.0980 C   0  0  0  0  0  1  0  0  0  0  0  0
  193.6010  174.5520  134.6300 C   0  0  2  0  0  3  0  0  0  0  0  0
  195.2900  174.5040  136.5500 N   0  0  0  0  0  0  0  0  0  0  0  0
  193.0870  175.7080  136.8080 C   0  0  0  0  0  0  0  0  0  0  0  0
  192.7740  175.4380  135.5300 C   0  0  0  0  0  3  0  0  0  0  0  0
  192.8770  173.2370  134.3840 C   0  0  0  0  0  1  0  0  0  0  0  0
  1 15  2  0  0  0  0
  2  7  1  0  0  0  0
  3 44  1  6  0  0  0
  3 22  1  0  0  0  0
  4  1  1  0  0  0  0
  4 17  1  0  0  0  0
  5 12  1  0  0  0  0
  6  3  1  0  0  0  0
  7  8  2  0  0  0  0
  8 21  1  0  0  0  0
  9 21  1  6  0  0  0
  9  5  1  0  0  0  0
 10 26  1  0  0  0  0
 10 23  1  0  0  0  0
 11 24  1  1  0  0  0
 11 12  1  0  0  0  0
 12 37  1  1  0  0  0
 13 24  1  0  0  0  0
 14 27  1  6  0  0  0
 14 19  1  0  0  0  0
 14  9  1  0  0  0  0
 15 25  1  0  0  0  0
 15  2  1  0  0  0  0
 16 28  1  0  0  0  0
 17 29  1  0  0  0  0
 18  8  1  0  0  0  0
 18 27  1  0  0  0  0
 19 11  1  0  0  0  0
 20 17  2  0  0  0  0
 20 28  1  0  0  0  0
 22 13  1  0  0  0  0
 23  6  1  0  0  0  0
 25 32  1  0  0  0  0
 26 18  2  0  0  0  0
 28 10  2  0  0  0  0
 29  2  2  0  0  0  0
 29 26  1  0  0  0  0
 30 31  1  0  0  0  0
 31 34  2  0  0  0  0
 32 30  2  0  0  0  0
 33 34  1  0  0  0  0
 35 30  1  0  0  0  0
 35 36  1  0  0  0  0
 36 33  1  0  0  0  0
 37 39  1  0  0  0  0
 38 37  2  0  0  0  0
 39 41  1  0  0  0  0
 41 43  1  0  0  0  0
 41 40  1  1  0  0  0
 42 43  1  0  0  0  0
 45 47  2  0  0  0  0
 46 48  2  0  0  0  0
 48 51  1  0  0  0  0
 50 54  1  1  0  0  0
 50 48  1  0  0  0  0
 50 53  1  0  0  0  0
 51 49  1  0  0  0  0
 51 45  1  0  0  0  0
 52 45  1  0  0  0  0
 52 44  1  0  0  0  0
 53 52  2  0  0  0  0
M  END
>  <MODEL>
7

>  <REMARK>
 VINA RESULT:      -5.9      2.622      8.800
  Name = 
  7 active torsions:
  status: ('A' for Active; 'I' for Inactive)
    1  A    between atoms: C_4  and  C_45
    2  A    between atoms: C_10  and  C_15
    3  A    between atoms: N_11  and  N_46
    4  A    between atoms: C_14  and  C_23
    5  A    between atoms: C_14  and  O_42
    6  A    between atoms: C_15  and  O_42
    7  A    between atoms: C_45  and  C_47
                            x       y       z     vdW  Elec       q    Type
                         _______ _______ _______ _____ _____    ______ ____

>  <TORSDO>
F 7

$$$$
=
 OpenBabel10222421493D

 54 61  0  0  1  0  0  0  0  0999 V2000
  191.3050  177.6420  142.4870 N   0  0  0  0  0  0  0  0  0  0  0  0
  188.9290  177.8930  142.1470 C   0  0  0  0  0  0  0  0  0  0  0  0
  185.3450  177.3790  135.9320 C   0  0  2  0  0  3  0  0  0  0  0  0
  191.4740  177.3920  141.1110 N   0  0  0  0  0  2  0  0  0  0  0  0
  182.6870  178.6190  141.9060 C   0  0  0  0  0  2  0  0  0  0  0  0
  186.7380  177.8070  136.4430 C   0  0  0  0  0  2  0  0  0  0  0  0
  187.6340  178.0470  142.6690 C   0  0  0  0  0  3  0  0  0  0  0  0
  186.5220  178.1190  141.8240 C   0  0  0  0  0  0  0  0  0  0  0  0
  184.1380  178.9300  141.4650 C   0  0  2  0  0  3  0  0  0  0  0  0
  188.1290  177.4210  138.5090 C   0  0  0  0  0  0  0  0  0  0  0  0
  182.2270  177.8420  139.4740 C   0  0  2  0  0  3  0  0  0  0  0  0
  181.6910  178.6280  140.7210 C   0  0  2  0  0  3  0  0  0  0  0  0
  182.5970  177.5370  136.6470 S   0  0  0  0  0  0  0  0  0  0  0  0
  184.3110  178.4980  140.0080 C   0  0  2  0  0  3  0  0  0  0  0  0
  190.1450  177.8580  143.0230 C   0  0  0  0  0  0  0  0  0  0  0  0
  189.6850  176.7920  136.5960 C   0  0  0  0  0  1  0  0  0  0  0  0
  190.3590  177.4510  140.2300 C   0  0  0  0  0  0  0  0  0  0  0  0
  186.7010  178.0330  140.4360 C   0  0  0  0  0  0  0  0  0  0  0  0
  183.5340  177.3630  139.7120 O   0  0  0  0  0  0  0  0  0  0  0  0
  190.5310  177.2080  138.8680 C   0  0  0  0  0  3  0  0  0  0  0  0
  185.1360  178.2330  142.4120 C   0  0  0  0  0  2  0  0  0  0  0  0
  184.3620  177.4810  137.0990 C   0  0  0  0  0  2  0  0  0  0  0  0
  186.9950  177.1980  137.7130 O   0  0  0  0  0  0  0  0  0  0  0  0
  182.1230  178.5710  138.1060 C   0  0  0  0  0  2  0  0  0  0  0  0
  190.1150  178.1690  144.4250 N   0  0  0  0  0  2  0  0  0  0  0  0
  187.9650  177.7320  139.8930 C   0  0  0  0  0  0  0  0  0  0  0  0
  185.6450  178.3230  139.5830 O   0  0  0  0  0  0  0  0  0  0  0  0
  189.4280  177.2030  138.0070 C   0  0  0  0  0  0  0  0  0  0  0  0
  189.0860  177.7050  140.7550 C   0  0  0  0  0  0  0  0  0  0  0  0
  188.5870  178.1860  146.2200 C   0  0  0  0  0  0  0  0  0  0  0  0
  187.4360  178.8100  146.9100 C   0  0  0  0  0  3  0  0  0  0  0  0
  188.9880  178.6780  145.0880 N   0  0  0  0  0  0  0  0  0  0  0  0
  187.9140  177.4670  148.9280 C   0  0  0  0  0  2  0  0  0  0  0  0
  187.0970  178.4530  148.1550 C   0  0  0  0  0  3  0  0  0  0  0  0
  189.3460  177.0660  146.8990 C   0  0  0  0  0  2  0  0  0  0  0  0
  188.4840  176.4000  147.9810 C   0  0  0  0  0  2  0  0  0  0  0  0
  181.1130  179.9820  140.4490 C   0  0  0  0  0  0  0  0  0  0  0  0
  180.1760  180.4460  141.1630 O   0  0  0  0  0  0  0  0  0  0  0  0
  181.6900  180.7630  139.4360 O   0  0  0  0  0  0  0  0  0  0  0  0
  180.0140  181.3370  137.9430 O   0  0  0  0  0  1  0  0  0  0  0  0
  180.9920  181.8400  138.8030 C   0  0  2  0  0  3  0  0  0  0  0  0
  181.2610  183.9590  137.5800 N   0  0  0  0  0  1  0  0  0  0  0  0
  181.9430  182.7470  138.0240 C   0  0  0  0  0  2  0  0  0  0  0  0
  185.4200  175.9330  135.4580 C   0  0  0  0  0  2  0  0  0  0  0  0
  183.7100  174.3130  136.4890 C   0  0  0  0  0  0  0  0  0  0  0  0
  180.6330  173.0070  135.0550 O   0  0  0  0  0  0  0  0  0  0  0  0
  184.4990  174.1080  137.4540 O   0  0  0  0  0  0  0  0  0  0  0  0
  181.6110  173.7800  135.2600 C   0  0  0  0  0  0  0  0  0  0  0  0
  182.1840  172.5220  137.3590 C   0  0  0  0  0  1  0  0  0  0  0  0
  181.8230  174.9610  134.3470 C   0  0  2  0  0  3  0  0  0  0  0  0
  182.4920  173.5550  136.3770 N   0  0  0  0  0  0  0  0  0  0  0  0
  184.0650  175.2950  135.4450 C   0  0  0  0  0  0  0  0  0  0  0  0
  183.2070  175.5550  134.4440 C   0  0  0  0  0  3  0  0  0  0  0  0
  180.7760  176.0290  134.6280 C   0  0  0  0  0  1  0  0  0  0  0  0
  1 15  2  0  0  0  0
  2  7  1  0  0  0  0
  2 15  1  0  0  0  0
  3 44  1  1  0  0  0
  3  6  1  0  0  0  0
  3 22  1  0  0  0  0
  4  1  1  0  0  0  0
  6 23  1  0  0  0  0
  8 21  1  0  0  0  0
  8  7  2  0  0  0  0
  9  5  1  1  0  0  0
  9 21  1  0  0  0  0
 10 26  1  0  0  0  0
 11 24  1  6  0  0  0
 11 19  1  0  0  0  0
 11 12  1  0  0  0  0
 12 37  1  6  0  0  0
 12  5  1  0  0  0  0
 13 22  1  0  0  0  0
 13 24  1  0  0  0  0
 14 27  1  1  0  0  0
 14  9  1  0  0  0  0
 15 25  1  0  0  0  0
 16 28  1  0  0  0  0
 17 29  1  0  0  0  0
 17  4  1  0  0  0  0
 18  8  1  0  0  0  0
 19 14  1  0  0  0  0
 20 17  2  0  0  0  0
 23 10  1  0  0  0  0
 25 32  1  0  0  0  0
 26 18  2  0  0  0  0
 26 29  1  0  0  0  0
 27 18  1  0  0  0  0
 28 10  2  0  0  0  0
 28 20  1  0  0  0  0
 29  2  2  0  0  0  0
 30 35  1  0  0  0  0
 30 31  1  0  0  0  0
 31 34  2  0  0  0  0
 32 30  2  0  0  0  0
 34 33  1  0  0  0  0
 35 36  1  0  0  0  0
 36 33  1  0  0  0  0
 37 38  2  0  0  0  0
 39 37  1  0  0  0  0
 41 40  1  6  0  0  0
 41 39  1  0  0  0  0
 42 43  1  0  0  0  0
 43 41  1  0  0  0  0
 45 47  2  0  0  0  0
 46 48  2  0  0  0  0
 48 51  1  0  0  0  0
 50 53  1  0  0  0  0
 50 54  1  1  0  0  0
 50 48  1  0  0  0  0
 51 45  1  0  0  0  0
 51 49  1  0  0  0  0
 52 44  1  0  0  0  0
 52 45  1  0  0  0  0
 53 52  2  0  0  0  0
M  END
>  <MODEL>
8

>  <REMARK>
 VINA RESULT:      -5.7      3.716      8.094
  Name = 
  7 active torsions:
  status: ('A' for Active; 'I' for Inactive)
    1  A    between atoms: C_4  and  C_45
    2  A    between atoms: C_10  and  C_15
    3  A    between atoms: N_11  and  N_46
    4  A    between atoms: C_14  and  C_23
    5  A    between atoms: C_14  and  O_42
    6  A    between atoms: C_15  and  O_42
    7  A    between atoms: C_45  and  C_47
                            x       y       z     vdW  Elec       q    Type
                         _______ _______ _______ _____ _____    ______ ____

>  <TORSDO>
F 7

$$$$
