=
 OpenBabel10222421423D

 47 50  0  0  1  0  0  0  0  0999 V2000
  190.5370  174.2460  134.8580 C   0  0  0  0  0  3  0  0  0  0  0  0
  189.8890  176.8750  135.8240 C   0  0  2  0  0  3  0  0  0  0  0  0
  189.2600  174.5390  135.0980 C   0  0  0  0  0  0  0  0  0  0  0  0
  188.8730  175.8980  135.3920 N   0  0  0  0  0  0  0  0  0  0  0  0
  188.2450  173.4490  135.0160 C   0  0  0  0  0  1  0  0  0  0  0  0
  191.5640  175.3040  134.8790 C   0  0  0  0  0  0  0  0  0  0  0  0
  191.2530  176.5420  135.2730 C   0  0  0  0  0  3  0  0  0  0  0  0
  190.6510  176.0150  138.0420 C   0  0  0  0  0  3  0  0  0  0  0  0
  190.7450  176.1090  139.4330 C   0  0  0  0  0  3  0  0  0  0  0  0
  190.1170  177.1590  140.1220 C   0  0  0  0  0  0  0  0  0  0  0  0
  189.3890  178.1160  139.3930 C   0  0  0  0  0  3  0  0  0  0  0  0
  189.9270  176.9690  137.3180 C   0  0  0  0  0  0  0  0  0  0  0  0
  189.3000  178.0240  138.0000 C   0  0  0  0  0  3  0  0  0  0  0  0
  189.0790  177.3010  142.4010 C   0  0  0  0  0  3  0  0  0  0  0  0
  188.1040  177.4100  144.6210 C   0  0  0  0  0  3  0  0  0  0  0  0
  188.2770  177.4810  146.0100 C   0  0  0  0  0  3  0  0  0  0  0  0
  189.5630  177.5040  146.5700 C   0  0  0  0  0  0  0  0  0  0  0  0
  190.2230  177.2460  141.5940 C   0  0  0  0  0  0  0  0  0  0  0  0
  189.2250  177.3580  143.7850 C   0  0  0  0  0  0  0  0  0  0  0  0
  190.5200  177.3640  144.3420 C   0  0  0  0  0  0  0  0  0  0  0  0
  190.6870  177.4420  145.7300 C   0  0  0  0  0  3  0  0  0  0  0  0
  191.6020  177.3030  143.5180 N   0  0  0  0  0  0  0  0  0  0  0  0
  191.4540  177.2410  142.1900 N   0  0  0  0  0  0  0  0  0  0  0  0
  189.6990  177.6080  147.9930 N   0  0  0  0  0  2  0  0  0  0  0  0
  188.7710  178.3450  148.8420 C   0  0  0  0  0  2  0  0  0  0  0  0
  187.4710  177.5760  148.9770 C   0  0  0  0  0  1  0  0  0  0  0  0
  187.3880  177.7520  134.7840 C   0  0  0  0  0  1  0  0  0  0  0  0
  187.4710  176.3070  135.2470 C   0  0  2  0  0  3  0  0  0  0  0  0
  186.7810  176.1590  136.4540 O   0  0  0  0  0  0  0  0  0  0  0  0
  185.7630  177.1110  136.4190 C   0  0  0  0  0  2  0  0  0  0  0  0
  184.4230  176.4030  136.3590 C   0  0  0  0  0  2  0  0  0  0  0  0
  183.3820  177.1860  137.1300 C   0  0  0  0  0  2  0  0  0  0  0  0
  183.5980  177.0030  138.6260 C   0  0  2  0  0  3  0  0  0  0  0  0
  182.7090  175.8760  139.1510 C   0  0  0  0  0  1  0  0  0  0  0  0
  183.2870  178.2130  139.3060 O   0  0  0  0  0  0  0  0  0  0  0  0
  184.8620  179.7950  139.9280 O   0  0  0  0  0  0  0  0  0  0  0  0
  184.1510  178.7970  140.2360 C   0  0  0  0  0  0  0  0  0  0  0  0
  184.2300  178.2500  141.6210 C   0  0  0  0  0  1  0  0  0  0  0  0
  192.9350  175.0300  134.3470 C   0  0  0  0  0  2  0  0  0  0  0  0
  193.4830  173.7190  134.9000 C   0  0  0  0  0  2  0  0  0  0  0  0
  193.9080  173.8840  136.3500 C   0  0  0  0  0  2  0  0  0  0  0  0
  195.4210  173.8110  136.4580 C   0  0  0  0  0  2  0  0  0  0  0  0
  195.9310  175.0360  136.9070 O   0  0  0  0  0  0  0  0  0  0  0  0
  197.9020  175.6100  137.8830 O   0  0  0  0  0  1  0  0  0  0  0  0
  197.3180  174.8880  136.8450 C   0  0  2  0  0  3  0  0  0  0  0  0
  197.8180  175.4250  135.5150 C   0  0  0  0  0  2  0  0  0  0  0  0
  199.1860  175.1750  135.3770 O   0  0  0  0  0  1  0  0  0  0  0  0
  1  6  1  0  0  0  0
  1  3  2  0  0  0  0
  2 12  1  1  0  0  0
  3  4  1  0  0  0  0
  4  2  1  0  0  0  0
  5  3  1  0  0  0  0
  6  7  2  0  0  0  0
  7  2  1  0  0  0  0
  8  9  1  0  0  0  0
  9 10  2  0  0  0  0
 10 18  1  0  0  0  0
 11 10  1  0  0  0  0
 12 13  1  0  0  0  0
 12  8  2  0  0  0  0
 13 11  2  0  0  0  0
 14 19  1  0  0  0  0
 15 16  1  0  0  0  0
 16 17  2  0  0  0  0
 17 24  1  0  0  0  0
 18 23  1  0  0  0  0
 18 14  2  0  0  0  0
 19 20  1  0  0  0  0
 19 15  2  0  0  0  0
 20 21  2  0  0  0  0
 21 17  1  0  0  0  0
 22 20  1  0  0  0  0
 23 22  2  0  0  0  0
 24 25  1  0  0  0  0
 25 26  1  0  0  0  0
 28 27  1  1  0  0  0
 28  4  1  0  0  0  0
 28 29  1  0  0  0  0
 30 29  1  0  0  0  0
 31 30  1  0  0  0  0
 31 32  1  0  0  0  0
 32 33  1  0  0  0  0
 33 34  1  1  0  0  0
 33 35  1  0  0  0  0
 35 37  1  0  0  0  0
 36 37  2  0  0  0  0
 37 38  1  0  0  0  0
 39  6  1  0  0  0  0
 39 40  1  0  0  0  0
 40 41  1  0  0  0  0
 41 42  1  0  0  0  0
 42 43  1  0  0  0  0
 45 43  1  0  0  0  0
 45 44  1  1  0  0  0
 46 45  1  0  0  0  0
 47 46  1  0  0  0  0
M  END
>  <MODEL>
1

>  <REMARK>
 VINA RESULT:      -6.6      0.000      0.000
  Name = 
  19 active torsions:
  status: ('A' for Active; 'I' for Inactive)
    1  A    between atoms: C_1  and  C_8
    2  A    between atoms: C_1  and  C_39
    3  A    between atoms: C_4  and  C_30
    4  A    between atoms: O_5  and  C_35
    5  A    between atoms: O_5  and  C_41
    6  A    between atoms: C_6  and  N_47
    7  A    between atoms: C_8  and  O_25
    8  A    between atoms: C_9  and  O_21
    9  A    between atoms: C_9  and  C_24
   10  A    between atoms: C_11  and  C_32
   11  A    between atoms: C_15  and  C_18
   12  A    between atoms: C_17  and  N_47
   13  A    between atoms: O_21  and  C_30
   14  A    between atoms: C_22  and  C_24
   15  A    between atoms: C_22  and  C_31
   16  A    between atoms: O_25  and  C_34
   17  A    between atoms: N_28  and  C_41
   18  A    between atoms: C_31  and  C_38
   19  A    between atoms: C_35  and  C_39
                            x       y       z     vdW  Elec       q    Type
                         _______ _______ _______ _____ _____    ______ ____

>  <TORSDO>
F 19

$$$$
=
 OpenBabel10222421423D

 47 50  0  0  1  0  0  0  0  0999 V2000
  185.9630  179.4940  145.9680 C   0  0  0  0  0  3  0  0  0  0  0  0
  185.8660  177.3100  144.1000 C   0  0  2  0  0  3  0  0  0  0  0  0
  185.3520  179.6830  144.8000 C   0  0  0  0  0  0  0  0  0  0  0  0
  185.1090  178.5630  143.9220 N   0  0  0  0  0  0  0  0  0  0  0  0
  184.8920  181.0560  144.4420 C   0  0  0  0  0  1  0  0  0  0  0  0
  186.3870  178.1440  146.3810 C   0  0  0  0  0  0  0  0  0  0  0  0
  186.2900  177.1150  145.5340 C   0  0  0  0  0  3  0  0  0  0  0  0
  187.9930  176.2520  143.3290 C   0  0  0  0  0  3  0  0  0  0  0  0
  189.0810  176.1700  142.4560 C   0  0  0  0  0  3  0  0  0  0  0  0
  189.2440  177.1100  141.4250 C   0  0  0  0  0  0  0  0  0  0  0  0
  188.2970  178.1390  141.2850 C   0  0  0  0  0  3  0  0  0  0  0  0
  187.0510  177.2770  143.1860 C   0  0  0  0  0  0  0  0  0  0  0  0
  187.2060  178.2190  142.1560 C   0  0  0  0  0  3  0  0  0  0  0  0
  190.2600  176.4850  139.2190 C   0  0  0  0  0  3  0  0  0  0  0  0
  191.2660  175.9170  137.0860 C   0  0  0  0  0  3  0  0  0  0  0  0
  192.4020  175.8610  136.2660 C   0  0  0  0  0  3  0  0  0  0  0  0
  193.6430  176.3150  136.7340 C   0  0  0  0  0  0  0  0  0  0  0  0
  190.4010  177.0120  140.5100 C   0  0  0  0  0  0  0  0  0  0  0  0
  191.3710  176.4330  138.3810 C   0  0  0  0  0  0  0  0  0  0  0  0
  192.6120  176.9070  138.8520 C   0  0  0  0  0  0  0  0  0  0  0  0
  193.7450  176.8430  138.0320 C   0  0  0  0  0  3  0  0  0  0  0  0
  192.7000  177.4150  140.1120 N   0  0  0  0  0  0  0  0  0  0  0  0
  191.6270  177.4700  140.9090 N   0  0  0  0  0  0  0  0  0  0  0  0
  194.7880  176.2150  135.8760 N   0  0  0  0  0  2  0  0  0  0  0  0
  195.7890  175.1610  135.9860 C   0  0  0  0  0  2  0  0  0  0  0  0
  195.2360  174.0050  136.7980 C   0  0  0  0  0  1  0  0  0  0  0  0
  182.7020  178.5800  143.4540 C   0  0  0  0  0  1  0  0  0  0  0  0
  184.0990  178.6700  142.8620 C   0  0  2  0  0  3  0  0  0  0  0  0
  184.2710  177.6640  141.9060 O   0  0  0  0  0  0  0  0  0  0  0  0
  183.3190  177.9230  140.9200 C   0  0  0  0  0  2  0  0  0  0  0  0
  183.9230  177.6330  139.5600 C   0  0  0  0  0  2  0  0  0  0  0  0
  185.0140  178.6350  139.2470 C   0  0  0  0  0  2  0  0  0  0  0  0
  185.6450  178.3110  137.9000 C   0  0  2  0  0  3  0  0  0  0  0  0
  184.8840  177.1700  137.2250 C   0  0  0  0  0  1  0  0  0  0  0  0
  187.0040  177.9350  138.0860 O   0  0  0  0  0  0  0  0  0  0  0  0
  188.7800  179.3800  137.7260 O   0  0  0  0  0  0  0  0  0  0  0  0
  188.0400  178.4480  137.3010 C   0  0  0  0  0  0  0  0  0  0  0  0
  188.2950  177.8820  135.9460 C   0  0  0  0  0  1  0  0  0  0  0  0
  186.8200  177.8920  147.7910 C   0  0  0  0  0  2  0  0  0  0  0  0
  188.1970  178.4900  148.0550 C   0  0  0  0  0  2  0  0  0  0  0  0
  189.2500  177.3960  148.1420 C   0  0  0  0  0  2  0  0  0  0  0  0
  189.6130  176.9140  146.7490 C   0  0  0  0  0  2  0  0  0  0  0  0
  190.9440  177.2410  146.4590 O   0  0  0  0  0  0  0  0  0  0  0  0
  191.9280  175.9450  144.8720 O   0  0  0  0  0  1  0  0  0  0  0  0
  191.0720  177.0230  145.0860 C   0  0  2  0  0  3  0  0  0  0  0  0
  191.6560  178.2650  144.4350 C   0  0  0  0  0  2  0  0  0  0  0  0
  190.6330  179.0830  143.9490 O   0  0  0  0  0  1  0  0  0  0  0  0
  1  6  1  0  0  0  0
  2 12  1  6  0  0  0
  2  7  1  0  0  0  0
  3  1  2  0  0  0  0
  4  2  1  0  0  0  0
  4  3  1  0  0  0  0
  5  3  1  0  0  0  0
  6 39  1  0  0  0  0
  7  6  2  0  0  0  0
  9  8  2  0  0  0  0
 10  9  1  0  0  0  0
 11 10  2  0  0  0  0
 11 13  1  0  0  0  0
 12  8  1  0  0  0  0
 13 12  2  0  0  0  0
 14 18  1  0  0  0  0
 15 19  1  0  0  0  0
 16 17  1  0  0  0  0
 16 15  2  0  0  0  0
 17 21  2  0  0  0  0
 18 23  2  0  0  0  0
 18 10  1  0  0  0  0
 19 20  1  0  0  0  0
 19 14  2  0  0  0  0
 20 22  2  0  0  0  0
 21 20  1  0  0  0  0
 22 23  1  0  0  0  0
 24 25  1  0  0  0  0
 24 17  1  0  0  0  0
 25 26  1  0  0  0  0
 28 27  1  1  0  0  0
 28  4  1  0  0  0  0
 29 28  1  0  0  0  0
 30 29  1  0  0  0  0
 31 30  1  0  0  0  0
 32 31  1  0  0  0  0
 33 34  1  1  0  0  0
 33 35  1  0  0  0  0
 33 32  1  0  0  0  0
 37 36  2  0  0  0  0
 37 35  1  0  0  0  0
 38 37  1  0  0  0  0
 39 40  1  0  0  0  0
 40 41  1  0  0  0  0
 42 41  1  0  0  0  0
 43 42  1  0  0  0  0
 45 44  1  1  0  0  0
 45 43  1  0  0  0  0
 46 45  1  0  0  0  0
 47 46  1  0  0  0  0
M  END
>  <MODEL>
2

>  <REMARK>
 VINA RESULT:      -6.6      3.281      9.118
  Name = 
  19 active torsions:
  status: ('A' for Active; 'I' for Inactive)
    1  A    between atoms: C_1  and  C_8
    2  A    between atoms: C_1  and  C_39
    3  A    between atoms: C_4  and  C_30
    4  A    between atoms: O_5  and  C_35
    5  A    between atoms: O_5  and  C_41
    6  A    between atoms: C_6  and  N_47
    7  A    between atoms: C_8  and  O_25
    8  A    between atoms: C_9  and  O_21
    9  A    between atoms: C_9  and  C_24
   10  A    between atoms: C_11  and  C_32
   11  A    between atoms: C_15  and  C_18
   12  A    between atoms: C_17  and  N_47
   13  A    between atoms: O_21  and  C_30
   14  A    between atoms: C_22  and  C_24
   15  A    between atoms: C_22  and  C_31
   16  A    between atoms: O_25  and  C_34
   17  A    between atoms: N_28  and  C_41
   18  A    between atoms: C_31  and  C_38
   19  A    between atoms: C_35  and  C_39
                            x       y       z     vdW  Elec       q    Type
                         _______ _______ _______ _____ _____    ______ ____

>  <TORSDO>
F 19

$$$$
=
 OpenBabel10222421423D

 47 50  0  0  1  0  0  0  0  0999 V2000
  185.8910  179.5710  145.8120 C   0  0  0  0  0  3  0  0  0  0  0  0
  186.0900  177.1360  144.2980 C   0  0  2  0  0  3  0  0  0  0  0  0
  185.2430  179.4900  144.6510 C   0  0  0  0  0  0  0  0  0  0  0  0
  185.1560  178.2250  143.9600 N   0  0  0  0  0  0  0  0  0  0  0  0
  184.5830  180.7110  144.1080 C   0  0  0  0  0  1  0  0  0  0  0  0
  186.5140  178.3750  146.4070 C   0  0  0  0  0  0  0  0  0  0  0  0
  186.5570  177.2250  145.7290 C   0  0  0  0  0  3  0  0  0  0  0  0
  188.2030  176.1060  143.4500 C   0  0  0  0  0  3  0  0  0  0  0  0
  189.2710  176.0520  142.5520 C   0  0  0  0  0  3  0  0  0  0  0  0
  189.4100  177.0210  141.5460 C   0  0  0  0  0  0  0  0  0  0  0  0
  188.4580  178.0510  141.4550 C   0  0  0  0  0  3  0  0  0  0  0  0
  187.2550  177.1320  143.3570 C   0  0  0  0  0  0  0  0  0  0  0  0
  187.3850  178.1020  142.3510 C   0  0  0  0  0  3  0  0  0  0  0  0
  190.3680  176.5180  139.2830 C   0  0  0  0  0  3  0  0  0  0  0  0
  191.3180  176.0660  137.0970 C   0  0  0  0  0  3  0  0  0  0  0  0
  192.4370  176.0340  136.2530 C   0  0  0  0  0  3  0  0  0  0  0  0
  193.7000  176.4210  136.7250 C   0  0  0  0  0  0  0  0  0  0  0  0
  190.5470  176.9520  140.6030 C   0  0  0  0  0  0  0  0  0  0  0  0
  191.4610  176.4910  138.4220 C   0  0  0  0  0  0  0  0  0  0  0  0
  192.7240  176.8970  138.8990 C   0  0  0  0  0  0  0  0  0  0  0  0
  193.8400  176.8570  138.0530 C   0  0  0  0  0  3  0  0  0  0  0  0
  192.8490  177.3170  140.1870 N   0  0  0  0  0  0  0  0  0  0  0  0
  191.7930  177.3480  141.0070 N   0  0  0  0  0  0  0  0  0  0  0  0
  194.8260  176.3460  135.8410 N   0  0  0  0  0  2  0  0  0  0  0  0
  195.7630  175.2310  135.8200 C   0  0  0  0  0  2  0  0  0  0  0  0
  197.1640  175.7380  135.5350 C   0  0  0  0  0  1  0  0  0  0  0  0
  184.5150  178.7390  141.6500 C   0  0  0  0  0  1  0  0  0  0  0  0
  184.1270  178.0220  142.9330 C   0  0  2  0  0  3  0  0  0  0  0  0
  182.8840  178.4860  143.3740 O   0  0  0  0  0  0  0  0  0  0  0  0
  182.1820  178.8260  142.2170 C   0  0  0  0  0  2  0  0  0  0  0  0
  180.7090  178.5360  142.4280 C   0  0  0  0  0  2  0  0  0  0  0  0
  179.9820  178.5260  141.1000 C   0  0  0  0  0  2  0  0  0  0  0  0
  180.9160  178.0390  140.0010 C   0  0  2  0  0  3  0  0  0  0  0  0
  180.3260  178.3630  138.6290 C   0  0  0  0  0  1  0  0  0  0  0  0
  181.1040  176.6340  140.1200 O   0  0  0  0  0  0  0  0  0  0  0  0
  181.1760  174.9010  138.5830 O   0  0  0  0  0  0  0  0  0  0  0  0
  181.7540  175.8760  139.1430 C   0  0  0  0  0  0  0  0  0  0  0  0
  183.1440  176.2260  138.7350 C   0  0  0  0  0  1  0  0  0  0  0  0
  186.9970  178.4060  147.8230 C   0  0  0  0  0  2  0  0  0  0  0  0
  188.0410  177.3230  148.0680 C   0  0  0  0  0  2  0  0  0  0  0  0
  189.4090  177.9410  148.3130 C   0  0  0  0  0  2  0  0  0  0  0  0
  190.4310  177.3260  147.3740 C   0  0  0  0  0  2  0  0  0  0  0  0
  190.0660  177.5650  146.0420 O   0  0  0  0  0  0  0  0  0  0  0  0
  192.1090  176.5760  146.1420 O   0  0  0  0  0  1  0  0  0  0  0  0
  191.1630  177.1430  145.2910 C   0  0  2  0  0  3  0  0  0  0  0  0
  191.7760  178.3400  144.5850 C   0  0  0  0  0  2  0  0  0  0  0  0
  190.7770  179.1110  143.9850 O   0  0  0  0  0  1  0  0  0  0  0  0
  1  6  1  0  0  0  0
  2 12  1  6  0  0  0
  2  7  1  0  0  0  0
  3  1  2  0  0  0  0
  4  2  1  0  0  0  0
  4  3  1  0  0  0  0
  5  3  1  0  0  0  0
  6 39  1  0  0  0  0
  7  6  2  0  0  0  0
  9  8  2  0  0  0  0
 10  9  1  0  0  0  0
 11 10  2  0  0  0  0
 11 13  1  0  0  0  0
 12  8  1  0  0  0  0
 13 12  2  0  0  0  0
 14 18  1  0  0  0  0
 15 19  1  0  0  0  0
 16 17  1  0  0  0  0
 16 15  2  0  0  0  0
 17 21  2  0  0  0  0
 18 23  2  0  0  0  0
 18 10  1  0  0  0  0
 19 20  1  0  0  0  0
 19 14  2  0  0  0  0
 20 22  2  0  0  0  0
 21 20  1  0  0  0  0
 22 23  1  0  0  0  0
 24 17  1  0  0  0  0
 25 24  1  0  0  0  0
 26 25  1  0  0  0  0
 28 27  1  6  0  0  0
 28 29  1  0  0  0  0
 28  4  1  0  0  0  0
 30 31  1  0  0  0  0
 30 29  1  0  0  0  0
 32 31  1  0  0  0  0
 33 34  1  6  0  0  0
 33 35  1  0  0  0  0
 33 32  1  0  0  0  0
 36 37  2  0  0  0  0
 37 35  1  0  0  0  0
 38 37  1  0  0  0  0
 39 40  1  0  0  0  0
 40 41  1  0  0  0  0
 42 41  1  0  0  0  0
 43 42  1  0  0  0  0
 45 43  1  0  0  0  0
 45 44  1  1  0  0  0
 46 45  1  0  0  0  0
 47 46  1  0  0  0  0
M  END
>  <MODEL>
3

>  <REMARK>
 VINA RESULT:      -6.3      3.776      9.267
  Name = 
  19 active torsions:
  status: ('A' for Active; 'I' for Inactive)
    1  A    between atoms: C_1  and  C_8
    2  A    between atoms: C_1  and  C_39
    3  A    between atoms: C_4  and  C_30
    4  A    between atoms: O_5  and  C_35
    5  A    between atoms: O_5  and  C_41
    6  A    between atoms: C_6  and  N_47
    7  A    between atoms: C_8  and  O_25
    8  A    between atoms: C_9  and  O_21
    9  A    between atoms: C_9  and  C_24
   10  A    between atoms: C_11  and  C_32
   11  A    between atoms: C_15  and  C_18
   12  A    between atoms: C_17  and  N_47
   13  A    between atoms: O_21  and  C_30
   14  A    between atoms: C_22  and  C_24
   15  A    between atoms: C_22  and  C_31
   16  A    between atoms: O_25  and  C_34
   17  A    between atoms: N_28  and  C_41
   18  A    between atoms: C_31  and  C_38
   19  A    between atoms: C_35  and  C_39
                            x       y       z     vdW  Elec       q    Type
                         _______ _______ _______ _____ _____    ______ ____

>  <TORSDO>
F 19

$$$$
=
 OpenBabel10222421423D

 47 50  0  0  1  0  0  0  0  0999 V2000
  190.5800  174.1080  134.7350 C   0  0  0  0  0  3  0  0  0  0  0  0
  189.8800  176.7500  135.6260 C   0  0  2  0  0  3  0  0  0  0  0  0
  189.2900  174.4320  134.8130 C   0  0  0  0  0  0  0  0  0  0  0  0
  188.9030  175.8000  135.0640 N   0  0  0  0  0  0  0  0  0  0  0  0
  188.2670  173.3690  134.5980 C   0  0  0  0  0  1  0  0  0  0  0  0
  191.6210  175.1400  134.8910 C   0  0  0  0  0  0  0  0  0  0  0  0
  191.2940  176.3840  135.2500 C   0  0  0  0  0  3  0  0  0  0  0  0
  190.5630  176.0630  137.9290 C   0  0  0  0  0  3  0  0  0  0  0  0
  190.4800  176.1660  139.3190 C   0  0  0  0  0  3  0  0  0  0  0  0
  189.5640  177.0470  139.9180 C   0  0  0  0  0  0  0  0  0  0  0  0
  188.7300  177.8250  139.0970 C   0  0  0  0  0  3  0  0  0  0  0  0
  189.7320  176.8390  137.1130 C   0  0  0  0  0  0  0  0  0  0  0  0
  188.8170  177.7260  137.7050 C   0  0  0  0  0  3  0  0  0  0  0  0
  190.5660  176.7700  142.2000 C   0  0  0  0  0  3  0  0  0  0  0  0
  191.5180  176.5390  144.4200 C   0  0  0  0  0  3  0  0  0  0  0  0
  191.3800  176.6660  145.8090 C   0  0  0  0  0  3  0  0  0  0  0  0
  190.1880  177.1500  146.3680 C   0  0  0  0  0  0  0  0  0  0  0  0
  189.4860  177.1450  141.3910 C   0  0  0  0  0  0  0  0  0  0  0  0
  190.4580  176.9000  143.5820 C   0  0  0  0  0  0  0  0  0  0  0  0
  189.2630  177.4030  144.1360 C   0  0  0  0  0  0  0  0  0  0  0  0
  189.1280  177.5220  145.5240 C   0  0  0  0  0  3  0  0  0  0  0  0
  188.2420  177.7610  143.3100 N   0  0  0  0  0  0  0  0  0  0  0  0
  188.3560  177.6400  141.9820 N   0  0  0  0  0  0  0  0  0  0  0  0
  190.0740  177.2370  147.7940 N   0  0  0  0  0  2  0  0  0  0  0  0
  189.4060  178.3330  148.4850 C   0  0  0  0  0  2  0  0  0  0  0  0
  187.9450  177.9900  148.7070 C   0  0  0  0  0  1  0  0  0  0  0  0
  187.5410  177.7170  134.3700 C   0  0  0  0  0  1  0  0  0  0  0  0
  187.5410  176.2440  134.7460 C   0  0  2  0  0  3  0  0  0  0  0  0
  186.6820  176.0340  135.8290 O   0  0  0  0  0  0  0  0  0  0  0  0
  185.5900  176.8720  135.6050 C   0  0  0  0  0  2  0  0  0  0  0  0
  184.3130  176.0640  135.7230 C   0  0  0  0  0  2  0  0  0  0  0  0
  184.6250  174.5830  135.6870 C   0  0  0  0  0  2  0  0  0  0  0  0
  183.8610  173.8650  136.7910 C   0  0  2  0  0  3  0  0  0  0  0  0
  184.8390  173.1650  137.7350 C   0  0  0  0  0  1  0  0  0  0  0  0
  182.9800  172.9060  136.2190 O   0  0  0  0  0  0  0  0  0  0  0  0
  182.9430  170.7070  136.9490 O   0  0  0  0  0  0  0  0  0  0  0  0
  183.3180  171.5560  136.0910 C   0  0  0  0  0  0  0  0  0  0  0  0
  184.1200  171.0990  134.9210 C   0  0  0  0  0  1  0  0  0  0  0  0
  193.0420  174.8320  134.5350 C   0  0  0  0  0  2  0  0  0  0  0  0
  193.8200  174.3530  135.7550 C   0  0  0  0  0  2  0  0  0  0  0  0
  195.3120  174.5670  135.5590 C   0  0  0  0  0  2  0  0  0  0  0  0
  195.9910  174.7470  136.9050 C   0  0  0  0  0  2  0  0  0  0  0  0
  197.1970  175.4420  136.7460 O   0  0  0  0  0  0  0  0  0  0  0  0
  197.7710  173.2730  137.1090 O   0  0  0  0  0  1  0  0  0  0  0  0
  198.1690  174.5960  137.2830 C   0  0  2  0  0  3  0  0  0  0  0  0
  198.3170  174.8840  138.7670 C   0  0  0  0  0  2  0  0  0  0  0  0
  199.6400  175.2250  139.0630 O   0  0  0  0  0  1  0  0  0  0  0  0
  1  3  2  0  0  0  0
  1  6  1  0  0  0  0
  2 12  1  1  0  0  0
  3  4  1  0  0  0  0
  4  2  1  0  0  0  0
  5  3  1  0  0  0  0
  6  7  2  0  0  0  0
  7  2  1  0  0  0  0
  8  9  1  0  0  0  0
  9 10  2  0  0  0  0
 10 18  1  0  0  0  0
 11 10  1  0  0  0  0
 12 13  1  0  0  0  0
 12  8  2  0  0  0  0
 13 11  2  0  0  0  0
 14 19  1  0  0  0  0
 15 16  1  0  0  0  0
 16 17  2  0  0  0  0
 17 24  1  0  0  0  0
 18 23  1  0  0  0  0
 18 14  2  0  0  0  0
 19 20  1  0  0  0  0
 19 15  2  0  0  0  0
 20 21  2  0  0  0  0
 21 17  1  0  0  0  0
 22 20  1  0  0  0  0
 23 22  2  0  0  0  0
 24 25  1  0  0  0  0
 25 26  1  0  0  0  0
 28 27  1  1  0  0  0
 28  4  1  0  0  0  0
 28 29  1  0  0  0  0
 30 31  1  0  0  0  0
 30 29  1  0  0  0  0
 32 31  1  0  0  0  0
 32 33  1  0  0  0  0
 33 34  1  1  0  0  0
 35 33  1  0  0  0  0
 37 35  1  0  0  0  0
 37 36  2  0  0  0  0
 38 37  1  0  0  0  0
 39  6  1  0  0  0  0
 39 40  1  0  0  0  0
 41 40  1  0  0  0  0
 41 42  1  0  0  0  0
 43 42  1  0  0  0  0
 43 45  1  0  0  0  0
 45 44  1  1  0  0  0
 45 46  1  0  0  0  0
 46 47  1  0  0  0  0
M  END
>  <MODEL>
4

>  <REMARK>
 VINA RESULT:      -5.9      2.039      3.045
  Name = 
  19 active torsions:
  status: ('A' for Active; 'I' for Inactive)
    1  A    between atoms: C_1  and  C_8
    2  A    between atoms: C_1  and  C_39
    3  A    between atoms: C_4  and  C_30
    4  A    between atoms: O_5  and  C_35
    5  A    between atoms: O_5  and  C_41
    6  A    between atoms: C_6  and  N_47
    7  A    between atoms: C_8  and  O_25
    8  A    between atoms: C_9  and  O_21
    9  A    between atoms: C_9  and  C_24
   10  A    between atoms: C_11  and  C_32
   11  A    between atoms: C_15  and  C_18
   12  A    between atoms: C_17  and  N_47
   13  A    between atoms: O_21  and  C_30
   14  A    between atoms: C_22  and  C_24
   15  A    between atoms: C_22  and  C_31
   16  A    between atoms: O_25  and  C_34
   17  A    between atoms: N_28  and  C_41
   18  A    between atoms: C_31  and  C_38
   19  A    between atoms: C_35  and  C_39
                            x       y       z     vdW  Elec       q    Type
                         _______ _______ _______ _____ _____    ______ ____

>  <TORSDO>
F 19

$$$$
=
 OpenBabel10222421423D

 47 50  0  0  1  0  0  0  0  0999 V2000
  190.7700  174.3160  134.9340 C   0  0  0  0  0  3  0  0  0  0  0  0
  189.7640  176.9310  135.5770 C   0  0  2  0  0  3  0  0  0  0  0  0
  189.4520  174.5110  134.9210 C   0  0  0  0  0  0  0  0  0  0  0  0
  188.9190  175.8480  135.0430 N   0  0  0  0  0  0  0  0  0  0  0  0
  188.5520  173.3360  134.7380 C   0  0  0  0  0  1  0  0  0  0  0  0
  191.6940  175.4570  135.0610 C   0  0  0  0  0  0  0  0  0  0  0  0
  191.2260  176.6840  135.3040 C   0  0  0  0  0  3  0  0  0  0  0  0
  189.7700  176.0450  137.9140 C   0  0  0  0  0  3  0  0  0  0  0  0
  189.6000  176.2050  139.2910 C   0  0  0  0  0  3  0  0  0  0  0  0
  189.1790  177.4360  139.8220 C   0  0  0  0  0  0  0  0  0  0  0  0
  188.9290  178.5060  138.9460 C   0  0  0  0  0  3  0  0  0  0  0  0
  189.5210  177.1130  137.0440 C   0  0  0  0  0  0  0  0  0  0  0  0
  189.1040  178.3470  137.5680 C   0  0  0  0  0  3  0  0  0  0  0  0
  187.7420  177.4560  141.8770 C   0  0  0  0  0  3  0  0  0  0  0  0
  186.3810  177.4550  143.8860 C   0  0  0  0  0  3  0  0  0  0  0  0
  186.2860  177.6040  145.2760 C   0  0  0  0  0  3  0  0  0  0  0  0
  187.4250  177.8870  146.0440 C   0  0  0  0  0  0  0  0  0  0  0  0
  189.0030  177.5900  141.2810 C   0  0  0  0  0  0  0  0  0  0  0  0
  187.6240  177.5860  143.2580 C   0  0  0  0  0  0  0  0  0  0  0  0
  188.7760  177.8540  144.0250 C   0  0  0  0  0  0  0  0  0  0  0  0
  188.6740  178.0090  145.4130 C   0  0  0  0  0  3  0  0  0  0  0  0
  189.9810  177.9700  143.4040 N   0  0  0  0  0  0  0  0  0  0  0  0
  190.0880  177.8360  142.0770 N   0  0  0  0  0  0  0  0  0  0  0  0
  187.2830  178.0630  147.4600 N   0  0  0  0  0  2  0  0  0  0  0  0
  188.2200  177.5270  148.4380 C   0  0  0  0  0  2  0  0  0  0  0  0
  189.4430  178.4200  148.5260 C   0  0  0  0  0  1  0  0  0  0  0  0
  187.3070  177.6260  134.5410 C   0  0  0  0  0  1  0  0  0  0  0  0
  187.5410  176.1260  134.6220 C   0  0  2  0  0  3  0  0  0  0  0  0
  186.6240  175.5540  135.5080 O   0  0  0  0  0  0  0  0  0  0  0  0
  185.3970  175.5830  134.8440 C   0  0  0  0  0  2  0  0  0  0  0  0
  184.7200  174.2350  134.9930 C   0  0  0  0  0  2  0  0  0  0  0  0
  183.2830  174.4170  135.4340 C   0  0  0  0  0  2  0  0  0  0  0  0
  183.0520  173.7030  136.7580 C   0  0  2  0  0  3  0  0  0  0  0  0
  183.2620  172.1990  136.5880 C   0  0  0  0  0  1  0  0  0  0  0  0
  181.7260  173.9520  137.2110 O   0  0  0  0  0  0  0  0  0  0  0  0
  182.2630  175.7010  138.6340 O   0  0  0  0  0  0  0  0  0  0  0  0
  181.3880  175.0790  137.9660 C   0  0  0  0  0  0  0  0  0  0  0  0
  179.9820  175.5720  137.9760 C   0  0  0  0  0  1  0  0  0  0  0  0
  193.1570  175.2700  134.8030 C   0  0  0  0  0  2  0  0  0  0  0  0
  193.7060  174.0920  135.5990 C   0  0  0  0  0  2  0  0  0  0  0  0
  194.7940  174.5520  136.5570 C   0  0  0  0  0  2  0  0  0  0  0  0
  195.2200  173.4000  137.4480 C   0  0  0  0  0  2  0  0  0  0  0  0
  196.6130  173.2560  137.4150 O   0  0  0  0  0  0  0  0  0  0  0  0
  196.0000  171.0740  137.5860 O   0  0  0  0  0  1  0  0  0  0  0  0
  196.8270  171.9710  136.9140 C   0  0  2  0  0  3  0  0  0  0  0  0
  198.2780  171.5820  137.1380 C   0  0  0  0  0  2  0  0  0  0  0  0
  199.0830  172.7220  137.1840 O   0  0  0  0  0  1  0  0  0  0  0  0
  1  6  1  0  0  0  0
  2 12  1  1  0  0  0
  3  1  2  0  0  0  0
  3  4  1  0  0  0  0
  4  2  1  0  0  0  0
  5  3  1  0  0  0  0
  6  7  2  0  0  0  0
  7  2  1  0  0  0  0
  8  9  1  0  0  0  0
  9 10  2  0  0  0  0
 10 18  1  0  0  0  0
 11 10  1  0  0  0  0
 12 13  1  0  0  0  0
 12  8  2  0  0  0  0
 13 11  2  0  0  0  0
 14 19  1  0  0  0  0
 15 16  1  0  0  0  0
 16 17  2  0  0  0  0
 17 24  1  0  0  0  0
 18 14  2  0  0  0  0
 18 23  1  0  0  0  0
 19 15  2  0  0  0  0
 19 20  1  0  0  0  0
 20 21  2  0  0  0  0
 21 17  1  0  0  0  0
 22 20  1  0  0  0  0
 23 22  2  0  0  0  0
 24 25  1  0  0  0  0
 25 26  1  0  0  0  0
 28 27  1  1  0  0  0
 28  4  1  0  0  0  0
 28 29  1  0  0  0  0
 30 31  1  0  0  0  0
 30 29  1  0  0  0  0
 31 32  1  0  0  0  0
 32 33  1  0  0  0  0
 33 34  1  6  0  0  0
 33 35  1  0  0  0  0
 35 37  1  0  0  0  0
 37 38  1  0  0  0  0
 37 36  2  0  0  0  0
 39  6  1  0  0  0  0
 39 40  1  0  0  0  0
 40 41  1  0  0  0  0
 41 42  1  0  0  0  0
 43 42  1  0  0  0  0
 45 46  1  0  0  0  0
 45 43  1  0  0  0  0
 45 44  1  1  0  0  0
 46 47  1  0  0  0  0
M  END
>  <MODEL>
5

>  <REMARK>
 VINA RESULT:      -5.0      1.930      2.491
  Name = 
  19 active torsions:
  status: ('A' for Active; 'I' for Inactive)
    1  A    between atoms: C_1  and  C_8
    2  A    between atoms: C_1  and  C_39
    3  A    between atoms: C_4  and  C_30
    4  A    between atoms: O_5  and  C_35
    5  A    between atoms: O_5  and  C_41
    6  A    between atoms: C_6  and  N_47
    7  A    between atoms: C_8  and  O_25
    8  A    between atoms: C_9  and  O_21
    9  A    between atoms: C_9  and  C_24
   10  A    between atoms: C_11  and  C_32
   11  A    between atoms: C_15  and  C_18
   12  A    between atoms: C_17  and  N_47
   13  A    between atoms: O_21  and  C_30
   14  A    between atoms: C_22  and  C_24
   15  A    between atoms: C_22  and  C_31
   16  A    between atoms: O_25  and  C_34
   17  A    between atoms: N_28  and  C_41
   18  A    between atoms: C_31  and  C_38
   19  A    between atoms: C_35  and  C_39
                            x       y       z     vdW  Elec       q    Type
                         _______ _______ _______ _____ _____    ______ ____

>  <TORSDO>
F 19

$$$$
=
 OpenBabel10222421423D

 47 50  0  0  1  0  0  0  0  0999 V2000
  187.9550  177.1290  140.8620 C   0  0  0  0  0  3  0  0  0  0  0  0
  190.5790  178.1490  140.2800 C   0  0  2  0  0  3  0  0  0  0  0  0
  188.9170  176.9640  141.7680 C   0  0  0  0  0  0  0  0  0  0  0  0
  190.1870  177.6300  141.6030 N   0  0  0  0  0  0  0  0  0  0  0  0
  188.6400  176.1200  142.9650 C   0  0  0  0  0  1  0  0  0  0  0  0
  188.1720  177.9970  139.6900 C   0  0  0  0  0  0  0  0  0  0  0  0
  189.3770  178.5190  139.4480 C   0  0  0  0  0  3  0  0  0  0  0  0
  190.8310  176.1660  138.7820 C   0  0  0  0  0  3  0  0  0  0  0  0
  191.6110  175.2600  138.0590 C   0  0  0  0  0  3  0  0  0  0  0  0
  193.0140  175.3320  138.1010 C   0  0  0  0  0  0  0  0  0  0  0  0
  193.6230  176.3280  138.8830 C   0  0  0  0  0  3  0  0  0  0  0  0
  191.4390  177.1570  139.5590 C   0  0  0  0  0  0  0  0  0  0  0  0
  192.8410  177.2370  139.6030 C   0  0  0  0  0  3  0  0  0  0  0  0
  195.1670  174.1230  137.6620 C   0  0  0  0  0  3  0  0  0  0  0  0
  197.2280  172.9170  137.2310 C   0  0  0  0  0  3  0  0  0  0  0  0
  197.9390  171.9820  136.4670 C   0  0  0  0  0  3  0  0  0  0  0  0
  197.3220  171.3160  135.3970 C   0  0  0  0  0  0  0  0  0  0  0  0
  193.8270  174.3660  137.3330 C   0  0  0  0  0  0  0  0  0  0  0  0
  195.8900  173.1880  136.9270 C   0  0  0  0  0  0  0  0  0  0  0  0
  195.2590  172.5100  135.8640 C   0  0  0  0  0  0  0  0  0  0  0  0
  195.9750  171.5810  135.1000 C   0  0  0  0  0  3  0  0  0  0  0  0
  193.9530  172.7750  135.5840 N   0  0  0  0  0  0  0  0  0  0  0  0
  193.2620  173.6690  136.3000 N   0  0  0  0  0  0  0  0  0  0  0  0
  198.0910  170.3890  134.6200 N   0  0  0  0  0  2  0  0  0  0  0  0
  199.1820  169.5900  135.1630 C   0  0  0  0  0  2  0  0  0  0  0  0
  198.6320  168.3340  135.8100 C   0  0  0  0  0  1  0  0  0  0  0  0
  191.5970  176.4500  143.2250 C   0  0  0  0  0  1  0  0  0  0  0  0
  191.0800  177.8000  142.7560 C   0  0  2  0  0  3  0  0  0  0  0  0
  190.4190  178.4430  143.8060 O   0  0  0  0  0  0  0  0  0  0  0  0
  190.5610  177.5980  144.9070 C   0  0  0  0  0  2  0  0  0  0  0  0
  189.7370  178.1400  146.0590 C   0  0  0  0  0  2  0  0  0  0  0  0
  188.5050  177.2860  146.2700 C   0  0  0  0  0  2  0  0  0  0  0  0
  187.2510  178.1300  146.0950 C   0  0  2  0  0  3  0  0  0  0  0  0
  186.5330  178.2880  147.4340 C   0  0  0  0  0  1  0  0  0  0  0  0
  186.3820  177.5070  145.1560 O   0  0  0  0  0  0  0  0  0  0  0  0
  185.8980  178.4470  143.0940 O   0  0  0  0  0  0  0  0  0  0  0  0
  185.5600  178.2370  144.2940 C   0  0  0  0  0  0  0  0  0  0  0  0
  184.2550  178.7660  144.7830 C   0  0  0  0  0  1  0  0  0  0  0  0
  187.0160  178.3960  138.8270 C   0  0  0  0  0  2  0  0  0  0  0  0
  187.3810  178.3060  137.3490 C   0  0  0  0  0  2  0  0  0  0  0  0
  186.2010  177.8000  136.5350 C   0  0  0  0  0  2  0  0  0  0  0  0
  185.7880  176.4220  137.0230 C   0  0  0  0  0  2  0  0  0  0  0  0
  186.3110  175.4350  136.1780 O   0  0  0  0  0  0  0  0  0  0  0  0
  188.3520  174.5220  136.5850 O   0  0  0  0  0  1  0  0  0  0  0  0
  187.0310  174.5890  137.0220 C   0  0  2  0  0  3  0  0  0  0  0  0
  186.4170  173.2000  136.9790 C   0  0  0  0  0  2  0  0  0  0  0  0
  185.6070  172.9950  138.0990 O   0  0  0  0  0  1  0  0  0  0  0  0
  1  3  2  0  0  0  0
  2 12  1  6  0  0  0
  2  4  1  0  0  0  0
  3  5  1  0  0  0  0
  4  3  1  0  0  0  0
  4 28  1  0  0  0  0
  6  1  1  0  0  0  0
  7  6  2  0  0  0  0
  7  2  1  0  0  0  0
  8 12  1  0  0  0  0
  9 10  1  0  0  0  0
  9  8  2  0  0  0  0
 10 11  2  0  0  0  0
 11 13  1  0  0  0  0
 12 13  2  0  0  0  0
 16 15  2  0  0  0  0
 17 16  1  0  0  0  0
 18 14  1  0  0  0  0
 18 10  1  0  0  0  0
 19 15  1  0  0  0  0
 19 14  2  0  0  0  0
 20 19  1  0  0  0  0
 21 17  2  0  0  0  0
 21 20  1  0  0  0  0
 22 20  2  0  0  0  0
 22 23  1  0  0  0  0
 23 18  2  0  0  0  0
 24 25  1  0  0  0  0
 24 17  1  0  0  0  0
 25 26  1  0  0  0  0
 28 27  1  1  0  0  0
 28 29  1  0  0  0  0
 29 30  1  0  0  0  0
 30 31  1  0  0  0  0
 31 32  1  0  0  0  0
 33 32  1  0  0  0  0
 33 34  1  1  0  0  0
 35 33  1  0  0  0  0
 36 37  2  0  0  0  0
 37 38  1  0  0  0  0
 37 35  1  0  0  0  0
 39  6  1  0  0  0  0
 40 39  1  0  0  0  0
 41 42  1  0  0  0  0
 41 40  1  0  0  0  0
 43 45  1  0  0  0  0
 43 42  1  0  0  0  0
 45 44  1  6  0  0  0
 46 45  1  0  0  0  0
 46 47  1  0  0  0  0
M  END
>  <MODEL>
6

>  <REMARK>
 VINA RESULT:      -5.0      3.448      9.692
  Name = 
  19 active torsions:
  status: ('A' for Active; 'I' for Inactive)
    1  A    between atoms: C_1  and  C_8
    2  A    between atoms: C_1  and  C_39
    3  A    between atoms: C_4  and  C_30
    4  A    between atoms: O_5  and  C_35
    5  A    between atoms: O_5  and  C_41
    6  A    between atoms: C_6  and  N_47
    7  A    between atoms: C_8  and  O_25
    8  A    between atoms: C_9  and  O_21
    9  A    between atoms: C_9  and  C_24
   10  A    between atoms: C_11  and  C_32
   11  A    between atoms: C_15  and  C_18
   12  A    between atoms: C_17  and  N_47
   13  A    between atoms: O_21  and  C_30
   14  A    between atoms: C_22  and  C_24
   15  A    between atoms: C_22  and  C_31
   16  A    between atoms: O_25  and  C_34
   17  A    between atoms: N_28  and  C_41
   18  A    between atoms: C_31  and  C_38
   19  A    between atoms: C_35  and  C_39
                            x       y       z     vdW  Elec       q    Type
                         _______ _______ _______ _____ _____    ______ ____

>  <TORSDO>
F 19

$$$$
=
 OpenBabel10222421423D

 47 50  0  0  1  0  0  0  0  0999 V2000
  187.9150  177.2030  140.5290 C   0  0  0  0  0  3  0  0  0  0  0  0
  190.5680  178.0660  139.8350 C   0  0  2  0  0  3  0  0  0  0  0  0
  188.8880  177.0480  141.4240 C   0  0  0  0  0  0  0  0  0  0  0  0
  190.1840  177.6440  141.1940 N   0  0  0  0  0  0  0  0  0  0  0  0
  188.6010  176.2890  142.6750 C   0  0  0  0  0  1  0  0  0  0  0  0
  188.1440  177.9900  139.3030 C   0  0  0  0  0  0  0  0  0  0  0  0
  189.3650  178.4410  139.0060 C   0  0  0  0  0  3  0  0  0  0  0  0
  190.6960  175.9720  138.4780 C   0  0  0  0  0  3  0  0  0  0  0  0
  191.4180  174.9900  137.7950 C   0  0  0  0  0  3  0  0  0  0  0  0
  192.8220  175.0140  137.7800 C   0  0  0  0  0  0  0  0  0  0  0  0
  193.4930  176.0420  138.4650 C   0  0  0  0  0  3  0  0  0  0  0  0
  191.3660  176.9950  139.1580 C   0  0  0  0  0  0  0  0  0  0  0  0
  192.7700  177.0280  139.1440 C   0  0  0  0  0  3  0  0  0  0  0  0
  194.9250  173.7250  137.3290 C   0  0  0  0  0  3  0  0  0  0  0  0
  196.9370  172.4420  136.8900 C   0  0  0  0  0  3  0  0  0  0  0  0
  197.5860  171.4280  136.1720 C   0  0  0  0  0  3  0  0  0  0  0  0
  196.8970  170.6850  135.2020 C   0  0  0  0  0  0  0  0  0  0  0  0
  193.5730  173.9680  137.0550 C   0  0  0  0  0  0  0  0  0  0  0  0
  195.5880  172.7140  136.6390 C   0  0  0  0  0  0  0  0  0  0  0  0
  194.8840  171.9600  135.6780 C   0  0  0  0  0  0  0  0  0  0  0  0
  195.5390  170.9520  134.9590 C   0  0  0  0  0  3  0  0  0  0  0  0
  193.5700  172.2270  135.4490 N   0  0  0  0  0  0  0  0  0  0  0  0
  192.9370  173.1960  136.1220 N   0  0  0  0  0  0  0  0  0  0  0  0
  197.6030  169.6760  134.4680 N   0  0  0  0  0  2  0  0  0  0  0  0
  198.5100  168.7150  135.0830 C   0  0  0  0  0  2  0  0  0  0  0  0
  197.8040  167.9870  136.2100 C   0  0  0  0  0  1  0  0  0  0  0  0
  191.7340  176.5160  142.7220 C   0  0  0  0  0  1  0  0  0  0  0  0
  191.1080  177.8400  142.3170 C   0  0  2  0  0  3  0  0  0  0  0  0
  190.4490  178.4050  143.4120 O   0  0  0  0  0  0  0  0  0  0  0  0
  191.1550  177.9720  144.5340 C   0  0  0  0  0  2  0  0  0  0  0  0
  190.3520  178.2920  145.7800 C   0  0  0  0  0  2  0  0  0  0  0  0
  189.2000  177.3200  145.9240 C   0  0  0  0  0  2  0  0  0  0  0  0
  188.0960  177.9450  146.7660 C   0  0  2  0  0  3  0  0  0  0  0  0
  188.0540  177.2900  148.1460 C   0  0  0  0  0  1  0  0  0  0  0  0
  186.8420  177.7710  146.1160 O   0  0  0  0  0  0  0  0  0  0  0  0
  185.7960  179.5890  147.1010 O   0  0  0  0  0  0  0  0  0  0  0  0
  185.8260  178.7280  146.1760 C   0  0  0  0  0  0  0  0  0  0  0  0
  184.7660  178.7520  145.1290 C   0  0  0  0  0  1  0  0  0  0  0  0
  186.9880  178.3900  138.4410 C   0  0  0  0  0  2  0  0  0  0  0  0
  187.2790  178.1080  136.9710 C   0  0  0  0  0  2  0  0  0  0  0  0
  186.1480  177.3080  136.3450 C   0  0  0  0  0  2  0  0  0  0  0  0
  185.0650  177.0460  137.3760 C   0  0  0  0  0  2  0  0  0  0  0  0
  183.8770  177.6880  137.0010 O   0  0  0  0  0  0  0  0  0  0  0  0
  182.2900  176.4530  138.0580 O   0  0  0  0  0  1  0  0  0  0  0  0
  183.0600  177.6110  138.1290 C   0  0  2  0  0  3  0  0  0  0  0  0
  182.1430  178.8220  138.1660 C   0  0  0  0  0  2  0  0  0  0  0  0
  181.5770  179.0370  136.9070 O   0  0  0  0  0  1  0  0  0  0  0  0
  1  3  2  0  0  0  0
  2 12  1  6  0  0  0
  2  4  1  0  0  0  0
  3  5  1  0  0  0  0
  4  3  1  0  0  0  0
  4 28  1  0  0  0  0
  6  1  1  0  0  0  0
  7  6  2  0  0  0  0
  7  2  1  0  0  0  0
  8 12  1  0  0  0  0
  9  8  2  0  0  0  0
 10  9  1  0  0  0  0
 10 11  2  0  0  0  0
 11 13  1  0  0  0  0
 13 12  2  0  0  0  0
 16 15  2  0  0  0  0
 17 16  1  0  0  0  0
 18 14  1  0  0  0  0
 18 10  1  0  0  0  0
 19 15  1  0  0  0  0
 19 14  2  0  0  0  0
 20 19  1  0  0  0  0
 21 17  2  0  0  0  0
 21 20  1  0  0  0  0
 22 20  2  0  0  0  0
 22 23  1  0  0  0  0
 23 18  2  0  0  0  0
 24 25  1  0  0  0  0
 24 17  1  0  0  0  0
 25 26  1  0  0  0  0
 28 27  1  1  0  0  0
 28 29  1  0  0  0  0
 29 30  1  0  0  0  0
 30 31  1  0  0  0  0
 31 32  1  0  0  0  0
 32 33  1  0  0  0  0
 33 34  1  1  0  0  0
 35 37  1  0  0  0  0
 35 33  1  0  0  0  0
 37 36  2  0  0  0  0
 38 37  1  0  0  0  0
 39  6  1  0  0  0  0
 40 39  1  0  0  0  0
 41 40  1  0  0  0  0
 41 42  1  0  0  0  0
 43 42  1  0  0  0  0
 43 45  1  0  0  0  0
 45 44  1  6  0  0  0
 45 46  1  0  0  0  0
 47 46  1  0  0  0  0
M  END
>  <MODEL>
7

>  <REMARK>
 VINA RESULT:      -4.9      3.572     10.429
  Name = 
  19 active torsions:
  status: ('A' for Active; 'I' for Inactive)
    1  A    between atoms: C_1  and  C_8
    2  A    between atoms: C_1  and  C_39
    3  A    between atoms: C_4  and  C_30
    4  A    between atoms: O_5  and  C_35
    5  A    between atoms: O_5  and  C_41
    6  A    between atoms: C_6  and  N_47
    7  A    between atoms: C_8  and  O_25
    8  A    between atoms: C_9  and  O_21
    9  A    between atoms: C_9  and  C_24
   10  A    between atoms: C_11  and  C_32
   11  A    between atoms: C_15  and  C_18
   12  A    between atoms: C_17  and  N_47
   13  A    between atoms: O_21  and  C_30
   14  A    between atoms: C_22  and  C_24
   15  A    between atoms: C_22  and  C_31
   16  A    between atoms: O_25  and  C_34
   17  A    between atoms: N_28  and  C_41
   18  A    between atoms: C_31  and  C_38
   19  A    between atoms: C_35  and  C_39
                            x       y       z     vdW  Elec       q    Type
                         _______ _______ _______ _____ _____    ______ ____

>  <TORSDO>
F 19

$$$$
=
 OpenBabel10222421423D

 47 50  0  0  1  0  0  0  0  0999 V2000
  190.2330  173.8380  134.9010 C   0  0  0  0  0  3  0  0  0  0  0  0
  189.5740  176.5130  135.7260 C   0  0  2  0  0  3  0  0  0  0  0  0
  188.9510  174.1500  135.0830 C   0  0  0  0  0  0  0  0  0  0  0  0
  188.5660  175.5250  135.3020 N   0  0  0  0  0  0  0  0  0  0  0  0
  187.9300  173.0660  135.0140 C   0  0  0  0  0  1  0  0  0  0  0  0
  191.2670  174.8890  134.9120 C   0  0  0  0  0  0  0  0  0  0  0  0
  190.9530  176.1450  135.2390 C   0  0  0  0  0  3  0  0  0  0  0  0
  188.4560  177.2750  137.8260 C   0  0  0  0  0  3  0  0  0  0  0  0
  188.3970  177.3900  139.2170 C   0  0  0  0  0  3  0  0  0  0  0  0
  189.4420  176.9040  140.0200 C   0  0  0  0  0  0  0  0  0  0  0  0
  190.5510  176.3000  139.4040 C   0  0  0  0  0  3  0  0  0  0  0  0
  189.5610  176.6730  137.2150 C   0  0  0  0  0  0  0  0  0  0  0  0
  190.6080  176.1810  138.0110 C   0  0  0  0  0  3  0  0  0  0  0  0
  190.4260  176.6230  142.3090 C   0  0  0  0  0  3  0  0  0  0  0  0
  191.3640  176.3890  144.5350 C   0  0  0  0  0  3  0  0  0  0  0  0
  191.2310  176.5500  145.9210 C   0  0  0  0  0  3  0  0  0  0  0  0
  190.0620  177.1010  146.4680 C   0  0  0  0  0  0  0  0  0  0  0  0
  189.3670  177.0340  141.4910 C   0  0  0  0  0  0  0  0  0  0  0  0
  190.3240  176.7850  143.6880 C   0  0  0  0  0  0  0  0  0  0  0  0
  189.1540  177.3550  144.2290 C   0  0  0  0  0  0  0  0  0  0  0  0
  189.0230  177.5080  145.6150 C   0  0  0  0  0  3  0  0  0  0  0  0
  188.1520  177.7450  143.3950 N   0  0  0  0  0  0  0  0  0  0  0  0
  188.2610  177.5940  142.0700 N   0  0  0  0  0  0  0  0  0  0  0  0
  189.9520  177.2210  147.8920 N   0  0  0  0  0  2  0  0  0  0  0  0
  189.6290  178.4680  148.5740 C   0  0  0  0  0  2  0  0  0  0  0  0
  188.1700  178.8150  148.3550 C   0  0  0  0  0  1  0  0  0  0  0  0
  187.1160  177.3810  134.6200 C   0  0  0  0  0  1  0  0  0  0  0  0
  187.1730  175.9360  135.0900 C   0  0  2  0  0  3  0  0  0  0  0  0
  186.4270  175.7930  136.2630 O   0  0  0  0  0  0  0  0  0  0  0  0
  185.0920  175.9050  135.8710 C   0  0  0  0  0  2  0  0  0  0  0  0
  184.2220  176.0380  137.1050 C   0  0  0  0  0  2  0  0  0  0  0  0
  183.1190  177.0460  136.8630 C   0  0  0  0  0  2  0  0  0  0  0  0
  183.4280  178.3400  137.6020 C   0  0  2  0  0  3  0  0  0  0  0  0
  184.3530  178.0610  138.7850 C   0  0  0  0  0  1  0  0  0  0  0  0
  182.2180  178.9260  138.0680 O   0  0  0  0  0  0  0  0  0  0  0  0
  180.3850  177.9930  137.0000 O   0  0  0  0  0  0  0  0  0  0  0  0
  181.0030  178.2360  138.0750 C   0  0  0  0  0  0  0  0  0  0  0  0
  180.4260  177.7610  139.3650 C   0  0  0  0  0  1  0  0  0  0  0  0
  192.6540  174.5810  134.4410 C   0  0  0  0  0  2  0  0  0  0  0  0
  193.4410  173.8350  135.5120 C   0  0  0  0  0  2  0  0  0  0  0  0
  193.7020  174.7330  136.7100 C   0  0  0  0  0  2  0  0  0  0  0  0
  194.0500  173.8900  137.9240 C   0  0  0  0  0  2  0  0  0  0  0  0
  195.3760  173.4490  137.8390 O   0  0  0  0  0  0  0  0  0  0  0  0
  196.6620  175.1140  136.9810 O   0  0  0  0  0  1  0  0  0  0  0  0
  196.1460  174.5700  138.1540 C   0  0  2  0  0  3  0  0  0  0  0  0
  197.2910  174.1510  139.0610 C   0  0  0  0  0  2  0  0  0  0  0  0
  197.7860  175.2580  139.7550 O   0  0  0  0  0  1  0  0  0  0  0  0
  1  6  1  0  0  0  0
  1  3  2  0  0  0  0
  2 12  1  1  0  0  0
  3  4  1  0  0  0  0
  4  2  1  0  0  0  0
  5  3  1  0  0  0  0
  6  7  2  0  0  0  0
  7  2  1  0  0  0  0
  8  9  1  0  0  0  0
  9 10  2  0  0  0  0
 10 18  1  0  0  0  0
 11 10  1  0  0  0  0
 12  8  2  0  0  0  0
 12 13  1  0  0  0  0
 13 11  2  0  0  0  0
 14 19  1  0  0  0  0
 15 16  1  0  0  0  0
 16 17  2  0  0  0  0
 17 24  1  0  0  0  0
 18 23  1  0  0  0  0
 18 14  2  0  0  0  0
 19 20  1  0  0  0  0
 19 15  2  0  0  0  0
 20 21  2  0  0  0  0
 21 17  1  0  0  0  0
 22 20  1  0  0  0  0
 23 22  2  0  0  0  0
 24 25  1  0  0  0  0
 26 25  1  0  0  0  0
 28 27  1  1  0  0  0
 28  4  1  0  0  0  0
 28 29  1  0  0  0  0
 30 29  1  0  0  0  0
 30 31  1  0  0  0  0
 32 31  1  0  0  0  0
 32 33  1  0  0  0  0
 33 35  1  0  0  0  0
 33 34  1  1  0  0  0
 35 37  1  0  0  0  0
 36 37  2  0  0  0  0
 37 38  1  0  0  0  0
 39  6  1  0  0  0  0
 39 40  1  0  0  0  0
 40 41  1  0  0  0  0
 41 42  1  0  0  0  0
 43 42  1  0  0  0  0
 43 45  1  0  0  0  0
 45 44  1  6  0  0  0
 45 46  1  0  0  0  0
 46 47  1  0  0  0  0
M  END
>  <MODEL>
8

>  <REMARK>
 VINA RESULT:      -4.8      1.502      2.152
  Name = 
  19 active torsions:
  status: ('A' for Active; 'I' for Inactive)
    1  A    between atoms: C_1  and  C_8
    2  A    between atoms: C_1  and  C_39
    3  A    between atoms: C_4  and  C_30
    4  A    between atoms: O_5  and  C_35
    5  A    between atoms: O_5  and  C_41
    6  A    between atoms: C_6  and  N_47
    7  A    between atoms: C_8  and  O_25
    8  A    between atoms: C_9  and  O_21
    9  A    between atoms: C_9  and  C_24
   10  A    between atoms: C_11  and  C_32
   11  A    between atoms: C_15  and  C_18
   12  A    between atoms: C_17  and  N_47
   13  A    between atoms: O_21  and  C_30
   14  A    between atoms: C_22  and  C_24
   15  A    between atoms: C_22  and  C_31
   16  A    between atoms: O_25  and  C_34
   17  A    between atoms: N_28  and  C_41
   18  A    between atoms: C_31  and  C_38
   19  A    between atoms: C_35  and  C_39
                            x       y       z     vdW  Elec       q    Type
                         _______ _______ _______ _____ _____    ______ ____

>  <TORSDO>
F 19

$$$$
=
 OpenBabel10222421423D

 47 50  0  0  1  0  0  0  0  0999 V2000
  191.8220  178.4320  142.7960 C   0  0  0  0  0  3  0  0  0  0  0  0
  189.4400  176.8710  143.1890 C   0  0  2  0  0  3  0  0  0  0  0  0
  190.9880  178.7800  143.7750 C   0  0  0  0  0  0  0  0  0  0  0  0
  189.8900  177.9120  144.1300 N   0  0  0  0  0  0  0  0  0  0  0  0
  191.2360  180.0510  144.5140 C   0  0  0  0  0  1  0  0  0  0  0  0
  191.6410  177.1590  142.0760 C   0  0  0  0  0  0  0  0  0  0  0  0
  190.5630  176.4020  142.2980 C   0  0  0  0  0  3  0  0  0  0  0  0
  188.5100  177.7890  141.0600 C   0  0  0  0  0  3  0  0  0  0  0  0
  187.4410  178.2040  140.2620 C   0  0  0  0  0  3  0  0  0  0  0  0
  186.1290  178.2000  140.7630 C   0  0  0  0  0  0  0  0  0  0  0  0
  185.9050  177.7720  142.0830 C   0  0  0  0  0  3  0  0  0  0  0  0
  188.2840  177.3630  142.3730 C   0  0  0  0  0  0  0  0  0  0  0  0
  186.9750  177.3510  142.8800 C   0  0  0  0  0  3  0  0  0  0  0  0
  184.3340  177.7430  139.0730 C   0  0  0  0  0  3  0  0  0  0  0  0
  182.5710  177.3260  137.4590 C   0  0  0  0  0  3  0  0  0  0  0  0
  181.5100  177.8110  136.6810 C   0  0  0  0  0  3  0  0  0  0  0  0
  181.1430  179.1630  136.7370 C   0  0  0  0  0  0  0  0  0  0  0  0
  185.0080  178.6430  139.9080 C   0  0  0  0  0  0  0  0  0  0  0  0
  183.2680  178.1970  138.3010 C   0  0  0  0  0  0  0  0  0  0  0  0
  182.8940  179.5550  138.3750 C   0  0  0  0  0  0  0  0  0  0  0  0
  181.8380  180.0360  137.5910 C   0  0  0  0  0  3  0  0  0  0  0  0
  183.5740  180.3920  139.2050 N   0  0  0  0  0  0  0  0  0  0  0  0
  184.5930  179.9460  139.9500 N   0  0  0  0  0  0  0  0  0  0  0  0
  180.0730  179.6280  135.9050 N   0  0  0  0  0  2  0  0  0  0  0  0
  180.2150  180.7010  134.9290 C   0  0  0  0  0  2  0  0  0  0  0  0
  180.1720  182.0460  135.6300 C   0  0  0  0  0  1  0  0  0  0  0  0
  189.3490  176.7720  146.2330 C   0  0  0  0  0  1  0  0  0  0  0  0
  189.2340  178.0600  145.4350 C   0  0  2  0  0  3  0  0  0  0  0  0
  187.8870  178.4000  145.2790 O   0  0  0  0  0  0  0  0  0  0  0  0
  187.2530  177.9480  146.4370 C   0  0  0  0  0  2  0  0  0  0  0  0
  185.9710  178.7300  146.6380 C   0  0  0  0  0  2  0  0  0  0  0  0
  185.5670  179.4150  145.3500 C   0  0  0  0  0  2  0  0  0  0  0  0
  184.0650  179.2800  145.1390 C   0  0  2  0  0  3  0  0  0  0  0  0
  183.5640  177.9750  145.7560 C   0  0  0  0  0  1  0  0  0  0  0  0
  183.7750  179.2920  143.7460 O   0  0  0  0  0  0  0  0  0  0  0  0
  181.5730  180.0150  143.7330 O   0  0  0  0  0  0  0  0  0  0  0  0
  182.4690  179.2650  143.2500 C   0  0  0  0  0  0  0  0  0  0  0  0
  182.1200  178.3520  142.1250 C   0  0  0  0  0  1  0  0  0  0  0  0
  192.7210  176.6450  141.1760 C   0  0  0  0  0  2  0  0  0  0  0  0
  192.6960  177.3590  139.8300 C   0  0  0  0  0  2  0  0  0  0  0  0
  191.8870  176.5650  138.8160 C   0  0  0  0  0  2  0  0  0  0  0  0
  190.7170  177.3970  138.3220 C   0  0  0  0  0  2  0  0  0  0  0  0
  190.0660  176.7350  137.2730 O   0  0  0  0  0  0  0  0  0  0  0  0
  188.8600  178.6580  137.3840 O   0  0  0  0  0  1  0  0  0  0  0  0
  189.4750  177.7520  136.5220 C   0  0  2  0  0  3  0  0  0  0  0  0
  188.4310  177.1500  135.5970 C   0  0  0  0  0  2  0  0  0  0  0  0
  187.7100  176.1570  136.2650 O   0  0  0  0  0  1  0  0  0  0  0  0
  1  3  2  0  0  0  0
  2 12  1  6  0  0  0
  2  4  1  0  0  0  0
  3  4  1  0  0  0  0
  3  5  1  0  0  0  0
  4 28  1  0  0  0  0
  6  7  2  0  0  0  0
  6  1  1  0  0  0  0
  7  2  1  0  0  0  0
  8 12  1  0  0  0  0
  9 10  1  0  0  0  0
  9  8  2  0  0  0  0
 10 11  2  0  0  0  0
 11 13  1  0  0  0  0
 12 13  2  0  0  0  0
 14 18  1  0  0  0  0
 15 19  1  0  0  0  0
 16 17  1  0  0  0  0
 16 15  2  0  0  0  0
 17 21  2  0  0  0  0
 18 23  2  0  0  0  0
 18 10  1  0  0  0  0
 19 20  1  0  0  0  0
 19 14  2  0  0  0  0
 20 22  2  0  0  0  0
 21 20  1  0  0  0  0
 22 23  1  0  0  0  0
 24 17  1  0  0  0  0
 25 26  1  0  0  0  0
 25 24  1  0  0  0  0
 28 27  1  6  0  0  0
 29 28  1  0  0  0  0
 29 30  1  0  0  0  0
 30 31  1  0  0  0  0
 32 31  1  0  0  0  0
 33 32  1  0  0  0  0
 33 34  1  6  0  0  0
 35 33  1  0  0  0  0
 37 36  2  0  0  0  0
 37 35  1  0  0  0  0
 38 37  1  0  0  0  0
 39  6  1  0  0  0  0
 40 39  1  0  0  0  0
 41 40  1  0  0  0  0
 42 41  1  0  0  0  0
 43 42  1  0  0  0  0
 45 43  1  0  0  0  0
 45 44  1  1  0  0  0
 46 47  1  0  0  0  0
 46 45  1  0  0  0  0
M  END
>  <MODEL>
9

>  <REMARK>
 VINA RESULT:      -4.7      3.604      8.904
  Name = 
  19 active torsions:
  status: ('A' for Active; 'I' for Inactive)
    1  A    between atoms: C_1  and  C_8
    2  A    between atoms: C_1  and  C_39
    3  A    between atoms: C_4  and  C_30
    4  A    between atoms: O_5  and  C_35
    5  A    between atoms: O_5  and  C_41
    6  A    between atoms: C_6  and  N_47
    7  A    between atoms: C_8  and  O_25
    8  A    between atoms: C_9  and  O_21
    9  A    between atoms: C_9  and  C_24
   10  A    between atoms: C_11  and  C_32
   11  A    between atoms: C_15  and  C_18
   12  A    between atoms: C_17  and  N_47
   13  A    between atoms: O_21  and  C_30
   14  A    between atoms: C_22  and  C_24
   15  A    between atoms: C_22  and  C_31
   16  A    between atoms: O_25  and  C_34
   17  A    between atoms: N_28  and  C_41
   18  A    between atoms: C_31  and  C_38
   19  A    between atoms: C_35  and  C_39
                            x       y       z     vdW  Elec       q    Type
                         _______ _______ _______ _____ _____    ______ ____

>  <TORSDO>
F 19

$$$$
