=
 OpenBabel10232408153D

 32 35  0  0  1  0  0  0  0  0999 V2000
  189.4330  177.2970  147.5470 C   0  0  0  0  0  3  0  0  0  0  0  0
  187.8630  178.1260  149.1660 O   0  0  0  0  0  1  0  0  0  0  0  0
  184.4560  178.6170  143.7140 N   0  0  0  0  0  2  0  0  0  0  0  0
  185.0520  178.7250  146.0710 C   0  0  0  0  0  3  0  0  0  0  0  0
  187.5650  177.6750  145.4850 C   0  0  0  0  0  0  0  0  0  0  0  0
  187.2350  178.0020  146.8230 C   0  0  0  0  0  0  0  0  0  0  0  0
  188.8440  177.1380  145.1930 C   0  0  0  0  0  0  0  0  0  0  0  0
  184.6900  178.4360  142.3120 C   0  0  0  0  0  0  0  0  0  0  0  0
  186.6450  177.8950  144.5010 N   0  0  0  0  0  0  0  0  0  0  0  0
  188.1720  177.8090  147.8490 C   0  0  0  0  0  0  0  0  0  0  0  0
  185.8240  178.0940  141.8840 O   0  0  0  0  0  0  0  0  0  0  0  0
  185.9690  178.5240  147.1020 C   0  0  0  0  0  3  0  0  0  0  0  0
  189.7640  176.9670  146.2320 C   0  0  0  0  0  3  0  0  0  0  0  0
  185.4100  178.4080  144.7610 C   0  0  0  0  0  0  0  0  0  0  0  0
  184.5240  179.9740  139.3990 O   0  0  0  0  0  0  0  0  0  0  0  0
  183.5610  178.6220  141.3480 C   0  0  2  0  0  3  0  0  0  0  0  0
  183.6050  177.6620  140.3710 O   0  0  0  0  0  0  0  0  0  0  0  0
  184.0510  179.0730  140.1390 C   0  0  0  0  0  0  0  0  0  0  0  0
  189.2640  176.7610  143.8730 N   0  0  0  0  0  2  0  0  0  0  0  0
  190.5010  176.8190  140.6430 C   0  0  1  0  0  3  0  0  0  0  0  0
  191.6060  177.2760  141.4660 N   0  0  0  0  0  2  0  0  0  0  0  0
  191.8360  178.2270  143.5920 O   0  0  0  0  0  0  0  0  0  0  0  0
  189.6270  177.6720  142.7960 C   0  0  2  0  0  3  0  0  0  0  0  0
  189.2190  177.0700  141.4490 C   0  0  0  0  0  2  0  0  0  0  0  0
  191.0950  177.7580  142.6890 C   0  0  0  0  0  0  0  0  0  0  0  0
  190.4480  177.6160  139.3530 C   0  0  0  0  0  2  0  0  0  0  0  0
  189.1010  178.3030  139.2150 C   0  0  0  0  0  2  0  0  0  0  0  0
  188.8310  178.5940  137.7820 C   0  0  0  0  0  0  0  0  0  0  0  0
  188.8820  179.7850  137.3680 O   0  0  0  0  0  0  0  0  0  0  0  0
  188.4950  177.5500  136.9190 O   0  0  0  0  0  0  0  0  0  0  0  0
  186.1460  177.5350  137.3900 C   0  0  0  0  0  1  0  0  0  0  0  0
  187.2130  177.4590  136.3170 C   0  0  0  0  0  2  0  0  0  0  0  0
  1 10  1  0  0  0  0
  3 14  1  0  0  0  0
  4 12  2  0  0  0  0
  5  6  1  0  0  0  0
  6 12  1  0  0  0  0
  6 10  2  0  0  0  0
  7  5  2  0  0  0  0
  7 13  1  0  0  0  0
  8  3  1  0  0  0  0
  9 14  2  0  0  0  0
  9  5  1  0  0  0  0
 10  2  1  0  0  0  0
 11  8  2  0  0  0  0
 13  1  2  0  0  0  0
 14  4  1  0  0  0  0
 15 18  2  0  0  0  0
 16  8  1  1  0  0  0
 17 16  1  0  0  0  0
 18 17  1  0  0  0  0
 18 16  1  0  0  0  0
 19  7  1  0  0  0  0
 20 26  1  6  0  0  0
 20 24  1  0  0  0  0
 20 21  1  0  0  0  0
 21 25  1  0  0  0  0
 23 19  1  1  0  0  0
 24 23  1  0  0  0  0
 25 23  1  0  0  0  0
 25 22  2  0  0  0  0
 27 26  1  0  0  0  0
 28 27  1  0  0  0  0
 29 28  2  0  0  0  0
 30 28  1  0  0  0  0
 32 30  1  0  0  0  0
 32 31  1  0  0  0  0
M  END
>  <MODEL>
1

>  <REMARK>
 VINA RESULT:      -9.4      0.000      0.000
  Name = 
  8 active torsions:
  status: ('A' for Active; 'I' for Inactive)
    1  A    between atoms: C_1  and  C_20
    2  A    between atoms: C_5  and  C_10
    3  A    between atoms: C_5  and  O_12
    4  A    between atoms: C_10  and  C_20
    5  A    between atoms: C_11  and  O_12
    6  A    between atoms: C_16  and  N_30
    7  A    between atoms: C_17  and  N_30
    8  A    between atoms: C_18  and  C_24
                            x       y       z     vdW  Elec       q    Type
                         _______ _______ _______ _____ _____    ______ ____

>  <TORSDO>
F 8

$$$$
=
 OpenBabel10232408153D

 32 35  0  0  1  0  0  0  0  0999 V2000
  189.3260  177.2270  147.7290 C   0  0  0  0  0  3  0  0  0  0  0  0
  191.4800  176.1670  147.6120 O   0  0  0  0  0  1  0  0  0  0  0  0
  190.2700  177.2920  141.3800 N   0  0  0  0  0  2  0  0  0  0  0  0
  191.4030  176.5700  143.4090 C   0  0  0  0  0  3  0  0  0  0  0  0
  189.2740  177.5150  144.9360 C   0  0  0  0  0  0  0  0  0  0  0  0
  190.3810  176.9050  145.5760 C   0  0  0  0  0  0  0  0  0  0  0  0
  188.1960  177.9970  145.7190 C   0  0  0  0  0  0  0  0  0  0  0  0
  189.1760  177.7860  140.5970 C   0  0  0  0  0  0  0  0  0  0  0  0
  189.2660  177.6170  143.5760 N   0  0  0  0  0  0  0  0  0  0  0  0
  190.4020  176.7650  146.9710 C   0  0  0  0  0  0  0  0  0  0  0  0
  188.0910  178.1240  141.1410 O   0  0  0  0  0  0  0  0  0  0  0  0
  191.4430  176.4390  144.7960 C   0  0  0  0  0  3  0  0  0  0  0  0
  188.2360  177.8360  147.1070 C   0  0  0  0  0  3  0  0  0  0  0  0
  190.2950  177.1620  142.8060 C   0  0  0  0  0  0  0  0  0  0  0  0
  186.9970  177.6360  138.1260 O   0  0  0  0  0  0  0  0  0  0  0  0
  189.3380  177.9330  139.1170 C   0  0  2  0  0  3  0  0  0  0  0  0
  189.0610  179.2190  138.7330 O   0  0  0  0  0  0  0  0  0  0  0  0
  188.1010  178.0880  138.5260 C   0  0  0  0  0  0  0  0  0  0  0  0
  187.0400  178.6450  145.1650 N   0  0  0  0  0  2  0  0  0  0  0  0
  184.1960  179.1350  143.2580 C   0  0  1  0  0  3  0  0  0  0  0  0
  183.7360  179.2270  144.6320 N   0  0  0  0  0  2  0  0  0  0  0  0
  184.5070  178.4890  146.7140 O   0  0  0  0  0  0  0  0  0  0  0  0
  185.8090  177.9900  144.7460 C   0  0  2  0  0  3  0  0  0  0  0  0
  185.5070  178.3380  143.2870 C   0  0  0  0  0  2  0  0  0  0  0  0
  184.6630  178.5720  145.4690 C   0  0  0  0  0  0  0  0  0  0  0  0
  183.1750  178.3930  142.4150 C   0  0  0  0  0  2  0  0  0  0  0  0
  183.7830  177.9980  141.0820 C   0  0  0  0  0  2  0  0  0  0  0  0
  183.6450  179.1200  140.1150 C   0  0  0  0  0  0  0  0  0  0  0  0
  184.6790  179.6910  139.6730 O   0  0  0  0  0  0  0  0  0  0  0  0
  182.3730  179.5450  139.7310 O   0  0  0  0  0  0  0  0  0  0  0  0
  181.7370  181.4740  138.4620 C   0  0  0  0  0  1  0  0  0  0  0  0
  182.1020  180.0050  138.4160 C   0  0  0  0  0  2  0  0  0  0  0  0
  3 14  1  0  0  0  0
  4 12  2  0  0  0  0
  5  6  2  0  0  0  0
  5  7  1  0  0  0  0
  6 10  1  0  0  0  0
  7 13  2  0  0  0  0
  8 11  2  0  0  0  0
  8  3  1  0  0  0  0
  9  5  1  0  0  0  0
 10  2  1  0  0  0  0
 10  1  2  0  0  0  0
 12  6  1  0  0  0  0
 13  1  1  0  0  0  0
 14  4  1  0  0  0  0
 14  9  2  0  0  0  0
 15 18  2  0  0  0  0
 16  8  1  1  0  0  0
 17 16  1  0  0  0  0
 18 17  1  0  0  0  0
 18 16  1  0  0  0  0
 19  7  1  0  0  0  0
 20 26  1  6  0  0  0
 20 24  1  0  0  0  0
 20 21  1  0  0  0  0
 21 25  1  0  0  0  0
 23 19  1  1  0  0  0
 23 25  1  0  0  0  0
 24 23  1  0  0  0  0
 25 22  2  0  0  0  0
 27 26  1  0  0  0  0
 28 27  1  0  0  0  0
 29 28  2  0  0  0  0
 30 28  1  0  0  0  0
 32 31  1  0  0  0  0
 32 30  1  0  0  0  0
M  END
>  <MODEL>
2

>  <REMARK>
 VINA RESULT:      -9.1      1.774      5.346
  Name = 
  8 active torsions:
  status: ('A' for Active; 'I' for Inactive)
    1  A    between atoms: C_1  and  C_20
    2  A    between atoms: C_5  and  C_10
    3  A    between atoms: C_5  and  O_12
    4  A    between atoms: C_10  and  C_20
    5  A    between atoms: C_11  and  O_12
    6  A    between atoms: C_16  and  N_30
    7  A    between atoms: C_17  and  N_30
    8  A    between atoms: C_18  and  C_24
                            x       y       z     vdW  Elec       q    Type
                         _______ _______ _______ _____ _____    ______ ____

>  <TORSDO>
F 8

$$$$
=
 OpenBabel10232408153D

 32 35  0  0  1  0  0  0  0  0999 V2000
  189.1040  177.4400  146.3560 C   0  0  0  0  0  3  0  0  0  0  0  0
  188.0360  177.9250  148.4530 O   0  0  0  0  0  1  0  0  0  0  0  0
  183.1620  178.7540  144.3140 N   0  0  0  0  0  2  0  0  0  0  0  0
  184.4150  178.6320  146.3970 C   0  0  0  0  0  3  0  0  0  0  0  0
  186.6970  177.8920  144.9810 C   0  0  0  0  0  0  0  0  0  0  0  0
  186.7570  178.0250  146.3900 C   0  0  0  0  0  0  0  0  0  0  0  0
  187.8610  177.5110  144.2670 C   0  0  0  0  0  0  0  0  0  0  0  0
  182.9840  178.7630  142.8920 C   0  0  0  0  0  0  0  0  0  0  0  0
  185.5200  178.1440  144.3400 N   0  0  0  0  0  0  0  0  0  0  0  0
  187.9610  177.7960  147.0710 C   0  0  0  0  0  0  0  0  0  0  0  0
  183.9590  178.5790  142.1170 O   0  0  0  0  0  0  0  0  0  0  0  0
  185.6030  178.3940  147.0870 C   0  0  0  0  0  3  0  0  0  0  0  0
  189.0520  177.3010  144.9690 C   0  0  0  0  0  3  0  0  0  0  0  0
  184.3900  178.5080  145.0080 C   0  0  0  0  0  0  0  0  0  0  0  0
  180.0150  177.7710  143.9300 O   0  0  0  0  0  0  0  0  0  0  0  0
  181.6140  178.9600  142.3230 C   0  0  2  0  0  3  0  0  0  0  0  0
  181.0030  180.0350  142.9140 O   0  0  0  0  0  0  0  0  0  0  0  0
  180.6660  178.6190  143.2660 C   0  0  0  0  0  0  0  0  0  0  0  0
  187.8960  177.3340  142.8420 N   0  0  0  0  0  2  0  0  0  0  0  0
  188.5730  177.7840  139.4810 C   0  0  1  0  0  3  0  0  0  0  0  0
  189.4820  176.7320  139.9000 N   0  0  0  0  0  2  0  0  0  0  0  0
  190.3990  176.0150  141.9290 O   0  0  0  0  0  0  0  0  0  0  0  0
  188.8860  177.8940  141.9330 C   0  0  2  0  0  3  0  0  0  0  0  0
  188.1840  178.5580  140.7470 C   0  0  0  0  0  2  0  0  0  0  0  0
  189.6510  176.8050  141.2980 C   0  0  0  0  0  0  0  0  0  0  0  0
  189.2720  178.7210  138.5130 C   0  0  0  0  0  2  0  0  0  0  0  0
  189.1380  178.2040  137.0930 C   0  0  0  0  0  2  0  0  0  0  0  0
  187.7210  178.3020  136.6540 C   0  0  0  0  0  0  0  0  0  0  0  0
  187.0850  179.3770  136.8330 O   0  0  0  0  0  0  0  0  0  0  0  0
  187.1020  177.1930  136.0750 O   0  0  0  0  0  0  0  0  0  0  0  0
  186.3260  175.1120  136.9710 C   0  0  0  0  0  1  0  0  0  0  0  0
  187.5010  175.8660  136.3840 C   0  0  0  0  0  2  0  0  0  0  0  0
  1 10  1  0  0  0  0
  3 14  1  0  0  0  0
  4 12  2  0  0  0  0
  5  6  1  0  0  0  0
  6 10  2  0  0  0  0
  6 12  1  0  0  0  0
  7 13  1  0  0  0  0
  7  5  2  0  0  0  0
  8  3  1  0  0  0  0
  9  5  1  0  0  0  0
  9 14  2  0  0  0  0
 10  2  1  0  0  0  0
 11  8  2  0  0  0  0
 13  1  2  0  0  0  0
 14  4  1  0  0  0  0
 16  8  1  1  0  0  0
 16 17  1  0  0  0  0
 16 18  1  0  0  0  0
 17 18  1  0  0  0  0
 18 15  2  0  0  0  0
 19  7  1  0  0  0  0
 20 26  1  6  0  0  0
 20 21  1  0  0  0  0
 20 24  1  0  0  0  0
 21 25  1  0  0  0  0
 23 19  1  1  0  0  0
 24 23  1  0  0  0  0
 25 22  2  0  0  0  0
 25 23  1  0  0  0  0
 27 26  1  0  0  0  0
 28 29  2  0  0  0  0
 28 27  1  0  0  0  0
 30 32  1  0  0  0  0
 30 28  1  0  0  0  0
 32 31  1  0  0  0  0
M  END
>  <MODEL>
3

>  <REMARK>
 VINA RESULT:      -8.6      1.946      2.328
  Name = 
  8 active torsions:
  status: ('A' for Active; 'I' for Inactive)
    1  A    between atoms: C_1  and  C_20
    2  A    between atoms: C_5  and  C_10
    3  A    between atoms: C_5  and  O_12
    4  A    between atoms: C_10  and  C_20
    5  A    between atoms: C_11  and  O_12
    6  A    between atoms: C_16  and  N_30
    7  A    between atoms: C_17  and  N_30
    8  A    between atoms: C_18  and  C_24
                            x       y       z     vdW  Elec       q    Type
                         _______ _______ _______ _____ _____    ______ ____

>  <TORSDO>
F 8

$$$$
=
 OpenBabel10232408153D

 32 35  0  0  1  0  0  0  0  0999 V2000
  181.9720  178.9130  143.9450 C   0  0  0  0  0  3  0  0  0  0  0  0
  180.6760  178.8040  141.9240 O   0  0  0  0  0  1  0  0  0  0  0  0
  186.6870  178.5340  139.6040 N   0  0  0  0  0  2  0  0  0  0  0  0
  184.2540  178.5760  139.6920 C   0  0  0  0  0  3  0  0  0  0  0  0
  184.3570  178.7450  142.4710 C   0  0  0  0  0  0  0  0  0  0  0  0
  183.1020  178.7310  141.8130 C   0  0  0  0  0  0  0  0  0  0  0  0
  184.4020  178.8270  143.8850 C   0  0  0  0  0  0  0  0  0  0  0  0
  188.0170  178.6460  140.1250 C   0  0  0  0  0  0  0  0  0  0  0  0
  185.4980  178.6880  141.7250 N   0  0  0  0  0  0  0  0  0  0  0  0
  181.9150  178.8140  142.5550 C   0  0  0  0  0  0  0  0  0  0  0  0
  188.2170  178.8620  141.3490 O   0  0  0  0  0  0  0  0  0  0  0  0
  183.0670  178.6420  140.4190 C   0  0  0  0  0  3  0  0  0  0  0  0
  183.2040  178.9200  144.6000 C   0  0  0  0  0  3  0  0  0  0  0  0
  185.4750  178.6060  140.3650 C   0  0  0  0  0  0  0  0  0  0  0  0
  188.5770  176.5080  137.6780 O   0  0  0  0  0  0  0  0  0  0  0  0
  189.1840  178.4700  139.2050 C   0  0  2  0  0  3  0  0  0  0  0  0
  188.9620  179.1280  138.0230 O   0  0  0  0  0  0  0  0  0  0  0  0
  188.8310  177.6420  138.1590 C   0  0  0  0  0  0  0  0  0  0  0  0
  185.6230  178.8300  144.6410 N   0  0  0  0  0  2  0  0  0  0  0  0
  188.4790  177.8280  146.3150 C   0  0  1  0  0  3  0  0  0  0  0  0
  188.5870  177.2120  145.0050 N   0  0  0  0  0  2  0  0  0  0  0  0
  187.1000  176.6290  143.2960 O   0  0  0  0  0  0  0  0  0  0  0  0
  186.2320  177.6760  145.2880 C   0  0  2  0  0  3  0  0  0  0  0  0
  186.9900  178.1240  146.5390 C   0  0  0  0  0  2  0  0  0  0  0  0
  187.3020  177.1320  144.4310 C   0  0  0  0  0  0  0  0  0  0  0  0
  188.9680  176.8690  147.3840 C   0  0  0  0  0  2  0  0  0  0  0  0
  190.3440  177.2840  147.8710 C   0  0  0  0  0  2  0  0  0  0  0  0
  191.3890  176.5420  147.1160 C   0  0  0  0  0  0  0  0  0  0  0  0
  191.8650  175.4760  147.5940 O   0  0  0  0  0  0  0  0  0  0  0  0
  191.8510  177.0510  145.9020 O   0  0  0  0  0  0  0  0  0  0  0  0
  191.7420  177.2710  143.5190 C   0  0  0  0  0  1  0  0  0  0  0  0
  191.7440  176.3140  144.6930 C   0  0  0  0  0  2  0  0  0  0  0  0
  1 13  1  0  0  0  0
  2 10  1  0  0  0  0
  3  8  1  0  0  0  0
  3 14  1  0  0  0  0
  4 14  1  0  0  0  0
  4 12  2  0  0  0  0
  5  7  1  0  0  0  0
  6  5  2  0  0  0  0
  6 10  1  0  0  0  0
  7 13  2  0  0  0  0
  7 19  1  0  0  0  0
  8 11  2  0  0  0  0
  9  5  1  0  0  0  0
 10  1  2  0  0  0  0
 12  6  1  0  0  0  0
 14  9  2  0  0  0  0
 15 18  2  0  0  0  0
 16  8  1  1  0  0  0
 17 18  1  0  0  0  0
 17 16  1  0  0  0  0
 18 16  1  0  0  0  0
 20 24  1  0  0  0  0
 20 26  1  1  0  0  0
 21 20  1  0  0  0  0
 22 25  2  0  0  0  0
 23 19  1  6  0  0  0
 23 24  1  0  0  0  0
 25 21  1  0  0  0  0
 25 23  1  0  0  0  0
 26 27  1  0  0  0  0
 28 29  2  0  0  0  0
 28 27  1  0  0  0  0
 30 28  1  0  0  0  0
 31 32  1  0  0  0  0
 32 30  1  0  0  0  0
M  END
>  <MODEL>
4

>  <REMARK>
 VINA RESULT:      -8.6      2.166      6.799
  Name = 
  8 active torsions:
  status: ('A' for Active; 'I' for Inactive)
    1  A    between atoms: C_1  and  C_20
    2  A    between atoms: C_5  and  C_10
    3  A    between atoms: C_5  and  O_12
    4  A    between atoms: C_10  and  C_20
    5  A    between atoms: C_11  and  O_12
    6  A    between atoms: C_16  and  N_30
    7  A    between atoms: C_17  and  N_30
    8  A    between atoms: C_18  and  C_24
                            x       y       z     vdW  Elec       q    Type
                         _______ _______ _______ _____ _____    ______ ____

>  <TORSDO>
F 8

$$$$
=
 OpenBabel10232408153D

 32 35  0  0  1  0  0  0  0  0999 V2000
  185.1900  178.4490  144.1400 C   0  0  0  0  0  3  0  0  0  0  0  0
  184.4120  178.9290  146.3630 O   0  0  0  0  0  1  0  0  0  0  0  0
  190.3770  176.7770  147.5310 N   0  0  0  0  0  2  0  0  0  0  0  0
  188.1390  177.6630  147.8940 C   0  0  0  0  0  3  0  0  0  0  0  0
  187.6770  177.6220  145.1470 C   0  0  0  0  0  0  0  0  0  0  0  0
  186.6600  178.0720  146.0240 C   0  0  0  0  0  0  0  0  0  0  0  0
  187.4370  177.6060  143.7510 C   0  0  0  0  0  0  0  0  0  0  0  0
  191.4500  176.1990  146.7770 C   0  0  0  0  0  0  0  0  0  0  0  0
  188.8650  177.2010  145.6690 N   0  0  0  0  0  0  0  0  0  0  0  0
  185.4210  178.4860  145.5150 C   0  0  0  0  0  0  0  0  0  0  0  0
  191.3320  175.9920  145.5400 O   0  0  0  0  0  0  0  0  0  0  0  0
  186.9080  178.0910  147.3990 C   0  0  0  0  0  3  0  0  0  0  0  0
  186.1890  178.0130  143.2690 C   0  0  0  0  0  3  0  0  0  0  0  0
  189.1170  177.2110  147.0080 C   0  0  0  0  0  0  0  0  0  0  0  0
  192.9500  177.5450  149.3870 O   0  0  0  0  0  0  0  0  0  0  0  0
  192.7380  175.8700  147.4640 C   0  0  2  0  0  3  0  0  0  0  0  0
  192.5090  175.0520  148.5390 O   0  0  0  0  0  0  0  0  0  0  0  0
  192.7930  176.5150  148.6820 C   0  0  0  0  0  0  0  0  0  0  0  0
  188.4100  177.1840  142.7820 N   0  0  0  0  0  2  0  0  0  0  0  0
  188.8890  177.6610  139.3900 C   0  0  1  0  0  3  0  0  0  0  0  0
  190.1430  177.1030  139.8620 N   0  0  0  0  0  2  0  0  0  0  0  0
  191.2460  176.9520  141.9200 O   0  0  0  0  0  0  0  0  0  0  0  0
  189.0970  178.0420  141.8270 C   0  0  2  0  0  3  0  0  0  0  0  0
  188.2000  178.2850  140.6110 C   0  0  0  0  0  2  0  0  0  0  0  0
  190.2480  177.3250  141.2500 C   0  0  0  0  0  0  0  0  0  0  0  0
  189.1550  178.7410  138.3570 C   0  0  0  0  0  2  0  0  0  0  0  0
  188.7400  178.2610  136.9780 C   0  0  0  0  0  2  0  0  0  0  0  0
  187.2770  177.9970  136.9580 C   0  0  0  0  0  0  0  0  0  0  0  0
  186.8170  177.0950  136.2050 O   0  0  0  0  0  0  0  0  0  0  0  0
  186.4280  178.7680  137.7510 O   0  0  0  0  0  0  0  0  0  0  0  0
  184.6730  179.1660  139.3330 C   0  0  0  0  0  1  0  0  0  0  0  0
  185.1870  178.2680  138.2270 C   0  0  0  0  0  2  0  0  0  0  0  0
  1 10  1  0  0  0  0
  5  9  1  0  0  0  0
  5  6  1  0  0  0  0
  6 12  1  0  0  0  0
  7  5  2  0  0  0  0
  8  3  1  0  0  0  0
  9 14  2  0  0  0  0
 10  6  2  0  0  0  0
 10  2  1  0  0  0  0
 11  8  2  0  0  0  0
 12  4  2  0  0  0  0
 13  7  1  0  0  0  0
 13  1  2  0  0  0  0
 14  3  1  0  0  0  0
 14  4  1  0  0  0  0
 16  8  1  6  0  0  0
 16 17  1  0  0  0  0
 16 18  1  0  0  0  0
 17 18  1  0  0  0  0
 18 15  2  0  0  0  0
 19  7  1  0  0  0  0
 20 26  1  6  0  0  0
 20 21  1  0  0  0  0
 20 24  1  0  0  0  0
 21 25  1  0  0  0  0
 23 19  1  1  0  0  0
 24 23  1  0  0  0  0
 25 23  1  0  0  0  0
 25 22  2  0  0  0  0
 27 26  1  0  0  0  0
 28 27  1  0  0  0  0
 28 30  1  0  0  0  0
 29 28  2  0  0  0  0
 30 32  1  0  0  0  0
 32 31  1  0  0  0  0
M  END
>  <MODEL>
5

>  <REMARK>
 VINA RESULT:      -8.4      2.335      5.574
  Name = 
  8 active torsions:
  status: ('A' for Active; 'I' for Inactive)
    1  A    between atoms: C_1  and  C_20
    2  A    between atoms: C_5  and  C_10
    3  A    between atoms: C_5  and  O_12
    4  A    between atoms: C_10  and  C_20
    5  A    between atoms: C_11  and  O_12
    6  A    between atoms: C_16  and  N_30
    7  A    between atoms: C_17  and  N_30
    8  A    between atoms: C_18  and  C_24
                            x       y       z     vdW  Elec       q    Type
                         _______ _______ _______ _____ _____    ______ ____

>  <TORSDO>
F 8

$$$$
=
 OpenBabel10232408153D

 32 35  0  0  1  0  0  0  0  0999 V2000
  189.4510  177.1090  147.6710 C   0  0  0  0  0  3  0  0  0  0  0  0
  191.6110  176.0860  147.4090 O   0  0  0  0  0  1  0  0  0  0  0  0
  190.1290  177.5240  141.3010 N   0  0  0  0  0  2  0  0  0  0  0  0
  191.3550  176.7110  143.2400 C   0  0  0  0  0  3  0  0  0  0  0  0
  189.2790  177.5440  144.9020 C   0  0  0  0  0  0  0  0  0  0  0  0
  190.4190  176.9160  145.4620 C   0  0  0  0  0  0  0  0  0  0  0  0
  188.2290  177.9680  145.7520 C   0  0  0  0  0  0  0  0  0  0  0  0
  188.9970  178.0430  140.5900 C   0  0  0  0  0  0  0  0  0  0  0  0
  189.2140  177.7170  143.5500 N   0  0  0  0  0  0  0  0  0  0  0  0
  190.5000  176.7030  146.8450 C   0  0  0  0  0  0  0  0  0  0  0  0
  187.9330  178.3370  141.1960 O   0  0  0  0  0  0  0  0  0  0  0  0
  191.4540  176.5070  144.6160 C   0  0  0  0  0  3  0  0  0  0  0  0
  188.3280  177.7330  147.1270 C   0  0  0  0  0  3  0  0  0  0  0  0
  190.2150  177.3190  142.7150 C   0  0  0  0  0  0  0  0  0  0  0  0
  190.7190  176.4940  138.2430 O   0  0  0  0  0  0  0  0  0  0  0  0
  189.0960  178.2710  139.1150 C   0  0  2  0  0  3  0  0  0  0  0  0
  188.2320  177.4440  138.4470 O   0  0  0  0  0  0  0  0  0  0  0  0
  189.7050  177.1870  138.5170 C   0  0  0  0  0  0  0  0  0  0  0  0
  187.0430  178.6280  145.2820 N   0  0  0  0  0  2  0  0  0  0  0  0
  183.9280  179.2540  143.9150 C   0  0  1  0  0  3  0  0  0  0  0  0
  183.6890  179.1640  145.3440 N   0  0  0  0  0  2  0  0  0  0  0  0
  184.7890  178.2040  147.1730 O   0  0  0  0  0  0  0  0  0  0  0  0
  185.7700  177.9890  144.9800 C   0  0  2  0  0  3  0  0  0  0  0  0
  185.2370  178.5030  143.6400 C   0  0  0  0  0  2  0  0  0  0  0  0
  184.7450  178.4430  145.9390 C   0  0  0  0  0  0  0  0  0  0  0  0
  182.7960  178.5890  143.1550 C   0  0  0  0  0  2  0  0  0  0  0  0
  183.0730  178.6250  141.6630 C   0  0  0  0  0  2  0  0  0  0  0  0
  181.8230  178.3350  140.9130 C   0  0  0  0  0  0  0  0  0  0  0  0
  180.7280  178.2520  141.5340 O   0  0  0  0  0  0  0  0  0  0  0  0
  181.8800  178.1310  139.5340 O   0  0  0  0  0  0  0  0  0  0  0  0
  182.2980  175.7880  139.2630 C   0  0  0  0  0  1  0  0  0  0  0  0
  181.3820  176.9470  138.9300 C   0  0  0  0  0  2  0  0  0  0  0  0
  3 14  1  0  0  0  0
  4 12  2  0  0  0  0
  5  6  2  0  0  0  0
  5  7  1  0  0  0  0
  6 10  1  0  0  0  0
  7 13  2  0  0  0  0
  8 11  2  0  0  0  0
  8  3  1  0  0  0  0
  9  5  1  0  0  0  0
 10  2  1  0  0  0  0
 10  1  2  0  0  0  0
 12  6  1  0  0  0  0
 13  1  1  0  0  0  0
 14  4  1  0  0  0  0
 14  9  2  0  0  0  0
 15 18  2  0  0  0  0
 16  8  1  1  0  0  0
 17 18  1  0  0  0  0
 17 16  1  0  0  0  0
 18 16  1  0  0  0  0
 19  7  1  0  0  0  0
 20 26  1  6  0  0  0
 20 21  1  0  0  0  0
 21 25  1  0  0  0  0
 23 19  1  1  0  0  0
 23 25  1  0  0  0  0
 24 20  1  0  0  0  0
 24 23  1  0  0  0  0
 25 22  2  0  0  0  0
 27 26  1  0  0  0  0
 28 29  2  0  0  0  0
 28 27  1  0  0  0  0
 30 28  1  0  0  0  0
 32 31  1  0  0  0  0
 32 30  1  0  0  0  0
M  END
>  <MODEL>
6

>  <REMARK>
 VINA RESULT:      -8.4      1.969      5.804
  Name = 
  8 active torsions:
  status: ('A' for Active; 'I' for Inactive)
    1  A    between atoms: C_1  and  C_20
    2  A    between atoms: C_5  and  C_10
    3  A    between atoms: C_5  and  O_12
    4  A    between atoms: C_10  and  C_20
    5  A    between atoms: C_11  and  O_12
    6  A    between atoms: C_16  and  N_30
    7  A    between atoms: C_17  and  N_30
    8  A    between atoms: C_18  and  C_24
                            x       y       z     vdW  Elec       q    Type
                         _______ _______ _______ _____ _____    ______ ____

>  <TORSDO>
F 8

$$$$
=
 OpenBabel10232408153D

 32 35  0  0  1  0  0  0  0  0999 V2000
  184.0830  178.8080  143.1880 C   0  0  0  0  0  3  0  0  0  0  0  0
  182.9470  179.3930  145.2230 O   0  0  0  0  0  1  0  0  0  0  0  0
  188.6350  177.3540  147.4740 N   0  0  0  0  0  2  0  0  0  0  0  0
  186.3680  178.2380  147.4140 C   0  0  0  0  0  3  0  0  0  0  0  0
  186.3690  178.0540  144.6350 C   0  0  0  0  0  0  0  0  0  0  0  0
  185.2200  178.5400  145.3060 C   0  0  0  0  0  0  0  0  0  0  0  0
  186.3640  177.9660  143.2200 C   0  0  0  0  0  0  0  0  0  0  0  0
  189.8180  176.7470  146.9390 C   0  0  0  0  0  0  0  0  0  0  0  0
  187.4540  177.6700  145.3680 N   0  0  0  0  0  0  0  0  0  0  0  0
  184.0820  178.9160  144.5780 C   0  0  0  0  0  0  0  0  0  0  0  0
  189.9080  176.4760  145.7120 O   0  0  0  0  0  0  0  0  0  0  0  0
  185.2360  178.6300  146.7010 C   0  0  0  0  0  3  0  0  0  0  0  0
  185.2130  178.3370  142.5180 C   0  0  0  0  0  3  0  0  0  0  0  0
  187.4790  177.7500  146.7280 C   0  0  0  0  0  0  0  0  0  0  0  0
  192.5960  175.0320  146.4790 O   0  0  0  0  0  0  0  0  0  0  0  0
  190.9740  176.4640  147.8450 C   0  0  2  0  0  3  0  0  0  0  0  0
  191.9830  177.3640  147.6250 O   0  0  0  0  0  0  0  0  0  0  0  0
  192.0280  175.9580  147.1120 C   0  0  0  0  0  0  0  0  0  0  0  0
  187.4840  177.5030  142.4500 N   0  0  0  0  0  2  0  0  0  0  0  0
  188.8680  177.7470  139.2900 C   0  0  1  0  0  3  0  0  0  0  0  0
  189.9650  177.3180  140.1370 N   0  0  0  0  0  2  0  0  0  0  0  0
  190.4550  177.4060  142.4230 O   0  0  0  0  0  0  0  0  0  0  0  0
  188.3690  178.3310  141.6420 C   0  0  2  0  0  3  0  0  0  0  0  0
  187.8370  178.4140  140.2100 C   0  0  0  0  0  2  0  0  0  0  0  0
  189.6680  177.6550  141.4740 C   0  0  0  0  0  0  0  0  0  0  0  0
  189.3610  178.7580  138.2710 C   0  0  0  0  0  2  0  0  0  0  0  0
  189.1230  178.2450  136.8630 C   0  0  0  0  0  2  0  0  0  0  0  0
  187.6900  178.4160  136.5020 C   0  0  0  0  0  0  0  0  0  0  0  0
  187.1120  179.5100  136.7480 O   0  0  0  0  0  0  0  0  0  0  0  0
  186.9960  177.3550  135.9210 O   0  0  0  0  0  0  0  0  0  0  0  0
  187.1470  175.2080  136.9710 C   0  0  0  0  0  1  0  0  0  0  0  0
  186.2740  176.4150  136.7020 C   0  0  0  0  0  2  0  0  0  0  0  0
  1 10  1  0  0  0  0
  5  6  1  0  0  0  0
  5  9  1  0  0  0  0
  6 12  1  0  0  0  0
  7  5  2  0  0  0  0
  8  3  1  0  0  0  0
  9 14  2  0  0  0  0
 10  2  1  0  0  0  0
 10  6  2  0  0  0  0
 11  8  2  0  0  0  0
 12  4  2  0  0  0  0
 13  1  2  0  0  0  0
 13  7  1  0  0  0  0
 14  4  1  0  0  0  0
 14  3  1  0  0  0  0
 15 18  2  0  0  0  0
 16  8  1  6  0  0  0
 17 16  1  0  0  0  0
 18 17  1  0  0  0  0
 18 16  1  0  0  0  0
 19  7  1  0  0  0  0
 20 26  1  6  0  0  0
 20 21  1  0  0  0  0
 20 24  1  0  0  0  0
 21 25  1  0  0  0  0
 23 19  1  1  0  0  0
 24 23  1  0  0  0  0
 25 23  1  0  0  0  0
 25 22  2  0  0  0  0
 27 26  1  0  0  0  0
 28 29  2  0  0  0  0
 28 27  1  0  0  0  0
 30 28  1  0  0  0  0
 30 32  1  0  0  0  0
 32 31  1  0  0  0  0
M  END
>  <MODEL>
7

>  <REMARK>
 VINA RESULT:      -8.2      2.174      5.166
  Name = 
  8 active torsions:
  status: ('A' for Active; 'I' for Inactive)
    1  A    between atoms: C_1  and  C_20
    2  A    between atoms: C_5  and  C_10
    3  A    between atoms: C_5  and  O_12
    4  A    between atoms: C_10  and  C_20
    5  A    between atoms: C_11  and  O_12
    6  A    between atoms: C_16  and  N_30
    7  A    between atoms: C_17  and  N_30
    8  A    between atoms: C_18  and  C_24
                            x       y       z     vdW  Elec       q    Type
                         _______ _______ _______ _____ _____    ______ ____

>  <TORSDO>
F 8

$$$$
=
 OpenBabel10232408153D

 32 35  0  0  1  0  0  0  0  0999 V2000
  191.4390  177.0210  145.2110 C   0  0  0  0  0  3  0  0  0  0  0  0
  190.9260  176.4360  147.4850 O   0  0  0  0  0  1  0  0  0  0  0  0
  185.2170  178.5900  145.3990 N   0  0  0  0  0  2  0  0  0  0  0  0
  186.9360  177.6680  146.8560 C   0  0  0  0  0  3  0  0  0  0  0  0
  188.7840  177.8260  144.7780 C   0  0  0  0  0  0  0  0  0  0  0  0
  189.1880  177.3280  146.0410 C   0  0  0  0  0  0  0  0  0  0  0  0
  189.7280  177.9010  143.7240 C   0  0  0  0  0  0  0  0  0  0  0  0
  184.7000  179.2110  144.2160 C   0  0  0  0  0  0  0  0  0  0  0  0
  187.4930  178.2340  144.6070 N   0  0  0  0  0  0  0  0  0  0  0  0
  190.5150  176.9260  146.2500 C   0  0  0  0  0  0  0  0  0  0  0  0
  185.4520  179.4720  143.2400 O   0  0  0  0  0  0  0  0  0  0  0  0
  188.2480  177.2510  147.0730 C   0  0  0  0  0  3  0  0  0  0  0  0
  191.0480  177.5050  143.9620 C   0  0  0  0  0  3  0  0  0  0  0  0
  186.5700  178.1680  145.6070 C   0  0  0  0  0  0  0  0  0  0  0  0
  182.4960  178.7210  141.8130 O   0  0  0  0  0  0  0  0  0  0  0  0
  183.2390  179.5220  144.1270 C   0  0  2  0  0  3  0  0  0  0  0  0
  182.4970  178.4210  144.4660 O   0  0  0  0  0  0  0  0  0  0  0  0
  182.6880  178.8620  143.0480 C   0  0  0  0  0  0  0  0  0  0  0  0
  189.4110  178.3750  142.4060 N   0  0  0  0  0  2  0  0  0  0  0  0
  190.1230  177.9300  139.0510 C   0  0  1  0  0  3  0  0  0  0  0  0
  188.8040  178.5360  139.0680 N   0  0  0  0  0  2  0  0  0  0  0  0
  187.0610  178.7220  140.6180 O   0  0  0  0  0  0  0  0  0  0  0  0
  189.0690  177.5480  141.2570 C   0  0  2  0  0  3  0  0  0  0  0  0
  190.3230  177.2750  140.4240 C   0  0  0  0  0  2  0  0  0  0  0  0
  188.2150  178.3120  140.3290 C   0  0  0  0  0  0  0  0  0  0  0  0
  190.1940  176.8660  137.9710 C   0  0  0  0  0  2  0  0  0  0  0  0
  191.1890  175.7880  138.3600 C   0  0  0  0  0  2  0  0  0  0  0  0
  192.4010  175.8910  137.5040 C   0  0  0  0  0  0  0  0  0  0  0  0
  192.2770  176.1770  136.2820 O   0  0  0  0  0  0  0  0  0  0  0  0
  193.6570  175.6420  138.0580 O   0  0  0  0  0  0  0  0  0  0  0  0
  195.4880  174.3140  138.8460 C   0  0  0  0  0  1  0  0  0  0  0  0
  194.3160  174.3960  137.8910 C   0  0  0  0  0  2  0  0  0  0  0  0
  1 10  1  0  0  0  0
  3 14  1  0  0  0  0
  4 12  2  0  0  0  0
  5  6  1  0  0  0  0
  6 10  2  0  0  0  0
  6 12  1  0  0  0  0
  7 13  1  0  0  0  0
  7  5  2  0  0  0  0
  8  3  1  0  0  0  0
  9  5  1  0  0  0  0
  9 14  2  0  0  0  0
 10  2  1  0  0  0  0
 11  8  2  0  0  0  0
 13  1  2  0  0  0  0
 14  4  1  0  0  0  0
 15 18  2  0  0  0  0
 16  8  1  6  0  0  0
 16 17  1  0  0  0  0
 18 16  1  0  0  0  0
 18 17  1  0  0  0  0
 19  7  1  0  0  0  0
 20 26  1  6  0  0  0
 20 21  1  0  0  0  0
 20 24  1  0  0  0  0
 21 25  1  0  0  0  0
 23 19  1  1  0  0  0
 24 23  1  0  0  0  0
 25 22  2  0  0  0  0
 25 23  1  0  0  0  0
 26 27  1  0  0  0  0
 28 30  1  0  0  0  0
 28 27  1  0  0  0  0
 29 28  2  0  0  0  0
 32 30  1  0  0  0  0
 32 31  1  0  0  0  0
M  END
>  <MODEL>
8

>  <REMARK>
 VINA RESULT:      -8.1      2.631      3.771
  Name = 
  8 active torsions:
  status: ('A' for Active; 'I' for Inactive)
    1  A    between atoms: C_1  and  C_20
    2  A    between atoms: C_5  and  C_10
    3  A    between atoms: C_5  and  O_12
    4  A    between atoms: C_10  and  C_20
    5  A    between atoms: C_11  and  O_12
    6  A    between atoms: C_16  and  N_30
    7  A    between atoms: C_17  and  N_30
    8  A    between atoms: C_18  and  C_24
                            x       y       z     vdW  Elec       q    Type
                         _______ _______ _______ _____ _____    ______ ____

>  <TORSDO>
F 8

$$$$
=
 OpenBabel10232408153D

 32 35  0  0  1  0  0  0  0  0999 V2000
  183.7060  178.9370  142.2600 C   0  0  0  0  0  3  0  0  0  0  0  0
  182.8660  178.5040  144.4700 O   0  0  0  0  0  1  0  0  0  0  0  0
  189.1760  177.4460  145.2720 N   0  0  0  0  0  2  0  0  0  0  0  0
  186.8000  177.6610  145.7550 C   0  0  0  0  0  3  0  0  0  0  0  0
  186.3280  178.3940  143.1090 C   0  0  0  0  0  0  0  0  0  0  0  0
  185.2450  178.3100  144.0190 C   0  0  0  0  0  0  0  0  0  0  0  0
  186.0810  178.7720  141.7660 C   0  0  0  0  0  0  0  0  0  0  0  0
  190.3430  177.3850  144.4420 C   0  0  0  0  0  0  0  0  0  0  0  0
  187.5860  178.0990  143.5460 N   0  0  0  0  0  0  0  0  0  0  0  0
  183.9390  178.5840  143.5890 C   0  0  0  0  0  0  0  0  0  0  0  0
  190.2610  177.5610  143.1970 O   0  0  0  0  0  0  0  0  0  0  0  0
  185.4980  177.9450  145.3440 C   0  0  0  0  0  3  0  0  0  0  0  0
  184.7680  179.0280  141.3600 C   0  0  0  0  0  3  0  0  0  0  0  0
  187.8440  177.7370  144.8340 C   0  0  0  0  0  0  0  0  0  0  0  0
  191.2070  176.5690  147.5180 O   0  0  0  0  0  0  0  0  0  0  0  0
  191.6790  177.1430  145.0690 C   0  0  2  0  0  3  0  0  0  0  0  0
  191.9670  175.8030  145.0750 O   0  0  0  0  0  0  0  0  0  0  0  0
  191.5140  176.5390  146.2980 C   0  0  0  0  0  0  0  0  0  0  0  0
  187.1130  178.9010  140.7750 N   0  0  0  0  0  2  0  0  0  0  0  0
  189.3570  178.2760  138.2190 C   0  0  1  0  0  3  0  0  0  0  0  0
  188.1190  178.6210  137.5430 N   0  0  0  0  0  2  0  0  0  0  0  0
  185.8470  178.6250  138.1000 O   0  0  0  0  0  0  0  0  0  0  0  0
  187.4510  177.9170  139.7560 C   0  0  2  0  0  3  0  0  0  0  0  0
  188.9720  177.8060  139.6280 C   0  0  0  0  0  2  0  0  0  0  0  0
  187.0430  178.4140  138.4290 C   0  0  0  0  0  0  0  0  0  0  0  0
  190.0530  177.1450  137.4840 C   0  0  0  0  0  2  0  0  0  0  0  0
  190.9340  176.3610  138.4410 C   0  0  0  0  0  2  0  0  0  0  0  0
  191.4280  175.1280  137.7730 C   0  0  0  0  0  0  0  0  0  0  0  0
  192.5710  175.1250  137.2390 O   0  0  0  0  0  0  0  0  0  0  0  0
  190.6100  173.9990  137.7210 O   0  0  0  0  0  0  0  0  0  0  0  0
  188.6130  173.1130  136.7400 C   0  0  0  0  0  1  0  0  0  0  0  0
  190.0470  173.5380  136.5020 C   0  0  0  0  0  2  0  0  0  0  0  0
  1 10  1  0  0  0  0
  5  9  1  0  0  0  0
  5  6  1  0  0  0  0
  6 12  1  0  0  0  0
  7  5  2  0  0  0  0
  8  3  1  0  0  0  0
  9 14  2  0  0  0  0
 10  6  2  0  0  0  0
 10  2  1  0  0  0  0
 11  8  2  0  0  0  0
 12  4  2  0  0  0  0
 13  7  1  0  0  0  0
 13  1  2  0  0  0  0
 14  3  1  0  0  0  0
 14  4  1  0  0  0  0
 16  8  1  6  0  0  0
 16 17  1  0  0  0  0
 16 18  1  0  0  0  0
 17 18  1  0  0  0  0
 18 15  2  0  0  0  0
 19  7  1  0  0  0  0
 20 26  1  6  0  0  0
 20 24  1  0  0  0  0
 21 20  1  0  0  0  0
 21 25  1  0  0  0  0
 22 25  2  0  0  0  0
 23 19  1  1  0  0  0
 24 23  1  0  0  0  0
 25 23  1  0  0  0  0
 26 27  1  0  0  0  0
 28 27  1  0  0  0  0
 29 28  2  0  0  0  0
 30 28  1  0  0  0  0
 32 31  1  0  0  0  0
 32 30  1  0  0  0  0
M  END
>  <MODEL>
9

>  <REMARK>
 VINA RESULT:      -7.9      2.671      5.735
  Name = 
  8 active torsions:
  status: ('A' for Active; 'I' for Inactive)
    1  A    between atoms: C_1  and  C_20
    2  A    between atoms: C_5  and  C_10
    3  A    between atoms: C_5  and  O_12
    4  A    between atoms: C_10  and  C_20
    5  A    between atoms: C_11  and  O_12
    6  A    between atoms: C_16  and  N_30
    7  A    between atoms: C_17  and  N_30
    8  A    between atoms: C_18  and  C_24
                            x       y       z     vdW  Elec       q    Type
                         _______ _______ _______ _____ _____    ______ ____

>  <TORSDO>
F 8

$$$$
