=
 OpenBabel10232409393D

 35 38  0  0  1  0  0  0  0  0999 V2000
  187.7510  176.9100  143.4730 C   0  0  0  0  0  3  0  0  0  0  0  0
  186.6730  178.5180  142.0200 C   0  0  0  0  0  0  0  0  0  0  0  0
  188.7750  177.4840  141.3500 C   0  0  0  0  0  0  0  0  0  0  0  0
  188.7900  176.7360  142.5470 C   0  0  0  0  0  0  0  0  0  0  0  0
  187.7130  178.3530  141.0920 C   0  0  0  0  0  3  0  0  0  0  0  0
  186.6970  177.7880  143.2090 C   0  0  0  0  0  3  0  0  0  0  0  0
  183.6090  177.6770  141.5390 N   0  0  0  0  0  0  0  0  0  0  0  0
  185.4690  179.3530  141.6870 C   0  0  2  0  0  3  0  0  0  0  0  0
  184.2090  178.7390  142.3620 C   0  0  0  0  0  2  0  0  0  0  0  0
  185.2990  179.4630  140.2220 N   0  0  0  0  0  0  0  0  0  0  0  0
  184.4300  178.5010  138.2620 N   0  0  0  0  0  0  0  0  0  0  0  0
  183.6230  177.4240  138.0640 C   0  0  0  0  0  3  0  0  0  0  0  0
  182.4230  175.7460  139.4970 N   0  0  0  0  0  1  0  0  0  0  0  0
  183.1870  176.9300  139.2880 C   0  0  1  0  0  3  0  0  0  0  0  0
  184.5090  178.6420  139.5990 C   0  0  0  0  0  0  0  0  0  0  0  0
  183.7330  177.7330  140.2490 C   0  0  0  0  0  0  0  0  0  0  0  0
  190.8090  176.8720  144.8340 N   0  0  0  0  0  2  0  0  0  0  0  0
  191.6920  176.8570  145.9890 C   0  0  0  0  0  1  0  0  0  0  0  0
  189.8550  175.8040  142.7930 N   0  0  0  0  0  2  0  0  0  0  0  0
  190.8370  175.8480  143.8370 C   0  0  0  0  0  0  0  0  0  0  0  0
  191.7100  174.9410  143.8910 O   0  0  0  0  0  0  0  0  0  0  0  0
  189.8470  177.3620  140.3040 C   0  0  2  0  0  3  0  0  0  0  0  0
  191.0530  177.8930  140.7720 O   0  0  0  0  0  1  0  0  0  0  0  0
  189.4330  178.0430  139.0400 C   0  0  0  0  0  3  0  0  0  0  0  0
  189.5030  177.4380  137.9070 N   0  0  0  0  0  0  0  0  0  0  0  0
  189.0970  178.1070  136.6920 C   0  0  0  0  0  2  0  0  0  0  0  0
  188.0860  177.5540  134.5760 O   0  0  0  0  0  0  0  0  0  0  0  0
  188.0110  175.8800  136.2040 N   0  0  0  0  0  2  0  0  0  0  0  0
  188.3850  177.1830  135.7460 C   0  0  0  0  0  0  0  0  0  0  0  0
  186.1950  172.9100  137.2440 C   0  0  0  0  0  2  0  0  0  0  0  0
  187.8300  173.5400  135.4530 C   0  0  0  0  0  2  0  0  0  0  0  0
  185.6230  174.3230  137.2330 C   0  0  0  0  0  2  0  0  0  0  0  0
  187.6690  172.9350  136.8470 C   0  0  0  0  0  2  0  0  0  0  0  0
  185.7730  174.9410  135.8400 C   0  0  0  0  0  2  0  0  0  0  0  0
  187.2340  174.9520  135.3860 C   0  0  0  0  0  3  0  0  0  0  0  0
  2  6  2  0  0  0  0
  3  4  1  0  0  0  0
  4 19  1  0  0  0  0
  4  1  2  0  0  0  0
  5  3  2  0  0  0  0
  5  2  1  0  0  0  0
  6  1  1  0  0  0  0
  7  9  1  0  0  0  0
  8  2  1  6  0  0  0
  8  9  1  0  0  0  0
 10  8  1  0  0  0  0
 11 15  1  0  0  0  0
 12 11  2  0  0  0  0
 12 14  1  0  0  0  0
 14 13  1  1  0  0  0
 14 16  1  0  0  0  0
 15 10  2  0  0  0  0
 15 16  1  0  0  0  0
 16  7  2  0  0  0  0
 17 18  1  0  0  0  0
 19 20  1  0  0  0  0
 20 21  2  0  0  0  0
 20 17  1  0  0  0  0
 22 23  1  1  0  0  0
 22  3  1  0  0  0  0
 24 22  1  0  0  0  0
 25 24  2  0  0  0  0
 26 25  1  0  0  0  0
 27 29  2  0  0  0  0
 29 28  1  0  0  0  0
 29 26  1  0  0  0  0
 31 33  1  0  0  0  0
 32 30  1  0  0  0  0
 33 30  1  0  0  0  0
 34 32  1  0  0  0  0
 35 31  1  0  0  0  0
 35 34  1  0  0  0  0
 35 28  1  0  0  0  0
M  END
>  <MODEL>
1

>  <REMARK>
 VINA RESULT:      -7.7      0.000      0.000
  Name = 
  7 active torsions:
  status: ('A' for Active; 'I' for Inactive)
    1  A    between atoms: C_1  and  N_11
    2  A    between atoms: C_1  and  C_23
    3  A    between atoms: C_4  and  C_8
    4  A    between atoms: C_4  and  C_9
    5  A    between atoms: C_6  and  C_10
    6  A    between atoms: N_19  and  C_29
    7  A    between atoms: N_21  and  C_30
                            x       y       z     vdW  Elec       q    Type
                         _______ _______ _______ _____ _____    ______ ____

>  <TORSDO>
F 7

$$$$
=
 OpenBabel10232409393D

 35 38  0  0  1  0  0  0  0  0999 V2000
  185.0730  176.6660  135.9110 C   0  0  0  0  0  3  0  0  0  0  0  0
  186.7540  178.1930  136.7500 C   0  0  0  0  0  0  0  0  0  0  0  0
  184.7550  177.7350  138.0650 C   0  0  0  0  0  0  0  0  0  0  0  0
  184.2990  176.8480  137.0660 C   0  0  0  0  0  0  0  0  0  0  0  0
  185.9800  178.3830  137.9060 C   0  0  0  0  0  3  0  0  0  0  0  0
  186.2950  177.3260  135.7570 C   0  0  0  0  0  3  0  0  0  0  0  0
  189.6130  176.7950  136.3030 N   0  0  0  0  0  0  0  0  0  0  0  0
  188.1280  178.7890  136.6360 C   0  0  2  0  0  3  0  0  0  0  0  0
  188.9790  177.9460  135.6420 C   0  0  0  0  0  2  0  0  0  0  0  0
  188.7730  178.8720  137.9640 N   0  0  0  0  0  0  0  0  0  0  0  0
  190.0380  177.7750  139.6130 N   0  0  0  0  0  0  0  0  0  0  0  0
  190.6640  176.5670  139.6180 C   0  0  0  0  0  3  0  0  0  0  0  0
  191.0290  174.6870  137.9930 N   0  0  0  0  0  1  0  0  0  0  0  0
  190.5920  175.9930  138.3530 C   0  0  1  0  0  3  0  0  0  0  0  0
  189.5630  177.9210  138.3610 C   0  0  0  0  0  0  0  0  0  0  0  0
  189.9190  176.8790  137.5620 C   0  0  0  0  0  0  0  0  0  0  0  0
  183.9470  173.8140  137.0880 N   0  0  0  0  0  2  0  0  0  0  0  0
  183.7890  172.3760  137.2280 C   0  0  0  0  0  1  0  0  0  0  0  0
  183.0630  176.1400  137.2490 N   0  0  0  0  0  2  0  0  0  0  0  0
  182.8530  174.7210  137.2400 C   0  0  0  0  0  0  0  0  0  0  0  0
  181.6860  174.2770  137.4090 O   0  0  0  0  0  0  0  0  0  0  0  0
  183.9890  177.9900  139.3320 C   0  0  2  0  0  3  0  0  0  0  0  0
  182.9990  178.9570  139.1220 O   0  0  0  0  0  1  0  0  0  0  0  0
  184.9100  178.4170  140.4290 C   0  0  0  0  0  3  0  0  0  0  0  0
  184.4740  179.0890  141.4360 N   0  0  0  0  0  0  0  0  0  0  0  0
  185.3740  179.4950  142.4920 C   0  0  0  0  0  2  0  0  0  0  0  0
  185.0640  177.8700  144.2440 O   0  0  0  0  0  0  0  0  0  0  0  0
  187.1180  177.7850  143.1350 N   0  0  0  0  0  2  0  0  0  0  0  0
  185.8130  178.3350  143.3400 C   0  0  0  0  0  0  0  0  0  0  0  0
  190.4690  177.4630  144.5030 C   0  0  0  0  0  2  0  0  0  0  0  0
  188.8320  176.0200  143.2710 C   0  0  0  0  0  2  0  0  0  0  0  0
  189.3200  178.2100  145.1730 C   0  0  0  0  0  2  0  0  0  0  0  0
  190.0350  176.9510  143.1310 C   0  0  0  0  0  2  0  0  0  0  0  0
  188.1090  177.2860  145.3240 C   0  0  0  0  0  2  0  0  0  0  0  0
  187.6620  176.7200  143.9740 C   0  0  0  0  0  3  0  0  0  0  0  0
  1  4  1  0  0  0  0
  2  5  2  0  0  0  0
  3 22  1  0  0  0  0
  4 19  1  0  0  0  0
  4  3  2  0  0  0  0
  5  3  1  0  0  0  0
  6  1  2  0  0  0  0
  6  2  1  0  0  0  0
  7 16  2  0  0  0  0
  8  2  1  1  0  0  0
  8 10  1  0  0  0  0
  9  7  1  0  0  0  0
  9  8  1  0  0  0  0
 10 15  2  0  0  0  0
 11 12  2  0  0  0  0
 14 13  1  1  0  0  0
 14 12  1  0  0  0  0
 15 11  1  0  0  0  0
 16 14  1  0  0  0  0
 16 15  1  0  0  0  0
 17 18  1  0  0  0  0
 17 20  1  0  0  0  0
 20 19  1  0  0  0  0
 20 21  2  0  0  0  0
 22 23  1  6  0  0  0
 22 24  1  0  0  0  0
 24 25  2  0  0  0  0
 25 26  1  0  0  0  0
 26 29  1  0  0  0  0
 28 29  1  0  0  0  0
 28 35  1  0  0  0  0
 29 27  2  0  0  0  0
 30 32  1  0  0  0  0
 31 35  1  0  0  0  0
 32 34  1  0  0  0  0
 33 31  1  0  0  0  0
 33 30  1  0  0  0  0
 35 34  1  0  0  0  0
M  END
>  <MODEL>
2

>  <REMARK>
 VINA RESULT:      -7.5      2.906      8.016
  Name = 
  7 active torsions:
  status: ('A' for Active; 'I' for Inactive)
    1  A    between atoms: C_1  and  N_11
    2  A    between atoms: C_1  and  C_23
    3  A    between atoms: C_4  and  C_8
    4  A    between atoms: C_4  and  C_9
    5  A    between atoms: C_6  and  C_10
    6  A    between atoms: N_19  and  C_29
    7  A    between atoms: N_21  and  C_30
                            x       y       z     vdW  Elec       q    Type
                         _______ _______ _______ _____ _____    ______ ____

>  <TORSDO>
F 7

$$$$
=
 OpenBabel10232409393D

 35 38  0  0  1  0  0  0  0  0999 V2000
  187.5290  177.9620  137.9290 C   0  0  0  0  0  3  0  0  0  0  0  0
  186.5840  178.5460  140.0800 C   0  0  0  0  0  0  0  0  0  0  0  0
  188.8910  177.7780  139.9280 C   0  0  0  0  0  0  0  0  0  0  0  0
  188.7600  177.6560  138.5270 C   0  0  0  0  0  0  0  0  0  0  0  0
  187.8120  178.2350  140.6850 C   0  0  0  0  0  3  0  0  0  0  0  0
  186.4520  178.4120  138.6970 C   0  0  0  0  0  3  0  0  0  0  0  0
  183.7140  177.3650  140.9140 N   0  0  0  0  0  0  0  0  0  0  0  0
  185.4660  179.1590  140.8750 C   0  0  2  0  0  3  0  0  0  0  0  0
  184.7490  178.0530  141.7010 C   0  0  0  0  0  2  0  0  0  0  0  0
  184.5210  179.8680  139.9860 N   0  0  0  0  0  0  0  0  0  0  0  0
  182.6400  179.7140  138.5860 N   0  0  0  0  0  0  0  0  0  0  0  0
  181.7780  178.6910  138.3380 C   0  0  0  0  0  3  0  0  0  0  0  0
  181.4500  176.3360  139.1480 N   0  0  0  0  0  1  0  0  0  0  0  0
  182.0590  177.6230  139.1830 C   0  0  1  0  0  3  0  0  0  0  0  0
  183.4580  179.2600  139.5550 C   0  0  0  0  0  0  0  0  0  0  0  0
  183.1060  178.0130  139.9690 C   0  0  0  0  0  0  0  0  0  0  0  0
  189.1860  174.8710  137.3460 N   0  0  0  0  0  2  0  0  0  0  0  0
  189.3360  173.5910  136.6750 C   0  0  0  0  0  1  0  0  0  0  0  0
  189.8830  177.2340  137.7390 N   0  0  0  0  0  2  0  0  0  0  0  0
  190.1320  175.9320  137.1900 C   0  0  0  0  0  0  0  0  0  0  0  0
  191.1860  175.7420  136.5260 O   0  0  0  0  0  0  0  0  0  0  0  0
  190.1710  177.4690  140.6510 C   0  0  2  0  0  3  0  0  0  0  0  0
  190.4850  176.1100  140.5380 O   0  0  0  0  0  1  0  0  0  0  0  0
  190.0740  177.8630  142.0890 C   0  0  0  0  0  3  0  0  0  0  0  0
  191.0870  178.3560  142.7110 N   0  0  0  0  0  0  0  0  0  0  0  0
  190.9790  178.7350  144.1020 C   0  0  0  0  0  2  0  0  0  0  0  0
  190.6230  176.6810  145.3100 O   0  0  0  0  0  0  0  0  0  0  0  0
  188.7640  178.0840  145.1270 N   0  0  0  0  0  2  0  0  0  0  0  0
  190.1400  177.7700  144.8900 C   0  0  0  0  0  0  0  0  0  0  0  0
  185.8090  178.8520  147.0970 C   0  0  0  0  0  2  0  0  0  0  0  0
  187.8490  177.4130  147.3140 C   0  0  0  0  0  2  0  0  0  0  0  0
  185.8250  178.6610  145.5830 C   0  0  0  0  0  2  0  0  0  0  0  0
  187.2290  178.7680  147.6520 C   0  0  0  0  0  2  0  0  0  0  0  0
  186.4390  177.3050  145.2300 C   0  0  0  0  0  2  0  0  0  0  0  0
  187.8520  177.1630  145.8000 C   0  0  0  0  0  3  0  0  0  0  0  0
  1  4  2  0  0  0  0
  1  6  1  0  0  0  0
  2  5  1  0  0  0  0
  3 22  1  0  0  0  0
  3  5  2  0  0  0  0
  4  3  1  0  0  0  0
  6  2  2  0  0  0  0
  7  9  1  0  0  0  0
  8  2  1  6  0  0  0
  8  9  1  0  0  0  0
 10  8  1  0  0  0  0
 11 15  1  0  0  0  0
 12 11  2  0  0  0  0
 12 14  1  0  0  0  0
 14 13  1  6  0  0  0
 14 16  1  0  0  0  0
 15 16  1  0  0  0  0
 15 10  2  0  0  0  0
 16  7  2  0  0  0  0
 18 17  1  0  0  0  0
 19  4  1  0  0  0  0
 20 17  1  0  0  0  0
 20 19  1  0  0  0  0
 21 20  2  0  0  0  0
 22 23  1  1  0  0  0
 22 24  1  0  0  0  0
 24 25  2  0  0  0  0
 25 26  1  0  0  0  0
 26 29  1  0  0  0  0
 28 35  1  0  0  0  0
 29 28  1  0  0  0  0
 29 27  2  0  0  0  0
 30 33  1  0  0  0  0
 31 33  1  0  0  0  0
 32 30  1  0  0  0  0
 34 32  1  0  0  0  0
 34 35  1  0  0  0  0
 35 31  1  0  0  0  0
M  END
>  <MODEL>
3

>  <REMARK>
 VINA RESULT:      -7.5      2.194      6.582
  Name = 
  7 active torsions:
  status: ('A' for Active; 'I' for Inactive)
    1  A    between atoms: C_1  and  N_11
    2  A    between atoms: C_1  and  C_23
    3  A    between atoms: C_4  and  C_8
    4  A    between atoms: C_4  and  C_9
    5  A    between atoms: C_6  and  C_10
    6  A    between atoms: N_19  and  C_29
    7  A    between atoms: N_21  and  C_30
                            x       y       z     vdW  Elec       q    Type
                         _______ _______ _______ _____ _____    ______ ____

>  <TORSDO>
F 7

$$$$
=
 OpenBabel10232409393D

 35 38  0  0  1  0  0  0  0  0999 V2000
  186.7450  173.0310  137.1130 C   0  0  0  0  0  3  0  0  0  0  0  0
  187.5730  175.2500  136.6090 C   0  0  0  0  0  0  0  0  0  0  0  0
  185.1850  174.8790  136.9180 C   0  0  0  0  0  0  0  0  0  0  0  0
  185.4280  173.5100  137.1690 C   0  0  0  0  0  0  0  0  0  0  0  0
  186.2560  175.7340  136.6580 C   0  0  0  0  0  3  0  0  0  0  0  0
  187.8100  173.8950  136.8440 C   0  0  0  0  0  3  0  0  0  0  0  0
  190.1350  175.7350  138.4880 N   0  0  0  0  0  0  0  0  0  0  0  0
  188.7350  176.1900  136.4570 C   0  0  2  0  0  3  0  0  0  0  0  0
  190.0180  175.5280  137.0360 C   0  0  0  0  0  2  0  0  0  0  0  0
  188.4500  177.4830  137.1150 N   0  0  0  0  0  0  0  0  0  0  0  0
  188.4750  178.7270  139.1080 N   0  0  0  0  0  0  0  0  0  0  0  0
  188.9800  178.4510  140.3410 C   0  0  0  0  0  3  0  0  0  0  0  0
  190.2640  176.5790  141.4160 N   0  0  0  0  0  1  0  0  0  0  0  0
  189.6890  177.2550  140.3030 C   0  0  1  0  0  3  0  0  0  0  0  0
  188.8480  177.6920  138.3330 C   0  0  0  0  0  0  0  0  0  0  0  0
  189.6210  176.8030  139.0160 C   0  0  0  0  0  0  0  0  0  0  0  0
  184.1980  171.4170  135.3160 N   0  0  0  0  0  2  0  0  0  0  0  0
  183.6920  170.3340  134.4890 C   0  0  0  0  0  1  0  0  0  0  0  0
  184.3340  172.6370  137.4870 N   0  0  0  0  0  2  0  0  0  0  0  0
  183.7120  171.6620  136.6380 C   0  0  0  0  0  0  0  0  0  0  0  0
  182.7480  170.9870  137.0890 O   0  0  0  0  0  0  0  0  0  0  0  0
  183.8070  175.4760  136.9550 C   0  0  2  0  0  3  0  0  0  0  0  0
  183.7430  176.6160  136.1480 O   0  0  0  0  0  1  0  0  0  0  0  0
  183.4130  175.8080  138.3580 C   0  0  0  0  0  3  0  0  0  0  0  0
  183.4590  177.0190  138.7900 N   0  0  0  0  0  0  0  0  0  0  0  0
  183.0740  177.3290  140.1490 C   0  0  0  0  0  2  0  0  0  0  0  0
  184.3440  179.3750  140.0960 O   0  0  0  0  0  0  0  0  0  0  0  0
  184.3920  178.2050  142.1170 N   0  0  0  0  0  2  0  0  0  0  0  0
  183.9570  178.3760  140.7640 C   0  0  0  0  0  0  0  0  0  0  0  0
  185.6560  178.1290  145.5220 C   0  0  0  0  0  2  0  0  0  0  0  0
  184.6640  179.8180  143.9590 C   0  0  0  0  0  2  0  0  0  0  0  0
  186.2800  177.3910  144.3430 C   0  0  0  0  0  2  0  0  0  0  0  0
  184.3700  178.8270  145.0860 C   0  0  0  0  0  2  0  0  0  0  0  0
  186.5840  178.3720  143.2080 C   0  0  0  0  0  2  0  0  0  0  0  0
  185.3270  179.1230  142.7640 C   0  0  0  0  0  3  0  0  0  0  0  0
  1  4  1  0  0  0  0
  2  5  2  0  0  0  0
  2  6  1  0  0  0  0
  3 22  1  0  0  0  0
  3  4  2  0  0  0  0
  4 19  1  0  0  0  0
  5  3  1  0  0  0  0
  6  1  2  0  0  0  0
  7 16  2  0  0  0  0
  8  2  1  1  0  0  0
  8  9  1  0  0  0  0
  8 10  1  0  0  0  0
  9  7  1  0  0  0  0
 10 15  2  0  0  0  0
 11 12  2  0  0  0  0
 14 12  1  0  0  0  0
 14 13  1  1  0  0  0
 15 16  1  0  0  0  0
 15 11  1  0  0  0  0
 16 14  1  0  0  0  0
 17 20  1  0  0  0  0
 18 17  1  0  0  0  0
 20 21  2  0  0  0  0
 20 19  1  0  0  0  0
 22 23  1  6  0  0  0
 22 24  1  0  0  0  0
 24 25  2  0  0  0  0
 25 26  1  0  0  0  0
 26 29  1  0  0  0  0
 27 29  2  0  0  0  0
 28 35  1  0  0  0  0
 29 28  1  0  0  0  0
 31 33  1  0  0  0  0
 32 30  1  0  0  0  0
 33 30  1  0  0  0  0
 34 32  1  0  0  0  0
 35 34  1  0  0  0  0
 35 31  1  0  0  0  0
M  END
>  <MODEL>
4

>  <REMARK>
 VINA RESULT:      -7.1      2.898      8.217
  Name = 
  7 active torsions:
  status: ('A' for Active; 'I' for Inactive)
    1  A    between atoms: C_1  and  N_11
    2  A    between atoms: C_1  and  C_23
    3  A    between atoms: C_4  and  C_8
    4  A    between atoms: C_4  and  C_9
    5  A    between atoms: C_6  and  C_10
    6  A    between atoms: N_19  and  C_29
    7  A    between atoms: N_21  and  C_30
                            x       y       z     vdW  Elec       q    Type
                         _______ _______ _______ _____ _____    ______ ____

>  <TORSDO>
F 7

$$$$
=
 OpenBabel10232409393D

 35 38  0  0  1  0  0  0  0  0999 V2000
  187.8090  177.1220  143.4370 C   0  0  0  0  0  3  0  0  0  0  0  0
  186.5880  178.6020  141.9610 C   0  0  0  0  0  0  0  0  0  0  0  0
  188.5960  177.4730  141.1690 C   0  0  0  0  0  0  0  0  0  0  0  0
  188.7380  176.8410  142.4240 C   0  0  0  0  0  0  0  0  0  0  0  0
  187.5180  178.3310  140.9460 C   0  0  0  0  0  3  0  0  0  0  0  0
  186.7380  177.9890  143.2060 C   0  0  0  0  0  3  0  0  0  0  0  0
  183.5180  177.7220  141.5990 N   0  0  0  0  0  0  0  0  0  0  0  0
  185.3600  179.4220  141.6820 C   0  0  2  0  0  3  0  0  0  0  0  0
  184.1370  178.7880  142.4040 C   0  0  0  0  0  2  0  0  0  0  0  0
  185.1300  179.5380  140.2260 N   0  0  0  0  0  0  0  0  0  0  0  0
  184.1950  178.5760  138.2970 N   0  0  0  0  0  0  0  0  0  0  0  0
  183.3950  177.4890  138.1250 C   0  0  0  0  0  3  0  0  0  0  0  0
  182.2760  175.7870  139.5950 N   0  0  0  0  0  1  0  0  0  0  0  0
  183.0160  176.9820  139.3620 C   0  0  1  0  0  3  0  0  0  0  0  0
  184.3260  178.7100  139.6300 C   0  0  0  0  0  0  0  0  0  0  0  0
  183.5900  177.7870  140.3050 C   0  0  0  0  0  0  0  0  0  0  0  0
  190.7340  176.9180  144.7350 N   0  0  0  0  0  2  0  0  0  0  0  0
  191.6070  176.8710  145.8960 C   0  0  0  0  0  1  0  0  0  0  0  0
  189.8160  175.9190  142.6420 N   0  0  0  0  0  2  0  0  0  0  0  0
  190.7890  175.9370  143.6970 C   0  0  0  0  0  0  0  0  0  0  0  0
  191.6770  175.0430  143.7220 O   0  0  0  0  0  0  0  0  0  0  0  0
  189.5450  177.2310  140.0300 C   0  0  2  0  0  3  0  0  0  0  0  0
  190.2080  178.4130  139.6830 O   0  0  0  0  0  1  0  0  0  0  0  0
  188.8200  176.6740  138.8470 C   0  0  0  0  0  3  0  0  0  0  0  0
  189.4340  176.4510  137.7390 N   0  0  0  0  0  0  0  0  0  0  0  0
  188.7220  175.9110  136.6020 C   0  0  0  0  0  2  0  0  0  0  0  0
  189.1390  173.5710  136.9970 O   0  0  0  0  0  0  0  0  0  0  0  0
  186.8920  174.1820  136.8080 N   0  0  0  0  0  2  0  0  0  0  0  0
  188.2890  174.4890  136.8280 C   0  0  0  0  0  0  0  0  0  0  0  0
  183.7540  172.8130  135.5940 C   0  0  0  0  0  2  0  0  0  0  0  0
  185.0770  172.7880  137.7210 C   0  0  0  0  0  2  0  0  0  0  0  0
  185.0420  172.8950  134.7820 C   0  0  0  0  0  2  0  0  0  0  0  0
  183.9450  173.4750  136.9550 C   0  0  0  0  0  2  0  0  0  0  0  0
  186.1830  172.2070  135.5350 C   0  0  0  0  0  2  0  0  0  0  0  0
  186.3870  172.8160  136.9240 C   0  0  0  0  0  3  0  0  0  0  0  0
  2  6  2  0  0  0  0
  3  4  1  0  0  0  0
  4 19  1  0  0  0  0
  4  1  2  0  0  0  0
  5  3  2  0  0  0  0
  5  2  1  0  0  0  0
  6  1  1  0  0  0  0
  7  9  1  0  0  0  0
  8  2  1  6  0  0  0
  8  9  1  0  0  0  0
 10  8  1  0  0  0  0
 11 15  1  0  0  0  0
 12 11  2  0  0  0  0
 12 14  1  0  0  0  0
 14 13  1  1  0  0  0
 14 16  1  0  0  0  0
 15 10  2  0  0  0  0
 15 16  1  0  0  0  0
 16  7  2  0  0  0  0
 17 18  1  0  0  0  0
 19 20  1  0  0  0  0
 20 21  2  0  0  0  0
 20 17  1  0  0  0  0
 22 23  1  6  0  0  0
 22  3  1  0  0  0  0
 24 22  1  0  0  0  0
 25 24  2  0  0  0  0
 26 29  1  0  0  0  0
 26 25  1  0  0  0  0
 28 29  1  0  0  0  0
 28 35  1  0  0  0  0
 29 27  2  0  0  0  0
 30 33  1  0  0  0  0
 32 34  1  0  0  0  0
 32 30  1  0  0  0  0
 33 31  1  0  0  0  0
 34 35  1  0  0  0  0
 35 31  1  0  0  0  0
M  END
>  <MODEL>
5

>  <REMARK>
 VINA RESULT:      -7.1      1.330      1.749
  Name = 
  7 active torsions:
  status: ('A' for Active; 'I' for Inactive)
    1  A    between atoms: C_1  and  N_11
    2  A    between atoms: C_1  and  C_23
    3  A    between atoms: C_4  and  C_8
    4  A    between atoms: C_4  and  C_9
    5  A    between atoms: C_6  and  C_10
    6  A    between atoms: N_19  and  C_29
    7  A    between atoms: N_21  and  C_30
                            x       y       z     vdW  Elec       q    Type
                         _______ _______ _______ _____ _____    ______ ____

>  <TORSDO>
F 7

$$$$
=
 OpenBabel10232409393D

 35 38  0  0  1  0  0  0  0  0999 V2000
  191.5860  177.6330  141.5200 C   0  0  0  0  0  3  0  0  0  0  0  0
  189.9110  177.6360  139.7730 C   0  0  0  0  0  0  0  0  0  0  0  0
  189.2350  177.5480  142.1110 C   0  0  0  0  0  0  0  0  0  0  0  0
  190.5900  177.5910  142.5070 C   0  0  0  0  0  0  0  0  0  0  0  0
  188.9090  177.5870  140.7550 C   0  0  0  0  0  3  0  0  0  0  0  0
  191.2500  177.6630  140.1640 C   0  0  0  0  0  3  0  0  0  0  0  0
  188.1780  175.7790  137.8030 N   0  0  0  0  0  0  0  0  0  0  0  0
  189.5600  177.8070  138.3220 C   0  0  2  0  0  3  0  0  0  0  0  0
  188.1400  177.2280  138.0590 C   0  0  0  0  0  2  0  0  0  0  0  0
  190.5740  177.1640  137.4600 N   0  0  0  0  0  0  0  0  0  0  0  0
  191.3170  175.1860  136.4300 N   0  0  0  0  0  0  0  0  0  0  0  0
  190.7510  173.9530  136.3250 C   0  0  0  0  0  3  0  0  0  0  0  0
  188.5970  172.8620  137.0150 N   0  0  0  0  0  1  0  0  0  0  0  0
  189.4620  173.9810  136.8440 C   0  0  1  0  0  3  0  0  0  0  0  0
  190.3880  175.9500  137.0350 C   0  0  0  0  0  0  0  0  0  0  0  0
  189.2370  175.2620  137.2610 C   0  0  0  0  0  0  0  0  0  0  0  0
  191.7070  175.2420  144.1080 N   0  0  0  0  0  2  0  0  0  0  0  0
  192.3570  174.1720  144.8460 C   0  0  0  0  0  1  0  0  0  0  0  0
  190.9270  177.6010  143.9020 N   0  0  0  0  0  2  0  0  0  0  0  0
  191.4270  176.5150  144.6940 C   0  0  0  0  0  0  0  0  0  0  0  0
  191.6590  176.7090  145.9170 O   0  0  0  0  0  0  0  0  0  0  0  0
  188.1050  177.5000  143.1000 C   0  0  2  0  0  3  0  0  0  0  0  0
  187.7970  176.1760  143.4320 O   0  0  0  0  0  1  0  0  0  0  0  0
  186.8980  178.1940  142.5570 C   0  0  0  0  0  3  0  0  0  0  0  0
  185.8290  178.3140  143.2630 N   0  0  0  0  0  0  0  0  0  0  0  0
  184.6680  178.9890  142.7270 C   0  0  0  0  0  2  0  0  0  0  0  0
  185.2080  179.5340  140.4430 O   0  0  0  0  0  0  0  0  0  0  0  0
  183.6290  177.8360  140.7340 N   0  0  0  0  0  2  0  0  0  0  0  0
  184.5450  178.8130  141.2400 C   0  0  0  0  0  0  0  0  0  0  0  0
  180.5560  176.8250  139.0800 C   0  0  0  0  0  2  0  0  0  0  0  0
  182.9840  176.2120  138.9970 C   0  0  0  0  0  2  0  0  0  0  0  0
  180.9220  178.2610  139.4410 C   0  0  0  0  0  2  0  0  0  0  0  0
  181.6230  175.8640  139.5990 C   0  0  0  0  0  2  0  0  0  0  0  0
  182.2820  178.6250  138.8410 C   0  0  0  0  0  2  0  0  0  0  0  0
  183.3770  177.6620  139.3060 C   0  0  0  0  0  3  0  0  0  0  0  0
  1  4  1  0  0  0  0
  2  6  1  0  0  0  0
  2  5  2  0  0  0  0
  3  4  2  0  0  0  0
  3 22  1  0  0  0  0
  4 19  1  0  0  0  0
  5  3  1  0  0  0  0
  6  1  2  0  0  0  0
  7  9  1  0  0  0  0
  8  2  1  1  0  0  0
  9  8  1  0  0  0  0
 10  8  1  0  0  0  0
 11 15  1  0  0  0  0
 12 11  2  0  0  0  0
 12 14  1  0  0  0  0
 14 13  1  1  0  0  0
 14 16  1  0  0  0  0
 15 16  1  0  0  0  0
 15 10  2  0  0  0  0
 16  7  2  0  0  0  0
 17 20  1  0  0  0  0
 17 18  1  0  0  0  0
 19 20  1  0  0  0  0
 20 21  2  0  0  0  0
 22 23  1  6  0  0  0
 24 22  1  0  0  0  0
 24 25  2  0  0  0  0
 26 25  1  0  0  0  0
 27 29  2  0  0  0  0
 28 29  1  0  0  0  0
 29 26  1  0  0  0  0
 30 32  1  0  0  0  0
 30 33  1  0  0  0  0
 31 35  1  0  0  0  0
 31 33  1  0  0  0  0
 34 35  1  0  0  0  0
 34 32  1  0  0  0  0
 35 28  1  0  0  0  0
M  END
>  <MODEL>
6

>  <REMARK>
 VINA RESULT:      -7.1      2.318      5.663
  Name = 
  7 active torsions:
  status: ('A' for Active; 'I' for Inactive)
    1  A    between atoms: C_1  and  N_11
    2  A    between atoms: C_1  and  C_23
    3  A    between atoms: C_4  and  C_8
    4  A    between atoms: C_4  and  C_9
    5  A    between atoms: C_6  and  C_10
    6  A    between atoms: N_19  and  C_29
    7  A    between atoms: N_21  and  C_30
                            x       y       z     vdW  Elec       q    Type
                         _______ _______ _______ _____ _____    ______ ____

>  <TORSDO>
F 7

$$$$
=
 OpenBabel10232409393D

 35 38  0  0  1  0  0  0  0  0999 V2000
  188.5570  175.4070  135.9170 C   0  0  0  0  0  3  0  0  0  0  0  0
  190.5110  175.6240  137.3290 C   0  0  0  0  0  0  0  0  0  0  0  0
  188.7280  177.2790  137.4510 C   0  0  0  0  0  0  0  0  0  0  0  0
  188.0010  176.5710  136.4690 C   0  0  0  0  0  0  0  0  0  0  0  0
  189.9630  176.7920  137.8810 C   0  0  0  0  0  3  0  0  0  0  0  0
  189.7980  174.9330  136.3490 C   0  0  0  0  0  3  0  0  0  0  0  0
  193.4850  176.8300  137.5090 N   0  0  0  0  0  0  0  0  0  0  0  0
  191.7760  175.0320  137.8810 C   0  0  2  0  0  3  0  0  0  0  0  0
  192.6450  176.1570  138.5130 C   0  0  0  0  0  2  0  0  0  0  0  0
  192.5160  174.3050  136.8270 N   0  0  0  0  0  0  0  0  0  0  0  0
  194.0550  174.4320  135.0560 N   0  0  0  0  0  0  0  0  0  0  0  0
  194.8380  175.4510  134.6090 C   0  0  0  0  0  3  0  0  0  0  0  0
  195.3150  177.8240  135.2810 N   0  0  0  0  0  1  0  0  0  0  0  0
  194.7370  176.5370  135.4720 C   0  0  1  0  0  3  0  0  0  0  0  0
  193.4600  174.9050  136.1670 C   0  0  0  0  0  0  0  0  0  0  0  0
  193.8830  176.1620  136.4700 C   0  0  0  0  0  0  0  0  0  0  0  0
  185.3160  175.2950  137.1730 N   0  0  0  0  0  2  0  0  0  0  0  0
  184.0320  174.7710  137.6070 C   0  0  0  0  0  1  0  0  0  0  0  0
  186.7070  177.0410  136.0600 N   0  0  0  0  0  2  0  0  0  0  0  0
  185.4290  176.4560  136.3470 C   0  0  0  0  0  0  0  0  0  0  0  0
  184.3910  177.0080  135.8920 O   0  0  0  0  0  0  0  0  0  0  0  0
  188.2080  178.5340  138.0940 C   0  0  2  0  0  3  0  0  0  0  0  0
  189.2620  179.2940  138.6120 O   0  0  0  0  0  1  0  0  0  0  0  0
  187.2240  178.2080  139.1700 C   0  0  0  0  0  3  0  0  0  0  0  0
  187.2790  178.7880  140.3160 N   0  0  0  0  0  0  0  0  0  0  0  0
  186.3200  178.4660  141.3490 C   0  0  0  0  0  2  0  0  0  0  0  0
  186.3040  177.5360  143.5720 O   0  0  0  0  0  0  0  0  0  0  0  0
  188.3290  177.3700  142.4180 N   0  0  0  0  0  2  0  0  0  0  0  0
  186.9540  177.7570  142.5120 C   0  0  0  0  0  0  0  0  0  0  0  0
  191.7290  178.0040  143.5320 C   0  0  0  0  0  2  0  0  0  0  0  0
  190.2920  176.0130  143.0310 C   0  0  0  0  0  2  0  0  0  0  0  0
  190.5010  178.7870  143.9850 C   0  0  0  0  0  2  0  0  0  0  0  0
  191.3370  176.9780  142.4710 C   0  0  0  0  0  2  0  0  0  0  0  0
  189.4480  177.8330  144.5530 C   0  0  0  0  0  2  0  0  0  0  0  0
  189.0520  176.7630  143.5330 C   0  0  0  0  0  3  0  0  0  0  0  0
  1  6  2  0  0  0  0
  1  4  1  0  0  0  0
  2  5  2  0  0  0  0
  3  5  1  0  0  0  0
  3 22  1  0  0  0  0
  4  3  2  0  0  0  0
  6  2  1  0  0  0  0
  7  9  1  0  0  0  0
  8  2  1  6  0  0  0
  8  9  1  0  0  0  0
 10  8  1  0  0  0  0
 11 15  1  0  0  0  0
 12 11  2  0  0  0  0
 12 14  1  0  0  0  0
 14 13  1  6  0  0  0
 14 16  1  0  0  0  0
 15 16  1  0  0  0  0
 15 10  2  0  0  0  0
 16  7  2  0  0  0  0
 17 18  1  0  0  0  0
 19 20  1  0  0  0  0
 19  4  1  0  0  0  0
 20 17  1  0  0  0  0
 21 20  2  0  0  0  0
 22 23  1  1  0  0  0
 22 24  1  0  0  0  0
 24 25  2  0  0  0  0
 25 26  1  0  0  0  0
 26 29  1  0  0  0  0
 28 29  1  0  0  0  0
 28 35  1  0  0  0  0
 29 27  2  0  0  0  0
 30 32  1  0  0  0  0
 31 35  1  0  0  0  0
 32 34  1  0  0  0  0
 33 31  1  0  0  0  0
 33 30  1  0  0  0  0
 35 34  1  0  0  0  0
M  END
>  <MODEL>
7

>  <REMARK>
 VINA RESULT:      -7.0      3.452      8.700
  Name = 
  7 active torsions:
  status: ('A' for Active; 'I' for Inactive)
    1  A    between atoms: C_1  and  N_11
    2  A    between atoms: C_1  and  C_23
    3  A    between atoms: C_4  and  C_8
    4  A    between atoms: C_4  and  C_9
    5  A    between atoms: C_6  and  C_10
    6  A    between atoms: N_19  and  C_29
    7  A    between atoms: N_21  and  C_30
                            x       y       z     vdW  Elec       q    Type
                         _______ _______ _______ _____ _____    ______ ____

>  <TORSDO>
F 7

$$$$
=
 OpenBabel10232409393D

 35 38  0  0  1  0  0  0  0  0999 V2000
  187.7060  176.9700  143.6480 C   0  0  0  0  0  3  0  0  0  0  0  0
  186.6090  178.5500  142.1780 C   0  0  0  0  0  0  0  0  0  0  0  0
  188.7100  177.5150  141.5080 C   0  0  0  0  0  0  0  0  0  0  0  0
  188.7380  176.7850  142.7170 C   0  0  0  0  0  0  0  0  0  0  0  0
  187.6420  178.3740  141.2450 C   0  0  0  0  0  3  0  0  0  0  0  0
  186.6460  177.8390  143.3780 C   0  0  0  0  0  3  0  0  0  0  0  0
  183.5760  177.6700  141.5840 N   0  0  0  0  0  0  0  0  0  0  0  0
  185.3990  179.3740  141.8420 C   0  0  2  0  0  3  0  0  0  0  0  0
  184.1330  178.7140  142.4600 C   0  0  0  0  0  2  0  0  0  0  0  0
  185.2660  179.5320  140.3770 N   0  0  0  0  0  0  0  0  0  0  0  0
  184.4690  178.6250  138.3620 N   0  0  0  0  0  0  0  0  0  0  0  0
  183.6880  177.5410  138.1040 C   0  0  0  0  0  3  0  0  0  0  0  0
  182.4820  175.7920  139.4440 N   0  0  0  0  0  1  0  0  0  0  0  0
  183.2290  176.9960  139.2980 C   0  0  1  0  0  3  0  0  0  0  0  0
  184.5090  178.7200  139.7040 C   0  0  0  0  0  0  0  0  0  0  0  0
  183.7330  177.7740  140.3000 C   0  0  0  0  0  0  0  0  0  0  0  0
  190.7270  176.9240  145.0300 N   0  0  0  0  0  2  0  0  0  0  0  0
  191.5960  176.9100  146.1960 C   0  0  0  0  0  1  0  0  0  0  0  0
  189.8090  175.8620  142.9690 N   0  0  0  0  0  2  0  0  0  0  0  0
  190.7780  175.9080  144.0260 C   0  0  0  0  0  0  0  0  0  0  0  0
  191.6590  175.0090  144.0850 O   0  0  0  0  0  0  0  0  0  0  0  0
  189.7740  177.3800  140.4560 C   0  0  2  0  0  3  0  0  0  0  0  0
  190.9460  178.0330  140.8550 O   0  0  0  0  0  1  0  0  0  0  0  0
  189.2960  177.9220  139.1480 C   0  0  0  0  0  3  0  0  0  0  0  0
  188.7600  177.1510  138.2680 N   0  0  0  0  0  0  0  0  0  0  0  0
  188.2990  177.6870  137.0070 C   0  0  0  0  0  2  0  0  0  0  0  0
  188.9040  177.6200  134.6760 O   0  0  0  0  0  0  0  0  0  0  0  0
  190.2870  176.4080  136.1180 N   0  0  0  0  0  2  0  0  0  0  0  0
  189.1690  177.2630  135.8580 C   0  0  0  0  0  0  0  0  0  0  0  0
  192.2630  173.3600  136.1060 C   0  0  0  0  0  2  0  0  0  0  0  0
  192.5890  175.7720  135.5120 C   0  0  0  0  0  2  0  0  0  0  0  0
  190.7940  173.4490  135.7050 C   0  0  0  0  0  2  0  0  0  0  0  0
  192.7570  174.7150  136.6040 C   0  0  0  0  0  2  0  0  0  0  0  0
  190.6110  174.5010  134.6080 C   0  0  0  0  0  2  0  0  0  0  0  0
  191.1290  175.8710  135.0520 C   0  0  0  0  0  3  0  0  0  0  0  0
  2  6  2  0  0  0  0
  3  4  1  0  0  0  0
  4 19  1  0  0  0  0
  4  1  2  0  0  0  0
  5  3  2  0  0  0  0
  5  2  1  0  0  0  0
  6  1  1  0  0  0  0
  7  9  1  0  0  0  0
  8  2  1  6  0  0  0
  8  9  1  0  0  0  0
 10  8  1  0  0  0  0
 11 15  1  0  0  0  0
 12 11  2  0  0  0  0
 12 14  1  0  0  0  0
 14 13  1  1  0  0  0
 14 16  1  0  0  0  0
 15 16  1  0  0  0  0
 15 10  2  0  0  0  0
 16  7  2  0  0  0  0
 17 18  1  0  0  0  0
 19 20  1  0  0  0  0
 20 21  2  0  0  0  0
 20 17  1  0  0  0  0
 22 23  1  1  0  0  0
 22  3  1  0  0  0  0
 24 22  1  0  0  0  0
 25 24  2  0  0  0  0
 26 25  1  0  0  0  0
 27 29  2  0  0  0  0
 29 28  1  0  0  0  0
 29 26  1  0  0  0  0
 30 33  1  0  0  0  0
 31 33  1  0  0  0  0
 32 30  1  0  0  0  0
 34 35  1  0  0  0  0
 34 32  1  0  0  0  0
 35 31  1  0  0  0  0
 35 28  1  0  0  0  0
M  END
>  <MODEL>
8

>  <REMARK>
 VINA RESULT:      -7.0      1.695      2.238
  Name = 
  7 active torsions:
  status: ('A' for Active; 'I' for Inactive)
    1  A    between atoms: C_1  and  N_11
    2  A    between atoms: C_1  and  C_23
    3  A    between atoms: C_4  and  C_8
    4  A    between atoms: C_4  and  C_9
    5  A    between atoms: C_6  and  C_10
    6  A    between atoms: N_19  and  C_29
    7  A    between atoms: N_21  and  C_30
                            x       y       z     vdW  Elec       q    Type
                         _______ _______ _______ _____ _____    ______ ____

>  <TORSDO>
F 7

$$$$
=
 OpenBabel10232409393D

 35 38  0  0  1  0  0  0  0  0999 V2000
  185.9530  177.9040  144.3390 C   0  0  0  0  0  3  0  0  0  0  0  0
  185.3560  178.8450  142.1900 C   0  0  0  0  0  0  0  0  0  0  0  0
  187.5930  177.9510  142.5530 C   0  0  0  0  0  0  0  0  0  0  0  0
  187.2420  177.6030  143.8750 C   0  0  0  0  0  0  0  0  0  0  0  0
  186.6460  178.5510  141.7220 C   0  0  0  0  0  3  0  0  0  0  0  0
  185.0150  178.5130  143.5020 C   0  0  0  0  0  3  0  0  0  0  0  0
  183.2400  177.2970  140.3310 N   0  0  0  0  0  0  0  0  0  0  0  0
  184.3000  179.3710  141.2610 C   0  0  2  0  0  3  0  0  0  0  0  0
  183.0730  178.4150  141.2730 C   0  0  0  0  0  2  0  0  0  0  0  0
  184.8420  179.5390  139.8950 N   0  0  0  0  0  0  0  0  0  0  0  0
  185.3130  178.5310  137.8260 N   0  0  0  0  0  0  0  0  0  0  0  0
  185.0070  177.3020  137.3270 C   0  0  0  0  0  3  0  0  0  0  0  0
  183.7310  175.2800  138.0950 N   0  0  0  0  0  1  0  0  0  0  0  0
  184.1720  176.6290  138.2120 C   0  0  1  0  0  3  0  0  0  0  0  0
  184.6930  178.5920  139.0190 C   0  0  0  0  0  0  0  0  0  0  0  0
  183.9580  177.4730  139.2640 C   0  0  0  0  0  0  0  0  0  0  0  0
  187.7800  178.2160  146.8190 N   0  0  0  0  0  2  0  0  0  0  0  0
  187.9530  178.4130  148.2480 C   0  0  0  0  0  1  0  0  0  0  0  0
  188.1970  176.9400  144.7170 N   0  0  0  0  0  2  0  0  0  0  0  0
  188.4980  177.2150  146.0920 C   0  0  0  0  0  0  0  0  0  0  0  0
  189.3830  176.5300  146.6720 O   0  0  0  0  0  0  0  0  0  0  0  0
  188.9500  177.6680  141.9740 C   0  0  2  0  0  3  0  0  0  0  0  0
  189.9210  178.4720  142.5800 O   0  0  0  0  0  1  0  0  0  0  0  0
  188.9490  177.8790  140.4950 C   0  0  0  0  0  3  0  0  0  0  0  0
  189.2160  176.9130  139.6870 N   0  0  0  0  0  0  0  0  0  0  0  0
  189.2090  177.1300  138.2580 C   0  0  0  0  0  2  0  0  0  0  0  0
  190.5120  175.3770  137.2400 O   0  0  0  0  0  0  0  0  0  0  0  0
  188.1960  175.1840  137.0050 N   0  0  0  0  0  2  0  0  0  0  0  0
  189.3670  175.8480  137.4900 C   0  0  0  0  0  0  0  0  0  0  0  0
  185.5120  172.9170  136.0780 C   0  0  0  0  0  2  0  0  0  0  0  0
  187.8470  172.7450  136.9710 C   0  0  0  0  0  2  0  0  0  0  0  0
  185.8870  174.1850  135.3160 C   0  0  0  0  0  2  0  0  0  0  0  0
  186.3640  172.7890  137.3380 C   0  0  0  0  0  2  0  0  0  0  0  0
  187.3700  174.1520  134.9380 C   0  0  0  0  0  2  0  0  0  0  0  0
  188.2610  173.9870  136.1710 C   0  0  0  0  0  3  0  0  0  0  0  0
  2  6  1  0  0  0  0
  3  4  2  0  0  0  0
  4  1  1  0  0  0  0
  4 19  1  0  0  0  0
  5  2  2  0  0  0  0
  5  3  1  0  0  0  0
  6  1  2  0  0  0  0
  7  9  1  0  0  0  0
  8  9  1  0  0  0  0
  8  2  1  1  0  0  0
 10  8  1  0  0  0  0
 11 15  1  0  0  0  0
 12 11  2  0  0  0  0
 12 14  1  0  0  0  0
 14 13  1  1  0  0  0
 14 16  1  0  0  0  0
 15 16  1  0  0  0  0
 15 10  2  0  0  0  0
 16  7  2  0  0  0  0
 17 18  1  0  0  0  0
 19 20  1  0  0  0  0
 20 21  2  0  0  0  0
 20 17  1  0  0  0  0
 22  3  1  0  0  0  0
 22 23  1  1  0  0  0
 24 22  1  0  0  0  0
 25 24  2  0  0  0  0
 26 25  1  0  0  0  0
 27 29  2  0  0  0  0
 28 29  1  0  0  0  0
 29 26  1  0  0  0  0
 30 33  1  0  0  0  0
 31 33  1  0  0  0  0
 32 30  1  0  0  0  0
 34 32  1  0  0  0  0
 34 35  1  0  0  0  0
 35 31  1  0  0  0  0
 35 28  1  0  0  0  0
M  END
>  <MODEL>
9

>  <REMARK>
 VINA RESULT:      -7.0      1.917      2.197
  Name = 
  7 active torsions:
  status: ('A' for Active; 'I' for Inactive)
    1  A    between atoms: C_1  and  N_11
    2  A    between atoms: C_1  and  C_23
    3  A    between atoms: C_4  and  C_8
    4  A    between atoms: C_4  and  C_9
    5  A    between atoms: C_6  and  C_10
    6  A    between atoms: N_19  and  C_29
    7  A    between atoms: N_21  and  C_30
                            x       y       z     vdW  Elec       q    Type
                         _______ _______ _______ _____ _____    ______ ____

>  <TORSDO>
F 7

$$$$
