=
 OpenBabel10232410113D

 66 74  0  0  1  0  0  0  0  0999 V2000
  187.7060  177.6030  141.2800 C   0  0  0  0  0  0  0  0  0  0  0  0
  188.9450  177.2480  140.9780 C   0  0  0  0  0  0  0  0  0  0  0  0
  188.5900  176.4290  143.0650 N   0  0  0  0  0  0  0  0  0  0  0  0
  189.4680  176.5220  142.1180 C   0  0  0  0  0  0  0  0  0  0  0  0
  186.8540  178.3400  140.4650 O   0  0  0  0  0  1  0  0  0  0  0  0
  187.3490  177.0680  142.6330 C   0  0  1  0  0  3  0  0  0  0  0  0
  187.7220  178.7350  144.2860 O   0  0  0  0  0  0  0  0  0  0  0  0
  186.9070  178.1580  143.5830 C   0  0  0  0  0  0  0  0  0  0  0  0
  185.4580  178.5540  143.6720 C   0  0  0  0  0  2  0  0  0  0  0  0
  185.1320  179.0580  145.0750 C   0  0  2  0  0  3  0  0  0  0  0  0
  184.3840  177.9650  145.8190 C   0  0  0  0  0  2  0  0  0  0  0  0
  183.6410  179.2160  145.4040 C   0  0  2  0  0  3  0  0  0  0  0  0
  181.6210  179.4580  144.1970 N   0  0  0  0  0  0  0  0  0  0  0  0
  182.7730  178.9120  144.2750 N   0  0  0  0  0  0  0  0  0  0  0  0
  180.4530  180.7060  139.7700 C   0  0  0  0  0  3  0  0  0  0  0  0
  181.8790  178.9610  140.5390 N   0  0  0  0  0  0  0  0  0  0  0  0
  180.3900  180.0400  142.1210 N   0  0  0  0  0  2  0  0  0  0  0  0
  182.0050  179.6330  138.2540 C   0  0  0  0  0  3  0  0  0  0  0  0
  180.7070  179.1060  143.1550 C   0  0  0  0  0  0  0  0  0  0  0  0
  180.9070  179.8770  140.7940 C   0  0  0  0  0  0  0  0  0  0  0  0
  180.2660  177.9310  143.0920 O   0  0  0  0  0  0  0  0  0  0  0  0
  181.0040  180.5770  138.4920 C   0  0  0  0  0  3  0  0  0  0  0  0
  182.4370  178.8180  139.3000 C   0  0  0  0  0  0  0  0  0  0  0  0
  182.4500  177.1940  136.2440 C   0  0  0  0  0  3  0  0  0  0  0  0
  183.0480  175.4440  138.3550 C   0  0  1  0  0  3  0  0  0  0  0  0
  184.2210  178.0240  137.7390 N   0  0  0  0  0  2  0  0  0  0  0  0
  181.6190  175.5230  137.7860 C   0  0  0  0  0  2  0  0  0  0  0  0
  184.0360  175.6520  137.3030 N   0  0  0  0  0  2  0  0  0  0  0  0
  183.2910  176.4110  139.5100 C   0  0  0  0  0  2  0  0  0  0  0  0
  183.5640  177.8530  139.0520 C   0  0  2  0  0  3  0  0  0  0  0  0
  181.4660  176.5370  136.7540 N   0  0  0  0  0  0  0  0  0  0  0  0
  183.8580  176.9990  136.7500 C   0  0  1  0  0  3  0  0  0  0  0  0
  189.6660  177.5460  139.7700 N   0  0  0  0  0  2  0  0  0  0  0  0
  189.2220  174.5570  137.6010 C   0  0  0  0  0  2  0  0  0  0  0  0
  189.5070  178.0980  137.4050 C   0  0  0  0  0  2  0  0  0  0  0  0
  190.0810  175.6740  138.2080 C   0  0  2  0  0  3  0  0  0  0  0  0
  189.3260  177.0020  138.4630 C   0  0  1  0  0  3  0  0  0  0  0  0
  189.0490  177.7260  136.0270 C   0  0  0  0  0  0  0  0  0  0  0  0
  188.5500  174.9590  136.2980 C   0  0  0  0  0  2  0  0  0  0  0  0
  189.7430  178.0610  135.0770 O   0  0  0  0  0  0  0  0  0  0  0  0
  187.5210  175.8760  136.5580 O   0  0  0  0  0  0  0  0  0  0  0  0
  187.7210  177.0380  135.7770 C   0  0  2  0  0  3  0  0  0  0  0  0
  193.2140  174.7160  134.6430 O   0  0  0  0  0  0  0  0  0  0  0  0
  191.4670  175.7530  137.6190 C   0  0  0  0  0  0  0  0  0  0  0  0
  193.2470  174.9630  136.0360 C   0  0  1  0  0  0  0  0  0  0  0  0
  193.3130  172.3450  134.3480 C   0  0  0  0  0  2  0  0  0  0  0  0
  191.8240  174.9860  136.5760 C   0  0  0  0  0  3  0  0  0  0  0  0
  193.6480  176.8490  137.6680 C   0  0  0  0  0  3  0  0  0  0  0  0
  192.4780  176.6030  138.2710 C   0  0  0  0  0  3  0  0  0  0  0  0
  193.3160  172.5680  136.9370 C   0  0  0  0  0  2  0  0  0  0  0  0
  193.1750  171.6400  135.7130 C   0  0  0  0  0  2  0  0  0  0  0  0
  194.1180  173.8680  136.6770 C   0  0  1  0  0  3  0  0  0  0  0  0
  195.0850  173.6140  135.5620 C   0  0  0  0  0  2  0  0  0  0  0  0
  193.9000  176.3430  136.2700 C   0  0  0  0  0  2  0  0  0  0  0  0
  194.1140  173.6580  134.4010 C   0  0  2  0  0  3  0  0  0  0  0  0
  187.5250  176.7750  134.4180 O   0  0  0  0  0  0  0  0  0  0  0  0
  186.2700  176.1720  134.3460 C   0  0  0  0  0  1  0  0  0  0  0  0
  190.8670  176.0130  142.2550 C   0  0  0  0  0  2  0  0  0  0  0  0
  191.7320  177.0180  142.8680 N   0  0  0  0  0  2  0  0  0  0  0  0
  191.2260  177.2760  144.2070 C   0  0  2  0  0  3  0  0  0  0  0  0
  191.5310  178.7060  144.6050 C   0  0  0  0  0  2  0  0  0  0  0  0
  190.9090  179.5760  143.7000 O   0  0  0  0  0  1  0  0  0  0  0  0
  191.8390  176.3060  145.2070 C   0  0  0  0  0  2  0  0  0  0  0  0
  191.1310  176.3870  146.5230 C   0  0  0  0  0  0  0  0  0  0  0  0
  190.0500  177.0280  146.6260 O   0  0  0  0  0  0  0  0  0  0  0  0
  191.6690  175.7420  147.6300 O   0  0  0  0  0  1  0  0  0  0  0  0
  1  6  1  0  0  0  0
  2  1  2  0  0  0  0
  2  4  1  0  0  0  0
  4 58  1  0  0  0  0
  4  3  2  0  0  0  0
  5  1  1  0  0  0  0
  6  3  1  0  0  0  0
  6  8  1  1  0  0  0
  8  9  1  0  0  0  0
  8  7  2  0  0  0  0
 10  9  1  6  0  0  0
 10 12  1  0  0  0  0
 10 11  1  0  0  0  0
 12 14  1  6  0  0  0
 12 11  1  0  0  0  0
 13 14  2  0  0  0  0
 15 20  1  0  0  0  0
 16 20  2  0  0  0  0
 17 19  1  0  0  0  0
 18 22  1  0  0  0  0
 18 23  2  0  0  0  0
 19 13  1  0  0  0  0
 20 17  1  0  0  0  0
 21 19  2  0  0  0  0
 22 15  2  0  0  0  0
 23 16  1  0  0  0  0
 24 31  2  0  0  0  0
 25 27  1  6  0  0  0
 25 29  1  0  0  0  0
 26 30  1  0  0  0  0
 28 25  1  0  0  0  0
 30 23  1  6  0  0  0
 30 29  1  0  0  0  0
 31 27  1  0  0  0  0
 32 24  1  1  0  0  0
 32 28  1  0  0  0  0
 32 26  1  0  0  0  0
 33  2  1  0  0  0  0
 34 36  1  0  0  0  0
 35 37  1  0  0  0  0
 36 44  1  6  0  0  0
 36 37  1  0  0  0  0
 37 33  1  1  0  0  0
 38 35  1  0  0  0  0
 39 41  1  0  0  0  0
 39 34  1  0  0  0  0
 40 38  2  0  0  0  0
 42 56  1  6  0  0  0
 42 38  1  0  0  0  0
 42 41  1  0  0  0  0
 43 45  1  0  0  0  0
 44 49  1  0  0  0  0
 45 54  1  1  0  0  0
 45 47  1  0  0  0  0
 45 52  1  0  0  0  0
 46 51  1  0  0  0  0
 47 44  2  0  0  0  0
 48 49  2  0  0  0  0
 51 50  1  0  0  0  0
 52 53  1  6  0  0  0
 52 50  1  0  0  0  0
 54 48  1  0  0  0  0
 55 46  1  1  0  0  0
 55 43  1  0  0  0  0
 55 53  1  0  0  0  0
 57 56  1  0  0  0  0
 58 59  1  0  0  0  0
 59 60  1  0  0  0  0
 60 61  1  1  0  0  0
 60 63  1  0  0  0  0
 62 61  1  0  0  0  0
 63 64  1  0  0  0  0
 64 65  2  0  0  0  0
 64 66  1  0  0  0  0
M  END
>  <MODEL>
1

>  <REMARK>
 VINA RESULT:      -6.7      0.000      0.000
  Name = 
  16 active torsions:
  status: ('A' for Active; 'I' for Inactive)
    1  A    between atoms: CA_3  and  C_12
    2  A    between atoms: CA_3  and  CB_35
    3  A    between atoms: CA_3  and  N_49
    4  A    between atoms: C_7  and  C_11
    5  A    between atoms: C_7  and  C_20
    6  A    between atoms: C_8  and  N_49
    7  A    between atoms: C_8  and  C_51
    8  A    between atoms: O_13  and  C_60
    9  A    between atoms: C_16  and  C_17
   10  A    between atoms: C_18  and  N_52
   11  A    between atoms: C_20  and  C_66
   12  A    between atoms: C_21  and  N_41
   13  A    between atoms: CG_24  and  CB_35
   14  A    between atoms: C_42  and  N_52
   15  A    between atoms: C_48  and  N_50
   16  A    between atoms: C_61  and  C_63
                            x       y       z     vdW  Elec       q    Type
                         _______ _______ _______ _____ _____    ______ ____

>  <TORSDO>
F 16

$$$$
=
 OpenBabel10232410113D

 66 74  0  0  1  0  0  0  0  0999 V2000
  187.5600  177.9430  137.4290 C   0  0  0  0  0  0  0  0  0  0  0  0
  186.7890  178.4300  138.3880 C   0  0  0  0  0  0  0  0  0  0  0  0
  188.5260  177.4460  139.4710 N   0  0  0  0  0  0  0  0  0  0  0  0
  187.4200  178.0960  139.6500 C   0  0  0  0  0  0  0  0  0  0  0  0
  187.3040  178.0240  136.0640 O   0  0  0  0  0  1  0  0  0  0  0  0
  188.7720  177.3060  138.0370 C   0  0  1  0  0  3  0  0  0  0  0  0
  187.9500  175.1430  137.4950 O   0  0  0  0  0  0  0  0  0  0  0  0
  188.9290  175.8600  137.6230 C   0  0  0  0  0  0  0  0  0  0  0  0
  190.2940  175.2840  137.3560 C   0  0  0  0  0  2  0  0  0  0  0  0
  191.1960  176.3350  136.7170 C   0  0  2  0  0  3  0  0  0  0  0  0
  191.7730  175.7620  135.4340 C   0  0  0  0  0  2  0  0  0  0  0  0
  192.6860  175.9750  136.6220 C   0  0  2  0  0  3  0  0  0  0  0  0
  194.2200  174.3270  137.3440 N   0  0  0  0  0  0  0  0  0  0  0  0
  193.0010  174.6910  137.2290 N   0  0  0  0  0  0  0  0  0  0  0  0
  195.6600  170.0690  135.8220 C   0  0  0  0  0  3  0  0  0  0  0  0
  196.9260  171.8890  136.6920 N   0  0  0  0  0  0  0  0  0  0  0  0
  194.5190  171.8870  136.9890 N   0  0  0  0  0  2  0  0  0  0  0  0
  198.0590  170.1590  135.5030 C   0  0  0  0  0  3  0  0  0  0  0  0
  194.5590  173.0310  137.8450 C   0  0  0  0  0  0  0  0  0  0  0  0
  195.7250  171.2750  136.5170 C   0  0  0  0  0  0  0  0  0  0  0  0
  194.9990  172.9190  139.0160 O   0  0  0  0  0  0  0  0  0  0  0  0
  196.8370  169.5070  135.3170 C   0  0  0  0  0  3  0  0  0  0  0  0
  198.0890  171.3630  136.2040 C   0  0  0  0  0  0  0  0  0  0  0  0
  197.9700  174.5260  137.6030 C   0  0  0  0  0  3  0  0  0  0  0  0
  199.6520  174.4450  135.3590 C   0  0  1  0  0  3  0  0  0  0  0  0
  199.6130  172.6960  137.6720 N   0  0  0  0  0  2  0  0  0  0  0  0
  198.2020  174.9490  135.2310 C   0  0  0  0  0  2  0  0  0  0  0  0
  200.2130  174.8070  136.6550 N   0  0  0  0  0  2  0  0  0  0  0  0
  199.7910  172.9440  135.1200 C   0  0  0  0  0  2  0  0  0  0  0  0
  199.3980  172.0930  136.3390 C   0  0  2  0  0  3  0  0  0  0  0  0
  197.4460  174.8480  136.4710 N   0  0  0  0  0  0  0  0  0  0  0  0
  199.4270  174.1530  137.7070 C   0  0  1  0  0  3  0  0  0  0  0  0
  185.5420  179.1270  138.2320 N   0  0  0  0  0  2  0  0  0  0  0  0
  183.5080  176.3220  139.5850 C   0  0  0  0  0  2  0  0  0  0  0  0
  183.1720  179.6570  138.3910 C   0  0  0  0  0  2  0  0  0  0  0  0
  184.0260  177.1830  138.4260 C   0  0  2  0  0  3  0  0  0  0  0  0
  184.2760  178.6680  138.7860 C   0  0  1  0  0  3  0  0  0  0  0  0
  181.8370  179.3930  139.0190 C   0  0  0  0  0  0  0  0  0  0  0  0
  182.2330  176.8630  140.2100 C   0  0  0  0  0  2  0  0  0  0  0  0
  180.8370  179.5150  138.3240 O   0  0  0  0  0  0  0  0  0  0  0  0
  182.5180  178.0240  140.9430 O   0  0  0  0  0  0  0  0  0  0  0  0
  181.6860  179.0770  140.4940 C   0  0  2  0  0  3  0  0  0  0  0  0
  180.2830  175.4460  135.8920 O   0  0  0  0  0  0  0  0  0  0  0  0
  183.3560  176.8810  137.1080 C   0  0  0  0  0  0  0  0  0  0  0  0
  181.6710  175.6510  135.7130 C   0  0  1  0  0  0  0  0  0  0  0  0
  179.9830  173.1470  136.4780 C   0  0  0  0  0  2  0  0  0  0  0  0
  182.2940  176.0620  137.0400 C   0  0  0  0  0  3  0  0  0  0  0  0
  183.2770  177.3230  134.7090 C   0  0  0  0  0  3  0  0  0  0  0  0
  183.9470  177.4040  135.8640 C   0  0  0  0  0  3  0  0  0  0  0  0
  182.5670  173.3180  136.2660 C   0  0  0  0  0  2  0  0  0  0  0  0
  181.3540  172.4870  136.7300 C   0  0  0  0  0  2  0  0  0  0  0  0
  182.2610  174.3460  135.1480 C   0  0  1  0  0  3  0  0  0  0  0  0
  181.0910  173.8500  134.3560 C   0  0  0  0  0  2  0  0  0  0  0  0
  181.8670  176.7900  134.6870 C   0  0  0  0  0  2  0  0  0  0  0  0
  179.9890  174.1820  135.3400 C   0  0  2  0  0  3  0  0  0  0  0  0
  180.3500  178.8500  140.8390 O   0  0  0  0  0  0  0  0  0  0  0  0
  180.1960  179.4520  142.0880 C   0  0  0  0  0  1  0  0  0  0  0  0
  186.8490  178.3670  141.0040 C   0  0  0  0  0  2  0  0  0  0  0  0
  187.8860  178.8100  141.9310 N   0  0  0  0  0  2  0  0  0  0  0  0
  187.8390  177.9370  143.0930 C   0  0  2  0  0  3  0  0  0  0  0  0
  188.7590  176.7510  142.8820 C   0  0  0  0  0  2  0  0  0  0  0  0
  189.6400  176.6550  143.9670 O   0  0  0  0  0  1  0  0  0  0  0  0
  186.4150  177.4640  143.3490 C   0  0  0  0  0  2  0  0  0  0  0  0
  185.8710  178.0820  144.5990 C   0  0  0  0  0  0  0  0  0  0  0  0
  186.6010  178.2020  145.6210 O   0  0  0  0  0  1  0  0  0  0  0  0
  184.5570  178.5340  144.6230 O   0  0  0  0  0  0  0  0  0  0  0  0
  1  6  1  0  0  0  0
  1  2  2  0  0  0  0
  2  4  1  0  0  0  0
  3  4  2  0  0  0  0
  4 58  1  0  0  0  0
  5  1  1  0  0  0  0
  6  8  1  1  0  0  0
  6  3  1  0  0  0  0
  7  8  2  0  0  0  0
  9  8  1  0  0  0  0
 10  9  1  1  0  0  0
 11 12  1  0  0  0  0
 11 10  1  0  0  0  0
 12 10  1  0  0  0  0
 12 14  1  1  0  0  0
 13 19  1  0  0  0  0
 14 13  2  0  0  0  0
 15 20  1  0  0  0  0
 17 19  1  0  0  0  0
 18 23  2  0  0  0  0
 19 21  2  0  0  0  0
 20 16  2  0  0  0  0
 20 17  1  0  0  0  0
 22 18  1  0  0  0  0
 22 15  2  0  0  0  0
 23 16  1  0  0  0  0
 25 29  1  1  0  0  0
 25 28  1  0  0  0  0
 26 32  1  0  0  0  0
 27 25  1  0  0  0  0
 27 31  1  0  0  0  0
 28 32  1  0  0  0  0
 29 30  1  0  0  0  0
 30 23  1  6  0  0  0
 30 26  1  0  0  0  0
 31 24  2  0  0  0  0
 32 24  1  6  0  0  0
 33  2  1  0  0  0  0
 34 39  1  0  0  0  0
 35 37  1  0  0  0  0
 35 38  1  0  0  0  0
 36 44  1  6  0  0  0
 36 37  1  0  0  0  0
 36 34  1  0  0  0  0
 37 33  1  6  0  0  0
 38 42  1  0  0  0  0
 39 41  1  0  0  0  0
 40 38  2  0  0  0  0
 42 56  1  6  0  0  0
 42 41  1  0  0  0  0
 45 54  1  6  0  0  0
 45 43  1  0  0  0  0
 45 47  1  0  0  0  0
 46 51  1  0  0  0  0
 47 44  2  0  0  0  0
 48 49  2  0  0  0  0
 49 44  1  0  0  0  0
 50 51  1  0  0  0  0
 52 53  1  6  0  0  0
 52 45  1  0  0  0  0
 52 50  1  0  0  0  0
 54 48  1  0  0  0  0
 55 53  1  6  0  0  0
 55 43  1  0  0  0  0
 55 46  1  0  0  0  0
 56 57  1  0  0  0  0
 58 59  1  0  0  0  0
 59 60  1  0  0  0  0
 60 61  1  6  0  0  0
 60 63  1  0  0  0  0
 61 62  1  0  0  0  0
 63 64  1  0  0  0  0
 64 66  2  0  0  0  0
 64 65  1  0  0  0  0
M  END
>  <MODEL>
2

>  <REMARK>
 VINA RESULT:      -6.1      3.845     11.756
  Name = 
  16 active torsions:
  status: ('A' for Active; 'I' for Inactive)
    1  A    between atoms: CA_3  and  C_12
    2  A    between atoms: CA_3  and  CB_35
    3  A    between atoms: CA_3  and  N_49
    4  A    between atoms: C_7  and  C_11
    5  A    between atoms: C_7  and  C_20
    6  A    between atoms: C_8  and  N_49
    7  A    between atoms: C_8  and  C_51
    8  A    between atoms: O_13  and  C_60
    9  A    between atoms: C_16  and  C_17
   10  A    between atoms: C_18  and  N_52
   11  A    between atoms: C_20  and  C_66
   12  A    between atoms: C_21  and  N_41
   13  A    between atoms: CG_24  and  CB_35
   14  A    between atoms: C_42  and  N_52
   15  A    between atoms: C_48  and  N_50
   16  A    between atoms: C_61  and  C_63
                            x       y       z     vdW  Elec       q    Type
                         _______ _______ _______ _____ _____    ______ ____

>  <TORSDO>
F 16

$$$$
=
 OpenBabel10232410113D

 66 74  0  0  1  0  0  0  0  0999 V2000
  192.1540  176.7650  139.0000 C   0  0  1  0  0  3  0  0  0  0  0  0
  191.7650  176.4070  137.7860 C   0  0  0  0  0  0  0  0  0  0  0  0
  189.9220  177.3180  138.7500 N   0  0  0  0  0  0  0  0  0  0  0  0
  190.3650  176.7620  137.6680 C   0  0  0  0  0  0  0  0  0  0  0  0
  193.4260  176.5790  139.5300 O   0  0  0  0  0  1  0  0  0  0  0  0
  191.0160  177.4270  139.7140 C   0  0  1  0  0  3  0  0  0  0  0  0
  189.6960  176.0450  141.1300 O   0  0  0  0  0  0  0  0  0  0  0  0
  190.6900  176.7480  141.0260 C   0  0  0  0  0  0  0  0  0  0  0  0
  191.5870  176.9230  142.2220 C   0  0  0  0  0  2  0  0  0  0  0  0
  191.7850  178.4050  142.5230 C   0  0  2  0  0  3  0  0  0  0  0  0
  192.0480  178.5650  144.0100 C   0  0  0  0  0  2  0  0  0  0  0  0
  190.7350  179.0530  143.4370 C   0  0  2  0  0  3  0  0  0  0  0  0
  188.4760  178.3570  143.4230 N   0  0  0  0  0  0  0  0  0  0  0  0
  189.6690  178.1380  143.8180 N   0  0  0  0  0  0  0  0  0  0  0  0
  183.9340  178.6830  144.7620 C   0  0  0  0  0  3  0  0  0  0  0  0
  184.8650  178.1420  142.6380 N   0  0  0  0  0  0  0  0  0  0  0  0
  186.3010  178.0970  144.5930 N   0  0  0  0  0  2  0  0  0  0  0  0
  182.5680  178.7710  142.7650 C   0  0  0  0  0  3  0  0  0  0  0  0
  187.3910  177.5340  143.8590 C   0  0  0  0  0  0  0  0  0  0  0  0
  185.0190  178.2870  143.9820 C   0  0  0  0  0  0  0  0  0  0  0  0
  187.3460  176.3310  143.5010 O   0  0  0  0  0  0  0  0  0  0  0  0
  182.7010  178.9210  144.1480 C   0  0  0  0  0  3  0  0  0  0  0  0
  183.6720  178.3720  142.0130 C   0  0  0  0  0  0  0  0  0  0  0  0
  180.7310  179.5720  140.6390 C   0  0  0  0  0  3  0  0  0  0  0  0
  181.4950  177.1300  139.4900 C   0  0  1  0  0  3  0  0  0  0  0  0
  183.0730  179.5320  139.8810 N   0  0  0  0  0  2  0  0  0  0  0  0
  180.4440  177.1690  140.6150 C   0  0  0  0  0  2  0  0  0  0  0  0
  181.3910  178.3110  138.6420 N   0  0  0  0  0  2  0  0  0  0  0  0
  182.9230  176.9690  140.0030 C   0  0  0  0  0  2  0  0  0  0  0  0
  183.5390  178.2810  140.5170 C   0  0  2  0  0  3  0  0  0  0  0  0
  180.2270  178.5030  141.1520 N   0  0  0  0  0  0  0  0  0  0  0  0
  181.6650  179.5000  139.4570 C   0  0  1  0  0  3  0  0  0  0  0  0
  192.5540  175.7560  136.7760 N   0  0  0  0  0  0  0  0  0  0  0  0
  195.9190  174.9480  135.4110 C   0  0  0  0  0  2  0  0  0  0  0  0
  193.8580  174.3160  138.2420 C   0  0  0  0  0  2  0  0  0  0  0  0
  194.4570  174.5910  135.7090 C   0  0  2  0  0  3  0  0  0  0  0  0
  193.8890  175.2210  137.0040 C   0  0  1  0  0  3  0  0  0  0  0  0
  195.1970  173.8130  138.6880 C   0  0  0  0  0  0  0  0  0  0  0  0
  196.8650  174.5940  136.5470 C   0  0  0  0  0  2  0  0  0  0  0  0
  195.2870  172.6470  139.0480 O   0  0  0  0  0  0  0  0  0  0  0  0
  196.6660  175.4700  137.6230 O   0  0  0  0  0  0  0  0  0  0  0  0
  196.4070  174.7220  138.7940 C   0  0  2  0  0  3  0  0  0  0  0  0
  194.9630  169.8690  136.6510 O   0  0  0  0  0  0  0  0  0  0  0  0
  194.1210  173.1490  135.4220 C   0  0  0  0  0  0  0  0  0  0  0  0
  194.6160  170.6920  135.5550 C   0  0  1  0  0  0  0  0  0  0  0  0
  197.2710  169.2960  136.3960 C   0  0  0  0  0  2  0  0  0  0  0  0
  194.8640  172.1490  135.9210 C   0  0  0  0  0  3  0  0  0  0  0  0
  192.5760  171.5840  134.3620 C   0  0  0  0  0  3  0  0  0  0  0  0
  193.0260  172.8390  134.4860 C   0  0  0  0  0  3  0  0  0  0  0  0
  196.8670  170.8410  134.3460 C   0  0  0  0  0  2  0  0  0  0  0  0
  197.8890  170.1110  135.2410 C   0  0  0  0  0  2  0  0  0  0  0  0
  195.4450  170.2240  134.3460 C   0  0  1  0  0  3  0  0  0  0  0  0
  195.5630  168.7640  134.6560 C   0  0  0  0  0  2  0  0  0  0  0  0
  193.1130  170.4940  135.2540 C   0  0  0  0  0  2  0  0  0  0  0  0
  195.8150  168.8650  136.1460 C   0  0  2  0  0  3  0  0  0  0  0  0
  197.5430  174.0220  139.2110 O   0  0  0  0  0  0  0  0  0  0  0  0
  198.5280  174.9960  139.3640 C   0  0  0  0  0  1  0  0  0  0  0  0
  189.4880  176.4550  136.4970 C   0  0  0  0  0  2  0  0  0  0  0  0
  188.2790  175.7520  136.9180 N   0  0  0  0  0  2  0  0  0  0  0  0
  187.2250  176.0870  135.9730 C   0  0  2  0  0  3  0  0  0  0  0  0
  187.5600  175.5210  134.6080 C   0  0  0  0  0  2  0  0  0  0  0  0
  187.4050  174.1290  134.6380 O   0  0  0  0  0  1  0  0  0  0  0  0
  187.0400  177.5960  135.8900 C   0  0  0  0  0  2  0  0  0  0  0  0
  186.5650  178.1410  137.2010 C   0  0  0  0  0  0  0  0  0  0  0  0
  187.2970  178.9230  137.8680 O   0  0  0  0  0  1  0  0  0  0  0  0
  185.3070  177.7890  137.6730 O   0  0  0  0  0  0  0  0  0  0  0  0
  1  5  1  6  0  0  0
  1  6  1  0  0  0  0
  2  1  1  0  0  0  0
  3  6  1  0  0  0  0
  4  2  1  0  0  0  0
  4  3  2  0  0  0  0
  6  8  1  1  0  0  0
  8  7  2  0  0  0  0
  8  9  1  0  0  0  0
 10  9  1  1  0  0  0
 10 12  1  0  0  0  0
 10 11  1  0  0  0  0
 12 14  1  1  0  0  0
 12 11  1  0  0  0  0
 13 14  2  0  0  0  0
 13 19  1  0  0  0  0
 16 20  2  0  0  0  0
 18 22  1  0  0  0  0
 19 17  1  0  0  0  0
 20 17  1  0  0  0  0
 20 15  1  0  0  0  0
 21 19  2  0  0  0  0
 22 15  2  0  0  0  0
 23 16  1  0  0  0  0
 23 18  2  0  0  0  0
 24 31  2  0  0  0  0
 25 29  1  1  0  0  0
 25 27  1  0  0  0  0
 26 30  1  0  0  0  0
 27 31  1  0  0  0  0
 28 32  1  0  0  0  0
 28 25  1  0  0  0  0
 29 30  1  0  0  0  0
 30 23  1  1  0  0  0
 32 26  1  0  0  0  0
 32 24  1  1  0  0  0
 33  2  2  0  0  0  0
 34 36  1  0  0  0  0
 34 39  1  0  0  0  0
 35 38  1  0  0  0  0
 36 44  1  1  0  0  0
 36 37  1  0  0  0  0
 37 33  1  6  0  0  0
 37 35  1  0  0  0  0
 38 42  1  0  0  0  0
 38 40  2  0  0  0  0
 39 41  1  0  0  0  0
 41 42  1  0  0  0  0
 42 56  1  6  0  0  0
 44 47  2  0  0  0  0
 45 54  1  6  0  0  0
 45 47  1  0  0  0  0
 45 43  1  0  0  0  0
 48 49  2  0  0  0  0
 48 54  1  0  0  0  0
 49 44  1  0  0  0  0
 50 51  1  0  0  0  0
 51 46  1  0  0  0  0
 52 50  1  1  0  0  0
 52 53  1  0  0  0  0
 52 45  1  0  0  0  0
 55 53  1  6  0  0  0
 55 46  1  0  0  0  0
 55 43  1  0  0  0  0
 56 57  1  0  0  0  0
 58 59  1  0  0  0  0
 58  4  1  0  0  0  0
 60 61  1  6  0  0  0
 60 59  1  0  0  0  0
 61 62  1  0  0  0  0
 63 60  1  0  0  0  0
 63 64  1  0  0  0  0
 64 66  2  0  0  0  0
 64 65  1  0  0  0  0
M  END
>  <MODEL>
3

>  <REMARK>
 VINA RESULT:      -5.5      2.701      6.722
  Name = 
  16 active torsions:
  status: ('A' for Active; 'I' for Inactive)
    1  A    between atoms: CA_3  and  C_12
    2  A    between atoms: CA_3  and  CB_35
    3  A    between atoms: CA_3  and  N_49
    4  A    between atoms: C_7  and  C_11
    5  A    between atoms: C_7  and  C_20
    6  A    between atoms: C_8  and  N_49
    7  A    between atoms: C_8  and  C_51
    8  A    between atoms: O_13  and  C_60
    9  A    between atoms: C_16  and  C_17
   10  A    between atoms: C_18  and  N_52
   11  A    between atoms: C_20  and  C_66
   12  A    between atoms: C_21  and  N_41
   13  A    between atoms: CG_24  and  CB_35
   14  A    between atoms: C_42  and  N_52
   15  A    between atoms: C_48  and  N_50
   16  A    between atoms: C_61  and  C_63
                            x       y       z     vdW  Elec       q    Type
                         _______ _______ _______ _____ _____    ______ ____

>  <TORSDO>
F 16

$$$$
=
 OpenBabel10232410113D

 66 74  0  0  1  0  0  0  0  0999 V2000
  185.3260  178.7650  140.2110 C   0  0  0  0  0  0  0  0  0  0  0  0
  184.4140  178.3430  139.3500 C   0  0  0  0  0  0  0  0  0  0  0  0
  183.2610  178.7950  141.2530 N   0  0  0  0  0  0  0  0  0  0  0  0
  183.1380  178.3690  140.0360 C   0  0  0  0  0  0  0  0  0  0  0  0
  186.6900  178.8700  139.9600 O   0  0  0  0  0  1  0  0  0  0  0  0
  184.6600  179.1400  141.5000 C   0  0  1  0  0  3  0  0  0  0  0  0
  185.7690  177.3030  142.5230 O   0  0  0  0  0  0  0  0  0  0  0  0
  185.2330  178.3890  142.6810 C   0  0  0  0  0  0  0  0  0  0  0  0
  185.1580  178.9690  144.0670 C   0  0  0  0  0  2  0  0  0  0  0  0
  184.0510  178.2890  144.8670 C   0  0  2  0  0  3  0  0  0  0  0  0
  183.6250  179.2200  145.9890 C   0  0  0  0  0  2  0  0  0  0  0  0
  184.3840  177.9550  146.3270 C   0  0  2  0  0  3  0  0  0  0  0  0
  186.2800  177.7660  147.7270 N   0  0  0  0  0  0  0  0  0  0  0  0
  185.7520  178.2930  146.6910 N   0  0  0  0  0  0  0  0  0  0  0  0
  190.7860  176.2830  147.5780 C   0  0  0  0  0  3  0  0  0  0  0  0
  189.6470  177.8500  146.1930 N   0  0  0  0  0  0  0  0  0  0  0  0
  188.6270  177.1800  148.2900 N   0  0  0  0  0  2  0  0  0  0  0  0
  191.7220  176.9430  145.4450 C   0  0  0  0  0  3  0  0  0  0  0  0
  187.5850  178.1510  148.1670 C   0  0  0  0  0  0  0  0  0  0  0  0
  189.7030  177.1270  147.3440 C   0  0  0  0  0  0  0  0  0  0  0  0
  187.8430  179.3680  148.3420 O   0  0  0  0  0  0  0  0  0  0  0  0
  191.8030  176.1960  146.6230 C   0  0  0  0  0  3  0  0  0  0  0  0
  190.6260  177.7800  145.2420 C   0  0  0  0  0  0  0  0  0  0  0  0
  189.0140  176.1500  142.6500 C   0  0  0  0  0  3  0  0  0  0  0  0
  191.3440  177.4440  141.7750 C   0  0  1  0  0  3  0  0  0  0  0  0
  189.1550  178.5040  143.3540 N   0  0  0  0  0  2  0  0  0  0  0  0
  191.3610  175.9380  142.0980 C   0  0  0  0  0  2  0  0  0  0  0  0
  190.0590  177.8380  141.2110 N   0  0  0  0  0  2  0  0  0  0  0  0
  191.6900  178.3210  142.9740 C   0  0  0  0  0  2  0  0  0  0  0  0
  190.5120  178.5260  143.9410 C   0  0  2  0  0  3  0  0  0  0  0  0
  190.0930  175.4460  142.6150 N   0  0  0  0  0  0  0  0  0  0  0  0
  189.0130  177.5920  142.2100 C   0  0  1  0  0  3  0  0  0  0  0  0
  184.6310  177.9020  137.9990 N   0  0  0  0  0  2  0  0  0  0  0  0
  185.1580  174.2320  138.3010 C   0  0  0  0  0  2  0  0  0  0  0  0
  183.7890  176.6570  136.0850 C   0  0  0  0  0  2  0  0  0  0  0  0
  185.5270  175.6120  137.7390 C   0  0  2  0  0  3  0  0  0  0  0  0
  184.3250  176.5610  137.5190 C   0  0  1  0  0  3  0  0  0  0  0  0
  183.2900  175.3650  135.5120 C   0  0  0  0  0  0  0  0  0  0  0  0
  184.1400  173.4920  137.4490 C   0  0  0  0  0  2  0  0  0  0  0  0
  183.5620  175.1030  134.3490 O   0  0  0  0  0  0  0  0  0  0  0  0
  182.8820  174.0980  137.5790 O   0  0  0  0  0  0  0  0  0  0  0  0
  182.3880  174.4300  136.2960 C   0  0  2  0  0  3  0  0  0  0  0  0
  189.7140  173.8850  136.0280 O   0  0  0  0  0  0  0  0  0  0  0  0
  186.5900  175.5600  136.6700 C   0  0  0  0  0  0  0  0  0  0  0  0
  188.9180  175.0450  135.8870 C   0  0  1  0  0  0  0  0  0  0  0  0
  191.4390  174.4030  137.6010 C   0  0  0  0  0  2  0  0  0  0  0  0
  187.7910  175.0090  136.9090 C   0  0  0  0  0  3  0  0  0  0  0  0
  187.1750  176.0330  134.3480 C   0  0  0  0  0  3  0  0  0  0  0  0
  186.3440  176.2260  135.3790 C   0  0  0  0  0  3  0  0  0  0  0  0
  190.0750  176.6150  137.5440 C   0  0  0  0  0  2  0  0  0  0  0  0
  191.1650  175.7780  138.2450 C   0  0  0  0  0  2  0  0  0  0  0  0
  189.8440  176.2630  136.0530 C   0  0  1  0  0  3  0  0  0  0  0  0
  191.1170  175.7040  135.4960 C   0  0  0  0  0  2  0  0  0  0  0  0
  188.3130  175.0500  134.4650 C   0  0  0  0  0  2  0  0  0  0  0  0
  191.0520  174.3220  136.1140 C   0  0  2  0  0  3  0  0  0  0  0  0
  182.0710  173.2840  135.5610 O   0  0  0  0  0  0  0  0  0  0  0  0
  180.7750  172.9520  135.9560 C   0  0  0  0  0  1  0  0  0  0  0  0
  181.8400  177.8840  139.4750 C   0  0  0  0  0  2  0  0  0  0  0  0
  180.9270  178.9960  139.2290 N   0  0  0  0  0  2  0  0  0  0  0  0
  181.1920  179.4950  137.8890 C   0  0  2  0  0  3  0  0  0  0  0  0
  181.4530  180.9870  137.9380 C   0  0  0  0  0  2  0  0  0  0  0  0
  181.4870  181.4020  139.2760 O   0  0  0  0  0  1  0  0  0  0  0  0
  180.0220  179.1920  136.9640 C   0  0  0  0  0  2  0  0  0  0  0  0
  180.2760  177.9400  136.1850 C   0  0  0  0  0  0  0  0  0  0  0  0
  180.6660  178.0030  134.9870 O   0  0  0  0  0  0  0  0  0  0  0  0
  180.0900  176.7040  136.7940 O   0  0  0  0  0  1  0  0  0  0  0  0
  1  6  1  0  0  0  0
  2  4  1  0  0  0  0
  2  1  2  0  0  0  0
  3  6  1  0  0  0  0
  4  3  2  0  0  0  0
  5  1  1  0  0  0  0
  6  8  1  1  0  0  0
  7  8  2  0  0  0  0
  8  9  1  0  0  0  0
 10  9  1  6  0  0  0
 10 11  1  0  0  0  0
 10 12  1  0  0  0  0
 11 12  1  0  0  0  0
 12 14  1  6  0  0  0
 13 19  1  0  0  0  0
 14 13  2  0  0  0  0
 16 20  2  0  0  0  0
 18 22  1  0  0  0  0
 19 17  1  0  0  0  0
 19 21  2  0  0  0  0
 20 15  1  0  0  0  0
 20 17  1  0  0  0  0
 22 15  2  0  0  0  0
 23 18  2  0  0  0  0
 23 16  1  0  0  0  0
 25 27  1  1  0  0  0
 25 29  1  0  0  0  0
 26 30  1  0  0  0  0
 27 31  1  0  0  0  0
 28 25  1  0  0  0  0
 28 32  1  0  0  0  0
 29 30  1  0  0  0  0
 30 23  1  1  0  0  0
 31 24  2  0  0  0  0
 32 24  1  1  0  0  0
 32 26  1  0  0  0  0
 33  2  1  0  0  0  0
 35 37  1  0  0  0  0
 36 44  1  6  0  0  0
 36 34  1  0  0  0  0
 37 36  1  0  0  0  0
 37 33  1  6  0  0  0
 38 35  1  0  0  0  0
 38 42  1  0  0  0  0
 39 41  1  0  0  0  0
 39 34  1  0  0  0  0
 40 38  2  0  0  0  0
 42 56  1  6  0  0  0
 42 41  1  0  0  0  0
 43 55  1  0  0  0  0
 44 47  2  0  0  0  0
 45 54  1  6  0  0  0
 45 43  1  0  0  0  0
 45 52  1  0  0  0  0
 45 47  1  0  0  0  0
 46 51  1  0  0  0  0
 48 54  1  0  0  0  0
 48 49  2  0  0  0  0
 49 44  1  0  0  0  0
 50 51  1  0  0  0  0
 52 53  1  1  0  0  0
 52 50  1  0  0  0  0
 55 53  1  1  0  0  0
 55 46  1  0  0  0  0
 56 57  1  0  0  0  0
 58  4  1  0  0  0  0
 59 58  1  0  0  0  0
 60 63  1  6  0  0  0
 60 61  1  0  0  0  0
 60 59  1  0  0  0  0
 61 62  1  0  0  0  0
 64 66  1  0  0  0  0
 64 63  1  0  0  0  0
 65 64  2  0  0  0  0
M  END
>  <MODEL>
4

>  <REMARK>
 VINA RESULT:      -5.4      2.602      8.117
  Name = 
  16 active torsions:
  status: ('A' for Active; 'I' for Inactive)
    1  A    between atoms: CA_3  and  C_12
    2  A    between atoms: CA_3  and  CB_35
    3  A    between atoms: CA_3  and  N_49
    4  A    between atoms: C_7  and  C_11
    5  A    between atoms: C_7  and  C_20
    6  A    between atoms: C_8  and  N_49
    7  A    between atoms: C_8  and  C_51
    8  A    between atoms: O_13  and  C_60
    9  A    between atoms: C_16  and  C_17
   10  A    between atoms: C_18  and  N_52
   11  A    between atoms: C_20  and  C_66
   12  A    between atoms: C_21  and  N_41
   13  A    between atoms: CG_24  and  CB_35
   14  A    between atoms: C_42  and  N_52
   15  A    between atoms: C_48  and  N_50
   16  A    between atoms: C_61  and  C_63
                            x       y       z     vdW  Elec       q    Type
                         _______ _______ _______ _____ _____    ______ ____

>  <TORSDO>
F 16

$$$$
=
 OpenBabel10232410113D

 66 74  0  0  1  0  0  0  0  0999 V2000
  186.0830  177.5500  138.6110 C   0  0  0  0  0  0  0  0  0  0  0  0
  186.4760  177.2200  137.3910 C   0  0  0  0  0  0  0  0  0  0  0  0
  188.3430  177.0600  138.6730 N   0  0  0  0  0  0  0  0  0  0  0  0
  187.8930  176.9270  137.4660 C   0  0  0  0  0  0  0  0  0  0  0  0
  184.7940  177.9280  138.9720 O   0  0  0  0  0  1  0  0  0  0  0  0
  187.2390  177.4320  139.5560 C   0  0  1  0  0  3  0  0  0  0  0  0
  188.4720  179.4150  140.0020 O   0  0  0  0  0  0  0  0  0  0  0  0
  187.5090  178.7230  140.2960 C   0  0  0  0  0  0  0  0  0  0  0  0
  186.5940  179.1790  141.4000 C   0  0  0  0  0  2  0  0  0  0  0  0
  185.2450  178.4750  141.2940 C   0  0  2  0  0  3  0  0  0  0  0  0
  184.1880  179.3580  141.9350 C   0  0  0  0  0  2  0  0  0  0  0  0
  184.5900  178.0710  142.6220 C   0  0  2  0  0  3  0  0  0  0  0  0
  184.9190  178.2920  144.9530 N   0  0  0  0  0  0  0  0  0  0  0  0
  185.4170  178.3770  143.7810 N   0  0  0  0  0  0  0  0  0  0  0  0
  188.2820  176.6370  147.8630 C   0  0  0  0  0  3  0  0  0  0  0  0
  188.4710  178.0600  145.9640 N   0  0  0  0  0  0  0  0  0  0  0  0
  186.2820  177.6950  146.9420 N   0  0  0  0  0  2  0  0  0  0  0  0
  190.4300  176.9910  146.8050 C   0  0  0  0  0  3  0  0  0  0  0  0
  185.6720  178.6810  146.1050 C   0  0  0  0  0  0  0  0  0  0  0  0
  187.6990  177.4850  146.9240 C   0  0  0  0  0  0  0  0  0  0  0  0
  185.8890  179.9000  146.3180 O   0  0  0  0  0  0  0  0  0  0  0  0
  189.6580  176.3940  147.8040 C   0  0  0  0  0  3  0  0  0  0  0  0
  189.8170  177.8360  145.8810 C   0  0  0  0  0  0  0  0  0  0  0  0
  189.2600  176.5730  142.7070 C   0  0  0  0  0  3  0  0  0  0  0  0
  191.9980  176.8700  143.2430 C   0  0  1  0  0  3  0  0  0  0  0  0
  189.8570  178.7980  143.5730 N   0  0  0  0  0  2  0  0  0  0  0  0
  191.3140  175.4990  143.4070 C   0  0  0  0  0  2  0  0  0  0  0  0
  191.4060  177.6150  142.1390 N   0  0  0  0  0  2  0  0  0  0  0  0
  191.9840  177.7070  144.5180 C   0  0  0  0  0  2  0  0  0  0  0  0
  190.6430  178.4180  144.7670 C   0  0  2  0  0  3  0  0  0  0  0  0
  189.8790  175.5410  143.1680 N   0  0  0  0  0  0  0  0  0  0  0  0
  189.9930  177.8650  142.4460 C   0  0  1  0  0  3  0  0  0  0  0  0
  185.6750  177.1880  136.1980 N   0  0  0  0  0  2  0  0  0  0  0  0
  182.5360  176.2350  134.4430 C   0  0  0  0  0  2  0  0  0  0  0  0
  184.7070  175.1150  137.0300 C   0  0  0  0  0  2  0  0  0  0  0  0
  183.2920  176.8240  135.6410 C   0  0  2  0  0  3  0  0  0  0  0  0
  184.6690  176.1720  135.9190 C   0  0  1  0  0  3  0  0  0  0  0  0
  183.8270  173.9250  136.7980 C   0  0  0  0  0  0  0  0  0  0  0  0
  182.3190  174.7340  134.5500 C   0  0  0  0  0  2  0  0  0  0  0  0
  183.1920  173.4800  137.7450 O   0  0  0  0  0  0  0  0  0  0  0  0
  183.5350  174.0630  134.3610 O   0  0  0  0  0  0  0  0  0  0  0  0
  183.7750  173.2080  135.4620 C   0  0  2  0  0  3  0  0  0  0  0  0
  179.9870  179.5980  137.8370 O   0  0  0  0  0  0  0  0  0  0  0  0
  182.4040  177.1260  136.8210 C   0  0  0  0  0  0  0  0  0  0  0  0
  181.0140  178.6960  138.2010 C   0  0  1  0  0  0  0  0  0  0  0  0
  180.8820  181.8050  138.0510 C   0  0  0  0  0  2  0  0  0  0  0  0
  181.8220  178.3270  136.9640 C   0  0  0  0  0  3  0  0  0  0  0  0
  181.3390  176.2750  138.8470 C   0  0  0  0  0  3  0  0  0  0  0  0
  182.2650  176.1230  137.8920 C   0  0  0  0  0  3  0  0  0  0  0  0
  182.9230  180.3290  138.6910 C   0  0  0  0  0  2  0  0  0  0  0  0
  182.3990  181.7310  138.3210 C   0  0  0  0  0  2  0  0  0  0  0  0
  181.8600  179.3760  139.2920 C   0  0  1  0  0  3  0  0  0  0  0  0
  180.8070  180.2040  139.9630 C   0  0  0  0  0  2  0  0  0  0  0  0
  180.3610  177.4200  138.7780 C   0  0  0  0  0  2  0  0  0  0  0  0
  180.0730  180.6860  138.7290 C   0  0  2  0  0  3  0  0  0  0  0  0
  182.8690  172.1430  135.4840 O   0  0  0  0  0  0  0  0  0  0  0  0
  183.5980  171.0430  135.0330 C   0  0  0  0  0  1  0  0  0  0  0  0
  188.7750  176.6000  136.3040 C   0  0  0  0  0  2  0  0  0  0  0  0
  189.2620  175.2260  136.3850 N   0  0  0  0  0  2  0  0  0  0  0  0
  190.6240  175.2110  135.8760 C   0  0  2  0  0  3  0  0  0  0  0  0
  191.2710  173.8740  136.1770 C   0  0  0  0  0  2  0  0  0  0  0  0
  192.2890  173.6370  135.2440 O   0  0  0  0  0  1  0  0  0  0  0  0
  191.4360  176.3430  136.4890 C   0  0  0  0  0  2  0  0  0  0  0  0
  192.0320  175.9170  137.7940 C   0  0  0  0  0  0  0  0  0  0  0  0
  193.2840  175.8800  137.9420 O   0  0  0  0  0  0  0  0  0  0  0  0
  191.1950  175.5700  138.8480 O   0  0  0  0  0  1  0  0  0  0  0  0
  1  5  1  0  0  0  0
  1  6  1  0  0  0  0
  2  4  1  0  0  0  0
  2  1  2  0  0  0  0
  3  6  1  0  0  0  0
  4  3  2  0  0  0  0
  6  8  1  6  0  0  0
  7  8  2  0  0  0  0
  8  9  1  0  0  0  0
 10  9  1  1  0  0  0
 10 11  1  0  0  0  0
 10 12  1  0  0  0  0
 11 12  1  0  0  0  0
 12 14  1  1  0  0  0
 13 19  1  0  0  0  0
 14 13  2  0  0  0  0
 16 20  2  0  0  0  0
 18 22  1  0  0  0  0
 19 21  2  0  0  0  0
 19 17  1  0  0  0  0
 20 17  1  0  0  0  0
 20 15  1  0  0  0  0
 22 15  2  0  0  0  0
 23 16  1  0  0  0  0
 23 18  2  0  0  0  0
 24 31  2  0  0  0  0
 25 27  1  1  0  0  0
 25 29  1  0  0  0  0
 26 30  1  0  0  0  0
 28 32  1  0  0  0  0
 28 25  1  0  0  0  0
 29 30  1  0  0  0  0
 30 23  1  1  0  0  0
 31 27  1  0  0  0  0
 32 24  1  1  0  0  0
 32 26  1  0  0  0  0
 33  2  1  0  0  0  0
 34 39  1  0  0  0  0
 34 36  1  0  0  0  0
 36 37  1  0  0  0  0
 36 44  1  1  0  0  0
 37 33  1  1  0  0  0
 37 35  1  0  0  0  0
 38 35  1  0  0  0  0
 38 40  2  0  0  0  0
 41 39  1  0  0  0  0
 41 42  1  0  0  0  0
 42 56  1  1  0  0  0
 42 38  1  0  0  0  0
 43 45  1  0  0  0  0
 43 55  1  0  0  0  0
 44 47  2  0  0  0  0
 44 49  1  0  0  0  0
 45 47  1  6  0  0  0
 45 54  1  0  0  0  0
 45 52  1  0  0  0  0
 46 51  1  0  0  0  0
 49 48  2  0  0  0  0
 51 50  1  0  0  0  0
 52 50  1  6  0  0  0
 52 53  1  0  0  0  0
 54 48  1  0  0  0  0
 55 46  1  6  0  0  0
 55 53  1  0  0  0  0
 57 56  1  0  0  0  0
 58 59  1  0  0  0  0
 58  4  1  0  0  0  0
 60 61  1  1  0  0  0
 60 59  1  0  0  0  0
 60 63  1  0  0  0  0
 62 61  1  0  0  0  0
 63 64  1  0  0  0  0
 64 65  2  0  0  0  0
 64 66  1  0  0  0  0
M  END
>  <MODEL>
5

>  <REMARK>
 VINA RESULT:      -5.0      2.703      9.108
  Name = 
  16 active torsions:
  status: ('A' for Active; 'I' for Inactive)
    1  A    between atoms: CA_3  and  C_12
    2  A    between atoms: CA_3  and  CB_35
    3  A    between atoms: CA_3  and  N_49
    4  A    between atoms: C_7  and  C_11
    5  A    between atoms: C_7  and  C_20
    6  A    between atoms: C_8  and  N_49
    7  A    between atoms: C_8  and  C_51
    8  A    between atoms: O_13  and  C_60
    9  A    between atoms: C_16  and  C_17
   10  A    between atoms: C_18  and  N_52
   11  A    between atoms: C_20  and  C_66
   12  A    between atoms: C_21  and  N_41
   13  A    between atoms: CG_24  and  CB_35
   14  A    between atoms: C_42  and  N_52
   15  A    between atoms: C_48  and  N_50
   16  A    between atoms: C_61  and  C_63
                            x       y       z     vdW  Elec       q    Type
                         _______ _______ _______ _____ _____    ______ ____

>  <TORSDO>
F 16

$$$$
=
 OpenBabel10232410113D

 66 74  0  0  1  0  0  0  0  0999 V2000
  187.5250  178.4320  138.0540 C   0  0  0  0  0  0  0  0  0  0  0  0
  188.4000  178.4060  139.0470 C   0  0  0  0  0  0  0  0  0  0  0  0
  189.5220  177.5860  137.2510 N   0  0  0  0  0  0  0  0  0  0  0  0
  189.6340  177.8660  138.5110 C   0  0  0  0  0  0  0  0  0  0  0  0
  186.2050  178.8600  138.1490 O   0  0  0  0  0  1  0  0  0  0  0  0
  188.1820  177.9510  136.7970 C   0  0  1  0  0  3  0  0  0  0  0  0
  187.1810  176.7770  134.9880 O   0  0  0  0  0  0  0  0  0  0  0  0
  187.4500  176.7800  136.1790 C   0  0  0  0  0  0  0  0  0  0  0  0
  187.0480  175.5990  137.0190 C   0  0  0  0  0  2  0  0  0  0  0  0
  188.2120  174.6210  137.1510 C   0  0  2  0  0  3  0  0  0  0  0  0
  188.7000  174.2620  135.7580 C   0  0  0  0  0  2  0  0  0  0  0  0
  187.9780  173.2160  136.5790 C   0  0  2  0  0  3  0  0  0  0  0  0
  186.0650  171.8920  136.1550 N   0  0  0  0  0  0  0  0  0  0  0  0
  186.6320  173.0310  136.0540 N   0  0  0  0  0  0  0  0  0  0  0  0
  181.4690  171.6720  137.3200 C   0  0  0  0  0  3  0  0  0  0  0  0
  182.7260  173.4690  136.3910 N   0  0  0  0  0  0  0  0  0  0  0  0
  183.6780  171.2390  136.3690 N   0  0  0  0  0  2  0  0  0  0  0  0
  180.6000  173.9310  137.3690 C   0  0  0  0  0  3  0  0  0  0  0  0
  184.7850  171.6500  135.5630 C   0  0  0  0  0  0  0  0  0  0  0  0
  182.6100  172.1440  136.6740 C   0  0  0  0  0  0  0  0  0  0  0  0
  184.6100  171.9060  134.3460 O   0  0  0  0  0  0  0  0  0  0  0  0
  180.4570  172.5730  137.6640 C   0  0  0  0  0  3  0  0  0  0  0  0
  181.7530  174.3710  136.7210 C   0  0  0  0  0  0  0  0  0  0  0  0
  182.9590  176.2630  139.3560 C   0  0  0  0  0  3  0  0  0  0  0  0
  180.8350  177.5430  138.0430 C   0  0  1  0  0  3  0  0  0  0  0  0
  183.2360  176.3740  136.9130 N   0  0  0  0  0  2  0  0  0  0  0  0
  180.5860  176.7420  139.3350 C   0  0  0  0  0  2  0  0  0  0  0  0
  182.1410  178.1890  138.0780 N   0  0  0  0  0  2  0  0  0  0  0  0
  180.6910  176.7030  136.7770 C   0  0  0  0  0  2  0  0  0  0  0  0
  181.9290  175.8440  136.4700 C   0  0  2  0  0  3  0  0  0  0  0  0
  181.7780  176.0770  139.8380 N   0  0  0  0  0  0  0  0  0  0  0  0
  183.1760  177.1530  138.1580 C   0  0  1  0  0  3  0  0  0  0  0  0
  188.1790  178.7980  140.4120 N   0  0  0  0  0  2  0  0  0  0  0  0
  188.3060  175.7990  142.6100 C   0  0  0  0  0  2  0  0  0  0  0  0
  189.4210  179.1760  142.4700 C   0  0  0  0  0  2  0  0  0  0  0  0
  187.7480  177.1770  142.2300 C   0  0  2  0  0  3  0  0  0  0  0  0
  188.7720  178.1250  141.5600 C   0  0  1  0  0  3  0  0  0  0  0  0
  190.2040  178.6150  143.6190 C   0  0  0  0  0  0  0  0  0  0  0  0
  189.5230  175.8750  143.5170 C   0  0  0  0  0  2  0  0  0  0  0  0
  190.1020  179.1590  144.7100 O   0  0  0  0  0  0  0  0  0  0  0  0
  190.6290  176.3400  142.7920 O   0  0  0  0  0  0  0  0  0  0  0  0
  191.1790  177.4660  143.4460 C   0  0  2  0  0  3  0  0  0  0  0  0
  187.0380  179.5900  146.3670 O   0  0  0  0  0  0  0  0  0  0  0  0
  186.8250  177.7590  143.2710 C   0  0  0  0  0  0  0  0  0  0  0  0
  186.3620  178.6300  145.5790 C   0  0  1  0  0  0  0  0  0  0  0  0
  188.1410  178.4040  148.1260 C   0  0  0  0  0  2  0  0  0  0  0  0
  187.2870  178.1460  144.4710 C   0  0  0  0  0  3  0  0  0  0  0  0
  184.5580  178.4810  143.8170 C   0  0  0  0  0  3  0  0  0  0  0  0
  185.3760  177.7980  143.0070 C   0  0  0  0  0  3  0  0  0  0  0  0
  187.0360  176.4740  146.7820 C   0  0  0  0  0  2  0  0  0  0  0  0
  188.0410  176.8840  147.8780 C   0  0  0  0  0  2  0  0  0  0  0  0
  185.9060  177.5000  146.5200 C   0  0  1  0  0  3  0  0  0  0  0  0
  185.6740  178.2820  147.7760 C   0  0  0  0  0  2  0  0  0  0  0  0
  185.1230  179.3040  144.9470 C   0  0  0  0  0  2  0  0  0  0  0  0
  186.8850  179.1880  147.7100 C   0  0  2  0  0  3  0  0  0  0  0  0
  191.7730  177.1070  144.6610 O   0  0  0  0  0  0  0  0  0  0  0  0
  191.9870  175.7330  144.5620 C   0  0  0  0  0  1  0  0  0  0  0  0
  190.8670  177.5680  139.3020 C   0  0  0  0  0  2  0  0  0  0  0  0
  191.3210  176.2000  139.0690 N   0  0  0  0  0  2  0  0  0  0  0  0
  192.7700  176.2340  138.9450 C   0  0  2  0  0  3  0  0  0  0  0  0
  193.3410  177.2830  139.8780 C   0  0  0  0  0  2  0  0  0  0  0  0
  194.6000  176.8620  140.3250 O   0  0  0  0  0  1  0  0  0  0  0  0
  193.1770  176.5250  137.5080 C   0  0  0  0  0  2  0  0  0  0  0  0
  193.9780  175.3920  136.9470 C   0  0  0  0  0  0  0  0  0  0  0  0
  195.2370  175.4030  137.0220 O   0  0  0  0  0  1  0  0  0  0  0  0
  193.3240  174.3210  136.3490 O   0  0  0  0  0  0  0  0  0  0  0  0
  1  5  1  0  0  0  0
  1  2  2  0  0  0  0
  2 33  1  0  0  0  0
  3  4  2  0  0  0  0
  4  2  1  0  0  0  0
  4 58  1  0  0  0  0
  6  8  1  1  0  0  0
  6  3  1  0  0  0  0
  6  1  1  0  0  0  0
  7  8  2  0  0  0  0
  8  9  1  0  0  0  0
 10  9  1  6  0  0  0
 11 12  1  0  0  0  0
 11 10  1  0  0  0  0
 12 14  1  6  0  0  0
 12 10  1  0  0  0  0
 14 13  2  0  0  0  0
 15 22  2  0  0  0  0
 16 20  2  0  0  0  0
 16 23  1  0  0  0  0
 17 20  1  0  0  0  0
 18 22  1  0  0  0  0
 19 13  1  0  0  0  0
 19 17  1  0  0  0  0
 20 15  1  0  0  0  0
 21 19  2  0  0  0  0
 23 18  2  0  0  0  0
 24 31  2  0  0  0  0
 25 29  1  6  0  0  0
 25 28  1  0  0  0  0
 25 27  1  0  0  0  0
 26 32  1  0  0  0  0
 27 31  1  0  0  0  0
 28 32  1  0  0  0  0
 30 23  1  1  0  0  0
 30 29  1  0  0  0  0
 30 26  1  0  0  0  0
 32 24  1  1  0  0  0
 34 39  1  0  0  0  0
 35 38  1  0  0  0  0
 36 34  1  0  0  0  0
 36 44  1  1  0  0  0
 37 33  1  6  0  0  0
 37 36  1  0  0  0  0
 37 35  1  0  0  0  0
 38 40  2  0  0  0  0
 41 42  1  0  0  0  0
 41 39  1  0  0  0  0
 42 38  1  0  0  0  0
 42 56  1  1  0  0  0
 43 55  1  0  0  0  0
 44 47  2  0  0  0  0
 45 47  1  6  0  0  0
 45 43  1  0  0  0  0
 45 52  1  0  0  0  0
 48 54  1  0  0  0  0
 49 44  1  0  0  0  0
 49 48  2  0  0  0  0
 50 51  1  0  0  0  0
 51 46  1  0  0  0  0
 52 50  1  1  0  0  0
 52 53  1  0  0  0  0
 54 45  1  0  0  0  0
 55 53  1  6  0  0  0
 55 46  1  0  0  0  0
 57 56  1  0  0  0  0
 59 58  1  0  0  0  0
 60 63  1  6  0  0  0
 60 59  1  0  0  0  0
 60 61  1  0  0  0  0
 61 62  1  0  0  0  0
 64 65  1  0  0  0  0
 64 63  1  0  0  0  0
 66 64  2  0  0  0  0
M  END
>  <MODEL>
6

>  <REMARK>
 VINA RESULT:      -4.9      2.515      8.803
  Name = 
  16 active torsions:
  status: ('A' for Active; 'I' for Inactive)
    1  A    between atoms: CA_3  and  C_12
    2  A    between atoms: CA_3  and  CB_35
    3  A    between atoms: CA_3  and  N_49
    4  A    between atoms: C_7  and  C_11
    5  A    between atoms: C_7  and  C_20
    6  A    between atoms: C_8  and  N_49
    7  A    between atoms: C_8  and  C_51
    8  A    between atoms: O_13  and  C_60
    9  A    between atoms: C_16  and  C_17
   10  A    between atoms: C_18  and  N_52
   11  A    between atoms: C_20  and  C_66
   12  A    between atoms: C_21  and  N_41
   13  A    between atoms: CG_24  and  CB_35
   14  A    between atoms: C_42  and  N_52
   15  A    between atoms: C_48  and  N_50
   16  A    between atoms: C_61  and  C_63
                            x       y       z     vdW  Elec       q    Type
                         _______ _______ _______ _____ _____    ______ ____

>  <TORSDO>
F 16

$$$$
=
 OpenBabel10232410113D

 66 74  0  0  1  0  0  0  0  0999 V2000
  187.1440  177.8200  138.5110 C   0  0  0  0  0  0  0  0  0  0  0  0
  185.9290  177.9810  138.0110 C   0  0  0  0  0  0  0  0  0  0  0  0
  187.0370  176.7290  136.4750 N   0  0  0  0  0  0  0  0  0  0  0  0
  185.9000  177.2910  136.7370 C   0  0  0  0  0  0  0  0  0  0  0  0
  187.6000  178.3470  139.7150 O   0  0  0  0  0  1  0  0  0  0  0  0
  187.9530  176.9600  137.5900 C   0  0  1  0  0  3  0  0  0  0  0  0
  189.2760  178.8510  137.0180 O   0  0  0  0  0  0  0  0  0  0  0  0
  189.2310  177.6380  137.1470 C   0  0  0  0  0  0  0  0  0  0  0  0
  190.4690  176.8300  136.8670 C   0  0  0  0  0  2  0  0  0  0  0  0
  190.1000  175.3730  136.5990 C   0  0  2  0  0  3  0  0  0  0  0  0
  190.9020  174.4910  137.5400 C   0  0  0  0  0  2  0  0  0  0  0  0
  191.2290  174.4810  136.0630 C   0  0  2  0  0  3  0  0  0  0  0  0
  193.5870  174.5970  135.9330 N   0  0  0  0  0  0  0  0  0  0  0  0
  192.4700  175.2080  135.8350 N   0  0  0  0  0  0  0  0  0  0  0  0
  197.8490  174.9000  137.9990 C   0  0  0  0  0  3  0  0  0  0  0  0
  197.1640  173.6600  136.0850 N   0  0  0  0  0  0  0  0  0  0  0  0
  195.7120  175.4100  136.9290 N   0  0  0  0  0  2  0  0  0  0  0  0
  199.2250  173.1000  137.1460 C   0  0  0  0  0  3  0  0  0  0  0  0
  194.8260  175.3020  135.8130 C   0  0  0  0  0  0  0  0  0  0  0  0
  196.9280  174.6540  136.9820 C   0  0  0  0  0  0  0  0  0  0  0  0
  195.1830  175.7350  134.6880 O   0  0  0  0  0  0  0  0  0  0  0  0
  199.0070  174.1190  138.0750 C   0  0  0  0  0  3  0  0  0  0  0  0
  198.2850  172.8810  136.1400 C   0  0  0  0  0  0  0  0  0  0  0  0
  196.4330  170.0150  136.7200 C   0  0  0  0  0  3  0  0  0  0  0  0
  199.1010  169.4190  136.0920 C   0  0  1  0  0  3  0  0  0  0  0  0
  197.2380  171.1380  134.6840 N   0  0  0  0  0  2  0  0  0  0  0  0
  198.6340  169.4620  137.5600 C   0  0  0  0  0  2  0  0  0  0  0  0
  198.0390  168.9210  135.2260 N   0  0  0  0  0  2  0  0  0  0  0  0
  199.6160  170.7620  135.5830 C   0  0  0  0  0  2  0  0  0  0  0  0
  198.4940  171.7360  135.1870 C   0  0  2  0  0  3  0  0  0  0  0  0
  197.2450  169.8660  137.7100 N   0  0  0  0  0  0  0  0  0  0  0  0
  196.9020  169.8460  135.2970 C   0  0  1  0  0  3  0  0  0  0  0  0
  184.8420  178.7240  138.5880 N   0  0  0  0  0  2  0  0  0  0  0  0
  181.2170  179.5610  138.6000 C   0  0  0  0  0  2  0  0  0  0  0  0
  183.4280  176.8340  139.1820 C   0  0  0  0  0  2  0  0  0  0  0  0
  182.5480  179.2950  139.3160 C   0  0  2  0  0  3  0  0  0  0  0  0
  183.4610  178.2600  138.6160 C   0  0  1  0  0  3  0  0  0  0  0  0
  182.0860  176.1680  139.1300 C   0  0  0  0  0  0  0  0  0  0  0  0
  180.3950  178.3020  138.3770 C   0  0  0  0  0  2  0  0  0  0  0  0
  181.7290  175.5090  140.0980 O   0  0  0  0  0  0  0  0  0  0  0  0
  180.9950  177.5130  137.3860 O   0  0  0  0  0  0  0  0  0  0  0  0
  181.2110  176.2100  137.8920 C   0  0  2  0  0  3  0  0  0  0  0  0
  184.1710  180.3560  143.7530 O   0  0  0  0  0  0  0  0  0  0  0  0
  182.4180  179.2200  140.8170 C   0  0  0  0  0  0  0  0  0  0  0  0
  183.3780  179.3630  143.1320 C   0  0  1  0  0  0  0  0  0  0  0  0
  186.3740  179.4550  143.9820 C   0  0  0  0  0  2  0  0  0  0  0  0
  183.4460  179.5380  141.6210 C   0  0  0  0  0  3  0  0  0  0  0  0
  180.9540  178.7840  142.7210 C   0  0  0  0  0  3  0  0  0  0  0  0
  181.1790  178.6820  141.4050 C   0  0  0  0  0  3  0  0  0  0  0  0
  185.1220  177.5240  142.7750 C   0  0  0  0  0  2  0  0  0  0  0  0
  186.4740  178.1150  143.2230 C   0  0  0  0  0  2  0  0  0  0  0  0
  183.9000  177.9950  143.6040 C   0  0  1  0  0  3  0  0  0  0  0  0
  184.3700  178.3530  144.9800 C   0  0  0  0  0  2  0  0  0  0  0  0
  181.9170  179.5440  143.5980 C   0  0  0  0  0  2  0  0  0  0  0  0
  185.0150  179.6860  144.6630 C   0  0  2  0  0  3  0  0  0  0  0  0
  180.0020  175.5360  138.0920 O   0  0  0  0  0  0  0  0  0  0  0  0
  180.0710  174.4220  137.2570 C   0  0  0  0  0  1  0  0  0  0  0  0
  184.7540  177.2870  135.7780 C   0  0  0  0  0  2  0  0  0  0  0  0
  184.9760  176.3280  134.7000 N   0  0  0  0  0  2  0  0  0  0  0  0
  183.9720  175.2830  134.8290 C   0  0  2  0  0  3  0  0  0  0  0  0
  182.5860  175.8930  134.7660 C   0  0  0  0  0  2  0  0  0  0  0  0
  181.6720  174.9130  134.3560 O   0  0  0  0  0  1  0  0  0  0  0  0
  184.1570  174.5220  136.1330 C   0  0  0  0  0  2  0  0  0  0  0  0
  185.0500  173.3380  135.9310 C   0  0  0  0  0  0  0  0  0  0  0  0
  186.2910  173.4330  136.1370 O   0  0  0  0  0  1  0  0  0  0  0  0
  184.5010  172.1280  135.5220 O   0  0  0  0  0  0  0  0  0  0  0  0
  1  5  1  0  0  0  0
  2  1  2  0  0  0  0
  2 33  1  0  0  0  0
  3  4  2  0  0  0  0
  3  6  1  0  0  0  0
  4  2  1  0  0  0  0
  6  8  1  6  0  0  0
  6  1  1  0  0  0  0
  7  8  2  0  0  0  0
  9  8  1  0  0  0  0
 10  9  1  1  0  0  0
 10 11  1  0  0  0  0
 12 14  1  1  0  0  0
 12 10  1  0  0  0  0
 12 11  1  0  0  0  0
 14 13  2  0  0  0  0
 15 22  2  0  0  0  0
 16 23  1  0  0  0  0
 16 20  2  0  0  0  0
 17 20  1  0  0  0  0
 18 22  1  0  0  0  0
 19 13  1  0  0  0  0
 19 17  1  0  0  0  0
 20 15  1  0  0  0  0
 21 19  2  0  0  0  0
 23 18  2  0  0  0  0
 24 31  2  0  0  0  0
 25 29  1  6  0  0  0
 25 27  1  0  0  0  0
 26 30  1  0  0  0  0
 26 32  1  0  0  0  0
 27 31  1  0  0  0  0
 28 32  1  0  0  0  0
 28 25  1  0  0  0  0
 30 29  1  0  0  0  0
 30 23  1  1  0  0  0
 32 24  1  1  0  0  0
 34 36  1  0  0  0  0
 36 44  1  1  0  0  0
 37 33  1  1  0  0  0
 37 35  1  0  0  0  0
 37 36  1  0  0  0  0
 38 35  1  0  0  0  0
 38 40  2  0  0  0  0
 39 34  1  0  0  0  0
 41 42  1  0  0  0  0
 41 39  1  0  0  0  0
 42 56  1  1  0  0  0
 42 38  1  0  0  0  0
 43 55  1  0  0  0  0
 44 49  1  0  0  0  0
 44 47  2  0  0  0  0
 45 47  1  6  0  0  0
 45 54  1  0  0  0  0
 45 52  1  0  0  0  0
 45 43  1  0  0  0  0
 48 54  1  0  0  0  0
 49 48  2  0  0  0  0
 50 51  1  0  0  0  0
 51 46  1  0  0  0  0
 52 50  1  6  0  0  0
 52 53  1  0  0  0  0
 55 46  1  6  0  0  0
 55 53  1  0  0  0  0
 57 56  1  0  0  0  0
 58  4  1  0  0  0  0
 59 60  1  0  0  0  0
 59 58  1  0  0  0  0
 60 61  1  1  0  0  0
 60 63  1  0  0  0  0
 62 61  1  0  0  0  0
 64 63  1  0  0  0  0
 64 65  1  0  0  0  0
 66 64  2  0  0  0  0
M  END
>  <MODEL>
7

>  <REMARK>
 VINA RESULT:      -4.4      4.106     12.701
  Name = 
  16 active torsions:
  status: ('A' for Active; 'I' for Inactive)
    1  A    between atoms: CA_3  and  C_12
    2  A    between atoms: CA_3  and  CB_35
    3  A    between atoms: CA_3  and  N_49
    4  A    between atoms: C_7  and  C_11
    5  A    between atoms: C_7  and  C_20
    6  A    between atoms: C_8  and  N_49
    7  A    between atoms: C_8  and  C_51
    8  A    between atoms: O_13  and  C_60
    9  A    between atoms: C_16  and  C_17
   10  A    between atoms: C_18  and  N_52
   11  A    between atoms: C_20  and  C_66
   12  A    between atoms: C_21  and  N_41
   13  A    between atoms: CG_24  and  CB_35
   14  A    between atoms: C_42  and  N_52
   15  A    between atoms: C_48  and  N_50
   16  A    between atoms: C_61  and  C_63
                            x       y       z     vdW  Elec       q    Type
                         _______ _______ _______ _____ _____    ______ ____

>  <TORSDO>
F 16

$$$$
=
 OpenBabel10232410113D

 66 74  0  0  1  0  0  0  0  0999 V2000
  185.2830  179.0240  140.7520 C   0  0  0  0  0  0  0  0  0  0  0  0
  184.5550  178.5260  139.7640 C   0  0  0  0  0  0  0  0  0  0  0  0
  183.5470  177.7960  141.6630 N   0  0  0  0  0  0  0  0  0  0  0  0
  183.4840  177.7600  140.3700 C   0  0  0  0  0  0  0  0  0  0  0  0
  186.4250  179.8030  140.6030 O   0  0  0  0  0  1  0  0  0  0  0  0
  184.6720  178.6380  142.0650 C   0  0  1  0  0  3  0  0  0  0  0  0
  186.1700  176.8640  142.5780 O   0  0  0  0  0  0  0  0  0  0  0  0
  185.6470  177.9010  142.9560 C   0  0  0  0  0  0  0  0  0  0  0  0
  185.9940  178.4370  144.3180 C   0  0  0  0  0  2  0  0  0  0  0  0
  184.7820  178.3590  145.2420 C   0  0  2  0  0  3  0  0  0  0  0  0
  184.7050  179.6460  146.0460 C   0  0  0  0  0  2  0  0  0  0  0  0
  185.0820  178.3590  146.7480 C   0  0  2  0  0  3  0  0  0  0  0  0
  186.9420  177.7640  148.0820 N   0  0  0  0  0  0  0  0  0  0  0  0
  186.5080  178.3680  147.0450 N   0  0  0  0  0  0  0  0  0  0  0  0
  191.0740  175.5650  147.2960 C   0  0  0  0  0  3  0  0  0  0  0  0
  190.1640  177.5160  146.2780 N   0  0  0  0  0  0  0  0  0  0  0  0
  189.1680  176.6920  148.3310 N   0  0  0  0  0  2  0  0  0  0  0  0
  191.9830  176.4010  145.2140 C   0  0  0  0  0  3  0  0  0  0  0  0
  188.3200  177.8360  148.4550 C   0  0  0  0  0  0  0  0  0  0  0  0
  190.1540  176.6130  147.2940 C   0  0  0  0  0  0  0  0  0  0  0  0
  188.8110  178.9430  148.7910 O   0  0  0  0  0  0  0  0  0  0  0  0
  191.9960  175.4640  146.2500 C   0  0  0  0  0  3  0  0  0  0  0  0
  191.0520  177.4380  145.2430 C   0  0  0  0  0  0  0  0  0  0  0  0
  189.0070  176.5730  142.5880 C   0  0  0  0  0  3  0  0  0  0  0  0
  191.4790  177.5690  141.7140 C   0  0  1  0  0  3  0  0  0  0  0  0
  189.6280  178.7140  143.6310 N   0  0  0  0  0  2  0  0  0  0  0  0
  191.2340  176.0500  141.7980 C   0  0  0  0  0  2  0  0  0  0  0  0
  190.2580  178.2700  141.3370 N   0  0  0  0  0  2  0  0  0  0  0  0
  192.0560  178.1590  142.9970 C   0  0  0  0  0  2  0  0  0  0  0  0
  190.9990  178.4010  144.0880 C   0  0  2  0  0  3  0  0  0  0  0  0
  189.9310  175.7080  142.3470 N   0  0  0  0  0  0  0  0  0  0  0  0
  189.2480  178.0460  142.3780 C   0  0  1  0  0  3  0  0  0  0  0  0
  184.7870  178.6740  138.3530 N   0  0  0  0  0  2  0  0  0  0  0  0
  186.4010  177.5880  135.1830 C   0  0  0  0  0  2  0  0  0  0  0  0
  186.9320  177.5780  138.7010 C   0  0  0  0  0  2  0  0  0  0  0  0
  185.6040  177.3050  136.4620 C   0  0  2  0  0  3  0  0  0  0  0  0
  185.9810  178.1980  137.6690 C   0  0  1  0  0  3  0  0  0  0  0  0
  188.2720  177.1790  138.1630 C   0  0  0  0  0  0  0  0  0  0  0  0
  187.9050  177.4820  135.3780 C   0  0  0  0  0  2  0  0  0  0  0  0
  188.7520  176.1160  138.5340 O   0  0  0  0  0  0  0  0  0  0  0  0
  188.3630  178.5680  136.1380 O   0  0  0  0  0  0  0  0  0  0  0  0
  189.0810  178.0880  137.2570 C   0  0  2  0  0  3  0  0  0  0  0  0
  187.3080  172.8790  137.4380 O   0  0  0  0  0  0  0  0  0  0  0  0
  185.3790  175.8350  136.7160 C   0  0  0  0  0  0  0  0  0  0  0  0
  186.1780  173.4580  136.8150 C   0  0  1  0  0  0  0  0  0  0  0  0
  188.8310  172.2610  135.7010 C   0  0  0  0  0  2  0  0  0  0  0  0
  186.3950  174.9590  136.6750 C   0  0  0  0  0  3  0  0  0  0  0  0
  183.7850  174.0880  137.3210 C   0  0  0  0  0  3  0  0  0  0  0  0
  184.0030  175.3400  136.9020 C   0  0  0  0  0  3  0  0  0  0  0  0
  186.8900  173.3490  134.3580 C   0  0  0  0  0  2  0  0  0  0  0  0
  188.3380  172.8180  134.3500 C   0  0  0  0  0  2  0  0  0  0  0  0
  185.9840  172.7490  135.4630 C   0  0  1  0  0  3  0  0  0  0  0  0
  186.4970  171.3840  135.8060 C   0  0  0  0  0  2  0  0  0  0  0  0
  184.9450  173.2060  137.7100 C   0  0  0  0  0  2  0  0  0  0  0  0
  187.7000  171.7910  136.6320 C   0  0  2  0  0  3  0  0  0  0  0  0
  190.2850  177.4900  136.8700 O   0  0  0  0  0  0  0  0  0  0  0  0
  190.1590  177.2910  135.4950 C   0  0  0  0  0  1  0  0  0  0  0  0
  182.4750  176.9440  139.6300 C   0  0  0  0  0  2  0  0  0  0  0  0
  181.1300  177.4830  139.8120 N   0  0  0  0  0  2  0  0  0  0  0  0
  180.5710  177.7240  138.4910 C   0  0  2  0  0  3  0  0  0  0  0  0
  181.6390  177.5210  137.4360 C   0  0  0  0  0  2  0  0  0  0  0  0
  181.0400  177.0460  136.2620 O   0  0  0  0  0  1  0  0  0  0  0  0
  180.0000  179.1320  138.4020 C   0  0  0  0  0  2  0  0  0  0  0  0
  180.7700  180.0700  139.2780 C   0  0  0  0  0  0  0  0  0  0  0  0
  180.4350  180.2360  140.4830 O   0  0  0  0  0  1  0  0  0  0  0  0
  181.8640  180.7510  138.7580 O   0  0  0  0  0  0  0  0  0  0  0  0
  1  6  1  0  0  0  0
  2  4  1  0  0  0  0
  2  1  2  0  0  0  0
  3  6  1  0  0  0  0
  4  3  2  0  0  0  0
  5  1  1  0  0  0  0
  6  8  1  1  0  0  0
  7  8  2  0  0  0  0
  8  9  1  0  0  0  0
 10  9  1  6  0  0  0
 10 11  1  0  0  0  0
 10 12  1  0  0  0  0
 11 12  1  0  0  0  0
 12 14  1  6  0  0  0
 13 19  1  0  0  0  0
 14 13  2  0  0  0  0
 16 20  2  0  0  0  0
 17 19  1  0  0  0  0
 18 23  2  0  0  0  0
 18 22  1  0  0  0  0
 19 21  2  0  0  0  0
 20 15  1  0  0  0  0
 20 17  1  0  0  0  0
 22 15  2  0  0  0  0
 23 16  1  0  0  0  0
 25 27  1  1  0  0  0
 25 29  1  0  0  0  0
 26 30  1  0  0  0  0
 27 31  1  0  0  0  0
 28 25  1  0  0  0  0
 28 32  1  0  0  0  0
 29 30  1  0  0  0  0
 30 23  1  1  0  0  0
 31 24  2  0  0  0  0
 32 24  1  1  0  0  0
 32 26  1  0  0  0  0
 33  2  1  0  0  0  0
 34 39  1  0  0  0  0
 34 36  1  0  0  0  0
 36 44  1  1  0  0  0
 36 37  1  0  0  0  0
 37 33  1  1  0  0  0
 37 35  1  0  0  0  0
 38 40  2  0  0  0  0
 38 35  1  0  0  0  0
 39 41  1  0  0  0  0
 41 42  1  0  0  0  0
 42 56  1  6  0  0  0
 42 38  1  0  0  0  0
 44 49  1  0  0  0  0
 45 47  1  6  0  0  0
 45 43  1  0  0  0  0
 45 54  1  0  0  0  0
 47 44  2  0  0  0  0
 48 54  1  0  0  0  0
 49 48  2  0  0  0  0
 51 50  1  0  0  0  0
 51 46  1  0  0  0  0
 52 50  1  6  0  0  0
 52 53  1  0  0  0  0
 52 45  1  0  0  0  0
 53 55  1  0  0  0  0
 55 46  1  6  0  0  0
 55 43  1  0  0  0  0
 57 56  1  0  0  0  0
 58 59  1  0  0  0  0
 58  4  1  0  0  0  0
 60 61  1  6  0  0  0
 60 59  1  0  0  0  0
 62 61  1  0  0  0  0
 63 60  1  0  0  0  0
 63 64  1  0  0  0  0
 64 65  1  0  0  0  0
 66 64  2  0  0  0  0
M  END
>  <MODEL>
8

>  <REMARK>
 VINA RESULT:      -4.3      2.789      8.212
  Name = 
  16 active torsions:
  status: ('A' for Active; 'I' for Inactive)
    1  A    between atoms: CA_3  and  C_12
    2  A    between atoms: CA_3  and  CB_35
    3  A    between atoms: CA_3  and  N_49
    4  A    between atoms: C_7  and  C_11
    5  A    between atoms: C_7  and  C_20
    6  A    between atoms: C_8  and  N_49
    7  A    between atoms: C_8  and  C_51
    8  A    between atoms: O_13  and  C_60
    9  A    between atoms: C_16  and  C_17
   10  A    between atoms: C_18  and  N_52
   11  A    between atoms: C_20  and  C_66
   12  A    between atoms: C_21  and  N_41
   13  A    between atoms: CG_24  and  CB_35
   14  A    between atoms: C_42  and  N_52
   15  A    between atoms: C_48  and  N_50
   16  A    between atoms: C_61  and  C_63
                            x       y       z     vdW  Elec       q    Type
                         _______ _______ _______ _____ _____    ______ ____

>  <TORSDO>
F 16

$$$$
=
 OpenBabel10232410113D

 66 74  0  0  1  0  0  0  0  0999 V2000
  189.9130  176.1760  139.0100 C   0  0  0  0  0  0  0  0  0  0  0  0
  190.6300  175.5090  138.1190 C   0  0  0  0  0  0  0  0  0  0  0  0
  191.2220  177.6830  137.8410 N   0  0  0  0  0  0  0  0  0  0  0  0
  191.4300  176.4830  137.4030 C   0  0  0  0  0  0  0  0  0  0  0  0
  188.9920  175.6180  139.8890 O   0  0  0  0  0  1  0  0  0  0  0  0
  190.2630  177.6310  138.9430 C   0  0  1  0  0  3  0  0  0  0  0  0
  188.9320  179.1010  137.6330 O   0  0  0  0  0  0  0  0  0  0  0  0
  189.0530  178.5020  138.6900 C   0  0  0  0  0  0  0  0  0  0  0  0
  187.9760  178.6380  139.7320 C   0  0  0  0  0  2  0  0  0  0  0  0
  186.7040  177.9290  139.2750 C   0  0  2  0  0  3  0  0  0  0  0  0
  185.6250  178.9740  139.0460 C   0  0  0  0  0  2  0  0  0  0  0  0
  185.5000  178.0300  140.2220 C   0  0  2  0  0  3  0  0  0  0  0  0
  185.3660  178.3000  142.5680 N   0  0  0  0  0  0  0  0  0  0  0  0
  185.8020  178.7460  141.4540 N   0  0  0  0  0  0  0  0  0  0  0  0
  186.6100  177.6210  147.0970 C   0  0  0  0  0  3  0  0  0  0  0  0
  187.9280  178.3140  145.2390 N   0  0  0  0  0  0  0  0  0  0  0  0
  185.5100  178.3670  145.0460 N   0  0  0  0  0  2  0  0  0  0  0  0
  189.0270  177.5320  147.2050 C   0  0  0  0  0  3  0  0  0  0  0  0
  185.5610  179.0310  143.7810 C   0  0  0  0  0  0  0  0  0  0  0  0
  186.7040  178.1200  145.7990 C   0  0  0  0  0  0  0  0  0  0  0  0
  185.8860  180.2440  143.7260 O   0  0  0  0  0  0  0  0  0  0  0  0
  187.7810  177.3310  147.8040 C   0  0  0  0  0  3  0  0  0  0  0  0
  189.0860  178.0340  145.9060 C   0  0  0  0  0  0  0  0  0  0  0  0
  189.3310  176.9550  142.6270 C   0  0  0  0  0  3  0  0  0  0  0  0
  191.5410  176.1470  144.1550 C   0  0  1  0  0  3  0  0  0  0  0  0
  190.3710  178.7880  143.8980 N   0  0  0  0  0  2  0  0  0  0  0  0
  190.3710  175.1790  143.9010 C   0  0  0  0  0  2  0  0  0  0  0  0
  191.7530  177.0160  143.0040 N   0  0  0  0  0  2  0  0  0  0  0  0
  191.3720  176.9790  145.4230 C   0  0  0  0  0  2  0  0  0  0  0  0
  190.4300  178.1810  145.2450 C   0  0  2  0  0  3  0  0  0  0  0  0
  189.2740  175.7840  143.1620 N   0  0  0  0  0  0  0  0  0  0  0  0
  190.5480  177.8280  142.7990 C   0  0  1  0  0  3  0  0  0  0  0  0
  190.6070  174.0940  137.8680 N   0  0  0  0  0  2  0  0  0  0  0  0
  189.4610  173.5030  134.3780 C   0  0  0  0  0  2  0  0  0  0  0  0
  188.4100  173.0540  137.7480 C   0  0  0  0  0  2  0  0  0  0  0  0
  189.4490  174.2960  135.6920 C   0  0  2  0  0  3  0  0  0  0  0  0
  189.6700  173.4410  136.9630 C   0  0  1  0  0  3  0  0  0  0  0  0
  187.4170  172.2370  136.9790 C   0  0  0  0  0  0  0  0  0  0  0  0
  188.4470  172.3710  134.3520 C   0  0  0  0  0  2  0  0  0  0  0  0
  186.2280  172.4970  137.1090 O   0  0  0  0  0  0  0  0  0  0  0  0
  188.8630  171.3400  135.2060 O   0  0  0  0  0  0  0  0  0  0  0  0
  187.8320  171.0510  136.1290 C   0  0  2  0  0  3  0  0  0  0  0  0
  185.2480  176.0040  137.3880 O   0  0  0  0  0  0  0  0  0  0  0  0
  188.3860  175.3650  135.7370 C   0  0  0  0  0  0  0  0  0  0  0  0
  186.0540  176.1480  136.2350 C   0  0  1  0  0  0  0  0  0  0  0  0
  183.5270  174.4330  136.8510 C   0  0  0  0  0  2  0  0  0  0  0  0
  187.1810  175.1250  136.2780 C   0  0  0  0  0  3  0  0  0  0  0  0
  187.8050  177.6890  135.2650 C   0  0  0  0  0  3  0  0  0  0  0  0
  188.6380  176.6580  135.0770 C   0  0  0  0  0  3  0  0  0  0  0  0
  184.9100  174.4950  134.6510 C   0  0  0  0  0  2  0  0  0  0  0  0
  183.8130  173.7920  135.4760 C   0  0  0  0  0  2  0  0  0  0  0  0
  185.1380  175.9850  135.0090 C   0  0  1  0  0  3  0  0  0  0  0  0
  183.8610  176.5410  135.5590 C   0  0  0  0  0  2  0  0  0  0  0  0
  186.6600  177.5690  136.2380 C   0  0  0  0  0  2  0  0  0  0  0  0
  183.9140  175.9190  136.9390 C   0  0  2  0  0  3  0  0  0  0  0  0
  186.7340  170.4620  135.4950 O   0  0  0  0  0  0  0  0  0  0  0  0
  187.0910  169.1240  135.3300 C   0  0  0  0  0  1  0  0  0  0  0  0
  192.3220  176.1870  136.2410 C   0  0  0  0  0  2  0  0  0  0  0  0
  193.7250  176.3960  136.5900 N   0  0  0  0  0  2  0  0  0  0  0  0
  194.3640  175.0910  136.6410 C   0  0  2  0  0  3  0  0  0  0  0  0
  194.4580  174.6210  138.0790 C   0  0  0  0  0  2  0  0  0  0  0  0
  195.5550  175.2410  138.6930 O   0  0  0  0  0  1  0  0  0  0  0  0
  195.7480  175.1490  136.0110 C   0  0  0  0  0  2  0  0  0  0  0  0
  196.2750  173.7690  135.7680 C   0  0  0  0  0  0  0  0  0  0  0  0
  195.7810  173.0490  134.8590 O   0  0  0  0  0  0  0  0  0  0  0  0
  197.3220  173.2890  136.5470 O   0  0  0  0  0  1  0  0  0  0  0  0
  1  5  1  0  0  0  0
  2  1  2  0  0  0  0
  3  6  1  0  0  0  0
  4  3  2  0  0  0  0
  4  2  1  0  0  0  0
  6  8  1  6  0  0  0
  6  1  1  0  0  0  0
  7  8  2  0  0  0  0
  8  9  1  0  0  0  0
 10  9  1  1  0  0  0
 10 12  1  0  0  0  0
 11 10  1  0  0  0  0
 11 12  1  0  0  0  0
 12 14  1  1  0  0  0
 13 19  1  0  0  0  0
 14 13  2  0  0  0  0
 15 22  2  0  0  0  0
 16 20  2  0  0  0  0
 16 23  1  0  0  0  0
 17 20  1  0  0  0  0
 18 22  1  0  0  0  0
 19 17  1  0  0  0  0
 20 15  1  0  0  0  0
 21 19  2  0  0  0  0
 23 18  2  0  0  0  0
 24 31  2  0  0  0  0
 25 27  1  6  0  0  0
 25 29  1  0  0  0  0
 26 30  1  0  0  0  0
 28 25  1  0  0  0  0
 30 29  1  0  0  0  0
 30 23  1  6  0  0  0
 31 27  1  0  0  0  0
 32 24  1  1  0  0  0
 32 28  1  0  0  0  0
 32 26  1  0  0  0  0
 33  2  1  0  0  0  0
 34 36  1  0  0  0  0
 36 44  1  1  0  0  0
 36 37  1  0  0  0  0
 37 35  1  0  0  0  0
 37 33  1  1  0  0  0
 38 40  2  0  0  0  0
 38 35  1  0  0  0  0
 39 34  1  0  0  0  0
 39 41  1  0  0  0  0
 41 42  1  0  0  0  0
 42 56  1  6  0  0  0
 42 38  1  0  0  0  0
 44 47  2  0  0  0  0
 45 54  1  6  0  0  0
 45 47  1  0  0  0  0
 45 43  1  0  0  0  0
 46 55  1  0  0  0  0
 48 54  1  0  0  0  0
 49 48  2  0  0  0  0
 49 44  1  0  0  0  0
 50 51  1  0  0  0  0
 51 46  1  0  0  0  0
 52 50  1  1  0  0  0
 52 53  1  0  0  0  0
 52 45  1  0  0  0  0
 55 53  1  6  0  0  0
 55 43  1  0  0  0  0
 57 56  1  0  0  0  0
 58 59  1  0  0  0  0
 58  4  1  0  0  0  0
 59 60  1  0  0  0  0
 60 63  1  1  0  0  0
 60 61  1  0  0  0  0
 61 62  1  0  0  0  0
 64 63  1  0  0  0  0
 64 66  1  0  0  0  0
 65 64  2  0  0  0  0
M  END
>  <MODEL>
9

>  <REMARK>
 VINA RESULT:      -3.9      3.131      7.797
  Name = 
  16 active torsions:
  status: ('A' for Active; 'I' for Inactive)
    1  A    between atoms: CA_3  and  C_12
    2  A    between atoms: CA_3  and  CB_35
    3  A    between atoms: CA_3  and  N_49
    4  A    between atoms: C_7  and  C_11
    5  A    between atoms: C_7  and  C_20
    6  A    between atoms: C_8  and  N_49
    7  A    between atoms: C_8  and  C_51
    8  A    between atoms: O_13  and  C_60
    9  A    between atoms: C_16  and  C_17
   10  A    between atoms: C_18  and  N_52
   11  A    between atoms: C_20  and  C_66
   12  A    between atoms: C_21  and  N_41
   13  A    between atoms: CG_24  and  CB_35
   14  A    between atoms: C_42  and  N_52
   15  A    between atoms: C_48  and  N_50
   16  A    between atoms: C_61  and  C_63
                            x       y       z     vdW  Elec       q    Type
                         _______ _______ _______ _____ _____    ______ ____

>  <TORSDO>
F 16

$$$$
