=
 OpenBabel10222421553D

 40 45  0  0  1  0  0  0  0  0999 V2000
  190.1640  177.7010  140.1010 C   0  0  0  0  0  0  0  0  0  0  0  0
  189.0520  177.8730  140.8800 C   0  0  0  0  0  0  0  0  0  0  0  0
  189.8840  177.9290  138.7700 O   0  0  0  0  0  0  0  0  0  0  0  0
  190.3450  177.3480  142.8650 C   0  0  0  0  0  0  0  0  0  0  0  0
  191.4740  177.1670  142.0360 C   0  0  0  0  0  3  0  0  0  0  0  0
  188.5170  178.2880  138.6020 C   0  0  0  0  0  3  0  0  0  0  0  0
  189.1020  177.7100  142.2800 C   0  0  0  0  0  0  0  0  0  0  0  0
  187.9080  178.2800  140.0160 C   0  0  0  0  0  3  0  0  0  0  0  0
  191.4020  177.3420  140.6450 C   0  0  0  0  0  0  0  0  0  0  0  0
  189.3500  177.7770  146.5280 C   0  0  0  0  0  3  0  0  0  0  0  0
  191.9500  176.0660  146.1100 C   0  0  0  0  0  3  0  0  0  0  0  0
  191.4030  176.3860  147.2750 C   0  0  0  0  0  3  0  0  0  0  0  0
  190.2330  177.1780  147.4750 N   0  0  0  0  0  2  0  0  0  0  0  0
  191.5300  176.4280  144.7540 C   0  0  0  0  0  3  0  0  0  0  0  0
  189.4650  177.7600  145.2030 C   0  0  0  0  0  3  0  0  0  0  0  0
  190.4900  177.1560  144.3320 C   0  0  0  0  0  0  0  0  0  0  0  0
  192.6100  177.1510  139.8160 C   0  0  0  0  0  0  0  0  0  0  0  0
  193.7270  177.5640  140.2340 O   0  0  0  0  0  0  0  0  0  0  0  0
  192.5260  176.5240  138.5340 N   0  0  0  0  0  2  0  0  0  0  0  0
  196.5510  173.2460  135.1920 N   0  0  0  0  0  1  0  0  0  0  0  0
  195.1560  174.9480  136.2460 C   0  0  0  0  0  2  0  0  0  0  0  0
  193.6720  176.3320  137.7510 N   0  0  0  0  0  2  0  0  0  0  0  0
  194.7370  172.4140  136.6130 C   0  0  0  0  0  2  0  0  0  0  0  0
  193.9240  175.0960  137.0880 C   0  0  0  0  0  0  0  0  0  0  0  0
  193.0710  174.1190  137.1640 N   0  0  0  0  0  0  0  0  0  0  0  0
  195.7600  173.5410  136.3740 C   0  0  1  0  0  3  0  0  0  0  0  0
  193.2920  172.8760  136.4300 C   0  0  0  0  0  2  0  0  0  0  0  0
  187.9910  177.9140  143.1090 O   0  0  0  0  0  0  0  0  0  0  0  0
  186.7060  177.3340  142.9110 C   0  0  0  0  0  2  0  0  0  0  0  0
  182.8610  179.4940  144.3000 C   0  0  0  0  0  2  0  0  0  0  0  0
  184.6070  178.1920  141.8250 C   0  0  0  0  0  2  0  0  0  0  0  0
  184.8760  178.3310  144.2800 C   0  0  1  0  0  3  0  0  0  0  0  0
  180.9260  178.0640  141.5260 O   0  0  0  0  0  0  0  0  0  0  0  0
  185.6270  178.4080  142.9670 C   0  0  1  0  0  3  0  0  0  0  0  0
  180.3090  178.1220  143.8140 C   0  0  0  0  0  1  0  0  0  0  0  0
  183.4580  179.2240  141.8050 C   0  0  0  0  0  2  0  0  0  0  0  0
  185.2260  179.1730  145.4830 C   0  0  0  0  0  2  0  0  0  0  0  0
  182.5170  179.0470  142.9320 N   0  0  0  0  0  0  0  0  0  0  0  0
  181.2540  178.4060  142.6940 C   0  0  0  0  0  0  0  0  0  0  0  0
  184.3500  179.7510  144.3940 C   0  0  2  0  0  3  0  0  0  0  0  0
  1  9  2  0  0  0  0
  1  2  1  0  0  0  0
  2  7  2  0  0  0  0
  3  1  1  0  0  0  0
  4 16  1  0  0  0  0
  5  4  2  0  0  0  0
  6  3  1  0  0  0  0
  6  8  2  0  0  0  0
  7  4  1  0  0  0  0
  7 28  1  0  0  0  0
  8  2  1  0  0  0  0
  9  5  1  0  0  0  0
 10 13  1  0  0  0  0
 11 12  2  0  0  0  0
 12 13  1  0  0  0  0
 14 11  1  0  0  0  0
 15 10  2  0  0  0  0
 16 14  2  0  0  0  0
 16 15  1  0  0  0  0
 17 18  2  0  0  0  0
 17  9  1  0  0  0  0
 19 17  1  0  0  0  0
 21 26  1  0  0  0  0
 21 24  1  0  0  0  0
 22 19  1  0  0  0  0
 24 25  2  0  0  0  0
 24 22  1  0  0  0  0
 26 20  1  6  0  0  0
 26 23  1  0  0  0  0
 27 23  1  0  0  0  0
 27 25  1  0  0  0  0
 29 28  1  0  0  0  0
 31 34  1  0  0  0  0
 32 40  1  0  0  0  0
 32 37  1  1  0  0  0
 33 39  2  0  0  0  0
 34 29  1  1  0  0  0
 34 32  1  0  0  0  0
 36 31  1  0  0  0  0
 36 38  1  0  0  0  0
 38 30  1  0  0  0  0
 39 38  1  0  0  0  0
 39 35  1  0  0  0  0
 40 30  1  1  0  0  0
 40 37  1  0  0  0  0
M  END
>  <MODEL>
1

>  <REMARK>
 VINA RESULT:     -10.2      0.000      0.000
  Name = 
  6 active torsions:
  status: ('A' for Active; 'I' for Inactive)
    1  A    between atoms: C_8  and  C_34
    2  A    between atoms: C_9  and  O_18
    3  A    between atoms: C_9  and  C_21
    4  A    between atoms: N_10  and  N_39
    5  A    between atoms: C_16  and  C_37
    6  A    between atoms: O_18  and  C_29
                            x       y       z     vdW  Elec       q    Type
                         _______ _______ _______ _____ _____    ______ ____

>  <TORSDO>
F 6

$$$$
=
 OpenBabel10222421553D

 40 45  0  0  1  0  0  0  0  0999 V2000
  189.3320  177.2550  138.3710 C   0  0  0  0  0  0  0  0  0  0  0  0
  188.5240  177.8310  139.3110 C   0  0  0  0  0  0  0  0  0  0  0  0
  188.7680  177.3230  137.1140 O   0  0  0  0  0  0  0  0  0  0  0  0
  190.1520  177.3310  141.0380 C   0  0  0  0  0  0  0  0  0  0  0  0
  190.9630  176.7340  140.0470 C   0  0  0  0  0  3  0  0  0  0  0  0
  187.5090  177.9840  137.1680 C   0  0  0  0  0  3  0  0  0  0  0  0
  188.9030  177.8950  140.6680 C   0  0  0  0  0  0  0  0  0  0  0  0
  187.3020  178.3660  138.6450 C   0  0  0  0  0  3  0  0  0  0  0  0
  190.5680  176.6880  138.7010 C   0  0  0  0  0  0  0  0  0  0  0  0
  191.2400  179.0000  144.2980 C   0  0  0  0  0  3  0  0  0  0  0  0
  191.3260  175.8620  144.3870 C   0  0  0  0  0  3  0  0  0  0  0  0
  191.6750  176.6830  145.3690 C   0  0  0  0  0  3  0  0  0  0  0  0
  191.6550  178.1080  145.3310 N   0  0  0  0  0  2  0  0  0  0  0  0
  190.8530  176.1760  143.0370 C   0  0  0  0  0  3  0  0  0  0  0  0
  190.8070  178.6720  143.0830 C   0  0  0  0  0  3  0  0  0  0  0  0
  190.6340  177.3540  142.4440 C   0  0  0  0  0  0  0  0  0  0  0  0
  191.4510  176.0610  137.6960 C   0  0  0  0  0  0  0  0  0  0  0  0
  191.0300  175.0840  137.0160 O   0  0  0  0  0  0  0  0  0  0  0  0
  192.7860  176.5320  137.5010 N   0  0  0  0  0  2  0  0  0  0  0  0
  197.7920  173.5130  135.5140 N   0  0  0  0  0  1  0  0  0  0  0  0
  195.6040  174.5410  135.8480 C   0  0  0  0  0  2  0  0  0  0  0  0
  193.6220  175.9450  136.5400 N   0  0  0  0  0  2  0  0  0  0  0  0
  197.3790  174.4510  137.7380 C   0  0  0  0  0  2  0  0  0  0  0  0
  194.7530  175.1630  136.9140 C   0  0  0  0  0  0  0  0  0  0  0  0
  195.0200  174.9420  138.1660 N   0  0  0  0  0  0  0  0  0  0  0  0
  197.0930  174.5660  136.2280 C   0  0  1  0  0  3  0  0  0  0  0  0
  196.1370  174.0850  138.5510 C   0  0  0  0  0  2  0  0  0  0  0  0
  188.1140  178.5090  141.6500 O   0  0  0  0  0  0  0  0  0  0  0  0
  186.6910  178.5400  141.6540 C   0  0  0  0  0  2  0  0  0  0  0  0
  185.4840  178.4930  146.1170 C   0  0  0  0  0  2  0  0  0  0  0  0
  187.2390  177.1470  143.6730 C   0  0  0  0  0  2  0  0  0  0  0  0
  185.7750  179.1270  143.8980 C   0  0  1  0  0  3  0  0  0  0  0  0
  188.6710  176.9390  147.0740 O   0  0  0  0  0  0  0  0  0  0  0  0
  186.1530  177.9920  142.9690 C   0  0  1  0  0  3  0  0  0  0  0  0
  187.6400  178.8190  148.0860 C   0  0  0  0  0  1  0  0  0  0  0  0
  186.7970  176.5570  145.0300 C   0  0  0  0  0  2  0  0  0  0  0  0
  184.3720  179.6760  144.0040 C   0  0  0  0  0  2  0  0  0  0  0  0
  186.6550  177.5900  146.0780 N   0  0  0  0  0  0  0  0  0  0  0  0
  187.6910  177.7330  147.0630 C   0  0  0  0  0  0  0  0  0  0  0  0
  184.7560  178.4420  144.7900 C   0  0  2  0  0  3  0  0  0  0  0  0
  1  9  2  0  0  0  0
  1  2  1  0  0  0  0
  2  7  2  0  0  0  0
  3  6  1  0  0  0  0
  3  1  1  0  0  0  0
  4 16  1  0  0  0  0
  5  4  2  0  0  0  0
  6  8  2  0  0  0  0
  7  4  1  0  0  0  0
  7 28  1  0  0  0  0
  8  2  1  0  0  0  0
  9  5  1  0  0  0  0
 10 13  1  0  0  0  0
 11 12  2  0  0  0  0
 13 12  1  0  0  0  0
 14 11  1  0  0  0  0
 15 10  2  0  0  0  0
 16 14  2  0  0  0  0
 16 15  1  0  0  0  0
 17  9  1  0  0  0  0
 18 17  2  0  0  0  0
 19 17  1  0  0  0  0
 21 26  1  0  0  0  0
 21 24  1  0  0  0  0
 22 24  1  0  0  0  0
 22 19  1  0  0  0  0
 23 27  1  0  0  0  0
 24 25  2  0  0  0  0
 25 27  1  0  0  0  0
 26 20  1  6  0  0  0
 26 23  1  0  0  0  0
 28 29  1  0  0  0  0
 31 36  1  0  0  0  0
 32 37  1  6  0  0  0
 32 40  1  0  0  0  0
 34 29  1  6  0  0  0
 34 31  1  0  0  0  0
 34 32  1  0  0  0  0
 36 38  1  0  0  0  0
 38 30  1  0  0  0  0
 38 39  1  0  0  0  0
 39 33  2  0  0  0  0
 39 35  1  0  0  0  0
 40 37  1  1  0  0  0
 40 30  1  0  0  0  0
M  END
>  <MODEL>
2

>  <REMARK>
 VINA RESULT:     -10.2      2.324      3.394
  Name = 
  6 active torsions:
  status: ('A' for Active; 'I' for Inactive)
    1  A    between atoms: C_8  and  C_34
    2  A    between atoms: C_9  and  O_18
    3  A    between atoms: C_9  and  C_21
    4  A    between atoms: N_10  and  N_39
    5  A    between atoms: C_16  and  C_37
    6  A    between atoms: O_18  and  C_29
                            x       y       z     vdW  Elec       q    Type
                         _______ _______ _______ _____ _____    ______ ____

>  <TORSDO>
F 6

$$$$
=
 OpenBabel10222421553D

 40 45  0  0  1  0  0  0  0  0999 V2000
  189.6920  177.1510  138.3940 C   0  0  0  0  0  0  0  0  0  0  0  0
  188.8170  177.6600  139.3140 C   0  0  0  0  0  0  0  0  0  0  0  0
  189.1720  177.2140  137.1180 O   0  0  0  0  0  0  0  0  0  0  0  0
  190.4060  177.2140  141.0920 C   0  0  0  0  0  0  0  0  0  0  0  0
  191.2860  176.6850  140.1220 C   0  0  0  0  0  3  0  0  0  0  0  0
  187.8760  177.8030  137.1360 C   0  0  0  0  0  3  0  0  0  0  0  0
  189.1410  177.7150  140.6850 C   0  0  0  0  0  0  0  0  0  0  0  0
  187.5930  178.1400  138.6120 C   0  0  0  0  0  3  0  0  0  0  0  0
  190.9450  176.6470  138.7610 C   0  0  0  0  0  0  0  0  0  0  0  0
  191.4940  178.8710  144.3580 C   0  0  0  0  0  3  0  0  0  0  0  0
  191.3270  175.7390  144.5170 C   0  0  0  0  0  3  0  0  0  0  0  0
  191.7010  176.5530  145.4950 C   0  0  0  0  0  3  0  0  0  0  0  0
  191.7960  177.9750  145.4260 N   0  0  0  0  0  2  0  0  0  0  0  0
  190.9330  176.0560  143.1410 C   0  0  0  0  0  3  0  0  0  0  0  0
  191.0840  178.5490  143.1340 C   0  0  0  0  0  3  0  0  0  0  0  0
  190.8320  177.2340  142.5160 C   0  0  0  0  0  0  0  0  0  0  0  0
  191.8990  176.0930  137.7780 C   0  0  0  0  0  0  0  0  0  0  0  0
  191.5680  175.0960  137.0780 O   0  0  0  0  0  0  0  0  0  0  0  0
  193.2040  176.6570  137.6270 N   0  0  0  0  0  2  0  0  0  0  0  0
  198.2400  173.6000  135.7830 N   0  0  0  0  0  1  0  0  0  0  0  0
  196.0810  174.7110  136.0260 C   0  0  0  0  0  2  0  0  0  0  0  0
  194.1060  176.1400  136.6890 N   0  0  0  0  0  2  0  0  0  0  0  0
  197.6410  174.2910  138.0560 C   0  0  0  0  0  2  0  0  0  0  0  0
  195.1540  175.2520  137.0720 C   0  0  0  0  0  0  0  0  0  0  0  0
  195.2760  174.8690  138.3070 N   0  0  0  0  0  0  0  0  0  0  0  0
  197.5210  174.6010  136.5510 C   0  0  1  0  0  3  0  0  0  0  0  0
  196.3050  173.9060  138.6910 C   0  0  0  0  0  2  0  0  0  0  0  0
  188.2820  178.2620  141.6480 O   0  0  0  0  0  0  0  0  0  0  0  0
  187.4690  177.5080  142.5410 C   0  0  0  0  0  2  0  0  0  0  0  0
  183.9730  178.7590  145.2970 C   0  0  0  0  0  2  0  0  0  0  0  0
  185.4680  179.0200  142.3700 C   0  0  0  0  0  2  0  0  0  0  0  0
  185.8210  177.6620  144.4060 C   0  0  1  0  0  3  0  0  0  0  0  0
  181.7930  179.4140  142.4150 O   0  0  0  0  0  0  0  0  0  0  0  0
  186.5390  178.4310  143.3170 C   0  0  1  0  0  3  0  0  0  0  0  0
  181.2540  178.1660  144.3570 C   0  0  0  0  0  1  0  0  0  0  0  0
  184.4600  179.9610  143.0660 C   0  0  0  0  0  2  0  0  0  0  0  0
  186.3110  177.5980  145.8340 C   0  0  0  0  0  2  0  0  0  0  0  0
  183.5370  179.2370  143.9660 N   0  0  0  0  0  0  0  0  0  0  0  0
  182.1960  178.9710  143.5250 C   0  0  0  0  0  0  0  0  0  0  0  0
  185.4850  178.7810  145.3760 C   0  0  2  0  0  3  0  0  0  0  0  0
  1  9  2  0  0  0  0
  1  2  1  0  0  0  0
  2  7  2  0  0  0  0
  3  6  1  0  0  0  0
  3  1  1  0  0  0  0
  4 16  1  0  0  0  0
  5  4  2  0  0  0  0
  6  8  2  0  0  0  0
  7  4  1  0  0  0  0
  7 28  1  0  0  0  0
  8  2  1  0  0  0  0
  9  5  1  0  0  0  0
 10 13  1  0  0  0  0
 11 12  2  0  0  0  0
 13 12  1  0  0  0  0
 14 11  1  0  0  0  0
 15 10  2  0  0  0  0
 16 15  1  0  0  0  0
 16 14  2  0  0  0  0
 17  9  1  0  0  0  0
 18 17  2  0  0  0  0
 19 17  1  0  0  0  0
 21 26  1  0  0  0  0
 21 24  1  0  0  0  0
 22 24  1  0  0  0  0
 22 19  1  0  0  0  0
 23 27  1  0  0  0  0
 24 25  2  0  0  0  0
 25 27  1  0  0  0  0
 26 20  1  6  0  0  0
 26 23  1  0  0  0  0
 28 29  1  0  0  0  0
 31 36  1  0  0  0  0
 31 34  1  0  0  0  0
 32 40  1  0  0  0  0
 32 37  1  1  0  0  0
 33 39  2  0  0  0  0
 34 29  1  6  0  0  0
 34 32  1  0  0  0  0
 36 38  1  0  0  0  0
 38 30  1  0  0  0  0
 39 38  1  0  0  0  0
 39 35  1  0  0  0  0
 40 30  1  1  0  0  0
 40 37  1  0  0  0  0
M  END
>  <MODEL>
3

>  <REMARK>
 VINA RESULT:      -9.7      1.708      2.064
  Name = 
  6 active torsions:
  status: ('A' for Active; 'I' for Inactive)
    1  A    between atoms: C_8  and  C_34
    2  A    between atoms: C_9  and  O_18
    3  A    between atoms: C_9  and  C_21
    4  A    between atoms: N_10  and  N_39
    5  A    between atoms: C_16  and  C_37
    6  A    between atoms: O_18  and  C_29
                            x       y       z     vdW  Elec       q    Type
                         _______ _______ _______ _____ _____    ______ ____

>  <TORSDO>
F 6

$$$$
=
 OpenBabel10222421553D

 40 45  0  0  1  0  0  0  0  0999 V2000
  189.5630  177.0830  137.7840 C   0  0  0  0  0  0  0  0  0  0  0  0
  188.6340  177.8860  138.3870 C   0  0  0  0  0  0  0  0  0  0  0  0
  189.4100  177.0820  136.4130 O   0  0  0  0  0  0  0  0  0  0  0  0
  189.5710  177.3590  140.5610 C   0  0  0  0  0  0  0  0  0  0  0  0
  190.5120  176.5290  139.9130 C   0  0  0  0  0  3  0  0  0  0  0  0
  188.3330  177.9290  136.0300 C   0  0  0  0  0  3  0  0  0  0  0  0
  188.6080  178.0570  139.7860 C   0  0  0  0  0  0  0  0  0  0  0  0
  187.7790  178.5150  137.3410 C   0  0  0  0  0  3  0  0  0  0  0  0
  190.5240  176.3790  138.5170 C   0  0  0  0  0  0  0  0  0  0  0  0
  188.5350  176.5120  144.1400 C   0  0  0  0  0  3  0  0  0  0  0  0
  190.7660  178.7150  143.9510 C   0  0  0  0  0  3  0  0  0  0  0  0
  190.2110  178.2560  145.0650 C   0  0  0  0  0  3  0  0  0  0  0  0
  189.1860  177.2690  145.1590 N   0  0  0  0  0  2  0  0  0  0  0  0
  190.4850  178.3590  142.5580 C   0  0  0  0  0  3  0  0  0  0  0  0
  188.7270  176.6060  142.8270 C   0  0  0  0  0  3  0  0  0  0  0  0
  189.6190  177.4810  142.0420 C   0  0  0  0  0  0  0  0  0  0  0  0
  191.5320  175.5070  137.8790 C   0  0  0  0  0  0  0  0  0  0  0  0
  191.2840  174.2800  137.7180 O   0  0  0  0  0  0  0  0  0  0  0  0
  192.7950  176.0310  137.4640 N   0  0  0  0  0  2  0  0  0  0  0  0
  198.1570  173.0000  137.0500 N   0  0  0  0  0  1  0  0  0  0  0  0
  195.8790  173.8520  136.8530 C   0  0  0  0  0  2  0  0  0  0  0  0
  193.7470  175.2080  136.8490 N   0  0  0  0  0  2  0  0  0  0  0  0
  197.4940  174.6750  138.7090 C   0  0  0  0  0  2  0  0  0  0  0  0
  194.9000  174.7470  137.5510 C   0  0  0  0  0  0  0  0  0  0  0  0
  195.0780  175.0530  138.8000 N   0  0  0  0  0  0  0  0  0  0  0  0
  197.3250  174.1710  137.2630 C   0  0  1  0  0  3  0  0  0  0  0  0
  196.2210  174.5270  139.5420 C   0  0  0  0  0  2  0  0  0  0  0  0
  187.6930  178.9000  140.4320 O   0  0  0  0  0  0  0  0  0  0  0  0
  186.8510  178.5160  141.5150 C   0  0  0  0  0  2  0  0  0  0  0  0
  182.2290  178.4330  141.4470 C   0  0  0  0  0  2  0  0  0  0  0  0
  185.0500  178.8410  139.7910 C   0  0  0  0  0  2  0  0  0  0  0  0
  184.4490  178.2030  142.1040 C   0  0  1  0  0  3  0  0  0  0  0  0
  182.1890  177.4480  137.9100 O   0  0  0  0  0  0  0  0  0  0  0  0
  185.4300  179.0100  141.2800 C   0  0  1  0  0  3  0  0  0  0  0  0
  180.9540  176.4650  139.6780 C   0  0  0  0  0  1  0  0  0  0  0  0
  183.6150  179.2990  139.4510 C   0  0  0  0  0  2  0  0  0  0  0  0
  183.9580  178.6360  143.4650 C   0  0  0  0  0  2  0  0  0  0  0  0
  182.5840  178.3990  140.0120 N   0  0  0  0  0  0  0  0  0  0  0  0
  181.9340  177.4560  139.1450 C   0  0  0  0  0  0  0  0  0  0  0  0
  183.2950  179.1820  142.2200 C   0  0  2  0  0  3  0  0  0  0  0  0
  1  2  2  0  0  0  0
  1  9  1  0  0  0  0
  2  7  1  0  0  0  0
  3  1  1  0  0  0  0
  4 16  1  0  0  0  0
  5  4  1  0  0  0  0
  6  3  1  0  0  0  0
  6  8  2  0  0  0  0
  7 28  1  0  0  0  0
  7  4  2  0  0  0  0
  8  2  1  0  0  0  0
  9  5  2  0  0  0  0
 10 13  1  0  0  0  0
 11 12  2  0  0  0  0
 12 13  1  0  0  0  0
 14 11  1  0  0  0  0
 15 10  2  0  0  0  0
 16 14  2  0  0  0  0
 16 15  1  0  0  0  0
 17  9  1  0  0  0  0
 18 17  2  0  0  0  0
 19 17  1  0  0  0  0
 21 26  1  0  0  0  0
 21 24  1  0  0  0  0
 22 19  1  0  0  0  0
 22 24  1  0  0  0  0
 23 27  1  0  0  0  0
 24 25  2  0  0  0  0
 25 27  1  0  0  0  0
 26 20  1  1  0  0  0
 26 23  1  0  0  0  0
 28 29  1  0  0  0  0
 31 34  1  0  0  0  0
 32 40  1  0  0  0  0
 32 37  1  1  0  0  0
 33 39  2  0  0  0  0
 34 29  1  6  0  0  0
 34 32  1  0  0  0  0
 36 31  1  0  0  0  0
 36 38  1  0  0  0  0
 38 30  1  0  0  0  0
 39 35  1  0  0  0  0
 39 38  1  0  0  0  0
 40 30  1  1  0  0  0
 40 37  1  0  0  0  0
M  END
>  <MODEL>
4

>  <REMARK>
 VINA RESULT:      -9.7      2.136      2.834
  Name = 
  6 active torsions:
  status: ('A' for Active; 'I' for Inactive)
    1  A    between atoms: C_8  and  C_34
    2  A    between atoms: C_9  and  O_18
    3  A    between atoms: C_9  and  C_21
    4  A    between atoms: N_10  and  N_39
    5  A    between atoms: C_16  and  C_37
    6  A    between atoms: O_18  and  C_29
                            x       y       z     vdW  Elec       q    Type
                         _______ _______ _______ _____ _____    ______ ____

>  <TORSDO>
F 6

$$$$
=
 OpenBabel10222421553D

 40 45  0  0  1  0  0  0  0  0999 V2000
  188.9480  177.3360  139.9820 C   0  0  0  0  0  0  0  0  0  0  0  0
  188.8240  177.4070  138.6220 C   0  0  0  0  0  0  0  0  0  0  0  0
  187.8700  177.9180  140.6160 O   0  0  0  0  0  0  0  0  0  0  0  0
  190.9330  176.2400  138.3540 C   0  0  0  0  0  0  0  0  0  0  0  0
  191.0410  176.1890  139.7620 C   0  0  0  0  0  3  0  0  0  0  0  0
  186.9380  178.4130  139.6610 C   0  0  0  0  0  3  0  0  0  0  0  0
  189.8010  176.8610  137.7640 C   0  0  0  0  0  0  0  0  0  0  0  0
  187.5350  178.0750  138.2830 C   0  0  0  0  0  3  0  0  0  0  0  0
  190.0520  176.7340  140.5960 C   0  0  0  0  0  0  0  0  0  0  0  0
  194.1080  176.2930  136.2300 C   0  0  0  0  0  3  0  0  0  0  0  0
  192.8640  173.4310  136.5830 C   0  0  0  0  0  3  0  0  0  0  0  0
  193.9460  173.7320  135.8770 C   0  0  0  0  0  3  0  0  0  0  0  0
  194.5070  175.0310  135.6970 N   0  0  0  0  0  0  0  0  0  0  0  0
  191.9710  174.3130  137.3380 C   0  0  0  0  0  3  0  0  0  0  0  0
  193.0550  176.5380  137.0050 C   0  0  0  0  0  2  0  0  0  0  0  0
  192.0120  175.6360  137.5280 C   0  0  0  0  0  0  0  0  0  0  0  0
  190.2000  176.6520  142.0640 C   0  0  0  0  0  0  0  0  0  0  0  0
  190.4310  175.5360  142.6080 O   0  0  0  0  0  0  0  0  0  0  0  0
  190.0610  177.8170  142.8790 N   0  0  0  0  0  2  0  0  0  0  0  0
  188.1060  177.6880  148.7340 N   0  0  0  0  0  1  0  0  0  0  0  0
  189.3060  177.5070  146.6160 C   0  0  0  0  0  2  0  0  0  0  0  0
  190.2120  177.7430  144.2700 N   0  0  0  0  0  2  0  0  0  0  0  0
  186.8180  178.2360  146.7240 C   0  0  0  0  0  2  0  0  0  0  0  0
  189.0880  177.6020  145.1360 C   0  0  0  0  0  0  0  0  0  0  0  0
  187.8890  177.5000  144.6500 N   0  0  0  0  0  0  0  0  0  0  0  0
  188.2050  178.2430  147.3950 C   0  0  1  0  0  3  0  0  0  0  0  0
  186.7430  177.2850  145.5290 C   0  0  0  0  0  2  0  0  0  0  0  0
  189.6860  176.8860  136.3680 O   0  0  0  0  0  0  0  0  0  0  0  0
  188.6740  176.2210  135.6190 C   0  0  0  0  0  2  0  0  0  0  0  0
  187.7330  171.6960  135.4660 C   0  0  0  0  0  2  0  0  0  0  0  0
  187.1170  174.6440  136.8070 C   0  0  0  0  0  2  0  0  0  0  0  0
  188.5470  173.8180  134.9660 C   0  0  1  0  0  3  0  0  0  0  0  0
  184.2980  172.2600  136.6330 O   0  0  0  0  0  0  0  0  0  0  0  0
  188.4950  174.7940  136.1220 C   0  0  1  0  0  3  0  0  0  0  0  0
  184.9790  170.9270  134.7950 C   0  0  0  0  0  1  0  0  0  0  0  0
  186.8290  173.2230  137.3390 C   0  0  0  0  0  2  0  0  0  0  0  0
  189.8060  173.0970  134.5480 C   0  0  0  0  0  2  0  0  0  0  0  0
  186.6070  172.2450  136.2520 N   0  0  0  0  0  0  0  0  0  0  0  0
  185.2640  171.8410  135.9410 C   0  0  0  0  0  0  0  0  0  0  0  0
  188.9680  172.5470  135.6810 C   0  0  2  0  0  3  0  0  0  0  0  0
  1  9  1  0  0  0  0
  1  3  1  0  0  0  0
  2  1  2  0  0  0  0
  4  5  1  0  0  0  0
  5  9  2  0  0  0  0
  6  3  1  0  0  0  0
  7  4  2  0  0  0  0
  7  2  1  0  0  0  0
  8  2  1  0  0  0  0
  8  6  2  0  0  0  0
  9 17  1  0  0  0  0
 10 15  1  0  0  0  0
 11 14  1  0  0  0  0
 12 11  2  0  0  0  0
 13 12  1  0  0  0  0
 13 10  2  0  0  0  0
 14 16  2  0  0  0  0
 15 16  1  0  0  0  0
 16  4  1  0  0  0  0
 17 18  2  0  0  0  0
 17 19  1  0  0  0  0
 19 22  1  0  0  0  0
 21 26  1  0  0  0  0
 22 24  1  0  0  0  0
 23 26  1  0  0  0  0
 24 21  1  0  0  0  0
 25 24  2  0  0  0  0
 25 27  1  0  0  0  0
 26 20  1  1  0  0  0
 27 23  1  0  0  0  0
 28  7  1  0  0  0  0
 29 28  1  0  0  0  0
 30 40  1  0  0  0  0
 30 38  1  0  0  0  0
 31 36  1  0  0  0  0
 32 37  1  6  0  0  0
 32 40  1  0  0  0  0
 32 34  1  0  0  0  0
 34 29  1  6  0  0  0
 34 31  1  0  0  0  0
 35 39  1  0  0  0  0
 38 36  1  0  0  0  0
 39 38  1  0  0  0  0
 39 33  2  0  0  0  0
 40 37  1  6  0  0  0
M  END
>  <MODEL>
5

>  <REMARK>
 VINA RESULT:      -9.4      3.718      9.225
  Name = 
  6 active torsions:
  status: ('A' for Active; 'I' for Inactive)
    1  A    between atoms: C_8  and  C_34
    2  A    between atoms: C_9  and  O_18
    3  A    between atoms: C_9  and  C_21
    4  A    between atoms: N_10  and  N_39
    5  A    between atoms: C_16  and  C_37
    6  A    between atoms: O_18  and  C_29
                            x       y       z     vdW  Elec       q    Type
                         _______ _______ _______ _____ _____    ______ ____

>  <TORSDO>
F 6

$$$$
=
 OpenBabel10222421553D

 40 45  0  0  1  0  0  0  0  0999 V2000
  186.5680  178.3740  140.1520 C   0  0  0  0  0  0  0  0  0  0  0  0
  186.0420  178.3090  138.8910 C   0  0  0  0  0  0  0  0  0  0  0  0
  185.6570  178.8900  141.0500 O   0  0  0  0  0  0  0  0  0  0  0  0
  188.1130  177.3570  138.0610 C   0  0  0  0  0  0  0  0  0  0  0  0
  188.6340  177.4450  139.3710 C   0  0  0  0  0  3  0  0  0  0  0  0
  184.4300  179.1950  140.3960 C   0  0  0  0  0  3  0  0  0  0  0  0
  186.7870  177.7980  137.8090 C   0  0  0  0  0  0  0  0  0  0  0  0
  184.6360  178.8010  138.9220 C   0  0  0  0  0  3  0  0  0  0  0  0
  187.8720  177.9520  140.4350 C   0  0  0  0  0  0  0  0  0  0  0  0
  189.8650  177.3970  134.6660 C   0  0  0  0  0  3  0  0  0  0  0  0
  190.3780  174.7820  136.3300 C   0  0  0  0  0  3  0  0  0  0  0  0
  190.8450  175.0420  135.1150 C   0  0  0  0  0  3  0  0  0  0  0  0
  190.6020  176.2180  134.3460 N   0  0  0  0  0  0  0  0  0  0  0  0
  189.5080  175.5950  137.1850 C   0  0  0  0  0  3  0  0  0  0  0  0
  189.1820  177.6350  135.7830 C   0  0  0  0  0  2  0  0  0  0  0  0
  188.9710  176.8020  136.9810 C   0  0  0  0  0  0  0  0  0  0  0  0
  188.4540  178.0180  141.7920 C   0  0  0  0  0  0  0  0  0  0  0  0
  189.1300  179.0270  142.1340 O   0  0  0  0  0  0  0  0  0  0  0  0
  188.2800  176.9400  142.7150 N   0  0  0  0  0  2  0  0  0  0  0  0
  188.1950  178.0790  148.7820 N   0  0  0  0  0  1  0  0  0  0  0  0
  188.6330  177.3190  146.5050 C   0  0  0  0  0  2  0  0  0  0  0  0
  188.8220  177.0060  144.0050 N   0  0  0  0  0  2  0  0  0  0  0  0
  186.5150  178.6900  147.1080 C   0  0  0  0  0  2  0  0  0  0  0  0
  188.0070  177.2790  145.1430 C   0  0  0  0  0  0  0  0  0  0  0  0
  186.7250  177.4390  145.0150 N   0  0  0  0  0  0  0  0  0  0  0  0
  188.0050  178.4140  147.3820 C   0  0  1  0  0  3  0  0  0  0  0  0
  185.8780  177.6500  146.1860 C   0  0  0  0  0  2  0  0  0  0  0  0
  186.2660  177.6840  136.5120 O   0  0  0  0  0  0  0  0  0  0  0  0
  185.2720  176.7480  136.1110 C   0  0  0  0  0  2  0  0  0  0  0  0
  185.9690  172.2150  135.5230 C   0  0  0  0  0  2  0  0  0  0  0  0
  184.6600  174.6380  137.3340 C   0  0  0  0  0  2  0  0  0  0  0  0
  185.8590  174.5120  135.1750 C   0  0  1  0  0  3  0  0  0  0  0  0
  182.8900  171.3940  137.3480 O   0  0  0  0  0  0  0  0  0  0  0  0
  185.7170  175.3290  136.4420 C   0  0  1  0  0  3  0  0  0  0  0  0
  183.5840  170.5210  135.2560 C   0  0  0  0  0  1  0  0  0  0  0  0
  185.0110  173.1830  137.7140 C   0  0  0  0  0  2  0  0  0  0  0  0
  187.1700  174.3350  134.4470 C   0  0  0  0  0  2  0  0  0  0  0  0
  184.9180  172.2580  136.5630 N   0  0  0  0  0  0  0  0  0  0  0  0
  183.7690  171.4050  136.4450 C   0  0  0  0  0  0  0  0  0  0  0  0
  186.8420  173.4480  135.6270 C   0  0  2  0  0  3  0  0  0  0  0  0
  1  9  1  0  0  0  0
  1  3  1  0  0  0  0
  2  8  1  0  0  0  0
  2  1  2  0  0  0  0
  4  5  1  0  0  0  0
  5  9  2  0  0  0  0
  6  3  1  0  0  0  0
  7  4  2  0  0  0  0
  7  2  1  0  0  0  0
  8  6  2  0  0  0  0
  9 17  1  0  0  0  0
 10 15  1  0  0  0  0
 11 14  1  0  0  0  0
 12 11  2  0  0  0  0
 13 10  2  0  0  0  0
 13 12  1  0  0  0  0
 15 16  1  0  0  0  0
 16 14  2  0  0  0  0
 16  4  1  0  0  0  0
 17 18  2  0  0  0  0
 17 19  1  0  0  0  0
 19 22  1  0  0  0  0
 21 26  1  0  0  0  0
 22 24  1  0  0  0  0
 23 26  1  0  0  0  0
 24 21  1  0  0  0  0
 25 24  2  0  0  0  0
 25 27  1  0  0  0  0
 26 20  1  1  0  0  0
 27 23  1  0  0  0  0
 28  7  1  0  0  0  0
 29 28  1  0  0  0  0
 30 40  1  0  0  0  0
 30 38  1  0  0  0  0
 31 36  1  0  0  0  0
 32 37  1  6  0  0  0
 32 40  1  0  0  0  0
 32 34  1  0  0  0  0
 34 29  1  6  0  0  0
 34 31  1  0  0  0  0
 35 39  1  0  0  0  0
 38 36  1  0  0  0  0
 39 38  1  0  0  0  0
 39 33  2  0  0  0  0
 40 37  1  6  0  0  0
M  END
>  <MODEL>
6

>  <REMARK>
 VINA RESULT:      -9.2      4.457      9.312
  Name = 
  6 active torsions:
  status: ('A' for Active; 'I' for Inactive)
    1  A    between atoms: C_8  and  C_34
    2  A    between atoms: C_9  and  O_18
    3  A    between atoms: C_9  and  C_21
    4  A    between atoms: N_10  and  N_39
    5  A    between atoms: C_16  and  C_37
    6  A    between atoms: O_18  and  C_29
                            x       y       z     vdW  Elec       q    Type
                         _______ _______ _______ _____ _____    ______ ____

>  <TORSDO>
F 6

$$$$
=
 OpenBabel10222421553D

 40 45  0  0  1  0  0  0  0  0999 V2000
  191.7050  176.9490  139.6000 C   0  0  0  0  0  0  0  0  0  0  0  0
  190.5040  177.3880  140.0850 C   0  0  0  0  0  0  0  0  0  0  0  0
  192.6940  177.0320  140.5580 O   0  0  0  0  0  0  0  0  0  0  0  0
  189.4520  176.9080  137.9520 C   0  0  0  0  0  0  0  0  0  0  0  0
  190.7070  176.4690  137.4750 C   0  0  0  0  0  3  0  0  0  0  0  0
  192.1660  177.5450  141.7760 C   0  0  0  0  0  3  0  0  0  0  0  0
  189.3410  177.3800  139.2870 C   0  0  0  0  0  0  0  0  0  0  0  0
  190.6690  177.7900  141.5100 C   0  0  0  0  0  3  0  0  0  0  0  0
  191.8500  176.4800  138.2890 C   0  0  0  0  0  0  0  0  0  0  0  0
  186.3050  175.3600  136.4360 C   0  0  0  0  0  3  0  0  0  0  0  0
  187.0610  178.1550  135.2170 C   0  0  0  0  0  3  0  0  0  0  0  0
  186.0360  177.3940  134.8550 C   0  0  0  0  0  3  0  0  0  0  0  0
  185.6960  176.1170  135.3910 N   0  0  0  0  0  0  0  0  0  0  0  0
  188.0970  177.9020  136.2220 C   0  0  0  0  0  3  0  0  0  0  0  0
  187.3940  175.6850  137.1290 C   0  0  0  0  0  2  0  0  0  0  0  0
  188.2790  176.8610  137.0410 C   0  0  0  0  0  0  0  0  0  0  0  0
  193.1410  176.0040  137.7520 C   0  0  0  0  0  0  0  0  0  0  0  0
  193.8640  176.7860  137.0750 O   0  0  0  0  0  0  0  0  0  0  0  0
  193.5720  174.6580  137.9700 N   0  0  0  0  0  2  0  0  0  0  0  0
  199.6980  173.8940  138.0010 N   0  0  0  0  0  1  0  0  0  0  0  0
  197.2830  173.7820  137.6680 C   0  0  0  0  0  2  0  0  0  0  0  0
  194.8010  174.2080  137.4700 N   0  0  0  0  0  2  0  0  0  0  0  0
  198.3490  175.3400  139.4470 C   0  0  0  0  0  2  0  0  0  0  0  0
  195.9970  174.2970  138.2410 C   0  0  0  0  0  0  0  0  0  0  0  0
  195.9700  174.7680  139.4500 N   0  0  0  0  0  0  0  0  0  0  0  0
  198.4730  174.6710  138.0650 C   0  0  1  0  0  3  0  0  0  0  0  0
  197.1800  174.7960  140.2680 C   0  0  0  0  0  2  0  0  0  0  0  0
  188.0880  177.7900  139.7640 O   0  0  0  0  0  0  0  0  0  0  0  0
  187.8810  178.6560  140.8740 C   0  0  0  0  0  2  0  0  0  0  0  0
  184.8660  178.3220  144.3640 C   0  0  0  0  0  2  0  0  0  0  0  0
  187.8020  177.5040  143.1070 C   0  0  0  0  0  2  0  0  0  0  0  0
  185.9460  178.9840  142.4130 C   0  0  1  0  0  3  0  0  0  0  0  0
  187.5670  177.7580  146.7870 O   0  0  0  0  0  0  0  0  0  0  0  0
  186.9700  177.9940  141.8990 C   0  0  1  0  0  3  0  0  0  0  0  0
  185.7580  179.2750  146.9950 C   0  0  0  0  0  1  0  0  0  0  0  0
  186.9650  176.8290  144.2160 C   0  0  0  0  0  2  0  0  0  0  0  0
  184.5560  179.1100  141.8380 C   0  0  0  0  0  2  0  0  0  0  0  0
  186.1160  177.7910  144.9510 N   0  0  0  0  0  0  0  0  0  0  0  0
  186.5310  178.2370  146.2520 C   0  0  0  0  0  0  0  0  0  0  0  0
  184.8450  178.0470  142.8740 C   0  0  2  0  0  3  0  0  0  0  0  0
  1  2  1  0  0  0  0
  1  3  1  0  0  0  0
  2  8  1  0  0  0  0
  3  6  1  0  0  0  0
  4  7  1  0  0  0  0
  5  4  2  0  0  0  0
  5  9  1  0  0  0  0
  7 28  1  0  0  0  0
  7  2  2  0  0  0  0
  8  6  2  0  0  0  0
  9  1  2  0  0  0  0
 10 15  1  0  0  0  0
 11 14  1  0  0  0  0
 12 11  2  0  0  0  0
 12 13  1  0  0  0  0
 13 10  2  0  0  0  0
 14 16  2  0  0  0  0
 16 15  1  0  0  0  0
 16  4  1  0  0  0  0
 17 19  1  0  0  0  0
 17  9  1  0  0  0  0
 18 17  2  0  0  0  0
 21 26  1  0  0  0  0
 21 24  1  0  0  0  0
 22 19  1  0  0  0  0
 22 24  1  0  0  0  0
 23 27  1  0  0  0  0
 24 25  2  0  0  0  0
 25 27  1  0  0  0  0
 26 20  1  1  0  0  0
 26 23  1  0  0  0  0
 28 29  1  0  0  0  0
 30 38  1  0  0  0  0
 31 36  1  0  0  0  0
 32 37  1  6  0  0  0
 32 40  1  0  0  0  0
 34 29  1  6  0  0  0
 34 32  1  0  0  0  0
 34 31  1  0  0  0  0
 36 38  1  0  0  0  0
 38 39  1  0  0  0  0
 39 33  2  0  0  0  0
 39 35  1  0  0  0  0
 40 37  1  6  0  0  0
 40 30  1  0  0  0  0
M  END
>  <MODEL>
7

>  <REMARK>
 VINA RESULT:      -9.2      2.762      5.825
  Name = 
  6 active torsions:
  status: ('A' for Active; 'I' for Inactive)
    1  A    between atoms: C_8  and  C_34
    2  A    between atoms: C_9  and  O_18
    3  A    between atoms: C_9  and  C_21
    4  A    between atoms: N_10  and  N_39
    5  A    between atoms: C_16  and  C_37
    6  A    between atoms: O_18  and  C_29
                            x       y       z     vdW  Elec       q    Type
                         _______ _______ _______ _____ _____    ______ ____

>  <TORSDO>
F 6

$$$$
=
 OpenBabel10222421553D

 40 45  0  0  1  0  0  0  0  0999 V2000
  184.0010  178.6230  143.4500 C   0  0  0  0  0  0  0  0  0  0  0  0
  183.3220  178.7100  142.2660 C   0  0  0  0  0  0  0  0  0  0  0  0
  183.1420  178.6960  144.5270 O   0  0  0  0  0  0  0  0  0  0  0  0
  185.4040  178.4890  141.0400 C   0  0  0  0  0  0  0  0  0  0  0  0
  186.0800  178.4120  142.2780 C   0  0  0  0  0  3  0  0  0  0  0  0
  181.7960  178.8300  144.0840 C   0  0  0  0  0  3  0  0  0  0  0  0
  183.9920  178.6410  141.0270 C   0  0  0  0  0  0  0  0  0  0  0  0
  181.8630  178.8290  142.5460 C   0  0  0  0  0  3  0  0  0  0  0  0
  185.3910  178.4760  143.4990 C   0  0  0  0  0  0  0  0  0  0  0  0
  188.6090  178.3350  138.9680 C   0  0  0  0  0  3  0  0  0  0  0  0
  185.9810  178.2550  137.2500 C   0  0  0  0  0  3  0  0  0  0  0  0
  187.2220  178.2400  136.7830 C   0  0  0  0  0  3  0  0  0  0  0  0
  188.4210  178.2940  137.5540 N   0  0  0  0  0  0  0  0  0  0  0  0
  185.5100  178.3380  138.6350 C   0  0  0  0  0  3  0  0  0  0  0  0
  187.6620  178.3780  139.9010 C   0  0  0  0  0  2  0  0  0  0  0  0
  186.1920  178.4060  139.7830 C   0  0  0  0  0  0  0  0  0  0  0  0
  186.1380  178.3830  144.7710 C   0  0  0  0  0  0  0  0  0  0  0  0
  185.8120  179.1200  145.7430 O   0  0  0  0  0  0  0  0  0  0  0  0
  187.2420  177.4850  144.9070 N   0  0  0  0  0  2  0  0  0  0  0  0
  192.2360  176.6590  148.4410 N   0  0  0  0  0  1  0  0  0  0  0  0
  190.0720  177.2280  147.4680 C   0  0  0  0  0  2  0  0  0  0  0  0
  187.9440  177.3880  146.1160 N   0  0  0  0  0  2  0  0  0  0  0  0
  192.0080  176.2660  146.0340 C   0  0  0  0  0  2  0  0  0  0  0  0
  189.3670  177.3110  146.1470 C   0  0  0  0  0  0  0  0  0  0  0  0
  190.0560  177.3650  145.0480 N   0  0  0  0  0  0  0  0  0  0  0  0
  191.2930  176.2970  147.3980 C   0  0  1  0  0  3  0  0  0  0  0  0
  191.5160  177.3560  145.0810 C   0  0  0  0  0  2  0  0  0  0  0  0
  183.3230  178.6910  139.7960 O   0  0  0  0  0  0  0  0  0  0  0  0
  181.9380  178.9770  139.6300 C   0  0  0  0  0  2  0  0  0  0  0  0
  180.8650  174.7570  138.0750 C   0  0  0  0  0  2  0  0  0  0  0  0
  182.0520  177.7640  137.4310 C   0  0  0  0  0  2  0  0  0  0  0  0
  181.3000  176.5720  139.4630 C   0  0  1  0  0  3  0  0  0  0  0  0
  183.4070  174.9650  135.4340 O   0  0  0  0  0  0  0  0  0  0  0  0
  181.2790  177.9140  138.7610 C   0  0  1  0  0  3  0  0  0  0  0  0
  183.0480  173.1610  136.9290 C   0  0  0  0  0  1  0  0  0  0  0  0
  181.4710  176.6930  136.4820 C   0  0  0  0  0  2  0  0  0  0  0  0
  180.1480  176.0530  140.2900 C   0  0  0  0  0  2  0  0  0  0  0  0
  181.6860  175.3170  136.9800 N   0  0  0  0  0  0  0  0  0  0  0  0
  182.7320  174.5210  136.4010 C   0  0  0  0  0  0  0  0  0  0  0  0
  180.1330  175.8750  138.7880 C   0  0  2  0  0  3  0  0  0  0  0  0
  1  9  1  0  0  0  0
  1  3  1  0  0  0  0
  2  8  1  0  0  0  0
  2  1  2  0  0  0  0
  4  5  1  0  0  0  0
  5  9  2  0  0  0  0
  6  3  1  0  0  0  0
  7  4  2  0  0  0  0
  7  2  1  0  0  0  0
  8  6  2  0  0  0  0
  9 17  1  0  0  0  0
 10 15  1  0  0  0  0
 11 14  1  0  0  0  0
 12 11  2  0  0  0  0
 12 13  1  0  0  0  0
 13 10  2  0  0  0  0
 14 16  2  0  0  0  0
 16 15  1  0  0  0  0
 16  4  1  0  0  0  0
 17 19  1  0  0  0  0
 17 18  2  0  0  0  0
 19 22  1  0  0  0  0
 22 24  1  0  0  0  0
 23 26  1  0  0  0  0
 24 21  1  0  0  0  0
 25 27  1  0  0  0  0
 25 24  2  0  0  0  0
 26 21  1  0  0  0  0
 26 20  1  1  0  0  0
 27 23  1  0  0  0  0
 28  7  1  0  0  0  0
 29 28  1  0  0  0  0
 31 34  1  0  0  0  0
 32 37  1  1  0  0  0
 33 39  2  0  0  0  0
 34 32  1  0  0  0  0
 34 29  1  1  0  0  0
 36 38  1  0  0  0  0
 36 31  1  0  0  0  0
 38 30  1  0  0  0  0
 39 35  1  0  0  0  0
 39 38  1  0  0  0  0
 40 30  1  1  0  0  0
 40 32  1  0  0  0  0
 40 37  1  0  0  0  0
M  END
>  <MODEL>
8

>  <REMARK>
 VINA RESULT:      -9.1      4.431      8.466
  Name = 
  6 active torsions:
  status: ('A' for Active; 'I' for Inactive)
    1  A    between atoms: C_8  and  C_34
    2  A    between atoms: C_9  and  O_18
    3  A    between atoms: C_9  and  C_21
    4  A    between atoms: N_10  and  N_39
    5  A    between atoms: C_16  and  C_37
    6  A    between atoms: O_18  and  C_29
                            x       y       z     vdW  Elec       q    Type
                         _______ _______ _______ _____ _____    ______ ____

>  <TORSDO>
F 6

$$$$
=
 OpenBabel10222421553D

 40 45  0  0  1  0  0  0  0  0999 V2000
  190.8930  177.1920  139.8750 C   0  0  0  0  0  0  0  0  0  0  0  0
  191.3620  176.8180  138.6460 C   0  0  0  0  0  0  0  0  0  0  0  0
  191.9290  177.4520  140.7490 O   0  0  0  0  0  0  0  0  0  0  0  0
  189.0880  176.6060  137.8290 C   0  0  0  0  0  0  0  0  0  0  0  0
  188.6320  176.9860  139.1110 C   0  0  0  0  0  3  0  0  0  0  0  0
  193.1840  177.2630  140.1060 C   0  0  0  0  0  3  0  0  0  0  0  0
  190.4840  176.5190  137.5840 C   0  0  0  0  0  0  0  0  0  0  0  0
  192.8520  176.8440  138.6620 C   0  0  0  0  0  3  0  0  0  0  0  0
  189.5250  177.2860  140.1510 C   0  0  0  0  0  0  0  0  0  0  0  0
  186.9370  177.4140  134.7760 C   0  0  0  0  0  3  0  0  0  0  0  0
  186.5530  174.4920  135.8630 C   0  0  0  0  0  3  0  0  0  0  0  0
  185.9140  175.0360  134.8350 C   0  0  0  0  0  3  0  0  0  0  0  0
  186.0690  176.3660  134.3470 N   0  0  0  0  0  0  0  0  0  0  0  0
  187.5520  175.0860  136.7560 C   0  0  0  0  0  3  0  0  0  0  0  0
  187.7890  177.3800  135.7970 C   0  0  0  0  0  2  0  0  0  0  0  0
  188.0890  176.3110  136.7680 C   0  0  0  0  0  0  0  0  0  0  0  0
  189.0050  177.6870  141.4750 C   0  0  0  0  0  0  0  0  0  0  0  0
  188.8440  178.9100  141.7390 O   0  0  0  0  0  0  0  0  0  0  0  0
  188.7040  176.7060  142.4700 N   0  0  0  0  0  2  0  0  0  0  0  0
  188.9940  177.7510  148.5480 N   0  0  0  0  0  1  0  0  0  0  0  0
  188.4690  177.6630  146.1660 C   0  0  0  0  0  2  0  0  0  0  0  0
  188.2010  177.0830  143.7220 N   0  0  0  0  0  2  0  0  0  0  0  0
  190.6440  176.6270  147.1290 C   0  0  0  0  0  2  0  0  0  0  0  0
  189.0550  177.2380  144.8530 C   0  0  0  0  0  0  0  0  0  0  0  0
  190.3370  177.0670  144.7420 N   0  0  0  0  0  0  0  0  0  0  0  0
  189.1540  176.9540  147.3450 C   0  0  1  0  0  3  0  0  0  0  0  0
  191.2230  177.2930  145.8810 C   0  0  0  0  0  2  0  0  0  0  0  0
  190.9310  176.1680  136.3030 O   0  0  0  0  0  0  0  0  0  0  0  0
  190.9230  174.8480  135.7680 C   0  0  0  0  0  2  0  0  0  0  0  0
  195.2530  173.3190  135.2270 C   0  0  0  0  0  2  0  0  0  0  0  0
  193.1200  175.8260  135.0370 C   0  0  0  0  0  2  0  0  0  0  0  0
  193.0080  173.4810  135.8150 C   0  0  1  0  0  3  0  0  0  0  0  0
  196.6280  176.6680  135.8410 O   0  0  0  0  0  0  0  0  0  0  0  0
  192.2430  174.5530  135.0680 C   0  0  1  0  0  3  0  0  0  0  0  0
  197.3420  174.6310  136.8220 C   0  0  0  0  0  1  0  0  0  0  0  0
  194.4940  175.6270  134.3590 C   0  0  0  0  0  2  0  0  0  0  0  0
  192.9410  172.0160  135.4580 C   0  0  0  0  0  2  0  0  0  0  0  0
  195.4080  174.7890  135.1650 N   0  0  0  0  0  0  0  0  0  0  0  0
  196.4510  175.4230  135.9220 C   0  0  0  0  0  0  0  0  0  0  0  0
  193.8850  172.9280  134.7070 C   0  0  2  0  0  3  0  0  0  0  0  0
  1  9  1  0  0  0  0
  1  3  1  0  0  0  0
  2  8  1  0  0  0  0
  2  1  2  0  0  0  0
  4  5  1  0  0  0  0
  5  9  2  0  0  0  0
  6  3  1  0  0  0  0
  7  4  2  0  0  0  0
  7  2  1  0  0  0  0
  8  6  2  0  0  0  0
  9 17  1  0  0  0  0
 10 15  1  0  0  0  0
 11 14  1  0  0  0  0
 12 11  2  0  0  0  0
 13 10  2  0  0  0  0
 13 12  1  0  0  0  0
 14 16  2  0  0  0  0
 15 16  1  0  0  0  0
 16  4  1  0  0  0  0
 17 18  2  0  0  0  0
 17 19  1  0  0  0  0
 19 22  1  0  0  0  0
 21 26  1  0  0  0  0
 22 24  1  0  0  0  0
 23 26  1  0  0  0  0
 24 21  1  0  0  0  0
 25 24  2  0  0  0  0
 25 27  1  0  0  0  0
 26 20  1  1  0  0  0
 27 23  1  0  0  0  0
 28  7  1  0  0  0  0
 29 28  1  0  0  0  0
 31 34  1  0  0  0  0
 32 37  1  6  0  0  0
 33 39  2  0  0  0  0
 34 29  1  1  0  0  0
 34 32  1  0  0  0  0
 36 31  1  0  0  0  0
 36 38  1  0  0  0  0
 38 30  1  0  0  0  0
 38 39  1  0  0  0  0
 39 35  1  0  0  0  0
 40 30  1  1  0  0  0
 40 37  1  0  0  0  0
 40 32  1  0  0  0  0
M  END
>  <MODEL>
9

>  <REMARK>
 VINA RESULT:      -9.1      3.560     10.946
  Name = 
  6 active torsions:
  status: ('A' for Active; 'I' for Inactive)
    1  A    between atoms: C_8  and  C_34
    2  A    between atoms: C_9  and  O_18
    3  A    between atoms: C_9  and  C_21
    4  A    between atoms: N_10  and  N_39
    5  A    between atoms: C_16  and  C_37
    6  A    between atoms: O_18  and  C_29
                            x       y       z     vdW  Elec       q    Type
                         _______ _______ _______ _____ _____    ______ ____

>  <TORSDO>
F 6

$$$$
