=
 OpenBabel10232411483D

 47 50  0  0  1  0  0  0  0  0999 V2000
  190.8670  177.0660  140.2960 C   0  0  0  0  0  0  0  0  0  0  0  0
  191.4970  176.7990  139.0260 C   0  0  0  0  0  0  0  0  0  0  0  0
  189.5810  177.0350  140.2080 N   0  0  0  0  0  0  0  0  0  0  0  0
  191.5690  177.3250  141.5130 N   0  0  0  0  0  2  0  0  0  0  0  0
  189.2220  176.7380  138.8240 C   0  0  2  0  0  3  0  0  0  0  0  0
  190.5480  176.5920  138.1300 C   0  0  0  0  0  3  0  0  0  0  0  0
  188.4510  177.9060  138.2330 C   0  0  2  0  0  3  0  0  0  0  0  0
  188.5130  177.8410  136.8130 N   0  0  0  0  0  0  0  0  0  0  0  0
  189.3420  178.7690  137.5370 N   0  0  0  0  0  2  0  0  0  0  0  0
  187.3760  178.5940  136.3120 C   0  0  0  0  0  2  0  0  0  0  0  0
  186.8460  177.9600  135.0350 C   0  0  0  0  0  2  0  0  0  0  0  0
  185.8650  176.8290  135.3500 C   0  0  2  0  0  3  0  0  0  0  0  0
  184.7100  177.3290  136.0890 N   0  0  0  0  0  2  0  0  0  0  0  0
  183.5250  176.9680  135.3300 C   0  0  0  0  0  1  0  0  0  0  0  0
  186.4780  175.7290  135.9950 O   0  0  0  0  0  0  0  0  0  0  0  0
  187.0850  174.9110  135.0280 C   0  0  0  0  0  1  0  0  0  0  0  0
  192.9610  176.7000  138.7610 C   0  0  0  0  0  2  0  0  0  0  0  0
  192.4870  174.2390  137.6930 O   0  0  0  0  0  1  0  0  0  0  0  0
  193.2880  175.4970  137.4390 P   0  0  1  0  0  0  0  0  0  0  0  0
  192.8350  176.1650  135.9510 O   0  0  0  0  0  0  0  0  0  0  0  0
  194.9450  175.1330  137.4340 O   0  0  0  0  0  0  0  0  0  0  0  0
  195.1110  174.1300  138.3890 C   0  0  0  0  0  2  0  0  0  0  0  0
  196.5890  173.8430  138.5670 C   0  0  0  0  0  2  0  0  0  0  0  0
  197.2280  174.9460  139.3350 C   0  0  0  0  0  0  0  0  0  0  0  0
  196.6920  175.3730  140.3890 O   0  0  0  0  0  1  0  0  0  0  0  0
  198.4330  175.4870  138.9030 O   0  0  0  0  0  0  0  0  0  0  0  0
  190.8820  177.6420  142.7600 C   0  0  1  0  0  3  0  0  0  0  0  0
  191.5510  176.0000  144.3610 F   0  0  0  0  0  0  0  0  0  0  0  0
  190.5240  176.3490  143.4980 C   0  0  0  0  0  0  0  0  0  0  0  0
  190.3500  175.3340  142.5710 F   0  0  0  0  0  0  0  0  0  0  0  0
  189.2200  176.5410  144.2740 C   0  0  0  0  0  2  0  0  0  0  0  0
  187.9930  176.4520  143.3730 C   0  0  0  0  0  2  0  0  0  0  0  0
  182.9570  178.5990  144.2250 C   0  0  0  0  0  2  0  0  0  0  0  0
  186.2030  178.2130  142.9900 C   0  0  0  0  0  0  0  0  0  0  0  0
  183.8400  178.7360  143.1110 N   0  0  0  0  0  0  0  0  0  0  0  0
  183.4190  178.4950  141.7590 C   0  0  0  0  0  3  0  0  0  0  0  0
  185.1580  179.1280  143.5660 C   0  0  1  0  0  3  0  0  0  0  0  0
  184.2120  178.5970  140.6840 C   0  0  0  0  0  0  0  0  0  0  0  0
  185.6540  179.0280  140.7800 C   0  0  0  0  0  2  0  0  0  0  0  0
  186.3990  178.1810  141.7060 N   0  0  0  0  0  0  0  0  0  0  0  0
  185.1670  179.0910  144.9760 O   0  0  0  0  0  0  0  0  0  0  0  0
  183.8200  179.0050  145.3970 C   0  0  0  0  0  2  0  0  0  0  0  0
  186.9410  177.3400  143.8510 N   0  0  0  0  0  2  0  0  0  0  0  0
  182.9830  179.2920  138.6550 C   0  0  0  0  0  1  0  0  0  0  0  0
  183.6490  178.3100  139.4370 O   0  0  0  0  0  0  0  0  0  0  0  0
  191.7620  178.5470  143.6210 C   0  0  0  0  0  2  0  0  0  0  0  0
  190.9930  179.7740  144.0730 C   0  0  0  0  0  1  0  0  0  0  0  0
  1  4  1  0  0  0  0
  2  1  1  0  0  0  0
  3  1  2  0  0  0  0
  4 27  1  0  0  0  0
  5  6  1  6  0  0  0
  5  3  1  0  0  0  0
  6  2  2  0  0  0  0
  7  9  1  1  0  0  0
  7  5  1  0  0  0  0
  8  9  1  0  0  0  0
  8  7  1  0  0  0  0
 10  8  1  0  0  0  0
 11 10  1  0  0  0  0
 12 11  1  1  0  0  0
 12 15  1  0  0  0  0
 12 13  1  0  0  0  0
 14 13  1  0  0  0  0
 16 15  1  0  0  0  0
 17  2  1  0  0  0  0
 19 20  2  6  0  0  0
 19 18  1  0  0  0  0
 19 17  1  0  0  0  0
 21 19  1  0  0  0  0
 21 22  1  0  0  0  0
 22 23  1  0  0  0  0
 23 24  1  0  0  0  0
 24 25  1  0  0  0  0
 26 24  2  0  0  0  0
 27 29  1  0  0  0  0
 27 46  1  1  0  0  0
 29 31  1  0  0  0  0
 29 28  1  0  0  0  0
 30 29  1  0  0  0  0
 32 43  1  0  0  0  0
 32 31  1  0  0  0  0
 33 42  1  0  0  0  0
 34 43  1  0  0  0  0
 35 37  1  0  0  0  0
 35 33  1  0  0  0  0
 36 35  1  0  0  0  0
 37 34  1  6  0  0  0
 37 41  1  0  0  0  0
 38 39  1  0  0  0  0
 38 36  2  0  0  0  0
 39 40  1  0  0  0  0
 40 34  2  0  0  0  0
 41 42  1  0  0  0  0
 44 45  1  0  0  0  0
 45 38  1  0  0  0  0
 46 47  1  0  0  0  0
M  END
>  <MODEL>
1

>  <REMARK>
 VINA RESULT:      -7.1      0.000      0.000
  Name = 
  19 active torsions:
  status: ('A' for Active; 'I' for Inactive)
    1  A    between atoms: C_1  and  C_8
    2  A    between atoms: C_5  and  O_33
    3  A    between atoms: C_5  and  C_38
    4  A    between atoms: N_6  and  C_24
    5  A    between atoms: C_7  and  P_10
    6  A    between atoms: C_7  and  C_15
    7  A    between atoms: C_8  and  C_11
    8  A    between atoms: C_8  and  N_43
    9  A    between atoms: P_10  and  O_33
   10  A    between atoms: C_11  and  C_12
   11  A    between atoms: C_12  and  C_42
   12  A    between atoms: C_14  and  C_45
   13  A    between atoms: N_18  and  C_22
   14  A    between atoms: C_19  and  C_38
   15  A    between atoms: C_22  and  C_39
   16  A    between atoms: C_24  and  O_34
   17  A    between atoms: C_24  and  C_39
   18  A    between atoms: C_26  and  O_40
   19  A    between atoms: N_36  and  C_42
                            x       y       z     vdW  Elec       q    Type
                         _______ _______ _______ _____ _____    ______ ____

>  <TORSDO>
F 19

$$$$
=
 OpenBabel10232411483D

 47 50  0  0  1  0  0  0  0  0999 V2000
  188.5960  177.5550  140.7040 C   0  0  0  0  0  0  0  0  0  0  0  0
  188.4640  177.2260  142.1030 C   0  0  0  0  0  0  0  0  0  0  0  0
  187.7570  178.4670  140.3450 N   0  0  0  0  0  0  0  0  0  0  0  0
  189.5430  176.9600  139.8150 N   0  0  0  0  0  2  0  0  0  0  0  0
  186.9590  178.8390  141.5100 C   0  0  2  0  0  3  0  0  0  0  0  0
  187.5040  177.9770  142.6140 C   0  0  0  0  0  3  0  0  0  0  0  0
  185.4990  178.5030  141.2590 C   0  0  2  0  0  3  0  0  0  0  0  0
  184.9280  179.4910  140.4090 N   0  0  0  0  0  0  0  0  0  0  0  0
  184.6680  179.5090  141.8250 N   0  0  0  0  0  2  0  0  0  0  0  0
  183.7720  178.8790  139.7770 C   0  0  0  0  0  2  0  0  0  0  0  0
  184.2140  177.9590  138.6490 C   0  0  0  0  0  2  0  0  0  0  0  0
  183.2620  176.7710  138.5040 C   0  0  2  0  0  3  0  0  0  0  0  0
  182.7190  176.3750  139.8000 N   0  0  0  0  0  2  0  0  0  0  0  0
  181.3370  175.9830  139.5850 C   0  0  0  0  0  1  0  0  0  0  0  0
  183.8390  175.6810  137.8110 O   0  0  0  0  0  0  0  0  0  0  0  0
  184.5000  176.1630  136.6690 C   0  0  0  0  0  1  0  0  0  0  0  0
  189.2990  176.2600  142.8720 C   0  0  0  0  0  2  0  0  0  0  0  0
  191.9380  176.7020  143.3860 O   0  0  0  0  0  0  0  0  0  0  0  0
  190.5630  177.1420  143.8370 P   0  0  1  0  0  0  0  0  0  0  0  0
  190.3920  178.8080  143.5890 O   0  0  0  0  0  1  0  0  0  0  0  0
  190.3480  176.7730  145.4790 O   0  0  0  0  0  0  0  0  0  0  0  0
  189.5700  177.8080  145.9970 C   0  0  0  0  0  2  0  0  0  0  0  0
  188.1670  177.3000  146.2630 C   0  0  0  0  0  2  0  0  0  0  0  0
  187.5750  178.0340  147.4140 C   0  0  0  0  0  0  0  0  0  0  0  0
  186.4940  178.6620  147.2720 O   0  0  0  0  0  0  0  0  0  0  0  0
  188.1980  178.0020  148.6550 O   0  0  0  0  0  1  0  0  0  0  0  0
  189.5990  177.2920  138.3950 C   0  0  1  0  0  3  0  0  0  0  0  0
  190.8160  176.8500  136.3880 F   0  0  0  0  0  0  0  0  0  0  0  0
  190.6780  176.4520  137.7080 C   0  0  0  0  0  0  0  0  0  0  0  0
  190.2990  175.1190  137.7390 F   0  0  0  0  0  0  0  0  0  0  0  0
  192.0050  176.6070  138.4510 C   0  0  0  0  0  2  0  0  0  0  0  0
  193.1990  176.2000  137.5950 C   0  0  0  0  0  2  0  0  0  0  0  0
  198.3730  175.0430  139.2030 C   0  0  0  0  0  2  0  0  0  0  0  0
  195.0480  174.5790  138.2330 C   0  0  0  0  0  0  0  0  0  0  0  0
  197.4360  174.2500  138.4730 N   0  0  0  0  0  0  0  0  0  0  0  0
  197.7690  173.6150  137.2270 C   0  0  0  0  0  3  0  0  0  0  0  0
  196.1670  174.2120  139.1680 C   0  0  1  0  0  3  0  0  0  0  0  0
  196.9230  172.8740  136.5000 C   0  0  0  0  0  0  0  0  0  0  0  0
  195.5110  172.5850  136.9450 C   0  0  0  0  0  2  0  0  0  0  0  0
  194.7790  173.8190  137.2150 N   0  0  0  0  0  0  0  0  0  0  0  0
  196.2360  175.1040  140.2590 O   0  0  0  0  0  0  0  0  0  0  0  0
  197.5980  175.4350  140.4400 C   0  0  0  0  0  2  0  0  0  0  0  0
  194.3180  175.7940  138.4360 N   0  0  0  0  0  2  0  0  0  0  0  0
  197.3740  170.9480  135.0170 C   0  0  0  0  0  1  0  0  0  0  0  0
  197.4000  172.3400  135.2990 O   0  0  0  0  0  0  0  0  0  0  0  0
  188.2290  177.0660  137.7560 C   0  0  0  0  0  2  0  0  0  0  0  0
  187.8720  178.2120  136.8290 C   0  0  0  0  0  1  0  0  0  0  0  0
  1  2  1  0  0  0  0
  2  6  2  0  0  0  0
  2 17  1  0  0  0  0
  3  1  2  0  0  0  0
  3  5  1  0  0  0  0
  4  1  1  0  0  0  0
  5  6  1  1  0  0  0
  7  5  1  0  0  0  0
  7  9  1  1  0  0  0
  8  7  1  0  0  0  0
  8  9  1  0  0  0  0
 10  8  1  0  0  0  0
 11 10  1  0  0  0  0
 12 11  1  1  0  0  0
 12 13  1  0  0  0  0
 14 13  1  0  0  0  0
 15 12  1  0  0  0  0
 16 15  1  0  0  0  0
 17 19  1  0  0  0  0
 19 18  2  6  0  0  0
 19 21  1  0  0  0  0
 20 19  1  0  0  0  0
 21 22  1  0  0  0  0
 22 23  1  0  0  0  0
 23 24  1  0  0  0  0
 24 26  1  0  0  0  0
 25 24  2  0  0  0  0
 27 46  1  6  0  0  0
 27  4  1  0  0  0  0
 28 29  1  0  0  0  0
 29 30  1  0  0  0  0
 29 27  1  0  0  0  0
 29 31  1  0  0  0  0
 32 43  1  0  0  0  0
 32 31  1  0  0  0  0
 33 42  1  0  0  0  0
 34 43  1  0  0  0  0
 35 37  1  0  0  0  0
 35 33  1  0  0  0  0
 36 35  1  0  0  0  0
 37 34  1  6  0  0  0
 37 41  1  0  0  0  0
 38 39  1  0  0  0  0
 38 36  2  0  0  0  0
 39 40  1  0  0  0  0
 40 34  2  0  0  0  0
 41 42  1  0  0  0  0
 44 45  1  0  0  0  0
 45 38  1  0  0  0  0
 47 46  1  0  0  0  0
M  END
>  <MODEL>
2

>  <REMARK>
 VINA RESULT:      -7.1      3.341      9.486
  Name = 
  19 active torsions:
  status: ('A' for Active; 'I' for Inactive)
    1  A    between atoms: C_1  and  C_8
    2  A    between atoms: C_5  and  O_33
    3  A    between atoms: C_5  and  C_38
    4  A    between atoms: N_6  and  C_24
    5  A    between atoms: C_7  and  P_10
    6  A    between atoms: C_7  and  C_15
    7  A    between atoms: C_8  and  C_11
    8  A    between atoms: C_8  and  N_43
    9  A    between atoms: P_10  and  O_33
   10  A    between atoms: C_11  and  C_12
   11  A    between atoms: C_12  and  C_42
   12  A    between atoms: C_14  and  C_45
   13  A    between atoms: N_18  and  C_22
   14  A    between atoms: C_19  and  C_38
   15  A    between atoms: C_22  and  C_39
   16  A    between atoms: C_24  and  O_34
   17  A    between atoms: C_24  and  C_39
   18  A    between atoms: C_26  and  O_40
   19  A    between atoms: N_36  and  C_42
                            x       y       z     vdW  Elec       q    Type
                         _______ _______ _______ _____ _____    ______ ____

>  <TORSDO>
F 19

$$$$
=
 OpenBabel10232411483D

 47 50  0  0  1  0  0  0  0  0999 V2000
  188.8940  177.3150  140.8940 C   0  0  0  0  0  0  0  0  0  0  0  0
  188.8290  176.9470  142.2880 C   0  0  0  0  0  0  0  0  0  0  0  0
  188.1130  178.3040  140.6220 N   0  0  0  0  0  0  0  0  0  0  0  0
  189.7260  176.6760  139.9230 N   0  0  0  0  0  2  0  0  0  0  0  0
  187.4290  178.6990  141.8500 C   0  0  2  0  0  3  0  0  0  0  0  0
  187.9720  177.7560  142.8870 C   0  0  0  0  0  3  0  0  0  0  0  0
  185.9320  178.4920  141.6920 C   0  0  2  0  0  3  0  0  0  0  0  0
  185.4330  179.4000  140.7160 N   0  0  0  0  0  0  0  0  0  0  0  0
  185.2370  179.6570  142.1190 N   0  0  0  0  0  2  0  0  0  0  0  0
  184.1930  178.8320  140.2150 C   0  0  0  0  0  2  0  0  0  0  0  0
  184.4080  178.2340  138.8330 C   0  0  0  0  0  2  0  0  0  0  0  0
  183.5000  177.0230  138.6110 C   0  0  2  0  0  3  0  0  0  0  0  0
  184.0670  176.1200  137.6140 N   0  0  0  0  0  2  0  0  0  0  0  0
  183.3720  174.8510  137.7390 C   0  0  0  0  0  1  0  0  0  0  0  0
  182.1650  177.3810  138.3120 O   0  0  0  0  0  0  0  0  0  0  0  0
  182.1560  178.2060  137.1750 C   0  0  0  0  0  1  0  0  0  0  0  0
  189.6300  175.8900  142.9680 C   0  0  0  0  0  2  0  0  0  0  0  0
  191.9880  175.5160  144.2800 O   0  0  0  0  0  1  0  0  0  0  0  0
  191.0790  176.6200  143.7880 P   0  0  1  0  0  0  0  0  0  0  0  0
  191.9150  177.5920  142.6820 O   0  0  0  0  0  0  0  0  0  0  0  0
  190.5460  177.5560  145.0990 O   0  0  0  0  0  0  0  0  0  0  0  0
  189.9900  176.6510  146.0040 C   0  0  0  0  0  2  0  0  0  0  0  0
  189.8650  177.3090  147.3640 C   0  0  0  0  0  2  0  0  0  0  0  0
  188.4370  177.6160  147.6460 C   0  0  0  0  0  0  0  0  0  0  0  0
  187.5770  177.5050  146.7350 O   0  0  0  0  0  0  0  0  0  0  0  0
  188.0470  177.9980  148.9230 O   0  0  0  0  0  1  0  0  0  0  0  0
  189.7140  177.0530  138.5140 C   0  0  1  0  0  3  0  0  0  0  0  0
  190.9010  176.7570  136.4620 F   0  0  0  0  0  0  0  0  0  0  0  0
  190.8090  176.2910  137.7640 C   0  0  0  0  0  0  0  0  0  0  0  0
  190.4840  174.9440  137.7380 F   0  0  0  0  0  0  0  0  0  0  0  0
  192.1460  176.4640  138.4860 C   0  0  0  0  0  2  0  0  0  0  0  0
  193.3290  176.4550  137.5230 C   0  0  0  0  0  2  0  0  0  0  0  0
  195.7970  171.4960  137.5880 C   0  0  0  0  0  2  0  0  0  0  0  0
  194.9420  174.7320  136.5850 C   0  0  0  0  0  0  0  0  0  0  0  0
  196.2410  172.7380  137.0400 N   0  0  0  0  0  0  0  0  0  0  0  0
  197.5330  173.2940  137.3360 C   0  0  0  0  0  3  0  0  0  0  0  0
  195.2120  173.3050  136.1940 C   0  0  1  0  0  3  0  0  0  0  0  0
  197.9890  174.4600  136.8610 C   0  0  0  0  0  0  0  0  0  0  0  0
  197.1900  175.3110  135.9060 C   0  0  0  0  0  2  0  0  0  0  0  0
  195.8740  175.6270  136.4520 N   0  0  0  0  0  0  0  0  0  0  0  0
  194.0520  172.5120  136.3190 O   0  0  0  0  0  0  0  0  0  0  0  0
  194.4380  171.3100  136.9540 C   0  0  0  0  0  2  0  0  0  0  0  0
  193.6780  175.0890  137.1530 N   0  0  0  0  0  2  0  0  0  0  0  0
  199.9240  174.3120  138.3910 C   0  0  0  0  0  1  0  0  0  0  0  0
  199.2640  174.8670  137.2620 O   0  0  0  0  0  0  0  0  0  0  0  0
  188.3350  176.7750  137.9150 C   0  0  0  0  0  2  0  0  0  0  0  0
  187.8670  177.9490  137.0760 C   0  0  0  0  0  1  0  0  0  0  0  0
  1  2  1  0  0  0  0
  2  6  2  0  0  0  0
  2 17  1  0  0  0  0
  3  1  2  0  0  0  0
  3  5  1  0  0  0  0
  4  1  1  0  0  0  0
  5  6  1  1  0  0  0
  7  5  1  0  0  0  0
  7  9  1  1  0  0  0
  8  7  1  0  0  0  0
  8  9  1  0  0  0  0
 10  8  1  0  0  0  0
 11 10  1  0  0  0  0
 12 11  1  6  0  0  0
 13 14  1  0  0  0  0
 13 12  1  0  0  0  0
 15 12  1  0  0  0  0
 16 15  1  0  0  0  0
 17 19  1  0  0  0  0
 19 20  2  6  0  0  0
 19 18  1  0  0  0  0
 19 21  1  0  0  0  0
 21 22  1  0  0  0  0
 22 23  1  0  0  0  0
 23 24  1  0  0  0  0
 24 26  1  0  0  0  0
 25 24  2  0  0  0  0
 27 46  1  6  0  0  0
 27  4  1  0  0  0  0
 28 29  1  0  0  0  0
 29 31  1  0  0  0  0
 29 27  1  0  0  0  0
 30 29  1  0  0  0  0
 32 31  1  0  0  0  0
 34 43  1  0  0  0  0
 35 36  1  0  0  0  0
 35 33  1  0  0  0  0
 37 41  1  1  0  0  0
 37 34  1  0  0  0  0
 37 35  1  0  0  0  0
 38 45  1  0  0  0  0
 38 36  2  0  0  0  0
 39 40  1  0  0  0  0
 39 38  1  0  0  0  0
 40 34  2  0  0  0  0
 41 42  1  0  0  0  0
 42 33  1  0  0  0  0
 43 32  1  0  0  0  0
 45 44  1  0  0  0  0
 47 46  1  0  0  0  0
M  END
>  <MODEL>
3

>  <REMARK>
 VINA RESULT:      -6.9      3.390      9.576
  Name = 
  19 active torsions:
  status: ('A' for Active; 'I' for Inactive)
    1  A    between atoms: C_1  and  C_8
    2  A    between atoms: C_5  and  O_33
    3  A    between atoms: C_5  and  C_38
    4  A    between atoms: N_6  and  C_24
    5  A    between atoms: C_7  and  P_10
    6  A    between atoms: C_7  and  C_15
    7  A    between atoms: C_8  and  C_11
    8  A    between atoms: C_8  and  N_43
    9  A    between atoms: P_10  and  O_33
   10  A    between atoms: C_11  and  C_12
   11  A    between atoms: C_12  and  C_42
   12  A    between atoms: C_14  and  C_45
   13  A    between atoms: N_18  and  C_22
   14  A    between atoms: C_19  and  C_38
   15  A    between atoms: C_22  and  C_39
   16  A    between atoms: C_24  and  O_34
   17  A    between atoms: C_24  and  C_39
   18  A    between atoms: C_26  and  O_40
   19  A    between atoms: N_36  and  C_42
                            x       y       z     vdW  Elec       q    Type
                         _______ _______ _______ _____ _____    ______ ____

>  <TORSDO>
F 19

$$$$
=
 OpenBabel10232411483D

 47 50  0  0  1  0  0  0  0  0999 V2000
  188.9190  177.2400  140.7010 C   0  0  0  0  0  0  0  0  0  0  0  0
  188.8470  176.9210  142.1070 C   0  0  0  0  0  0  0  0  0  0  0  0
  188.1530  178.2310  140.3950 N   0  0  0  0  0  0  0  0  0  0  0  0
  189.7420  176.5570  139.7540 N   0  0  0  0  0  2  0  0  0  0  0  0
  187.4730  178.6770  141.6090 C   0  0  2  0  0  3  0  0  0  0  0  0
  188.0010  177.7610  142.6770 C   0  0  0  0  0  3  0  0  0  0  0  0
  185.9740  178.4870  141.4550 C   0  0  2  0  0  3  0  0  0  0  0  0
  185.4770  179.4180  140.5000 N   0  0  0  0  0  0  0  0  0  0  0  0
  185.2920  179.6500  141.9080 N   0  0  0  0  0  2  0  0  0  0  0  0
  184.2290  178.8720  139.9950 C   0  0  0  0  0  2  0  0  0  0  0  0
  184.4550  178.2010  138.6490 C   0  0  0  0  0  2  0  0  0  0  0  0
  183.1260  177.7950  138.0080 C   0  0  2  0  0  3  0  0  0  0  0  0
  182.2470  178.9490  137.8500 N   0  0  0  0  0  2  0  0  0  0  0  0
  181.4450  178.7190  136.6610 C   0  0  0  0  0  1  0  0  0  0  0  0
  182.4900  176.7270  138.6840 O   0  0  0  0  0  0  0  0  0  0  0  0
  183.1800  175.5350  138.4080 C   0  0  0  0  0  1  0  0  0  0  0  0
  189.6310  175.8760  142.8230 C   0  0  0  0  0  2  0  0  0  0  0  0
  192.0220  175.4610  144.0630 O   0  0  0  0  0  1  0  0  0  0  0  0
  191.2080  176.5600  143.4170 P   0  0  1  0  0  0  0  0  0  0  0  0
  192.0650  177.2050  142.1080 O   0  0  0  0  0  0  0  0  0  0  0  0
  190.8770  177.7760  144.5530 O   0  0  0  0  0  0  0  0  0  0  0  0
  190.1980  177.1420  145.5940 C   0  0  0  0  0  2  0  0  0  0  0  0
  189.2150  178.1120  146.2190 C   0  0  0  0  0  2  0  0  0  0  0  0
  188.0860  177.3600  146.8320 C   0  0  0  0  0  0  0  0  0  0  0  0
  188.2680  176.7050  147.8910 O   0  0  0  0  0  1  0  0  0  0  0  0
  186.8250  177.4040  146.2530 O   0  0  0  0  0  0  0  0  0  0  0  0
  189.7370  176.8860  138.3330 C   0  0  1  0  0  3  0  0  0  0  0  0
  192.1150  177.1120  138.3710 F   0  0  0  0  0  0  0  0  0  0  0  0
  191.0740  176.4860  137.7030 C   0  0  0  0  0  0  0  0  0  0  0  0
  191.0850  176.8870  136.3760 F   0  0  0  0  0  0  0  0  0  0  0  0
  191.2400  174.9680  137.7640 C   0  0  0  0  0  2  0  0  0  0  0  0
  191.8710  174.4030  136.4960 C   0  0  0  0  0  2  0  0  0  0  0  0
  197.1900  174.6920  134.9730 C   0  0  0  0  0  2  0  0  0  0  0  0
  194.3610  174.3560  136.9960 C   0  0  0  0  0  0  0  0  0  0  0  0
  196.5860  174.0410  136.0920 N   0  0  0  0  0  0  0  0  0  0  0  0
  196.8370  172.6620  136.4100 C   0  0  0  0  0  3  0  0  0  0  0  0
  195.7220  174.9630  136.7980 C   0  0  1  0  0  3  0  0  0  0  0  0
  196.2860  172.0040  137.4370 C   0  0  0  0  0  0  0  0  0  0  0  0
  195.3540  172.6710  138.4190 C   0  0  0  0  0  2  0  0  0  0  0  0
  194.2260  173.2960  137.7360 N   0  0  0  0  0  0  0  0  0  0  0  0
  195.6450  176.1570  136.0490 O   0  0  0  0  0  0  0  0  0  0  0  0
  196.6800  176.1100  135.0880 C   0  0  0  0  0  2  0  0  0  0  0  0
  193.2250  174.9130  136.3260 N   0  0  0  0  0  2  0  0  0  0  0  0
  195.6510  169.6510  137.8460 C   0  0  0  0  0  1  0  0  0  0  0  0
  196.6220  170.6570  137.5970 O   0  0  0  0  0  0  0  0  0  0  0  0
  188.5670  176.1850  137.6430 C   0  0  0  0  0  2  0  0  0  0  0  0
  187.7830  177.1620  136.7870 C   0  0  0  0  0  1  0  0  0  0  0  0
  1  2  1  0  0  0  0
  2  6  2  0  0  0  0
  2 17  1  0  0  0  0
  3  1  2  0  0  0  0
  3  5  1  0  0  0  0
  4  1  1  0  0  0  0
  5  6  1  1  0  0  0
  7  5  1  0  0  0  0
  7  9  1  1  0  0  0
  8  7  1  0  0  0  0
  8  9  1  0  0  0  0
 10  8  1  0  0  0  0
 11 10  1  0  0  0  0
 12 11  1  1  0  0  0
 12 15  1  0  0  0  0
 13 12  1  0  0  0  0
 14 13  1  0  0  0  0
 16 15  1  0  0  0  0
 17 19  1  0  0  0  0
 19 20  2  6  0  0  0
 19 18  1  0  0  0  0
 19 21  1  0  0  0  0
 21 22  1  0  0  0  0
 22 23  1  0  0  0  0
 23 24  1  0  0  0  0
 24 25  1  0  0  0  0
 26 24  2  0  0  0  0
 27 46  1  6  0  0  0
 27  4  1  0  0  0  0
 29 31  1  0  0  0  0
 29 27  1  0  0  0  0
 29 28  1  0  0  0  0
 30 29  1  0  0  0  0
 32 31  1  0  0  0  0
 33 42  1  0  0  0  0
 33 35  1  0  0  0  0
 34 40  2  0  0  0  0
 35 36  1  0  0  0  0
 35 37  1  0  0  0  0
 36 38  2  0  0  0  0
 37 41  1  6  0  0  0
 37 34  1  0  0  0  0
 38 45  1  0  0  0  0
 38 39  1  0  0  0  0
 40 39  1  0  0  0  0
 42 41  1  0  0  0  0
 43 32  1  0  0  0  0
 43 34  1  0  0  0  0
 45 44  1  0  0  0  0
 47 46  1  0  0  0  0
M  END
>  <MODEL>
4

>  <REMARK>
 VINA RESULT:      -6.7      3.475      9.385
  Name = 
  19 active torsions:
  status: ('A' for Active; 'I' for Inactive)
    1  A    between atoms: C_1  and  C_8
    2  A    between atoms: C_5  and  O_33
    3  A    between atoms: C_5  and  C_38
    4  A    between atoms: N_6  and  C_24
    5  A    between atoms: C_7  and  P_10
    6  A    between atoms: C_7  and  C_15
    7  A    between atoms: C_8  and  C_11
    8  A    between atoms: C_8  and  N_43
    9  A    between atoms: P_10  and  O_33
   10  A    between atoms: C_11  and  C_12
   11  A    between atoms: C_12  and  C_42
   12  A    between atoms: C_14  and  C_45
   13  A    between atoms: N_18  and  C_22
   14  A    between atoms: C_19  and  C_38
   15  A    between atoms: C_22  and  C_39
   16  A    between atoms: C_24  and  O_34
   17  A    between atoms: C_24  and  C_39
   18  A    between atoms: C_26  and  O_40
   19  A    between atoms: N_36  and  C_42
                            x       y       z     vdW  Elec       q    Type
                         _______ _______ _______ _____ _____    ______ ____

>  <TORSDO>
F 19

$$$$
=
 OpenBabel10232411483D

 47 50  0  0  1  0  0  0  0  0999 V2000
  190.9710  177.0530  140.2700 C   0  0  0  0  0  0  0  0  0  0  0  0
  191.5930  176.8100  138.9910 C   0  0  0  0  0  0  0  0  0  0  0  0
  189.6850  176.9840  140.1970 N   0  0  0  0  0  0  0  0  0  0  0  0
  191.6790  177.3290  141.4800 N   0  0  0  0  0  2  0  0  0  0  0  0
  189.3190  176.6810  138.8160 C   0  0  2  0  0  3  0  0  0  0  0  0
  190.6400  176.5780  138.1060 C   0  0  0  0  0  3  0  0  0  0  0  0
  188.5060  177.8280  138.2390 C   0  0  2  0  0  3  0  0  0  0  0  0
  188.3590  177.6410  136.8360 N   0  0  0  0  0  0  0  0  0  0  0  0
  189.3120  178.5900  137.3490 N   0  0  0  0  0  2  0  0  0  0  0  0
  187.1850  178.3970  136.4360 C   0  0  0  0  0  2  0  0  0  0  0  0
  186.5480  177.7690  135.2060 C   0  0  0  0  0  2  0  0  0  0  0  0
  185.7430  176.5230  135.5800 C   0  0  2  0  0  3  0  0  0  0  0  0
  184.8620  176.7900  136.7130 N   0  0  0  0  0  2  0  0  0  0  0  0
  183.6120  177.2980  136.1740 C   0  0  0  0  0  1  0  0  0  0  0  0
  186.5550  175.3830  135.7910 O   0  0  0  0  0  0  0  0  0  0  0  0
  185.7740  174.2280  135.6270 C   0  0  0  0  0  1  0  0  0  0  0  0
  193.0560  176.7570  138.7090 C   0  0  0  0  0  2  0  0  0  0  0  0
  194.8780  175.6060  137.0410 O   0  0  0  0  0  0  0  0  0  0  0  0
  193.4030  175.5700  137.3760 P   0  0  1  0  0  0  0  0  0  0  0  0
  192.9770  174.0140  137.8880 O   0  0  0  0  0  1  0  0  0  0  0  0
  192.4920  176.0050  136.0120 O   0  0  0  0  0  0  0  0  0  0  0  0
  192.2240  174.8090  135.3440 C   0  0  0  0  0  2  0  0  0  0  0  0
  190.7350  174.6980  135.0870 C   0  0  0  0  0  2  0  0  0  0  0  0
  190.1940  173.4910  135.7690 C   0  0  0  0  0  0  0  0  0  0  0  0
  189.8830  173.5420  136.9860 O   0  0  0  0  0  1  0  0  0  0  0  0
  190.0060  172.3140  135.0550 O   0  0  0  0  0  0  0  0  0  0  0  0
  190.9980  177.6210  142.7360 C   0  0  1  0  0  3  0  0  0  0  0  0
  191.8370  176.0960  144.3720 F   0  0  0  0  0  0  0  0  0  0  0  0
  190.7710  176.3240  143.5160 C   0  0  0  0  0  0  0  0  0  0  0  0
  190.6790  175.2700  142.6210 F   0  0  0  0  0  0  0  0  0  0  0  0
  189.4660  176.4180  144.3070 C   0  0  0  0  0  2  0  0  0  0  0  0
  188.2380  176.4060  143.4020 C   0  0  0  0  0  2  0  0  0  0  0  0
  183.2090  178.4860  144.4390 C   0  0  0  0  0  2  0  0  0  0  0  0
  186.4450  178.1880  143.1540 C   0  0  0  0  0  0  0  0  0  0  0  0
  184.0840  178.7000  143.3300 N   0  0  0  0  0  0  0  0  0  0  0  0
  183.6520  178.5520  141.9670 C   0  0  0  0  0  3  0  0  0  0  0  0
  185.4050  179.0610  143.8000 C   0  0  1  0  0  3  0  0  0  0  0  0
  184.4360  178.7280  140.8950 C   0  0  0  0  0  0  0  0  0  0  0  0
  185.8780  179.1520  141.0090 C   0  0  0  0  0  2  0  0  0  0  0  0
  186.6310  178.2440  141.8690 N   0  0  0  0  0  0  0  0  0  0  0  0
  185.4250  178.9270  145.2040 O   0  0  0  0  0  0  0  0  0  0  0  0
  184.0820  178.8120  145.6290 C   0  0  0  0  0  2  0  0  0  0  0  0
  187.1900  177.2590  143.9480 N   0  0  0  0  0  2  0  0  0  0  0  0
  183.2960  179.5850  138.8770 C   0  0  0  0  0  1  0  0  0  0  0  0
  183.8630  178.5270  139.6360 O   0  0  0  0  0  0  0  0  0  0  0  0
  191.8170  178.6220  143.5500 C   0  0  0  0  0  2  0  0  0  0  0  0
  190.9090  179.5730  144.3050 C   0  0  0  0  0  1  0  0  0  0  0  0
  1  4  1  0  0  0  0
  2  1  1  0  0  0  0
  3  1  2  0  0  0  0
  4 27  1  0  0  0  0
  5  6  1  6  0  0  0
  5  3  1  0  0  0  0
  6  2  2  0  0  0  0
  7  9  1  6  0  0  0
  7  5  1  0  0  0  0
  8  9  1  0  0  0  0
  8  7  1  0  0  0  0
 10  8  1  0  0  0  0
 11 10  1  0  0  0  0
 12 11  1  1  0  0  0
 12 15  1  0  0  0  0
 12 13  1  0  0  0  0
 14 13  1  0  0  0  0
 16 15  1  0  0  0  0
 17  2  1  0  0  0  0
 19 18  2  6  0  0  0
 19 20  1  0  0  0  0
 19 17  1  0  0  0  0
 21 19  1  0  0  0  0
 22 21  1  0  0  0  0
 23 22  1  0  0  0  0
 23 24  1  0  0  0  0
 24 25  1  0  0  0  0
 26 24  2  0  0  0  0
 27 29  1  0  0  0  0
 27 46  1  1  0  0  0
 29 31  1  0  0  0  0
 29 28  1  0  0  0  0
 30 29  1  0  0  0  0
 32 43  1  0  0  0  0
 32 31  1  0  0  0  0
 33 42  1  0  0  0  0
 34 43  1  0  0  0  0
 35 37  1  0  0  0  0
 35 33  1  0  0  0  0
 36 35  1  0  0  0  0
 37 34  1  6  0  0  0
 37 41  1  0  0  0  0
 38 39  1  0  0  0  0
 38 36  2  0  0  0  0
 39 40  1  0  0  0  0
 40 34  2  0  0  0  0
 41 42  1  0  0  0  0
 44 45  1  0  0  0  0
 45 38  1  0  0  0  0
 46 47  1  0  0  0  0
M  END
>  <MODEL>
5

>  <REMARK>
 VINA RESULT:      -6.5      1.398      2.605
  Name = 
  19 active torsions:
  status: ('A' for Active; 'I' for Inactive)
    1  A    between atoms: C_1  and  C_8
    2  A    between atoms: C_5  and  O_33
    3  A    between atoms: C_5  and  C_38
    4  A    between atoms: N_6  and  C_24
    5  A    between atoms: C_7  and  P_10
    6  A    between atoms: C_7  and  C_15
    7  A    between atoms: C_8  and  C_11
    8  A    between atoms: C_8  and  N_43
    9  A    between atoms: P_10  and  O_33
   10  A    between atoms: C_11  and  C_12
   11  A    between atoms: C_12  and  C_42
   12  A    between atoms: C_14  and  C_45
   13  A    between atoms: N_18  and  C_22
   14  A    between atoms: C_19  and  C_38
   15  A    between atoms: C_22  and  C_39
   16  A    between atoms: C_24  and  O_34
   17  A    between atoms: C_24  and  C_39
   18  A    between atoms: C_26  and  O_40
   19  A    between atoms: N_36  and  C_42
                            x       y       z     vdW  Elec       q    Type
                         _______ _______ _______ _____ _____    ______ ____

>  <TORSDO>
F 19

$$$$
=
 OpenBabel10232411483D

 47 50  0  0  1  0  0  0  0  0999 V2000
  190.4700  176.5930  138.6130 C   0  0  0  0  0  0  0  0  0  0  0  0
  189.5720  177.7170  138.4990 C   0  0  0  0  0  0  0  0  0  0  0  0
  190.5390  176.1560  139.8240 N   0  0  0  0  0  0  0  0  0  0  0  0
  191.1950  176.0190  137.5230 N   0  0  0  0  0  2  0  0  0  0  0  0
  189.6660  176.9770  140.6580 C   0  0  2  0  0  3  0  0  0  0  0  0
  189.0710  177.9670  139.6960 C   0  0  0  0  0  3  0  0  0  0  0  0
  190.4940  177.7020  141.7060 C   0  0  2  0  0  3  0  0  0  0  0  0
  190.2380  177.1330  142.9840 N   0  0  0  0  0  0  0  0  0  0  0  0
  189.6350  178.3850  142.6100 N   0  0  0  0  0  2  0  0  0  0  0  0
  191.3840  177.4500  143.8190 C   0  0  0  0  0  2  0  0  0  0  0  0
  191.5200  176.4280  144.9370 C   0  0  0  0  0  2  0  0  0  0  0  0
  190.4830  176.6740  146.0350 C   0  0  2  0  0  3  0  0  0  0  0  0
  189.8440  177.9760  145.8680 N   0  0  0  0  0  2  0  0  0  0  0  0
  188.4360  177.8070  146.1800 C   0  0  0  0  0  1  0  0  0  0  0  0
  191.0040  176.4980  147.3380 O   0  0  0  0  0  0  0  0  0  0  0  0
  192.1540  175.6940  147.2670 C   0  0  0  0  0  1  0  0  0  0  0  0
  189.2060  178.4410  137.2490 C   0  0  0  0  0  2  0  0  0  0  0  0
  187.4420  178.1880  135.1870 O   0  0  0  0  0  0  0  0  0  0  0  0
  187.5620  177.9200  136.6720 P   0  0  1  0  0  0  0  0  0  0  0  0
  187.3650  176.2650  136.9670 O   0  0  0  0  0  1  0  0  0  0  0  0
  186.3860  178.8060  137.5140 O   0  0  0  0  0  0  0  0  0  0  0  0
  185.6390  177.8620  138.2180 C   0  0  0  0  0  2  0  0  0  0  0  0
  184.2110  178.3510  138.3600 C   0  0  0  0  0  2  0  0  0  0  0  0
  184.1770  179.5640  139.2220 C   0  0  0  0  0  0  0  0  0  0  0  0
  184.9130  179.6340  140.2390 O   0  0  0  0  0  1  0  0  0  0  0  0
  183.3550  180.6320  138.8880 O   0  0  0  0  0  0  0  0  0  0  0  0
  192.1320  174.9150  137.7030 C   0  0  1  0  0  3  0  0  0  0  0  0
  191.7580  174.5760  135.3680 F   0  0  0  0  0  0  0  0  0  0  0  0
  191.9690  173.9060  136.5630 C   0  0  0  0  0  0  0  0  0  0  0  0
  190.8740  173.1010  136.8270 F   0  0  0  0  0  0  0  0  0  0  0  0
  193.2180  173.0300  136.4670 C   0  0  0  0  0  2  0  0  0  0  0  0
  193.8420  173.0610  135.0760 C   0  0  0  0  0  2  0  0  0  0  0  0
  198.5860  170.8830  136.9330 C   0  0  0  0  0  2  0  0  0  0  0  0
  196.3660  173.0810  135.3690 C   0  0  0  0  0  0  0  0  0  0  0  0
  198.2470  172.2400  136.6410 N   0  0  0  0  0  0  0  0  0  0  0  0
  198.4670  173.3080  137.5770 C   0  0  0  0  0  3  0  0  0  0  0  0
  197.6700  172.3350  135.3170 C   0  0  1  0  0  3  0  0  0  0  0  0
  198.1540  174.5910  137.3560 C   0  0  0  0  0  0  0  0  0  0  0  0
  197.5640  175.0670  136.0530 C   0  0  0  0  0  2  0  0  0  0  0  0
  196.3480  174.3320  135.7220 N   0  0  0  0  0  0  0  0  0  0  0  0
  197.4920  171.0270  134.8190 O   0  0  0  0  0  0  0  0  0  0  0  0
  198.2330  170.1610  135.6530 C   0  0  0  0  0  2  0  0  0  0  0  0
  195.1400  172.3990  135.0820 N   0  0  0  0  0  2  0  0  0  0  0  0
  198.0680  175.2560  139.7350 C   0  0  0  0  0  1  0  0  0  0  0  0
  198.4170  175.5050  138.3810 O   0  0  0  0  0  0  0  0  0  0  0  0
  193.5610  175.4540  137.7680 C   0  0  0  0  0  2  0  0  0  0  0  0
  193.7380  176.6260  136.8220 C   0  0  0  0  0  1  0  0  0  0  0  0
  1  3  2  0  0  0  0
  2  1  1  0  0  0  0
  2  6  2  0  0  0  0
  3  5  1  0  0  0  0
  4 27  1  0  0  0  0
  4  1  1  0  0  0  0
  5  6  1  6  0  0  0
  5  7  1  0  0  0  0
  7  9  1  1  0  0  0
  7  8  1  0  0  0  0
  8 10  1  0  0  0  0
  9  8  1  0  0  0  0
 10 11  1  0  0  0  0
 12 11  1  6  0  0  0
 12 15  1  0  0  0  0
 13 12  1  0  0  0  0
 13 14  1  0  0  0  0
 16 15  1  0  0  0  0
 17  2  1  0  0  0  0
 19 18  2  6  0  0  0
 19 20  1  0  0  0  0
 19 17  1  0  0  0  0
 19 21  1  0  0  0  0
 21 22  1  0  0  0  0
 22 23  1  0  0  0  0
 23 24  1  0  0  0  0
 24 25  1  0  0  0  0
 26 24  2  0  0  0  0
 27 46  1  6  0  0  0
 28 29  1  0  0  0  0
 29 30  1  0  0  0  0
 29 27  1  0  0  0  0
 31 29  1  0  0  0  0
 32 43  1  0  0  0  0
 32 31  1  0  0  0  0
 34 40  2  0  0  0  0
 35 33  1  0  0  0  0
 35 36  1  0  0  0  0
 37 41  1  1  0  0  0
 37 34  1  0  0  0  0
 37 35  1  0  0  0  0
 38 36  2  0  0  0  0
 38 45  1  0  0  0  0
 39 38  1  0  0  0  0
 40 39  1  0  0  0  0
 41 42  1  0  0  0  0
 42 33  1  0  0  0  0
 43 34  1  0  0  0  0
 45 44  1  0  0  0  0
 47 46  1  0  0  0  0
M  END
>  <MODEL>
6

>  <REMARK>
 VINA RESULT:      -6.5      3.842     11.252
  Name = 
  19 active torsions:
  status: ('A' for Active; 'I' for Inactive)
    1  A    between atoms: C_1  and  C_8
    2  A    between atoms: C_5  and  O_33
    3  A    between atoms: C_5  and  C_38
    4  A    between atoms: N_6  and  C_24
    5  A    between atoms: C_7  and  P_10
    6  A    between atoms: C_7  and  C_15
    7  A    between atoms: C_8  and  C_11
    8  A    between atoms: C_8  and  N_43
    9  A    between atoms: P_10  and  O_33
   10  A    between atoms: C_11  and  C_12
   11  A    between atoms: C_12  and  C_42
   12  A    between atoms: C_14  and  C_45
   13  A    between atoms: N_18  and  C_22
   14  A    between atoms: C_19  and  C_38
   15  A    between atoms: C_22  and  C_39
   16  A    between atoms: C_24  and  O_34
   17  A    between atoms: C_24  and  C_39
   18  A    between atoms: C_26  and  O_40
   19  A    between atoms: N_36  and  C_42
                            x       y       z     vdW  Elec       q    Type
                         _______ _______ _______ _____ _____    ______ ____

>  <TORSDO>
F 19

$$$$
=
 OpenBabel10232411483D

 47 50  0  0  1  0  0  0  0  0999 V2000
  190.2250  176.8860  138.9790 C   0  0  0  0  0  0  0  0  0  0  0  0
  189.2540  177.9410  139.1380 C   0  0  0  0  0  0  0  0  0  0  0  0
  190.4960  176.3120  140.1010 N   0  0  0  0  0  0  0  0  0  0  0  0
  190.8160  176.5060  137.7350 N   0  0  0  0  0  2  0  0  0  0  0  0
  189.7060  176.9550  141.1480 C   0  0  2  0  0  3  0  0  0  0  0  0
  188.9190  178.0040  140.4140 C   0  0  0  0  0  3  0  0  0  0  0  0
  190.6330  177.6100  142.1580 C   0  0  2  0  0  3  0  0  0  0  0  0
  190.3240  177.1290  143.4610 N   0  0  0  0  0  0  0  0  0  0  0  0
  189.8790  178.4320  143.0410 N   0  0  0  0  0  2  0  0  0  0  0  0
  191.5130  177.3320  144.2720 C   0  0  0  0  0  2  0  0  0  0  0  0
  191.4450  176.4770  145.5280 C   0  0  0  0  0  2  0  0  0  0  0  0
  190.9180  177.2860  146.7150 C   0  0  2  0  0  3  0  0  0  0  0  0
  191.5830  176.8920  147.9530 N   0  0  0  0  0  2  0  0  0  0  0  0
  192.4030  175.7320  147.6490 C   0  0  0  0  0  1  0  0  0  0  0  0
  189.5080  177.2460  146.8290 O   0  0  0  0  0  0  0  0  0  0  0  0
  189.1340  177.7820  148.0720 C   0  0  0  0  0  1  0  0  0  0  0  0
  188.6660  178.7800  138.0550 C   0  0  0  0  0  2  0  0  0  0  0  0
  185.9480  178.5850  138.0890 O   0  0  0  0  0  1  0  0  0  0  0  0
  187.1600  178.0030  137.3960 P   0  0  1  0  0  0  0  0  0  0  0  0
  187.0590  178.3030  135.7330 O   0  0  0  0  0  0  0  0  0  0  0  0
  187.2410  176.3330  137.6830 O   0  0  0  0  0  0  0  0  0  0  0  0
  186.2320  175.7690  136.9030 C   0  0  0  0  0  2  0  0  0  0  0  0
  186.7440  174.4970  136.2570 C   0  0  0  0  0  2  0  0  0  0  0  0
  186.5440  173.3470  137.1800 C   0  0  0  0  0  0  0  0  0  0  0  0
  185.4920  173.2650  137.8640 O   0  0  0  0  0  1  0  0  0  0  0  0
  187.5040  172.3480  137.2650 O   0  0  0  0  0  0  0  0  0  0  0  0
  191.8340  175.4660  137.6380 C   0  0  1  0  0  3  0  0  0  0  0  0
  191.3610  175.1540  135.3170 F   0  0  0  0  0  0  0  0  0  0  0  0
  191.4660  174.4820  136.5250 C   0  0  0  0  0  0  0  0  0  0  0  0
  190.2450  173.9000  136.8230 F   0  0  0  0  0  0  0  0  0  0  0  0
  192.5280  173.3860  136.4320 C   0  0  0  0  0  2  0  0  0  0  0  0
  193.1980  173.3440  135.0630 C   0  0  0  0  0  2  0  0  0  0  0  0
  197.6620  170.7410  137.0630 C   0  0  0  0  0  2  0  0  0  0  0  0
  195.7070  173.0950  135.3750 C   0  0  0  0  0  0  0  0  0  0  0  0
  197.4790  172.1110  136.7020 N   0  0  0  0  0  0  0  0  0  0  0  0
  197.8140  173.1930  137.5860 C   0  0  0  0  0  3  0  0  0  0  0  0
  196.9190  172.2050  135.3700 C   0  0  1  0  0  3  0  0  0  0  0  0
  197.6490  174.4910  137.3010 C   0  0  0  0  0  0  0  0  0  0  0  0
  197.1200  174.9650  135.9710 C   0  0  0  0  0  2  0  0  0  0  0  0
  195.8300  174.3550  135.6660 N   0  0  0  0  0  0  0  0  0  0  0  0
  196.5960  170.9030  134.9350 O   0  0  0  0  0  0  0  0  0  0  0  0
  197.2330  170.0010  135.8170 C   0  0  0  0  0  2  0  0  0  0  0  0
  194.4140  172.5410  135.1110 N   0  0  0  0  0  2  0  0  0  0  0  0
  197.9240  175.1360  139.6700 C   0  0  0  0  0  1  0  0  0  0  0  0
  198.0100  175.4190  138.2810 O   0  0  0  0  0  0  0  0  0  0  0  0
  193.2020  176.1010  137.3880 C   0  0  0  0  0  2  0  0  0  0  0  0
  194.1730  175.7400  138.4940 C   0  0  0  0  0  1  0  0  0  0  0  0
  1  2  1  0  0  0  0
  1  3  2  0  0  0  0
  2  6  2  0  0  0  0
  3  5  1  0  0  0  0
  4  1  1  0  0  0  0
  5  6  1  6  0  0  0
  5  7  1  0  0  0  0
  7  9  1  1  0  0  0
  7  8  1  0  0  0  0
  8 10  1  0  0  0  0
  9  8  1  0  0  0  0
 10 11  1  0  0  0  0
 12 11  1  6  0  0  0
 12 15  1  0  0  0  0
 12 13  1  0  0  0  0
 14 13  1  0  0  0  0
 15 16  1  0  0  0  0
 17  2  1  0  0  0  0
 19 20  2  6  0  0  0
 19 21  1  0  0  0  0
 19 17  1  0  0  0  0
 19 18  1  0  0  0  0
 22 21  1  0  0  0  0
 23 22  1  0  0  0  0
 23 24  1  0  0  0  0
 24 26  2  0  0  0  0
 24 25  1  0  0  0  0
 27 46  1  6  0  0  0
 27  4  1  0  0  0  0
 28 29  1  0  0  0  0
 29 30  1  0  0  0  0
 29 27  1  0  0  0  0
 31 29  1  0  0  0  0
 32 43  1  0  0  0  0
 32 31  1  0  0  0  0
 34 40  2  0  0  0  0
 35 33  1  0  0  0  0
 35 36  1  0  0  0  0
 37 41  1  1  0  0  0
 37 34  1  0  0  0  0
 37 35  1  0  0  0  0
 38 36  2  0  0  0  0
 38 45  1  0  0  0  0
 39 38  1  0  0  0  0
 40 39  1  0  0  0  0
 41 42  1  0  0  0  0
 42 33  1  0  0  0  0
 43 34  1  0  0  0  0
 45 44  1  0  0  0  0
 46 47  1  0  0  0  0
M  END
>  <MODEL>
7

>  <REMARK>
 VINA RESULT:      -6.3      3.838     10.921
  Name = 
  19 active torsions:
  status: ('A' for Active; 'I' for Inactive)
    1  A    between atoms: C_1  and  C_8
    2  A    between atoms: C_5  and  O_33
    3  A    between atoms: C_5  and  C_38
    4  A    between atoms: N_6  and  C_24
    5  A    between atoms: C_7  and  P_10
    6  A    between atoms: C_7  and  C_15
    7  A    between atoms: C_8  and  C_11
    8  A    between atoms: C_8  and  N_43
    9  A    between atoms: P_10  and  O_33
   10  A    between atoms: C_11  and  C_12
   11  A    between atoms: C_12  and  C_42
   12  A    between atoms: C_14  and  C_45
   13  A    between atoms: N_18  and  C_22
   14  A    between atoms: C_19  and  C_38
   15  A    between atoms: C_22  and  C_39
   16  A    between atoms: C_24  and  O_34
   17  A    between atoms: C_24  and  C_39
   18  A    between atoms: C_26  and  O_40
   19  A    between atoms: N_36  and  C_42
                            x       y       z     vdW  Elec       q    Type
                         _______ _______ _______ _____ _____    ______ ____

>  <TORSDO>
F 19

$$$$
=
 OpenBabel10232411483D

 47 50  0  0  1  0  0  0  0  0999 V2000
  185.1640  176.9280  137.3970 C   0  0  0  0  0  0  0  0  0  0  0  0
  186.3410  176.9080  136.5620 C   0  0  0  0  0  0  0  0  0  0  0  0
  184.7270  175.7390  137.6370 N   0  0  0  0  0  0  0  0  0  0  0  0
  184.5510  178.1130  137.9100 N   0  0  0  0  0  2  0  0  0  0  0  0
  185.6000  174.7840  136.9600 C   0  0  2  0  0  3  0  0  0  0  0  0
  186.6320  175.6480  136.2900 C   0  0  0  0  0  3  0  0  0  0  0  0
  184.8070  174.0160  135.9160 C   0  0  2  0  0  3  0  0  0  0  0  0
  185.1110  172.6300  136.0190 N   0  0  0  0  0  0  0  0  0  0  0  0
  185.6940  173.4280  134.9730 N   0  0  0  0  0  2  0  0  0  0  0  0
  183.9930  171.9140  135.4290 C   0  0  0  0  0  2  0  0  0  0  0  0
  182.6840  172.6130  135.7630 C   0  0  0  0  0  2  0  0  0  0  0  0
  181.5240  171.6170  135.8040 C   0  0  2  0  0  3  0  0  0  0  0  0
  180.8710  171.6290  137.1090 N   0  0  0  0  0  2  0  0  0  0  0  0
  180.5430  173.0110  137.4130 C   0  0  0  0  0  1  0  0  0  0  0  0
  181.9010  170.3130  135.4060 O   0  0  0  0  0  0  0  0  0  0  0  0
  180.7460  169.5810  135.0840 C   0  0  0  0  0  1  0  0  0  0  0  0
  187.1450  178.0860  136.1280 C   0  0  0  0  0  2  0  0  0  0  0  0
  189.8030  177.5800  136.4430 O   0  0  0  0  0  0  0  0  0  0  0  0
  188.6410  178.2450  137.1480 P   0  0  1  0  0  0  0  0  0  0  0  0
  188.9850  179.8850  137.3840 O   0  0  0  0  0  1  0  0  0  0  0  0
  188.3640  177.4870  138.6400 O   0  0  0  0  0  0  0  0  0  0  0  0
  189.3530  176.5090  138.7530 C   0  0  0  0  0  2  0  0  0  0  0  0
  190.1500  176.7420  140.0220 C   0  0  0  0  0  2  0  0  0  0  0  0
  191.5750  177.0000  139.6820 C   0  0  0  0  0  0  0  0  0  0  0  0
  192.0310  176.6410  138.5660 O   0  0  0  0  0  0  0  0  0  0  0  0
  192.3960  177.6640  140.5840 O   0  0  0  0  0  1  0  0  0  0  0  0
  183.3300  178.0790  138.7060 C   0  0  1  0  0  3  0  0  0  0  0  0
  182.2490  179.3360  140.4260 F   0  0  0  0  0  0  0  0  0  0  0  0
  183.4940  178.9610  139.9460 C   0  0  0  0  0  0  0  0  0  0  0  0
  184.2040  180.0990  139.5990 F   0  0  0  0  0  0  0  0  0  0  0  0
  184.2710  178.2010  141.0210 C   0  0  0  0  0  2  0  0  0  0  0  0
  185.2270  179.1040  141.7930 C   0  0  0  0  0  2  0  0  0  0  0  0
  187.0520  178.6340  147.0020 C   0  0  0  0  0  2  0  0  0  0  0  0
  186.3160  177.8100  143.6870 C   0  0  0  0  0  0  0  0  0  0  0  0
  187.4620  177.9490  145.8170 N   0  0  0  0  0  0  0  0  0  0  0  0
  188.8380  177.8620  145.4140 C   0  0  0  0  0  3  0  0  0  0  0  0
  186.3080  177.4020  145.1350 C   0  0  1  0  0  3  0  0  0  0  0  0
  189.2700  177.2440  144.3070 C   0  0  0  0  0  0  0  0  0  0  0  0
  188.3380  176.5210  143.3680 C   0  0  0  0  0  2  0  0  0  0  0  0
  187.2680  177.3990  142.9040 N   0  0  0  0  0  0  0  0  0  0  0  0
  185.1480  177.8650  145.7900 O   0  0  0  0  0  0  0  0  0  0  0  0
  185.5590  178.4050  147.0300 C   0  0  0  0  0  2  0  0  0  0  0  0
  185.3060  178.6930  143.1880 N   0  0  0  0  0  2  0  0  0  0  0  0
  191.3360  178.4550  143.6930 C   0  0  0  0  0  1  0  0  0  0  0  0
  190.6440  177.2660  144.0490 O   0  0  0  0  0  0  0  0  0  0  0  0
  182.1440  178.5330  137.8550 C   0  0  0  0  0  2  0  0  0  0  0  0
  181.0190  177.5180  137.9130 C   0  0  0  0  0  1  0  0  0  0  0  0
  1  3  2  0  0  0  0
  1  4  1  0  0  0  0
  2  1  1  0  0  0  0
  4 27  1  0  0  0  0
  5  6  1  6  0  0  0
  5  3  1  0  0  0  0
  6  2  2  0  0  0  0
  7  9  1  6  0  0  0
  7  8  1  0  0  0  0
  7  5  1  0  0  0  0
  9  8  1  0  0  0  0
 10 11  1  0  0  0  0
 10  8  1  0  0  0  0
 12 11  1  1  0  0  0
 12 13  1  0  0  0  0
 13 14  1  0  0  0  0
 15 12  1  0  0  0  0
 16 15  1  0  0  0  0
 17  2  1  0  0  0  0
 17 19  1  0  0  0  0
 19 18  2  6  0  0  0
 19 20  1  0  0  0  0
 19 21  1  0  0  0  0
 21 22  1  0  0  0  0
 22 23  1  0  0  0  0
 24 23  1  0  0  0  0
 24 26  1  0  0  0  0
 25 24  2  0  0  0  0
 27 46  1  6  0  0  0
 27 29  1  0  0  0  0
 29 28  1  0  0  0  0
 29 31  1  0  0  0  0
 30 29  1  0  0  0  0
 31 32  1  0  0  0  0
 32 43  1  0  0  0  0
 33 42  1  0  0  0  0
 35 33  1  0  0  0  0
 36 35  1  0  0  0  0
 37 34  1  6  0  0  0
 37 41  1  0  0  0  0
 37 35  1  0  0  0  0
 38 36  2  0  0  0  0
 39 38  1  0  0  0  0
 40 39  1  0  0  0  0
 40 34  2  0  0  0  0
 41 42  1  0  0  0  0
 43 34  1  0  0  0  0
 44 45  1  0  0  0  0
 45 38  1  0  0  0  0
 46 47  1  0  0  0  0
M  END
>  <MODEL>
8

>  <REMARK>
 VINA RESULT:      -6.2      3.810      6.580
  Name = 
  19 active torsions:
  status: ('A' for Active; 'I' for Inactive)
    1  A    between atoms: C_1  and  C_8
    2  A    between atoms: C_5  and  O_33
    3  A    between atoms: C_5  and  C_38
    4  A    between atoms: N_6  and  C_24
    5  A    between atoms: C_7  and  P_10
    6  A    between atoms: C_7  and  C_15
    7  A    between atoms: C_8  and  C_11
    8  A    between atoms: C_8  and  N_43
    9  A    between atoms: P_10  and  O_33
   10  A    between atoms: C_11  and  C_12
   11  A    between atoms: C_12  and  C_42
   12  A    between atoms: C_14  and  C_45
   13  A    between atoms: N_18  and  C_22
   14  A    between atoms: C_19  and  C_38
   15  A    between atoms: C_22  and  C_39
   16  A    between atoms: C_24  and  O_34
   17  A    between atoms: C_24  and  C_39
   18  A    between atoms: C_26  and  O_40
   19  A    between atoms: N_36  and  C_42
                            x       y       z     vdW  Elec       q    Type
                         _______ _______ _______ _____ _____    ______ ____

>  <TORSDO>
F 19

$$$$
=
 OpenBabel10232411483D

 47 50  0  0  1  0  0  0  0  0999 V2000
  188.0840  177.6920  140.8850 C   0  0  0  0  0  0  0  0  0  0  0  0
  187.9180  177.3500  142.2770 C   0  0  0  0  0  0  0  0  0  0  0  0
  187.3860  178.7260  140.5590 N   0  0  0  0  0  0  0  0  0  0  0  0
  188.9250  176.9870  139.9700 N   0  0  0  0  0  2  0  0  0  0  0  0
  186.6620  179.1820  141.7430 C   0  0  2  0  0  3  0  0  0  0  0  0
  187.0840  178.2200  142.8180 C   0  0  0  0  0  3  0  0  0  0  0  0
  185.1660  179.0710  141.5030 C   0  0  2  0  0  3  0  0  0  0  0  0
  184.9260  178.1280  140.4640 N   0  0  0  0  0  0  0  0  0  0  0  0
  184.8520  179.5410  140.1980 N   0  0  0  0  0  2  0  0  0  0  0  0
  183.5600  177.6600  140.6340 C   0  0  0  0  0  2  0  0  0  0  0  0
  183.2180  176.6370  139.5620 C   0  0  0  0  0  2  0  0  0  0  0  0
  182.0580  177.1220  138.6910 C   0  0  2  0  0  3  0  0  0  0  0  0
  180.7760  176.8850  139.3470 N   0  0  0  0  0  2  0  0  0  0  0  0
  180.6590  175.4520  139.5560 C   0  0  0  0  0  1  0  0  0  0  0  0
  182.0930  176.5940  137.3790 O   0  0  0  0  0  0  0  0  0  0  0  0
  182.1200  177.6550  136.4580 C   0  0  0  0  0  1  0  0  0  0  0  0
  188.6080  176.2520  143.0130 C   0  0  0  0  0  2  0  0  0  0  0  0
  191.3020  176.0030  143.3380 O   0  0  0  0  0  1  0  0  0  0  0  0
  190.1400  176.8660  143.7770 P   0  0  1  0  0  0  0  0  0  0  0  0
  190.4050  178.4650  143.2900 O   0  0  0  0  0  0  0  0  0  0  0  0
  189.9720  176.7910  145.4640 O   0  0  0  0  0  0  0  0  0  0  0  0
  189.2970  177.9570  145.8250 C   0  0  0  0  0  2  0  0  0  0  0  0
  188.5010  177.7080  147.0910 C   0  0  0  0  0  2  0  0  0  0  0  0
  187.0660  178.0230  146.8560 C   0  0  0  0  0  0  0  0  0  0  0  0
  186.5210  178.9750  147.4710 O   0  0  0  0  0  1  0  0  0  0  0  0
  186.3340  177.2850  145.9340 O   0  0  0  0  0  0  0  0  0  0  0  0
  189.0160  177.3430  138.5580 C   0  0  1  0  0  3  0  0  0  0  0  0
  190.6080  177.2920  136.7790 F   0  0  0  0  0  0  0  0  0  0  0  0
  190.1960  176.6110  137.9130 C   0  0  0  0  0  0  0  0  0  0  0  0
  189.7920  175.3360  137.5520 F   0  0  0  0  0  0  0  0  0  0  0  0
  191.3450  176.5020  138.9150 C   0  0  0  0  0  2  0  0  0  0  0  0
  192.7100  176.5360  138.2360 C   0  0  0  0  0  2  0  0  0  0  0  0
  195.0870  171.8460  136.4910 C   0  0  0  0  0  2  0  0  0  0  0  0
  193.9930  175.1640  136.5260 C   0  0  0  0  0  0  0  0  0  0  0  0
  195.3630  173.2030  136.1430 N   0  0  0  0  0  0  0  0  0  0  0  0
  196.6870  173.7590  136.1950 C   0  0  0  0  0  3  0  0  0  0  0  0
  194.1410  173.8780  135.7610 C   0  0  1  0  0  3  0  0  0  0  0  0
  196.9950  175.0260  135.8920 C   0  0  0  0  0  0  0  0  0  0  0  0
  195.9640  176.0160  135.4120 C   0  0  0  0  0  2  0  0  0  0  0  0
  194.8540  176.1230  136.3520 N   0  0  0  0  0  0  0  0  0  0  0  0
  193.0590  173.0070  136.0120 O   0  0  0  0  0  0  0  0  0  0  0  0
  193.6040  171.7210  136.2260 C   0  0  0  0  0  2  0  0  0  0  0  0
  192.9390  175.3100  137.4830 N   0  0  0  0  0  2  0  0  0  0  0  0
  199.3340  174.9970  135.0950 C   0  0  0  0  0  1  0  0  0  0  0  0
  198.3330  175.4130  136.0130 O   0  0  0  0  0  0  0  0  0  0  0  0
  187.7020  177.0070  137.8530 C   0  0  0  0  0  2  0  0  0  0  0  0
  187.2070  178.1910  137.0450 C   0  0  0  0  0  1  0  0  0  0  0  0
  1  2  1  0  0  0  0
  2  6  2  0  0  0  0
  2 17  1  0  0  0  0
  3  1  2  0  0  0  0
  3  5  1  0  0  0  0
  4  1  1  0  0  0  0
  5  6  1  1  0  0  0
  7  9  1  6  0  0  0
  7  5  1  0  0  0  0
  8 10  1  0  0  0  0
  8  7  1  0  0  0  0
  9  8  1  0  0  0  0
 11 10  1  0  0  0  0
 12 13  1  0  0  0  0
 12 11  1  1  0  0  0
 13 14  1  0  0  0  0
 15 12  1  0  0  0  0
 16 15  1  0  0  0  0
 17 19  1  0  0  0  0
 18 19  1  0  0  0  0
 19 20  2  6  0  0  0
 19 21  1  0  0  0  0
 21 22  1  0  0  0  0
 22 23  1  0  0  0  0
 24 23  1  0  0  0  0
 24 25  1  0  0  0  0
 26 24  2  0  0  0  0
 27 46  1  6  0  0  0
 27  4  1  0  0  0  0
 28 29  1  0  0  0  0
 29 27  1  0  0  0  0
 29 31  1  0  0  0  0
 30 29  1  0  0  0  0
 32 31  1  0  0  0  0
 34 43  1  0  0  0  0
 35 36  1  0  0  0  0
 35 33  1  0  0  0  0
 37 41  1  1  0  0  0
 37 35  1  0  0  0  0
 37 34  1  0  0  0  0
 38 45  1  0  0  0  0
 38 36  2  0  0  0  0
 39 38  1  0  0  0  0
 39 40  1  0  0  0  0
 40 34  2  0  0  0  0
 41 42  1  0  0  0  0
 42 33  1  0  0  0  0
 43 32  1  0  0  0  0
 44 45  1  0  0  0  0
 47 46  1  0  0  0  0
M  END
>  <MODEL>
9

>  <REMARK>
 VINA RESULT:      -6.2      3.489      9.512
  Name = 
  19 active torsions:
  status: ('A' for Active; 'I' for Inactive)
    1  A    between atoms: C_1  and  C_8
    2  A    between atoms: C_5  and  O_33
    3  A    between atoms: C_5  and  C_38
    4  A    between atoms: N_6  and  C_24
    5  A    between atoms: C_7  and  P_10
    6  A    between atoms: C_7  and  C_15
    7  A    between atoms: C_8  and  C_11
    8  A    between atoms: C_8  and  N_43
    9  A    between atoms: P_10  and  O_33
   10  A    between atoms: C_11  and  C_12
   11  A    between atoms: C_12  and  C_42
   12  A    between atoms: C_14  and  C_45
   13  A    between atoms: N_18  and  C_22
   14  A    between atoms: C_19  and  C_38
   15  A    between atoms: C_22  and  C_39
   16  A    between atoms: C_24  and  O_34
   17  A    between atoms: C_24  and  C_39
   18  A    between atoms: C_26  and  O_40
   19  A    between atoms: N_36  and  C_42
                            x       y       z     vdW  Elec       q    Type
                         _______ _______ _______ _____ _____    ______ ____

>  <TORSDO>
F 19

$$$$
