=
 OpenBabel10222422033D

 44 48  0  0  1  0  0  0  0  0999 V2000
  183.3200  175.7130  135.7860 C   0  0  0  0  0  2  0  0  0  0  0  0
  180.7180  174.0290  138.1180 C   0  0  0  0  0  3  0  0  0  0  0  0
  186.4660  178.3200  134.8610 O   0  0  0  0  0  0  0  0  0  0  0  0
  185.3010  177.0350  136.4250 N   0  0  0  0  0  2  0  0  0  0  0  0
  184.8150  178.3120  140.8210 C   0  0  0  0  0  0  0  0  0  0  0  0
  186.2760  179.8330  137.7930 C   0  0  0  0  0  2  0  0  0  0  0  0
  181.2290  179.5130  137.4390 C   0  0  1  0  0  3  0  0  0  0  0  0
  183.2820  180.2920  138.1440 C   0  0  0  0  0  2  0  0  0  0  0  0
  186.2680  178.0260  136.0710 C   0  0  0  0  0  0  0  0  0  0  0  0
  184.7470  176.1210  135.4330 C   0  0  1  0  0  3  0  0  0  0  0  0
  183.1990  175.1470  137.1940 C   0  0  1  0  0  3  0  0  0  0  0  0
  185.6420  174.9030  135.2820 C   0  0  0  0  0  1  0  0  0  0  0  0
  180.5160  177.1840  140.1470 C   0  0  0  0  0  2  0  0  0  0  0  0
  179.9820  176.3150  139.0070 C   0  0  0  0  0  2  0  0  0  0  0  0
  184.1310  179.5690  139.0860 N   0  0  0  0  0  0  0  0  0  0  0  0
  182.6330  179.3740  137.3010 O   0  0  0  0  0  0  0  0  0  0  0  0
  182.3140  178.8600  140.6940 C   0  0  0  0  0  2  0  0  0  0  0  0
  183.7320  178.9360  140.2120 C   0  0  0  0  0  0  0  0  0  0  0  0
  181.0290  175.4400  138.3750 C   0  0  0  0  0  0  0  0  0  0  0  0
  182.1830  175.9570  137.9410 C   0  0  0  0  0  3  0  0  0  0  0  0
  181.4430  178.2630  139.6090 C   0  0  2  0  0  3  0  0  0  0  0  0
  180.6980  179.3630  138.8720 C   0  0  0  0  0  2  0  0  0  0  0  0
  187.0640  178.7120  137.1290 C   0  0  0  0  0  2  0  0  0  0  0  0
  185.4470  179.3220  138.9340 C   0  0  0  0  0  0  0  0  0  0  0  0
  182.8610  173.7550  137.1330 O   0  0  0  0  0  0  0  0  0  0  0  0
  185.9060  178.5560  139.9910 C   0  0  0  0  0  0  0  0  0  0  0  0
  181.6120  173.2390  137.5160 C   0  0  0  0  0  0  0  0  0  0  0  0
  181.2210  171.5480  135.9280 F   0  0  0  0  0  0  0  0  0  0  0  0
  182.2880  171.0000  137.8400 F   0  0  0  0  0  0  0  0  0  0  0  0
  180.0870  171.4720  137.8720 F   0  0  0  0  0  0  0  0  0  0  0  0
  181.2980  171.7940  137.2870 C   0  0  0  0  0  0  0  0  0  0  0  0
  185.7760  177.9170  142.9540 O   0  0  0  0  0  0  0  0  0  0  0  0
  184.4550  178.2770  143.2640 C   0  0  0  0  0  2  0  0  0  0  0  0
  184.7810  177.4700  142.0630 C   0  0  1  0  0  3  0  0  0  0  0  0
  187.2270  178.1110  140.1280 O   0  0  0  0  0  0  0  0  0  0  0  0
  188.2050  178.7780  140.9100 C   0  0  0  0  0  2  0  0  0  0  0  0
  189.1010  177.7610  141.5880 C   0  0  0  0  0  2  0  0  0  0  0  0
  189.1770  178.0330  142.9540 O   0  0  0  0  0  1  0  0  0  0  0  0
  180.6990  180.7840  136.7820 C   0  0  0  0  0  2  0  0  0  0  0  0
  180.9570  180.7770  135.2810 C   0  0  0  0  0  2  0  0  0  0  0  0
  180.6790  182.1420  134.6600 C   0  0  0  0  0  2  0  0  0  0  0  0
  180.0850  183.1180  135.6670 C   0  0  0  0  0  2  0  0  0  0  0  0
  181.1520  184.0350  136.2450 C   0  0  0  0  0  2  0  0  0  0  0  0
  180.5110  185.1610  137.0360 C   0  0  0  0  0  1  0  0  0  0  0  0
  2 19  1  0  0  0  0
  3  9  2  0  0  0  0
  6 24  1  0  0  0  0
  7 39  1  1  0  0  0
  7 22  1  0  0  0  0
  8 15  1  0  0  0  0
  9  4  1  0  0  0  0
  9 23  1  0  0  0  0
 10 12  1  1  0  0  0
 10  1  1  0  0  0  0
 10  4  1  0  0  0  0
 11  1  1  6  0  0  0
 11 20  1  0  0  0  0
 14 13  1  0  0  0  0
 15 18  1  0  0  0  0
 16  7  1  0  0  0  0
 16  8  1  0  0  0  0
 18 17  1  0  0  0  0
 18  5  2  0  0  0  0
 19 14  1  0  0  0  0
 20 19  2  0  0  0  0
 21 22  1  1  0  0  0
 21 13  1  0  0  0  0
 21 17  1  0  0  0  0
 23  6  1  0  0  0  0
 24 15  1  0  0  0  0
 24 26  2  0  0  0  0
 25 11  1  0  0  0  0
 25 27  1  0  0  0  0
 26 35  1  0  0  0  0
 26  5  1  0  0  0  0
 27  2  2  0  0  0  0
 28 31  1  0  0  0  0
 31 27  1  0  0  0  0
 31 29  1  0  0  0  0
 31 30  1  0  0  0  0
 32 33  1  0  0  0  0
 34  5  1  6  0  0  0
 34 32  1  0  0  0  0
 34 33  1  0  0  0  0
 35 36  1  0  0  0  0
 36 37  1  0  0  0  0
 37 38  1  0  0  0  0
 40 39  1  0  0  0  0
 41 40  1  0  0  0  0
 41 42  1  0  0  0  0
 42 43  1  0  0  0  0
 43 44  1  0  0  0  0
M  END
>  <MODEL>
1

>  <REMARK>
 VINA RESULT:      -3.1      0.000      0.000
  Name = 
  10 active torsions:
  status: ('A' for Active; 'I' for Inactive)
    1  A    between atoms: C_1  and  C_34
    2  A    between atoms: C_7  and  C_39
    3  A    between atoms: O_9  and  C_34
    4  A    between atoms: O_9  and  C_42
    5  A    between atoms: C_11  and  C_20
    6  A    between atoms: C_14  and  C_15
    7  A    between atoms: C_15  and  C_17
    8  A    between atoms: C_17  and  C_19
    9  A    between atoms: C_19  and  C_39
   10  A    between atoms: C_43  and  C_44
                            x       y       z     vdW  Elec       q    Type
                         _______ _______ _______ _____ _____    ______ ____

>  <TORSDO>
F 10

$$$$
=
 OpenBabel10222422033D

 44 48  0  0  1  0  0  0  0  0999 V2000
  185.1550  178.9200  138.8240 C   0  0  0  0  0  2  0  0  0  0  0  0
  186.6620  177.0040  135.8070 C   0  0  0  0  0  3  0  0  0  0  0  0
  182.2240  179.8010  141.6850 O   0  0  0  0  0  0  0  0  0  0  0  0
  183.2220  178.2840  140.2160 N   0  0  0  0  0  2  0  0  0  0  0  0
  180.8200  175.0750  137.9510 C   0  0  0  0  0  0  0  0  0  0  0  0
  179.9840  177.8750  140.2040 C   0  0  0  0  0  2  0  0  0  0  0  0
  181.7340  179.5550  135.7520 C   0  0  1  0  0  3  0  0  0  0  0  0
  180.2550  178.6310  137.2630 C   0  0  0  0  0  2  0  0  0  0  0  0
  182.1690  178.6890  141.0950 C   0  0  0  0  0  0  0  0  0  0  0  0
  184.5110  178.9640  140.2070 C   0  0  1  0  0  3  0  0  0  0  0  0
  185.2670  177.5080  138.2690 C   0  0  1  0  0  3  0  0  0  0  0  0
  185.4310  178.3630  141.2560 C   0  0  0  0  0  1  0  0  0  0  0  0
  183.2070  176.5030  134.4190 C   0  0  0  0  0  2  0  0  0  0  0  0
  184.4970  177.3240  134.4770 C   0  0  0  0  0  2  0  0  0  0  0  0
  180.3960  177.2780  137.7920 N   0  0  0  0  0  0  0  0  0  0  0  0
  181.5290  179.2070  137.1110 O   0  0  0  0  0  0  0  0  0  0  0  0
  181.0270  176.1380  135.6270 C   0  0  0  0  0  2  0  0  0  0  0  0
  180.7300  176.1680  137.0960 C   0  0  0  0  0  0  0  0  0  0  0  0
  185.2120  177.2300  135.7970 C   0  0  0  0  0  0  0  0  0  0  0  0
  184.5670  177.4670  136.9440 C   0  0  0  0  0  3  0  0  0  0  0  0
  182.1420  177.1140  135.3170 C   0  0  2  0  0  3  0  0  0  0  0  0
  181.5670  178.4020  134.7530 C   0  0  0  0  0  2  0  0  0  0  0  0
  181.0020  177.7920  141.3330 C   0  0  0  0  0  2  0  0  0  0  0  0
  180.3170  176.9270  139.0910 C   0  0  0  0  0  0  0  0  0  0  0  0
  186.6450  177.1260  138.1790 O   0  0  0  0  0  0  0  0  0  0  0  0
  180.5650  175.5720  139.2260 C   0  0  0  0  0  0  0  0  0  0  0  0
  187.3300  176.9620  136.9630 C   0  0  0  0  0  0  0  0  0  0  0  0
  189.2700  176.6710  135.6630 F   0  0  0  0  0  0  0  0  0  0  0  0
  189.4620  177.6950  137.6650 F   0  0  0  0  0  0  0  0  0  0  0  0
  189.0670  175.4800  137.5630 F   0  0  0  0  0  0  0  0  0  0  0  0
  188.8030  176.6990  136.9650 C   0  0  0  0  0  0  0  0  0  0  0  0
  181.5240  173.6340  136.2030 O   0  0  0  0  0  0  0  0  0  0  0  0
  182.6120  173.6100  137.0920 C   0  0  0  0  0  2  0  0  0  0  0  0
  181.2110  173.6750  137.5760 C   0  0  1  0  0  3  0  0  0  0  0  0
  180.5750  174.8910  140.4500 O   0  0  0  0  0  0  0  0  0  0  0  0
  180.0170  173.5990  140.6350 C   0  0  0  0  0  2  0  0  0  0  0  0
  179.9880  173.2600  142.1130 C   0  0  0  0  0  2  0  0  0  0  0  0
  179.9860  174.4330  142.8670 O   0  0  0  0  0  1  0  0  0  0  0  0
  180.9200  180.7760  135.3310 C   0  0  0  0  0  2  0  0  0  0  0  0
  180.4110  181.5430  136.5450 C   0  0  0  0  0  2  0  0  0  0  0  0
  181.1020  182.8960  136.6800 C   0  0  0  0  0  2  0  0  0  0  0  0
  180.3660  183.9930  135.9210 C   0  0  0  0  0  2  0  0  0  0  0  0
  180.3970  185.3090  136.6830 C   0  0  0  0  0  2  0  0  0  0  0  0
  181.5120  185.2980  137.7130 C   0  0  0  0  0  1  0  0  0  0  0  0
  1 10  1  0  0  0  0
  2 27  2  0  0  0  0
  4  9  1  0  0  0  0
  5 26  1  0  0  0  0
  6 23  1  0  0  0  0
  7 39  1  6  0  0  0
  7 16  1  0  0  0  0
  8 15  1  0  0  0  0
  9 23  1  0  0  0  0
  9  3  2  0  0  0  0
 10  4  1  0  0  0  0
 10 12  1  1  0  0  0
 11 20  1  6  0  0  0
 11  1  1  0  0  0  0
 13 14  1  0  0  0  0
 14 19  1  0  0  0  0
 15 24  1  0  0  0  0
 16  8  1  0  0  0  0
 17 18  1  0  0  0  0
 18 15  1  0  0  0  0
 18  5  2  0  0  0  0
 19  2  1  0  0  0  0
 19 20  2  0  0  0  0
 21 13  1  6  0  0  0
 21 17  1  0  0  0  0
 22 21  1  0  0  0  0
 22  7  1  0  0  0  0
 24 26  2  0  0  0  0
 24  6  1  0  0  0  0
 25 11  1  0  0  0  0
 26 35  1  0  0  0  0
 27 31  1  0  0  0  0
 27 25  1  0  0  0  0
 28 31  1  0  0  0  0
 31 30  1  0  0  0  0
 31 29  1  0  0  0  0
 32 33  1  0  0  0  0
 32 34  1  0  0  0  0
 33 34  1  0  0  0  0
 34  5  1  6  0  0  0
 35 36  1  0  0  0  0
 36 37  1  0  0  0  0
 37 38  1  0  0  0  0
 39 40  1  0  0  0  0
 40 41  1  0  0  0  0
 42 41  1  0  0  0  0
 42 43  1  0  0  0  0
 43 44  1  0  0  0  0
M  END
>  <MODEL>
2

>  <REMARK>
 VINA RESULT:      -3.0      3.171      6.311
  Name = 
  10 active torsions:
  status: ('A' for Active; 'I' for Inactive)
    1  A    between atoms: C_1  and  C_34
    2  A    between atoms: C_7  and  C_39
    3  A    between atoms: O_9  and  C_34
    4  A    between atoms: O_9  and  C_42
    5  A    between atoms: C_11  and  C_20
    6  A    between atoms: C_14  and  C_15
    7  A    between atoms: C_15  and  C_17
    8  A    between atoms: C_17  and  C_19
    9  A    between atoms: C_19  and  C_39
   10  A    between atoms: C_43  and  C_44
                            x       y       z     vdW  Elec       q    Type
                         _______ _______ _______ _____ _____    ______ ____

>  <TORSDO>
F 10

$$$$
=
 OpenBabel10222422033D

 44 48  0  0  1  0  0  0  0  0999 V2000
  184.0830  178.7630  139.7220 C   0  0  0  0  0  2  0  0  0  0  0  0
  187.5400  178.3450  138.0150 C   0  0  0  0  0  3  0  0  0  0  0  0
  180.0910  177.7690  140.5120 O   0  0  0  0  0  0  0  0  0  0  0  0
  182.2310  177.1380  139.8210 N   0  0  0  0  0  2  0  0  0  0  0  0
  182.9560  173.9410  136.5890 C   0  0  0  0  0  0  0  0  0  0  0  0
  179.9850  175.5870  138.0320 C   0  0  0  0  0  2  0  0  0  0  0  0
  182.7360  178.8390  135.2820 C   0  0  1  0  0  3  0  0  0  0  0  0
  181.2950  177.0930  135.7270 C   0  0  0  0  0  2  0  0  0  0  0  0
  180.8310  176.8980  139.9810 C   0  0  0  0  0  0  0  0  0  0  0  0
  182.9030  178.2240  140.5250 C   0  0  1  0  0  3  0  0  0  0  0  0
  185.0640  177.6750  139.3110 C   0  0  1  0  0  3  0  0  0  0  0  0
  183.3460  177.7620  141.9030 C   0  0  0  0  0  1  0  0  0  0  0  0
  185.8460  176.9720  134.9550 C   0  0  0  0  0  2  0  0  0  0  0  0
  186.4230  178.1670  135.7170 C   0  0  0  0  0  2  0  0  0  0  0  0
  181.7390  175.8000  136.2380 N   0  0  0  0  0  0  0  0  0  0  0  0
  182.0700  178.1150  136.3030 O   0  0  0  0  0  0  0  0  0  0  0  0
  183.7790  175.5460  134.7670 C   0  0  0  0  0  2  0  0  0  0  0  0
  182.8230  175.1000  135.8320 C   0  0  0  0  0  0  0  0  0  0  0  0
  186.3560  178.0180  137.2120 C   0  0  0  0  0  0  0  0  0  0  0  0
  185.2050  177.7100  137.8180 C   0  0  0  0  0  3  0  0  0  0  0  0
  184.3360  176.9070  135.1260 C   0  0  2  0  0  3  0  0  0  0  0  0
  183.6100  177.9910  134.3470 C   0  0  0  0  0  2  0  0  0  0  0  0
  180.2340  175.6070  139.5340 C   0  0  0  0  0  2  0  0  0  0  0  0
  181.2000  175.1350  137.2790 C   0  0  0  0  0  0  0  0  0  0  0  0
  186.3130  177.8610  139.9890 O   0  0  0  0  0  0  0  0  0  0  0  0
  181.9190  173.9770  137.5190 C   0  0  0  0  0  0  0  0  0  0  0  0
  187.4950  178.2660  139.3470 C   0  0  0  0  0  0  0  0  0  0  0  0
  189.3040  177.3880  140.5680 F   0  0  0  0  0  0  0  0  0  0  0  0
  189.6220  179.2900  139.3950 F   0  0  0  0  0  0  0  0  0  0  0  0
  188.3760  179.3150  141.2700 F   0  0  0  0  0  0  0  0  0  0  0  0
  188.7170  178.5710  140.1560 C   0  0  0  0  0  0  0  0  0  0  0  0
  185.2990  173.5770  136.5290 O   0  0  0  0  0  0  0  0  0  0  0  0
  184.9040  172.9050  137.6970 C   0  0  0  0  0  2  0  0  0  0  0  0
  184.0530  172.9230  136.4820 C   0  0  1  0  0  3  0  0  0  0  0  0
  181.6300  173.0670  138.5420 O   0  0  0  0  0  0  0  0  0  0  0  0
  181.1200  171.7620  138.3140 C   0  0  0  0  0  2  0  0  0  0  0  0
  180.2700  171.7560  137.0590 C   0  0  0  0  0  2  0  0  0  0  0  0
  180.3920  170.5260  136.4120 O   0  0  0  0  0  1  0  0  0  0  0  0
  181.7900  179.7380  134.4910 C   0  0  0  0  0  2  0  0  0  0  0  0
  180.6200  180.1980  135.3510 C   0  0  0  0  0  2  0  0  0  0  0  0
  181.0120  181.3690  136.2470 C   0  0  0  0  0  2  0  0  0  0  0  0
  179.9820  182.4910  136.2040 C   0  0  0  0  0  2  0  0  0  0  0  0
  180.6120  183.8030  135.7620 C   0  0  0  0  0  2  0  0  0  0  0  0
  180.4710  184.8510  136.8520 C   0  0  0  0  0  1  0  0  0  0  0  0
  1 10  1  0  0  0  0
  2 27  2  0  0  0  0
  4  9  1  0  0  0  0
  4 10  1  0  0  0  0
  5 26  1  0  0  0  0
  6 23  1  0  0  0  0
  7 39  1  6  0  0  0
  7 16  1  0  0  0  0
  8 15  1  0  0  0  0
  8 16  1  0  0  0  0
  9  3  2  0  0  0  0
 10 12  1  1  0  0  0
 11 20  1  6  0  0  0
 11  1  1  0  0  0  0
 11 25  1  0  0  0  0
 13 21  1  0  0  0  0
 13 14  1  0  0  0  0
 14 19  1  0  0  0  0
 15 24  1  0  0  0  0
 17 21  1  0  0  0  0
 17 18  1  0  0  0  0
 18 15  1  0  0  0  0
 18  5  2  0  0  0  0
 19 20  2  0  0  0  0
 19  2  1  0  0  0  0
 21 22  1  6  0  0  0
 22  7  1  0  0  0  0
 23  9  1  0  0  0  0
 24 26  2  0  0  0  0
 24  6  1  0  0  0  0
 26 35  1  0  0  0  0
 27 25  1  0  0  0  0
 27 31  1  0  0  0  0
 29 31  1  0  0  0  0
 31 28  1  0  0  0  0
 31 30  1  0  0  0  0
 32 33  1  0  0  0  0
 34 32  1  0  0  0  0
 34  5  1  1  0  0  0
 34 33  1  0  0  0  0
 36 35  1  0  0  0  0
 37 36  1  0  0  0  0
 38 37  1  0  0  0  0
 39 40  1  0  0  0  0
 40 41  1  0  0  0  0
 42 41  1  0  0  0  0
 43 42  1  0  0  0  0
 43 44  1  0  0  0  0
M  END
>  <MODEL>
3

>  <REMARK>
 VINA RESULT:      -2.6      3.331      7.069
  Name = 
  10 active torsions:
  status: ('A' for Active; 'I' for Inactive)
    1  A    between atoms: C_1  and  C_34
    2  A    between atoms: C_7  and  C_39
    3  A    between atoms: O_9  and  C_34
    4  A    between atoms: O_9  and  C_42
    5  A    between atoms: C_11  and  C_20
    6  A    between atoms: C_14  and  C_15
    7  A    between atoms: C_15  and  C_17
    8  A    between atoms: C_17  and  C_19
    9  A    between atoms: C_19  and  C_39
   10  A    between atoms: C_43  and  C_44
                            x       y       z     vdW  Elec       q    Type
                         _______ _______ _______ _____ _____    ______ ____

>  <TORSDO>
F 10

$$$$
=
 OpenBabel10222422033D

 44 48  0  0  1  0  0  0  0  0999 V2000
  183.7350  179.7650  139.0590 C   0  0  0  0  0  2  0  0  0  0  0  0
  186.3220  178.5220  141.6690 C   0  0  0  0  0  3  0  0  0  0  0  0
  181.3450  179.4520  135.6330 O   0  0  0  0  0  0  0  0  0  0  0  0
  182.5070  178.4350  137.3850 N   0  0  0  0  0  2  0  0  0  0  0  0
  184.6450  174.3840  136.9240 C   0  0  0  0  0  0  0  0  0  0  0  0
  182.8390  176.6700  134.6600 C   0  0  0  0  0  2  0  0  0  0  0  0
  187.2270  178.6910  136.1970 C   0  0  1  0  0  3  0  0  0  0  0  0
  185.7970  177.3040  135.0320 C   0  0  0  0  0  2  0  0  0  0  0  0
  181.8060  178.3950  136.1390 C   0  0  0  0  0  0  0  0  0  0  0  0
  182.4490  179.6030  138.2550 C   0  0  1  0  0  3  0  0  0  0  0  0
  184.1080  178.5110  139.8350 C   0  0  1  0  0  3  0  0  0  0  0  0
  181.2400  179.5170  139.1710 C   0  0  0  0  0  1  0  0  0  0  0  0
  188.0250  176.5030  138.9970 C   0  0  0  0  0  2  0  0  0  0  0  0
  187.9160  177.8020  139.7980 C   0  0  0  0  0  2  0  0  0  0  0  0
  185.1030  176.1760  135.6440 N   0  0  0  0  0  0  0  0  0  0  0  0
  185.8690  178.3640  135.9530 O   0  0  0  0  0  0  0  0  0  0  0  0
  187.0370  175.3010  137.0170 C   0  0  0  0  0  2  0  0  0  0  0  0
  185.6250  175.2820  136.5150 C   0  0  0  0  0  0  0  0  0  0  0  0
  186.5220  178.0990  140.2780 C   0  0  0  0  0  0  0  0  0  0  0  0
  185.4900  178.0980  139.4280 C   0  0  0  0  0  3  0  0  0  0  0  0
  187.3290  176.6440  137.6520 C   0  0  2  0  0  3  0  0  0  0  0  0
  188.1000  177.5250  136.6820 C   0  0  0  0  0  2  0  0  0  0  0  0
  181.6000  177.0970  135.4350 C   0  0  0  0  0  2  0  0  0  0  0  0
  183.7900  175.8980  135.5250 C   0  0  0  0  0  0  0  0  0  0  0  0
  183.9970  178.7570  141.2430 O   0  0  0  0  0  0  0  0  0  0  0  0
  183.4720  174.7920  136.2940 C   0  0  0  0  0  0  0  0  0  0  0  0
  185.1000  178.8370  142.1090 C   0  0  0  0  0  0  0  0  0  0  0  0
  185.0870  180.6000  143.6670 F   0  0  0  0  0  0  0  0  0  0  0  0
  183.6200  178.9090  143.9470 F   0  0  0  0  0  0  0  0  0  0  0  0
  185.8110  178.5790  144.3460 F   0  0  0  0  0  0  0  0  0  0  0  0
  184.9010  179.2360  143.5380 C   0  0  0  0  0  0  0  0  0  0  0  0
  184.2460  172.0930  137.3930 O   0  0  0  0  0  0  0  0  0  0  0  0
  185.6480  172.1740  137.3790 C   0  0  0  0  0  2  0  0  0  0  0  0
  184.8090  173.2720  137.9190 C   0  0  1  0  0  3  0  0  0  0  0  0
  182.1860  174.2510  136.4040 O   0  0  0  0  0  0  0  0  0  0  0  0
  181.4700  174.1630  137.6260 C   0  0  0  0  0  2  0  0  0  0  0  0
  181.7790  175.3720  138.4890 C   0  0  0  0  0  2  0  0  0  0  0  0
  180.5980  175.8760  139.0350 O   0  0  0  0  0  1  0  0  0  0  0  0
  187.8750  179.4150  135.0200 C   0  0  0  0  0  2  0  0  0  0  0  0
  189.2160  178.7880  134.6580 C   0  0  0  0  0  2  0  0  0  0  0  0
  189.0710  177.3010  134.3460 C   0  0  0  0  0  2  0  0  0  0  0  0
  190.4150  176.5840  134.3460 C   0  0  0  0  0  2  0  0  0  0  0  0
  190.2920  175.1790  134.9160 C   0  0  0  0  0  2  0  0  0  0  0  0
  190.9300  175.1080  136.2920 C   0  0  0  0  0  1  0  0  0  0  0  0
  2 27  2  0  0  0  0
  3  9  2  0  0  0  0
  4 10  1  0  0  0  0
  6 23  1  0  0  0  0
  6 24  1  0  0  0  0
  7 39  1  6  0  0  0
  7 22  1  0  0  0  0
  8 15  1  0  0  0  0
  8 16  1  0  0  0  0
  9  4  1  0  0  0  0
 10  1  1  0  0  0  0
 10 12  1  1  0  0  0
 11  1  1  6  0  0  0
 11 25  1  0  0  0  0
 13 14  1  0  0  0  0
 14 19  1  0  0  0  0
 15 18  1  0  0  0  0
 16  7  1  0  0  0  0
 17 21  1  0  0  0  0
 18  5  2  0  0  0  0
 18 17  1  0  0  0  0
 19  2  1  0  0  0  0
 20 11  1  0  0  0  0
 20 19  2  0  0  0  0
 21 22  1  6  0  0  0
 21 13  1  0  0  0  0
 23  9  1  0  0  0  0
 24 15  1  0  0  0  0
 24 26  2  0  0  0  0
 25 27  1  0  0  0  0
 26 35  1  0  0  0  0
 26  5  1  0  0  0  0
 27 31  1  0  0  0  0
 31 28  1  0  0  0  0
 31 29  1  0  0  0  0
 31 30  1  0  0  0  0
 32 34  1  0  0  0  0
 33 32  1  0  0  0  0
 33 34  1  0  0  0  0
 34  5  1  6  0  0  0
 35 36  1  0  0  0  0
 36 37  1  0  0  0  0
 37 38  1  0  0  0  0
 40 39  1  0  0  0  0
 41 40  1  0  0  0  0
 42 41  1  0  0  0  0
 42 43  1  0  0  0  0
 43 44  1  0  0  0  0
M  END
>  <MODEL>
4

>  <REMARK>
 VINA RESULT:      -1.6      3.592      7.820
  Name = 
  10 active torsions:
  status: ('A' for Active; 'I' for Inactive)
    1  A    between atoms: C_1  and  C_34
    2  A    between atoms: C_7  and  C_39
    3  A    between atoms: O_9  and  C_34
    4  A    between atoms: O_9  and  C_42
    5  A    between atoms: C_11  and  C_20
    6  A    between atoms: C_14  and  C_15
    7  A    between atoms: C_15  and  C_17
    8  A    between atoms: C_17  and  C_19
    9  A    between atoms: C_19  and  C_39
   10  A    between atoms: C_43  and  C_44
                            x       y       z     vdW  Elec       q    Type
                         _______ _______ _______ _____ _____    ______ ____

>  <TORSDO>
F 10

$$$$
=
 OpenBabel10222422033D

 44 48  0  0  1  0  0  0  0  0999 V2000
  187.7320  178.8390  140.6000 C   0  0  0  0  0  2  0  0  0  0  0  0
  190.4890  176.1850  141.2380 C   0  0  0  0  0  3  0  0  0  0  0  0
  184.1760  180.2980  138.9360 O   0  0  0  0  0  0  0  0  0  0  0  0
  185.4890  178.4980  139.6360 N   0  0  0  0  0  2  0  0  0  0  0  0
  185.4520  174.4180  137.5030 C   0  0  0  0  0  0  0  0  0  0  0  0
  183.8840  177.7050  136.9070 C   0  0  0  0  0  2  0  0  0  0  0  0
  188.9010  177.9060  136.2070 C   0  0  1  0  0  3  0  0  0  0  0  0
  186.6940  177.3980  135.7660 C   0  0  0  0  0  2  0  0  0  0  0  0
  184.3600  179.0510  138.9540 C   0  0  0  0  0  0  0  0  0  0  0  0
  186.2740  179.2880  140.5760 C   0  0  1  0  0  3  0  0  0  0  0  0
  187.8870  177.3480  140.8610 C   0  0  1  0  0  3  0  0  0  0  0  0
  185.6590  179.2200  141.9640 C   0  0  0  0  0  1  0  0  0  0  0  0
  189.9220  174.7920  137.7950 C   0  0  0  0  0  2  0  0  0  0  0  0
  190.6870  175.7360  138.7250 C   0  0  0  0  0  2  0  0  0  0  0  0
  185.9600  176.3500  136.4680 N   0  0  0  0  0  0  0  0  0  0  0  0
  187.5660  178.0390  136.6640 O   0  0  0  0  0  0  0  0  0  0  0  0
  187.7900  174.6050  136.4680 C   0  0  0  0  0  2  0  0  0  0  0  0
  186.4170  175.1160  136.7850 C   0  0  0  0  0  0  0  0  0  0  0  0
  189.8800  176.2080  139.9030 C   0  0  0  0  0  0  0  0  0  0  0  0
  188.6710  176.7510  139.7310 C   0  0  0  0  0  3  0  0  0  0  0  0
  188.8250  175.5420  137.0550 C   0  0  2  0  0  3  0  0  0  0  0  0
  189.3690  176.4620  135.9750 C   0  0  0  0  0  2  0  0  0  0  0  0
  183.3820  178.1570  138.2720 C   0  0  0  0  0  2  0  0  0  0  0  0
  184.7340  176.4740  137.0130 C   0  0  0  0  0  0  0  0  0  0  0  0
  188.5070  177.1370  142.1360 O   0  0  0  0  0  0  0  0  0  0  0  0
  184.3830  175.2990  137.6530 C   0  0  0  0  0  0  0  0  0  0  0  0
  189.8110  176.6410  142.2960 C   0  0  0  0  0  0  0  0  0  0  0  0
  191.0440  177.7910  143.9370 F   0  0  0  0  0  0  0  0  0  0  0  0
  189.4530  176.3390  144.6100 F   0  0  0  0  0  0  0  0  0  0  0  0
  191.3710  175.5750  143.7120 F   0  0  0  0  0  0  0  0  0  0  0  0
  190.4280  176.5840  143.6580 C   0  0  0  0  0  0  0  0  0  0  0  0
  184.4840  172.2590  137.6780 O   0  0  0  0  0  0  0  0  0  0  0  0
  185.6960  172.0100  137.0130 C   0  0  0  0  0  2  0  0  0  0  0  0
  185.5870  173.0380  138.0770 C   0  0  1  0  0  3  0  0  0  0  0  0
  183.1760  175.1020  138.3350 O   0  0  0  0  0  0  0  0  0  0  0  0
  181.9840  174.6490  137.7120 C   0  0  0  0  0  2  0  0  0  0  0  0
  180.7900  175.3750  138.2990 C   0  0  0  0  0  2  0  0  0  0  0  0
  180.8930  175.4070  139.6900 O   0  0  0  0  0  1  0  0  0  0  0  0
  189.1950  178.7840  134.9940 C   0  0  0  0  0  2  0  0  0  0  0  0
  190.5260  178.4130  134.3540 C   0  0  0  0  0  2  0  0  0  0  0  0
  190.7400  176.9020  134.3460 C   0  0  0  0  0  2  0  0  0  0  0  0
  192.2180  176.5340  134.3490 C   0  0  0  0  0  2  0  0  0  0  0  0
  192.5140  175.4440  135.3690 C   0  0  0  0  0  2  0  0  0  0  0  0
  192.3950  174.0730  134.7270 C   0  0  0  0  0  1  0  0  0  0  0  0
  1 11  1  0  0  0  0
  2 27  2  0  0  0  0
  3  9  2  0  0  0  0
  4 10  1  0  0  0  0
  5 26  1  0  0  0  0
  6 24  1  0  0  0  0
  6 23  1  0  0  0  0
  7 39  1  6  0  0  0
  7 16  1  0  0  0  0
  8 15  1  0  0  0  0
  8 16  1  0  0  0  0
  9  4  1  0  0  0  0
 10  1  1  0  0  0  0
 10 12  1  1  0  0  0
 11 20  1  6  0  0  0
 11 25  1  0  0  0  0
 13 14  1  0  0  0  0
 14 19  1  0  0  0  0
 15 18  1  0  0  0  0
 15 24  1  0  0  0  0
 17 18  1  0  0  0  0
 17 21  1  0  0  0  0
 18  5  2  0  0  0  0
 19  2  1  0  0  0  0
 20 19  2  0  0  0  0
 21 22  1  6  0  0  0
 21 13  1  0  0  0  0
 22  7  1  0  0  0  0
 23  9  1  0  0  0  0
 24 26  2  0  0  0  0
 25 27  1  0  0  0  0
 26 35  1  0  0  0  0
 27 31  1  0  0  0  0
 31 30  1  0  0  0  0
 31 28  1  0  0  0  0
 31 29  1  0  0  0  0
 32 34  1  0  0  0  0
 33 32  1  0  0  0  0
 33 34  1  0  0  0  0
 34  5  1  6  0  0  0
 36 37  1  0  0  0  0
 36 35  1  0  0  0  0
 37 38  1  0  0  0  0
 40 39  1  0  0  0  0
 41 42  1  0  0  0  0
 41 40  1  0  0  0  0
 42 43  1  0  0  0  0
 44 43  1  0  0  0  0
M  END
>  <MODEL>
5

>  <REMARK>
 VINA RESULT:      -1.2      4.259      8.807
  Name = 
  10 active torsions:
  status: ('A' for Active; 'I' for Inactive)
    1  A    between atoms: C_1  and  C_34
    2  A    between atoms: C_7  and  C_39
    3  A    between atoms: O_9  and  C_34
    4  A    between atoms: O_9  and  C_42
    5  A    between atoms: C_11  and  C_20
    6  A    between atoms: C_14  and  C_15
    7  A    between atoms: C_15  and  C_17
    8  A    between atoms: C_17  and  C_19
    9  A    between atoms: C_19  and  C_39
   10  A    between atoms: C_43  and  C_44
                            x       y       z     vdW  Elec       q    Type
                         _______ _______ _______ _____ _____    ______ ____

>  <TORSDO>
F 10

$$$$
=
 OpenBabel10222422033D

 44 48  0  0  1  0  0  0  0  0999 V2000
  188.7470  172.7390  137.6940 C   0  0  0  0  0  2  0  0  0  0  0  0
  192.3790  173.8040  136.8430 C   0  0  0  0  0  3  0  0  0  0  0  0
  184.6130  173.3000  138.0670 O   0  0  0  0  0  0  0  0  0  0  0  0
  186.6470  173.8710  137.0720 N   0  0  0  0  0  2  0  0  0  0  0  0
  187.6630  178.1760  135.7940 C   0  0  0  0  0  0  0  0  0  0  0  0
  184.8550  176.5560  137.5560 C   0  0  0  0  0  2  0  0  0  0  0  0
  189.0670  176.5130  140.3770 C   0  0  1  0  0  3  0  0  0  0  0  0
  187.1920  177.3660  139.3380 C   0  0  0  0  0  2  0  0  0  0  0  0
  185.2620  174.1020  137.3450 C   0  0  0  0  0  0  0  0  0  0  0  0
  187.2720  172.5810  137.3400 C   0  0  1  0  0  3  0  0  0  0  0  0
  189.5240  173.5280  136.6500 C   0  0  1  0  0  3  0  0  0  0  0  0
  187.0920  171.6530  136.1510 C   0  0  0  0  0  1  0  0  0  0  0  0
  191.5660  177.3290  137.8570 C   0  0  0  0  0  2  0  0  0  0  0  0
  192.1110  175.9460  138.2210 C   0  0  0  0  0  2  0  0  0  0  0  0
  187.1160  177.6080  137.9000 N   0  0  0  0  0  0  0  0  0  0  0  0
  187.9400  176.2000  139.5760 O   0  0  0  0  0  0  0  0  0  0  0  0
  189.4160  178.6170  137.6120 C   0  0  0  0  0  2  0  0  0  0  0  0
  188.0760  178.1580  137.1210 C   0  0  0  0  0  0  0  0  0  0  0  0
  191.5010  174.8290  137.4200 C   0  0  0  0  0  0  0  0  0  0  0  0
  190.1740  174.6960  137.3310 C   0  0  0  0  0  3  0  0  0  0  0  0
  190.1190  177.4700  138.3060 C   0  0  2  0  0  3  0  0  0  0  0  0
  189.9830  177.6080  139.8130 C   0  0  0  0  0  2  0  0  0  0  0  0
  184.5690  175.2870  136.7630 C   0  0  0  0  0  2  0  0  0  0  0  0
  186.1110  177.2260  137.0870 C   0  0  0  0  0  0  0  0  0  0  0  0
  190.4700  172.6730  135.9960 O   0  0  0  0  0  0  0  0  0  0  0  0
  186.4100  177.5680  135.7800 C   0  0  0  0  0  0  0  0  0  0  0  0
  191.8610  172.7750  136.1660 C   0  0  0  0  0  0  0  0  0  0  0  0
  193.3710  171.0140  136.5540 F   0  0  0  0  0  0  0  0  0  0  0  0
  192.0380  170.9050  134.7360 F   0  0  0  0  0  0  0  0  0  0  0  0
  193.7430  172.3740  134.7990 F   0  0  0  0  0  0  0  0  0  0  0  0
  192.7650  171.7520  135.5540 C   0  0  0  0  0  0  0  0  0  0  0  0
  189.7570  178.9990  135.0410 O   0  0  0  0  0  0  0  0  0  0  0  0
  189.6250  177.7860  134.3460 C   0  0  0  0  0  2  0  0  0  0  0  0
  188.4570  178.6600  134.6160 C   0  0  1  0  0  3  0  0  0  0  0  0
  185.5810  177.2970  134.6850 O   0  0  0  0  0  0  0  0  0  0  0  0
  184.4450  178.0780  134.3460 C   0  0  0  0  0  2  0  0  0  0  0  0
  183.1810  177.3590  134.7780 C   0  0  0  0  0  2  0  0  0  0  0  0
  182.6190  178.0100  135.8760 O   0  0  0  0  0  1  0  0  0  0  0  0
  188.6910  176.7990  141.8280 C   0  0  0  0  0  2  0  0  0  0  0  0
  189.3330  178.0900  142.3190 C   0  0  0  0  0  2  0  0  0  0  0  0
  190.1840  177.8530  143.5630 C   0  0  0  0  0  2  0  0  0  0  0  0
  189.5840  176.7870  144.4710 C   0  0  0  0  0  2  0  0  0  0  0  0
  189.0060  177.4010  145.7370 C   0  0  0  0  0  2  0  0  0  0  0  0
  187.5050  177.5800  145.6010 C   0  0  0  0  0  1  0  0  0  0  0  0
  2 19  1  0  0  0  0
  4 10  1  0  0  0  0
  4  9  1  0  0  0  0
  5 18  2  0  0  0  0
  7 39  1  1  0  0  0
  8 16  1  0  0  0  0
  9  3  2  0  0  0  0
 10 12  1  6  0  0  0
 10  1  1  0  0  0  0
 11 20  1  1  0  0  0
 11  1  1  0  0  0  0
 13 14  1  0  0  0  0
 13 21  1  0  0  0  0
 15  8  1  0  0  0  0
 16  7  1  0  0  0  0
 18 17  1  0  0  0  0
 18 15  1  0  0  0  0
 19 14  1  0  0  0  0
 20 19  2  0  0  0  0
 21 17  1  6  0  0  0
 21 22  1  0  0  0  0
 22  7  1  0  0  0  0
 23  9  1  0  0  0  0
 23  6  1  0  0  0  0
 24  6  1  0  0  0  0
 24 15  1  0  0  0  0
 25 27  1  0  0  0  0
 25 11  1  0  0  0  0
 26  5  1  0  0  0  0
 26 24  2  0  0  0  0
 27  2  2  0  0  0  0
 29 31  1  0  0  0  0
 30 31  1  0  0  0  0
 31 27  1  0  0  0  0
 31 28  1  0  0  0  0
 33 34  1  0  0  0  0
 33 32  1  0  0  0  0
 34 32  1  0  0  0  0
 34  5  1  1  0  0  0
 35 26  1  0  0  0  0
 36 35  1  0  0  0  0
 36 37  1  0  0  0  0
 37 38  1  0  0  0  0
 39 40  1  0  0  0  0
 40 41  1  0  0  0  0
 41 42  1  0  0  0  0
 42 43  1  0  0  0  0
 44 43  1  0  0  0  0
M  END
>  <MODEL>
6

>  <REMARK>
 VINA RESULT:      -1.0      4.749      9.004
  Name = 
  10 active torsions:
  status: ('A' for Active; 'I' for Inactive)
    1  A    between atoms: C_1  and  C_34
    2  A    between atoms: C_7  and  C_39
    3  A    between atoms: O_9  and  C_34
    4  A    between atoms: O_9  and  C_42
    5  A    between atoms: C_11  and  C_20
    6  A    between atoms: C_14  and  C_15
    7  A    between atoms: C_15  and  C_17
    8  A    between atoms: C_17  and  C_19
    9  A    between atoms: C_19  and  C_39
   10  A    between atoms: C_43  and  C_44
                            x       y       z     vdW  Elec       q    Type
                         _______ _______ _______ _____ _____    ______ ____

>  <TORSDO>
F 10

$$$$
=
 OpenBabel10222422033D

 44 48  0  0  1  0  0  0  0  0999 V2000
  183.9920  175.9490  136.5750 C   0  0  0  0  0  2  0  0  0  0  0  0
  181.0710  174.5720  138.7240 C   0  0  0  0  0  3  0  0  0  0  0  0
  187.5620  178.0380  135.9080 O   0  0  0  0  0  0  0  0  0  0  0  0
  186.1480  176.8610  137.3480 N   0  0  0  0  0  2  0  0  0  0  0  0
  185.7520  177.8830  141.8190 C   0  0  0  0  0  0  0  0  0  0  0  0
  187.5410  179.3450  138.9430 C   0  0  0  0  0  2  0  0  0  0  0  0
  182.5260  179.9220  138.4750 C   0  0  1  0  0  3  0  0  0  0  0  0
  184.6600  180.2840  139.2740 C   0  0  0  0  0  2  0  0  0  0  0  0
  187.2800  177.6960  137.0870 C   0  0  0  0  0  0  0  0  0  0  0  0
  185.4780  176.1310  136.2790 C   0  0  1  0  0  3  0  0  0  0  0  0
  183.7340  175.3120  137.9320 C   0  0  1  0  0  3  0  0  0  0  0  0
  186.1570  174.7910  136.0510 C   0  0  0  0  0  1  0  0  0  0  0  0
  181.3460  177.5600  140.9840 C   0  0  0  0  0  2  0  0  0  0  0  0
  180.7070  176.8800  139.7720 C   0  0  0  0  0  2  0  0  0  0  0  0
  185.3440  179.3600  140.1730 N   0  0  0  0  0  0  0  0  0  0  0  0
  183.8900  179.5540  138.3520 O   0  0  0  0  0  0  0  0  0  0  0  0
  183.3850  178.8590  141.6900 C   0  0  0  0  0  2  0  0  0  0  0  0
  184.8090  178.7250  141.2410 C   0  0  0  0  0  0  0  0  0  0  0  0
  181.6100  175.8870  139.0930 C   0  0  0  0  0  0  0  0  0  0  0  0
  182.8470  176.2280  138.7210 C   0  0  0  0  0  3  0  0  0  0  0  0
  182.4590  178.5000  140.5470 C   0  0  2  0  0  3  0  0  0  0  0  0
  181.9340  179.7620  139.8830 C   0  0  0  0  0  2  0  0  0  0  0  0
  188.1480  178.1570  138.2090 C   0  0  0  0  0  2  0  0  0  0  0  0
  186.6030  178.9020  140.0260 C   0  0  0  0  0  0  0  0  0  0  0  0
  183.1660  174.0070  137.7590 O   0  0  0  0  0  0  0  0  0  0  0  0
  186.8930  177.9950  141.0290 C   0  0  0  0  0  0  0  0  0  0  0  0
  181.8360  173.6870  138.0800 C   0  0  0  0  0  0  0  0  0  0  0  0
  180.5880  171.8330  138.8160 F   0  0  0  0  0  0  0  0  0  0  0  0
  180.4420  172.4320  136.6450 F   0  0  0  0  0  0  0  0  0  0  0  0
  182.3220  171.4700  137.4260 F   0  0  0  0  0  0  0  0  0  0  0  0
  181.2890  172.3370  137.7350 C   0  0  0  0  0  0  0  0  0  0  0  0
  186.7100  176.9340  143.7710 O   0  0  0  0  0  0  0  0  0  0  0  0
  185.6480  177.7000  144.2800 C   0  0  0  0  0  2  0  0  0  0  0  0
  185.5370  176.9710  142.9920 C   0  0  1  0  0  3  0  0  0  0  0  0
  188.1140  177.3210  141.1560 O   0  0  0  0  0  0  0  0  0  0  0  0
  189.2670  177.8880  141.7600 C   0  0  0  0  0  2  0  0  0  0  0  0
  190.2580  176.7930  142.1010 C   0  0  0  0  0  2  0  0  0  0  0  0
  191.3720  177.3440  142.7330 O   0  0  0  0  0  1  0  0  0  0  0  0
  182.2400  181.3090  137.9080 C   0  0  0  0  0  2  0  0  0  0  0  0
  180.7480  181.6120  137.9200 C   0  0  0  0  0  2  0  0  0  0  0  0
  179.9820  180.6850  136.9810 C   0  0  0  0  0  2  0  0  0  0  0  0
  180.5270  180.7340  135.5600 C   0  0  0  0  0  2  0  0  0  0  0  0
  180.3270  179.4060  134.8450 C   0  0  0  0  0  2  0  0  0  0  0  0
  181.0610  178.2960  135.5750 C   0  0  0  0  0  1  0  0  0  0  0  0
  2 19  1  0  0  0  0
  3  9  2  0  0  0  0
  6 24  1  0  0  0  0
  7 39  1  1  0  0  0
  7 22  1  0  0  0  0
  8 15  1  0  0  0  0
  9  4  1  0  0  0  0
  9 23  1  0  0  0  0
 10 12  1  1  0  0  0
 10  1  1  0  0  0  0
 10  4  1  0  0  0  0
 11  1  1  6  0  0  0
 11 20  1  0  0  0  0
 14 13  1  0  0  0  0
 15 18  1  0  0  0  0
 16  7  1  0  0  0  0
 16  8  1  0  0  0  0
 18 17  1  0  0  0  0
 18  5  2  0  0  0  0
 19 14  1  0  0  0  0
 20 19  2  0  0  0  0
 21 22  1  1  0  0  0
 21 13  1  0  0  0  0
 21 17  1  0  0  0  0
 23  6  1  0  0  0  0
 24 15  1  0  0  0  0
 24 26  2  0  0  0  0
 25 11  1  0  0  0  0
 25 27  1  0  0  0  0
 26 35  1  0  0  0  0
 26  5  1  0  0  0  0
 27  2  2  0  0  0  0
 29 31  1  0  0  0  0
 30 31  1  0  0  0  0
 31 27  1  0  0  0  0
 31 28  1  0  0  0  0
 32 33  1  0  0  0  0
 34  5  1  6  0  0  0
 34 32  1  0  0  0  0
 34 33  1  0  0  0  0
 35 36  1  0  0  0  0
 36 37  1  0  0  0  0
 37 38  1  0  0  0  0
 39 40  1  0  0  0  0
 41 40  1  0  0  0  0
 42 41  1  0  0  0  0
 43 42  1  0  0  0  0
 43 44  1  0  0  0  0
M  END
>  <MODEL>
7

>  <REMARK>
 VINA RESULT:      -1.0      1.436      2.085
  Name = 
  10 active torsions:
  status: ('A' for Active; 'I' for Inactive)
    1  A    between atoms: C_1  and  C_34
    2  A    between atoms: C_7  and  C_39
    3  A    between atoms: O_9  and  C_34
    4  A    between atoms: O_9  and  C_42
    5  A    between atoms: C_11  and  C_20
    6  A    between atoms: C_14  and  C_15
    7  A    between atoms: C_15  and  C_17
    8  A    between atoms: C_17  and  C_19
    9  A    between atoms: C_19  and  C_39
   10  A    between atoms: C_43  and  C_44
                            x       y       z     vdW  Elec       q    Type
                         _______ _______ _______ _____ _____    ______ ____

>  <TORSDO>
F 10

$$$$
=
 OpenBabel10222422033D

 44 48  0  0  1  0  0  0  0  0999 V2000
  184.7030  179.4250  142.9280 C   0  0  0  0  0  2  0  0  0  0  0  0
  188.1170  178.2450  141.5150 C   0  0  0  0  0  3  0  0  0  0  0  0
  180.5210  179.5880  143.1150 O   0  0  0  0  0  0  0  0  0  0  0  0
  182.4740  178.4500  142.5250 N   0  0  0  0  0  2  0  0  0  0  0  0
  182.7440  175.7400  138.8140 C   0  0  0  0  0  0  0  0  0  0  0  0
  180.1780  177.9650  140.2570 C   0  0  0  0  0  2  0  0  0  0  0  0
  184.1200  180.6110  138.4790 C   0  0  1  0  0  3  0  0  0  0  0  0
  182.1940  179.3430  138.4310 C   0  0  0  0  0  2  0  0  0  0  0  0
  181.0550  178.6280  142.4980 C   0  0  0  0  0  0  0  0  0  0  0  0
  183.3110  179.1520  143.4910 C   0  0  1  0  0  3  0  0  0  0  0  0
  185.3860  178.1680  142.4080 C   0  0  1  0  0  3  0  0  0  0  0  0
  183.3920  178.3650  144.7880 C   0  0  0  0  0  1  0  0  0  0  0  0
  186.5860  177.9590  138.0960 C   0  0  0  0  0  2  0  0  0  0  0  0
  187.3560  178.7830  139.1300 C   0  0  0  0  0  2  0  0  0  0  0  0
  182.1710  177.9130  138.7190 N   0  0  0  0  0  0  0  0  0  0  0  0
  183.1310  179.9740  139.2680 O   0  0  0  0  0  0  0  0  0  0  0  0
  184.2540  177.2820  137.4310 C   0  0  0  0  0  2  0  0  0  0  0  0
  183.0610  176.9880  138.2900 C   0  0  0  0  0  0  0  0  0  0  0  0
  187.0240  178.4280  140.5530 C   0  0  0  0  0  0  0  0  0  0  0  0
  185.7560  178.3940  140.9720 C   0  0  0  0  0  3  0  0  0  0  0  0
  185.1120  178.3330  138.1030 C   0  0  2  0  0  3  0  0  0  0  0  0
  184.8500  179.6960  137.4850 C   0  0  0  0  0  2  0  0  0  0  0  0
  180.1920  177.6690  141.7500 C   0  0  0  0  0  2  0  0  0  0  0  0
  181.3140  177.2880  139.5510 C   0  0  0  0  0  0  0  0  0  0  0  0
  186.5190  177.8530  143.2270 O   0  0  0  0  0  0  0  0  0  0  0  0
  181.6320  175.9430  139.6270 C   0  0  0  0  0  0  0  0  0  0  0  0
  187.8500  177.9730  142.7950 C   0  0  0  0  0  0  0  0  0  0  0  0
  188.4770  177.7720  145.0540 F   0  0  0  0  0  0  0  0  0  0  0  0
  189.5780  176.5360  143.5210 F   0  0  0  0  0  0  0  0  0  0  0  0
  189.9140  178.7600  143.6300 F   0  0  0  0  0  0  0  0  0  0  0  0
  188.9720  177.7560  143.7630 C   0  0  0  0  0  0  0  0  0  0  0  0
  183.1650  173.9050  137.3700 O   0  0  0  0  0  0  0  0  0  0  0  0
  184.4130  174.5460  137.4410 C   0  0  0  0  0  2  0  0  0  0  0  0
  183.5100  174.4650  138.6160 C   0  0  1  0  0  3  0  0  0  0  0  0
  180.9450  175.0150  140.4190 O   0  0  0  0  0  0  0  0  0  0  0  0
  179.9820  174.1050  139.9100 C   0  0  0  0  0  2  0  0  0  0  0  0
  179.9820  174.1540  138.3940 C   0  0  0  0  0  2  0  0  0  0  0  0
  180.0420  172.8590  137.8800 O   0  0  0  0  0  1  0  0  0  0  0  0
  183.5990  181.8710  137.7920 C   0  0  0  0  0  2  0  0  0  0  0  0
  182.3940  182.4410  138.5290 C   0  0  0  0  0  2  0  0  0  0  0  0
  181.0840  181.9830  137.8950 C   0  0  0  0  0  2  0  0  0  0  0  0
  180.2630  183.1540  137.3710 C   0  0  0  0  0  2  0  0  0  0  0  0
  181.0960  184.4250  137.2980 C   0  0  0  0  0  2  0  0  0  0  0  0
  181.0990  184.9740  135.8830 C   0  0  0  0  0  1  0  0  0  0  0  0
  1 10  1  0  0  0  0
  2 27  2  0  0  0  0
  4 10  1  0  0  0  0
  5 26  1  0  0  0  0
  6 23  1  0  0  0  0
  7 39  1  6  0  0  0
  7 16  1  0  0  0  0
  8 15  1  0  0  0  0
  8 16  1  0  0  0  0
  9  4  1  0  0  0  0
  9  3  2  0  0  0  0
 10 12  1  1  0  0  0
 11 20  1  6  0  0  0
 11  1  1  0  0  0  0
 11 25  1  0  0  0  0
 13 21  1  0  0  0  0
 13 14  1  0  0  0  0
 14 19  1  0  0  0  0
 15 24  1  0  0  0  0
 17 18  1  0  0  0  0
 18 15  1  0  0  0  0
 18  5  2  0  0  0  0
 19 20  2  0  0  0  0
 19  2  1  0  0  0  0
 21 17  1  6  0  0  0
 22 21  1  0  0  0  0
 22  7  1  0  0  0  0
 23  9  1  0  0  0  0
 24 26  2  0  0  0  0
 24  6  1  0  0  0  0
 26 35  1  0  0  0  0
 27 25  1  0  0  0  0
 27 31  1  0  0  0  0
 29 31  1  0  0  0  0
 30 31  1  0  0  0  0
 31 28  1  0  0  0  0
 32 33  1  0  0  0  0
 32 34  1  0  0  0  0
 33 34  1  0  0  0  0
 34  5  1  6  0  0  0
 36 35  1  0  0  0  0
 37 36  1  0  0  0  0
 38 37  1  0  0  0  0
 39 40  1  0  0  0  0
 41 40  1  0  0  0  0
 42 41  1  0  0  0  0
 43 42  1  0  0  0  0
 44 43  1  0  0  0  0
M  END
>  <MODEL>
8

>  <REMARK>
 VINA RESULT:      -0.6      3.664      7.314
  Name = 
  10 active torsions:
  status: ('A' for Active; 'I' for Inactive)
    1  A    between atoms: C_1  and  C_34
    2  A    between atoms: C_7  and  C_39
    3  A    between atoms: O_9  and  C_34
    4  A    between atoms: O_9  and  C_42
    5  A    between atoms: C_11  and  C_20
    6  A    between atoms: C_14  and  C_15
    7  A    between atoms: C_15  and  C_17
    8  A    between atoms: C_17  and  C_19
    9  A    between atoms: C_19  and  C_39
   10  A    between atoms: C_43  and  C_44
                            x       y       z     vdW  Elec       q    Type
                         _______ _______ _______ _____ _____    ______ ____

>  <TORSDO>
F 10

$$$$
