=
 OpenBabel10232411433D

 27 30  0  0  1  0  0  0  0  0999 V2000
  190.7870  176.9590  142.0860 N   0  0  0  0  0  0  0  0  0  0  0  0
  190.0650  176.7380  139.6550 C   0  0  0  0  0  0  0  0  0  0  0  0
  189.9040  177.7380  142.6260 C   0  0  1  0  0  3  0  0  0  0  0  0
  188.1680  177.8560  140.8240 C   0  0  0  0  0  3  0  0  0  0  0  0
  188.5580  177.9420  142.0880 C   0  0  0  0  0  3  0  0  0  0  0  0
  188.9710  177.5410  139.6310 C   0  0  0  0  0  0  0  0  0  0  0  0
  190.6730  176.2710  140.8670 N   0  0  0  0  0  0  0  0  0  0  0  0
  190.6490  176.1840  138.4140 C   0  0  0  0  0  0  0  0  0  0  0  0
  193.3780  175.2400  135.0990 O   0  0  0  0  0  0  0  0  0  0  0  0
  191.3460  174.6360  135.8100 N   0  0  0  0  0  0  0  0  0  0  0  0
  191.9260  176.6110  138.0810 C   0  0  0  0  0  3  0  0  0  0  0  0
  192.4730  175.3690  135.9630 C   0  0  0  0  0  0  0  0  0  0  0  0
  190.2160  174.5490  136.5510 C   0  0  0  0  0  3  0  0  0  0  0  0
  192.7210  176.2540  137.0050 C   0  0  0  0  0  3  0  0  0  0  0  0
  189.9080  175.2380  137.7150 C   0  0  0  0  0  3  0  0  0  0  0  0
  188.9590  179.1370  137.6250 C   0  0  0  0  0  3  0  0  0  0  0  0
  187.2460  177.7170  137.7590 C   0  0  0  0  0  3  0  0  0  0  0  0
  187.1190  178.5380  136.6550 C   0  0  0  0  0  3  0  0  0  0  0  0
  188.1570  179.3940  136.5780 N   0  0  0  0  0  0  0  0  0  0  0  0
  188.4300  178.0950  138.3600 C   0  0  2  0  0  3  0  0  0  0  0  0
  190.2150  178.3510  143.9650 C   0  0  0  0  0  2  0  0  0  0  0  0
  190.2590  177.3900  145.0760 N   0  0  0  0  0  0  0  0  0  0  0  0
  189.5570  176.9000  147.3710 C   0  0  0  0  0  2  0  0  0  0  0  0
  190.8980  176.8860  147.7990 O   0  0  0  0  0  0  0  0  0  0  0  0
  191.6510  176.2950  146.7680 C   0  0  0  0  0  2  0  0  0  0  0  0
  189.4050  177.8480  146.1780 C   0  0  0  0  0  2  0  0  0  0  0  0
  191.6390  177.2020  145.5350 C   0  0  0  0  0  2  0  0  0  0  0  0
  1  3  1  0  0  0  0
  2  7  1  0  0  0  0
  3 21  1  1  0  0  0
  4  5  2  0  0  0  0
  5  3  1  0  0  0  0
  6  2  2  0  0  0  0
  6  4  1  0  0  0  0
  7  1  2  0  0  0  0
  8  2  1  0  0  0  0
  9 12  2  0  0  0  0
 10 12  1  0  0  0  0
 10 13  2  0  0  0  0
 11  8  1  0  0  0  0
 12 14  1  0  0  0  0
 13 15  1  0  0  0  0
 14 11  2  0  0  0  0
 15  8  2  0  0  0  0
 16 20  1  0  0  0  0
 17 20  1  0  0  0  0
 18 17  2  0  0  0  0
 19 18  1  0  0  0  0
 19 16  2  0  0  0  0
 20  6  1  1  0  0  0
 21 22  1  0  0  0  0
 22 27  1  0  0  0  0
 22 26  1  0  0  0  0
 23 24  1  0  0  0  0
 25 24  1  0  0  0  0
 26 23  1  0  0  0  0
 27 25  1  0  0  0  0
M  END
>  <MODEL>
1

>  <REMARK>
 VINA RESULT:      -7.2      0.000      0.000
  Name = 
  4 active torsions:
  status: ('A' for Active; 'I' for Inactive)
    1  A    between atoms: C_2  and  C_9
    2  A    between atoms: C_7  and  N_8
    3  A    between atoms: C_7  and  C_18
    4  A    between atoms: C_20  and  C_25
                            x       y       z     vdW  Elec       q    Type
                         _______ _______ _______ _____ _____    ______ ____

>  <TORSDO>
F 4

$$$$
=
 OpenBabel10232411433D

 27 30  0  0  0  0  0  0  0  0999 V2000
  186.6720  178.2690  139.4660 N   0  0  0  0  0  0  0  0  0  0  0  0
  187.5460  178.2260  141.8560 C   0  0  0  0  0  0  0  0  0  0  0  0
  185.4210  178.5880  139.5750 C   0  0  0  0  0  0  0  0  0  0  0  0
  185.2810  179.2580  141.9840 C   0  0  0  0  0  3  0  0  0  0  0  0
  184.8540  179.2870  140.7300 C   0  0  0  0  0  3  0  0  0  0  0  0
  186.4210  178.5210  142.5550 C   0  0  0  0  0  0  0  0  0  0  0  0
  187.6700  178.4250  140.4410 N   0  0  0  0  0  2  0  0  0  0  0  0
  188.7850  177.7830  142.5330 C   0  0  0  0  0  0  0  0  0  0  0  0
  192.1060  175.3420  144.0630 O   0  0  0  0  0  0  0  0  0  0  0  0
  191.4950  177.4930  144.0290 N   0  0  0  0  0  0  0  0  0  0  0  0
  189.0790  176.4290  142.4710 C   0  0  0  0  0  3  0  0  0  0  0  0
  191.2610  176.2010  143.7000 C   0  0  0  0  0  0  0  0  0  0  0  0
  190.7950  178.6270  143.7900 C   0  0  0  0  0  3  0  0  0  0  0  0
  190.1630  175.7390  142.9860 C   0  0  0  0  0  3  0  0  0  0  0  0
  189.5870  178.7550  143.1190 C   0  0  0  0  0  3  0  0  0  0  0  0
  186.7670  177.0800  144.6470 C   0  0  0  0  0  3  0  0  0  0  0  0
  185.5690  178.9400  144.9230 C   0  0  0  0  0  3  0  0  0  0  0  0
  185.6680  178.2380  146.1090 C   0  0  0  0  0  3  0  0  0  0  0  0
  186.3930  177.1150  145.9370 N   0  0  0  0  0  2  0  0  0  0  0  0
  186.2870  178.2030  144.0020 C   0  0  0  0  0  0  0  0  0  0  0  0
  184.5220  178.3710  138.3880 C   0  0  0  0  0  2  0  0  0  0  0  0
  183.1530  177.9610  138.7300 N   0  0  0  0  0  0  0  0  0  0  0  0
  181.6350  176.0850  139.1450 C   0  0  0  0  0  2  0  0  0  0  0  0
  180.8470  176.4520  138.0380 O   0  0  0  0  0  0  0  0  0  0  0  0
  180.8150  177.8580  138.0070 C   0  0  0  0  0  2  0  0  0  0  0  0
  183.0870  176.5060  138.9080 C   0  0  0  0  0  2  0  0  0  0  0  0
  182.2130  178.3990  137.6930 C   0  0  0  0  0  2  0  0  0  0  0  0
  1  3  2  0  0  0  0
  1  7  1  0  0  0  0
  2  8  1  0  0  0  0
  2  6  2  0  0  0  0
  3  5  1  0  0  0  0
  4  6  1  0  0  0  0
  5  4  2  0  0  0  0
  6 20  1  0  0  0  0
  7  2  1  0  0  0  0
  8 15  2  0  0  0  0
 11  8  1  0  0  0  0
 11 14  2  0  0  0  0
 12 10  1  0  0  0  0
 12  9  2  0  0  0  0
 13 10  2  0  0  0  0
 14 12  1  0  0  0  0
 15 13  1  0  0  0  0
 16 19  1  0  0  0  0
 17 18  2  0  0  0  0
 19 18  1  0  0  0  0
 20 16  2  0  0  0  0
 20 17  1  0  0  0  0
 21 22  1  0  0  0  0
 21  3  1  0  0  0  0
 22 26  1  0  0  0  0
 24 23  1  0  0  0  0
 25 24  1  0  0  0  0
 26 23  1  0  0  0  0
 27 25  1  0  0  0  0
 27 22  1  0  0  0  0
M  END
>  <MODEL>
2

>  <REMARK>
 VINA RESULT:      -6.9      4.275      8.198
  Name = 
  4 active torsions:
  status: ('A' for Active; 'I' for Inactive)
    1  A    between atoms: C_2  and  C_9
    2  A    between atoms: C_7  and  N_8
    3  A    between atoms: C_7  and  C_18
    4  A    between atoms: C_20  and  C_25
                            x       y       z     vdW  Elec       q    Type
                         _______ _______ _______ _____ _____    ______ ____

>  <TORSDO>
F 4

$$$$
=
 OpenBabel10232411433D

 27 30  0  0  0  0  0  0  0  0999 V2000
  186.7290  178.2860  139.3700 N   0  0  0  0  0  0  0  0  0  0  0  0
  187.5430  178.2180  141.7810 C   0  0  0  0  0  0  0  0  0  0  0  0
  185.4710  178.5830  139.4530 C   0  0  0  0  0  0  0  0  0  0  0  0
  185.2590  179.2100  141.8680 C   0  0  0  0  0  3  0  0  0  0  0  0
  184.8630  179.2540  140.6040 C   0  0  0  0  0  3  0  0  0  0  0  0
  186.3960  178.4830  142.4560 C   0  0  0  0  0  0  0  0  0  0  0  0
  187.7000  178.4420  140.3730 N   0  0  0  0  0  2  0  0  0  0  0  0
  188.7720  177.7840  142.4820 C   0  0  0  0  0  0  0  0  0  0  0  0
  192.0860  175.3710  144.0690 O   0  0  0  0  0  0  0  0  0  0  0  0
  191.4510  177.5140  144.0360 N   0  0  0  0  0  0  0  0  0  0  0  0
  189.0830  176.4340  142.4170 C   0  0  0  0  0  3  0  0  0  0  0  0
  191.2400  176.2220  143.6930 C   0  0  0  0  0  0  0  0  0  0  0  0
  190.7440  178.6420  143.7890 C   0  0  0  0  0  3  0  0  0  0  0  0
  190.1640  175.7530  142.9510 C   0  0  0  0  0  3  0  0  0  0  0  0
  189.5500  178.7610  143.0920 C   0  0  0  0  0  3  0  0  0  0  0  0
  185.5480  178.8740  144.8430 C   0  0  0  0  0  3  0  0  0  0  0  0
  186.8220  177.0700  144.5370 C   0  0  0  0  0  3  0  0  0  0  0  0
  186.4470  177.1880  145.8610 C   0  0  0  0  0  3  0  0  0  0  0  0
  185.6770  178.2780  146.0410 N   0  0  0  0  0  2  0  0  0  0  0  0
  186.2310  178.1390  143.8940 C   0  0  0  0  0  0  0  0  0  0  0  0
  184.6050  178.3700  138.2400 C   0  0  0  0  0  2  0  0  0  0  0  0
  184.5630  176.9810  137.7610 N   0  0  0  0  0  0  0  0  0  0  0  0
  184.3500  175.5050  135.8180 C   0  0  0  0  0  2  0  0  0  0  0  0
  183.1540  174.9700  136.3320 O   0  0  0  0  0  0  0  0  0  0  0  0
  183.3130  174.8750  137.7260 C   0  0  0  0  0  2  0  0  0  0  0  0
  184.5160  176.9500  136.2950 C   0  0  0  0  0  2  0  0  0  0  0  0
  183.4090  176.2780  138.3310 C   0  0  0  0  0  2  0  0  0  0  0  0
  1  3  2  0  0  0  0
  1  7  1  0  0  0  0
  2  6  2  0  0  0  0
  2  8  1  0  0  0  0
  3  5  1  0  0  0  0
  4  6  1  0  0  0  0
  5  4  2  0  0  0  0
  6 20  1  0  0  0  0
  7  2  1  0  0  0  0
  8 15  2  0  0  0  0
 11  8  1  0  0  0  0
 11 14  2  0  0  0  0
 12 10  1  0  0  0  0
 12  9  2  0  0  0  0
 13 10  2  0  0  0  0
 14 12  1  0  0  0  0
 15 13  1  0  0  0  0
 16 19  1  0  0  0  0
 17 18  2  0  0  0  0
 18 19  1  0  0  0  0
 20 17  1  0  0  0  0
 20 16  2  0  0  0  0
 21  3  1  0  0  0  0
 22 21  1  0  0  0  0
 22 27  1  0  0  0  0
 23 26  1  0  0  0  0
 23 24  1  0  0  0  0
 24 25  1  0  0  0  0
 25 27  1  0  0  0  0
 26 22  1  0  0  0  0
M  END
>  <MODEL>
3

>  <REMARK>
 VINA RESULT:      -6.9      4.192      8.129
  Name = 
  4 active torsions:
  status: ('A' for Active; 'I' for Inactive)
    1  A    between atoms: C_2  and  C_9
    2  A    between atoms: C_7  and  N_8
    3  A    between atoms: C_7  and  C_18
    4  A    between atoms: C_20  and  C_25
                            x       y       z     vdW  Elec       q    Type
                         _______ _______ _______ _____ _____    ______ ____

>  <TORSDO>
F 4

$$$$
=
 OpenBabel10232411433D

 27 30  0  0  0  0  0  0  0  0999 V2000
  187.7230  178.3710  140.1530 N   0  0  0  0  0  0  0  0  0  0  0  0
  188.2340  177.7680  142.5730 C   0  0  0  0  0  0  0  0  0  0  0  0
  188.8230  178.1320  139.5120 C   0  0  0  0  0  0  0  0  0  0  0  0
  190.1610  176.9140  141.2430 C   0  0  0  0  0  3  0  0  0  0  0  0
  189.8650  177.2210  139.9880 C   0  0  0  0  0  3  0  0  0  0  0  0
  189.5380  177.4010  142.4840 C   0  0  0  0  0  0  0  0  0  0  0  0
  187.3750  177.9080  141.4330 N   0  0  0  0  0  2  0  0  0  0  0  0
  187.5630  177.9380  143.8800 C   0  0  0  0  0  0  0  0  0  0  0  0
  184.6020  178.7930  147.0160 O   0  0  0  0  0  0  0  0  0  0  0  0
  186.6840  177.9910  146.8620 N   0  0  0  0  0  0  0  0  0  0  0  0
  186.2630  178.4210  143.8560 C   0  0  0  0  0  3  0  0  0  0  0  0
  185.5680  178.4790  146.2730 C   0  0  0  0  0  0  0  0  0  0  0  0
  187.8650  177.5700  146.3510 C   0  0  0  0  0  3  0  0  0  0  0  0
  185.3930  178.6590  144.9070 C   0  0  0  0  0  3  0  0  0  0  0  0
  188.2550  177.5440  145.0200 C   0  0  0  0  0  3  0  0  0  0  0  0
  191.0870  178.4440  144.2410 C   0  0  0  0  0  3  0  0  0  0  0  0
  190.8220  176.2330  144.3540 C   0  0  0  0  0  3  0  0  0  0  0  0
  191.6930  176.6750  145.3310 C   0  0  0  0  0  3  0  0  0  0  0  0
  191.8490  178.0110  145.2600 N   0  0  0  0  0  2  0  0  0  0  0  0
  190.4290  177.3690  143.6750 C   0  0  0  0  0  0  0  0  0  0  0  0
  188.9790  178.6980  138.1260 C   0  0  0  0  0  2  0  0  0  0  0  0
  188.4030  177.8650  137.0620 N   0  0  0  0  0  0  0  0  0  0  0  0
  188.7070  176.9350  134.8160 C   0  0  0  0  0  2  0  0  0  0  0  0
  187.5870  177.6480  134.3490 O   0  0  0  0  0  0  0  0  0  0  0  0
  186.6340  177.6390  135.3830 C   0  0  0  0  0  2  0  0  0  0  0  0
  189.3650  177.7020  135.9660 C   0  0  0  0  0  2  0  0  0  0  0  0
  187.1530  178.4540  136.5700 C   0  0  0  0  0  2  0  0  0  0  0  0
  1  7  1  0  0  0  0
  2  8  1  0  0  0  0
  3  5  1  0  0  0  0
  3  1  2  0  0  0  0
  4  6  1  0  0  0  0
  5  4  2  0  0  0  0
  6  2  2  0  0  0  0
  6 20  1  0  0  0  0
  7  2  1  0  0  0  0
  8 15  2  0  0  0  0
 11  8  1  0  0  0  0
 11 14  2  0  0  0  0
 12 10  1  0  0  0  0
 12  9  2  0  0  0  0
 13 10  2  0  0  0  0
 14 12  1  0  0  0  0
 15 13  1  0  0  0  0
 16 19  1  0  0  0  0
 17 18  2  0  0  0  0
 19 18  1  0  0  0  0
 20 16  2  0  0  0  0
 20 17  1  0  0  0  0
 21  3  1  0  0  0  0
 22 21  1  0  0  0  0
 23 26  1  0  0  0  0
 24 23  1  0  0  0  0
 24 25  1  0  0  0  0
 25 27  1  0  0  0  0
 26 22  1  0  0  0  0
 27 22  1  0  0  0  0
M  END
>  <MODEL>
4

>  <REMARK>
 VINA RESULT:      -6.6      2.822      8.979
  Name = 
  4 active torsions:
  status: ('A' for Active; 'I' for Inactive)
    1  A    between atoms: C_2  and  C_9
    2  A    between atoms: C_7  and  N_8
    3  A    between atoms: C_7  and  C_18
    4  A    between atoms: C_20  and  C_25
                            x       y       z     vdW  Elec       q    Type
                         _______ _______ _______ _____ _____    ______ ____

>  <TORSDO>
F 4

$$$$
=
 OpenBabel10232411433D

 27 30  0  0  0  0  0  0  0  0999 V2000
  191.4500  176.8540  139.1230 N   0  0  0  0  0  0  0  0  0  0  0  0
  190.4490  177.3970  141.4000 C   0  0  0  0  0  0  0  0  0  0  0  0
  190.4780  177.0280  138.2830 C   0  0  0  0  0  0  0  0  0  0  0  0
  188.7580  178.1390  139.7260 C   0  0  0  0  0  3  0  0  0  0  0  0
  189.3070  177.8650  138.5510 C   0  0  0  0  0  3  0  0  0  0  0  0
  189.1650  177.6800  141.0640 C   0  0  0  0  0  0  0  0  0  0  0  0
  191.5160  177.3250  140.4440 N   0  0  0  0  0  2  0  0  0  0  0  0
  190.8680  177.2570  142.8120 C   0  0  0  0  0  0  0  0  0  0  0  0
  192.2380  175.6230  146.6560 O   0  0  0  0  0  0  0  0  0  0  0  0
  191.7490  177.6170  145.7710 N   0  0  0  0  0  0  0  0  0  0  0  0
  191.1710  175.9750  143.2480 C   0  0  0  0  0  3  0  0  0  0  0  0
  191.8630  176.2740  145.6480 C   0  0  0  0  0  0  0  0  0  0  0  0
  191.3790  178.5770  144.8920 C   0  0  0  0  0  3  0  0  0  0  0  0
  191.6030  175.5480  144.4920 C   0  0  0  0  0  3  0  0  0  0  0  0
  190.9900  178.4160  143.5700 C   0  0  0  0  0  3  0  0  0  0  0  0
  187.8610  176.6750  143.0290 C   0  0  0  0  0  3  0  0  0  0  0  0
  187.0010  178.5220  142.1220 C   0  0  0  0  0  3  0  0  0  0  0  0
  186.2030  178.0620  143.1520 C   0  0  0  0  0  3  0  0  0  0  0  0
  186.7270  176.9470  143.6970 N   0  0  0  0  0  2  0  0  0  0  0  0
  188.0630  177.6410  142.0630 C   0  0  0  0  0  0  0  0  0  0  0  0
  190.6260  176.4670  136.8940 C   0  0  0  0  0  2  0  0  0  0  0  0
  191.6630  175.4340  136.7640 N   0  0  0  0  0  0  0  0  0  0  0  0
  193.6420  174.6830  135.5320 C   0  0  0  0  0  2  0  0  0  0  0  0
  192.9640  173.5230  135.1120 O   0  0  0  0  0  0  0  0  0  0  0  0
  192.1600  173.1060  136.1880 C   0  0  0  0  0  2  0  0  0  0  0  0
  192.6400  175.8210  135.7400 C   0  0  0  0  0  2  0  0  0  0  0  0
  191.0580  174.1390  136.4390 C   0  0  0  0  0  2  0  0  0  0  0  0
  1  7  1  0  0  0  0
  2  8  1  0  0  0  0
  3  5  1  0  0  0  0
  3  1  2  0  0  0  0
  4  6  1  0  0  0  0
  5  4  2  0  0  0  0
  6  2  2  0  0  0  0
  6 20  1  0  0  0  0
  7  2  1  0  0  0  0
  8 11  1  0  0  0  0
  8 15  2  0  0  0  0
 11 14  2  0  0  0  0
 12 10  1  0  0  0  0
 12  9  2  0  0  0  0
 13 10  2  0  0  0  0
 14 12  1  0  0  0  0
 15 13  1  0  0  0  0
 16 19  1  0  0  0  0
 17 18  2  0  0  0  0
 18 19  1  0  0  0  0
 20 17  1  0  0  0  0
 20 16  2  0  0  0  0
 21  3  1  0  0  0  0
 22 21  1  0  0  0  0
 23 26  1  0  0  0  0
 24 23  1  0  0  0  0
 24 25  1  0  0  0  0
 25 27  1  0  0  0  0
 26 22  1  0  0  0  0
 27 22  1  0  0  0  0
M  END
>  <MODEL>
5

>  <REMARK>
 VINA RESULT:      -6.6      1.828      7.712
  Name = 
  4 active torsions:
  status: ('A' for Active; 'I' for Inactive)
    1  A    between atoms: C_2  and  C_9
    2  A    between atoms: C_7  and  N_8
    3  A    between atoms: C_7  and  C_18
    4  A    between atoms: C_20  and  C_25
                            x       y       z     vdW  Elec       q    Type
                         _______ _______ _______ _____ _____    ______ ____

>  <TORSDO>
F 4

$$$$
=
 OpenBabel10232411433D

 27 30  0  0  0  0  0  0  0  0999 V2000
  191.2870  176.8810  139.3050 N   0  0  0  0  0  0  0  0  0  0  0  0
  190.3230  177.3240  141.6190 C   0  0  0  0  0  0  0  0  0  0  0  0
  190.2980  177.0770  138.4900 C   0  0  0  0  0  0  0  0  0  0  0  0
  188.5940  178.1120  140.0060 C   0  0  0  0  0  3  0  0  0  0  0  0
  189.1240  177.8900  138.8110 C   0  0  0  0  0  3  0  0  0  0  0  0
  189.0300  177.6050  141.3180 C   0  0  0  0  0  0  0  0  0  0  0  0
  191.3730  177.3010  140.6420 N   0  0  0  0  0  2  0  0  0  0  0  0
  190.7700  177.1340  143.0160 C   0  0  0  0  0  0  0  0  0  0  0  0
  192.3720  175.4050  146.7280 O   0  0  0  0  0  0  0  0  0  0  0  0
  191.6260  177.3820  145.9950 N   0  0  0  0  0  0  0  0  0  0  0  0
  191.2360  175.8720  143.3560 C   0  0  0  0  0  3  0  0  0  0  0  0
  191.9070  176.0770  145.7710 C   0  0  0  0  0  0  0  0  0  0  0  0
  191.1290  178.3500  145.1900 C   0  0  0  0  0  3  0  0  0  0  0  0
  191.7310  175.4120  144.5640 C   0  0  0  0  0  3  0  0  0  0  0  0
  190.7510  178.2390  143.8600 C   0  0  0  0  0  3  0  0  0  0  0  0
  186.9140  178.4120  142.5180 C   0  0  0  0  0  3  0  0  0  0  0  0
  187.8580  176.5630  143.3300 C   0  0  0  0  0  3  0  0  0  0  0  0
  186.7440  176.9120  144.0700 C   0  0  0  0  0  3  0  0  0  0  0  0
  186.1770  178.0290  143.5750 N   0  0  0  0  0  2  0  0  0  0  0  0
  187.9480  177.5160  142.3350 C   0  0  0  0  0  0  0  0  0  0  0  0
  190.4260  176.5720  137.0780 C   0  0  0  0  0  2  0  0  0  0  0  0
  189.4470  175.5390  136.7120 N   0  0  0  0  0  0  0  0  0  0  0  0
  189.0160  173.1400  136.4740 C   0  0  0  0  0  2  0  0  0  0  0  0
  188.8080  173.2950  135.0900 O   0  0  0  0  0  0  0  0  0  0  0  0
  188.1380  174.5190  134.9110 C   0  0  0  0  0  2  0  0  0  0  0  0
  189.9970  174.2040  136.9710 C   0  0  0  0  0  2  0  0  0  0  0  0
  189.0610  175.6750  135.3040 C   0  0  0  0  0  2  0  0  0  0  0  0
  1  7  1  0  0  0  0
  2  8  1  0  0  0  0
  3  5  1  0  0  0  0
  3  1  2  0  0  0  0
  4  6  1  0  0  0  0
  5  4  2  0  0  0  0
  6  2  2  0  0  0  0
  6 20  1  0  0  0  0
  7  2  1  0  0  0  0
  8 11  1  0  0  0  0
  8 15  2  0  0  0  0
 11 14  2  0  0  0  0
 12 10  1  0  0  0  0
 12  9  2  0  0  0  0
 13 10  2  0  0  0  0
 14 12  1  0  0  0  0
 15 13  1  0  0  0  0
 16 19  1  0  0  0  0
 17 18  2  0  0  0  0
 19 18  1  0  0  0  0
 20 16  2  0  0  0  0
 20 17  1  0  0  0  0
 21  3  1  0  0  0  0
 22 26  1  0  0  0  0
 22 21  1  0  0  0  0
 23 26  1  0  0  0  0
 24 23  1  0  0  0  0
 25 24  1  0  0  0  0
 25 27  1  0  0  0  0
 27 22  1  0  0  0  0
M  END
>  <MODEL>
6

>  <REMARK>
 VINA RESULT:      -6.6      2.065      7.777
  Name = 
  4 active torsions:
  status: ('A' for Active; 'I' for Inactive)
    1  A    between atoms: C_2  and  C_9
    2  A    between atoms: C_7  and  N_8
    3  A    between atoms: C_7  and  C_18
    4  A    between atoms: C_20  and  C_25
                            x       y       z     vdW  Elec       q    Type
                         _______ _______ _______ _____ _____    ______ ____

>  <TORSDO>
F 4

$$$$
=
 OpenBabel10232411433D

 27 30  0  0  1  0  0  0  0  0999 V2000
  184.8500  178.1870  142.7360 N   0  0  0  0  0  0  0  0  0  0  0  0
  186.9290  178.1390  144.2040 C   0  0  0  0  0  0  0  0  0  0  0  0
  183.8770  178.4640  143.5470 C   0  0  1  0  0  3  0  0  0  0  0  0
  185.1200  179.0940  145.6280 C   0  0  0  0  0  3  0  0  0  0  0  0
  184.0550  179.1280  144.8400 C   0  0  0  0  0  3  0  0  0  0  0  0
  186.3950  178.3860  145.4270 C   0  0  0  0  0  0  0  0  0  0  0  0
  186.2220  178.3610  142.9760 N   0  0  0  0  0  0  0  0  0  0  0  0
  188.3400  177.7260  144.0430 C   0  0  0  0  0  0  0  0  0  0  0  0
  191.9820  175.4280  143.1550 O   0  0  0  0  0  0  0  0  0  0  0  0
  191.4330  177.4900  143.8240 N   0  0  0  0  0  0  0  0  0  0  0  0
  188.5650  176.4310  143.6000 C   0  0  0  0  0  3  0  0  0  0  0  0
  191.0680  176.2430  143.4450 C   0  0  0  0  0  0  0  0  0  0  0  0
  190.7050  178.5720  144.1900 C   0  0  0  0  0  3  0  0  0  0  0  0
  189.7610  175.7830  143.3420 C   0  0  0  0  0  3  0  0  0  0  0  0
  189.3250  178.6770  144.2830 C   0  0  0  0  0  3  0  0  0  0  0  0
  187.7620  176.8570  146.9650 C   0  0  0  0  0  3  0  0  0  0  0  0
  187.1660  178.8290  147.8190 C   0  0  0  0  0  3  0  0  0  0  0  0
  187.8750  178.0860  148.7440 C   0  0  0  0  0  3  0  0  0  0  0  0
  188.2340  176.8960  148.2230 N   0  0  0  0  0  2  0  0  0  0  0  0
  187.1140  178.0440  146.6840 C   0  0  0  0  0  0  0  0  0  0  0  0
  182.4660  178.2340  143.0750 C   0  0  0  0  0  2  0  0  0  0  0  0
  182.0940  179.0050  141.8800 N   0  0  0  0  0  0  0  0  0  0  0  0
  180.3170  180.2320  140.7230 C   0  0  0  0  0  2  0  0  0  0  0  0
  180.3470  179.3100  139.6600 O   0  0  0  0  0  0  0  0  0  0  0  0
  181.6930  178.9530  139.4650 C   0  0  0  0  0  2  0  0  0  0  0  0
  180.7330  179.5360  142.0220 C   0  0  0  0  0  2  0  0  0  0  0  0
  182.2010  178.1710  140.6790 C   0  0  0  0  0  2  0  0  0  0  0  0
  1  7  2  0  0  0  0
  1  3  1  0  0  0  0
  2  6  2  0  0  0  0
  3 21  1  6  0  0  0
  3  5  1  0  0  0  0
  5  4  2  0  0  0  0
  6  4  1  0  0  0  0
  6 20  1  0  0  0  0
  7  2  1  0  0  0  0
  8  2  1  0  0  0  0
  8 15  2  0  0  0  0
  9 12  2  0  0  0  0
 10 13  2  0  0  0  0
 11  8  1  0  0  0  0
 12 10  1  0  0  0  0
 13 15  1  0  0  0  0
 14 12  1  0  0  0  0
 14 11  2  0  0  0  0
 16 19  1  0  0  0  0
 17 18  2  0  0  0  0
 19 18  1  0  0  0  0
 20 16  2  0  0  0  0
 20 17  1  0  0  0  0
 22 26  1  0  0  0  0
 22 21  1  0  0  0  0
 23 26  1  0  0  0  0
 24 23  1  0  0  0  0
 25 24  1  0  0  0  0
 25 27  1  0  0  0  0
 27 22  1  0  0  0  0
M  END
>  <MODEL>
7

>  <REMARK>
 VINA RESULT:      -6.5      5.129      8.793
  Name = 
  4 active torsions:
  status: ('A' for Active; 'I' for Inactive)
    1  A    between atoms: C_2  and  C_9
    2  A    between atoms: C_7  and  N_8
    3  A    between atoms: C_7  and  C_18
    4  A    between atoms: C_20  and  C_25
                            x       y       z     vdW  Elec       q    Type
                         _______ _______ _______ _____ _____    ______ ____

>  <TORSDO>
F 4

$$$$
=
 OpenBabel10232411433D

 27 30  0  0  1  0  0  0  0  0999 V2000
  188.7080  177.3800  142.6920 N   0  0  0  0  0  0  0  0  0  0  0  0
  189.6170  177.5200  140.3180 C   0  0  0  0  0  0  0  0  0  0  0  0
  189.7350  177.0800  143.4240 C   0  0  1  0  0  3  0  0  0  0  0  0
  191.6170  177.3850  141.8000 C   0  0  0  0  0  3  0  0  0  0  0  0
  191.1210  177.3330  143.0280 C   0  0  0  0  0  3  0  0  0  0  0  0
  190.9220  177.2010  140.5150 C   0  0  0  0  0  0  0  0  0  0  0  0
  188.7250  177.8830  141.3810 N   0  0  0  0  0  0  0  0  0  0  0  0
  189.0430  177.6310  138.9590 C   0  0  0  0  0  0  0  0  0  0  0  0
  186.7890  176.8630  135.2640 O   0  0  0  0  0  0  0  0  0  0  0  0
  188.0890  178.4680  136.1210 N   0  0  0  0  0  0  0  0  0  0  0  0
  188.2320  176.5880  138.5380 C   0  0  0  0  0  3  0  0  0  0  0  0
  187.4810  177.2640  136.2350 C   0  0  0  0  0  0  0  0  0  0  0  0
  188.8820  179.1630  136.9700 C   0  0  0  0  0  3  0  0  0  0  0  0
  187.5510  176.4290  137.3430 C   0  0  0  0  0  3  0  0  0  0  0  0
  189.3040  178.7900  138.2380 C   0  0  0  0  0  3  0  0  0  0  0  0
  193.0370  177.2150  139.0670 C   0  0  0  0  0  3  0  0  0  0  0  0
  191.4480  175.7710  138.4690 C   0  0  0  0  0  3  0  0  0  0  0  0
  192.5240  175.7040  137.6050 C   0  0  0  0  0  3  0  0  0  0  0  0
  193.4820  176.5780  137.9710 N   0  0  0  0  0  0  0  0  0  0  0  0
  191.7920  176.7250  139.4060 C   0  0  2  0  0  3  0  0  0  0  0  0
  189.4930  176.5870  144.8250 C   0  0  0  0  0  2  0  0  0  0  0  0
  188.8410  177.5650  145.7080 N   0  0  0  0  0  0  0  0  0  0  0  0
  188.5480  178.3490  148.0100 C   0  0  0  0  0  2  0  0  0  0  0  0
  187.1760  178.0390  147.9610 O   0  0  0  0  0  0  0  0  0  0  0  0
  186.7300  178.3560  146.6650 C   0  0  0  0  0  2  0  0  0  0  0  0
  189.3230  177.4070  147.0850 C   0  0  0  0  0  2  0  0  0  0  0  0
  187.3840  177.4150  145.6500 C   0  0  0  0  0  2  0  0  0  0  0  0
  1  3  1  0  0  0  0
  2  6  2  0  0  0  0
  2  7  1  0  0  0  0
  3 21  1  1  0  0  0
  4  5  2  0  0  0  0
  5  3  1  0  0  0  0
  6  4  1  0  0  0  0
  7  1  2  0  0  0  0
  8  2  1  0  0  0  0
  9 12  2  0  0  0  0
 10 12  1  0  0  0  0
 10 13  2  0  0  0  0
 11  8  1  0  0  0  0
 12 14  1  0  0  0  0
 13 15  1  0  0  0  0
 14 11  2  0  0  0  0
 15  8  2  0  0  0  0
 16 20  1  0  0  0  0
 17 20  1  0  0  0  0
 18 19  1  0  0  0  0
 18 17  2  0  0  0  0
 19 16  2  0  0  0  0
 20  6  1  6  0  0  0
 21 22  1  0  0  0  0
 22 26  1  0  0  0  0
 24 23  1  0  0  0  0
 25 24  1  0  0  0  0
 26 23  1  0  0  0  0
 27 22  1  0  0  0  0
 27 25  1  0  0  0  0
M  END
>  <MODEL>
8

>  <REMARK>
 VINA RESULT:      -6.5      2.235      3.990
  Name = 
  4 active torsions:
  status: ('A' for Active; 'I' for Inactive)
    1  A    between atoms: C_2  and  C_9
    2  A    between atoms: C_7  and  N_8
    3  A    between atoms: C_7  and  C_18
    4  A    between atoms: C_20  and  C_25
                            x       y       z     vdW  Elec       q    Type
                         _______ _______ _______ _____ _____    ______ ____

>  <TORSDO>
F 4

$$$$
=
 OpenBabel10232411433D

 27 30  0  0  0  0  0  0  0  0999 V2000
  187.8000  178.4140  139.6440 N   0  0  0  0  0  0  0  0  0  0  0  0
  188.2110  177.8170  142.0840 C   0  0  0  0  0  0  0  0  0  0  0  0
  188.9490  178.2540  139.0650 C   0  0  0  0  0  0  0  0  0  0  0  0
  190.2620  177.1040  140.8600 C   0  0  0  0  0  3  0  0  0  0  0  0
  190.0180  177.4050  139.5930 C   0  0  0  0  0  3  0  0  0  0  0  0
  189.5390  177.5360  142.0680 C   0  0  0  0  0  0  0  0  0  0  0  0
  187.4120  177.9150  140.8970 N   0  0  0  0  0  2  0  0  0  0  0  0
  187.4580  177.9290  143.3520 C   0  0  0  0  0  0  0  0  0  0  0  0
  184.3550  178.7880  146.3470 O   0  0  0  0  0  0  0  0  0  0  0  0
  186.3500  177.7820  146.2530 N   0  0  0  0  0  0  0  0  0  0  0  0
  186.2200  178.5520  143.2890 C   0  0  0  0  0  3  0  0  0  0  0  0
  185.3410  178.4460  145.6430 C   0  0  0  0  0  0  0  0  0  0  0  0
  187.5200  177.2870  145.7840 C   0  0  0  0  0  3  0  0  0  0  0  0
  185.2960  178.7790  144.2960 C   0  0  0  0  0  3  0  0  0  0  0  0
  188.0110  177.3500  144.4880 C   0  0  0  0  0  3  0  0  0  0  0  0
  190.8580  178.6610  143.9560 C   0  0  0  0  0  3  0  0  0  0  0  0
  190.8460  176.4320  143.9600 C   0  0  0  0  0  3  0  0  0  0  0  0
  191.6050  176.9220  145.0060 C   0  0  0  0  0  3  0  0  0  0  0  0
  191.6080  178.2690  145.0000 N   0  0  0  0  0  2  0  0  0  0  0  0
  190.3610  177.5480  143.3080 C   0  0  0  0  0  0  0  0  0  0  0  0
  189.1460  178.8440  137.6940 C   0  0  0  0  0  2  0  0  0  0  0  0
  188.5290  178.0730  136.6060 N   0  0  0  0  0  0  0  0  0  0  0  0
  186.4530  177.5160  135.4320 C   0  0  0  0  0  2  0  0  0  0  0  0
  186.5760  176.1680  135.8140 O   0  0  0  0  0  0  0  0  0  0  0  0
  187.9450  175.8500  135.7610 C   0  0  0  0  0  2  0  0  0  0  0  0
  187.1070  178.4140  136.4860 C   0  0  0  0  0  2  0  0  0  0  0  0
  188.6990  176.6350  136.8370 C   0  0  0  0  0  2  0  0  0  0  0  0
  1  7  1  0  0  0  0
  2  8  1  0  0  0  0
  3  5  1  0  0  0  0
  3  1  2  0  0  0  0
  4  6  1  0  0  0  0
  5  4  2  0  0  0  0
  6  2  2  0  0  0  0
  6 20  1  0  0  0  0
  7  2  1  0  0  0  0
  8 15  2  0  0  0  0
 11  8  1  0  0  0  0
 11 14  2  0  0  0  0
 12 10  1  0  0  0  0
 12  9  2  0  0  0  0
 13 10  2  0  0  0  0
 14 12  1  0  0  0  0
 15 13  1  0  0  0  0
 16 19  1  0  0  0  0
 17 18  2  0  0  0  0
 19 18  1  0  0  0  0
 20 16  2  0  0  0  0
 20 17  1  0  0  0  0
 21  3  1  0  0  0  0
 22 27  1  0  0  0  0
 22 21  1  0  0  0  0
 23 24  1  0  0  0  0
 23 26  1  0  0  0  0
 25 24  1  0  0  0  0
 25 27  1  0  0  0  0
 26 22  1  0  0  0  0
M  END
>  <MODEL>
9

>  <REMARK>
 VINA RESULT:      -6.4      2.853      8.639
  Name = 
  4 active torsions:
  status: ('A' for Active; 'I' for Inactive)
    1  A    between atoms: C_2  and  C_9
    2  A    between atoms: C_7  and  N_8
    3  A    between atoms: C_7  and  C_18
    4  A    between atoms: C_20  and  C_25
                            x       y       z     vdW  Elec       q    Type
                         _______ _______ _______ _____ _____    ______ ____

>  <TORSDO>
F 4

$$$$
