=
 OpenBabel10232411263D

 36 40  0  0  1  0  0  0  0  0999 V2000
  183.2020  178.5800  144.3820 C   0  0  0  0  0  2  0  0  0  0  0  0
  181.7380  179.0920  140.9840 C   0  0  0  0  0  0  0  0  0  0  0  0
  183.9460  178.5040  142.1180 C   0  0  2  0  0  3  0  0  0  0  0  0
  184.9380  179.1890  141.1800 C   0  0  0  0  0  2  0  0  0  0  0  0
  186.5150  177.6570  142.5520 C   0  0  1  0  0  3  0  0  0  0  0  0
  182.1060  179.1650  143.4900 C   0  0  0  0  0  2  0  0  0  0  0  0
  182.6080  179.0630  142.1250 N   0  0  0  0  0  0  0  0  0  0  0  0
  180.5650  179.5350  141.0980 O   0  0  0  0  0  0  0  0  0  0  0  0
  184.4370  178.7080  143.5220 C   0  0  2  0  0  3  0  0  0  0  0  0
  185.6050  177.7690  143.8010 C   0  0  0  0  0  2  0  0  0  0  0  0
  186.3980  178.8510  141.5690 C   0  0  0  0  0  2  0  0  0  0  0  0
  191.6250  177.3500  145.6910 N   0  0  0  0  0  1  0  0  0  0  0  0
  188.4770  177.5070  144.1390 C   0  0  0  0  0  0  0  0  0  0  0  0
  188.9610  177.1720  142.1040 C   0  0  0  0  0  0  0  0  0  0  0  0
  189.1780  177.7380  146.1750 C   0  0  0  0  0  0  0  0  0  0  0  0
  187.9050  177.4260  142.9290 N   0  0  0  0  0  0  0  0  0  0  0  0
  190.1610  177.1060  142.8330 C   0  0  0  0  0  3  0  0  0  0  0  0
  189.7710  177.3180  144.1000 N   0  0  0  0  0  0  0  0  0  0  0  0
  187.9960  177.7870  145.4100 C   0  0  0  0  0  3  0  0  0  0  0  0
  190.2500  177.4480  145.3340 C   0  0  0  0  0  0  0  0  0  0  0  0
  189.3220  178.1630  148.7310 N   0  0  0  0  0  0  0  0  0  0  0  0
  189.2580  177.9730  147.5900 C   0  0  0  0  0  0  0  0  0  0  0  0
  188.8580  177.0530  140.6210 C   0  0  0  0  0  2  0  0  0  0  0  0
  189.7380  178.0980  139.9590 C   0  0  0  0  0  2  0  0  0  0  0  0
  188.9520  178.8770  139.0180 N   0  0  0  0  0  2  0  0  0  0  0  0
  187.9410  177.9890  138.4670 C   0  0  0  0  0  2  0  0  0  0  0  0
  187.7820  178.2430  136.9790 C   0  0  1  0  0  3  0  0  0  0  0  0
  187.4600  179.5820  136.7710 O   0  0  0  0  0  1  0  0  0  0  0  0
  189.0750  177.9200  136.2530 C   0  0  0  0  0  1  0  0  0  0  0  0
  182.1860  178.5660  139.6570 C   0  0  0  0  0  2  0  0  0  0  0  0
  181.9720  177.1260  139.5840 N   0  0  0  0  0  0  0  0  0  0  0  0
  183.9890  176.6670  138.0900 C   0  0  0  0  0  1  0  0  0  0  0  0
  180.7380  175.0350  138.8800 C   0  0  0  0  0  2  0  0  0  0  0  0
  182.0510  175.2330  138.2830 N   0  0  0  0  0  0  0  0  0  0  0  0
  182.6520  176.3120  138.6440 C   0  0  0  0  0  0  0  0  0  0  0  0
  180.4460  176.3920  140.0730 S   0  0  0  0  0  0  0  0  0  0  0  0
  2  8  2  0  0  0  0
  2  7  1  0  0  0  0
  3  4  1  6  0  0  0
  3  7  1  0  0  0  0
  3  9  1  0  0  0  0
  4 11  1  0  0  0  0
  5 11  1  1  0  0  0
  5 16  1  0  0  0  0
  5 10  1  0  0  0  0
  6  1  1  0  0  0  0
  7  6  1  0  0  0  0
  9 10  1  1  0  0  0
  9  1  1  0  0  0  0
 13 19  2  0  0  0  0
 14 17  2  0  0  0  0
 14 16  1  0  0  0  0
 15 22  1  0  0  0  0
 16 13  1  0  0  0  0
 17 18  1  0  0  0  0
 18 13  1  0  0  0  0
 18 20  1  0  0  0  0
 19 15  1  0  0  0  0
 20 12  1  0  0  0  0
 20 15  2  0  0  0  0
 22 21  3  0  0  0  0
 23 14  1  0  0  0  0
 24 23  1  0  0  0  0
 25 24  1  0  0  0  0
 26 25  1  0  0  0  0
 27 29  1  6  0  0  0
 27 26  1  0  0  0  0
 28 27  1  0  0  0  0
 30  2  1  0  0  0  0
 31 30  1  0  0  0  0
 31 36  1  0  0  0  0
 32 35  1  0  0  0  0
 33 36  1  0  0  0  0
 34 35  2  0  0  0  0
 34 33  1  0  0  0  0
 35 31  1  0  0  0  0
M  END
>  <MODEL>
1

>  <REMARK>
 VINA RESULT:      -8.1      0.000      0.000
  Name = 
  9 active torsions:
  status: ('A' for Active; 'I' for Inactive)
    1  A    between atoms: N_1  and  C_4
    2  A    between atoms: N_1  and  C_25
    3  A    between atoms: N_2  and  C_5
    4  A    between atoms: C_4  and  C_28
    5  A    between atoms: C_5  and  C_6
    6  A    between atoms: C_10  and  C_14
    7  A    between atoms: C_10  and  C_25
    8  A    between atoms: C_15  and  N_18
    9  A    between atoms: C_16  and  C_34
                            x       y       z     vdW  Elec       q    Type
                         _______ _______ _______ _____ _____    ______ ____

>  <TORSDO>
F 9

$$$$
=
 OpenBabel10232411263D

 36 40  0  0  1  0  0  0  0  0999 V2000
  189.0470  177.2250  138.0580 C   0  0  0  0  0  2  0  0  0  0  0  0
  192.5440  176.2440  137.1860 C   0  0  0  0  0  0  0  0  0  0  0  0
  191.0710  176.7210  139.2130 C   0  0  2  0  0  3  0  0  0  0  0  0
  192.0840  177.3720  140.1530 C   0  0  0  0  0  2  0  0  0  0  0  0
  190.1320  176.8700  141.7820 C   0  0  1  0  0  3  0  0  0  0  0  0
  190.1850  177.1570  137.0380 C   0  0  0  0  0  2  0  0  0  0  0  0
  191.3810  176.8190  137.8000 N   0  0  0  0  0  0  0  0  0  0  0  0
  192.6990  176.3180  135.9380 O   0  0  0  0  0  0  0  0  0  0  0  0
  189.7770  177.4680  139.3580 C   0  0  2  0  0  3  0  0  0  0  0  0
  189.0870  177.0580  140.6530 C   0  0  0  0  0  2  0  0  0  0  0  0
  191.4660  177.6280  141.5490 C   0  0  0  0  0  2  0  0  0  0  0  0
  189.2630  177.2970  147.7090 N   0  0  0  0  0  1  0  0  0  0  0  0
  190.0900  177.0100  144.3060 C   0  0  0  0  0  0  0  0  0  0  0  0
  188.3230  177.6880  143.3550 C   0  0  0  0  0  0  0  0  0  0  0  0
  191.1180  176.5680  146.1610 C   0  0  0  0  0  0  0  0  0  0  0  0
  189.5670  177.1990  143.0860 N   0  0  0  0  0  0  0  0  0  0  0  0
  188.1110  177.7840  144.7400 C   0  0  0  0  0  3  0  0  0  0  0  0
  189.2670  177.3480  145.2660 N   0  0  0  0  0  0  0  0  0  0  0  0
  191.2940  176.4970  144.7640 C   0  0  0  0  0  3  0  0  0  0  0  0
  189.8580  177.0970  146.4310 C   0  0  0  0  0  0  0  0  0  0  0  0
  192.8570  175.7990  147.9260 N   0  0  0  0  0  0  0  0  0  0  0  0
  192.0810  176.1420  147.1380 C   0  0  0  0  0  0  0  0  0  0  0  0
  187.3030  178.0070  142.3140 C   0  0  0  0  0  2  0  0  0  0  0  0
  185.9200  178.0320  142.9390 C   0  0  0  0  0  2  0  0  0  0  0  0
  185.2590  179.2860  142.6190 N   0  0  0  0  0  2  0  0  0  0  0  0
  184.7300  179.8200  143.8640 C   0  0  0  0  0  2  0  0  0  0  0  0
  183.8690  178.7770  144.5520 C   0  0  1  0  0  3  0  0  0  0  0  0
  183.8570  179.0200  145.9240 O   0  0  0  0  0  1  0  0  0  0  0  0
  182.4500  178.8380  144.0200 C   0  0  0  0  0  1  0  0  0  0  0  0
  193.5680  175.5160  137.9990 C   0  0  0  0  0  2  0  0  0  0  0  0
  193.5270  174.0900  137.7060 N   0  0  0  0  0  0  0  0  0  0  0  0
  195.8470  173.5940  138.6470 C   0  0  0  0  0  1  0  0  0  0  0  0
  193.5090  172.0730  136.1820 C   0  0  0  0  0  2  0  0  0  0  0  0
  194.6940  172.2350  137.0120 N   0  0  0  0  0  0  0  0  0  0  0  0
  194.6870  173.2770  137.7670 C   0  0  0  0  0  0  0  0  0  0  0  0
  192.3280  173.4040  136.6120 S   0  0  0  0  0  0  0  0  0  0  0  0
  2  7  1  0  0  0  0
  2 30  1  0  0  0  0
  3  9  1  0  0  0  0
  3  4  1  1  0  0  0
  4 11  1  0  0  0  0
  5 10  1  6  0  0  0
  5 16  1  0  0  0  0
  6  7  1  0  0  0  0
  6  1  1  0  0  0  0
  7  3  1  0  0  0  0
  8  2  2  0  0  0  0
  9  1  1  6  0  0  0
  9 10  1  0  0  0  0
 11  5  1  0  0  0  0
 13 19  2  0  0  0  0
 13 18  1  0  0  0  0
 14 17  2  0  0  0  0
 15 20  2  0  0  0  0
 15 22  1  0  0  0  0
 16 14  1  0  0  0  0
 16 13  1  0  0  0  0
 17 18  1  0  0  0  0
 18 20  1  0  0  0  0
 19 15  1  0  0  0  0
 20 12  1  0  0  0  0
 22 21  3  0  0  0  0
 23 24  1  0  0  0  0
 23 14  1  0  0  0  0
 25 24  1  0  0  0  0
 25 26  1  0  0  0  0
 26 27  1  0  0  0  0
 27 29  1  6  0  0  0
 27 28  1  0  0  0  0
 31 35  1  0  0  0  0
 31 30  1  0  0  0  0
 33 36  1  0  0  0  0
 33 34  1  0  0  0  0
 34 35  2  0  0  0  0
 35 32  1  0  0  0  0
 36 31  1  0  0  0  0
M  END
>  <MODEL>
2

>  <REMARK>
 VINA RESULT:      -8.1      4.221      8.159
  Name = 
  9 active torsions:
  status: ('A' for Active; 'I' for Inactive)
    1  A    between atoms: N_1  and  C_4
    2  A    between atoms: N_1  and  C_25
    3  A    between atoms: N_2  and  C_5
    4  A    between atoms: C_4  and  C_28
    5  A    between atoms: C_5  and  C_6
    6  A    between atoms: C_10  and  C_14
    7  A    between atoms: C_10  and  C_25
    8  A    between atoms: C_15  and  N_18
    9  A    between atoms: C_16  and  C_34
                            x       y       z     vdW  Elec       q    Type
                         _______ _______ _______ _____ _____    ______ ____

>  <TORSDO>
F 9

$$$$
=
 OpenBabel10232411263D

 36 40  0  0  1  0  0  0  0  0999 V2000
  188.3220  178.6550  138.4950 C   0  0  0  0  0  2  0  0  0  0  0  0
  190.9480  176.2740  137.3170 C   0  0  0  0  0  0  0  0  0  0  0  0
  189.7460  176.9980  139.4470 C   0  0  2  0  0  3  0  0  0  0  0  0
  190.8730  176.8580  140.4690 C   0  0  0  0  0  2  0  0  0  0  0  0
  188.8080  177.0700  142.0200 C   0  0  1  0  0  3  0  0  0  0  0  0
  189.3560  178.2410  137.4460 C   0  0  0  0  0  2  0  0  0  0  0  0
  190.1720  177.2110  138.0780 N   0  0  0  0  0  0  0  0  0  0  0  0
  191.2140  176.5110  136.1090 O   0  0  0  0  0  0  0  0  0  0  0  0
  188.9760  178.2390  139.7910 C   0  0  2  0  0  3  0  0  0  0  0  0
  188.0780  177.9730  140.9930 C   0  0  0  0  0  2  0  0  0  0  0  0
  190.3550  177.1000  141.9080 C   0  0  0  0  0  2  0  0  0  0  0  0
  188.6340  177.5030  148.0070 N   0  0  0  0  0  1  0  0  0  0  0  0
  189.0610  177.2430  144.5300 C   0  0  0  0  0  0  0  0  0  0  0  0
  187.1370  177.7430  143.8000 C   0  0  0  0  0  0  0  0  0  0  0  0
  190.3450  176.9240  146.2450 C   0  0  0  0  0  0  0  0  0  0  0  0
  188.3790  177.3660  143.3820 N   0  0  0  0  0  0  0  0  0  0  0  0
  187.0880  177.8400  145.2010 C   0  0  0  0  0  3  0  0  0  0  0  0
  188.3350  177.5190  145.5820 N   0  0  0  0  0  0  0  0  0  0  0  0
  190.3550  176.8480  144.8370 C   0  0  0  0  0  3  0  0  0  0  0  0
  189.0840  177.3390  146.6660 C   0  0  0  0  0  0  0  0  0  0  0  0
  192.3490  176.3400  147.7860 N   0  0  0  0  0  0  0  0  0  0  0  0
  191.4550  176.6010  147.0980 C   0  0  0  0  0  0  0  0  0  0  0  0
  185.9720  177.9530  142.8920 C   0  0  0  0  0  2  0  0  0  0  0  0
  184.7590  178.3790  143.6990 C   0  0  0  0  0  2  0  0  0  0  0  0
  183.6680  178.7200  142.8030 N   0  0  0  0  0  2  0  0  0  0  0  0
  183.9790  178.1360  141.5090 C   0  0  0  0  0  2  0  0  0  0  0  0
  183.6540  179.1220  140.4020 C   0  0  1  0  0  3  0  0  0  0  0  0
  184.8370  179.6720  139.9110 O   0  0  0  0  0  1  0  0  0  0  0  0
  182.9230  178.4190  139.2740 C   0  0  0  0  0  1  0  0  0  0  0  0
  191.4190  174.9890  137.9220 C   0  0  0  0  0  2  0  0  0  0  0  0
  192.6170  174.5170  137.2380 N   0  0  0  0  0  0  0  0  0  0  0  0
  191.3870  172.8630  135.7350 C   0  0  0  0  0  1  0  0  0  0  0  0
  194.8280  173.3010  137.0850 C   0  0  0  0  0  2  0  0  0  0  0  0
  193.7290  172.7260  136.3230 N   0  0  0  0  0  0  0  0  0  0  0  0
  192.6100  173.3530  136.4300 C   0  0  0  0  0  0  0  0  0  0  0  0
  194.2300  174.8460  137.8650 S   0  0  0  0  0  0  0  0  0  0  0  0
  2 30  1  0  0  0  0
  2  7  1  0  0  0  0
  3  9  1  0  0  0  0
  3  4  1  1  0  0  0
  4 11  1  0  0  0  0
  5 10  1  6  0  0  0
  5 16  1  0  0  0  0
  6  7  1  0  0  0  0
  6  1  1  0  0  0  0
  7  3  1  0  0  0  0
  8  2  2  0  0  0  0
  9  1  1  6  0  0  0
  9 10  1  0  0  0  0
 11  5  1  0  0  0  0
 13 19  2  0  0  0  0
 13 18  1  0  0  0  0
 14 17  2  0  0  0  0
 15 20  2  0  0  0  0
 15 22  1  0  0  0  0
 16 14  1  0  0  0  0
 16 13  1  0  0  0  0
 17 18  1  0  0  0  0
 18 20  1  0  0  0  0
 19 15  1  0  0  0  0
 20 12  1  0  0  0  0
 22 21  3  0  0  0  0
 23 24  1  0  0  0  0
 23 14  1  0  0  0  0
 25 24  1  0  0  0  0
 26 25  1  0  0  0  0
 27 29  1  6  0  0  0
 27 26  1  0  0  0  0
 28 27  1  0  0  0  0
 31 36  1  0  0  0  0
 31 30  1  0  0  0  0
 32 35  1  0  0  0  0
 33 36  1  0  0  0  0
 34 35  2  0  0  0  0
 34 33  1  0  0  0  0
 35 31  1  0  0  0  0
M  END
>  <MODEL>
3

>  <REMARK>
 VINA RESULT:      -8.0      3.834      7.245
  Name = 
  9 active torsions:
  status: ('A' for Active; 'I' for Inactive)
    1  A    between atoms: N_1  and  C_4
    2  A    between atoms: N_1  and  C_25
    3  A    between atoms: N_2  and  C_5
    4  A    between atoms: C_4  and  C_28
    5  A    between atoms: C_5  and  C_6
    6  A    between atoms: C_10  and  C_14
    7  A    between atoms: C_10  and  C_25
    8  A    between atoms: C_15  and  N_18
    9  A    between atoms: C_16  and  C_34
                            x       y       z     vdW  Elec       q    Type
                         _______ _______ _______ _____ _____    ______ ____

>  <TORSDO>
F 9

$$$$
=
 OpenBabel10232411263D

 36 40  0  0  1  0  0  0  0  0999 V2000
  186.6010  178.4520  139.2660 C   0  0  0  0  0  2  0  0  0  0  0  0
  189.6260  176.8750  137.7440 C   0  0  0  0  0  0  0  0  0  0  0  0
  188.5970  177.3890  140.0210 C   0  0  2  0  0  3  0  0  0  0  0  0
  189.8530  177.6850  140.8380 C   0  0  0  0  0  2  0  0  0  0  0  0
  188.0850  177.4010  142.7120 C   0  0  1  0  0  3  0  0  0  0  0  0
  187.5400  178.2760  138.0720 C   0  0  0  0  0  2  0  0  0  0  0  0
  188.7220  177.5990  138.5920 N   0  0  0  0  0  0  0  0  0  0  0  0
  189.6180  177.0740  136.5000 O   0  0  0  0  0  0  0  0  0  0  0  0
  187.5410  178.3670  140.4460 C   0  0  2  0  0  3  0  0  0  0  0  0
  186.9630  177.9490  141.7930 C   0  0  0  0  0  2  0  0  0  0  0  0
  189.5100  177.8840  142.3350 C   0  0  0  0  0  2  0  0  0  0  0  0
  188.5150  177.7140  148.6940 N   0  0  0  0  0  1  0  0  0  0  0  0
  188.5900  177.5210  145.1860 C   0  0  0  0  0  0  0  0  0  0  0  0
  186.6070  178.0510  144.6640 C   0  0  0  0  0  0  0  0  0  0  0  0
  190.0360  177.1570  146.7580 C   0  0  0  0  0  0  0  0  0  0  0  0
  187.7970  177.6730  144.1160 N   0  0  0  0  0  0  0  0  0  0  0  0
  186.7000  178.1200  146.0640 C   0  0  0  0  0  3  0  0  0  0  0  0
  187.9750  177.7820  146.3110 N   0  0  0  0  0  0  0  0  0  0  0  0
  189.9040  177.1090  145.3550 C   0  0  0  0  0  3  0  0  0  0  0  0
  188.8270  177.5740  147.3110 C   0  0  0  0  0  0  0  0  0  0  0  0
  192.1780  176.5260  148.0780 N   0  0  0  0  0  0  0  0  0  0  0  0
  191.2220  176.8080  147.4890 C   0  0  0  0  0  0  0  0  0  0  0  0
  185.3600  178.2890  143.8810 C   0  0  0  0  0  2  0  0  0  0  0  0
  184.4510  179.2410  144.6370 C   0  0  0  0  0  2  0  0  0  0  0  0
  183.0690  178.8130  144.5020 N   0  0  0  0  0  2  0  0  0  0  0  0
  182.7560  178.8190  143.0830 C   0  0  0  0  0  2  0  0  0  0  0  0
  181.2950  179.1730  142.8740 C   0  0  1  0  0  3  0  0  0  0  0  0
  180.8810  178.7080  141.6280 O   0  0  0  0  0  1  0  0  0  0  0  0
  180.4440  178.5350  143.9550 C   0  0  0  0  0  1  0  0  0  0  0  0
  190.5600  175.8500  138.3060 C   0  0  0  0  0  2  0  0  0  0  0  0
  191.2610  175.1600  137.2310 N   0  0  0  0  0  0  0  0  0  0  0  0
  189.4830  173.3570  136.9160 C   0  0  0  0  0  1  0  0  0  0  0  0
  193.1230  173.7600  136.2500 C   0  0  0  0  0  2  0  0  0  0  0  0
  191.8050  173.1420  136.2730 N   0  0  0  0  0  0  0  0  0  0  0  0
  190.8770  173.8680  136.7920 C   0  0  0  0  0  0  0  0  0  0  0  0
  192.9620  175.4680  136.8880 S   0  0  0  0  0  0  0  0  0  0  0  0
  2 30  1  0  0  0  0
  2  7  1  0  0  0  0
  3  9  1  0  0  0  0
  3  4  1  1  0  0  0
  4 11  1  0  0  0  0
  5 10  1  6  0  0  0
  5 16  1  0  0  0  0
  6  7  1  0  0  0  0
  6  1  1  0  0  0  0
  7  3  1  0  0  0  0
  8  2  2  0  0  0  0
  9  1  1  6  0  0  0
  9 10  1  0  0  0  0
 11  5  1  0  0  0  0
 13 19  2  0  0  0  0
 13 18  1  0  0  0  0
 14 17  2  0  0  0  0
 15 20  2  0  0  0  0
 15 22  1  0  0  0  0
 16 14  1  0  0  0  0
 16 13  1  0  0  0  0
 17 18  1  0  0  0  0
 18 20  1  0  0  0  0
 19 15  1  0  0  0  0
 20 12  1  0  0  0  0
 22 21  3  0  0  0  0
 23 24  1  0  0  0  0
 23 14  1  0  0  0  0
 25 24  1  0  0  0  0
 26 25  1  0  0  0  0
 27 26  1  0  0  0  0
 27 29  1  1  0  0  0
 28 27  1  0  0  0  0
 31 30  1  0  0  0  0
 33 34  1  0  0  0  0
 33 36  1  0  0  0  0
 34 35  2  0  0  0  0
 35 32  1  0  0  0  0
 35 31  1  0  0  0  0
 36 31  1  0  0  0  0
M  END
>  <MODEL>
4

>  <REMARK>
 VINA RESULT:      -7.7      3.298      6.911
  Name = 
  9 active torsions:
  status: ('A' for Active; 'I' for Inactive)
    1  A    between atoms: N_1  and  C_4
    2  A    between atoms: N_1  and  C_25
    3  A    between atoms: N_2  and  C_5
    4  A    between atoms: C_4  and  C_28
    5  A    between atoms: C_5  and  C_6
    6  A    between atoms: C_10  and  C_14
    7  A    between atoms: C_10  and  C_25
    8  A    between atoms: C_15  and  N_18
    9  A    between atoms: C_16  and  C_34
                            x       y       z     vdW  Elec       q    Type
                         _______ _______ _______ _____ _____    ______ ____

>  <TORSDO>
F 9

$$$$
=
 OpenBabel10232411263D

 36 40  0  0  1  0  0  0  0  0999 V2000
  184.6600  178.7400  145.0980 C   0  0  0  0  0  2  0  0  0  0  0  0
  181.9200  178.7830  142.5600 C   0  0  0  0  0  0  0  0  0  0  0  0
  184.4420  178.4490  142.7420 C   0  0  2  0  0  3  0  0  0  0  0  0
  184.9060  179.0770  141.4290 C   0  0  0  0  0  2  0  0  0  0  0  0
  187.0390  177.7990  142.1600 C   0  0  1  0  0  3  0  0  0  0  0  0
  183.2490  179.1600  144.6850 C   0  0  0  0  0  2  0  0  0  0  0  0
  183.1720  178.9310  143.2470 N   0  0  0  0  0  0  0  0  0  0  0  0
  180.8530  179.1710  143.1060 O   0  0  0  0  0  0  0  0  0  0  0  0
  185.4310  178.8370  143.8020 C   0  0  2  0  0  3  0  0  0  0  0  0
  186.6970  178.0020  143.6580 C   0  0  0  0  0  2  0  0  0  0  0  0
  186.4260  178.8660  141.2160 C   0  0  0  0  0  2  0  0  0  0  0  0
  192.4230  176.9410  139.6400 N   0  0  0  0  0  1  0  0  0  0  0  0
  189.1620  177.5150  140.8160 C   0  0  0  0  0  0  0  0  0  0  0  0
  189.4540  177.6420  142.9100 C   0  0  0  0  0  0  0  0  0  0  0  0
  190.0350  177.1930  138.8600 C   0  0  0  0  0  0  0  0  0  0  0  0
  188.4790  177.6900  141.9570 N   0  0  0  0  0  0  0  0  0  0  0  0
  190.7150  177.4350  142.3270 C   0  0  0  0  0  3  0  0  0  0  0  0
  190.4470  177.3750  141.0130 N   0  0  0  0  0  0  0  0  0  0  0  0
  188.7900  177.4110  139.4840 C   0  0  0  0  0  3  0  0  0  0  0  0
  191.0310  177.1760  139.8340 C   0  0  0  0  0  0  0  0  0  0  0  0
  190.3890  176.8420  136.3140 N   0  0  0  0  0  0  0  0  0  0  0  0
  190.2320  176.9990  137.4500 C   0  0  0  0  0  0  0  0  0  0  0  0
  189.1980  177.7270  144.3770 C   0  0  0  0  0  2  0  0  0  0  0  0
  190.5110  177.6450  145.1340 C   0  0  0  0  0  2  0  0  0  0  0  0
  190.2670  177.2000  146.4960 N   0  0  0  0  0  2  0  0  0  0  0  0
  188.8330  177.0000  146.6290 C   0  0  0  0  0  2  0  0  0  0  0  0
  188.3560  177.5320  147.9670 C   0  0  1  0  0  3  0  0  0  0  0  0
  189.3500  178.3320  148.5270 O   0  0  0  0  0  1  0  0  0  0  0  0
  187.0950  178.3560  147.7820 C   0  0  0  0  0  1  0  0  0  0  0  0
  181.8490  178.1350  141.2130 C   0  0  0  0  0  2  0  0  0  0  0  0
  181.2690  179.0520  140.2410 N   0  0  0  0  0  0  0  0  0  0  0  0
  183.0880  178.7070  138.4850 C   0  0  0  0  0  1  0  0  0  0  0  0
  180.5950  181.3270  139.3680 C   0  0  0  0  0  2  0  0  0  0  0  0
  181.6560  180.6510  138.6350 N   0  0  0  0  0  0  0  0  0  0  0  0
  181.9930  179.5020  139.1080 C   0  0  0  0  0  0  0  0  0  0  0  0
  180.0120  180.2020  140.6890 S   0  0  0  0  0  0  0  0  0  0  0  0
  2  8  2  0  0  0  0
  2  7  1  0  0  0  0
  3  4  1  6  0  0  0
  3  7  1  0  0  0  0
  3  9  1  0  0  0  0
  5 11  1  6  0  0  0
  5 10  1  0  0  0  0
  6  1  1  0  0  0  0
  7  6  1  0  0  0  0
  9 10  1  1  0  0  0
  9  1  1  0  0  0  0
 11  4  1  0  0  0  0
 12 20  1  0  0  0  0
 13 18  1  0  0  0  0
 13 16  1  0  0  0  0
 14 23  1  0  0  0  0
 15 19  1  0  0  0  0
 15 20  2  0  0  0  0
 16  5  1  0  0  0  0
 16 14  1  0  0  0  0
 17 14  2  0  0  0  0
 18 17  1  0  0  0  0
 19 13  2  0  0  0  0
 20 18  1  0  0  0  0
 21 22  3  0  0  0  0
 22 15  1  0  0  0  0
 23 24  1  0  0  0  0
 24 25  1  0  0  0  0
 25 26  1  0  0  0  0
 26 27  1  0  0  0  0
 27 29  1  6  0  0  0
 27 28  1  0  0  0  0
 30  2  1  0  0  0  0
 31 36  1  0  0  0  0
 31 30  1  0  0  0  0
 32 35  1  0  0  0  0
 33 36  1  0  0  0  0
 34 35  2  0  0  0  0
 34 33  1  0  0  0  0
 35 31  1  0  0  0  0
M  END
>  <MODEL>
5

>  <REMARK>
 VINA RESULT:      -7.7      2.661      5.636
  Name = 
  9 active torsions:
  status: ('A' for Active; 'I' for Inactive)
    1  A    between atoms: N_1  and  C_4
    2  A    between atoms: N_1  and  C_25
    3  A    between atoms: N_2  and  C_5
    4  A    between atoms: C_4  and  C_28
    5  A    between atoms: C_5  and  C_6
    6  A    between atoms: C_10  and  C_14
    7  A    between atoms: C_10  and  C_25
    8  A    between atoms: C_15  and  N_18
    9  A    between atoms: C_16  and  C_34
                            x       y       z     vdW  Elec       q    Type
                         _______ _______ _______ _____ _____    ______ ____

>  <TORSDO>
F 9

$$$$
=
 OpenBabel10232411263D

 36 40  0  0  1  0  0  0  0  0999 V2000
  183.1400  178.7890  144.5260 C   0  0  0  0  0  2  0  0  0  0  0  0
  181.4190  178.7840  141.2110 C   0  0  0  0  0  0  0  0  0  0  0  0
  183.7310  178.4620  142.2400 C   0  0  2  0  0  3  0  0  0  0  0  0
  184.6120  179.0720  141.1520 C   0  0  0  0  0  2  0  0  0  0  0  0
  186.3710  177.8130  142.5800 C   0  0  1  0  0  3  0  0  0  0  0  0
  181.9520  179.1970  143.6540 C   0  0  0  0  0  2  0  0  0  0  0  0
  182.3650  178.9470  142.2780 N   0  0  0  0  0  0  0  0  0  0  0  0
  180.2310  179.1760  141.3580 O   0  0  0  0  0  0  0  0  0  0  0  0
  184.3030  178.8700  143.5660 C   0  0  2  0  0  3  0  0  0  0  0  0
  185.5430  178.0370  143.8710 C   0  0  0  0  0  2  0  0  0  0  0  0
  186.1140  178.8640  141.4680 C   0  0  0  0  0  2  0  0  0  0  0  0
  191.6350  177.7770  145.4700 N   0  0  0  0  0  1  0  0  0  0  0  0
  188.4140  177.7290  144.0660 C   0  0  0  0  0  0  0  0  0  0  0  0
  188.8290  177.6590  141.9900 C   0  0  0  0  0  0  0  0  0  0  0  0
  189.1880  177.8320  146.0860 C   0  0  0  0  0  0  0  0  0  0  0  0
  187.7950  177.7060  142.8770 N   0  0  0  0  0  0  0  0  0  0  0  0
  190.0640  177.6570  142.6600 C   0  0  0  0  0  3  0  0  0  0  0  0
  189.7180  177.6940  143.9570 N   0  0  0  0  0  0  0  0  0  0  0  0
  187.9700  177.8230  145.3760 C   0  0  0  0  0  3  0  0  0  0  0  0
  190.2410  177.7520  145.1780 C   0  0  0  0  0  0  0  0  0  0  0  0
  189.4120  178.0090  148.6650 N   0  0  0  0  0  0  0  0  0  0  0  0
  189.3120  177.9300  147.5140 C   0  0  0  0  0  0  0  0  0  0  0  0
  188.6660  177.6800  140.5070 C   0  0  0  0  0  2  0  0  0  0  0  0
  189.8580  177.0090  139.8480 C   0  0  0  0  0  2  0  0  0  0  0  0
  190.2010  177.7100  138.6230 N   0  0  0  0  0  2  0  0  0  0  0  0
  190.6270  176.7070  137.6610 C   0  0  0  0  0  2  0  0  0  0  0  0
  191.8180  175.9390  138.2040 C   0  0  1  0  0  3  0  0  0  0  0  0
  191.6260  174.5760  137.9890 O   0  0  0  0  0  1  0  0  0  0  0  0
  193.0880  176.3820  137.5030 C   0  0  0  0  0  1  0  0  0  0  0  0
  181.8070  178.1160  139.9290 C   0  0  0  0  0  2  0  0  0  0  0  0
  181.1720  178.7820  138.8000 N   0  0  0  0  0  0  0  0  0  0  0  0
  180.2730  176.6400  137.7450 C   0  0  0  0  0  1  0  0  0  0  0  0
  181.1550  180.0790  136.6300 C   0  0  0  0  0  2  0  0  0  0  0  0
  180.6710  178.7090  136.5570 N   0  0  0  0  0  0  0  0  0  0  0  0
  180.7050  178.0630  137.6700 C   0  0  0  0  0  0  0  0  0  0  0  0
  181.5470  180.4520  138.3790 S   0  0  0  0  0  0  0  0  0  0  0  0
  2  8  2  0  0  0  0
  2  7  1  0  0  0  0
  3  4  1  6  0  0  0
  3  7  1  0  0  0  0
  3  9  1  0  0  0  0
  4 11  1  0  0  0  0
  5 11  1  6  0  0  0
  5 16  1  0  0  0  0
  5 10  1  0  0  0  0
  6  1  1  0  0  0  0
  7  6  1  0  0  0  0
  9 10  1  1  0  0  0
  9  1  1  0  0  0  0
 13 19  2  0  0  0  0
 14 17  2  0  0  0  0
 14 16  1  0  0  0  0
 15 22  1  0  0  0  0
 16 13  1  0  0  0  0
 17 18  1  0  0  0  0
 18 13  1  0  0  0  0
 18 20  1  0  0  0  0
 19 15  1  0  0  0  0
 20 12  1  0  0  0  0
 20 15  2  0  0  0  0
 22 21  3  0  0  0  0
 23 14  1  0  0  0  0
 24 23  1  0  0  0  0
 25 24  1  0  0  0  0
 26 27  1  0  0  0  0
 26 25  1  0  0  0  0
 27 29  1  6  0  0  0
 28 27  1  0  0  0  0
 30  2  1  0  0  0  0
 31 30  1  0  0  0  0
 33 36  1  0  0  0  0
 34 33  1  0  0  0  0
 34 35  2  0  0  0  0
 35 32  1  0  0  0  0
 35 31  1  0  0  0  0
 36 31  1  0  0  0  0
M  END
>  <MODEL>
6

>  <REMARK>
 VINA RESULT:      -7.6      2.045      2.346
  Name = 
  9 active torsions:
  status: ('A' for Active; 'I' for Inactive)
    1  A    between atoms: N_1  and  C_4
    2  A    between atoms: N_1  and  C_25
    3  A    between atoms: N_2  and  C_5
    4  A    between atoms: C_4  and  C_28
    5  A    between atoms: C_5  and  C_6
    6  A    between atoms: C_10  and  C_14
    7  A    between atoms: C_10  and  C_25
    8  A    between atoms: C_15  and  N_18
    9  A    between atoms: C_16  and  C_34
                            x       y       z     vdW  Elec       q    Type
                         _______ _______ _______ _____ _____    ______ ____

>  <TORSDO>
F 9

$$$$
=
 OpenBabel10232411263D

 36 40  0  0  1  0  0  0  0  0999 V2000
  191.6000  177.4030  142.9630 C   0  0  0  0  0  2  0  0  0  0  0  0
  188.3900  177.7900  144.8320 C   0  0  0  0  0  0  0  0  0  0  0  0
  189.2670  177.3380  142.4800 C   0  0  2  0  0  3  0  0  0  0  0  0
  188.2160  178.0640  141.6420 C   0  0  0  0  0  2  0  0  0  0  0  0
  189.4070  176.6370  139.8360 C   0  0  1  0  0  3  0  0  0  0  0  0
  190.8360  177.9160  144.1850 C   0  0  0  0  0  2  0  0  0  0  0  0
  189.4230  177.8230  143.8370 N   0  0  0  0  0  0  0  0  0  0  0  0
  188.6350  178.1710  146.0080 O   0  0  0  0  0  0  0  0  0  0  0  0
  190.6030  177.5860  141.8440 C   0  0  2  0  0  3  0  0  0  0  0  0
  190.7520  176.7160  140.6010 C   0  0  0  0  0  2  0  0  0  0  0  0
  188.4360  177.8100  140.1300 C   0  0  0  0  0  2  0  0  0  0  0  0
  192.0330  176.1270  134.4590 N   0  0  0  0  0  1  0  0  0  0  0  0
  190.7720  176.3070  137.7340 C   0  0  0  0  0  0  0  0  0  0  0  0
  188.7010  176.6010  137.4030 C   0  0  0  0  0  0  0  0  0  0  0  0
  192.7470  176.0610  136.8790 C   0  0  0  0  0  0  0  0  0  0  0  0
  189.6240  176.4880  138.4010 N   0  0  0  0  0  0  0  0  0  0  0  0
  189.3100  176.4890  136.1420 C   0  0  0  0  0  3  0  0  0  0  0  0
  190.6070  176.2980  136.4360 N   0  0  0  0  0  0  0  0  0  0  0  0
  192.0960  176.1690  138.1240 C   0  0  0  0  0  3  0  0  0  0  0  0
  191.7980  176.1460  135.8630 C   0  0  0  0  0  0  0  0  0  0  0  0
  195.3060  175.7900  136.5500 N   0  0  0  0  0  0  0  0  0  0  0  0
  194.1640  175.9100  136.6970 C   0  0  0  0  0  0  0  0  0  0  0  0
  187.2530  176.8790  137.6260 C   0  0  0  0  0  2  0  0  0  0  0  0
  186.8510  178.1440  136.8900 C   0  0  0  0  0  2  0  0  0  0  0  0
  186.0630  178.9940  137.7670 N   0  0  0  0  0  2  0  0  0  0  0  0
  185.1460  178.1280  138.4900 C   0  0  0  0  0  2  0  0  0  0  0  0
  184.0690  178.9580  139.1630 C   0  0  1  0  0  3  0  0  0  0  0  0
  184.4790  180.2880  139.2210 O   0  0  0  0  0  1  0  0  0  0  0  0
  182.7730  178.8680  138.3780 C   0  0  0  0  0  1  0  0  0  0  0  0
  187.0230  177.2720  144.5110 C   0  0  0  0  0  2  0  0  0  0  0  0
  186.0470  178.3530  144.5620 N   0  0  0  0  0  0  0  0  0  0  0  0
  185.7310  178.2580  147.0930 C   0  0  0  0  0  1  0  0  0  0  0  0
  183.7940  179.4150  144.1320 C   0  0  0  0  0  2  0  0  0  0  0  0
  184.1250  179.1640  145.5270 N   0  0  0  0  0  0  0  0  0  0  0  0
  185.2700  178.6080  145.7200 C   0  0  0  0  0  0  0  0  0  0  0  0
  185.2360  178.9370  143.1110 S   0  0  0  0  0  0  0  0  0  0  0  0
  1  6  1  0  0  0  0
  2  8  2  0  0  0  0
  3  4  1  6  0  0  0
  3  7  1  0  0  0  0
  5 16  1  6  0  0  0
  5 11  1  0  0  0  0
  5 10  1  0  0  0  0
  7  6  1  0  0  0  0
  7  2  1  0  0  0  0
  9 10  1  6  0  0  0
  9  3  1  0  0  0  0
  9  1  1  0  0  0  0
 11  4  1  0  0  0  0
 12 20  1  0  0  0  0
 13 19  2  0  0  0  0
 13 16  1  0  0  0  0
 14 23  1  0  0  0  0
 14 16  1  0  0  0  0
 15 19  1  0  0  0  0
 17 18  1  0  0  0  0
 17 14  2  0  0  0  0
 18 13  1  0  0  0  0
 20 18  1  0  0  0  0
 20 15  2  0  0  0  0
 21 22  3  0  0  0  0
 22 15  1  0  0  0  0
 24 23  1  0  0  0  0
 24 25  1  0  0  0  0
 25 26  1  0  0  0  0
 26 27  1  0  0  0  0
 27 29  1  6  0  0  0
 27 28  1  0  0  0  0
 30 31  1  0  0  0  0
 30  2  1  0  0  0  0
 31 35  1  0  0  0  0
 33 34  1  0  0  0  0
 34 35  2  0  0  0  0
 35 32  1  0  0  0  0
 36 33  1  0  0  0  0
 36 31  1  0  0  0  0
M  END
>  <MODEL>
7

>  <REMARK>
 VINA RESULT:      -7.4      3.400      7.395
  Name = 
  9 active torsions:
  status: ('A' for Active; 'I' for Inactive)
    1  A    between atoms: N_1  and  C_4
    2  A    between atoms: N_1  and  C_25
    3  A    between atoms: N_2  and  C_5
    4  A    between atoms: C_4  and  C_28
    5  A    between atoms: C_5  and  C_6
    6  A    between atoms: C_10  and  C_14
    7  A    between atoms: C_10  and  C_25
    8  A    between atoms: C_15  and  N_18
    9  A    between atoms: C_16  and  C_34
                            x       y       z     vdW  Elec       q    Type
                         _______ _______ _______ _____ _____    ______ ____

>  <TORSDO>
F 9

$$$$
=
 OpenBabel10232411263D

 36 40  0  0  1  0  0  0  0  0999 V2000
  183.4680  178.8050  144.8800 C   0  0  0  0  0  2  0  0  0  0  0  0
  181.5430  178.7300  141.6790 C   0  0  0  0  0  0  0  0  0  0  0  0
  183.9120  178.4130  142.5700 C   0  0  2  0  0  3  0  0  0  0  0  0
  184.7290  178.9860  141.4140 C   0  0  0  0  0  2  0  0  0  0  0  0
  186.5620  177.7470  142.7630 C   0  0  1  0  0  3  0  0  0  0  0  0
  182.2310  179.2020  144.0720 C   0  0  0  0  0  2  0  0  0  0  0  0
  182.5550  178.9120  142.6810 N   0  0  0  0  0  0  0  0  0  0  0  0
  180.3700  179.1380  141.8890 O   0  0  0  0  0  0  0  0  0  0  0  0
  184.5690  178.8500  143.8470 C   0  0  2  0  0  3  0  0  0  0  0  0
  185.8190  178.0130  144.0960 C   0  0  0  0  0  2  0  0  0  0  0  0
  186.2450  178.7710  141.6410 C   0  0  0  0  0  2  0  0  0  0  0  0
  192.4410  176.9230  141.8520 N   0  0  0  0  0  1  0  0  0  0  0  0
  188.9790  177.4860  142.0690 C   0  0  0  0  0  0  0  0  0  0  0  0
  188.6650  177.5560  144.1620 C   0  0  0  0  0  0  0  0  0  0  0  0
  190.3730  177.2100  140.4330 C   0  0  0  0  0  0  0  0  0  0  0  0
  188.0010  177.6350  142.9740 N   0  0  0  0  0  0  0  0  0  0  0  0
  190.0410  177.3560  143.9560 C   0  0  0  0  0  3  0  0  0  0  0  0
  190.1570  177.3320  142.6180 N   0  0  0  0  0  0  0  0  0  0  0  0
  189.0020  177.4190  140.6830 C   0  0  0  0  0  3  0  0  0  0  0  0
  191.0520  177.1610  141.6490 C   0  0  0  0  0  0  0  0  0  0  0  0
  191.4360  176.9250  138.0840 N   0  0  0  0  0  0  0  0  0  0  0  0
  190.9610  177.0520  139.1320 C   0  0  0  0  0  0  0  0  0  0  0  0
  188.0040  177.6030  145.4980 C   0  0  0  0  0  2  0  0  0  0  0  0
  189.0080  178.0240  146.5560 C   0  0  0  0  0  2  0  0  0  0  0  0
  189.5530  176.8470  147.2120 N   0  0  0  0  0  2  0  0  0  0  0  0
  190.9810  177.0690  147.3700 C   0  0  0  0  0  2  0  0  0  0  0  0
  191.7050  175.7400  147.4770 C   0  0  1  0  0  3  0  0  0  0  0  0
  192.3590  175.4720  146.2760 O   0  0  0  0  0  1  0  0  0  0  0  0
  192.7230  175.7880  148.6010 C   0  0  0  0  0  1  0  0  0  0  0  0
  181.8450  178.0260  140.3940 C   0  0  0  0  0  2  0  0  0  0  0  0
  181.1950  178.7040  139.2800 N   0  0  0  0  0  0  0  0  0  0  0  0
  180.0080  176.6220  138.4040 C   0  0  0  0  0  1  0  0  0  0  0  0
  181.1410  179.9000  137.0540 C   0  0  0  0  0  2  0  0  0  0  0  0
  180.5190  178.5850  137.0860 N   0  0  0  0  0  0  0  0  0  0  0  0
  180.5730  177.9890  138.2260 C   0  0  0  0  0  0  0  0  0  0  0  0
  181.7010  180.3060  138.7490 S   0  0  0  0  0  0  0  0  0  0  0  0
  2  8  2  0  0  0  0
  2  7  1  0  0  0  0
  3  4  1  6  0  0  0
  3  7  1  0  0  0  0
  3  9  1  0  0  0  0
  4 11  1  0  0  0  0
  5 11  1  6  0  0  0
  5 16  1  0  0  0  0
  5 10  1  0  0  0  0
  6  1  1  0  0  0  0
  7  6  1  0  0  0  0
  9 10  1  1  0  0  0
  9  1  1  0  0  0  0
 13 18  1  0  0  0  0
 13 16  1  0  0  0  0
 14 23  1  0  0  0  0
 15 19  1  0  0  0  0
 15 20  2  0  0  0  0
 16 14  1  0  0  0  0
 17 14  2  0  0  0  0
 18 17  1  0  0  0  0
 19 13  2  0  0  0  0
 20 12  1  0  0  0  0
 20 18  1  0  0  0  0
 21 22  3  0  0  0  0
 22 15  1  0  0  0  0
 23 24  1  0  0  0  0
 24 25  1  0  0  0  0
 25 26  1  0  0  0  0
 26 27  1  0  0  0  0
 27 29  1  1  0  0  0
 28 27  1  0  0  0  0
 30  2  1  0  0  0  0
 31 30  1  0  0  0  0
 33 34  1  0  0  0  0
 33 36  1  0  0  0  0
 34 35  2  0  0  0  0
 35 32  1  0  0  0  0
 35 31  1  0  0  0  0
 36 31  1  0  0  0  0
M  END
>  <MODEL>
8

>  <REMARK>
 VINA RESULT:      -7.3      2.664      5.401
  Name = 
  9 active torsions:
  status: ('A' for Active; 'I' for Inactive)
    1  A    between atoms: N_1  and  C_4
    2  A    between atoms: N_1  and  C_25
    3  A    between atoms: N_2  and  C_5
    4  A    between atoms: C_4  and  C_28
    5  A    between atoms: C_5  and  C_6
    6  A    between atoms: C_10  and  C_14
    7  A    between atoms: C_10  and  C_25
    8  A    between atoms: C_15  and  N_18
    9  A    between atoms: C_16  and  C_34
                            x       y       z     vdW  Elec       q    Type
                         _______ _______ _______ _____ _____    ______ ____

>  <TORSDO>
F 9

$$$$
=
 OpenBabel10232411263D

 36 40  0  0  1  0  0  0  0  0999 V2000
  184.8830  178.7360  139.4760 C   0  0  0  0  0  2  0  0  0  0  0  0
  187.8540  177.7910  137.4180 C   0  0  0  0  0  0  0  0  0  0  0  0
  187.1300  178.0350  139.8520 C   0  0  2  0  0  3  0  0  0  0  0  0
  188.4290  178.5300  140.4850 C   0  0  0  0  0  2  0  0  0  0  0  0
  187.0630  177.8670  142.5860 C   0  0  1  0  0  3  0  0  0  0  0  0
  185.6340  178.7740  138.1440 C   0  0  0  0  0  2  0  0  0  0  0  0
  186.9850  178.3090  138.4360 N   0  0  0  0  0  0  0  0  0  0  0  0
  187.6120  178.0250  136.2050 O   0  0  0  0  0  0  0  0  0  0  0  0
  186.0000  178.7870  140.4910 C   0  0  2  0  0  3  0  0  0  0  0  0
  185.7290  178.2280  141.8830 C   0  0  0  0  0  2  0  0  0  0  0  0
  188.3010  178.6160  142.0260 C   0  0  0  0  0  2  0  0  0  0  0  0
  188.2240  177.6690  148.4750 N   0  0  0  0  0  1  0  0  0  0  0  0
  187.8670  177.7600  144.9800 C   0  0  0  0  0  0  0  0  0  0  0  0
  185.8690  178.4240  144.7490 C   0  0  0  0  0  0  0  0  0  0  0  0
  189.4670  177.2010  146.3290 C   0  0  0  0  0  0  0  0  0  0  0  0
  186.9610  178.0360  144.0310 N   0  0  0  0  0  0  0  0  0  0  0  0
  186.1320  178.3740  146.1280 C   0  0  0  0  0  3  0  0  0  0  0  0
  187.4070  177.9570  146.1890 N   0  0  0  0  0  0  0  0  0  0  0  0
  189.1660  177.2750  144.9540 C   0  0  0  0  0  3  0  0  0  0  0  0
  188.3600  177.6280  147.0580 C   0  0  0  0  0  0  0  0  0  0  0  0
  191.7130  176.3660  147.3220 N   0  0  0  0  0  0  0  0  0  0  0  0
  190.7110  176.7380  146.8790 C   0  0  0  0  0  0  0  0  0  0  0  0
  184.5520  178.7830  144.1470 C   0  0  0  0  0  2  0  0  0  0  0  0
  183.4800  178.7920  145.2210 C   0  0  0  0  0  2  0  0  0  0  0  0
  182.1700  178.6400  144.6100 N   0  0  0  0  0  2  0  0  0  0  0  0
  182.2670  179.1650  143.2570 C   0  0  0  0  0  2  0  0  0  0  0  0
  180.9220  179.0640  142.5630 C   0  0  1  0  0  3  0  0  0  0  0  0
  180.3400  180.3280  142.4960 O   0  0  0  0  0  1  0  0  0  0  0  0
  181.1000  178.5200  141.1580 C   0  0  0  0  0  1  0  0  0  0  0  0
  189.0320  176.9380  137.7690 C   0  0  0  0  0  2  0  0  0  0  0  0
  188.9350  175.6440  137.1060 N   0  0  0  0  0  0  0  0  0  0  0  0
  191.2180  175.7900  135.9770 C   0  0  0  0  0  1  0  0  0  0  0  0
  187.9990  174.0060  135.4230 C   0  0  0  0  0  2  0  0  0  0  0  0
  189.3820  174.4110  135.2180 N   0  0  0  0  0  0  0  0  0  0  0  0
  189.8310  175.2570  136.0780 C   0  0  0  0  0  0  0  0  0  0  0  0
  187.4000  174.7890  136.9650 S   0  0  0  0  0  0  0  0  0  0  0  0
  2 30  1  0  0  0  0
  2  7  1  0  0  0  0
  3  4  1  1  0  0  0
  3  9  1  0  0  0  0
  4 11  1  0  0  0  0
  5 10  1  6  0  0  0
  5 16  1  0  0  0  0
  6  7  1  0  0  0  0
  6  1  1  0  0  0  0
  7  3  1  0  0  0  0
  8  2  2  0  0  0  0
  9  1  1  6  0  0  0
  9 10  1  0  0  0  0
 11  5  1  0  0  0  0
 13 18  1  0  0  0  0
 14 17  2  0  0  0  0
 15 22  1  0  0  0  0
 15 20  2  0  0  0  0
 16 14  1  0  0  0  0
 16 13  1  0  0  0  0
 17 18  1  0  0  0  0
 18 20  1  0  0  0  0
 19 13  2  0  0  0  0
 19 15  1  0  0  0  0
 20 12  1  0  0  0  0
 22 21  3  0  0  0  0
 23 14  1  0  0  0  0
 23 24  1  0  0  0  0
 25 24  1  0  0  0  0
 26 25  1  0  0  0  0
 27 29  1  6  0  0  0
 27 26  1  0  0  0  0
 28 27  1  0  0  0  0
 31 30  1  0  0  0  0
 32 35  1  0  0  0  0
 33 36  1  0  0  0  0
 34 33  1  0  0  0  0
 34 35  2  0  0  0  0
 35 31  1  0  0  0  0
 36 31  1  0  0  0  0
M  END
>  <MODEL>
9

>  <REMARK>
 VINA RESULT:      -7.2      2.501      5.973
  Name = 
  9 active torsions:
  status: ('A' for Active; 'I' for Inactive)
    1  A    between atoms: N_1  and  C_4
    2  A    between atoms: N_1  and  C_25
    3  A    between atoms: N_2  and  C_5
    4  A    between atoms: C_4  and  C_28
    5  A    between atoms: C_5  and  C_6
    6  A    between atoms: C_10  and  C_14
    7  A    between atoms: C_10  and  C_25
    8  A    between atoms: C_15  and  N_18
    9  A    between atoms: C_16  and  C_34
                            x       y       z     vdW  Elec       q    Type
                         _______ _______ _______ _____ _____    ______ ____

>  <TORSDO>
F 9

$$$$
