=
 OpenBabel10232408173D

 32 35  0  0  1  0  0  0  0  0999 V2000
  191.6410  176.5360  138.7790 C   0  0  0  0  0  2  0  0  0  0  0  0
  188.2390  177.5540  138.6700 N   0  0  0  0  0  0  0  0  0  0  0  0
  190.4400  175.1810  137.2680 N   0  0  0  0  0  2  0  0  0  0  0  0
  187.5380  176.0220  136.9850 O   0  0  0  0  0  0  0  0  0  0  0  0
  191.7960  175.4030  137.7840 C   0  0  1  0  0  3  0  0  0  0  0  0
  188.3790  176.3940  137.8460 C   0  0  0  0  0  0  0  0  0  0  0  0
  189.4930  177.7850  139.4140 C   0  0  2  0  0  3  0  0  0  0  0  0
  189.6620  175.7940  138.0870 C   0  0  2  0  0  3  0  0  0  0  0  0
  190.3440  176.6220  138.9990 C   0  0  1  0  0  3  0  0  0  0  0  0
  191.3620  177.3990  144.8900 C   0  0  0  0  0  1  0  0  0  0  0  0
  191.5170  177.6630  141.7950 O   0  0  0  0  0  0  0  0  0  0  0  0
  189.9200  177.4760  144.5150 C   0  0  0  0  0  0  0  0  0  0  0  0
  187.1870  177.5960  143.7550 C   0  0  0  0  0  3  0  0  0  0  0  0
  187.5430  177.4710  145.1100 C   0  0  0  0  0  0  0  0  0  0  0  0
  190.2660  177.6770  141.9410 C   0  0  0  0  0  0  0  0  0  0  0  0
  188.2070  177.6640  142.8100 C   0  0  0  0  0  0  0  0  0  0  0  0
  188.9060  177.4110  145.4930 C   0  0  0  0  0  0  0  0  0  0  0  0
  188.0480  177.7570  141.3940 N   0  0  0  0  0  0  0  0  0  0  0  0
  189.2450  177.2840  146.8380 O   0  0  0  0  0  1  0  0  0  0  0  0
  189.2460  177.7730  140.8910 C   0  0  0  0  0  0  0  0  0  0  0  0
  186.4620  177.3960  146.1330 C   0  0  0  0  0  1  0  0  0  0  0  0
  189.5280  177.6060  143.1820 C   0  0  0  0  0  0  0  0  0  0  0  0
  193.8720  176.5130  136.9680 O   0  0  0  0  0  1  0  0  0  0  0  0
  192.7240  175.7880  136.6790 C   0  0  0  0  0  0  0  0  0  0  0  0
  192.4670  175.4730  135.4860 O   0  0  0  0  0  0  0  0  0  0  0  0
  187.2160  178.5730  138.4650 C   0  0  0  0  0  2  0  0  0  0  0  0
  185.8420  178.0340  138.8340 C   0  0  0  0  0  2  0  0  0  0  0  0
  184.5160  180.0110  139.2060 O   0  0  0  0  0  1  0  0  0  0  0  0
  185.1430  178.9380  139.8430 C   0  0  1  0  0  3  0  0  0  0  0  0
  184.1360  178.1610  140.6890 C   0  0  0  0  0  2  0  0  0  0  0  0
  182.8300  178.8230  142.7120 C   0  0  0  0  0  1  0  0  0  0  0  0
  184.2120  178.5110  142.1720 C   0  0  0  0  0  2  0  0  0  0  0  0
  2  7  1  0  0  0  0
  3  5  1  0  0  0  0
  4  6  2  0  0  0  0
  5 24  1  6  0  0  0
  5  1  1  0  0  0  0
  6  8  1  0  0  0  0
  6  2  1  0  0  0  0
  7 20  1  1  0  0  0
  8  3  1  6  0  0  0
  8  9  1  0  0  0  0
  9  1  1  6  0  0  0
  9  7  1  0  0  0  0
 11 15  2  0  0  0  0
 12 10  1  0  0  0  0
 12 17  1  0  0  0  0
 13 14  1  0  0  0  0
 14 17  2  0  0  0  0
 14 21  1  0  0  0  0
 15 22  1  0  0  0  0
 16 22  1  0  0  0  0
 16 13  2  0  0  0  0
 17 19  1  0  0  0  0
 18 16  1  0  0  0  0
 20 18  2  0  0  0  0
 20 15  1  0  0  0  0
 22 12  2  0  0  0  0
 24 23  1  0  0  0  0
 25 24  2  0  0  0  0
 26  2  1  0  0  0  0
 26 27  1  0  0  0  0
 27 29  1  0  0  0  0
 29 28  1  6  0  0  0
 29 30  1  0  0  0  0
 30 32  1  0  0  0  0
 32 31  1  0  0  0  0
M  END
>  <MODEL>
1

>  <REMARK>
 VINA RESULT:      -8.2      0.000      0.000
  Name = 
  7 active torsions:
  status: ('A' for Active; 'I' for Inactive)
    1  A    between atoms: C_5  and  N_9
    2  A    between atoms: C_5  and  C_25
    3  A    between atoms: C_8  and  C_18
    4  A    between atoms: C_8  and  C_29
    5  A    between atoms: CA_19  and  C_23
    6  A    between atoms: C_22  and  C_30
    7  A    between atoms: C_25  and  C_29
                            x       y       z     vdW  Elec       q    Type
                         _______ _______ _______ _____ _____    ______ ____

>  <TORSDO>
F 7

$$$$
=
 OpenBabel10232408173D

 32 35  0  0  1  0  0  0  0  0999 V2000
  189.2060  178.0280  143.8550 C   0  0  0  0  0  2  0  0  0  0  0  0
  188.9020  177.9900  140.3160 N   0  0  0  0  0  0  0  0  0  0  0  0
  190.4350  176.2260  142.9570 N   0  0  0  0  0  2  0  0  0  0  0  0
  190.3610  176.1480  139.9250 O   0  0  0  0  0  0  0  0  0  0  0  0
  190.1330  176.8900  144.2310 C   0  0  1  0  0  3  0  0  0  0  0  0
  189.6560  176.8400  140.7060 C   0  0  0  0  0  0  0  0  0  0  0  0
  188.3610  178.6560  141.5170 C   0  0  2  0  0  3  0  0  0  0  0  0
  189.5580  176.6710  142.1300 C   0  0  2  0  0  3  0  0  0  0  0  0
  188.8110  177.7550  142.6270 C   0  0  1  0  0  3  0  0  0  0  0  0
  183.1520  178.6750  144.0650 C   0  0  0  0  0  1  0  0  0  0  0  0
  186.2520  178.7450  143.8250 O   0  0  0  0  0  0  0  0  0  0  0  0
  183.3450  178.6880  142.5860 C   0  0  0  0  0  0  0  0  0  0  0  0
  183.7590  178.6810  139.7770 C   0  0  0  0  0  3  0  0  0  0  0  0
  182.4550  178.6530  140.3030 C   0  0  0  0  0  0  0  0  0  0  0  0
  185.9500  178.7320  142.6020 C   0  0  0  0  0  0  0  0  0  0  0  0
  184.8280  178.7170  140.6680 C   0  0  0  0  0  0  0  0  0  0  0  0
  182.2440  178.6560  141.7040 C   0  0  0  0  0  0  0  0  0  0  0  0
  186.2160  178.7140  140.3320 N   0  0  0  0  0  0  0  0  0  0  0  0
  180.9480  178.6260  142.2120 O   0  0  0  0  0  1  0  0  0  0  0  0
  186.8660  178.7320  141.4560 C   0  0  0  0  0  0  0  0  0  0  0  0
  181.3010  178.6130  139.3610 C   0  0  0  0  0  1  0  0  0  0  0  0
  184.6230  178.7210  142.0270 C   0  0  0  0  0  0  0  0  0  0  0  0
  191.8260  176.8510  146.0590 O   0  0  0  0  0  1  0  0  0  0  0  0
  191.3820  177.4070  144.8660 C   0  0  0  0  0  0  0  0  0  0  0  0
  192.0280  178.3520  144.3390 O   0  0  0  0  0  0  0  0  0  0  0  0
  189.0290  178.6370  139.0160 C   0  0  0  0  0  2  0  0  0  0  0  0
  188.6080  177.6900  137.9010 C   0  0  0  0  0  2  0  0  0  0  0  0
  187.5450  179.6120  136.9130 O   0  0  0  0  0  1  0  0  0  0  0  0
  187.4160  178.2380  137.1270 C   0  0  1  0  0  3  0  0  0  0  0  0
  187.2280  177.5100  135.7970 C   0  0  0  0  0  2  0  0  0  0  0  0
  185.0130  177.0530  136.8560 C   0  0  0  0  0  1  0  0  0  0  0  0
  185.7840  177.0860  135.5510 C   0  0  0  0  0  2  0  0  0  0  0  0
  1  5  1  0  0  0  0
  2  6  1  0  0  0  0
  2  7  1  0  0  0  0
  3  5  1  0  0  0  0
  4  6  2  0  0  0  0
  5 24  1  6  0  0  0
  7 20  1  6  0  0  0
  7  9  1  0  0  0  0
  8  6  1  6  0  0  0
  8  9  1  0  0  0  0
  8  3  1  0  0  0  0
  9  1  1  1  0  0  0
 12 10  1  0  0  0  0
 13 14  2  0  0  0  0
 13 16  1  0  0  0  0
 14 17  1  0  0  0  0
 15 11  2  0  0  0  0
 16 22  2  0  0  0  0
 17 19  1  0  0  0  0
 17 12  2  0  0  0  0
 18 16  1  0  0  0  0
 18 20  2  0  0  0  0
 20 15  1  0  0  0  0
 21 14  1  0  0  0  0
 22 12  1  0  0  0  0
 22 15  1  0  0  0  0
 24 23  1  0  0  0  0
 25 24  2  0  0  0  0
 26  2  1  0  0  0  0
 27 26  1  0  0  0  0
 29 28  1  6  0  0  0
 29 27  1  0  0  0  0
 30 29  1  0  0  0  0
 32 30  1  0  0  0  0
 32 31  1  0  0  0  0
M  END
>  <MODEL>
2

>  <REMARK>
 VINA RESULT:      -7.8      2.542      5.934
  Name = 
  7 active torsions:
  status: ('A' for Active; 'I' for Inactive)
    1  A    between atoms: C_5  and  N_9
    2  A    between atoms: C_5  and  C_25
    3  A    between atoms: C_8  and  C_18
    4  A    between atoms: C_8  and  C_29
    5  A    between atoms: CA_19  and  C_23
    6  A    between atoms: C_22  and  C_30
    7  A    between atoms: C_25  and  C_29
                            x       y       z     vdW  Elec       q    Type
                         _______ _______ _______ _____ _____    ______ ____

>  <TORSDO>
F 7

$$$$
=
 OpenBabel10232408173D

 32 35  0  0  1  0  0  0  0  0999 V2000
  188.9420  177.8540  144.2840 C   0  0  0  0  0  2  0  0  0  0  0  0
  188.7210  177.9540  140.7390 N   0  0  0  0  0  0  0  0  0  0  0  0
  190.1720  176.0730  143.3470 N   0  0  0  0  0  2  0  0  0  0  0  0
  190.1680  176.1110  140.3120 O   0  0  0  0  0  0  0  0  0  0  0  0
  189.8470  176.6910  144.6380 C   0  0  1  0  0  3  0  0  0  0  0  0
  189.4530  176.7810  141.1030 C   0  0  0  0  0  0  0  0  0  0  0  0
  188.1590  178.5800  141.9520 C   0  0  2  0  0  3  0  0  0  0  0  0
  189.3200  176.5590  142.5160 C   0  0  2  0  0  3  0  0  0  0  0  0
  188.5730  177.6320  143.0380 C   0  0  1  0  0  3  0  0  0  0  0  0
  182.9050  178.7770  144.3980 C   0  0  0  0  0  1  0  0  0  0  0  0
  186.0090  178.7900  144.2140 O   0  0  0  0  0  0  0  0  0  0  0  0
  183.1260  178.7300  142.9230 C   0  0  0  0  0  0  0  0  0  0  0  0
  183.5920  178.6080  140.1240 C   0  0  0  0  0  3  0  0  0  0  0  0
  182.2780  178.6210  140.6260 C   0  0  0  0  0  0  0  0  0  0  0  0
  185.7300  178.7350  142.9870 C   0  0  0  0  0  0  0  0  0  0  0  0
  184.6440  178.6620  141.0340 C   0  0  0  0  0  0  0  0  0  0  0  0
  182.0410  178.6810  142.0220 C   0  0  0  0  0  0  0  0  0  0  0  0
  186.0380  178.6260  140.7250 N   0  0  0  0  0  0  0  0  0  0  0  0
  180.7360  178.6900  142.5060 O   0  0  0  0  0  1  0  0  0  0  0  0
  186.6670  178.6760  141.8600 C   0  0  0  0  0  0  0  0  0  0  0  0
  181.1410  178.5620  139.6650 C   0  0  0  0  0  1  0  0  0  0  0  0
  184.4140  178.7220  142.3880 C   0  0  0  0  0  0  0  0  0  0  0  0
  191.4500  176.6210  146.5440 O   0  0  0  0  0  1  0  0  0  0  0  0
  191.0870  177.1690  145.3210 C   0  0  0  0  0  0  0  0  0  0  0  0
  191.7970  178.0730  144.8050 O   0  0  0  0  0  0  0  0  0  0  0  0
  188.8860  178.6480  139.4680 C   0  0  0  0  0  2  0  0  0  0  0  0
  188.1950  177.8860  138.3470 C   0  0  0  0  0  2  0  0  0  0  0  0
  189.0170  179.8120  137.1560 O   0  0  0  0  0  1  0  0  0  0  0  0
  188.4080  178.5650  136.9990 C   0  0  1  0  0  3  0  0  0  0  0  0
  189.2290  177.6900  136.0540 C   0  0  0  0  0  2  0  0  0  0  0  0
  191.1370  176.2750  136.8240 C   0  0  0  0  0  1  0  0  0  0  0  0
  189.6300  176.3570  136.6770 C   0  0  0  0  0  2  0  0  0  0  0  0
  1  5  1  0  0  0  0
  2  6  1  0  0  0  0
  2  7  1  0  0  0  0
  3  5  1  0  0  0  0
  4  6  2  0  0  0  0
  5 24  1  6  0  0  0
  7 20  1  6  0  0  0
  7  9  1  0  0  0  0
  8  6  1  6  0  0  0
  8  9  1  0  0  0  0
  8  3  1  0  0  0  0
  9  1  1  1  0  0  0
 12 10  1  0  0  0  0
 13 14  2  0  0  0  0
 13 16  1  0  0  0  0
 14 17  1  0  0  0  0
 15 11  2  0  0  0  0
 16 22  2  0  0  0  0
 17 19  1  0  0  0  0
 17 12  2  0  0  0  0
 18 16  1  0  0  0  0
 18 20  2  0  0  0  0
 20 15  1  0  0  0  0
 21 14  1  0  0  0  0
 22 12  1  0  0  0  0
 22 15  1  0  0  0  0
 24 23  1  0  0  0  0
 25 24  2  0  0  0  0
 26  2  1  0  0  0  0
 27 26  1  0  0  0  0
 29 28  1  1  0  0  0
 29 27  1  0  0  0  0
 30 32  1  0  0  0  0
 30 29  1  0  0  0  0
 32 31  1  0  0  0  0
M  END
>  <MODEL>
3

>  <REMARK>
 VINA RESULT:      -7.6      2.420      6.384
  Name = 
  7 active torsions:
  status: ('A' for Active; 'I' for Inactive)
    1  A    between atoms: C_5  and  N_9
    2  A    between atoms: C_5  and  C_25
    3  A    between atoms: C_8  and  C_18
    4  A    between atoms: C_8  and  C_29
    5  A    between atoms: CA_19  and  C_23
    6  A    between atoms: C_22  and  C_30
    7  A    between atoms: C_25  and  C_29
                            x       y       z     vdW  Elec       q    Type
                         _______ _______ _______ _____ _____    ______ ____

>  <TORSDO>
F 7

$$$$
=
 OpenBabel10232408173D

 32 35  0  0  1  0  0  0  0  0999 V2000
  183.6740  179.0110  139.3170 C   0  0  0  0  0  2  0  0  0  0  0  0
  184.2390  179.1440  142.8220 N   0  0  0  0  0  0  0  0  0  0  0  0
  181.8390  178.0780  140.4670 N   0  0  0  0  0  2  0  0  0  0  0  0
  182.1360  178.2390  143.4830 O   0  0  0  0  0  0  0  0  0  0  0  0
  182.2990  178.4090  139.1130 C   0  0  1  0  0  3  0  0  0  0  0  0
  183.0090  178.4510  142.5990 C   0  0  0  0  0  0  0  0  0  0  0  0
  184.9160  179.3730  141.5310 C   0  0  2  0  0  3  0  0  0  0  0  0
  182.8910  178.1320  141.2030 C   0  0  2  0  0  3  0  0  0  0  0  0
  184.0060  178.6930  140.5530 C   0  0  1  0  0  3  0  0  0  0  0  0
  189.6010  177.3850  138.7490 C   0  0  0  0  0  1  0  0  0  0  0  0
  186.8750  178.8280  139.1540 O   0  0  0  0  0  0  0  0  0  0  0  0
  189.4060  177.2660  140.2240 C   0  0  0  0  0  0  0  0  0  0  0  0
  188.9800  177.0340  143.0220 C   0  0  0  0  0  3  0  0  0  0  0  0
  190.1350  176.4910  142.4310 C   0  0  0  0  0  0  0  0  0  0  0  0
  187.1140  178.4980  140.3460 C   0  0  0  0  0  0  0  0  0  0  0  0
  188.0650  177.6860  142.1990 C   0  0  0  0  0  0  0  0  0  0  0  0
  190.3510  176.6050  141.0360 C   0  0  0  0  0  0  0  0  0  0  0  0
  186.8250  178.2680  142.6020 N   0  0  0  0  0  0  0  0  0  0  0  0
  191.4980  176.0610  140.4630 O   0  0  0  0  0  1  0  0  0  0  0  0
  186.2770  178.7470  141.5260 C   0  0  0  0  0  0  0  0  0  0  0  0
  191.1230  175.7890  143.2980 C   0  0  0  0  0  1  0  0  0  0  0  0
  188.2750  177.7960  140.8460 C   0  0  0  0  0  0  0  0  0  0  0  0
  181.7900  180.7050  138.2890 O   0  0  0  0  0  1  0  0  0  0  0  0
  181.3760  179.3920  138.4690 C   0  0  0  0  0  0  0  0  0  0  0  0
  180.2210  179.0450  138.1040 O   0  0  0  0  0  0  0  0  0  0  0  0
  184.5390  179.8870  144.0400 C   0  0  0  0  0  2  0  0  0  0  0  0
  184.4910  178.9690  145.2530 C   0  0  0  0  0  2  0  0  0  0  0  0
  185.6070  179.5430  147.3090 O   0  0  0  0  0  1  0  0  0  0  0  0
  185.7990  179.0090  146.0330 C   0  0  1  0  0  3  0  0  0  0  0  0
  186.4380  177.6250  146.1290 C   0  0  0  0  0  2  0  0  0  0  0  0
  188.2360  177.2300  147.8150 C   0  0  0  0  0  1  0  0  0  0  0  0
  187.9380  177.6810  146.4000 C   0  0  0  0  0  2  0  0  0  0  0  0
  2 26  1  0  0  0  0
  5 24  1  1  0  0  0
  5  1  1  0  0  0  0
  5  3  1  0  0  0  0
  6  2  1  0  0  0  0
  6  4  2  0  0  0  0
  7 20  1  1  0  0  0
  7  2  1  0  0  0  0
  8  3  1  6  0  0  0
  8  6  1  0  0  0  0
  9  1  1  6  0  0  0
  9  8  1  0  0  0  0
  9  7  1  0  0  0  0
 10 12  1  0  0  0  0
 11 15  2  0  0  0  0
 12 22  2  0  0  0  0
 12 17  1  0  0  0  0
 14 13  1  0  0  0  0
 14 21  1  0  0  0  0
 15 22  1  0  0  0  0
 15 20  1  0  0  0  0
 16 18  1  0  0  0  0
 16 13  2  0  0  0  0
 17 14  2  0  0  0  0
 19 17  1  0  0  0  0
 20 18  2  0  0  0  0
 22 16  1  0  0  0  0
 23 24  1  0  0  0  0
 25 24  2  0  0  0  0
 26 27  1  0  0  0  0
 27 29  1  0  0  0  0
 29 30  1  0  0  0  0
 29 28  1  1  0  0  0
 30 32  1  0  0  0  0
 32 31  1  0  0  0  0
M  END
>  <MODEL>
4

>  <REMARK>
 VINA RESULT:      -7.4      2.675      7.085
  Name = 
  7 active torsions:
  status: ('A' for Active; 'I' for Inactive)
    1  A    between atoms: C_5  and  N_9
    2  A    between atoms: C_5  and  C_25
    3  A    between atoms: C_8  and  C_18
    4  A    between atoms: C_8  and  C_29
    5  A    between atoms: CA_19  and  C_23
    6  A    between atoms: C_22  and  C_30
    7  A    between atoms: C_25  and  C_29
                            x       y       z     vdW  Elec       q    Type
                         _______ _______ _______ _____ _____    ______ ____

>  <TORSDO>
F 7

$$$$
=
 OpenBabel10232408173D

 32 35  0  0  1  0  0  0  0  0999 V2000
  192.1650  176.5210  138.5180 C   0  0  0  0  0  2  0  0  0  0  0  0
  188.6310  176.7930  138.2780 N   0  0  0  0  0  0  0  0  0  0  0  0
  191.3070  174.7690  137.1920 N   0  0  0  0  0  2  0  0  0  0  0  0
  188.3030  174.9510  136.8020 O   0  0  0  0  0  0  0  0  0  0  0  0
  192.5750  175.3300  137.6770 C   0  0  1  0  0  3  0  0  0  0  0  0
  189.0280  175.5940  137.6090 C   0  0  0  0  0  0  0  0  0  0  0  0
  189.7900  177.3690  138.9870 C   0  0  2  0  0  3  0  0  0  0  0  0
  190.3990  175.3060  137.9260 C   0  0  2  0  0  3  0  0  0  0  0  0
  190.8720  176.3640  138.7240 C   0  0  1  0  0  3  0  0  0  0  0  0
  191.5580  177.7040  144.5000 C   0  0  0  0  0  1  0  0  0  0  0  0
  191.7630  177.6560  141.3970 O   0  0  0  0  0  0  0  0  0  0  0  0
  190.1230  177.6270  144.0980 C   0  0  0  0  0  0  0  0  0  0  0  0
  187.4070  177.4500  143.2900 C   0  0  0  0  0  3  0  0  0  0  0  0
  187.7410  177.4950  144.6550 C   0  0  0  0  0  0  0  0  0  0  0  0
  190.5120  177.5860  141.5220 C   0  0  0  0  0  0  0  0  0  0  0  0
  188.4400  177.5000  142.3580 C   0  0  0  0  0  0  0  0  0  0  0  0
  189.0950  177.5830  145.0630 C   0  0  0  0  0  0  0  0  0  0  0  0
  188.3070  177.4320  140.9380 N   0  0  0  0  0  0  0  0  0  0  0  0
  189.4120  177.6250  146.4180 O   0  0  0  0  0  1  0  0  0  0  0  0
  189.5110  177.4910  140.4530 C   0  0  0  0  0  0  0  0  0  0  0  0
  186.6460  177.4410  145.6650 C   0  0  0  0  0  1  0  0  0  0  0  0
  189.7530  177.5860  142.7530 C   0  0  0  0  0  0  0  0  0  0  0  0
  194.6020  176.4650  136.7770 O   0  0  0  0  0  1  0  0  0  0  0  0
  193.4340  175.7560  136.5310 C   0  0  0  0  0  0  0  0  0  0  0  0
  193.1020  175.4920  135.3450 O   0  0  0  0  0  0  0  0  0  0  0  0
  187.4270  177.5450  137.9440 C   0  0  0  0  0  2  0  0  0  0  0  0
  187.6470  178.3800  136.6910 C   0  0  0  0  0  2  0  0  0  0  0  0
  187.4680  177.5400  134.4400 O   0  0  0  0  0  1  0  0  0  0  0  0
  186.7300  177.9360  135.5580 C   0  0  1  0  0  3  0  0  0  0  0  0
  185.7960  176.8110  136.0010 C   0  0  0  0  0  2  0  0  0  0  0  0
  183.7580  177.4980  137.2710 C   0  0  0  0  0  1  0  0  0  0  0  0
  184.3220  177.1900  135.8980 C   0  0  0  0  0  2  0  0  0  0  0  0
  2  7  1  0  0  0  0
  3  5  1  0  0  0  0
  4  6  2  0  0  0  0
  5 24  1  6  0  0  0
  5  1  1  0  0  0  0
  6  8  1  0  0  0  0
  6  2  1  0  0  0  0
  7 20  1  1  0  0  0
  8  3  1  6  0  0  0
  8  9  1  0  0  0  0
  9  1  1  6  0  0  0
  9  7  1  0  0  0  0
 11 15  2  0  0  0  0
 12 10  1  0  0  0  0
 12 17  1  0  0  0  0
 13 14  1  0  0  0  0
 14 17  2  0  0  0  0
 14 21  1  0  0  0  0
 15 22  1  0  0  0  0
 16 22  1  0  0  0  0
 16 13  2  0  0  0  0
 17 19  1  0  0  0  0
 18 16  1  0  0  0  0
 20 18  2  0  0  0  0
 20 15  1  0  0  0  0
 22 12  2  0  0  0  0
 24 23  1  0  0  0  0
 25 24  2  0  0  0  0
 26  2  1  0  0  0  0
 27 26  1  0  0  0  0
 29 28  1  6  0  0  0
 29 30  1  0  0  0  0
 29 27  1  0  0  0  0
 32 30  1  0  0  0  0
 32 31  1  0  0  0  0
M  END
>  <MODEL>
5

>  <REMARK>
 VINA RESULT:      -7.4      1.882      2.379
  Name = 
  7 active torsions:
  status: ('A' for Active; 'I' for Inactive)
    1  A    between atoms: C_5  and  N_9
    2  A    between atoms: C_5  and  C_25
    3  A    between atoms: C_8  and  C_18
    4  A    between atoms: C_8  and  C_29
    5  A    between atoms: CA_19  and  C_23
    6  A    between atoms: C_22  and  C_30
    7  A    between atoms: C_25  and  C_29
                            x       y       z     vdW  Elec       q    Type
                         _______ _______ _______ _____ _____    ______ ____

>  <TORSDO>
F 7

$$$$
=
 OpenBabel10232408173D

 32 35  0  0  1  0  0  0  0  0999 V2000
  192.5700  176.4510  138.6440 C   0  0  0  0  0  2  0  0  0  0  0  0
  189.0900  176.9090  138.0880 N   0  0  0  0  0  0  0  0  0  0  0  0
  191.7590  174.7880  137.1810 N   0  0  0  0  0  2  0  0  0  0  0  0
  188.8180  175.1340  136.5220 O   0  0  0  0  0  0  0  0  0  0  0  0
  193.0000  175.2690  137.8010 C   0  0  1  0  0  3  0  0  0  0  0  0
  189.4920  175.7130  137.4150 C   0  0  0  0  0  0  0  0  0  0  0  0
  190.2040  177.4020  138.9220 C   0  0  2  0  0  3  0  0  0  0  0  0
  190.8120  175.3470  137.8470 C   0  0  2  0  0  3  0  0  0  0  0  0
  191.2570  176.3530  138.7240 C   0  0  1  0  0  3  0  0  0  0  0  0
  191.4690  177.6370  144.5760 C   0  0  0  0  0  1  0  0  0  0  0  0
  191.9500  177.6570  141.5040 O   0  0  0  0  0  0  0  0  0  0  0  0
  190.0760  177.5570  144.0460 C   0  0  0  0  0  0  0  0  0  0  0  0
  187.4450  177.3720  142.9950 C   0  0  0  0  0  3  0  0  0  0  0  0
  187.6550  177.3910  144.3850 C   0  0  0  0  0  0  0  0  0  0  0  0
  190.6940  177.5730  141.5150 C   0  0  0  0  0  0  0  0  0  0  0  0
  188.5570  177.4500  142.1610 C   0  0  0  0  0  0  0  0  0  0  0  0
  188.9660  177.4830  144.9140 C   0  0  0  0  0  0  0  0  0  0  0  0
  188.5520  177.4110  140.7330 N   0  0  0  0  0  0  0  0  0  0  0  0
  189.1610  177.4990  146.2930 O   0  0  0  0  0  1  0  0  0  0  0  0
  189.7940  177.4910  140.3600 C   0  0  0  0  0  0  0  0  0  0  0  0
  186.4750  177.3060  145.2920 C   0  0  0  0  0  1  0  0  0  0  0  0
  189.8280  177.5410  142.6730 C   0  0  0  0  0  0  0  0  0  0  0  0
  194.7650  174.7290  136.1270 O   0  0  0  0  0  0  0  0  0  0  0  0
  193.9830  175.6880  136.7570 C   0  0  0  0  0  0  0  0  0  0  0  0
  194.1210  176.9030  136.4550 O   0  0  0  0  0  1  0  0  0  0  0  0
  187.9600  177.7300  137.6710 C   0  0  0  0  0  2  0  0  0  0  0  0
  186.7250  176.8700  137.4480 C   0  0  0  0  0  2  0  0  0  0  0  0
  184.7410  177.2740  136.1430 O   0  0  0  0  0  1  0  0  0  0  0  0
  185.4820  177.7260  137.2370 C   0  0  1  0  0  3  0  0  0  0  0  0
  184.6080  177.7630  138.4900 C   0  0  0  0  0  2  0  0  0  0  0  0
  185.1350  178.9540  140.6200 C   0  0  0  0  0  1  0  0  0  0  0  0
  184.6410  179.1140  139.1960 C   0  0  0  0  0  2  0  0  0  0  0  0
  2  7  1  0  0  0  0
  3  5  1  0  0  0  0
  4  6  2  0  0  0  0
  5 24  1  6  0  0  0
  5  1  1  0  0  0  0
  6  8  1  0  0  0  0
  6  2  1  0  0  0  0
  7 20  1  1  0  0  0
  8  3  1  6  0  0  0
  8  9  1  0  0  0  0
  9  1  1  6  0  0  0
  9  7  1  0  0  0  0
 11 15  2  0  0  0  0
 12 10  1  0  0  0  0
 12 17  1  0  0  0  0
 13 14  1  0  0  0  0
 14 17  2  0  0  0  0
 14 21  1  0  0  0  0
 15 22  1  0  0  0  0
 16 22  1  0  0  0  0
 16 13  2  0  0  0  0
 17 19  1  0  0  0  0
 18 16  1  0  0  0  0
 20 18  2  0  0  0  0
 20 15  1  0  0  0  0
 22 12  2  0  0  0  0
 23 24  2  0  0  0  0
 25 24  1  0  0  0  0
 26  2  1  0  0  0  0
 27 26  1  0  0  0  0
 29 28  1  6  0  0  0
 29 27  1  0  0  0  0
 29 30  1  0  0  0  0
 30 32  1  0  0  0  0
 32 31  1  0  0  0  0
M  END
>  <MODEL>
6

>  <REMARK>
 VINA RESULT:      -7.4      1.380      1.653
  Name = 
  7 active torsions:
  status: ('A' for Active; 'I' for Inactive)
    1  A    between atoms: C_5  and  N_9
    2  A    between atoms: C_5  and  C_25
    3  A    between atoms: C_8  and  C_18
    4  A    between atoms: C_8  and  C_29
    5  A    between atoms: CA_19  and  C_23
    6  A    between atoms: C_22  and  C_30
    7  A    between atoms: C_25  and  C_29
                            x       y       z     vdW  Elec       q    Type
                         _______ _______ _______ _____ _____    ______ ____

>  <TORSDO>
F 7

$$$$
=
 OpenBabel10232408173D

 32 35  0  0  1  0  0  0  0  0999 V2000
  189.1390  177.9650  144.2650 C   0  0  0  0  0  2  0  0  0  0  0  0
  188.6730  177.8620  140.7440 N   0  0  0  0  0  0  0  0  0  0  0  0
  190.4070  176.2080  143.3330 N   0  0  0  0  0  2  0  0  0  0  0  0
  190.1960  176.0820  140.3090 O   0  0  0  0  0  0  0  0  0  0  0  0
  190.1330  176.8760  144.6120 C   0  0  1  0  0  3  0  0  0  0  0  0
  189.4970  176.7530  141.1140 C   0  0  0  0  0  0  0  0  0  0  0  0
  188.1590  178.5200  141.9610 C   0  0  2  0  0  3  0  0  0  0  0  0
  189.4730  176.6000  142.5420 C   0  0  2  0  0  3  0  0  0  0  0  0
  188.7010  177.6560  143.0600 C   0  0  1  0  0  3  0  0  0  0  0  0
  183.0510  179.2100  139.3030 C   0  0  0  0  0  1  0  0  0  0  0  0
  186.1320  178.9150  139.6120 O   0  0  0  0  0  0  0  0  0  0  0  0
  183.1900  178.9580  140.7660 C   0  0  0  0  0  0  0  0  0  0  0  0
  183.5030  178.5080  143.5530 C   0  0  0  0  0  3  0  0  0  0  0  0
  182.2230  178.6960  143.0030 C   0  0  0  0  0  0  0  0  0  0  0  0
  185.7870  178.7580  140.8130 C   0  0  0  0  0  0  0  0  0  0  0  0
  184.5990  178.5450  142.6950 C   0  0  0  0  0  0  0  0  0  0  0  0
  182.0620  178.9210  141.6130 C   0  0  0  0  0  0  0  0  0  0  0  0
  185.9730  178.4110  143.0650 N   0  0  0  0  0  0  0  0  0  0  0  0
  180.7890  179.1080  141.0810 O   0  0  0  0  0  1  0  0  0  0  0  0
  186.6610  178.5270  141.9690 C   0  0  0  0  0  0  0  0  0  0  0  0
  181.0400  178.6610  143.9080 C   0  0  0  0  0  1  0  0  0  0  0  0
  184.4440  178.7620  141.3470 C   0  0  0  0  0  0  0  0  0  0  0  0
  192.0200  178.5010  144.5180 O   0  0  0  0  0  0  0  0  0  0  0  0
  191.3860  177.4580  145.1810 C   0  0  0  0  0  0  0  0  0  0  0  0
  191.8800  177.0020  146.2460 O   0  0  0  0  0  1  0  0  0  0  0  0
  188.7110  178.4950  139.4310 C   0  0  0  0  0  2  0  0  0  0  0  0
  188.3850  177.4850  138.3400 C   0  0  0  0  0  2  0  0  0  0  0  0
  188.5810  179.5170  137.0600 O   0  0  0  0  0  1  0  0  0  0  0  0
  188.3750  178.1390  136.9640 C   0  0  1  0  0  3  0  0  0  0  0  0
  189.4140  177.5110  136.0370 C   0  0  0  0  0  2  0  0  0  0  0  0
  191.4100  176.1790  136.7270 C   0  0  0  0  0  1  0  0  0  0  0  0
  189.9080  176.1550  136.5310 C   0  0  0  0  0  2  0  0  0  0  0  0
  1  5  1  0  0  0  0
  2  6  1  0  0  0  0
  2  7  1  0  0  0  0
  3  5  1  0  0  0  0
  4  6  2  0  0  0  0
  5 24  1  6  0  0  0
  7 20  1  6  0  0  0
  7  9  1  0  0  0  0
  8  6  1  6  0  0  0
  8  9  1  0  0  0  0
  8  3  1  0  0  0  0
  9  1  1  1  0  0  0
 10 12  1  0  0  0  0
 11 15  2  0  0  0  0
 12 22  2  0  0  0  0
 12 17  1  0  0  0  0
 14 13  1  0  0  0  0
 14 21  1  0  0  0  0
 15 22  1  0  0  0  0
 15 20  1  0  0  0  0
 16 18  1  0  0  0  0
 16 13  2  0  0  0  0
 17 14  2  0  0  0  0
 19 17  1  0  0  0  0
 20 18  2  0  0  0  0
 22 16  1  0  0  0  0
 23 24  2  0  0  0  0
 24 25  1  0  0  0  0
 26  2  1  0  0  0  0
 27 26  1  0  0  0  0
 29 28  1  1  0  0  0
 29 27  1  0  0  0  0
 30 32  1  0  0  0  0
 30 29  1  0  0  0  0
 32 31  1  0  0  0  0
M  END
>  <MODEL>
7

>  <REMARK>
 VINA RESULT:      -7.2      2.271      6.371
  Name = 
  7 active torsions:
  status: ('A' for Active; 'I' for Inactive)
    1  A    between atoms: C_5  and  N_9
    2  A    between atoms: C_5  and  C_25
    3  A    between atoms: C_8  and  C_18
    4  A    between atoms: C_8  and  C_29
    5  A    between atoms: CA_19  and  C_23
    6  A    between atoms: C_22  and  C_30
    7  A    between atoms: C_25  and  C_29
                            x       y       z     vdW  Elec       q    Type
                         _______ _______ _______ _____ _____    ______ ____

>  <TORSDO>
F 7

$$$$
=
 OpenBabel10232408173D

 32 35  0  0  1  0  0  0  0  0999 V2000
  183.4210  180.5990  138.6530 C   0  0  0  0  0  2  0  0  0  0  0  0
  184.0970  178.3590  141.3260 N   0  0  0  0  0  0  0  0  0  0  0  0
  181.4780  179.3740  139.1920 N   0  0  0  0  0  2  0  0  0  0  0  0
  181.8840  177.5050  141.5480 O   0  0  0  0  0  0  0  0  0  0  0  0
  181.9540  180.4450  138.3070 C   0  0  1  0  0  3  0  0  0  0  0  0
  182.7550  178.1310  140.8880 C   0  0  0  0  0  0  0  0  0  0  0  0
  184.7690  179.2850  140.3940 C   0  0  2  0  0  3  0  0  0  0  0  0
  182.5430  178.8100  139.6400 C   0  0  2  0  0  3  0  0  0  0  0  0
  183.7230  179.5190  139.3460 C   0  0  1  0  0  3  0  0  0  0  0  0
  190.2950  177.5660  140.7580 C   0  0  0  0  0  1  0  0  0  0  0  0
  187.5320  178.6330  141.7060 O   0  0  0  0  0  0  0  0  0  0  0  0
  189.4890  177.4880  139.5050 C   0  0  0  0  0  0  0  0  0  0  0  0
  187.9280  177.3860  137.1360 C   0  0  0  0  0  3  0  0  0  0  0  0
  189.2720  176.9750  137.1190 C   0  0  0  0  0  0  0  0  0  0  0  0
  187.2660  178.4180  140.4940 C   0  0  0  0  0  0  0  0  0  0  0  0
  187.3920  177.8340  138.3400 C   0  0  0  0  0  0  0  0  0  0  0  0
  190.0550  177.0250  138.2990 C   0  0  0  0  0  0  0  0  0  0  0  0
  186.0660  178.3220  138.5510 N   0  0  0  0  0  0  0  0  0  0  0  0
  191.3860  176.6180  138.2680 O   0  0  0  0  0  1  0  0  0  0  0  0
  185.9920  178.6530  139.8050 C   0  0  0  0  0  0  0  0  0  0  0  0
  189.8610  176.4950  135.8370 C   0  0  0  0  0  1  0  0  0  0  0  0
  188.1500  177.8810  139.4850 C   0  0  0  0  0  0  0  0  0  0  0  0
  180.1700  181.7220  139.4900 O   0  0  0  0  0  1  0  0  0  0  0  0
  181.2080  181.7140  138.5680 C   0  0  0  0  0  0  0  0  0  0  0  0
  181.5020  182.7710  137.9490 O   0  0  0  0  0  0  0  0  0  0  0  0
  184.5600  178.0910  142.6820 C   0  0  0  0  0  2  0  0  0  0  0  0
  184.7390  179.3900  143.4540 C   0  0  0  0  0  2  0  0  0  0  0  0
  183.6920  179.0690  145.6000 O   0  0  0  0  0  1  0  0  0  0  0  0
  184.9240  179.1310  144.9440 C   0  0  1  0  0  3  0  0  0  0  0  0
  185.7230  177.8530  145.1960 C   0  0  0  0  0  2  0  0  0  0  0  0
  187.8470  177.4910  146.4590 C   0  0  0  0  0  1  0  0  0  0  0  0
  187.2300  178.0890  145.2100 C   0  0  0  0  0  2  0  0  0  0  0  0
  2 26  1  0  0  0  0
  5 24  1  1  0  0  0
  5  1  1  0  0  0  0
  5  3  1  0  0  0  0
  6  2  1  0  0  0  0
  6  4  2  0  0  0  0
  7 20  1  6  0  0  0
  7  2  1  0  0  0  0
  8  3  1  1  0  0  0
  8  6  1  0  0  0  0
  9  1  1  1  0  0  0
  9  8  1  0  0  0  0
  9  7  1  0  0  0  0
 12 10  1  0  0  0  0
 13 16  1  0  0  0  0
 14 13  2  0  0  0  0
 14 17  1  0  0  0  0
 15 11  2  0  0  0  0
 16 18  1  0  0  0  0
 16 22  2  0  0  0  0
 17 12  2  0  0  0  0
 18 20  2  0  0  0  0
 19 17  1  0  0  0  0
 20 15  1  0  0  0  0
 21 14  1  0  0  0  0
 22 12  1  0  0  0  0
 22 15  1  0  0  0  0
 24 23  1  0  0  0  0
 25 24  2  0  0  0  0
 26 27  1  0  0  0  0
 27 29  1  0  0  0  0
 29 30  1  0  0  0  0
 29 28  1  1  0  0  0
 30 32  1  0  0  0  0
 32 31  1  0  0  0  0
M  END
>  <MODEL>
8

>  <REMARK>
 VINA RESULT:      -7.1      2.948      7.582
  Name = 
  7 active torsions:
  status: ('A' for Active; 'I' for Inactive)
    1  A    between atoms: C_5  and  N_9
    2  A    between atoms: C_5  and  C_25
    3  A    between atoms: C_8  and  C_18
    4  A    between atoms: C_8  and  C_29
    5  A    between atoms: CA_19  and  C_23
    6  A    between atoms: C_22  and  C_30
    7  A    between atoms: C_25  and  C_29
                            x       y       z     vdW  Elec       q    Type
                         _______ _______ _______ _____ _____    ______ ____

>  <TORSDO>
F 7

$$$$
=
 OpenBabel10232408173D

 32 35  0  0  1  0  0  0  0  0999 V2000
  190.9020  177.1280  139.4340 C   0  0  0  0  0  2  0  0  0  0  0  0
  187.4870  177.4280  138.5010 N   0  0  0  0  0  0  0  0  0  0  0  0
  190.3610  175.5010  137.8150 N   0  0  0  0  0  2  0  0  0  0  0  0
  187.4970  175.7230  136.8360 O   0  0  0  0  0  0  0  0  0  0  0  0
  191.4940  176.0150  138.5950 C   0  0  1  0  0  3  0  0  0  0  0  0
  188.0310  176.2910  137.8260 C   0  0  0  0  0  0  0  0  0  0  0  0
  188.4680  177.9360  139.4790 C   0  0  2  0  0  3  0  0  0  0  0  0
  189.3140  175.9740  138.3910 C   0  0  2  0  0  3  0  0  0  0  0  0
  189.5970  176.9570  139.3580 C   0  0  1  0  0  3  0  0  0  0  0  0
  184.4450  179.5430  143.3340 C   0  0  0  0  0  1  0  0  0  0  0  0
  185.8080  179.1740  140.5630 O   0  0  0  0  0  0  0  0  0  0  0  0
  185.6630  178.7590  143.6920 C   0  0  0  0  0  0  0  0  0  0  0  0
  188.0100  177.2950  144.3350 C   0  0  0  0  0  3  0  0  0  0  0  0
  187.1060  177.6680  145.3450 C   0  0  0  0  0  0  0  0  0  0  0  0
  186.6460  178.5730  141.2870 C   0  0  0  0  0  0  0  0  0  0  0  0
  187.7170  177.6600  143.0230 C   0  0  0  0  0  0  0  0  0  0  0  0
  185.9330  178.3980  145.0290 C   0  0  0  0  0  0  0  0  0  0  0  0
  188.5220  177.4050  141.8710 N   0  0  0  0  0  0  0  0  0  0  0  0
  185.0470  178.7630  146.0390 O   0  0  0  0  0  1  0  0  0  0  0  0
  187.8940  177.9300  140.8620 C   0  0  0  0  0  0  0  0  0  0  0  0
  187.4060  177.2870  146.7540 C   0  0  0  0  0  1  0  0  0  0  0  0
  186.5800  178.3670  142.7160 C   0  0  0  0  0  0  0  0  0  0  0  0
  192.4870  176.2930  136.3260 O   0  0  0  0  0  0  0  0  0  0  0  0
  192.5620  176.5380  137.6910 C   0  0  0  0  0  0  0  0  0  0  0  0
  193.5380  177.1850  138.1560 O   0  0  0  0  0  1  0  0  0  0  0  0
  186.3650  178.2080  137.9930 C   0  0  0  0  0  2  0  0  0  0  0  0
  185.2360  177.2930  137.5430 C   0  0  0  0  0  2  0  0  0  0  0  0
  183.0120  178.0340  136.9840 O   0  0  0  0  0  1  0  0  0  0  0  0
  183.8850  177.7880  138.0470 C   0  0  1  0  0  3  0  0  0  0  0  0
  183.2580  176.8010  139.0300 C   0  0  0  0  0  2  0  0  0  0  0  0
  182.3380  178.7830  140.2400 C   0  0  0  0  0  1  0  0  0  0  0  0
  182.9820  177.4200  140.3970 C   0  0  0  0  0  2  0  0  0  0  0  0
  2  7  1  0  0  0  0
  3  5  1  0  0  0  0
  4  6  2  0  0  0  0
  5 24  1  6  0  0  0
  5  1  1  0  0  0  0
  6  8  1  0  0  0  0
  6  2  1  0  0  0  0
  7 20  1  1  0  0  0
  8  3  1  6  0  0  0
  8  9  1  0  0  0  0
  9  1  1  6  0  0  0
  9  7  1  0  0  0  0
 10 12  1  0  0  0  0
 11 15  2  0  0  0  0
 12 17  1  0  0  0  0
 13 14  1  0  0  0  0
 14 21  1  0  0  0  0
 15 22  1  0  0  0  0
 16 13  2  0  0  0  0
 17 14  2  0  0  0  0
 17 19  1  0  0  0  0
 18 16  1  0  0  0  0
 20 15  1  0  0  0  0
 20 18  2  0  0  0  0
 22 16  1  0  0  0  0
 22 12  2  0  0  0  0
 23 24  2  0  0  0  0
 24 25  1  0  0  0  0
 26  2  1  0  0  0  0
 27 26  1  0  0  0  0
 27 29  1  0  0  0  0
 29 28  1  6  0  0  0
 29 30  1  0  0  0  0
 30 32  1  0  0  0  0
 31 32  1  0  0  0  0
M  END
>  <MODEL>
9

>  <REMARK>
 VINA RESULT:      -7.1      1.756      2.686
  Name = 
  7 active torsions:
  status: ('A' for Active; 'I' for Inactive)
    1  A    between atoms: C_5  and  N_9
    2  A    between atoms: C_5  and  C_25
    3  A    between atoms: C_8  and  C_18
    4  A    between atoms: C_8  and  C_29
    5  A    between atoms: CA_19  and  C_23
    6  A    between atoms: C_22  and  C_30
    7  A    between atoms: C_25  and  C_29
                            x       y       z     vdW  Elec       q    Type
                         _______ _______ _______ _____ _____    ______ ____

>  <TORSDO>
F 7

$$$$
