=
 OpenBabel10232407483D

 67 72  0  0  1  0  0  0  0  0999 V2000
  188.5550  177.9530  145.2570 O   0  0  0  0  0  0  0  0  0  0  0  0
  188.2030  177.3940  146.4920 C   0  0  2  0  0  3  0  0  0  0  0  0
  186.1620  178.9590  146.2820 C   0  0  2  0  0  3  0  0  0  0  0  0
  185.2860  177.8990  145.6400 C   0  0  2  0  0  3  0  0  0  0  0  0
  186.2940  178.6450  144.7840 C   0  0  2  0  0  3  0  0  0  0  0  0
  187.4530  177.7030  144.4240 C   0  0  1  0  0  3  0  0  0  0  0  0
  187.2180  178.3260  147.2070 C   0  0  0  0  0  2  0  0  0  0  0  0
  189.4390  177.1230  147.3590 C   0  0  0  0  0  0  0  0  0  0  0  0
  189.2890  175.8810  147.9500 F   0  0  0  0  0  0  0  0  0  0  0  0
  189.5320  178.0650  148.3830 F   0  0  0  0  0  0  0  0  0  0  0  0
  190.6030  177.0710  146.5590 O   0  0  0  0  0  0  0  0  0  0  0  0
  192.2740  175.3910  146.2980 C   0  0  0  0  0  1  0  0  0  0  0  0
  191.6200  176.3830  147.2400 C   0  0  0  0  0  2  0  0  0  0  0  0
  187.8290  177.8960  142.9500 C   0  0  2  0  0  3  0  0  0  0  0  0
  186.6040  178.3390  142.1580 C   0  0  0  0  0  2  0  0  0  0  0  0
  186.9590  179.3320  141.2410 O   0  0  0  0  0  1  0  0  0  0  0  0
  188.3790  176.6160  142.3370 C   0  0  0  0  0  2  0  0  0  0  0  0
  189.8140  176.8320  141.8990 C   0  0  0  0  0  2  0  0  0  0  0  0
  189.8550  177.8430  140.7790 C   0  0  0  0  0  2  0  0  0  0  0  0
  188.8100  177.2790  138.5590 C   0  0  0  0  0  0  0  0  0  0  0  0
  189.8700  177.1480  139.5080 N   0  0  0  0  0  2  0  0  0  0  0  0
  187.7740  177.9390  138.8480 O   0  0  0  0  0  0  0  0  0  0  0  0
  189.6990  174.3120  137.1000 C   0  0  0  0  0  3  0  0  0  0  0  0
  188.2860  173.8200  136.9360 C   0  0  0  0  0  2  0  0  0  0  0  0
  190.0450  175.6100  137.1430 C   0  0  0  0  0  0  0  0  0  0  0  0
  187.6450  176.2430  136.6270 C   0  0  0  0  0  2  0  0  0  0  0  0
  188.9940  176.7020  137.1830 C   0  0  1  0  0  3  0  0  0  0  0  0
  187.2560  174.9050  137.2580 C   0  0  1  0  0  3  0  0  0  0  0  0
  191.4230  176.0030  137.2420 N   0  0  0  0  0  2  0  0  0  0  0  0
  192.1210  175.5350  135.0450 O   0  0  0  0  0  0  0  0  0  0  0  0
  192.4110  175.9450  136.2020 C   0  0  0  0  0  0  0  0  0  0  0  0
  193.8080  176.3860  136.4830 C   0  0  0  0  0  2  0  0  0  0  0  0
  195.3080  174.4950  137.2660 N   0  0  0  0  0  2  0  0  0  0  0  0
  194.4280  175.5770  137.5770 C   0  0  0  0  0  0  0  0  0  0  0  0
  194.1400  175.8120  138.7790 O   0  0  0  0  0  0  0  0  0  0  0  0
  195.6740  174.2130  135.9890 O   0  0  0  0  0  0  0  0  0  0  0  0
  196.9840  172.7830  137.3970 C   0  0  0  0  0  1  0  0  0  0  0  0
  196.9090  173.5620  136.0930 C   0  0  2  0  0  3  0  0  0  0  0  0
  197.9590  175.4900  137.0670 O   0  0  0  0  0  1  0  0  0  0  0  0
  198.0390  174.5780  136.0160 C   0  0  0  0  0  2  0  0  0  0  0  0
  185.9290  174.5110  136.9750 O   0  0  0  0  0  0  0  0  0  0  0  0
  185.9370  173.5940  135.9070 C   0  0  0  0  0  2  0  0  0  0  0  0
  184.7260  171.6320  136.5160 O   0  0  0  0  0  1  0  0  0  0  0  0
  184.6150  172.8470  135.8370 C   0  0  0  0  0  0  0  0  0  0  0  0
  183.6030  173.6130  136.4170 O   0  0  0  0  0  1  0  0  0  0  0  0
  184.2710  172.5790  134.3870 C   0  0  0  0  0  1  0  0  0  0  0  0
  183.9600  178.4420  145.3840 N   0  0  0  0  0  2  0  0  0  0  0  0
  183.8370  178.6760  143.9500 C   0  0  0  0  0  2  0  0  0  0  0  0
  182.4400  179.1680  143.5940 C   0  0  0  0  0  2  0  0  0  0  0  0
  183.2920  178.2800  141.4410 C   0  0  0  0  0  2  0  0  0  0  0  0
  181.5590  176.9910  140.1210 C   0  0  1  0  0  3  0  0  0  0  0  0
  182.0390  178.6990  142.2080 C   0  0  2  0  0  3  0  0  0  0  0  0
  182.6150  179.9550  138.8810 C   0  0  0  0  0  2  0  0  0  0  0  0
  182.9610  177.6240  140.0990 C   0  0  1  0  0  3  0  0  0  0  0  0
  183.2700  178.5570  138.9140 C   0  0  1  0  0  3  0  0  0  0  0  0
  180.7010  181.5400  139.0900 C   0  0  0  0  0  1  0  0  0  0  0  0
  183.3230  177.8580  137.5700 C   0  0  0  0  0  1  0  0  0  0  0  0
  180.5870  179.3970  140.3030 C   0  0  1  0  0  3  0  0  0  0  0  0
  181.3510  179.7800  141.5130 N   0  0  0  0  0  2  0  0  0  0  0  0
  180.0730  178.0340  138.3920 C   0  0  0  0  0  2  0  0  0  0  0  0
  181.0700  180.0680  139.0370 C   0  0  2  0  0  0  0  0  0  0  0  0
  180.2860  179.4210  137.9760 N   0  0  0  0  0  0  0  0  0  0  0  0
  180.9110  179.4600  136.6580 C   0  0  0  0  0  1  0  0  0  0  0  0
  180.3630  177.9300  139.8950 C   0  0  1  0  0  3  0  0  0  0  0  0
  182.3190  175.2490  138.6850 O   0  0  0  0  0  0  0  0  0  0  0  0
  181.4520  175.6260  139.5160 C   0  0  0  0  0  0  0  0  0  0  0  0
  180.4340  174.7560  139.8890 O   0  0  0  0  0  1  0  0  0  0  0  0
  1  2  1  0  0  0  0
  2  7  1  0  0  0  0
  2  8  1  1  0  0  0
  3  7  1  1  0  0  0
  4 47  1  6  0  0  0
  4  3  1  0  0  0  0
  5  4  1  0  0  0  0
  5  3  1  0  0  0  0
  6  5  1  0  0  0  0
  6  1  1  0  0  0  0
  8  9  1  0  0  0  0
  8 10  1  0  0  0  0
 11 13  1  0  0  0  0
 11  8  1  0  0  0  0
 12 13  1  0  0  0  0
 14  6  1  0  0  0  0
 15 14  1  0  0  0  0
 16 15  1  0  0  0  0
 17 14  1  0  0  0  0
 18 17  1  0  0  0  0
 19 18  1  0  0  0  0
 20 22  2  0  0  0  0
 20 21  1  0  0  0  0
 21 19  1  0  0  0  0
 23 25  2  0  0  0  0
 24 23  1  0  0  0  0
 24 28  1  0  0  0  0
 25 27  1  0  0  0  0
 25 29  1  0  0  0  0
 26 27  1  0  0  0  0
 26 28  1  0  0  0  0
 27 20  1  0  0  0  0
 30 31  2  0  0  0  0
 31 32  1  0  0  0  0
 31 29  1  0  0  0  0
 32 34  1  0  0  0  0
 33 34  1  0  0  0  0
 34 35  2  0  0  0  0
 36 38  1  0  0  0  0
 36 33  1  0  0  0  0
 38 37  1  0  0  0  0
 40 38  1  0  0  0  0
 40 39  1  0  0  0  0
 41 28  1  0  0  0  0
 42 41  1  0  0  0  0
 44 42  1  0  0  0  0
 44 45  1  0  0  0  0
 44 43  1  0  0  0  0
 46 44  1  0  0  0  0
 48 47  1  0  0  0  0
 49 48  1  0  0  0  0
 50 52  1  0  0  0  0
 52 49  1  0  0  0  0
 53 55  1  0  0  0  0
 53 61  1  0  0  0  0
 54 51  1  0  0  0  0
 54 50  1  0  0  0  0
 55 54  1  0  0  0  0
 57 55  1  0  0  0  0
 58 59  1  0  0  0  0
 59 52  1  0  0  0  0
 60 64  1  0  0  0  0
 61 56  1  0  0  0  0
 61 58  1  0  0  0  0
 62 60  1  0  0  0  0
 62 61  1  0  0  0  0
 63 62  1  0  0  0  0
 64 51  1  0  0  0  0
 64 58  1  0  0  0  0
 65 66  2  0  0  0  0
 66 67  1  0  0  0  0
 66 51  1  0  0  0  0
M  END
>  <MODEL>
1

>  <REMARK>
 VINA RESULT:      -7.5      0.000      0.000
  Name = 
  24 active torsions:
  status: ('A' for Active; 'I' for Inactive)
    1  A    between atoms: C_4  and  C_8
    2  A    between atoms: N_5  and  O_43
    3  A    between atoms: C_7  and  C_25
    4  A    between atoms: N_9  and  C_15
    5  A    between atoms: N_9  and  C_29
    6  A    between atoms: C_10  and  C_54
    7  A    between atoms: C_11  and  C_20
    8  A    between atoms: C_13  and  C_62
    9  A    between atoms: C_15  and  C_20
   10  A    between atoms: C_16  and  C_66
   11  A    between atoms: C_16  and  C_67
   12  A    between atoms: C_17  and  C_51
   13  A    between atoms: C_17  and  C_60
   14  A    between atoms: C_17  and  C_66
   15  A    between atoms: N_19  and  C_27
   16  A    between atoms: O_22  and  C_39
   17  A    between atoms: O_22  and  C_55
   18  A    between atoms: C_24  and  C_39
   19  A    between atoms: C_25  and  O_49
   20  A    between atoms: N_30  and  C_67
   21  A    between atoms: C_38  and  C_41
   22  A    between atoms: C_38  and  O_43
   23  A    between atoms: O_49  and  C_59
   24  A    between atoms: C_58  and  C_62
                            x       y       z     vdW  Elec       q    Type
                         _______ _______ _______ _____ _____    ______ ____

>  <TORSDO>
F 24

$$$$
=
 OpenBabel10232407483D

 67 72  0  0  1  0  0  0  0  0999 V2000
  190.1160  177.6760  143.2620 O   0  0  0  0  0  0  0  0  0  0  0  0
  189.9950  176.8580  144.3920 C   0  0  2  0  0  3  0  0  0  0  0  0
  187.8380  178.2190  144.7790 C   0  0  2  0  0  3  0  0  0  0  0  0
  186.9550  177.2180  144.0560 C   0  0  2  0  0  3  0  0  0  0  0  0
  187.7660  178.2130  143.2440 C   0  0  2  0  0  3  0  0  0  0  0  0
  188.9230  177.4810  142.5490 C   0  0  1  0  0  3  0  0  0  0  0  0
  189.0640  177.5300  145.4060 C   0  0  0  0  0  2  0  0  0  0  0  0
  191.3650  176.5520  145.0140 C   0  0  0  0  0  0  0  0  0  0  0  0
  192.1130  177.7160  145.0060 F   0  0  0  0  0  0  0  0  0  0  0  0
  192.0480  175.6090  144.2480 F   0  0  0  0  0  0  0  0  0  0  0  0
  191.2180  176.1560  146.3630 O   0  0  0  0  0  0  0  0  0  0  0  0
  192.8080  175.9480  148.1260 C   0  0  0  0  0  1  0  0  0  0  0  0
  192.3500  175.4350  146.7750 C   0  0  0  0  0  2  0  0  0  0  0  0
  189.0580  177.9900  141.1090 C   0  0  2  0  0  3  0  0  0  0  0  0
  187.7400  178.6040  140.6520 C   0  0  0  0  0  2  0  0  0  0  0  0
  187.2400  177.9020  139.5520 O   0  0  0  0  0  1  0  0  0  0  0  0
  189.4440  176.8720  140.1500 C   0  0  0  0  0  2  0  0  0  0  0  0
  190.5790  177.3300  139.2570 C   0  0  0  0  0  2  0  0  0  0  0  0
  190.0200  177.8450  137.9520 C   0  0  0  0  0  2  0  0  0  0  0  0
  189.1400  176.5280  135.9950 C   0  0  0  0  0  0  0  0  0  0  0  0
  190.1760  176.8280  136.9320 N   0  0  0  0  0  2  0  0  0  0  0  0
  188.0110  177.0830  136.0940 O   0  0  0  0  0  0  0  0  0  0  0  0
  190.2890  173.3500  135.4440 C   0  0  0  0  0  3  0  0  0  0  0  0
  188.9210  172.7330  135.3470 C   0  0  0  0  0  2  0  0  0  0  0  0
  190.5590  174.6340  135.1510 C   0  0  0  0  0  0  0  0  0  0  0  0
  188.1700  174.9330  134.3600 C   0  0  0  0  0  2  0  0  0  0  0  0
  189.4500  175.6180  134.8390 C   0  0  1  0  0  3  0  0  0  0  0  0
  187.8130  173.7880  135.3100 C   0  0  1  0  0  3  0  0  0  0  0  0
  191.9040  175.1360  135.2100 N   0  0  0  0  0  2  0  0  0  0  0  0
  193.0860  173.1250  134.9100 O   0  0  0  0  0  0  0  0  0  0  0  0
  193.1140  174.3720  135.0980 C   0  0  0  0  0  0  0  0  0  0  0  0
  194.4340  175.0590  135.1940 C   0  0  0  0  0  2  0  0  0  0  0  0
  195.7020  174.8780  137.3850 N   0  0  0  0  0  2  0  0  0  0  0  0
  194.7090  175.5260  136.5880 C   0  0  0  0  0  0  0  0  0  0  0  0
  194.0310  176.4630  137.0850 O   0  0  0  0  0  0  0  0  0  0  0  0
  196.4800  173.8810  136.8920 O   0  0  0  0  0  0  0  0  0  0  0  0
  198.5220  173.6460  135.6620 C   0  0  0  0  0  1  0  0  0  0  0  0
  197.7340  174.4610  136.6750 C   0  0  2  0  0  3  0  0  0  0  0  0
  199.8520  174.7860  137.7600 O   0  0  0  0  0  1  0  0  0  0  0  0
  198.4960  174.5570  137.9890 C   0  0  0  0  0  2  0  0  0  0  0  0
  186.5320  173.2380  135.0760 O   0  0  0  0  0  0  0  0  0  0  0  0
  186.2600  172.2650  136.0550 C   0  0  0  0  0  2  0  0  0  0  0  0
  184.2250  171.0350  136.2310 O   0  0  0  0  0  1  0  0  0  0  0  0
  184.7910  172.2940  136.4420 C   0  0  0  0  0  0  0  0  0  0  0  0
  184.6590  172.6440  137.7860 O   0  0  0  0  0  1  0  0  0  0  0  0
  184.0700  173.3150  135.5870 C   0  0  0  0  0  1  0  0  0  0  0  0
  185.5700  177.6630  144.0940 N   0  0  0  0  0  2  0  0  0  0  0  0
  185.0910  177.7720  142.7210 C   0  0  0  0  0  2  0  0  0  0  0  0
  183.8480  178.6470  142.6420 C   0  0  0  0  0  2  0  0  0  0  0  0
  183.8550  177.5080  140.4390 C   0  0  0  0  0  2  0  0  0  0  0  0
  181.5700  176.6940  139.7140 C   0  0  1  0  0  3  0  0  0  0  0  0
  182.9940  178.2660  141.4480 C   0  0  2  0  0  3  0  0  0  0  0  0
  182.9740  179.2340  137.9780 C   0  0  0  0  0  2  0  0  0  0  0  0
  183.0300  176.9290  139.2890 C   0  0  1  0  0  3  0  0  0  0  0  0
  183.2420  177.7140  137.9820 C   0  0  1  0  0  3  0  0  0  0  0  0
  181.6430  181.2780  138.5000 C   0  0  0  0  0  1  0  0  0  0  0  0
  182.7630  176.9910  136.7370 C   0  0  0  0  0  1  0  0  0  0  0  0
  181.3160  179.2760  139.9010 C   0  0  1  0  0  3  0  0  0  0  0  0
  182.4420  179.4730  140.8450 N   0  0  0  0  0  2  0  0  0  0  0  0
  179.9940  178.0500  138.3130 C   0  0  0  0  0  2  0  0  0  0  0  0
  181.6040  179.7610  138.4980 C   0  0  2  0  0  0  0  0  0  0  0  0
  180.4320  179.3190  137.7280 N   0  0  0  0  0  0  0  0  0  0  0  0
  180.6790  179.1540  136.2990 C   0  0  0  0  0  1  0  0  0  0  0  0
  180.6320  177.9130  139.7020 C   0  0  1  0  0  3  0  0  0  0  0  0
  180.8820  175.1260  138.0590 O   0  0  0  0  0  0  0  0  0  0  0  0
  180.9690  175.3920  139.2870 C   0  0  0  0  0  0  0  0  0  0  0  0
  180.5420  174.4590  140.2240 O   0  0  0  0  0  1  0  0  0  0  0  0
  1  2  1  0  0  0  0
  2  8  1  1  0  0  0
  2  7  1  0  0  0  0
  3  7  1  6  0  0  0
  4 47  1  1  0  0  0
  4  3  1  0  0  0  0
  5  4  1  0  0  0  0
  5  3  1  0  0  0  0
  6  5  1  0  0  0  0
  6  1  1  0  0  0  0
  8 11  1  0  0  0  0
  9  8  1  0  0  0  0
 10  8  1  0  0  0  0
 11 13  1  0  0  0  0
 13 12  1  0  0  0  0
 14  6  1  0  0  0  0
 15 14  1  0  0  0  0
 16 15  1  0  0  0  0
 17 14  1  0  0  0  0
 18 17  1  0  0  0  0
 19 18  1  0  0  0  0
 20 22  2  0  0  0  0
 20 21  1  0  0  0  0
 21 19  1  0  0  0  0
 24 23  1  0  0  0  0
 25 29  1  0  0  0  0
 25 23  2  0  0  0  0
 26 27  1  0  0  0  0
 26 28  1  0  0  0  0
 27 25  1  0  0  0  0
 27 20  1  0  0  0  0
 28 24  1  0  0  0  0
 30 31  2  0  0  0  0
 31 32  1  0  0  0  0
 31 29  1  0  0  0  0
 32 34  1  0  0  0  0
 34 35  2  0  0  0  0
 34 33  1  0  0  0  0
 36 33  1  0  0  0  0
 37 38  1  0  0  0  0
 38 36  1  0  0  0  0
 38 40  1  0  0  0  0
 39 40  1  0  0  0  0
 41 28  1  0  0  0  0
 41 42  1  0  0  0  0
 42 44  1  0  0  0  0
 43 44  1  0  0  0  0
 44 45  1  0  0  0  0
 46 44  1  0  0  0  0
 48 47  1  0  0  0  0
 49 48  1  0  0  0  0
 50 52  1  0  0  0  0
 52 49  1  0  0  0  0
 53 55  1  0  0  0  0
 53 61  1  0  0  0  0
 54 51  1  0  0  0  0
 54 50  1  0  0  0  0
 55 54  1  0  0  0  0
 57 55  1  0  0  0  0
 58 59  1  0  0  0  0
 59 52  1  0  0  0  0
 60 64  1  0  0  0  0
 61 56  1  0  0  0  0
 61 58  1  0  0  0  0
 62 60  1  0  0  0  0
 62 61  1  0  0  0  0
 63 62  1  0  0  0  0
 64 51  1  0  0  0  0
 64 58  1  0  0  0  0
 65 66  2  0  0  0  0
 66 51  1  0  0  0  0
 66 67  1  0  0  0  0
M  END
>  <MODEL>
2

>  <REMARK>
 VINA RESULT:      -6.2      1.679      2.070
  Name = 
  24 active torsions:
  status: ('A' for Active; 'I' for Inactive)
    1  A    between atoms: C_4  and  C_8
    2  A    between atoms: N_5  and  O_43
    3  A    between atoms: C_7  and  C_25
    4  A    between atoms: N_9  and  C_15
    5  A    between atoms: N_9  and  C_29
    6  A    between atoms: C_10  and  C_54
    7  A    between atoms: C_11  and  C_20
    8  A    between atoms: C_13  and  C_62
    9  A    between atoms: C_15  and  C_20
   10  A    between atoms: C_16  and  C_66
   11  A    between atoms: C_16  and  C_67
   12  A    between atoms: C_17  and  C_51
   13  A    between atoms: C_17  and  C_60
   14  A    between atoms: C_17  and  C_66
   15  A    between atoms: N_19  and  C_27
   16  A    between atoms: O_22  and  C_39
   17  A    between atoms: O_22  and  C_55
   18  A    between atoms: C_24  and  C_39
   19  A    between atoms: C_25  and  O_49
   20  A    between atoms: N_30  and  C_67
   21  A    between atoms: C_38  and  C_41
   22  A    between atoms: C_38  and  O_43
   23  A    between atoms: O_49  and  C_59
   24  A    between atoms: C_58  and  C_62
                            x       y       z     vdW  Elec       q    Type
                         _______ _______ _______ _____ _____    ______ ____

>  <TORSDO>
F 24

$$$$
=
 OpenBabel10232407483D

 67 72  0  0  1  0  0  0  0  0999 V2000
  189.3830  177.0040  145.0580 O   0  0  0  0  0  0  0  0  0  0  0  0
  188.4450  176.9080  146.0930 C   0  0  2  0  0  3  0  0  0  0  0  0
  187.1720  178.6700  144.7040 C   0  0  2  0  0  3  0  0  0  0  0  0
  186.3440  177.6360  143.9620 C   0  0  2  0  0  3  0  0  0  0  0  0
  187.7690  177.9060  143.5110 C   0  0  2  0  0  3  0  0  0  0  0  0
  188.6590  176.7130  143.8910 C   0  0  1  0  0  3  0  0  0  0  0  0
  187.5710  178.1660  146.1040 C   0  0  0  0  0  2  0  0  0  0  0  0
  189.1270  176.6960  147.4520 C   0  0  0  0  0  0  0  0  0  0  0  0
  188.2370  176.0420  148.2860 F   0  0  0  0  0  0  0  0  0  0  0  0
  189.4300  177.9230  148.0420 F   0  0  0  0  0  0  0  0  0  0  0  0
  190.2610  175.8640  147.3120 O   0  0  0  0  0  0  0  0  0  0  0  0
  192.4820  176.0570  148.1540 C   0  0  0  0  0  1  0  0  0  0  0  0
  191.4240  176.6480  147.2440 C   0  0  0  0  0  2  0  0  0  0  0  0
  189.6050  176.3900  142.7290 C   0  0  2  0  0  3  0  0  0  0  0  0
  190.9720  175.9900  143.2710 C   0  0  0  0  0  2  0  0  0  0  0  0
  191.9620  176.8180  142.7340 O   0  0  0  0  0  1  0  0  0  0  0  0
  189.7710  177.5770  141.7910 C   0  0  0  0  0  2  0  0  0  0  0  0
  188.6880  177.5500  140.7310 C   0  0  0  0  0  2  0  0  0  0  0  0
  189.3150  177.6630  139.3620 C   0  0  0  0  0  2  0  0  0  0  0  0
  190.0570  176.0420  137.5840 C   0  0  0  0  0  0  0  0  0  0  0  0
  189.8050  176.3630  138.9540 N   0  0  0  0  0  2  0  0  0  0  0  0
  189.7630  176.8650  136.6730 O   0  0  0  0  0  0  0  0  0  0  0  0
  192.1980  174.7980  135.2200 C   0  0  0  0  0  2  0  0  0  0  0  0
  193.4450  175.0900  136.0080 C   0  0  0  0  0  2  0  0  0  0  0  0
  190.9930  174.5750  135.7710 C   0  0  0  0  0  0  0  0  0  0  0  0
  192.0560  174.6530  138.0710 C   0  0  0  0  0  2  0  0  0  0  0  0
  190.7640  174.7560  137.2590 C   0  0  1  0  0  3  0  0  0  0  0  0
  193.1330  175.5360  137.4390 C   0  0  1  0  0  3  0  0  0  0  0  0
  189.8580  174.2430  134.9550 N   0  0  0  0  0  0  0  0  0  0  0  0
  188.2600  173.8700  136.6390 O   0  0  0  0  0  0  0  0  0  0  0  0
  188.5420  173.8960  135.4100 C   0  0  0  0  0  0  0  0  0  0  0  0
  187.4780  173.5670  134.4180 C   0  0  0  0  0  2  0  0  0  0  0  0
  185.6500  171.9750  135.1670 N   0  0  0  0  0  2  0  0  0  0  0  0
  186.9520  172.1810  134.6170 C   0  0  0  0  0  0  0  0  0  0  0  0
  187.6740  171.1860  134.3460 O   0  0  0  0  0  0  0  0  0  0  0  0
  184.8190  173.0100  135.4520 O   0  0  0  0  0  0  0  0  0  0  0  0
  185.1370  172.7800  137.8150 C   0  0  0  0  0  1  0  0  0  0  0  0
  184.1770  172.6530  136.6430 C   0  0  2  0  0  3  0  0  0  0  0  0
  182.3930  171.1220  137.1360 O   0  0  0  0  0  1  0  0  0  0  0  0
  183.6490  171.2290  136.5410 C   0  0  0  0  0  2  0  0  0  0  0  0
  194.2890  175.6780  138.2400 O   0  0  0  0  0  0  0  0  0  0  0  0
  195.4140  175.2530  137.5090 C   0  0  0  0  0  2  0  0  0  0  0  0
  197.6860  174.9990  138.1870 O   0  0  0  0  0  1  0  0  0  0  0  0
  196.3930  174.5240  138.4140 C   0  0  0  0  0  0  0  0  0  0  0  0
  196.0500  174.7290  139.7510 O   0  0  0  0  0  1  0  0  0  0  0  0
  196.3450  173.0410  138.1080 C   0  0  0  0  0  1  0  0  0  0  0  0
  185.4290  178.3000  143.0470 N   0  0  0  0  0  2  0  0  0  0  0  0
  184.0900  178.2380  143.6200 C   0  0  0  0  0  2  0  0  0  0  0  0
  183.1770  179.2840  142.9940 C   0  0  0  0  0  2  0  0  0  0  0  0
  183.6910  178.4680  140.7090 C   0  0  0  0  0  2  0  0  0  0  0  0
  181.8750  177.0070  139.7240 C   0  0  1  0  0  3  0  0  0  0  0  0
  182.5700  178.7680  141.7030 C   0  0  2  0  0  3  0  0  0  0  0  0
  182.3860  180.0510  138.3420 C   0  0  0  0  0  2  0  0  0  0  0  0
  183.1790  177.7730  139.4460 C   0  0  1  0  0  3  0  0  0  0  0  0
  183.1680  178.7240  138.2360 C   0  0  1  0  0  3  0  0  0  0  0  0
  180.4000  181.4430  138.9250 C   0  0  0  0  0  1  0  0  0  0  0  0
  183.0350  178.0240  136.8970 C   0  0  0  0  0  1  0  0  0  0  0  0
  180.7250  179.3070  140.1130 C   0  0  1  0  0  3  0  0  0  0  0  0
  181.6620  179.7720  141.1630 N   0  0  0  0  0  2  0  0  0  0  0  0
  179.9960  177.8880  138.3170 C   0  0  0  0  0  2  0  0  0  0  0  0
  180.8940  180.0140  138.7870 C   0  0  2  0  0  0  0  0  0  0  0  0
  179.9900  179.2860  137.8840 N   0  0  0  0  0  0  0  0  0  0  0  0
  180.3500  179.3760  136.4720 C   0  0  0  0  0  1  0  0  0  0  0  0
  180.5710  177.8230  139.7380 C   0  0  1  0  0  3  0  0  0  0  0  0
  182.7590  175.1860  138.4690 O   0  0  0  0  0  0  0  0  0  0  0  0
  181.7880  175.6340  139.1350 C   0  0  0  0  0  0  0  0  0  0  0  0
  180.6710  174.8340  139.3450 O   0  0  0  0  0  1  0  0  0  0  0  0
  1  2  1  0  0  0  0
  2  7  1  0  0  0  0
  2  8  1  1  0  0  0
  3  7  1  1  0  0  0
  4 47  1  6  0  0  0
  4  3  1  0  0  0  0
  5  6  1  0  0  0  0
  5  4  1  0  0  0  0
  5  3  1  0  0  0  0
  6  1  1  0  0  0  0
  8 10  1  0  0  0  0
  8  9  1  0  0  0  0
 11  8  1  0  0  0  0
 13 11  1  0  0  0  0
 13 12  1  0  0  0  0
 14 15  1  0  0  0  0
 14  6  1  0  0  0  0
 16 15  1  0  0  0  0
 17 14  1  0  0  0  0
 18 17  1  0  0  0  0
 19 18  1  0  0  0  0
 20 21  1  0  0  0  0
 21 19  1  0  0  0  0
 22 20  2  0  0  0  0
 23 25  1  0  0  0  0
 23 24  1  0  0  0  0
 24 28  1  0  0  0  0
 25 27  1  0  0  0  0
 27 20  1  0  0  0  0
 27 26  1  0  0  0  0
 28 26  1  0  0  0  0
 28 41  1  0  0  0  0
 29 31  1  0  0  0  0
 29 25  2  0  0  0  0
 31 30  2  0  0  0  0
 32 34  1  0  0  0  0
 32 31  1  0  0  0  0
 33 36  1  0  0  0  0
 34 33  1  0  0  0  0
 35 34  2  0  0  0  0
 36 38  1  0  0  0  0
 38 37  1  0  0  0  0
 40 38  1  0  0  0  0
 40 39  1  0  0  0  0
 42 41  1  0  0  0  0
 42 44  1  0  0  0  0
 43 44  1  0  0  0  0
 44 45  1  0  0  0  0
 46 44  1  0  0  0  0
 47 48  1  0  0  0  0
 49 48  1  0  0  0  0
 50 52  1  0  0  0  0
 51 64  1  0  0  0  0
 52 49  1  0  0  0  0
 53 61  1  0  0  0  0
 54 51  1  0  0  0  0
 54 50  1  0  0  0  0
 55 53  1  0  0  0  0
 55 54  1  0  0  0  0
 57 55  1  0  0  0  0
 58 59  1  0  0  0  0
 59 52  1  0  0  0  0
 60 64  1  0  0  0  0
 61 56  1  0  0  0  0
 61 58  1  0  0  0  0
 62 60  1  0  0  0  0
 62 61  1  0  0  0  0
 63 62  1  0  0  0  0
 64 58  1  0  0  0  0
 65 66  2  0  0  0  0
 66 67  1  0  0  0  0
 66 51  1  0  0  0  0
M  END
>  <MODEL>
3

>  <REMARK>
 VINA RESULT:      -6.1      1.761      5.900
  Name = 
  24 active torsions:
  status: ('A' for Active; 'I' for Inactive)
    1  A    between atoms: C_4  and  C_8
    2  A    between atoms: N_5  and  O_43
    3  A    between atoms: C_7  and  C_25
    4  A    between atoms: N_9  and  C_15
    5  A    between atoms: N_9  and  C_29
    6  A    between atoms: C_10  and  C_54
    7  A    between atoms: C_11  and  C_20
    8  A    between atoms: C_13  and  C_62
    9  A    between atoms: C_15  and  C_20
   10  A    between atoms: C_16  and  C_66
   11  A    between atoms: C_16  and  C_67
   12  A    between atoms: C_17  and  C_51
   13  A    between atoms: C_17  and  C_60
   14  A    between atoms: C_17  and  C_66
   15  A    between atoms: N_19  and  C_27
   16  A    between atoms: O_22  and  C_39
   17  A    between atoms: O_22  and  C_55
   18  A    between atoms: C_24  and  C_39
   19  A    between atoms: C_25  and  O_49
   20  A    between atoms: N_30  and  C_67
   21  A    between atoms: C_38  and  C_41
   22  A    between atoms: C_38  and  O_43
   23  A    between atoms: O_49  and  C_59
   24  A    between atoms: C_58  and  C_62
                            x       y       z     vdW  Elec       q    Type
                         _______ _______ _______ _____ _____    ______ ____

>  <TORSDO>
F 24

$$$$
=
 OpenBabel10232407483D

 67 72  0  0  1  0  0  0  0  0999 V2000
  189.7080  177.7150  144.0650 O   0  0  0  0  0  0  0  0  0  0  0  0
  189.4080  177.2020  145.3330 C   0  0  2  0  0  3  0  0  0  0  0  0
  187.1280  178.3400  144.9270 C   0  0  2  0  0  3  0  0  0  0  0  0
  186.4900  177.0870  144.3540 C   0  0  2  0  0  3  0  0  0  0  0  0
  187.3830  177.9350  143.4660 C   0  0  2  0  0  3  0  0  0  0  0  0
  188.7100  177.1990  143.2240 C   0  0  1  0  0  3  0  0  0  0  0  0
  188.2390  177.9900  145.9340 C   0  0  0  0  0  2  0  0  0  0  0  0
  190.6330  177.2350  146.2580 C   0  0  0  0  0  0  0  0  0  0  0  0
  190.3640  178.1050  147.3000 F   0  0  0  0  0  0  0  0  0  0  0  0
  191.7440  177.7290  145.5770 F   0  0  0  0  0  0  0  0  0  0  0  0
  190.8610  175.9600  146.8220 O   0  0  0  0  0  0  0  0  0  0  0  0
  192.8060  175.4820  148.1140 C   0  0  0  0  0  1  0  0  0  0  0  0
  192.2220  175.6310  146.7230 C   0  0  0  0  0  2  0  0  0  0  0  0
  189.1110  177.3380  141.7510 C   0  0  2  0  0  3  0  0  0  0  0  0
  190.6290  177.3280  141.6260 C   0  0  0  0  0  2  0  0  0  0  0  0
  191.0660  176.0730  141.1940 O   0  0  0  0  0  1  0  0  0  0  0  0
  188.5710  178.6230  141.1400 C   0  0  0  0  0  2  0  0  0  0  0  0
  187.9620  178.3310  139.7840 C   0  0  0  0  0  2  0  0  0  0  0  0
  188.5150  177.0320  139.2480 C   0  0  0  0  0  2  0  0  0  0  0  0
  189.5740  176.8280  136.9730 C   0  0  0  0  0  0  0  0  0  0  0  0
  188.4290  177.0370  137.8030 N   0  0  0  0  0  2  0  0  0  0  0  0
  190.7230  176.7290  137.4870 O   0  0  0  0  0  0  0  0  0  0  0  0
  189.5640  174.2850  134.6820 C   0  0  0  0  0  3  0  0  0  0  0  0
  188.0770  174.0610  134.7450 C   0  0  0  0  0  2  0  0  0  0  0  0
  190.1600  175.4590  134.9500 C   0  0  0  0  0  0  0  0  0  0  0  0
  187.8790  176.5400  135.1830 C   0  0  0  0  0  2  0  0  0  0  0  0
  189.3730  176.6330  135.4960 C   0  0  1  0  0  3  0  0  0  0  0  0
  187.3630  175.1470  135.5510 C   0  0  1  0  0  3  0  0  0  0  0  0
  191.5820  175.6120  134.8100 N   0  0  0  0  0  2  0  0  0  0  0  0
  192.3030  173.9290  136.2860 O   0  0  0  0  0  0  0  0  0  0  0  0
  192.6000  174.8550  135.4830 C   0  0  0  0  0  0  0  0  0  0  0  0
  194.0370  175.1560  135.2260 C   0  0  0  0  0  2  0  0  0  0  0  0
  195.5490  173.5940  136.5360 N   0  0  0  0  0  2  0  0  0  0  0  0
  194.8830  174.8530  136.4220 C   0  0  0  0  0  0  0  0  0  0  0  0
  194.9740  175.6880  137.3590 O   0  0  0  0  0  0  0  0  0  0  0  0
  195.5070  172.6670  135.5440 O   0  0  0  0  0  0  0  0  0  0  0  0
  193.9940  170.9000  136.1170 C   0  0  0  0  0  1  0  0  0  0  0  0
  195.4160  171.4320  136.1950 C   0  0  2  0  0  3  0  0  0  0  0  0
  195.0610  170.7870  138.4810 O   0  0  0  0  0  1  0  0  0  0  0  0
  195.8500  171.5770  137.6460 C   0  0  0  0  0  2  0  0  0  0  0  0
  185.9540  175.0370  135.5040 O   0  0  0  0  0  0  0  0  0  0  0  0
  185.5730  173.7790  136.0050 C   0  0  0  0  0  2  0  0  0  0  0  0
  184.6760  172.3160  134.3500 O   0  0  0  0  0  1  0  0  0  0  0  0
  184.3240  173.2790  135.2960 C   0  0  0  0  0  0  0  0  0  0  0  0
  183.4410  172.7220  136.2220 O   0  0  0  0  0  1  0  0  0  0  0  0
  183.6490  174.4420  134.5990 C   0  0  0  0  0  1  0  0  0  0  0  0
  185.1010  177.3530  144.0110 N   0  0  0  0  0  2  0  0  0  0  0  0
  185.0750  178.4220  143.0210 C   0  0  0  0  0  2  0  0  0  0  0  0
  183.7010  179.0750  142.9560 C   0  0  0  0  0  2  0  0  0  0  0  0
  183.9300  178.2390  140.6330 C   0  0  0  0  0  2  0  0  0  0  0  0
  181.9350  176.8970  139.8400 C   0  0  1  0  0  3  0  0  0  0  0  0
  182.9360  178.6040  141.7340 C   0  0  2  0  0  3  0  0  0  0  0  0
  182.4940  179.9090  138.4060 C   0  0  0  0  0  2  0  0  0  0  0  0
  183.2500  177.5820  139.4300 C   0  0  1  0  0  3  0  0  0  0  0  0
  183.1760  178.5360  138.2240 C   0  0  1  0  0  3  0  0  0  0  0  0
  180.6680  181.4210  139.1830 C   0  0  0  0  0  1  0  0  0  0  0  0
  182.8650  177.8510  136.9070 C   0  0  0  0  0  1  0  0  0  0  0  0
  180.9770  179.2640  140.3370 C   0  0  1  0  0  3  0  0  0  0  0  0
  182.0420  179.6650  141.2860 N   0  0  0  0  0  2  0  0  0  0  0  0
  179.9820  177.9000  138.6280 C   0  0  0  0  0  2  0  0  0  0  0  0
  181.0550  179.9640  138.9990 C   0  0  2  0  0  0  0  0  0  0  0  0
  180.0210  179.2970  138.1940 N   0  0  0  0  0  0  0  0  0  0  0  0
  180.2400  179.3710  136.7530 C   0  0  0  0  0  1  0  0  0  0  0  0
  180.6930  177.7940  139.9830 C   0  0  1  0  0  3  0  0  0  0  0  0
  180.6040  174.9570  139.4720 O   0  0  0  0  0  1  0  0  0  0  0  0
  181.7040  175.5350  139.2650 C   0  0  0  0  0  0  0  0  0  0  0  0
  182.6670  174.9170  138.4770 O   0  0  0  0  0  0  0  0  0  0  0  0
  1  2  1  0  0  0  0
  2  7  1  0  0  0  0
  2  8  1  1  0  0  0
  3  7  1  1  0  0  0
  4 47  1  6  0  0  0
  4  3  1  0  0  0  0
  5  4  1  0  0  0  0
  5  3  1  0  0  0  0
  6  5  1  0  0  0  0
  6  1  1  0  0  0  0
  8 11  1  0  0  0  0
  8  9  1  0  0  0  0
 10  8  1  0  0  0  0
 13 11  1  0  0  0  0
 13 12  1  0  0  0  0
 14  6  1  0  0  0  0
 15 14  1  0  0  0  0
 16 15  1  0  0  0  0
 17 14  1  0  0  0  0
 18 17  1  0  0  0  0
 19 18  1  0  0  0  0
 20 22  2  0  0  0  0
 20 21  1  0  0  0  0
 21 19  1  0  0  0  0
 23 24  1  0  0  0  0
 23 25  2  0  0  0  0
 24 28  1  0  0  0  0
 25 27  1  0  0  0  0
 26 27  1  0  0  0  0
 26 28  1  0  0  0  0
 27 20  1  0  0  0  0
 29 25  1  0  0  0  0
 29 31  1  0  0  0  0
 31 30  2  0  0  0  0
 32 31  1  0  0  0  0
 32 34  1  0  0  0  0
 34 33  1  0  0  0  0
 34 35  2  0  0  0  0
 36 38  1  0  0  0  0
 36 33  1  0  0  0  0
 37 38  1  0  0  0  0
 38 40  1  0  0  0  0
 40 39  1  0  0  0  0
 41 28  1  0  0  0  0
 41 42  1  0  0  0  0
 43 44  1  0  0  0  0
 44 42  1  0  0  0  0
 44 45  1  0  0  0  0
 46 44  1  0  0  0  0
 48 47  1  0  0  0  0
 49 48  1  0  0  0  0
 50 52  1  0  0  0  0
 51 64  1  0  0  0  0
 52 49  1  0  0  0  0
 53 61  1  0  0  0  0
 54 51  1  0  0  0  0
 54 50  1  0  0  0  0
 55 53  1  0  0  0  0
 55 54  1  0  0  0  0
 57 55  1  0  0  0  0
 58 59  1  0  0  0  0
 59 52  1  0  0  0  0
 60 64  1  0  0  0  0
 61 56  1  0  0  0  0
 61 58  1  0  0  0  0
 62 60  1  0  0  0  0
 62 61  1  0  0  0  0
 63 62  1  0  0  0  0
 64 58  1  0  0  0  0
 66 65  1  0  0  0  0
 66 51  1  0  0  0  0
 67 66  2  0  0  0  0
M  END
>  <MODEL>
4

>  <REMARK>
 VINA RESULT:      -6.0      1.663      2.100
  Name = 
  24 active torsions:
  status: ('A' for Active; 'I' for Inactive)
    1  A    between atoms: C_4  and  C_8
    2  A    between atoms: N_5  and  O_43
    3  A    between atoms: C_7  and  C_25
    4  A    between atoms: N_9  and  C_15
    5  A    between atoms: N_9  and  C_29
    6  A    between atoms: C_10  and  C_54
    7  A    between atoms: C_11  and  C_20
    8  A    between atoms: C_13  and  C_62
    9  A    between atoms: C_15  and  C_20
   10  A    between atoms: C_16  and  C_66
   11  A    between atoms: C_16  and  C_67
   12  A    between atoms: C_17  and  C_51
   13  A    between atoms: C_17  and  C_60
   14  A    between atoms: C_17  and  C_66
   15  A    between atoms: N_19  and  C_27
   16  A    between atoms: O_22  and  C_39
   17  A    between atoms: O_22  and  C_55
   18  A    between atoms: C_24  and  C_39
   19  A    between atoms: C_25  and  O_49
   20  A    between atoms: N_30  and  C_67
   21  A    between atoms: C_38  and  C_41
   22  A    between atoms: C_38  and  O_43
   23  A    between atoms: O_49  and  C_59
   24  A    between atoms: C_58  and  C_62
                            x       y       z     vdW  Elec       q    Type
                         _______ _______ _______ _____ _____    ______ ____

>  <TORSDO>
F 24

$$$$
=
 OpenBabel10232407483D

 67 72  0  0  1  0  0  0  0  0999 V2000
  190.2040  177.3320  145.0400 O   0  0  0  0  0  0  0  0  0  0  0  0
  189.5590  176.9150  146.2100 C   0  0  2  0  0  3  0  0  0  0  0  0
  187.6720  178.4580  145.3650 C   0  0  2  0  0  3  0  0  0  0  0  0
  186.9350  177.3380  144.6530 C   0  0  2  0  0  3  0  0  0  0  0  0
  188.1370  177.9790  143.9810 C   0  0  2  0  0  3  0  0  0  0  0  0
  189.3180  176.9970  144.0040 C   0  0  1  0  0  3  0  0  0  0  0  0
  188.4650  177.9260  146.5730 C   0  0  0  0  0  2  0  0  0  0  0  0
  190.5520  176.7360  147.3670 C   0  0  0  0  0  0  0  0  0  0  0  0
  190.3260  175.4980  147.9430 F   0  0  0  0  0  0  0  0  0  0  0  0
  190.3360  177.7000  148.3490 F   0  0  0  0  0  0  0  0  0  0  0  0
  191.8800  176.7380  146.8830 O   0  0  0  0  0  0  0  0  0  0  0  0
  193.1140  175.6830  148.6280 C   0  0  0  0  0  1  0  0  0  0  0  0
  192.5210  175.5410  147.2400 C   0  0  0  0  0  2  0  0  0  0  0  0
  190.0310  177.0230  142.6470 C   0  0  2  0  0  3  0  0  0  0  0  0
  191.5370  177.1140  142.8560 C   0  0  0  0  0  2  0  0  0  0  0  0
  191.9920  175.9940  143.5570 O   0  0  0  0  0  1  0  0  0  0  0  0
  189.5760  178.2000  141.7940 C   0  0  0  0  0  2  0  0  0  0  0  0
  189.5880  177.8090  140.3300 C   0  0  0  0  0  2  0  0  0  0  0  0
  190.3620  176.5240  140.1550 C   0  0  0  0  0  2  0  0  0  0  0  0
  192.1600  176.4820  138.3920 C   0  0  0  0  0  0  0  0  0  0  0  0
  190.7850  176.4070  138.7750 N   0  0  0  0  0  2  0  0  0  0  0  0
  193.0450  176.7530  139.2500 O   0  0  0  0  0  0  0  0  0  0  0  0
  192.9320  173.7200  136.5240 C   0  0  0  0  0  3  0  0  0  0  0  0
  191.5300  173.5060  136.0230 C   0  0  0  0  0  2  0  0  0  0  0  0
  193.4270  174.9140  136.8930 C   0  0  0  0  0  0  0  0  0  0  0  0
  191.2800  176.0170  136.1180 C   0  0  0  0  0  2  0  0  0  0  0  0
  192.5390  176.1390  136.9790 C   0  0  1  0  0  3  0  0  0  0  0  0
  190.6040  174.6710  136.3830 C   0  0  1  0  0  3  0  0  0  0  0  0
  194.7960  175.0490  137.3050 N   0  0  0  0  0  2  0  0  0  0  0  0
  195.8560  174.0040  135.4840 O   0  0  0  0  0  0  0  0  0  0  0  0
  195.9570  174.5860  136.5980 C   0  0  0  0  0  0  0  0  0  0  0  0
  197.3130  174.8020  137.1810 C   0  0  0  0  0  2  0  0  0  0  0  0
  198.9400  173.2510  136.0040 N   0  0  0  0  0  2  0  0  0  0  0  0
  198.3890  174.5580  136.1710 C   0  0  0  0  0  0  0  0  0  0  0  0
  198.8510  175.5150  135.4960 O   0  0  0  0  0  0  0  0  0  0  0  0
  198.4630  172.1780  136.6860 O   0  0  0  0  0  0  0  0  0  0  0  0
  199.0330  170.3740  135.2170 C   0  0  0  0  0  1  0  0  0  0  0  0
  199.3940  171.1570  136.4690 C   0  0  2  0  0  3  0  0  0  0  0  0
  198.2310  169.5620  137.8380 O   0  0  0  0  0  1  0  0  0  0  0  0
  199.4420  170.2330  137.6780 C   0  0  0  0  0  2  0  0  0  0  0  0
  189.3210  174.5590  135.8020 O   0  0  0  0  0  0  0  0  0  0  0  0
  188.3980  174.1670  136.7900 C   0  0  0  0  0  2  0  0  0  0  0  0
  188.5720  172.1970  135.4570 O   0  0  0  0  0  1  0  0  0  0  0  0
  187.8170  172.8010  136.4630 C   0  0  0  0  0  0  0  0  0  0  0  0
  187.8280  171.9940  137.6020 O   0  0  0  0  0  1  0  0  0  0  0  0
  186.3890  172.9690  135.9850 C   0  0  0  0  0  1  0  0  0  0  0  0
  185.7230  177.8560  144.0380 N   0  0  0  0  0  2  0  0  0  0  0  0
  185.8510  177.7130  142.5920 C   0  0  0  0  0  2  0  0  0  0  0  0
  185.6700  179.0520  141.8910 C   0  0  0  0  0  2  0  0  0  0  0  0
  183.4560  178.1470  141.2350 C   0  0  0  0  0  2  0  0  0  0  0  0
  182.4030  179.3670  139.2830 C   0  0  1  0  0  3  0  0  0  0  0  0
  184.6730  178.9360  140.7540 C   0  0  2  0  0  3  0  0  0  0  0  0
  183.4250  176.1800  138.7970 C   0  0  0  0  0  2  0  0  0  0  0  0
  182.3240  178.1400  140.2060 C   0  0  1  0  0  3  0  0  0  0  0  0
  182.1920  176.7710  139.5130 C   0  0  1  0  0  3  0  0  0  0  0  0
  185.4060  176.2870  137.2840 C   0  0  0  0  0  1  0  0  0  0  0  0
  180.8830  176.5740  138.7720 C   0  0  0  0  0  1  0  0  0  0  0  0
  184.6080  178.3770  138.3230 C   0  0  1  0  0  3  0  0  0  0  0  0
  185.3050  178.2630  139.6250 N   0  0  0  0  0  2  0  0  0  0  0  0
  182.7030  178.6780  136.8910 C   0  0  0  0  0  2  0  0  0  0  0  0
  184.1750  177.0480  137.7440 C   0  0  2  0  0  0  0  0  0  0  0  0
  183.3820  177.4230  136.5640 N   0  0  0  0  0  0  0  0  0  0  0  0
  182.4080  176.4170  136.1510 C   0  0  0  0  0  1  0  0  0  0  0  0
  183.3960  179.2990  138.1100 C   0  0  1  0  0  3  0  0  0  0  0  0
  181.0100  181.2980  139.2320 O   0  0  0  0  0  1  0  0  0  0  0  0
  181.1060  180.0620  139.0110 C   0  0  0  0  0  0  0  0  0  0  0  0
  180.0210  179.3720  138.4830 O   0  0  0  0  0  0  0  0  0  0  0  0
  1  2  1  0  0  0  0
  2  7  1  0  0  0  0
  2  8  1  1  0  0  0
  3  7  1  1  0  0  0
  4 47  1  6  0  0  0
  4  3  1  0  0  0  0
  5  6  1  0  0  0  0
  5  4  1  0  0  0  0
  5  3  1  0  0  0  0
  6  1  1  0  0  0  0
  8  9  1  0  0  0  0
  8 10  1  0  0  0  0
 11 13  1  0  0  0  0
 11  8  1  0  0  0  0
 13 12  1  0  0  0  0
 14 15  1  0  0  0  0
 14  6  1  0  0  0  0
 15 16  1  0  0  0  0
 17 14  1  0  0  0  0
 18 17  1  0  0  0  0
 19 18  1  0  0  0  0
 20 21  1  0  0  0  0
 20 22  2  0  0  0  0
 21 19  1  0  0  0  0
 23 25  2  0  0  0  0
 24 28  1  0  0  0  0
 24 23  1  0  0  0  0
 25 27  1  0  0  0  0
 25 29  1  0  0  0  0
 26 28  1  0  0  0  0
 26 27  1  0  0  0  0
 27 20  1  0  0  0  0
 30 31  2  0  0  0  0
 31 32  1  0  0  0  0
 31 29  1  0  0  0  0
 33 34  1  0  0  0  0
 33 36  1  0  0  0  0
 34 32  1  0  0  0  0
 35 34  2  0  0  0  0
 37 38  1  0  0  0  0
 38 36  1  0  0  0  0
 38 40  1  0  0  0  0
 40 39  1  0  0  0  0
 41 28  1  0  0  0  0
 41 42  1  0  0  0  0
 43 44  1  0  0  0  0
 44 42  1  0  0  0  0
 44 45  1  0  0  0  0
 46 44  1  0  0  0  0
 48 47  1  0  0  0  0
 49 48  1  0  0  0  0
 51 54  1  0  0  0  0
 52 50  1  0  0  0  0
 52 49  1  0  0  0  0
 53 55  1  0  0  0  0
 54 50  1  0  0  0  0
 55 54  1  0  0  0  0
 56 61  1  0  0  0  0
 57 55  1  0  0  0  0
 58 59  1  0  0  0  0
 59 52  1  0  0  0  0
 60 64  1  0  0  0  0
 61 58  1  0  0  0  0
 61 53  1  0  0  0  0
 62 60  1  0  0  0  0
 62 61  1  0  0  0  0
 63 62  1  0  0  0  0
 64 58  1  0  0  0  0
 64 51  1  0  0  0  0
 66 65  1  0  0  0  0
 66 51  1  0  0  0  0
 67 66  2  0  0  0  0
M  END
>  <MODEL>
5

>  <REMARK>
 VINA RESULT:      -6.0      2.258      3.579
  Name = 
  24 active torsions:
  status: ('A' for Active; 'I' for Inactive)
    1  A    between atoms: C_4  and  C_8
    2  A    between atoms: N_5  and  O_43
    3  A    between atoms: C_7  and  C_25
    4  A    between atoms: N_9  and  C_15
    5  A    between atoms: N_9  and  C_29
    6  A    between atoms: C_10  and  C_54
    7  A    between atoms: C_11  and  C_20
    8  A    between atoms: C_13  and  C_62
    9  A    between atoms: C_15  and  C_20
   10  A    between atoms: C_16  and  C_66
   11  A    between atoms: C_16  and  C_67
   12  A    between atoms: C_17  and  C_51
   13  A    between atoms: C_17  and  C_60
   14  A    between atoms: C_17  and  C_66
   15  A    between atoms: N_19  and  C_27
   16  A    between atoms: O_22  and  C_39
   17  A    between atoms: O_22  and  C_55
   18  A    between atoms: C_24  and  C_39
   19  A    between atoms: C_25  and  O_49
   20  A    between atoms: N_30  and  C_67
   21  A    between atoms: C_38  and  C_41
   22  A    between atoms: C_38  and  O_43
   23  A    between atoms: O_49  and  C_59
   24  A    between atoms: C_58  and  C_62
                            x       y       z     vdW  Elec       q    Type
                         _______ _______ _______ _____ _____    ______ ____

>  <TORSDO>
F 24

$$$$
=
 OpenBabel10232407483D

 67 72  0  0  1  0  0  0  0  0999 V2000
  186.2210  175.8800  136.3820 O   0  0  0  0  0  0  0  0  0  0  0  0
  186.5330  174.5890  135.9370 C   0  0  2  0  0  3  0  0  0  0  0  0
  188.8440  175.6330  135.4610 C   0  0  2  0  0  3  0  0  0  0  0  0
  189.4190  175.2250  136.8060 C   0  0  2  0  0  3  0  0  0  0  0  0
  188.5370  176.4580  136.7210 C   0  0  2  0  0  3  0  0  0  0  0  0
  187.1770  176.1590  137.3700 C   0  0  1  0  0  3  0  0  0  0  0  0
  187.7460  174.6540  135.0040 C   0  0  0  0  0  2  0  0  0  0  0  0
  185.3340  173.9290  135.2430 C   0  0  0  0  0  0  0  0  0  0  0  0
  185.7990  172.8530  134.5070 F   0  0  0  0  0  0  0  0  0  0  0  0
  184.7360  174.8180  134.3520 F   0  0  0  0  0  0  0  0  0  0  0  0
  184.4250  173.4220  136.2000 O   0  0  0  0  0  0  0  0  0  0  0  0
  183.1090  171.4680  135.8440 C   0  0  0  0  0  1  0  0  0  0  0  0
  183.2710  172.9480  135.5580 C   0  0  0  0  0  2  0  0  0  0  0  0
  186.7450  177.3560  138.2250 C   0  0  2  0  0  3  0  0  0  0  0  0
  185.8240  178.2620  137.4170 C   0  0  0  0  0  2  0  0  0  0  0  0
  184.5650  178.3280  138.0210 O   0  0  0  0  0  1  0  0  0  0  0  0
  187.9410  178.1660  138.7060 C   0  0  0  0  0  2  0  0  0  0  0  0
  187.5910  178.8840  139.9940 C   0  0  0  0  0  2  0  0  0  0  0  0
  188.3750  178.2840  141.1370 C   0  0  0  0  0  2  0  0  0  0  0  0
  187.6300  176.9880  143.1630 C   0  0  0  0  0  0  0  0  0  0  0  0
  187.4960  178.0980  142.2720 N   0  0  0  0  0  2  0  0  0  0  0  0
  188.4700  176.0770  142.9220 O   0  0  0  0  0  0  0  0  0  0  0  0
  186.4020  179.2050  145.4640 C   0  0  0  0  0  3  0  0  0  0  0  0
  185.0550  179.3400  144.8080 C   0  0  0  0  0  2  0  0  0  0  0  0
  187.1840  178.1170  145.3620 C   0  0  0  0  0  0  0  0  0  0  0  0
  185.3330  176.9310  144.1010 C   0  0  0  0  0  2  0  0  0  0  0  0
  186.8250  176.9760  144.4320 C   0  0  1  0  0  3  0  0  0  0  0  0
  184.8570  178.3240  143.6810 C   0  0  1  0  0  3  0  0  0  0  0  0
  188.4330  178.0380  146.0670 N   0  0  0  0  0  2  0  0  0  0  0  0
  187.6720  177.1670  148.1150 O   0  0  0  0  0  0  0  0  0  0  0  0
  188.6350  177.5790  147.4130 C   0  0  0  0  0  0  0  0  0  0  0  0
  190.0080  177.5750  147.9950 C   0  0  0  0  0  2  0  0  0  0  0  0
  191.5720  176.5020  146.3090 N   0  0  0  0  0  2  0  0  0  0  0  0
  190.8060  176.4060  147.5110 C   0  0  0  0  0  0  0  0  0  0  0  0
  190.7670  175.3130  148.1330 O   0  0  0  0  0  0  0  0  0  0  0  0
  191.6720  177.6620  145.6110 O   0  0  0  0  0  0  0  0  0  0  0  0
  191.6620  175.9800  143.9060 C   0  0  0  0  0  1  0  0  0  0  0  0
  191.1990  177.3650  144.3280 C   0  0  2  0  0  3  0  0  0  0  0  0
  191.6640  177.9170  142.0370 O   0  0  0  0  0  1  0  0  0  0  0  0
  191.6900  178.4130  143.3400 C   0  0  0  0  0  2  0  0  0  0  0  0
  183.5490  178.3360  143.1460 O   0  0  0  0  0  0  0  0  0  0  0  0
  182.6950  179.0200  144.0300 C   0  0  0  0  0  2  0  0  0  0  0  0
  180.4750  178.1820  144.2640 O   0  0  0  0  0  1  0  0  0  0  0  0
  181.2720  179.0310  143.4950 C   0  0  0  0  0  0  0  0  0  0  0  0
  180.7540  180.3260  143.5430 O   0  0  0  0  0  1  0  0  0  0  0  0
  181.2770  178.5480  142.0590 C   0  0  0  0  0  1  0  0  0  0  0  0
  190.8080  175.6470  136.8980 N   0  0  0  0  0  2  0  0  0  0  0  0
  191.5970  174.8120  136.0000 C   0  0  0  0  0  2  0  0  0  0  0  0
  192.8590  175.5340  135.5490 C   0  0  0  0  0  2  0  0  0  0  0  0
  195.1230  174.8810  134.7760 C   0  0  0  0  0  2  0  0  0  0  0  0
  196.6720  174.1830  136.6530 C   0  0  1  0  0  3  0  0  0  0  0  0
  194.0960  174.7260  135.8950 C   0  0  2  0  0  3  0  0  0  0  0  0
  195.6560  171.8090  134.4690 C   0  0  0  0  0  2  0  0  0  0  0  0
  196.4690  174.2460  135.1300 C   0  0  1  0  0  3  0  0  0  0  0  0
  196.7040  172.9360  134.3550 C   0  0  1  0  0  3  0  0  0  0  0  0
  194.1070  170.3040  135.7180 C   0  0  0  0  0  1  0  0  0  0  0  0
  198.1430  172.4570  134.3670 C   0  0  0  0  0  1  0  0  0  0  0  0
  194.7220  172.4630  136.7380 C   0  0  1  0  0  3  0  0  0  0  0  0
  193.7260  173.3260  136.0610 N   0  0  0  0  0  2  0  0  0  0  0  0
  196.9290  171.8140  137.4300 C   0  0  0  0  0  2  0  0  0  0  0  0
  195.2230  171.3210  135.8830 C   0  0  2  0  0  0  0  0  0  0  0  0
  196.2950  170.7210  136.6920 N   0  0  0  0  0  0  0  0  0  0  0  0
  197.2930  169.9900  135.9190 C   0  0  0  0  0  1  0  0  0  0  0  0
  195.9900  173.0260  137.4030 C   0  0  1  0  0  3  0  0  0  0  0  0
  199.0510  174.0830  136.6150 O   0  0  0  0  0  0  0  0  0  0  0  0
  198.0250  174.5850  137.1470 C   0  0  0  0  0  0  0  0  0  0  0  0
  198.1680  175.5320  138.1550 O   0  0  0  0  0  1  0  0  0  0  0  0
  1  6  1  0  0  0  0
  2  8  1  6  0  0  0
  2  1  1  0  0  0  0
  3  7  1  1  0  0  0
  3  5  1  0  0  0  0
  3  4  1  0  0  0  0
  4 47  1  6  0  0  0
  5  4  1  0  0  0  0
  5  6  1  0  0  0  0
  6 14  1  0  0  0  0
  7  2  1  0  0  0  0
  8 11  1  0  0  0  0
  9  8  1  0  0  0  0
 10  8  1  0  0  0  0
 13 12  1  0  0  0  0
 13 11  1  0  0  0  0
 14 17  1  0  0  0  0
 15 16  1  0  0  0  0
 15 14  1  0  0  0  0
 17 18  1  0  0  0  0
 18 19  1  0  0  0  0
 19 21  1  0  0  0  0
 20 27  1  0  0  0  0
 21 20  1  0  0  0  0
 22 20  2  0  0  0  0
 24 23  1  0  0  0  0
 25 23  2  0  0  0  0
 25 29  1  0  0  0  0
 26 27  1  0  0  0  0
 27 25  1  0  0  0  0
 28 26  1  0  0  0  0
 28 24  1  0  0  0  0
 29 31  1  0  0  0  0
 31 32  1  0  0  0  0
 31 30  2  0  0  0  0
 33 34  1  0  0  0  0
 34 32  1  0  0  0  0
 34 35  2  0  0  0  0
 36 33  1  0  0  0  0
 37 38  1  0  0  0  0
 38 36  1  0  0  0  0
 39 40  1  0  0  0  0
 40 38  1  0  0  0  0
 41 28  1  0  0  0  0
 41 42  1  0  0  0  0
 44 45  1  0  0  0  0
 44 42  1  0  0  0  0
 44 43  1  0  0  0  0
 46 44  1  0  0  0  0
 48 47  1  0  0  0  0
 49 52  1  0  0  0  0
 49 48  1  0  0  0  0
 50 54  1  0  0  0  0
 50 52  1  0  0  0  0
 51 66  1  0  0  0  0
 51 64  1  0  0  0  0
 52 59  1  0  0  0  0
 53 61  1  0  0  0  0
 54 51  1  0  0  0  0
 55 57  1  0  0  0  0
 55 53  1  0  0  0  0
 55 54  1  0  0  0  0
 56 61  1  0  0  0  0
 58 64  1  0  0  0  0
 59 58  1  0  0  0  0
 61 62  1  0  0  0  0
 61 58  1  0  0  0  0
 62 60  1  0  0  0  0
 63 62  1  0  0  0  0
 64 60  1  0  0  0  0
 65 66  2  0  0  0  0
 66 67  1  0  0  0  0
M  END
>  <MODEL>
6

>  <REMARK>
 VINA RESULT:      -5.1      3.740     12.131
  Name = 
  24 active torsions:
  status: ('A' for Active; 'I' for Inactive)
    1  A    between atoms: C_4  and  C_8
    2  A    between atoms: N_5  and  O_43
    3  A    between atoms: C_7  and  C_25
    4  A    between atoms: N_9  and  C_15
    5  A    between atoms: N_9  and  C_29
    6  A    between atoms: C_10  and  C_54
    7  A    between atoms: C_11  and  C_20
    8  A    between atoms: C_13  and  C_62
    9  A    between atoms: C_15  and  C_20
   10  A    between atoms: C_16  and  C_66
   11  A    between atoms: C_16  and  C_67
   12  A    between atoms: C_17  and  C_51
   13  A    between atoms: C_17  and  C_60
   14  A    between atoms: C_17  and  C_66
   15  A    between atoms: N_19  and  C_27
   16  A    between atoms: O_22  and  C_39
   17  A    between atoms: O_22  and  C_55
   18  A    between atoms: C_24  and  C_39
   19  A    between atoms: C_25  and  O_49
   20  A    between atoms: N_30  and  C_67
   21  A    between atoms: C_38  and  C_41
   22  A    between atoms: C_38  and  O_43
   23  A    between atoms: O_49  and  C_59
   24  A    between atoms: C_58  and  C_62
                            x       y       z     vdW  Elec       q    Type
                         _______ _______ _______ _____ _____    ______ ____

>  <TORSDO>
F 24

$$$$
=
 OpenBabel10232407483D

 67 72  0  0  1  0  0  0  0  0999 V2000
  187.1460  176.6300  137.4950 O   0  0  0  0  0  0  0  0  0  0  0  0
  187.6330  175.4540  136.9120 C   0  0  2  0  0  3  0  0  0  0  0  0
  189.7440  176.8800  136.5070 C   0  0  2  0  0  3  0  0  0  0  0  0
  190.4190  176.4310  137.7910 C   0  0  2  0  0  3  0  0  0  0  0  0
  189.3590  177.5180  137.8510 C   0  0  2  0  0  3  0  0  0  0  0  0
  188.0830  176.9510  138.4900 C   0  0  1  0  0  3  0  0  0  0  0  0
  188.7910  175.7970  135.9690 C   0  0  0  0  0  2  0  0  0  0  0  0
  186.5240  174.6910  136.1740 C   0  0  0  0  0  0  0  0  0  0  0  0
  187.1160  173.8980  135.2060 F   0  0  0  0  0  0  0  0  0  0  0  0
  185.6720  175.5810  135.5220 F   0  0  0  0  0  0  0  0  0  0  0  0
  185.8400  173.8310  137.0620 O   0  0  0  0  0  0  0  0  0  0  0  0
  183.5050  173.3700  137.1860 C   0  0  0  0  0  1  0  0  0  0  0  0
  184.7840  173.1940  136.3910 C   0  0  0  0  0  2  0  0  0  0  0  0
  187.5050  177.9750  139.4730 C   0  0  2  0  0  3  0  0  0  0  0  0
  186.1920  178.5270  138.9320 C   0  0  0  0  0  2  0  0  0  0  0  0
  185.4310  179.0650  139.9730 O   0  0  0  0  0  1  0  0  0  0  0  0
  188.4670  179.1290  139.7150 C   0  0  0  0  0  2  0  0  0  0  0  0
  188.7930  179.2260  141.1920 C   0  0  0  0  0  2  0  0  0  0  0  0
  188.6410  177.8680  141.8340 C   0  0  0  0  0  2  0  0  0  0  0  0
  187.3820  176.8410  143.7580 C   0  0  0  0  0  0  0  0  0  0  0  0
  187.7440  177.9750  142.9670 N   0  0  0  0  0  2  0  0  0  0  0  0
  187.7640  175.6850  143.4260 O   0  0  0  0  0  0  0  0  0  0  0  0
  186.4140  179.4360  145.7710 C   0  0  0  0  0  3  0  0  0  0  0  0
  185.0590  179.5930  145.1370 C   0  0  0  0  0  2  0  0  0  0  0  0
  187.1050  178.2830  145.7970 C   0  0  0  0  0  0  0  0  0  0  0  0
  185.1220  177.0980  144.7530 C   0  0  0  0  0  2  0  0  0  0  0  0
  186.6240  177.0630  145.0380 C   0  0  1  0  0  3  0  0  0  0  0  0
  184.7420  178.4570  144.1620 C   0  0  1  0  0  3  0  0  0  0  0  0
  188.3680  178.1960  146.4750 N   0  0  0  0  0  2  0  0  0  0  0  0
  187.8210  176.6060  148.1190 O   0  0  0  0  0  0  0  0  0  0  0  0
  188.6820  177.3740  147.6100 C   0  0  0  0  0  0  0  0  0  0  0  0
  190.0520  177.4170  148.1980 C   0  0  0  0  0  2  0  0  0  0  0  0
  191.6950  176.9450  146.3220 N   0  0  0  0  0  2  0  0  0  0  0  0
  190.9860  176.4960  147.4790 C   0  0  0  0  0  0  0  0  0  0  0  0
  191.1150  175.3040  147.8590 O   0  0  0  0  0  0  0  0  0  0  0  0
  191.6140  178.2270  145.8830 O   0  0  0  0  0  0  0  0  0  0  0  0
  191.2550  179.3650  143.8060 C   0  0  0  0  0  1  0  0  0  0  0  0
  191.8680  178.1640  144.5080 C   0  0  2  0  0  3  0  0  0  0  0  0
  191.9080  176.5670  142.7150 O   0  0  0  0  0  1  0  0  0  0  0  0
  191.3070  176.8710  143.9360 C   0  0  0  0  0  2  0  0  0  0  0  0
  183.4210  178.5060  143.6630 O   0  0  0  0  0  0  0  0  0  0  0  0
  183.4590  178.7340  142.2750 C   0  0  0  0  0  2  0  0  0  0  0  0
  181.1390  178.3650  142.6840 O   0  0  0  0  0  1  0  0  0  0  0  0
  182.0750  178.5670  141.6690 C   0  0  0  0  0  0  0  0  0  0  0  0
  181.7330  179.7060  140.9400 O   0  0  0  0  0  1  0  0  0  0  0  0
  182.0780  177.3660  140.7460 C   0  0  0  0  0  1  0  0  0  0  0  0
  191.7310  177.0500  137.9020 N   0  0  0  0  0  2  0  0  0  0  0  0
  192.7070  175.9980  138.1610 C   0  0  0  0  0  2  0  0  0  0  0  0
  192.3080  174.7000  137.4730 C   0  0  0  0  0  2  0  0  0  0  0  0
  194.4450  173.5760  138.0410 C   0  0  0  0  0  2  0  0  0  0  0  0
  195.2440  171.9640  136.2610 C   0  0  1  0  0  3  0  0  0  0  0  0
  193.5240  173.9980  136.8980 C   0  0  2  0  0  3  0  0  0  0  0  0
  197.0360  174.7880  136.7640 C   0  0  0  0  0  2  0  0  0  0  0  0
  195.6050  172.7020  137.5610 C   0  0  1  0  0  3  0  0  0  0  0  0
  196.9380  173.4710  137.5630 C   0  0  1  0  0  3  0  0  0  0  0  0
  196.6910  176.2210  134.7510 C   0  0  0  0  0  1  0  0  0  0  0  0
  198.1660  172.5860  137.4640 C   0  0  0  0  0  1  0  0  0  0  0  0
  195.2060  174.2800  135.0770 C   0  0  1  0  0  3  0  0  0  0  0  0
  194.2170  174.9020  135.9880 N   0  0  0  0  0  2  0  0  0  0  0  0
  196.7950  172.6100  134.4000 C   0  0  0  0  0  2  0  0  0  0  0  0
  196.6160  174.7940  135.2650 C   0  0  2  0  0  0  0  0  0  0  0  0
  197.4230  173.9330  134.3870 N   0  0  0  0  0  0  0  0  0  0  0  0
  198.8260  173.8270  134.7720 C   0  0  0  0  0  1  0  0  0  0  0  0
  195.3700  172.7560  134.9480 C   0  0  1  0  0  3  0  0  0  0  0  0
  195.4400  169.7870  137.2070 O   0  0  0  0  0  1  0  0  0  0  0  0
  195.6340  170.5200  136.2020 C   0  0  0  0  0  0  0  0  0  0  0  0
  196.1690  169.9700  135.0430 O   0  0  0  0  0  0  0  0  0  0  0  0
  1  6  1  0  0  0  0
  2  8  1  6  0  0  0
  2  1  1  0  0  0  0
  3  7  1  1  0  0  0
  3  4  1  0  0  0  0
  3  5  1  0  0  0  0
  4  5  1  0  0  0  0
  4 47  1  6  0  0  0
  5  6  1  0  0  0  0
  6 14  1  0  0  0  0
  7  2  1  0  0  0  0
  8 11  1  0  0  0  0
  9  8  1  0  0  0  0
 10  8  1  0  0  0  0
 13 11  1  0  0  0  0
 13 12  1  0  0  0  0
 14 17  1  0  0  0  0
 15 14  1  0  0  0  0
 15 16  1  0  0  0  0
 17 18  1  0  0  0  0
 18 19  1  0  0  0  0
 19 21  1  0  0  0  0
 20 27  1  0  0  0  0
 21 20  1  0  0  0  0
 22 20  2  0  0  0  0
 23 25  2  0  0  0  0
 24 23  1  0  0  0  0
 25 29  1  0  0  0  0
 26 27  1  0  0  0  0
 27 25  1  0  0  0  0
 28 26  1  0  0  0  0
 28 24  1  0  0  0  0
 29 31  1  0  0  0  0
 31 30  2  0  0  0  0
 31 32  1  0  0  0  0
 33 34  1  0  0  0  0
 34 35  2  0  0  0  0
 34 32  1  0  0  0  0
 36 33  1  0  0  0  0
 37 38  1  0  0  0  0
 38 36  1  0  0  0  0
 39 40  1  0  0  0  0
 40 38  1  0  0  0  0
 41 28  1  0  0  0  0
 42 41  1  0  0  0  0
 44 42  1  0  0  0  0
 44 43  1  0  0  0  0
 45 44  1  0  0  0  0
 46 44  1  0  0  0  0
 47 48  1  0  0  0  0
 49 48  1  0  0  0  0
 51 54  1  0  0  0  0
 52 49  1  0  0  0  0
 52 50  1  0  0  0  0
 53 55  1  0  0  0  0
 54 55  1  0  0  0  0
 54 50  1  0  0  0  0
 56 61  1  0  0  0  0
 57 55  1  0  0  0  0
 58 61  1  0  0  0  0
 58 59  1  0  0  0  0
 59 52  1  0  0  0  0
 60 64  1  0  0  0  0
 61 53  1  0  0  0  0
 62 60  1  0  0  0  0
 62 63  1  0  0  0  0
 62 61  1  0  0  0  0
 64 58  1  0  0  0  0
 64 51  1  0  0  0  0
 66 51  1  0  0  0  0
 66 65  1  0  0  0  0
 67 66  2  0  0  0  0
M  END
>  <MODEL>
7

>  <REMARK>
 VINA RESULT:      -4.7      3.588     11.610
  Name = 
  24 active torsions:
  status: ('A' for Active; 'I' for Inactive)
    1  A    between atoms: C_4  and  C_8
    2  A    between atoms: N_5  and  O_43
    3  A    between atoms: C_7  and  C_25
    4  A    between atoms: N_9  and  C_15
    5  A    between atoms: N_9  and  C_29
    6  A    between atoms: C_10  and  C_54
    7  A    between atoms: C_11  and  C_20
    8  A    between atoms: C_13  and  C_62
    9  A    between atoms: C_15  and  C_20
   10  A    between atoms: C_16  and  C_66
   11  A    between atoms: C_16  and  C_67
   12  A    between atoms: C_17  and  C_51
   13  A    between atoms: C_17  and  C_60
   14  A    between atoms: C_17  and  C_66
   15  A    between atoms: N_19  and  C_27
   16  A    between atoms: O_22  and  C_39
   17  A    between atoms: O_22  and  C_55
   18  A    between atoms: C_24  and  C_39
   19  A    between atoms: C_25  and  O_49
   20  A    between atoms: N_30  and  C_67
   21  A    between atoms: C_38  and  C_41
   22  A    between atoms: C_38  and  O_43
   23  A    between atoms: O_49  and  C_59
   24  A    between atoms: C_58  and  C_62
                            x       y       z     vdW  Elec       q    Type
                         _______ _______ _______ _____ _____    ______ ____

>  <TORSDO>
F 24

$$$$
=
 OpenBabel10232407483D

 67 72  0  0  1  0  0  0  0  0999 V2000
  189.4970  177.1150  145.1250 O   0  0  0  0  0  0  0  0  0  0  0  0
  188.6630  177.0570  146.2480 C   0  0  2  0  0  3  0  0  0  0  0  0
  187.3640  178.9120  145.0120 C   0  0  2  0  0  3  0  0  0  0  0  0
  186.4070  177.9410  144.3460 C   0  0  2  0  0  3  0  0  0  0  0  0
  187.7930  178.1350  143.7570 C   0  0  2  0  0  3  0  0  0  0  0  0
  188.6440  176.8870  144.0340 C   0  0  1  0  0  3  0  0  0  0  0  0
  187.8700  178.3630  146.3590 C   0  0  0  0  0  2  0  0  0  0  0  0
  189.4630  176.7840  147.5290 C   0  0  0  0  0  0  0  0  0  0  0  0
  188.5750  176.7300  148.5900 F   0  0  0  0  0  0  0  0  0  0  0  0
  190.3520  177.8270  147.7800 F   0  0  0  0  0  0  0  0  0  0  0  0
  190.1040  175.5260  147.4530 O   0  0  0  0  0  0  0  0  0  0  0  0
  192.3540  175.1690  146.7520 C   0  0  0  0  0  1  0  0  0  0  0  0
  191.4410  175.6470  147.8640 C   0  0  0  0  0  2  0  0  0  0  0  0
  189.4490  176.5290  142.7790 C   0  0  2  0  0  3  0  0  0  0  0  0
  190.9010  176.2580  143.1560 C   0  0  0  0  0  2  0  0  0  0  0  0
  191.0210  174.9850  143.7170 O   0  0  0  0  0  1  0  0  0  0  0  0
  189.4040  177.6440  141.7440 C   0  0  0  0  0  2  0  0  0  0  0  0
  187.9850  177.8240  141.2440 C   0  0  0  0  0  2  0  0  0  0  0  0
  188.0020  178.1140  139.7620 C   0  0  0  0  0  2  0  0  0  0  0  0
  187.6080  176.5440  137.8340 C   0  0  0  0  0  0  0  0  0  0  0  0
  188.2900  176.8920  139.0400 N   0  0  0  0  0  2  0  0  0  0  0  0
  186.6560  177.2570  137.4130 O   0  0  0  0  0  0  0  0  0  0  0  0
  188.4130  175.7940  134.5920 C   0  0  0  0  0  3  0  0  0  0  0  0
  189.8780  176.0980  134.7490 C   0  0  0  0  0  2  0  0  0  0  0  0
  187.6130  175.3990  135.5970 C   0  0  0  0  0  0  0  0  0  0  0  0
  189.6300  175.2900  137.1290 C   0  0  0  0  0  2  0  0  0  0  0  0
  188.1060  175.3750  137.0300 C   0  0  1  0  0  3  0  0  0  0  0  0
  190.2650  176.3350  136.2100 C   0  0  1  0  0  3  0  0  0  0  0  0
  186.2350  175.0690  135.3580 N   0  0  0  0  0  2  0  0  0  0  0  0
  185.9250  173.4460  137.0310 O   0  0  0  0  0  0  0  0  0  0  0  0
  185.4440  174.1050  136.0700 C   0  0  0  0  0  0  0  0  0  0  0  0
  184.0230  173.8810  135.6780 C   0  0  0  0  0  2  0  0  0  0  0  0
  184.0430  171.3440  135.7020 N   0  0  0  0  0  2  0  0  0  0  0  0
  183.5110  172.5750  136.1950 C   0  0  0  0  0  0  0  0  0  0  0  0
  182.5730  172.5510  137.0330 O   0  0  0  0  0  0  0  0  0  0  0  0
  185.0730  171.3100  134.8180 O   0  0  0  0  0  0  0  0  0  0  0  0
  184.0740  169.1400  134.9930 C   0  0  0  0  0  1  0  0  0  0  0  0
  185.2710  169.9550  134.5310 C   0  0  2  0  0  3  0  0  0  0  0  0
  186.5150  168.0770  135.3650 O   0  0  0  0  0  1  0  0  0  0  0  0
  186.5420  169.4620  135.2080 C   0  0  0  0  0  2  0  0  0  0  0  0
  191.6580  176.4810  136.3980 O   0  0  0  0  0  0  0  0  0  0  0  0
  192.3330  175.9390  135.2890 C   0  0  0  0  0  2  0  0  0  0  0  0
  194.2880  176.4390  136.5610 O   0  0  0  0  0  1  0  0  0  0  0  0
  193.7370  175.5070  135.6800 C   0  0  0  0  0  0  0  0  0  0  0  0
  193.6970  174.2540  136.2930 O   0  0  0  0  0  1  0  0  0  0  0  0
  194.5980  175.4270  134.4350 C   0  0  0  0  0  1  0  0  0  0  0  0
  185.4460  178.6710  143.5340 N   0  0  0  0  0  2  0  0  0  0  0  0
  184.1270  178.0930  143.7620 C   0  0  0  0  0  2  0  0  0  0  0  0
  183.0260  179.0680  143.3690 C   0  0  0  0  0  2  0  0  0  0  0  0
  183.4820  178.0300  141.1640 C   0  0  0  0  0  2  0  0  0  0  0  0
  181.4170  177.0920  140.0400 C   0  0  1  0  0  3  0  0  0  0  0  0
  182.4120  178.6810  142.0370 C   0  0  2  0  0  3  0  0  0  0  0  0
  182.8930  179.7960  138.6450 C   0  0  0  0  0  2  0  0  0  0  0  0
  182.9040  177.4450  139.8740 C   0  0  1  0  0  3  0  0  0  0  0  0
  183.2700  178.3000  138.6460 C   0  0  1  0  0  3  0  0  0  0  0  0
  181.3430  181.7190  139.0010 C   0  0  0  0  0  1  0  0  0  0  0  0
  183.0590  177.6000  137.3170 C   0  0  0  0  0  1  0  0  0  0  0  0
  180.9410  179.6400  140.2630 C   0  0  1  0  0  3  0  0  0  0  0  0
  181.8770  179.8720  141.3880 N   0  0  0  0  0  2  0  0  0  0  0  0
  179.9960  178.3960  138.4380 C   0  0  0  0  0  2  0  0  0  0  0  0
  181.4200  180.2040  138.9440 C   0  0  2  0  0  0  0  0  0  0  0  0
  180.4270  179.7160  137.9740 N   0  0  0  0  0  0  0  0  0  0  0  0
  180.9180  179.6310  136.6030 C   0  0  0  0  0  1  0  0  0  0  0  0
  180.4040  178.2420  139.9090 C   0  0  1  0  0  3  0  0  0  0  0  0
  181.3990  175.4300  138.3340 O   0  0  0  0  0  0  0  0  0  0  0  0
  180.9940  175.7710  139.4770 C   0  0  0  0  0  0  0  0  0  0  0  0
  180.1970  174.9020  140.2120 O   0  0  0  0  0  1  0  0  0  0  0  0
  1  2  1  0  0  0  0
  2  7  1  0  0  0  0
  2  8  1  1  0  0  0
  3  7  1  1  0  0  0
  4 47  1  6  0  0  0
  4  3  1  0  0  0  0
  5  6  1  0  0  0  0
  5  4  1  0  0  0  0
  5  3  1  0  0  0  0
  6  1  1  0  0  0  0
  8 10  1  0  0  0  0
  8  9  1  0  0  0  0
 11  8  1  0  0  0  0
 11 13  1  0  0  0  0
 12 13  1  0  0  0  0
 14 15  1  0  0  0  0
 14  6  1  0  0  0  0
 15 16  1  0  0  0  0
 17 14  1  0  0  0  0
 18 17  1  0  0  0  0
 19 18  1  0  0  0  0
 20 21  1  0  0  0  0
 21 19  1  0  0  0  0
 22 20  2  0  0  0  0
 23 24  1  0  0  0  0
 23 25  2  0  0  0  0
 24 28  1  0  0  0  0
 25 27  1  0  0  0  0
 27 26  1  0  0  0  0
 27 20  1  0  0  0  0
 28 41  1  0  0  0  0
 28 26  1  0  0  0  0
 29 25  1  0  0  0  0
 29 31  1  0  0  0  0
 31 30  2  0  0  0  0
 32 31  1  0  0  0  0
 32 34  1  0  0  0  0
 33 34  1  0  0  0  0
 34 35  2  0  0  0  0
 36 33  1  0  0  0  0
 38 36  1  0  0  0  0
 38 37  1  0  0  0  0
 38 40  1  0  0  0  0
 40 39  1  0  0  0  0
 42 44  1  0  0  0  0
 42 41  1  0  0  0  0
 44 45  1  0  0  0  0
 44 43  1  0  0  0  0
 46 44  1  0  0  0  0
 47 48  1  0  0  0  0
 49 48  1  0  0  0  0
 50 52  1  0  0  0  0
 52 49  1  0  0  0  0
 53 55  1  0  0  0  0
 53 61  1  0  0  0  0
 54 51  1  0  0  0  0
 54 50  1  0  0  0  0
 55 54  1  0  0  0  0
 57 55  1  0  0  0  0
 58 59  1  0  0  0  0
 59 52  1  0  0  0  0
 60 64  1  0  0  0  0
 61 56  1  0  0  0  0
 61 58  1  0  0  0  0
 62 60  1  0  0  0  0
 62 61  1  0  0  0  0
 63 62  1  0  0  0  0
 64 51  1  0  0  0  0
 64 58  1  0  0  0  0
 65 66  2  0  0  0  0
 66 51  1  0  0  0  0
 66 67  1  0  0  0  0
M  END
>  <MODEL>
8

>  <REMARK>
 VINA RESULT:      -4.6      1.992      5.647
  Name = 
  24 active torsions:
  status: ('A' for Active; 'I' for Inactive)
    1  A    between atoms: C_4  and  C_8
    2  A    between atoms: N_5  and  O_43
    3  A    between atoms: C_7  and  C_25
    4  A    between atoms: N_9  and  C_15
    5  A    between atoms: N_9  and  C_29
    6  A    between atoms: C_10  and  C_54
    7  A    between atoms: C_11  and  C_20
    8  A    between atoms: C_13  and  C_62
    9  A    between atoms: C_15  and  C_20
   10  A    between atoms: C_16  and  C_66
   11  A    between atoms: C_16  and  C_67
   12  A    between atoms: C_17  and  C_51
   13  A    between atoms: C_17  and  C_60
   14  A    between atoms: C_17  and  C_66
   15  A    between atoms: N_19  and  C_27
   16  A    between atoms: O_22  and  C_39
   17  A    between atoms: O_22  and  C_55
   18  A    between atoms: C_24  and  C_39
   19  A    between atoms: C_25  and  O_49
   20  A    between atoms: N_30  and  C_67
   21  A    between atoms: C_38  and  C_41
   22  A    between atoms: C_38  and  O_43
   23  A    between atoms: O_49  and  C_59
   24  A    between atoms: C_58  and  C_62
                            x       y       z     vdW  Elec       q    Type
                         _______ _______ _______ _____ _____    ______ ____

>  <TORSDO>
F 24

$$$$
=
 OpenBabel10232407483D

 67 72  0  0  1  0  0  0  0  0999 V2000
  190.8700  177.0020  142.6860 O   0  0  0  0  0  0  0  0  0  0  0  0
  190.2530  176.6620  143.8960 C   0  0  2  0  0  3  0  0  0  0  0  0
  188.3820  178.2160  143.0360 C   0  0  2  0  0  3  0  0  0  0  0  0
  187.5920  177.0850  142.4040 C   0  0  2  0  0  3  0  0  0  0  0  0
  188.7870  177.6570  141.6630 C   0  0  2  0  0  3  0  0  0  0  0  0
  189.9420  176.6440  141.6970 C   0  0  1  0  0  3  0  0  0  0  0  0
  189.2000  177.7200  144.2430 C   0  0  0  0  0  2  0  0  0  0  0  0
  191.2790  176.5100  145.0270 C   0  0  0  0  0  0  0  0  0  0  0  0
  192.1920  177.5450  144.9250 F   0  0  0  0  0  0  0  0  0  0  0  0
  191.9830  175.3150  144.8890 F   0  0  0  0  0  0  0  0  0  0  0  0
  190.6480  176.6280  146.2870 O   0  0  0  0  0  0  0  0  0  0  0  0
  192.5040  175.4420  147.1960 C   0  0  0  0  0  1  0  0  0  0  0  0
  191.6150  176.6650  147.3040 C   0  0  0  0  0  2  0  0  0  0  0  0
  190.6090  176.5830  140.3180 C   0  0  2  0  0  3  0  0  0  0  0  0
  191.9990  177.2040  140.3890 C   0  0  0  0  0  2  0  0  0  0  0  0
  192.6560  177.0500  139.1660 O   0  0  0  0  0  1  0  0  0  0  0  0
  189.7910  177.3150  139.2640 C   0  0  0  0  0  2  0  0  0  0  0  0
  189.7190  176.4830  137.9990 C   0  0  0  0  0  2  0  0  0  0  0  0
  190.4630  177.1840  136.8880 C   0  0  0  0  0  2  0  0  0  0  0  0
  190.3850  174.8880  135.8560 C   0  0  0  0  0  0  0  0  0  0  0  0
  190.5470  176.3030  135.7410 N   0  0  0  0  0  2  0  0  0  0  0  0
  190.2580  174.3530  136.9930 O   0  0  0  0  0  0  0  0  0  0  0  0
  190.8370  171.6500  134.8410 C   0  0  0  0  0  3  0  0  0  0  0  0
  189.3990  171.2530  135.0330 C   0  0  0  0  0  2  0  0  0  0  0  0
  191.2430  172.9040  134.5760 C   0  0  0  0  0  0  0  0  0  0  0  0
  188.8200  173.6280  134.3990 C   0  0  0  0  0  2  0  0  0  0  0  0
  190.2710  174.0660  134.6030 C   0  0  1  0  0  3  0  0  0  0  0  0
  188.5020  172.4560  135.3300 C   0  0  1  0  0  3  0  0  0  0  0  0
  192.6310  173.1960  134.3460 N   0  0  0  0  0  2  0  0  0  0  0  0
  193.3210  173.5820  136.5610 O   0  0  0  0  0  0  0  0  0  0  0  0
  193.6160  173.5310  135.3360 C   0  0  0  0  0  0  0  0  0  0  0  0
  195.0180  173.8170  134.9160 C   0  0  0  0  0  2  0  0  0  0  0  0
  196.5940  175.4360  136.0720 N   0  0  0  0  0  2  0  0  0  0  0  0
  195.4260  175.2090  135.2810 C   0  0  0  0  0  0  0  0  0  0  0  0
  194.7150  176.1870  134.9340 O   0  0  0  0  0  0  0  0  0  0  0  0
  197.4130  174.4220  136.4510 O   0  0  0  0  0  0  0  0  0  0  0  0
  199.4100  174.3530  137.7710 C   0  0  0  0  0  1  0  0  0  0  0  0
  197.9710  174.8310  137.6670 C   0  0  2  0  0  3  0  0  0  0  0  0
  195.8030  174.6310  138.6810 O   0  0  0  0  0  1  0  0  0  0  0  0
  197.1470  174.2880  138.8250 C   0  0  0  0  0  2  0  0  0  0  0  0
  187.1280  172.1260  135.3730 O   0  0  0  0  0  0  0  0  0  0  0  0
  186.6360  172.3630  136.6700 C   0  0  0  0  0  2  0  0  0  0  0  0
  184.4520  171.4310  136.8820 O   0  0  0  0  0  1  0  0  0  0  0  0
  185.1390  172.6200  136.6330 C   0  0  0  0  0  0  0  0  0  0  0  0
  184.7940  173.5670  137.5990 O   0  0  0  0  0  1  0  0  0  0  0  0
  184.7560  173.1410  135.2640 C   0  0  0  0  0  1  0  0  0  0  0  0
  186.3740  177.6070  141.8030 N   0  0  0  0  0  2  0  0  0  0  0  0
  186.7230  178.7950  141.0330 C   0  0  0  0  0  2  0  0  0  0  0  0
  186.3720  178.6170  139.5620 C   0  0  0  0  0  2  0  0  0  0  0  0
  184.2230  177.8190  140.5050 C   0  0  0  0  0  2  0  0  0  0  0  0
  182.2240  179.1880  139.7710 C   0  0  1  0  0  3  0  0  0  0  0  0
  184.8690  178.6010  139.3630 C   0  0  2  0  0  3  0  0  0  0  0  0
  182.4720  176.0100  138.6410 C   0  0  0  0  0  2  0  0  0  0  0  0
  182.6950  177.9080  140.4800 C   0  0  1  0  0  3  0  0  0  0  0  0
  182.0540  176.5900  140.0090 C   0  0  1  0  0  3  0  0  0  0  0  0
  182.9690  176.1560  136.2010 C   0  0  0  0  0  1  0  0  0  0  0  0
  180.5720  176.4780  140.3110 C   0  0  0  0  0  1  0  0  0  0  0  0
  183.1860  178.1970  137.5660 C   0  0  1  0  0  3  0  0  0  0  0  0
  184.5590  177.9820  138.0800 N   0  0  0  0  0  2  0  0  0  0  0  0
  180.8330  178.6420  137.7580 C   0  0  0  0  0  2  0  0  0  0  0  0
  182.3960  176.9210  137.3800 C   0  0  2  0  0  0  0  0  0  0  0  0
  181.0480  177.3910  137.0290 N   0  0  0  0  0  0  0  0  0  0  0  0
  179.9820  176.4420  137.3330 C   0  0  0  0  0  1  0  0  0  0  0  0
  182.1940  179.1660  138.2330 C   0  0  1  0  0  3  0  0  0  0  0  0
  180.8500  179.6910  141.6490 O   0  0  0  0  0  1  0  0  0  0  0  0
  181.1160  179.9360  140.4430 C   0  0  0  0  0  0  0  0  0  0  0  0
  180.4050  180.9220  139.7680 O   0  0  0  0  0  0  0  0  0  0  0  0
  1  2  1  0  0  0  0
  2  7  1  0  0  0  0
  2  8  1  1  0  0  0
  3  7  1  1  0  0  0
  4 47  1  6  0  0  0
  4  3  1  0  0  0  0
  5  6  1  0  0  0  0
  5  4  1  0  0  0  0
  5  3  1  0  0  0  0
  6  1  1  0  0  0  0
  8 11  1  0  0  0  0
  9  8  1  0  0  0  0
 10  8  1  0  0  0  0
 11 13  1  0  0  0  0
 12 13  1  0  0  0  0
 14 15  1  0  0  0  0
 14  6  1  0  0  0  0
 16 15  1  0  0  0  0
 17 14  1  0  0  0  0
 18 17  1  0  0  0  0
 19 18  1  0  0  0  0
 20 22  2  0  0  0  0
 21 20  1  0  0  0  0
 21 19  1  0  0  0  0
 23 24  1  0  0  0  0
 24 28  1  0  0  0  0
 25 27  1  0  0  0  0
 25 23  2  0  0  0  0
 26 27  1  0  0  0  0
 26 28  1  0  0  0  0
 27 20  1  0  0  0  0
 28 41  1  0  0  0  0
 29 25  1  0  0  0  0
 29 31  1  0  0  0  0
 31 30  2  0  0  0  0
 32 34  1  0  0  0  0
 32 31  1  0  0  0  0
 33 36  1  0  0  0  0
 34 33  1  0  0  0  0
 35 34  2  0  0  0  0
 36 38  1  0  0  0  0
 38 37  1  0  0  0  0
 38 40  1  0  0  0  0
 39 40  1  0  0  0  0
 41 42  1  0  0  0  0
 44 42  1  0  0  0  0
 44 43  1  0  0  0  0
 44 45  1  0  0  0  0
 46 44  1  0  0  0  0
 48 47  1  0  0  0  0
 49 48  1  0  0  0  0
 51 66  1  0  0  0  0
 51 54  1  0  0  0  0
 52 49  1  0  0  0  0
 52 50  1  0  0  0  0
 53 55  1  0  0  0  0
 54 50  1  0  0  0  0
 55 57  1  0  0  0  0
 55 54  1  0  0  0  0
 56 61  1  0  0  0  0
 58 59  1  0  0  0  0
 58 64  1  0  0  0  0
 59 52  1  0  0  0  0
 60 64  1  0  0  0  0
 61 58  1  0  0  0  0
 61 53  1  0  0  0  0
 62 63  1  0  0  0  0
 62 61  1  0  0  0  0
 62 60  1  0  0  0  0
 64 51  1  0  0  0  0
 66 65  1  0  0  0  0
 67 66  2  0  0  0  0
M  END
>  <MODEL>
9

>  <REMARK>
 VINA RESULT:      -4.5      2.434      3.644
  Name = 
  24 active torsions:
  status: ('A' for Active; 'I' for Inactive)
    1  A    between atoms: C_4  and  C_8
    2  A    between atoms: N_5  and  O_43
    3  A    between atoms: C_7  and  C_25
    4  A    between atoms: N_9  and  C_15
    5  A    between atoms: N_9  and  C_29
    6  A    between atoms: C_10  and  C_54
    7  A    between atoms: C_11  and  C_20
    8  A    between atoms: C_13  and  C_62
    9  A    between atoms: C_15  and  C_20
   10  A    between atoms: C_16  and  C_66
   11  A    between atoms: C_16  and  C_67
   12  A    between atoms: C_17  and  C_51
   13  A    between atoms: C_17  and  C_60
   14  A    between atoms: C_17  and  C_66
   15  A    between atoms: N_19  and  C_27
   16  A    between atoms: O_22  and  C_39
   17  A    between atoms: O_22  and  C_55
   18  A    between atoms: C_24  and  C_39
   19  A    between atoms: C_25  and  O_49
   20  A    between atoms: N_30  and  C_67
   21  A    between atoms: C_38  and  C_41
   22  A    between atoms: C_38  and  O_43
   23  A    between atoms: O_49  and  C_59
   24  A    between atoms: C_58  and  C_62
                            x       y       z     vdW  Elec       q    Type
                         _______ _______ _______ _____ _____    ______ ____

>  <TORSDO>
F 24

$$$$
