=
 OpenBabel10222422003D

 44 50  0  0  1  0  0  0  0  0999 V2000
  185.4510  178.2040  141.9620 C   0  0  0  0  0  0  0  0  0  0  0  0
  189.1470  178.5030  138.9000 C   0  0  0  0  0  2  0  0  0  0  0  0
  187.4030  177.5660  137.4490 C   0  0  0  0  0  3  0  0  0  0  0  0
  188.6720  178.1960  143.2450 C   0  0  2  0  0  3  0  0  0  0  0  0
  186.9350  177.5090  138.8890 C   0  0  0  0  0  3  0  0  0  0  0  0
  186.8130  177.9890  141.9730 C   0  0  0  0  0  0  0  0  0  0  0  0
  187.9710  178.1490  139.6720 N   0  0  0  0  0  0  0  0  0  0  0  0
  187.2460  177.8960  143.2090 N   0  0  0  0  0  0  0  0  0  0  0  0
  189.0360  178.2970  141.8230 N   0  0  0  0  0  0  0  0  0  0  0  0
  188.7900  178.2130  137.4520 C   0  0  2  0  0  3  0  0  0  0  0  0
  185.0620  178.2270  143.3080 C   0  0  0  0  0  3  0  0  0  0  0  0
  186.2280  178.0770  144.0670 C   0  0  0  0  0  3  0  0  0  0  0  0
  187.9540  178.2040  141.1030 C   0  0  0  0  0  0  0  0  0  0  0  0
  189.8470  177.3630  136.7980 C   0  0  0  0  0  0  0  0  0  0  0  0
  191.8520  175.7520  135.6430 C   0  0  0  0  0  0  0  0  0  0  0  0
  191.9040  176.0730  137.0080 C   0  0  0  0  0  0  0  0  0  0  0  0
  190.9090  176.8770  137.5780 C   0  0  0  0  0  3  0  0  0  0  0  0
  189.7770  177.0170  135.4330 C   0  0  0  0  0  3  0  0  0  0  0  0
  190.7770  176.2250  134.8590 C   0  0  0  0  0  3  0  0  0  0  0  0
  192.9410  175.5980  137.8010 O   0  0  0  0  0  1  0  0  0  0  0  0
  192.8660  174.9590  135.0890 O   0  0  0  0  0  0  0  0  0  0  0  0
  194.0170  175.5140  134.4550 C   0  0  0  0  0  1  0  0  0  0  0  0
  184.6020  178.6330  140.8430 C   0  0  0  0  0  0  0  0  0  0  0  0
  182.6630  178.3350  139.4400 C   0  0  0  0  0  0  0  0  0  0  0  0
  184.1150  180.1970  139.1550 N   0  0  0  0  0  0  0  0  0  0  0  0
  183.4670  177.8970  140.4980 C   0  0  0  0  0  3  0  0  0  0  0  0
  183.0130  179.5030  138.7670 C   0  0  0  0  0  3  0  0  0  0  0  0
  184.8830  179.7770  140.1630 N   0  0  0  0  0  0  0  0  0  0  0  0
  181.5170  177.5920  139.0110 N   0  0  0  0  0  2  0  0  0  0  0  0
  181.3630  177.1110  137.6430 C   0  0  0  0  0  2  0  0  0  0  0  0
  184.7880  174.7330  136.7420 C   0  0  0  0  0  3  0  0  0  0  0  0
  183.9220  174.3680  137.7270 N   0  0  0  0  0  0  0  0  0  0  0  0
  184.5580  175.8910  135.9970 C   0  0  0  0  0  3  0  0  0  0  0  0
  182.5220  176.2510  137.2600 C   0  0  0  0  0  0  0  0  0  0  0  0
  183.4210  176.6580  136.2660 C   0  0  0  0  0  3  0  0  0  0  0  0
  182.8090  175.1010  138.0030 C   0  0  0  0  0  3  0  0  0  0  0  0
  189.4900  177.1350  143.9390 C   0  0  0  0  0  0  0  0  0  0  0  0
  189.8850  176.0590  143.3050 C   0  0  0  0  0  0  0  0  0  0  0  0
  190.2630  175.0390  142.7100 O   0  0  0  0  0  0  0  0  0  0  0  0
  191.1460  176.8670  146.1960 S   0  0  0  0  0  0  0  0  0  0  0  0
  188.7570  177.6410  146.2790 N   0  0  0  0  0  0  0  0  0  0  0  0
  190.5400  177.2320  147.7340 C   0  0  0  0  0  3  0  0  0  0  0  0
  189.7030  177.2240  145.3980 C   0  0  0  0  0  0  0  0  0  0  0  0
  189.2120  177.6500  147.5640 C   0  0  0  0  0  3  0  0  0  0  0  0
  1  6  2  0  0  0  0
  1 11  1  0  0  0  0
  2  7  1  0  0  0  0
  3 10  1  0  0  0  0
  3  5  2  0  0  0  0
  4 37  1  6  0  0  0
  5  7  1  0  0  0  0
  6  8  1  0  0  0  0
  7 13  1  0  0  0  0
  8  4  1  0  0  0  0
  8 12  1  0  0  0  0
  9  4  1  0  0  0  0
 10 14  1  1  0  0  0
 10  2  1  0  0  0  0
 11 12  2  0  0  0  0
 13  9  2  0  0  0  0
 13  6  1  0  0  0  0
 14 17  1  0  0  0  0
 15 16  1  0  0  0  0
 16 17  2  0  0  0  0
 16 20  1  0  0  0  0
 18 14  2  0  0  0  0
 19 18  1  0  0  0  0
 19 15  2  0  0  0  0
 21 15  1  0  0  0  0
 22 21  1  0  0  0  0
 23  1  1  0  0  0  0
 24 26  2  0  0  0  0
 25 28  1  0  0  0  0
 26 23  1  0  0  0  0
 27 25  2  0  0  0  0
 27 24  1  0  0  0  0
 28 23  2  0  0  0  0
 29 24  1  0  0  0  0
 30 29  1  0  0  0  0
 31 32  1  0  0  0  0
 32 36  2  0  0  0  0
 33 35  1  0  0  0  0
 33 31  2  0  0  0  0
 34 30  1  0  0  0  0
 34 36  1  0  0  0  0
 35 34  2  0  0  0  0
 37 43  1  0  0  0  0
 38 37  2  0  0  0  0
 39 38  2  0  0  0  0
 40 42  1  0  0  0  0
 41 44  1  0  0  0  0
 43 40  1  0  0  0  0
 43 41  2  0  0  0  0
 44 42  2  0  0  0  0
M  END
>  <MODEL>
1

>  <REMARK>
 VINA RESULT:      -8.7      0.000      0.000
  Name = 
  8 active torsions:
  status: ('A' for Active; 'I' for Inactive)
    1  A    between atoms: C_1  and  C_35
    2  A    between atoms: O_2  and  C_13
    3  A    between atoms: N_3  and  C_9
    4  A    between atoms: N_3  and  C_40
    5  A    between atoms: C_4  and  C_7
    6  A    between atoms: C_15  and  C_17
    7  A    between atoms: C_17  and  C_36
    8  A    between atoms: C_30  and  C_40
                            x       y       z     vdW  Elec       q    Type
                         _______ _______ _______ _____ _____    ______ ____

>  <TORSDO>
F 8

$$$$
=
 OpenBabel10222422003D

 44 50  0  0  1  0  0  0  0  0999 V2000
  186.2220  178.1510  138.9370 C   0  0  0  0  0  0  0  0  0  0  0  0
  189.4420  178.5770  142.4850 C   0  0  0  0  0  2  0  0  0  0  0  0
  190.4500  176.7870  141.1410 C   0  0  0  0  0  3  0  0  0  0  0  0
  185.1800  179.4580  141.9750 C   0  0  2  0  0  3  0  0  0  0  0  0
  189.0330  177.0300  140.6620 C   0  0  0  0  0  3  0  0  0  0  0  0
  186.2260  178.3520  140.3010 C   0  0  0  0  0  0  0  0  0  0  0  0
  188.5340  178.1470  141.4390 N   0  0  0  0  0  0  0  0  0  0  0  0
  185.0450  178.7630  140.7010 N   0  0  0  0  0  0  0  0  0  0  0  0
  186.5860  179.2310  142.3410 N   0  0  0  0  0  0  0  0  0  0  0  0
  190.7170  177.7790  142.2770 C   0  0  2  0  0  3  0  0  0  0  0  0
  184.9240  178.4620  138.5140 C   0  0  0  0  0  3  0  0  0  0  0  0
  184.2220  178.8880  139.6460 C   0  0  0  0  0  3  0  0  0  0  0  0
  187.1850  178.6190  141.3580 C   0  0  0  0  0  0  0  0  0  0  0  0
  191.1500  177.1150  143.5580 C   0  0  0  0  0  0  0  0  0  0  0  0
  191.9920  175.8180  145.9150 C   0  0  0  0  0  0  0  0  0  0  0  0
  192.0500  175.1490  144.6820 C   0  0  0  0  0  0  0  0  0  0  0  0
  191.6260  175.7950  143.5140 C   0  0  0  0  0  3  0  0  0  0  0  0
  191.1210  177.7980  144.7900 C   0  0  0  0  0  3  0  0  0  0  0  0
  191.5300  177.1510  145.9610 C   0  0  0  0  0  3  0  0  0  0  0  0
  192.5230  173.8450  144.6130 O   0  0  0  0  0  1  0  0  0  0  0  0
  192.4060  175.1480  147.0750 O   0  0  0  0  0  0  0  0  0  0  0  0
  192.7200  175.8310  148.2860 C   0  0  0  0  0  1  0  0  0  0  0  0
  187.3680  177.9610  138.0380 C   0  0  0  0  0  0  0  0  0  0  0  0
  188.7500  176.5400  136.6660 C   0  0  0  0  0  0  0  0  0  0  0  0
  189.1540  178.8790  136.8140 N   0  0  0  0  0  0  0  0  0  0  0  0
  187.6660  176.6930  137.5350 C   0  0  0  0  0  3  0  0  0  0  0  0
  189.4970  177.6620  136.3160 C   0  0  0  0  0  3  0  0  0  0  0  0
  188.1210  179.0250  137.6460 N   0  0  0  0  0  0  0  0  0  0  0  0
  189.1320  175.2560  136.1600 N   0  0  0  0  0  2  0  0  0  0  0  0
  189.7040  174.2180  137.0110 C   0  0  0  0  0  2  0  0  0  0  0  0
  193.9440  174.4770  137.4010 C   0  0  0  0  0  3  0  0  0  0  0  0
  193.3680  173.4780  136.6790 N   0  0  0  0  0  0  0  0  0  0  0  0
  193.1510  175.4480  138.0160 C   0  0  0  0  0  3  0  0  0  0  0  0
  191.1880  174.3710  137.0920 C   0  0  0  0  0  0  0  0  0  0  0  0
  191.7630  175.3860  137.8660 C   0  0  0  0  0  3  0  0  0  0  0  0
  192.0180  173.4010  136.5210 C   0  0  0  0  0  3  0  0  0  0  0  0
  184.2520  178.9370  143.0440 C   0  0  0  0  0  0  0  0  0  0  0  0
  182.9550  178.9150  142.8660 C   0  0  0  0  0  0  0  0  0  0  0  0
  181.7250  178.8910  142.7030 O   0  0  0  0  0  0  0  0  0  0  0  0
  186.1460  177.6340  144.6650 S   0  0  0  0  0  0  0  0  0  0  0  0
  184.2860  179.0760  145.5430 N   0  0  0  0  0  0  0  0  0  0  0  0
  186.0670  177.7940  146.3480 C   0  0  0  0  0  3  0  0  0  0  0  0
  184.7970  178.6050  144.3760 C   0  0  0  0  0  0  0  0  0  0  0  0
  184.9810  178.6360  146.6310 C   0  0  0  0  0  3  0  0  0  0  0  0
  1  6  2  0  0  0  0
  3 10  1  0  0  0  0
  4  9  1  0  0  0  0
  4 37  1  1  0  0  0
  5  3  2  0  0  0  0
  5  7  1  0  0  0  0
  6  8  1  0  0  0  0
  6 13  1  0  0  0  0
  7  2  1  0  0  0  0
  8  4  1  0  0  0  0
 10  2  1  0  0  0  0
 10 14  1  1  0  0  0
 11  1  1  0  0  0  0
 11 12  2  0  0  0  0
 12  8  1  0  0  0  0
 13  7  1  0  0  0  0
 13  9  2  0  0  0  0
 14 18  1  0  0  0  0
 15 19  1  0  0  0  0
 15 21  1  0  0  0  0
 16 15  2  0  0  0  0
 17 14  2  0  0  0  0
 17 16  1  0  0  0  0
 18 19  2  0  0  0  0
 20 16  1  0  0  0  0
 21 22  1  0  0  0  0
 23  1  1  0  0  0  0
 24 26  1  0  0  0  0
 25 28  2  0  0  0  0
 26 23  2  0  0  0  0
 27 24  2  0  0  0  0
 27 25  1  0  0  0  0
 28 23  1  0  0  0  0
 29 24  1  0  0  0  0
 29 30  1  0  0  0  0
 30 34  1  0  0  0  0
 31 33  1  0  0  0  0
 32 31  2  0  0  0  0
 34 35  1  0  0  0  0
 35 33  2  0  0  0  0
 36 32  1  0  0  0  0
 36 34  2  0  0  0  0
 37 43  1  0  0  0  0
 38 37  2  0  0  0  0
 39 38  2  0  0  0  0
 40 42  1  0  0  0  0
 41 44  1  0  0  0  0
 42 44  2  0  0  0  0
 43 40  1  0  0  0  0
 43 41  2  0  0  0  0
M  END
>  <MODEL>
2

>  <REMARK>
 VINA RESULT:      -8.6      3.066      6.999
  Name = 
  8 active torsions:
  status: ('A' for Active; 'I' for Inactive)
    1  A    between atoms: C_1  and  C_35
    2  A    between atoms: O_2  and  C_13
    3  A    between atoms: N_3  and  C_9
    4  A    between atoms: N_3  and  C_40
    5  A    between atoms: C_4  and  C_7
    6  A    between atoms: C_15  and  C_17
    7  A    between atoms: C_17  and  C_36
    8  A    between atoms: C_30  and  C_40
                            x       y       z     vdW  Elec       q    Type
                         _______ _______ _______ _____ _____    ______ ____

>  <TORSDO>
F 8

$$$$
=
 OpenBabel10222422003D

 44 50  0  0  1  0  0  0  0  0999 V2000
  188.3820  177.9770  140.5400 C   0  0  0  0  0  0  0  0  0  0  0  0
  192.8540  176.7110  139.3000 C   0  0  0  0  0  2  0  0  0  0  0  0
  191.5550  175.7230  137.4660 C   0  0  0  0  0  3  0  0  0  0  0  0
  190.7940  177.7640  143.0220 C   0  0  2  0  0  3  0  0  0  0  0  0
  190.6080  176.1690  138.5620 C   0  0  0  0  0  3  0  0  0  0  0  0
  189.5320  177.5340  141.1580 C   0  0  0  0  0  0  0  0  0  0  0  0
  191.4310  176.8130  139.5660 N   0  0  0  0  0  0  0  0  0  0  0  0
  189.4520  177.7270  142.4540 N   0  0  0  0  0  0  0  0  0  0  0  0
  191.6540  177.3830  141.8910 N   0  0  0  0  0  0  0  0  0  0  0  0
  192.9710  176.0850  137.9220 C   0  0  2  0  0  3  0  0  0  0  0  0
  187.5620  178.4570  141.5690 C   0  0  0  0  0  3  0  0  0  0  0  0
  188.2880  178.3270  142.7570 C   0  0  0  0  0  3  0  0  0  0  0  0
  190.9200  177.2810  140.8180 C   0  0  0  0  0  0  0  0  0  0  0  0
  193.9100  174.9060  137.9460 C   0  0  0  0  0  0  0  0  0  0  0  0
  195.6310  172.6740  137.9280 C   0  0  0  0  0  0  0  0  0  0  0  0
  194.4990  172.6980  137.0990 C   0  0  0  0  0  0  0  0  0  0  0  0
  193.6430  173.8080  137.1140 C   0  0  0  0  0  3  0  0  0  0  0  0
  195.0620  174.8960  138.7560 C   0  0  0  0  0  3  0  0  0  0  0  0
  195.9110  173.7850  138.7540 C   0  0  0  0  0  3  0  0  0  0  0  0
  194.2190  171.6250  136.2630 O   0  0  0  0  0  1  0  0  0  0  0  0
  196.4660  171.5490  137.9100 O   0  0  0  0  0  0  0  0  0  0  0  0
  197.6290  171.4670  137.0880 C   0  0  0  0  0  1  0  0  0  0  0  0
  188.1450  178.2080  139.1090 C   0  0  0  0  0  0  0  0  0  0  0  0
  186.9250  177.7520  137.0800 C   0  0  0  0  0  0  0  0  0  0  0  0
  188.6480  179.3910  137.1390 N   0  0  0  0  0  0  0  0  0  0  0  0
  187.1450  177.5010  138.4370 C   0  0  0  0  0  3  0  0  0  0  0  0
  187.7030  178.7120  136.4370 C   0  0  0  0  0  3  0  0  0  0  0  0
  188.8600  179.1490  138.4340 N   0  0  0  0  0  0  0  0  0  0  0  0
  185.9490  177.0210  136.3300 N   0  0  0  0  0  2  0  0  0  0  0  0
  186.3150  176.0690  135.2870 C   0  0  0  0  0  2  0  0  0  0  0  0
  187.7710  172.5620  137.2310 C   0  0  0  0  0  3  0  0  0  0  0  0
  186.4570  172.9090  137.3050 N   0  0  0  0  0  0  0  0  0  0  0  0
  188.6650  173.3470  136.4990 C   0  0  0  0  0  3  0  0  0  0  0  0
  186.8270  174.8040  135.8930 C   0  0  0  0  0  0  0  0  0  0  0  0
  188.1880  174.4800  135.8350 C   0  0  0  0  0  3  0  0  0  0  0  0
  185.9740  174.0080  136.6640 C   0  0  0  0  0  3  0  0  0  0  0  0
  190.9790  176.8200  144.1840 C   0  0  0  0  0  0  0  0  0  0  0  0
  191.6180  175.6860  144.0430 C   0  0  0  0  0  0  0  0  0  0  0  0
  192.2240  174.6110  143.9170 O   0  0  0  0  0  0  0  0  0  0  0  0
  190.9560  176.9220  146.9950 S   0  0  0  0  0  0  0  0  0  0  0  0
  189.0080  177.5570  145.5410 N   0  0  0  0  0  0  0  0  0  0  0  0
  189.5610  177.4310  147.8080 C   0  0  0  0  0  3  0  0  0  0  0  0
  190.2820  177.0950  145.4580 C   0  0  0  0  0  0  0  0  0  0  0  0
  188.6060  177.7460  146.8300 C   0  0  0  0  0  3  0  0  0  0  0  0
  1  6  2  0  0  0  0
  1 11  1  0  0  0  0
  2  7  1  0  0  0  0
  3 10  1  0  0  0  0
  3  5  2  0  0  0  0
  4 37  1  1  0  0  0
  5  7  1  0  0  0  0
  6  8  1  0  0  0  0
  7 13  1  0  0  0  0
  8 12  1  0  0  0  0
  8  4  1  0  0  0  0
  9  4  1  0  0  0  0
 10 14  1  1  0  0  0
 10  2  1  0  0  0  0
 11 12  2  0  0  0  0
 13  6  1  0  0  0  0
 13  9  2  0  0  0  0
 14 18  1  0  0  0  0
 15 19  1  0  0  0  0
 16 17  1  0  0  0  0
 16 15  2  0  0  0  0
 17 14  2  0  0  0  0
 19 18  2  0  0  0  0
 20 16  1  0  0  0  0
 21 15  1  0  0  0  0
 22 21  1  0  0  0  0
 23  1  1  0  0  0  0
 24 26  2  0  0  0  0
 25 28  1  0  0  0  0
 26 23  1  0  0  0  0
 27 24  1  0  0  0  0
 27 25  2  0  0  0  0
 28 23  2  0  0  0  0
 29 24  1  0  0  0  0
 30 34  1  0  0  0  0
 30 29  1  0  0  0  0
 31 32  1  0  0  0  0
 33 31  2  0  0  0  0
 34 36  1  0  0  0  0
 35 34  2  0  0  0  0
 35 33  1  0  0  0  0
 36 32  2  0  0  0  0
 37 43  1  0  0  0  0
 38 37  2  0  0  0  0
 39 38  2  0  0  0  0
 40 42  1  0  0  0  0
 41 44  1  0  0  0  0
 43 41  2  0  0  0  0
 43 40  1  0  0  0  0
 44 42  2  0  0  0  0
M  END
>  <MODEL>
3

>  <REMARK>
 VINA RESULT:      -8.6      2.792      4.078
  Name = 
  8 active torsions:
  status: ('A' for Active; 'I' for Inactive)
    1  A    between atoms: C_1  and  C_35
    2  A    between atoms: O_2  and  C_13
    3  A    between atoms: N_3  and  C_9
    4  A    between atoms: N_3  and  C_40
    5  A    between atoms: C_4  and  C_7
    6  A    between atoms: C_15  and  C_17
    7  A    between atoms: C_17  and  C_36
    8  A    between atoms: C_30  and  C_40
                            x       y       z     vdW  Elec       q    Type
                         _______ _______ _______ _____ _____    ______ ____

>  <TORSDO>
F 8

$$$$
=
 OpenBabel10222422003D

 44 50  0  0  1  0  0  0  0  0999 V2000
  188.1170  178.1430  138.1060 C   0  0  0  0  0  0  0  0  0  0  0  0
  189.2420  176.0030  142.2640 C   0  0  0  0  0  2  0  0  0  0  0  0
  187.9360  177.9250  143.0570 C   0  0  0  0  0  3  0  0  0  0  0  0
  190.9300  176.1180  138.2210 C   0  0  2  0  0  3  0  0  0  0  0  0
  188.2520  178.1110  141.5860 C   0  0  0  0  0  3  0  0  0  0  0  0
  189.2020  177.5070  138.6720 C   0  0  0  0  0  0  0  0  0  0  0  0
  188.9460  176.9100  141.1710 N   0  0  0  0  0  0  0  0  0  0  0  0
  190.0840  177.2060  137.7480 N   0  0  0  0  0  0  0  0  0  0  0  0
  190.5240  175.9560  139.6260 N   0  0  0  0  0  0  0  0  0  0  0  0
  188.5420  176.5840  143.4800 C   0  0  2  0  0  3  0  0  0  0  0  0
  188.4030  178.2270  136.7370 C   0  0  0  0  0  3  0  0  0  0  0  0
  189.6300  177.5840  136.5410 C   0  0  0  0  0  3  0  0  0  0  0  0
  189.5100  176.7400  139.8660 C   0  0  0  0  0  0  0  0  0  0  0  0
  189.4920  176.6990  144.6430 C   0  0  0  0  0  0  0  0  0  0  0  0
  191.2120  176.9220  146.8660 C   0  0  0  0  0  0  0  0  0  0  0  0
  189.8450  177.2140  146.9990 C   0  0  0  0  0  0  0  0  0  0  0  0
  188.9950  177.1070  145.8910 C   0  0  0  0  0  3  0  0  0  0  0  0
  190.8580  176.3770  144.5150 C   0  0  0  0  0  3  0  0  0  0  0  0
  191.7130  176.4970  145.6160 C   0  0  0  0  0  3  0  0  0  0  0  0
  189.3290  177.6120  148.2260 O   0  0  0  0  0  1  0  0  0  0  0  0
  192.0490  177.0510  147.9830 O   0  0  0  0  0  0  0  0  0  0  0  0
  192.8190  175.9660  148.4950 C   0  0  0  0  0  1  0  0  0  0  0  0
  186.8010  178.4100  138.7000 C   0  0  0  0  0  0  0  0  0  0  0  0
  184.3930  178.3220  138.6010 C   0  0  0  0  0  0  0  0  0  0  0  0
  185.5180  179.1690  140.5190 N   0  0  0  0  0  0  0  0  0  0  0  0
  185.6350  178.0760  138.0080 C   0  0  0  0  0  3  0  0  0  0  0  0
  184.3550  178.8830  139.8760 C   0  0  0  0  0  3  0  0  0  0  0  0
  186.7030  178.9380  139.9500 N   0  0  0  0  0  0  0  0  0  0  0  0
  183.1660  178.0460  137.9170 N   0  0  0  0  0  2  0  0  0  0  0  0
  181.8750  178.5190  138.4040 C   0  0  0  0  0  2  0  0  0  0  0  0
  180.6420  182.2130  136.6640 C   0  0  0  0  0  3  0  0  0  0  0  0
  181.2080  182.1770  137.9010 N   0  0  0  0  0  0  0  0  0  0  0  0
  180.4690  181.0350  135.9350 C   0  0  0  0  0  3  0  0  0  0  0  0
  181.5110  179.8090  137.7460 C   0  0  0  0  0  0  0  0  0  0  0  0
  180.8990  179.8250  136.4870 C   0  0  0  0  0  3  0  0  0  0  0  0
  181.6350  181.0090  138.4550 C   0  0  0  0  0  3  0  0  0  0  0  0
  192.4050  176.4160  138.1160 C   0  0  0  0  0  0  0  0  0  0  0  0
  193.0590  176.9650  139.1070 C   0  0  0  0  0  0  0  0  0  0  0  0
  193.6860  177.4830  140.0440 O   0  0  0  0  0  0  0  0  0  0  0  0
  192.5030  175.3370  135.5190 S   0  0  0  0  0  0  0  0  0  0  0  0
  194.2660  176.8380  136.4950 N   0  0  0  0  0  0  0  0  0  0  0  0
  193.8170  175.6860  134.5120 C   0  0  0  0  0  3  0  0  0  0  0  0
  193.0860  176.2460  136.8160 C   0  0  0  0  0  0  0  0  0  0  0  0
  194.6720  176.5360  135.2290 C   0  0  0  0  0  3  0  0  0  0  0  0
  1  6  2  0  0  0  0
  1 23  1  0  0  0  0
  2 10  1  0  0  0  0
  3 10  1  0  0  0  0
  4 37  1  1  0  0  0
  4  9  1  0  0  0  0
  5  3  2  0  0  0  0
  6 13  1  0  0  0  0
  7  5  1  0  0  0  0
  7  2  1  0  0  0  0
  8  4  1  0  0  0  0
  8  6  1  0  0  0  0
  9 13  2  0  0  0  0
 10 14  1  1  0  0  0
 11  1  1  0  0  0  0
 12 11  2  0  0  0  0
 12  8  1  0  0  0  0
 13  7  1  0  0  0  0
 14 17  1  0  0  0  0
 15 16  1  0  0  0  0
 15 21  1  0  0  0  0
 16 20  1  0  0  0  0
 17 16  2  0  0  0  0
 18 14  2  0  0  0  0
 18 19  1  0  0  0  0
 19 15  2  0  0  0  0
 21 22  1  0  0  0  0
 23 28  1  0  0  0  0
 24 27  2  0  0  0  0
 26 24  1  0  0  0  0
 26 23  2  0  0  0  0
 27 25  1  0  0  0  0
 28 25  2  0  0  0  0
 29 30  1  0  0  0  0
 29 24  1  0  0  0  0
 31 32  1  0  0  0  0
 32 36  2  0  0  0  0
 33 35  1  0  0  0  0
 33 31  2  0  0  0  0
 34 30  1  0  0  0  0
 34 36  1  0  0  0  0
 35 34  2  0  0  0  0
 37 38  2  0  0  0  0
 38 39  2  0  0  0  0
 40 43  1  0  0  0  0
 41 43  2  0  0  0  0
 42 44  2  0  0  0  0
 42 40  1  0  0  0  0
 43 37  1  0  0  0  0
 44 41  1  0  0  0  0
M  END
>  <MODEL>
4

>  <REMARK>
 VINA RESULT:      -8.2      3.008      7.558
  Name = 
  8 active torsions:
  status: ('A' for Active; 'I' for Inactive)
    1  A    between atoms: C_1  and  C_35
    2  A    between atoms: O_2  and  C_13
    3  A    between atoms: N_3  and  C_9
    4  A    between atoms: N_3  and  C_40
    5  A    between atoms: C_4  and  C_7
    6  A    between atoms: C_15  and  C_17
    7  A    between atoms: C_17  and  C_36
    8  A    between atoms: C_30  and  C_40
                            x       y       z     vdW  Elec       q    Type
                         _______ _______ _______ _____ _____    ______ ____

>  <TORSDO>
F 8

$$$$
=
 OpenBabel10222422003D

 44 50  0  0  1  0  0  0  0  0999 V2000
  191.0910  177.2640  141.0640 C   0  0  0  0  0  0  0  0  0  0  0  0
  186.6770  179.1690  140.9190 C   0  0  0  0  0  2  0  0  0  0  0  0
  186.6680  178.1150  143.1370 C   0  0  0  0  0  3  0  0  0  0  0  0
  189.6430  177.8600  137.9700 C   0  0  2  0  0  3  0  0  0  0  0  0
  187.8820  177.6400  142.3660 C   0  0  0  0  0  3  0  0  0  0  0  0
  190.0720  177.4260  140.1480 C   0  0  0  0  0  0  0  0  0  0  0  0
  187.8670  178.3610  141.1090 N   0  0  0  0  0  0  0  0  0  0  0  0
  190.5160  177.2020  138.9330 N   0  0  0  0  0  0  0  0  0  0  0  0
  188.5270  178.3450  138.7970 N   0  0  0  0  0  0  0  0  0  0  0  0
  185.9170  179.0980  142.2320 C   0  0  2  0  0  3  0  0  0  0  0  0
  192.2180  176.9050  140.3130 C   0  0  0  0  0  3  0  0  0  0  0  0
  191.8300  176.9220  138.9690 C   0  0  0  0  0  3  0  0  0  0  0  0
  188.7990  178.1150  140.0510 C   0  0  0  0  0  0  0  0  0  0  0  0
  184.4790  178.7160  142.0010 C   0  0  0  0  0  0  0  0  0  0  0  0
  181.7670  178.0390  141.6310 C   0  0  0  0  0  0  0  0  0  0  0  0
  182.1990  178.5800  142.8520 C   0  0  0  0  0  0  0  0  0  0  0  0
  183.5480  178.9100  143.0340 C   0  0  0  0  0  3  0  0  0  0  0  0
  184.0410  178.2020  140.7640 C   0  0  0  0  0  3  0  0  0  0  0  0
  182.6970  177.8570  140.5840 C   0  0  0  0  0  3  0  0  0  0  0  0
  181.2950  178.7870  143.8860 O   0  0  0  0  0  1  0  0  0  0  0  0
  180.4160  177.7000  141.4740 O   0  0  0  0  0  0  0  0  0  0  0  0
  179.9820  176.6510  140.6110 C   0  0  0  0  0  1  0  0  0  0  0  0
  191.1240  177.6680  142.4750 C   0  0  0  0  0  0  0  0  0  0  0  0
  191.2310  177.1130  144.8190 C   0  0  0  0  0  0  0  0  0  0  0  0
  191.2030  179.3770  144.0900 N   0  0  0  0  0  0  0  0  0  0  0  0
  191.1810  176.7030  143.4830 C   0  0  0  0  0  3  0  0  0  0  0  0
  191.2360  178.4760  145.1070 C   0  0  0  0  0  3  0  0  0  0  0  0
  191.1520  178.9850  142.8150 N   0  0  0  0  0  0  0  0  0  0  0  0
  191.2380  176.1670  145.8940 N   0  0  0  0  0  2  0  0  0  0  0  0
  190.9460  176.5460  147.2720 C   0  0  0  0  0  2  0  0  0  0  0  0
  187.0850  178.3130  147.6860 C   0  0  0  0  0  3  0  0  0  0  0  0
  188.0730  178.5700  148.5870 N   0  0  0  0  0  0  0  0  0  0  0  0
  187.3280  177.4730  146.5980 C   0  0  0  0  0  3  0  0  0  0  0  0
  189.6140  177.2170  147.3560 C   0  0  0  0  0  0  0  0  0  0  0  0
  188.5990  176.9160  146.4390 C   0  0  0  0  0  3  0  0  0  0  0  0
  189.3180  178.0380  148.4490 C   0  0  0  0  0  3  0  0  0  0  0  0
  189.1490  176.9400  136.8820 C   0  0  0  0  0  0  0  0  0  0  0  0
  189.9700  176.4320  135.9970 C   0  0  0  0  0  0  0  0  0  0  0  0
  190.7430  175.9470  135.1570 O   0  0  0  0  0  0  0  0  0  0  0  0
  186.7010  177.6650  135.7000 S   0  0  0  0  0  0  0  0  0  0  0  0
  186.9830  175.7600  137.3140 N   0  0  0  0  0  0  0  0  0  0  0  0
  185.2970  176.7970  136.0720 C   0  0  0  0  0  3  0  0  0  0  0  0
  187.6960  176.7430  136.7040 C   0  0  0  0  0  0  0  0  0  0  0  0
  185.6640  175.7820  136.9690 C   0  0  0  0  0  3  0  0  0  0  0  0
  1 23  1  0  0  0  0
  2  7  1  0  0  0  0
  2 10  1  0  0  0  0
  4 37  1  6  0  0  0
  4  9  1  0  0  0  0
  4  8  1  0  0  0  0
  5  3  2  0  0  0  0
  6  1  2  0  0  0  0
  7  5  1  0  0  0  0
  8 12  1  0  0  0  0
  8  6  1  0  0  0  0
  9 13  2  0  0  0  0
 10 14  1  6  0  0  0
 10  3  1  0  0  0  0
 11  1  1  0  0  0  0
 12 11  2  0  0  0  0
 13  6  1  0  0  0  0
 13  7  1  0  0  0  0
 14 17  1  0  0  0  0
 15 16  1  0  0  0  0
 16 17  2  0  0  0  0
 16 20  1  0  0  0  0
 18 14  2  0  0  0  0
 19 18  1  0  0  0  0
 19 15  2  0  0  0  0
 21 15  1  0  0  0  0
 22 21  1  0  0  0  0
 23 28  2  0  0  0  0
 23 26  1  0  0  0  0
 24 27  1  0  0  0  0
 24 29  1  0  0  0  0
 25 27  2  0  0  0  0
 26 24  2  0  0  0  0
 28 25  1  0  0  0  0
 29 30  1  0  0  0  0
 30 34  1  0  0  0  0
 31 32  1  0  0  0  0
 33 31  2  0  0  0  0
 34 36  1  0  0  0  0
 35 33  1  0  0  0  0
 35 34  2  0  0  0  0
 36 32  2  0  0  0  0
 38 37  2  0  0  0  0
 39 38  2  0  0  0  0
 40 42  1  0  0  0  0
 40 43  1  0  0  0  0
 42 44  2  0  0  0  0
 43 37  1  0  0  0  0
 43 41  2  0  0  0  0
 44 41  1  0  0  0  0
M  END
>  <MODEL>
5

>  <REMARK>
 VINA RESULT:      -8.2      3.322      9.445
  Name = 
  8 active torsions:
  status: ('A' for Active; 'I' for Inactive)
    1  A    between atoms: C_1  and  C_35
    2  A    between atoms: O_2  and  C_13
    3  A    between atoms: N_3  and  C_9
    4  A    between atoms: N_3  and  C_40
    5  A    between atoms: C_4  and  C_7
    6  A    between atoms: C_15  and  C_17
    7  A    between atoms: C_17  and  C_36
    8  A    between atoms: C_30  and  C_40
                            x       y       z     vdW  Elec       q    Type
                         _______ _______ _______ _____ _____    ______ ____

>  <TORSDO>
F 8

$$$$
=
 OpenBabel10222422003D

 44 50  0  0  1  0  0  0  0  0999 V2000
  188.5290  177.8560  140.6280 C   0  0  0  0  0  0  0  0  0  0  0  0
  193.0460  176.8180  139.3420 C   0  0  0  0  0  2  0  0  0  0  0  0
  191.7850  175.8600  137.4660 C   0  0  0  0  0  3  0  0  0  0  0  0
  190.9480  177.6300  143.1030 C   0  0  2  0  0  3  0  0  0  0  0  0
  190.8220  176.2220  138.5780 C   0  0  0  0  0  3  0  0  0  0  0  0
  189.6960  177.4320  141.2290 C   0  0  0  0  0  0  0  0  0  0  0  0
  191.6200  176.8530  139.6090 N   0  0  0  0  0  0  0  0  0  0  0  0
  189.6080  177.5660  142.5320 N   0  0  0  0  0  0  0  0  0  0  0  0
  191.8220  177.3310  141.9570 N   0  0  0  0  0  0  0  0  0  0  0  0
  193.1870  176.2560  137.9380 C   0  0  2  0  0  3  0  0  0  0  0  0
  187.6920  178.2600  141.6760 C   0  0  0  0  0  3  0  0  0  0  0  0
  188.4230  178.1070  142.8590 C   0  0  0  0  0  3  0  0  0  0  0  0
  191.0920  177.2480  140.8800 C   0  0  0  0  0  0  0  0  0  0  0  0
  194.1700  175.1150  137.9120 C   0  0  0  0  0  0  0  0  0  0  0  0
  195.9870  172.9630  137.7940 C   0  0  0  0  0  0  0  0  0  0  0  0
  194.9930  173.1020  136.8120 C   0  0  0  0  0  0  0  0  0  0  0  0
  194.0890  174.1710  136.8770 C   0  0  0  0  0  3  0  0  0  0  0  0
  195.1860  174.9930  138.8820 C   0  0  0  0  0  3  0  0  0  0  0  0
  196.0810  173.9200  138.8280 C   0  0  0  0  0  3  0  0  0  0  0  0
  194.8990  172.1840  135.7750 O   0  0  0  0  0  1  0  0  0  0  0  0
  196.8710  171.8780  137.7200 O   0  0  0  0  0  0  0  0  0  0  0  0
  198.1430  171.9650  137.0810 C   0  0  0  0  0  1  0  0  0  0  0  0
  188.2830  178.1400  139.2090 C   0  0  0  0  0  0  0  0  0  0  0  0
  187.1390  177.6680  137.1390 C   0  0  0  0  0  0  0  0  0  0  0  0
  188.6750  179.4760  137.3130 N   0  0  0  0  0  0  0  0  0  0  0  0
  187.3720  177.3680  138.4840 C   0  0  0  0  0  3  0  0  0  0  0  0
  187.8160  178.7400  136.5610 C   0  0  0  0  0  3  0  0  0  0  0  0
  188.8990  179.1870  138.5970 N   0  0  0  0  0  0  0  0  0  0  0  0
  186.2550  176.8790  136.3350 N   0  0  0  0  0  2  0  0  0  0  0  0
  184.8890  176.5730  136.7450 C   0  0  0  0  0  2  0  0  0  0  0  0
  184.2750  172.3930  137.3400 C   0  0  0  0  0  3  0  0  0  0  0  0
  183.2280  173.2250  137.0830 N   0  0  0  0  0  0  0  0  0  0  0  0
  185.5760  172.8970  137.3970 C   0  0  0  0  0  3  0  0  0  0  0  0
  184.7030  175.0960  136.8760 C   0  0  0  0  0  0  0  0  0  0  0  0
  185.7870  174.2600  137.1720 C   0  0  0  0  0  3  0  0  0  0  0  0
  183.4140  174.5550  136.8610 C   0  0  0  0  0  3  0  0  0  0  0  0
  191.1700  176.6450  144.2230 C   0  0  0  0  0  0  0  0  0  0  0  0
  191.6050  175.4330  143.9860 C   0  0  0  0  0  0  0  0  0  0  0  0
  192.0180  174.2840  143.7690 O   0  0  0  0  0  0  0  0  0  0  0  0
  189.1680  177.4720  146.0190 S   0  0  0  0  0  0  0  0  0  0  0  0
  191.5300  176.9330  146.6840 N   0  0  0  0  0  0  0  0  0  0  0  0
  189.5290  177.6390  147.6640 C   0  0  0  0  0  3  0  0  0  0  0  0
  190.7280  176.9920  145.5900 C   0  0  0  0  0  0  0  0  0  0  0  0
  190.8770  177.2850  147.8280 C   0  0  0  0  0  3  0  0  0  0  0  0
  1  6  2  0  0  0  0
  1 11  1  0  0  0  0
  2  7  1  0  0  0  0
  3 10  1  0  0  0  0
  3  5  2  0  0  0  0
  4 37  1  1  0  0  0
  5  7  1  0  0  0  0
  6  8  1  0  0  0  0
  7 13  1  0  0  0  0
  8 12  1  0  0  0  0
  8  4  1  0  0  0  0
  9  4  1  0  0  0  0
 10 14  1  1  0  0  0
 10  2  1  0  0  0  0
 11 12  2  0  0  0  0
 13  6  1  0  0  0  0
 13  9  2  0  0  0  0
 14 18  1  0  0  0  0
 15 19  1  0  0  0  0
 16 17  1  0  0  0  0
 16 15  2  0  0  0  0
 17 14  2  0  0  0  0
 19 18  2  0  0  0  0
 20 16  1  0  0  0  0
 21 15  1  0  0  0  0
 22 21  1  0  0  0  0
 23  1  1  0  0  0  0
 24 26  1  0  0  0  0
 25 28  2  0  0  0  0
 26 23  2  0  0  0  0
 27 24  2  0  0  0  0
 27 25  1  0  0  0  0
 28 23  1  0  0  0  0
 29 30  1  0  0  0  0
 29 24  1  0  0  0  0
 30 34  1  0  0  0  0
 31 33  1  0  0  0  0
 32 31  2  0  0  0  0
 34 35  1  0  0  0  0
 35 33  2  0  0  0  0
 36 34  2  0  0  0  0
 36 32  1  0  0  0  0
 37 43  1  0  0  0  0
 38 37  2  0  0  0  0
 39 38  2  0  0  0  0
 40 42  1  0  0  0  0
 41 44  1  0  0  0  0
 42 44  2  0  0  0  0
 43 40  1  0  0  0  0
 43 41  2  0  0  0  0
M  END
>  <MODEL>
6

>  <REMARK>
 VINA RESULT:      -8.2      2.569      3.946
  Name = 
  8 active torsions:
  status: ('A' for Active; 'I' for Inactive)
    1  A    between atoms: C_1  and  C_35
    2  A    between atoms: O_2  and  C_13
    3  A    between atoms: N_3  and  C_9
    4  A    between atoms: N_3  and  C_40
    5  A    between atoms: C_4  and  C_7
    6  A    between atoms: C_15  and  C_17
    7  A    between atoms: C_17  and  C_36
    8  A    between atoms: C_30  and  C_40
                            x       y       z     vdW  Elec       q    Type
                         _______ _______ _______ _____ _____    ______ ____

>  <TORSDO>
F 8

$$$$
=
 OpenBabel10222422003D

 44 50  0  0  1  0  0  0  0  0999 V2000
  188.2460  177.8410  137.8940 C   0  0  0  0  0  0  0  0  0  0  0  0
  189.3960  175.8220  142.1050 C   0  0  0  0  0  2  0  0  0  0  0  0
  187.9620  177.6740  142.8420 C   0  0  0  0  0  3  0  0  0  0  0  0
  191.1680  175.9850  138.1000 C   0  0  2  0  0  3  0  0  0  0  0  0
  188.3010  177.8600  141.3760 C   0  0  0  0  0  3  0  0  0  0  0  0
  189.3520  177.2760  138.4930 C   0  0  0  0  0  0  0  0  0  0  0  0
  189.0740  176.6960  140.9930 N   0  0  0  0  0  0  0  0  0  0  0  0
  190.2710  177.0160  137.5930 N   0  0  0  0  0  0  0  0  0  0  0  0
  190.7390  175.8170  139.4970 N   0  0  0  0  0  0  0  0  0  0  0  0
  188.6350  176.3760  143.2970 C   0  0  2  0  0  3  0  0  0  0  0  0
  188.5580  177.9250  136.5310 C   0  0  0  0  0  3  0  0  0  0  0  0
  189.8240  177.3520  136.3710 C   0  0  0  0  0  3  0  0  0  0  0  0
  189.6760  176.5440  139.7030 C   0  0  0  0  0  0  0  0  0  0  0  0
  189.5500  176.5610  144.4790 C   0  0  0  0  0  0  0  0  0  0  0  0
  191.2010  176.9100  146.7370 C   0  0  0  0  0  0  0  0  0  0  0  0
  189.8150  177.1050  146.8400 C   0  0  0  0  0  0  0  0  0  0  0  0
  188.9980  176.9360  145.7140 C   0  0  0  0  0  3  0  0  0  0  0  0
  190.9380  176.3350  144.3820 C   0  0  0  0  0  3  0  0  0  0  0  0
  191.7580  176.5180  145.5000 C   0  0  0  0  0  3  0  0  0  0  0  0
  189.2460  177.4700  148.0540 O   0  0  0  0  0  1  0  0  0  0  0  0
  192.0030  177.1010  147.8710 O   0  0  0  0  0  0  0  0  0  0  0  0
  192.7670  176.0490  148.4580 C   0  0  0  0  0  1  0  0  0  0  0  0
  186.9030  178.0380  138.4540 C   0  0  0  0  0  0  0  0  0  0  0  0
  185.4550  178.8270  140.2140 C   0  0  0  0  0  0  0  0  0  0  0  0
  184.5680  177.8800  138.2190 N   0  0  0  0  0  0  0  0  0  0  0  0
  186.7440  178.6320  139.7080 C   0  0  0  0  0  3  0  0  0  0  0  0
  184.3620  178.4330  139.4440 C   0  0  0  0  0  3  0  0  0  0  0  0
  185.7990  177.6920  137.7390 N   0  0  0  0  0  0  0  0  0  0  0  0
  185.2340  179.3830  141.5140 N   0  0  0  0  0  2  0  0  0  0  0  0
  184.0000  179.1640  142.2610 C   0  0  0  0  0  2  0  0  0  0  0  0
  184.8520  178.5330  146.3930 C   0  0  0  0  0  3  0  0  0  0  0  0
  183.5840  178.7890  145.9710 N   0  0  0  0  0  0  0  0  0  0  0  0
  185.8980  178.4580  145.4710 C   0  0  0  0  0  3  0  0  0  0  0  0
  184.3040  178.8610  143.6910 C   0  0  0  0  0  0  0  0  0  0  0  0
  185.6200  178.6330  144.1130 C   0  0  0  0  0  3  0  0  0  0  0  0
  183.2930  178.9610  144.6520 C   0  0  0  0  0  3  0  0  0  0  0  0
  192.6250  176.3670  138.0230 C   0  0  0  0  0  0  0  0  0  0  0  0
  193.2260  176.9540  139.0270 C   0  0  0  0  0  0  0  0  0  0  0  0
  193.8030  177.5110  139.9740 O   0  0  0  0  0  0  0  0  0  0  0  0
  192.8580  175.2600  135.4480 S   0  0  0  0  0  0  0  0  0  0  0  0
  194.4750  176.9140  136.4280 N   0  0  0  0  0  0  0  0  0  0  0  0
  194.1570  175.6990  134.4570 C   0  0  0  0  0  3  0  0  0  0  0  0
  193.3420  176.2330  136.7380 C   0  0  0  0  0  0  0  0  0  0  0  0
  194.9280  176.6270  135.1740 C   0  0  0  0  0  3  0  0  0  0  0  0
  1 23  1  0  0  0  0
  1  6  2  0  0  0  0
  2 10  1  0  0  0  0
  3 10  1  0  0  0  0
  4 37  1  1  0  0  0
  4  9  1  0  0  0  0
  5  3  2  0  0  0  0
  6 13  1  0  0  0  0
  7  5  1  0  0  0  0
  7  2  1  0  0  0  0
  8  4  1  0  0  0  0
  8  6  1  0  0  0  0
  9 13  2  0  0  0  0
 10 14  1  1  0  0  0
 11  1  1  0  0  0  0
 12 11  2  0  0  0  0
 12  8  1  0  0  0  0
 13  7  1  0  0  0  0
 14 17  1  0  0  0  0
 15 16  1  0  0  0  0
 15 21  1  0  0  0  0
 16 20  1  0  0  0  0
 17 16  2  0  0  0  0
 18 14  2  0  0  0  0
 18 19  1  0  0  0  0
 19 15  2  0  0  0  0
 21 22  1  0  0  0  0
 23 26  1  0  0  0  0
 24 29  1  0  0  0  0
 25 27  2  0  0  0  0
 26 24  2  0  0  0  0
 27 24  1  0  0  0  0
 28 25  1  0  0  0  0
 28 23  2  0  0  0  0
 29 30  1  0  0  0  0
 30 34  1  0  0  0  0
 32 31  1  0  0  0  0
 33 31  2  0  0  0  0
 34 35  2  0  0  0  0
 34 36  1  0  0  0  0
 35 33  1  0  0  0  0
 36 32  2  0  0  0  0
 37 38  2  0  0  0  0
 38 39  2  0  0  0  0
 40 43  1  0  0  0  0
 41 43  2  0  0  0  0
 42 44  2  0  0  0  0
 42 40  1  0  0  0  0
 43 37  1  0  0  0  0
 44 41  1  0  0  0  0
M  END
>  <MODEL>
7

>  <REMARK>
 VINA RESULT:      -8.2      2.997      8.005
  Name = 
  8 active torsions:
  status: ('A' for Active; 'I' for Inactive)
    1  A    between atoms: C_1  and  C_35
    2  A    between atoms: O_2  and  C_13
    3  A    between atoms: N_3  and  C_9
    4  A    between atoms: N_3  and  C_40
    5  A    between atoms: C_4  and  C_7
    6  A    between atoms: C_15  and  C_17
    7  A    between atoms: C_17  and  C_36
    8  A    between atoms: C_30  and  C_40
                            x       y       z     vdW  Elec       q    Type
                         _______ _______ _______ _____ _____    ______ ____

>  <TORSDO>
F 8

$$$$
=
 OpenBabel10222422003D

 44 50  0  0  1  0  0  0  0  0999 V2000
  188.0310  178.1350  138.0970 C   0  0  0  0  0  0  0  0  0  0  0  0
  189.1750  176.0370  142.2700 C   0  0  0  0  0  2  0  0  0  0  0  0
  187.8260  177.9350  143.0470 C   0  0  0  0  0  3  0  0  0  0  0  0
  190.8820  176.1670  138.2360 C   0  0  2  0  0  3  0  0  0  0  0  0
  188.1460  178.1210  141.5780 C   0  0  0  0  0  3  0  0  0  0  0  0
  189.1240  177.5230  138.6720 C   0  0  0  0  0  0  0  0  0  0  0  0
  188.8670  176.9320  141.1710 N   0  0  0  0  0  0  0  0  0  0  0  0
  190.0170  177.2360  137.7530 N   0  0  0  0  0  0  0  0  0  0  0  0
  190.4710  176.0040  139.6400 N   0  0  0  0  0  0  0  0  0  0  0  0
  188.4570  176.6080  143.4800 C   0  0  2  0  0  3  0  0  0  0  0  0
  188.3220  178.2190  136.7290 C   0  0  0  0  0  3  0  0  0  0  0  0
  189.5620  177.6000  136.5420 C   0  0  0  0  0  3  0  0  0  0  0  0
  189.4410  176.7680  139.8700 C   0  0  0  0  0  0  0  0  0  0  0  0
  189.3980  176.7480  144.6480 C   0  0  0  0  0  0  0  0  0  0  0  0
  191.1010  177.0160  146.8790 C   0  0  0  0  0  0  0  0  0  0  0  0
  189.7290  177.2880  147.0010 C   0  0  0  0  0  0  0  0  0  0  0  0
  188.8870  177.1590  145.8890 C   0  0  0  0  0  3  0  0  0  0  0  0
  190.7700  176.4450  144.5310 C   0  0  0  0  0  3  0  0  0  0  0  0
  191.6160  176.5860  145.6360 C   0  0  0  0  0  3  0  0  0  0  0  0
  189.2000  177.6900  148.2210 O   0  0  0  0  0  1  0  0  0  0  0  0
  191.9290  177.1670  147.9990 O   0  0  0  0  0  0  0  0  0  0  0  0
  192.7320  176.1050  148.5110 C   0  0  0  0  0  1  0  0  0  0  0  0
  186.7060  178.3780  138.6830 C   0  0  0  0  0  0  0  0  0  0  0  0
  184.3260  177.9940  138.7300 C   0  0  0  0  0  0  0  0  0  0  0  0
  185.3820  179.3820  140.3480 N   0  0  0  0  0  0  0  0  0  0  0  0
  185.5740  177.7630  138.1440 C   0  0  0  0  0  3  0  0  0  0  0  0
  184.2490  178.8240  139.8460 C   0  0  0  0  0  3  0  0  0  0  0  0
  186.5730  179.1630  139.7860 N   0  0  0  0  0  0  0  0  0  0  0  0
  183.1260  177.4300  138.1890 N   0  0  0  0  0  2  0  0  0  0  0  0
  182.4420  176.3010  138.8100 C   0  0  0  0  0  2  0  0  0  0  0  0
  182.7150  172.6950  136.5480 C   0  0  0  0  0  3  0  0  0  0  0  0
  181.5090  173.2670  136.8100 N   0  0  0  0  0  0  0  0  0  0  0  0
  183.8910  173.2930  137.0060 C   0  0  0  0  0  3  0  0  0  0  0  0
  182.5630  175.0840  137.9530 C   0  0  0  0  0  0  0  0  0  0  0  0
  183.8100  174.4910  137.7210 C   0  0  0  0  0  3  0  0  0  0  0  0
  181.4090  174.4340  137.5040 C   0  0  0  0  0  3  0  0  0  0  0  0
  192.3510  176.4940  138.1370 C   0  0  0  0  0  0  0  0  0  0  0  0
  192.9810  177.0950  139.1150 C   0  0  0  0  0  0  0  0  0  0  0  0
  193.5840  177.6630  140.0380 O   0  0  0  0  0  0  0  0  0  0  0  0
  192.4910  175.3440  135.5740 S   0  0  0  0  0  0  0  0  0  0  0  0
  194.2370  176.8740  136.5350 N   0  0  0  0  0  0  0  0  0  0  0  0
  193.8210  175.6680  134.5770 C   0  0  0  0  0  3  0  0  0  0  0  0
  193.0530  176.2900  136.8530 C   0  0  0  0  0  0  0  0  0  0  0  0
  194.6640  176.5380  135.2840 C   0  0  0  0  0  3  0  0  0  0  0  0
  1  6  2  0  0  0  0
  1 23  1  0  0  0  0
  2 10  1  0  0  0  0
  3 10  1  0  0  0  0
  4 37  1  1  0  0  0
  4  9  1  0  0  0  0
  5  3  2  0  0  0  0
  6 13  1  0  0  0  0
  7  5  1  0  0  0  0
  7  2  1  0  0  0  0
  8  4  1  0  0  0  0
  8  6  1  0  0  0  0
  9 13  2  0  0  0  0
 10 14  1  1  0  0  0
 11  1  1  0  0  0  0
 12 11  2  0  0  0  0
 12  8  1  0  0  0  0
 13  7  1  0  0  0  0
 14 17  1  0  0  0  0
 15 16  1  0  0  0  0
 15 21  1  0  0  0  0
 16 20  1  0  0  0  0
 17 16  2  0  0  0  0
 18 14  2  0  0  0  0
 18 19  1  0  0  0  0
 19 15  2  0  0  0  0
 21 22  1  0  0  0  0
 23 28  1  0  0  0  0
 24 27  2  0  0  0  0
 26 23  2  0  0  0  0
 26 24  1  0  0  0  0
 27 25  1  0  0  0  0
 28 25  2  0  0  0  0
 29 24  1  0  0  0  0
 29 30  1  0  0  0  0
 31 32  2  0  0  0  0
 31 33  1  0  0  0  0
 32 36  1  0  0  0  0
 33 35  2  0  0  0  0
 34 30  1  0  0  0  0
 35 34  1  0  0  0  0
 36 34  2  0  0  0  0
 37 38  2  0  0  0  0
 38 39  2  0  0  0  0
 40 43  1  0  0  0  0
 41 43  2  0  0  0  0
 42 44  2  0  0  0  0
 42 40  1  0  0  0  0
 43 37  1  0  0  0  0
 44 41  1  0  0  0  0
M  END
>  <MODEL>
8

>  <REMARK>
 VINA RESULT:      -8.0      2.834      7.211
  Name = 
  8 active torsions:
  status: ('A' for Active; 'I' for Inactive)
    1  A    between atoms: C_1  and  C_35
    2  A    between atoms: O_2  and  C_13
    3  A    between atoms: N_3  and  C_9
    4  A    between atoms: N_3  and  C_40
    5  A    between atoms: C_4  and  C_7
    6  A    between atoms: C_15  and  C_17
    7  A    between atoms: C_17  and  C_36
    8  A    between atoms: C_30  and  C_40
                            x       y       z     vdW  Elec       q    Type
                         _______ _______ _______ _____ _____    ______ ____

>  <TORSDO>
F 8

$$$$
=
 OpenBabel10222422003D

 44 50  0  0  1  0  0  0  0  0999 V2000
  186.0440  177.5150  137.6420 C   0  0  0  0  0  0  0  0  0  0  0  0
  188.6110  178.7870  141.5050 C   0  0  0  0  0  2  0  0  0  0  0  0
  189.9490  176.9190  140.6390 C   0  0  0  0  0  3  0  0  0  0  0  0
  184.4350  179.1640  140.2340 C   0  0  2  0  0  3  0  0  0  0  0  0
  188.6130  176.9470  139.9240 C   0  0  0  0  0  3  0  0  0  0  0  0
  185.8130  177.9220  138.9390 C   0  0  0  0  0  0  0  0  0  0  0  0
  187.9170  178.1160  140.4230 N   0  0  0  0  0  0  0  0  0  0  0  0
  184.5570  178.2720  139.0870 N   0  0  0  0  0  0  0  0  0  0  0  0
  185.7770  179.1320  140.8350 N   0  0  0  0  0  0  0  0  0  0  0  0
  189.9570  178.0930  141.6230 C   0  0  2  0  0  3  0  0  0  0  0  0
  184.8110  177.6310  136.9860 C   0  0  0  0  0  3  0  0  0  0  0  0
  183.9080  178.1560  137.9160 C   0  0  0  0  0  3  0  0  0  0  0  0
  186.5680  178.4370  140.0660 C   0  0  0  0  0  0  0  0  0  0  0  0
  190.2250  177.6770  143.0460 C   0  0  0  0  0  0  0  0  0  0  0  0
  190.6530  176.9130  145.7250 C   0  0  0  0  0  0  0  0  0  0  0  0
  189.4600  177.5550  145.3560 C   0  0  0  0  0  0  0  0  0  0  0  0
  189.2530  177.9370  144.0240 C   0  0  0  0  0  3  0  0  0  0  0  0
  191.4100  177.0060  143.4090 C   0  0  0  0  0  3  0  0  0  0  0  0
  191.6260  176.6360  144.7400 C   0  0  0  0  0  3  0  0  0  0  0  0
  188.4810  177.8160  146.3060 O   0  0  0  0  0  1  0  0  0  0  0  0
  190.8470  176.5530  147.0660 O   0  0  0  0  0  0  0  0  0  0  0  0
  191.9810  175.8070  147.5050 C   0  0  0  0  0  1  0  0  0  0  0  0
  187.3300  177.3020  136.9660 C   0  0  0  0  0  0  0  0  0  0  0  0
  189.0090  175.8290  136.0570 C   0  0  0  0  0  0  0  0  0  0  0  0
  189.2240  178.1920  135.8920 N   0  0  0  0  0  0  0  0  0  0  0  0
  187.7900  176.0070  136.7190 C   0  0  0  0  0  3  0  0  0  0  0  0
  189.7250  176.9520  135.6500 C   0  0  0  0  0  3  0  0  0  0  0  0
  188.0620  178.3620  136.5270 N   0  0  0  0  0  0  0  0  0  0  0  0
  189.5520  174.5250  135.8240 N   0  0  0  0  0  2  0  0  0  0  0  0
  190.2020  173.7490  136.8750 C   0  0  0  0  0  2  0  0  0  0  0  0
  194.4140  174.3840  137.1040 C   0  0  0  0  0  3  0  0  0  0  0  0
  193.8980  173.3820  136.3400 N   0  0  0  0  0  0  0  0  0  0  0  0
  193.5660  175.2340  137.8160 C   0  0  0  0  0  3  0  0  0  0  0  0
  191.6670  174.0360  136.9040 C   0  0  0  0  0  0  0  0  0  0  0  0
  192.1840  175.0500  137.7200 C   0  0  0  0  0  3  0  0  0  0  0  0
  192.5550  173.1880  136.2340 C   0  0  0  0  0  3  0  0  0  0  0  0
  183.3870  178.7240  141.2260 C   0  0  0  0  0  0  0  0  0  0  0  0
  182.1550  178.4880  140.8520 C   0  0  0  0  0  0  0  0  0  0  0  0
  180.9860  178.2610  140.5040 O   0  0  0  0  0  0  0  0  0  0  0  0
  182.6470  179.1630  143.9040 S   0  0  0  0  0  0  0  0  0  0  0  0
  184.9070  178.3380  143.1780 N   0  0  0  0  0  0  0  0  0  0  0  0
  183.7620  178.8730  145.1440 C   0  0  0  0  0  3  0  0  0  0  0  0
  183.7090  178.7250  142.6670 C   0  0  0  0  0  0  0  0  0  0  0  0
  184.9420  178.4140  144.5380 C   0  0  0  0  0  3  0  0  0  0  0  0
  1  6  2  0  0  0  0
  2 10  1  0  0  0  0
  3 10  1  0  0  0  0
  4  9  1  0  0  0  0
  4 37  1  1  0  0  0
  5  7  1  0  0  0  0
  5  3  2  0  0  0  0
  6  8  1  0  0  0  0
  6 13  1  0  0  0  0
  7  2  1  0  0  0  0
  8  4  1  0  0  0  0
 10 14  1  1  0  0  0
 11  1  1  0  0  0  0
 11 12  2  0  0  0  0
 12  8  1  0  0  0  0
 13  7  1  0  0  0  0
 13  9  2  0  0  0  0
 14 18  2  0  0  0  0
 14 17  1  0  0  0  0
 15 21  1  0  0  0  0
 16 15  1  0  0  0  0
 16 20  1  0  0  0  0
 17 16  2  0  0  0  0
 18 19  1  0  0  0  0
 19 15  2  0  0  0  0
 21 22  1  0  0  0  0
 23  1  1  0  0  0  0
 24 26  2  0  0  0  0
 25 28  1  0  0  0  0
 26 23  1  0  0  0  0
 27 25  2  0  0  0  0
 27 24  1  0  0  0  0
 28 23  2  0  0  0  0
 29 24  1  0  0  0  0
 29 30  1  0  0  0  0
 30 34  1  0  0  0  0
 31 33  1  0  0  0  0
 32 31  2  0  0  0  0
 34 35  1  0  0  0  0
 35 33  2  0  0  0  0
 36 32  1  0  0  0  0
 36 34  2  0  0  0  0
 37 43  1  0  0  0  0
 38 37  2  0  0  0  0
 39 38  2  0  0  0  0
 40 42  1  0  0  0  0
 41 44  1  0  0  0  0
 43 41  2  0  0  0  0
 43 40  1  0  0  0  0
 44 42  2  0  0  0  0
M  END
>  <MODEL>
9

>  <REMARK>
 VINA RESULT:      -8.0      3.433      7.555
  Name = 
  8 active torsions:
  status: ('A' for Active; 'I' for Inactive)
    1  A    between atoms: C_1  and  C_35
    2  A    between atoms: O_2  and  C_13
    3  A    between atoms: N_3  and  C_9
    4  A    between atoms: N_3  and  C_40
    5  A    between atoms: C_4  and  C_7
    6  A    between atoms: C_15  and  C_17
    7  A    between atoms: C_17  and  C_36
    8  A    between atoms: C_30  and  C_40
                            x       y       z     vdW  Elec       q    Type
                         _______ _______ _______ _____ _____    ______ ____

>  <TORSDO>
F 8

$$$$
