=
 OpenBabel10222422113D

 29 31  0  0  1  0  0  0  0  0999 V2000
  189.9370  177.6980  142.2970 N   0  0  0  0  0  0  0  0  0  0  0  0
  187.6900  178.2770  141.5670 C   0  0  0  0  0  3  0  0  0  0  0  0
  188.8630  178.6330  142.0770 C   0  0  0  0  0  2  0  0  0  0  0  0
  186.6720  179.2540  141.3760 N   0  0  0  0  0  0  0  0  0  0  0  0
  184.8790  179.6820  139.9470 O   0  0  0  0  0  1  0  0  0  0  0  0
  185.3320  178.8580  140.9770 C   0  0  2  0  0  3  0  0  0  0  0  0
  184.4100  178.9500  142.1440 C   0  0  0  0  0  0  0  0  0  0  0  0
  184.8250  179.5990  143.3000 O   0  0  0  0  0  1  0  0  0  0  0  0
  183.2520  178.4570  142.0840 O   0  0  0  0  0  0  0  0  0  0  0  0
  191.1380  177.7410  141.5020 C   0  0  0  0  0  3  0  0  0  0  0  0
  191.2720  177.3030  140.2440 C   0  0  0  0  0  3  0  0  0  0  0  0
  190.1790  176.7220  139.4130 C   0  0  0  0  0  2  0  0  0  0  0  0
  189.0520  179.0450  137.2420 C   0  0  0  0  0  2  0  0  0  0  0  0
  189.6000  177.7690  137.1100 N   0  0  0  0  0  0  0  0  0  0  0  0
  189.6940  177.7390  138.4410 C   0  0  0  0  0  0  0  0  0  0  0  0
  189.1170  179.0530  138.5890 O   0  0  0  0  0  0  0  0  0  0  0  0
  189.8120  176.5990  143.2210 C   0  0  0  0  0  0  0  0  0  0  0  0
  189.5550  175.3780  142.7520 C   0  0  0  0  0  2  0  0  0  0  0  0
  188.0460  177.8980  147.6980 C   0  0  0  0  0  0  0  0  0  0  0  0
  190.3450  177.2920  147.3780 N   0  0  0  0  0  0  0  0  0  0  0  0
  186.5660  177.8400  145.7960 C   0  0  0  0  0  3  0  0  0  0  0  0
  186.7730  178.0740  147.1560 C   0  0  0  0  0  3  0  0  0  0  0  0
  191.1540  176.6700  145.2580 N   0  0  0  0  0  0  0  0  0  0  0  0
  191.3650  176.8840  146.5830 C   0  0  0  0  0  3  0  0  0  0  0  0
  188.2570  178.1300  149.0870 N   0  0  0  0  0  1  0  0  0  0  0  0
  187.6000  177.4460  145.0050 N   0  0  0  0  0  0  0  0  0  0  0  0
  188.8580  177.2710  145.4990 C   0  0  0  0  0  0  0  0  0  0  0  0
  189.1010  177.4890  146.8720 C   0  0  0  0  0  0  0  0  0  0  0  0
  189.9340  176.8540  144.6820 C   0  0  0  0  0  0  0  0  0  0  0  0
  1 17  1  0  0  0  0
  2  3  1  0  0  0  0
  3  1  1  0  0  0  0
  4  2  2  0  0  0  0
  6  5  1  6  0  0  0
  6  4  1  0  0  0  0
  6  7  1  0  0  0  0
  7  8  1  0  0  0  0
  9  7  2  0  0  0  0
 10  1  1  0  0  0  0
 11 10  2  0  0  0  0
 12 11  1  0  0  0  0
 13 16  1  0  0  0  0
 14 13  1  0  0  0  0
 14 15  2  0  0  0  0
 15 16  1  0  0  0  0
 15 12  1  0  0  0  0
 17 29  1  0  0  0  0
 18 17  2  0  0  0  0
 19 25  1  0  0  0  0
 21 22  2  0  0  0  0
 22 19  1  0  0  0  0
 23 24  1  0  0  0  0
 24 20  2  0  0  0  0
 26 27  2  0  0  0  0
 26 21  1  0  0  0  0
 27 28  1  0  0  0  0
 28 20  1  0  0  0  0
 28 19  2  0  0  0  0
 29 23  2  0  0  0  0
 29 27  1  0  0  0  0
M  END
>  <MODEL>
1

>  <REMARK>
 VINA RESULT:      -7.5      0.000      0.000
  Name = 
  9 active torsions:
  status: ('A' for Active; 'I' for Inactive)
    1  A    between atoms: C_1  and  N_17
    2  A    between atoms: N_2  and  C_9
    3  A    between atoms: N_2  and  C_24
    4  A    between atoms: N_2  and  C_28
    5  A    between atoms: C_4  and  C_25
    6  A    between atoms: C_10  and  C_12
    7  A    between atoms: C_10  and  C_23
    8  A    between atoms: N_17  and  C_25
    9  A    between atoms: C_24  and  C_26
                            x       y       z     vdW  Elec       q    Type
                         _______ _______ _______ _____ _____    ______ ____

>  <TORSDO>
F 9

$$$$
=
 OpenBabel10222422113D

 29 32  0  0  1  0  0  0  0  0999 V2000
  189.9980  177.6800  142.3360 N   0  0  0  0  0  0  0  0  0  0  0  0
  189.4500  177.8490  139.9710 C   0  0  0  0  0  3  0  0  0  0  0  0
  190.3460  177.6800  140.9380 C   0  0  0  0  0  2  0  0  0  0  0  0
  189.8640  177.8370  138.6090 N   0  0  0  0  0  0  0  0  0  0  0  0
  188.9410  179.7280  137.6030 O   0  0  0  0  0  1  0  0  0  0  0  0
  188.9840  178.3340  137.5650 C   0  0  2  0  0  3  0  0  0  0  0  0
  187.6130  177.7790  137.7540 C   0  0  0  0  0  0  0  0  0  0  0  0
  186.5710  178.6250  138.1110 O   0  0  0  0  0  1  0  0  0  0  0  0
  187.3910  176.5520  137.5780 O   0  0  0  0  0  0  0  0  0  0  0  0
  190.7460  178.4550  143.2920 C   0  0  0  0  0  3  0  0  0  0  0  0
  191.5100  177.9720  144.2790 C   0  0  0  0  0  3  0  0  0  0  0  0
  191.7610  176.5260  144.5460 C   0  0  0  0  0  2  0  0  0  0  0  0
  192.1600  175.9930  147.8540 C   0  0  2  0  0  3  0  0  0  0  0  0
  191.7050  177.0650  147.0850 N   0  0  0  0  0  2  0  0  0  0  0  0
  191.9390  176.3110  146.0080 C   0  0  1  0  0  0  0  0  0  0  0  0
  192.3990  175.1930  146.7950 O   0  0  0  0  0  0  0  0  0  0  0  0
  188.9780  176.8090  142.8650 C   0  0  0  0  0  0  0  0  0  0  0  0
  189.1610  175.4890  142.8250 C   0  0  0  0  0  2  0  0  0  0  0  0
  185.9850  178.3220  146.5540 C   0  0  0  0  0  0  0  0  0  0  0  0
  185.3340  178.4960  144.2510 N   0  0  0  0  0  0  0  0  0  0  0  0
  188.1590  177.4170  147.0680 C   0  0  0  0  0  3  0  0  0  0  0  0
  186.9480  177.9600  147.4960 C   0  0  0  0  0  3  0  0  0  0  0  0
  186.7680  177.7880  142.5260 N   0  0  0  0  0  0  0  0  0  0  0  0
  185.5890  178.3280  142.9300 C   0  0  0  0  0  3  0  0  0  0  0  0
  184.7510  178.8840  146.9890 N   0  0  0  0  0  1  0  0  0  0  0  0
  188.3980  177.2390  145.7410 N   0  0  0  0  0  0  0  0  0  0  0  0
  187.4780  177.5740  144.7930 C   0  0  0  0  0  0  0  0  0  0  0  0
  186.2460  178.1350  145.1900 C   0  0  0  0  0  0  0  0  0  0  0  0
  187.7250  177.3970  143.4130 C   0  0  0  0  0  0  0  0  0  0  0  0
  1 17  1  0  0  0  0
  1 10  1  0  0  0  0
  2  3  1  0  0  0  0
  3  1  1  0  0  0  0
  4  2  2  0  0  0  0
  6  5  1  1  0  0  0
  6  7  1  0  0  0  0
  6  4  1  0  0  0  0
  7  8  1  0  0  0  0
  9  7  2  0  0  0  0
 10 11  2  0  0  0  0
 11 12  1  0  0  0  0
 13 16  1  1  0  0  0
 14 13  1  0  0  0  0
 15 12  1  6  0  0  0
 15 16  1  0  0  0  0
 15 14  1  0  0  0  0
 15 13  1  0  0  0  0
 17 29  1  0  0  0  0
 18 17  2  0  0  0  0
 19 25  1  0  0  0  0
 19 22  1  0  0  0  0
 20 28  1  0  0  0  0
 21 22  2  0  0  0  0
 23 24  1  0  0  0  0
 23 29  2  0  0  0  0
 24 20  2  0  0  0  0
 26 21  1  0  0  0  0
 27 28  1  0  0  0  0
 27 26  2  0  0  0  0
 28 19  2  0  0  0  0
 29 27  1  0  0  0  0
M  END
>  <MODEL>
2

>  <REMARK>
 VINA RESULT:      -7.5      2.438      5.208
  Name = 
  9 active torsions:
  status: ('A' for Active; 'I' for Inactive)
    1  A    between atoms: C_1  and  N_17
    2  A    between atoms: N_2  and  C_9
    3  A    between atoms: N_2  and  C_24
    4  A    between atoms: N_2  and  C_28
    5  A    between atoms: C_4  and  C_25
    6  A    between atoms: C_10  and  C_12
    7  A    between atoms: C_10  and  C_23
    8  A    between atoms: N_17  and  C_25
    9  A    between atoms: C_24  and  C_26
                            x       y       z     vdW  Elec       q    Type
                         _______ _______ _______ _____ _____    ______ ____

>  <TORSDO>
F 9

$$$$
=
 OpenBabel10222422113D

 29 31  0  0  1  0  0  0  0  0999 V2000
  189.3540  178.0370  142.5930 N   0  0  0  0  0  0  0  0  0  0  0  0
  188.0890  178.2870  140.5300 C   0  0  0  0  0  3  0  0  0  0  0  0
  189.2500  178.1500  141.1600 C   0  0  0  0  0  3  0  0  0  0  0  0
  188.0590  178.3920  139.1100 N   0  0  0  0  0  2  0  0  0  0  0  0
  189.0310  179.7220  137.4590 O   0  0  0  0  0  1  0  0  0  0  0  0
  189.2700  178.6880  138.3650 C   0  0  2  0  0  3  0  0  0  0  0  0
  189.7240  177.4690  137.6360 C   0  0  0  0  0  0  0  0  0  0  0  0
  190.9560  176.9050  137.9370 O   0  0  0  0  0  1  0  0  0  0  0  0
  188.9900  176.9400  136.7590 O   0  0  0  0  0  0  0  0  0  0  0  0
  190.3250  178.8010  143.3340 C   0  0  0  0  0  3  0  0  0  0  0  0
  191.3420  178.3080  144.0500 C   0  0  0  0  0  3  0  0  0  0  0  0
  191.6840  176.8620  144.1800 C   0  0  0  0  0  2  0  0  0  0  0  0
  191.7330  175.9500  147.4270 C   0  0  0  0  0  2  0  0  0  0  0  0
  191.1280  176.9830  146.7120 N   0  0  0  0  0  0  0  0  0  0  0  0
  191.7020  176.4790  145.6180 C   0  0  0  0  0  0  0  0  0  0  0  0
  192.3230  175.4000  146.3460 O   0  0  0  0  0  0  0  0  0  0  0  0
  188.5930  177.0650  143.3360 C   0  0  0  0  0  0  0  0  0  0  0  0
  188.7900  175.7670  143.1080 C   0  0  0  0  0  2  0  0  0  0  0  0
  184.0970  178.7730  144.6490 C   0  0  0  0  0  0  0  0  0  0  0  0
  185.8140  178.3700  146.2740 N   0  0  0  0  0  0  0  0  0  0  0  0
  184.5730  178.3040  142.3320 C   0  0  0  0  0  3  0  0  0  0  0  0
  183.6850  178.7420  143.3160 C   0  0  0  0  0  3  0  0  0  0  0  0
  187.9250  177.5510  145.6330 N   0  0  0  0  0  0  0  0  0  0  0  0
  187.0670  177.9640  146.6010 C   0  0  0  0  0  3  0  0  0  0  0  0
  183.1900  179.2130  145.6550 N   0  0  0  0  0  1  0  0  0  0  0  0
  185.8310  177.9140  142.6710 N   0  0  0  0  0  0  0  0  0  0  0  0
  186.2690  177.9390  143.9610 C   0  0  0  0  0  0  0  0  0  0  0  0
  185.3950  178.3660  144.9830 C   0  0  0  0  0  0  0  0  0  0  0  0
  187.5730  177.5280  144.3180 C   0  0  0  0  0  0  0  0  0  0  0  0
  1 10  1  0  0  0  0
  1 17  1  0  0  0  0
  2  3  2  0  0  0  0
  3  1  1  0  0  0  0
  4  2  1  0  0  0  0
  6  5  1  6  0  0  0
  6  4  1  0  0  0  0
  7  8  1  0  0  0  0
  7  6  1  0  0  0  0
  9  7  2  0  0  0  0
 10 11  2  0  0  0  0
 11 12  1  0  0  0  0
 12 15  1  0  0  0  0
 14 13  1  0  0  0  0
 15 16  1  0  0  0  0
 15 14  2  0  0  0  0
 16 13  1  0  0  0  0
 17 29  1  0  0  0  0
 18 17  2  0  0  0  0
 19 28  1  0  0  0  0
 19 25  1  0  0  0  0
 20 24  1  0  0  0  0
 21 26  2  0  0  0  0
 21 22  1  0  0  0  0
 22 19  2  0  0  0  0
 23 24  2  0  0  0  0
 26 27  1  0  0  0  0
 27 29  2  0  0  0  0
 27 28  1  0  0  0  0
 28 20  2  0  0  0  0
 29 23  1  0  0  0  0
M  END
>  <MODEL>
3

>  <REMARK>
 VINA RESULT:      -7.4      2.629      5.417
  Name = 
  9 active torsions:
  status: ('A' for Active; 'I' for Inactive)
    1  A    between atoms: C_1  and  N_17
    2  A    between atoms: N_2  and  C_9
    3  A    between atoms: N_2  and  C_24
    4  A    between atoms: N_2  and  C_28
    5  A    between atoms: C_4  and  C_25
    6  A    between atoms: C_10  and  C_12
    7  A    between atoms: C_10  and  C_23
    8  A    between atoms: N_17  and  C_25
    9  A    between atoms: C_24  and  C_26
                            x       y       z     vdW  Elec       q    Type
                         _______ _______ _______ _____ _____    ______ ____

>  <TORSDO>
F 9

$$$$
=
 OpenBabel10222422113D

 29 31  0  0  1  0  0  0  0  0999 V2000
  189.7860  177.9720  142.7070 N   0  0  0  0  0  0  0  0  0  0  0  0
  191.4520  177.2040  141.1090 C   0  0  0  0  0  3  0  0  0  0  0  0
  190.4810  178.0450  141.4470 C   0  0  0  0  0  3  0  0  0  0  0  0
  192.0980  177.3340  139.8470 N   0  0  0  0  0  2  0  0  0  0  0  0
  190.6770  175.6520  139.0800 O   0  0  0  0  0  1  0  0  0  0  0  0
  191.6010  176.6200  138.6840 C   0  0  2  0  0  3  0  0  0  0  0  0
  192.7360  175.9740  137.9650 C   0  0  0  0  0  0  0  0  0  0  0  0
  193.8060  176.7470  137.5330 O   0  0  0  0  0  0  0  0  0  0  0  0
  192.7370  174.7310  137.7600 O   0  0  0  0  0  1  0  0  0  0  0  0
  190.2930  178.6380  143.8790 C   0  0  0  0  0  3  0  0  0  0  0  0
  191.0620  178.0940  144.8300 C   0  0  0  0  0  3  0  0  0  0  0  0
  191.5730  176.6930  144.8280 C   0  0  0  0  0  2  0  0  0  0  0  0
  192.3600  175.7240  147.9620 C   0  0  0  0  0  2  0  0  0  0  0  0
  191.8070  176.8780  147.4060 N   0  0  0  0  0  0  0  0  0  0  0  0
  191.9220  176.2850  146.2160 C   0  0  0  0  0  0  0  0  0  0  0  0
  192.4830  175.0830  146.7820 O   0  0  0  0  0  0  0  0  0  0  0  0
  188.6330  177.1270  142.8910 C   0  0  0  0  0  0  0  0  0  0  0  0
  188.7950  175.8050  142.9530 C   0  0  0  0  0  2  0  0  0  0  0  0
  184.5870  178.7390  145.3170 C   0  0  0  0  0  0  0  0  0  0  0  0
  184.7670  178.8890  142.9290 N   0  0  0  0  0  0  0  0  0  0  0  0
  186.4360  177.8090  146.5530 C   0  0  0  0  0  3  0  0  0  0  0  0
  185.1620  178.3770  146.5360 C   0  0  0  0  0  3  0  0  0  0  0  0
  186.6920  178.1340  141.8060 N   0  0  0  0  0  0  0  0  0  0  0  0
  185.4570  178.6980  141.7780 C   0  0  0  0  0  3  0  0  0  0  0  0
  183.2900  179.3260  145.2980 N   0  0  0  0  0  1  0  0  0  0  0  0
  187.1110  177.6070  145.3900 N   0  0  0  0  0  0  0  0  0  0  0  0
  186.5780  177.9430  144.1820 C   0  0  0  0  0  0  0  0  0  0  0  0
  185.2960  178.5280  144.1270 C   0  0  0  0  0  0  0  0  0  0  0  0
  187.2800  177.7420  142.9710 C   0  0  0  0  0  0  0  0  0  0  0  0
  1 17  1  0  0  0  0
  1 10  1  0  0  0  0
  2  3  2  0  0  0  0
  3  1  1  0  0  0  0
  4  2  1  0  0  0  0
  6  5  1  1  0  0  0
  6  4  1  0  0  0  0
  7  6  1  0  0  0  0
  8  7  2  0  0  0  0
  9  7  1  0  0  0  0
 10 11  2  0  0  0  0
 12 11  1  0  0  0  0
 12 15  1  0  0  0  0
 14 13  1  0  0  0  0
 15 16  1  0  0  0  0
 15 14  2  0  0  0  0
 16 13  1  0  0  0  0
 17 18  2  0  0  0  0
 17 29  1  0  0  0  0
 19 22  1  0  0  0  0
 20 28  1  0  0  0  0
 22 21  2  0  0  0  0
 23 29  2  0  0  0  0
 24 23  1  0  0  0  0
 24 20  2  0  0  0  0
 25 19  1  0  0  0  0
 26 21  1  0  0  0  0
 27 26  2  0  0  0  0
 28 27  1  0  0  0  0
 28 19  2  0  0  0  0
 29 27  1  0  0  0  0
M  END
>  <MODEL>
4

>  <REMARK>
 VINA RESULT:      -7.4      3.207      6.488
  Name = 
  9 active torsions:
  status: ('A' for Active; 'I' for Inactive)
    1  A    between atoms: C_1  and  N_17
    2  A    between atoms: N_2  and  C_9
    3  A    between atoms: N_2  and  C_24
    4  A    between atoms: N_2  and  C_28
    5  A    between atoms: C_4  and  C_25
    6  A    between atoms: C_10  and  C_12
    7  A    between atoms: C_10  and  C_23
    8  A    between atoms: N_17  and  C_25
    9  A    between atoms: C_24  and  C_26
                            x       y       z     vdW  Elec       q    Type
                         _______ _______ _______ _____ _____    ______ ____

>  <TORSDO>
F 9

$$$$
=
 OpenBabel10222422113D

 29 32  0  0  1  0  0  0  0  0999 V2000
  190.1110  177.6700  142.4640 N   0  0  0  0  0  0  0  0  0  0  0  0
  187.9180  178.2000  141.5520 C   0  0  0  0  0  3  0  0  0  0  0  0
  189.0640  178.5910  142.1000 C   0  0  0  0  0  3  0  0  0  0  0  0
  186.9260  179.1640  141.2160 N   0  0  0  0  0  2  0  0  0  0  0  0
  185.4720  177.9360  142.5640 O   0  0  0  0  0  1  0  0  0  0  0  0
  185.6070  179.1100  141.8220 C   0  0  2  0  0  3  0  0  0  0  0  0
  184.5610  179.1620  140.7610 C   0  0  0  0  0  0  0  0  0  0  0  0
  184.8410  179.7790  139.5490 O   0  0  0  0  0  0  0  0  0  0  0  0
  183.4320  178.6380  140.9520 O   0  0  0  0  0  1  0  0  0  0  0  0
  191.3970  177.7080  141.8140 C   0  0  0  0  0  3  0  0  0  0  0  0
  191.6690  177.2890  140.5730 C   0  0  0  0  0  3  0  0  0  0  0  0
  190.6730  176.7380  139.6100 C   0  0  0  0  0  2  0  0  0  0  0  0
  192.2820  175.1380  137.1140 C   0  0  2  0  0  3  0  0  0  0  0  0
  191.2570  174.7930  137.9940 N   0  0  0  0  0  2  0  0  0  0  0  0
  191.3780  176.0150  138.5180 C   0  0  1  0  0  0  0  0  0  0  0  0
  192.4310  176.3850  137.6040 O   0  0  0  0  0  0  0  0  0  0  0  0
  189.8850  176.5900  143.3900 C   0  0  0  0  0  0  0  0  0  0  0  0
  189.5610  175.3850  142.9220 C   0  0  0  0  0  2  0  0  0  0  0  0
  188.0520  177.9370  147.8260 C   0  0  0  0  0  0  0  0  0  0  0  0
  190.3450  177.2870  147.5560 N   0  0  0  0  0  0  0  0  0  0  0  0
  186.6110  177.8990  145.8930 C   0  0  0  0  0  3  0  0  0  0  0  0
  186.7930  178.1340  147.2570 C   0  0  0  0  0  3  0  0  0  0  0  0
  191.1860  176.6430  145.4550 N   0  0  0  0  0  0  0  0  0  0  0  0
  191.3730  176.8570  146.7830 C   0  0  0  0  0  3  0  0  0  0  0  0
  188.2380  178.1690  149.2180 N   0  0  0  0  0  1  0  0  0  0  0  0
  187.6530  177.4830  145.1250 N   0  0  0  0  0  0  0  0  0  0  0  0
  188.8970  177.2870  145.6460 C   0  0  0  0  0  0  0  0  0  0  0  0
  189.1160  177.5050  147.0230 C   0  0  0  0  0  0  0  0  0  0  0  0
  189.9810  176.8470  144.8530 C   0  0  0  0  0  0  0  0  0  0  0  0
  1 17  1  0  0  0  0
  2  3  2  0  0  0  0
  3  1  1  0  0  0  0
  4  2  1  0  0  0  0
  4  6  1  0  0  0  0
  6  5  1  6  0  0  0
  7  9  1  0  0  0  0
  7  6  1  0  0  0  0
  8  7  2  0  0  0  0
 10  1  1  0  0  0  0
 11 10  2  0  0  0  0
 12 11  1  0  0  0  0
 13 16  1  6  0  0  0
 13 14  1  0  0  0  0
 13 15  1  0  0  0  0
 14 15  1  0  0  0  0
 15 12  1  1  0  0  0
 16 15  1  0  0  0  0
 17 29  1  0  0  0  0
 18 17  2  0  0  0  0
 19 25  1  0  0  0  0
 21 22  2  0  0  0  0
 22 19  1  0  0  0  0
 23 24  1  0  0  0  0
 24 20  2  0  0  0  0
 26 27  2  0  0  0  0
 26 21  1  0  0  0  0
 27 28  1  0  0  0  0
 28 20  1  0  0  0  0
 28 19  2  0  0  0  0
 29 23  2  0  0  0  0
 29 27  1  0  0  0  0
M  END
>  <MODEL>
5

>  <REMARK>
 VINA RESULT:      -7.2      1.404      1.789
  Name = 
  9 active torsions:
  status: ('A' for Active; 'I' for Inactive)
    1  A    between atoms: C_1  and  N_17
    2  A    between atoms: N_2  and  C_9
    3  A    between atoms: N_2  and  C_24
    4  A    between atoms: N_2  and  C_28
    5  A    between atoms: C_4  and  C_25
    6  A    between atoms: C_10  and  C_12
    7  A    between atoms: C_10  and  C_23
    8  A    between atoms: N_17  and  C_25
    9  A    between atoms: C_24  and  C_26
                            x       y       z     vdW  Elec       q    Type
                         _______ _______ _______ _____ _____    ______ ____

>  <TORSDO>
F 9

$$$$
=
 OpenBabel10222422113D

 29 32  0  0  1  0  0  0  0  0999 V2000
  188.9220  176.8530  142.8620 N   0  0  0  0  0  0  0  0  0  0  0  0
  187.6880  177.5930  144.8240 C   0  0  0  0  0  3  0  0  0  0  0  0
  187.7390  176.9150  143.6830 C   0  0  0  0  0  3  0  0  0  0  0  0
  186.4860  177.6110  145.5870 N   0  0  0  0  0  2  0  0  0  0  0  0
  185.3940  178.8450  147.2380 O   0  0  0  0  0  1  0  0  0  0  0  0
  185.8380  178.8690  145.9150 C   0  0  2  0  0  3  0  0  0  0  0  0
  184.6860  179.0990  144.9970 C   0  0  0  0  0  0  0  0  0  0  0  0
  184.9180  179.3530  143.6520 O   0  0  0  0  0  0  0  0  0  0  0  0
  183.5050  179.0490  145.4310 O   0  0  0  0  0  1  0  0  0  0  0  0
  189.8870  175.7950  143.0230 C   0  0  0  0  0  3  0  0  0  0  0  0
  190.9800  175.8300  143.7940 C   0  0  0  0  0  3  0  0  0  0  0  0
  191.3810  176.9690  144.6690 C   0  0  0  0  0  2  0  0  0  0  0  0
  192.2470  175.7650  147.6990 C   0  0  2  0  0  3  0  0  0  0  0  0
  191.6150  176.9260  147.2540 N   0  0  0  0  0  2  0  0  0  0  0  0
  191.7640  176.4570  146.0130 C   0  0  1  0  0  0  0  0  0  0  0  0
  192.4070  175.2470  146.4650 O   0  0  0  0  0  0  0  0  0  0  0  0
  189.2650  177.9070  141.9420 C   0  0  0  0  0  0  0  0  0  0  0  0
  189.7630  179.0500  142.4130 C   0  0  0  0  0  2  0  0  0  0  0  0
  186.4750  178.0550  137.8130 C   0  0  0  0  0  0  0  0  0  0  0  0
  188.7470  177.2850  137.7700 N   0  0  0  0  0  0  0  0  0  0  0  0
  185.5520  178.7990  139.9120 C   0  0  0  0  0  3  0  0  0  0  0  0
  185.4040  178.5720  138.5430 C   0  0  0  0  0  3  0  0  0  0  0  0
  190.0490  177.2360  139.7290 N   0  0  0  0  0  0  0  0  0  0  0  0
  189.9210  177.0210  138.3940 C   0  0  0  0  0  3  0  0  0  0  0  0
  186.3290  177.8300  136.4150 N   0  0  0  0  0  1  0  0  0  0  0  0
  186.7300  178.5160  140.5290 N   0  0  0  0  0  0  0  0  0  0  0  0
  187.7940  178.0040  139.8490 C   0  0  0  0  0  0  0  0  0  0  0  0
  187.6840  177.7710  138.4620 C   0  0  0  0  0  0  0  0  0  0  0  0
  189.0220  177.7150  140.4850 C   0  0  0  0  0  0  0  0  0  0  0  0
  1 10  1  0  0  0  0
  1  3  1  0  0  0  0
  2  4  1  0  0  0  0
  3  2  2  0  0  0  0
  4  6  1  0  0  0  0
  6  5  1  1  0  0  0
  7  9  1  0  0  0  0
  7  6  1  0  0  0  0
  8  7  2  0  0  0  0
 10 11  2  0  0  0  0
 11 12  1  0  0  0  0
 13 16  1  1  0  0  0
 14 13  1  0  0  0  0
 15 12  1  6  0  0  0
 15 16  1  0  0  0  0
 15 14  1  0  0  0  0
 15 13  1  0  0  0  0
 17 18  2  0  0  0  0
 17  1  1  0  0  0  0
 19 28  2  0  0  0  0
 19 22  1  0  0  0  0
 20 24  2  0  0  0  0
 20 28  1  0  0  0  0
 21 26  1  0  0  0  0
 22 21  2  0  0  0  0
 23 29  2  0  0  0  0
 24 23  1  0  0  0  0
 25 19  1  0  0  0  0
 27 29  1  0  0  0  0
 27 26  2  0  0  0  0
 28 27  1  0  0  0  0
 29 17  1  0  0  0  0
M  END
>  <MODEL>
6

>  <REMARK>
 VINA RESULT:      -7.1      2.534      6.741
  Name = 
  9 active torsions:
  status: ('A' for Active; 'I' for Inactive)
    1  A    between atoms: C_1  and  N_17
    2  A    between atoms: N_2  and  C_9
    3  A    between atoms: N_2  and  C_24
    4  A    between atoms: N_2  and  C_28
    5  A    between atoms: C_4  and  C_25
    6  A    between atoms: C_10  and  C_12
    7  A    between atoms: C_10  and  C_23
    8  A    between atoms: N_17  and  C_25
    9  A    between atoms: C_24  and  C_26
                            x       y       z     vdW  Elec       q    Type
                         _______ _______ _______ _____ _____    ______ ____

>  <TORSDO>
F 9

$$$$
=
 OpenBabel10222422113D

 29 32  0  0  1  0  0  0  0  0999 V2000
  189.7210  177.8640  142.7350 N   0  0  0  0  0  0  0  0  0  0  0  0
  190.7780  177.3750  140.5990 C   0  0  0  0  0  3  0  0  0  0  0  0
  189.8460  178.0040  141.3070 C   0  0  0  0  0  3  0  0  0  0  0  0
  190.8460  177.5600  139.1890 N   0  0  0  0  0  2  0  0  0  0  0  0
  190.9080  175.2660  138.7720 O   0  0  0  0  0  1  0  0  0  0  0  0
  191.3630  176.5090  138.3300 C   0  0  2  0  0  3  0  0  0  0  0  0
  192.8540  176.5370  138.3400 C   0  0  0  0  0  0  0  0  0  0  0  0
  193.5620  175.8170  137.3870 O   0  0  0  0  0  0  0  0  0  0  0  0
  193.4730  177.2200  139.1980 O   0  0  0  0  0  1  0  0  0  0  0  0
  190.5770  178.5940  143.6350 C   0  0  0  0  0  3  0  0  0  0  0  0
  191.4740  178.0670  144.4770 C   0  0  0  0  0  3  0  0  0  0  0  0
  191.7820  176.6140  144.6100 C   0  0  0  0  0  2  0  0  0  0  0  0
  192.2210  175.7940  147.8530 C   0  0  2  0  0  3  0  0  0  0  0  0
  191.5330  176.8070  147.1870 N   0  0  0  0  0  2  0  0  0  0  0  0
  191.9720  176.2710  146.0460 C   0  0  1  0  0  0  0  0  0  0  0  0
  192.6780  175.2120  146.7250 O   0  0  0  0  0  0  0  0  0  0  0  0
  188.8340  176.8960  143.3290 C   0  0  0  0  0  0  0  0  0  0  0  0
  188.9290  175.6150  142.9710 C   0  0  0  0  0  2  0  0  0  0  0  0
  184.3810  178.7490  144.5930 C   0  0  0  0  0  0  0  0  0  0  0  0
  186.0140  178.1550  146.2480 N   0  0  0  0  0  0  0  0  0  0  0  0
  184.9210  178.4020  142.2690 C   0  0  0  0  0  3  0  0  0  0  0  0
  184.0190  178.8230  143.2480 C   0  0  0  0  0  3  0  0  0  0  0  0
  188.1050  177.2700  145.6280 N   0  0  0  0  0  0  0  0  0  0  0  0
  187.2310  177.6660  146.5910 C   0  0  0  0  0  3  0  0  0  0  0  0
  183.4600  179.1700  145.5940 N   0  0  0  0  0  1  0  0  0  0  0  0
  186.1440  177.9270  142.6250 N   0  0  0  0  0  0  0  0  0  0  0  0
  186.5340  177.8480  143.9280 C   0  0  0  0  0  0  0  0  0  0  0  0
  185.6450  178.2540  144.9450 C   0  0  0  0  0  0  0  0  0  0  0  0
  187.8020  177.3480  144.3030 C   0  0  0  0  0  0  0  0  0  0  0  0
  1 17  1  0  0  0  0
  1 10  1  0  0  0  0
  2  3  2  0  0  0  0
  3  1  1  0  0  0  0
  4  2  1  0  0  0  0
  6  7  1  0  0  0  0
  6  5  1  1  0  0  0
  6  4  1  0  0  0  0
  7  9  1  0  0  0  0
  8  7  2  0  0  0  0
 10 11  2  0  0  0  0
 11 12  1  0  0  0  0
 13 16  1  6  0  0  0
 14 13  1  0  0  0  0
 15 12  1  1  0  0  0
 15 16  1  0  0  0  0
 15 14  1  0  0  0  0
 15 13  1  0  0  0  0
 17 29  1  0  0  0  0
 18 17  2  0  0  0  0
 19 28  1  0  0  0  0
 19 25  1  0  0  0  0
 20 24  1  0  0  0  0
 21 26  2  0  0  0  0
 21 22  1  0  0  0  0
 22 19  2  0  0  0  0
 23 24  2  0  0  0  0
 26 27  1  0  0  0  0
 27 29  2  0  0  0  0
 27 28  1  0  0  0  0
 28 20  2  0  0  0  0
 29 23  1  0  0  0  0
M  END
>  <MODEL>
7

>  <REMARK>
 VINA RESULT:      -7.1      3.245      6.199
  Name = 
  9 active torsions:
  status: ('A' for Active; 'I' for Inactive)
    1  A    between atoms: C_1  and  N_17
    2  A    between atoms: N_2  and  C_9
    3  A    between atoms: N_2  and  C_24
    4  A    between atoms: N_2  and  C_28
    5  A    between atoms: C_4  and  C_25
    6  A    between atoms: C_10  and  C_12
    7  A    between atoms: C_10  and  C_23
    8  A    between atoms: N_17  and  C_25
    9  A    between atoms: C_24  and  C_26
                            x       y       z     vdW  Elec       q    Type
                         _______ _______ _______ _____ _____    ______ ____

>  <TORSDO>
F 9

$$$$
=
 OpenBabel10222422113D

 29 32  0  0  1  0  0  0  0  0999 V2000
  188.9340  176.8910  142.8480 N   0  0  0  0  0  0  0  0  0  0  0  0
  187.6010  177.6230  144.7470 C   0  0  0  0  0  3  0  0  0  0  0  0
  187.7440  176.8740  143.6590 C   0  0  0  0  0  3  0  0  0  0  0  0
  186.3970  177.5560  145.5040 N   0  0  0  0  0  2  0  0  0  0  0  0
  185.2390  178.7990  147.1020 O   0  0  0  0  0  1  0  0  0  0  0  0
  185.6160  178.7540  145.7590 C   0  0  2  0  0  3  0  0  0  0  0  0
  184.4040  178.7610  144.8910 C   0  0  0  0  0  0  0  0  0  0  0  0
  184.4920  178.3050  143.5830 O   0  0  0  0  0  0  0  0  0  0  0  0
  183.2990  179.1640  145.3410 O   0  0  0  0  0  1  0  0  0  0  0  0
  189.9450  175.8740  142.9850 C   0  0  0  0  0  3  0  0  0  0  0  0
  191.0150  175.9230  143.7880 C   0  0  0  0  0  3  0  0  0  0  0  0
  191.3360  177.0340  144.7300 C   0  0  0  0  0  2  0  0  0  0  0  0
  192.2440  175.7200  147.7010 C   0  0  2  0  0  3  0  0  0  0  0  0
  191.6360  176.9110  147.3050 N   0  0  0  0  0  2  0  0  0  0  0  0
  191.7380  176.4730  146.0480 C   0  0  1  0  0  0  0  0  0  0  0  0
  192.3560  175.2330  146.4490 O   0  0  0  0  0  0  0  0  0  0  0  0
  189.2360  177.9880  141.9640 C   0  0  0  0  0  0  0  0  0  0  0  0
  189.8150  179.0840  142.4550 C   0  0  0  0  0  2  0  0  0  0  0  0
  190.1140  176.9290  137.1720 C   0  0  0  0  0  0  0  0  0  0  0  0
  188.0000  177.7980  137.9030 N   0  0  0  0  0  0  0  0  0  0  0  0
  191.8290  176.5390  138.8210 C   0  0  0  0  0  3  0  0  0  0  0  0
  191.4020  176.5000  137.4930 C   0  0  0  0  0  3  0  0  0  0  0  0
  187.6040  178.2780  140.1720 N   0  0  0  0  0  0  0  0  0  0  0  0
  187.1730  178.2350  138.8850 C   0  0  0  0  0  3  0  0  0  0  0  0
  189.6740  176.8830  135.8190 N   0  0  0  0  0  1  0  0  0  0  0  0
  190.9950  176.9940  139.7940 N   0  0  0  0  0  0  0  0  0  0  0  0
  189.7340  177.4270  139.5160 C   0  0  0  0  0  0  0  0  0  0  0  0
  189.2650  177.3920  138.1860 C   0  0  0  0  0  0  0  0  0  0  0  0
  188.8620  177.8940  140.5260 C   0  0  0  0  0  0  0  0  0  0  0  0
  1 10  1  0  0  0  0
  1  3  1  0  0  0  0
  2  4  1  0  0  0  0
  3  2  2  0  0  0  0
  4  6  1  0  0  0  0
  6  5  1  1  0  0  0
  7  9  1  0  0  0  0
  7  6  1  0  0  0  0
  8  7  2  0  0  0  0
 10 11  2  0  0  0  0
 11 12  1  0  0  0  0
 13 16  1  1  0  0  0
 14 13  1  0  0  0  0
 15 12  1  6  0  0  0
 15 16  1  0  0  0  0
 15 14  1  0  0  0  0
 15 13  1  0  0  0  0
 17 18  2  0  0  0  0
 17  1  1  0  0  0  0
 19 22  2  0  0  0  0
 19 28  1  0  0  0  0
 20 28  2  0  0  0  0
 20 24  1  0  0  0  0
 21 26  2  0  0  0  0
 22 21  1  0  0  0  0
 23 29  1  0  0  0  0
 24 23  2  0  0  0  0
 25 19  1  0  0  0  0
 27 26  1  0  0  0  0
 27 29  2  0  0  0  0
 28 27  1  0  0  0  0
 29 17  1  0  0  0  0
M  END
>  <MODEL>
8

>  <REMARK>
 VINA RESULT:      -7.1      2.479      7.121
  Name = 
  9 active torsions:
  status: ('A' for Active; 'I' for Inactive)
    1  A    between atoms: C_1  and  N_17
    2  A    between atoms: N_2  and  C_9
    3  A    between atoms: N_2  and  C_24
    4  A    between atoms: N_2  and  C_28
    5  A    between atoms: C_4  and  C_25
    6  A    between atoms: C_10  and  C_12
    7  A    between atoms: C_10  and  C_23
    8  A    between atoms: N_17  and  C_25
    9  A    between atoms: C_24  and  C_26
                            x       y       z     vdW  Elec       q    Type
                         _______ _______ _______ _____ _____    ______ ____

>  <TORSDO>
F 9

$$$$
=
 OpenBabel10222422113D

 29 32  0  0  1  0  0  0  0  0999 V2000
  189.2980  176.9520  142.2480 N   0  0  0  0  0  0  0  0  0  0  0  0
  187.4450  176.6960  143.8040 C   0  0  0  0  0  3  0  0  0  0  0  0
  188.3180  177.4700  143.1690 C   0  0  0  0  0  3  0  0  0  0  0  0
  186.5030  177.2750  144.7010 N   0  0  0  0  0  2  0  0  0  0  0  0
  187.6380  177.5910  146.7140 O   0  0  0  0  0  1  0  0  0  0  0  0
  186.9300  178.2380  145.7010 C   0  0  2  0  0  3  0  0  0  0  0  0
  185.7400  178.9300  146.2760 C   0  0  0  0  0  0  0  0  0  0  0  0
  185.8230  179.5100  147.5340 O   0  0  0  0  0  1  0  0  0  0  0  0
  184.6660  179.0020  145.6220 O   0  0  0  0  0  0  0  0  0  0  0  0
  190.1670  175.8640  142.6170 C   0  0  0  0  0  3  0  0  0  0  0  0
  191.1120  175.8910  143.5650 C   0  0  0  0  0  3  0  0  0  0  0  0
  191.4110  177.0530  144.4500 C   0  0  0  0  0  2  0  0  0  0  0  0
  192.0460  175.9200  147.5640 C   0  0  2  0  0  3  0  0  0  0  0  0
  191.4300  177.0590  147.0460 N   0  0  0  0  0  2  0  0  0  0  0  0
  191.6910  176.5720  145.8300 C   0  0  1  0  0  0  0  0  0  0  0  0
  192.3200  175.3850  146.3560 O   0  0  0  0  0  0  0  0  0  0  0  0
  189.5470  177.5760  140.9730 C   0  0  0  0  0  0  0  0  0  0  0  0
  188.6370  178.4040  140.4620 C   0  0  0  0  0  2  0  0  0  0  0  0
  192.1390  175.5230  137.2410 C   0  0  0  0  0  0  0  0  0  0  0  0
  193.2180  176.7450  139.0020 N   0  0  0  0  0  0  0  0  0  0  0  0
  189.7370  175.3240  137.2860 C   0  0  0  0  0  3  0  0  0  0  0  0
  190.9580  175.0540  136.6670 C   0  0  0  0  0  3  0  0  0  0  0  0
  191.9740  177.7160  140.7470 N   0  0  0  0  0  0  0  0  0  0  0  0
  193.1670  177.4690  140.1470 C   0  0  0  0  0  3  0  0  0  0  0  0
  193.3850  175.2550  136.6070 N   0  0  0  0  0  1  0  0  0  0  0  0
  189.7000  176.0380  138.4420 N   0  0  0  0  0  0  0  0  0  0  0  0
  190.8340  176.5060  139.0350 C   0  0  0  0  0  0  0  0  0  0  0  0
  192.0850  176.2610  138.4320 C   0  0  0  0  0  0  0  0  0  0  0  0
  190.7990  177.2550  140.2340 C   0  0  0  0  0  0  0  0  0  0  0  0
  1 10  1  0  0  0  0
  1  3  1  0  0  0  0
  2  4  1  0  0  0  0
  3  2  2  0  0  0  0
  4  6  1  0  0  0  0
  6  7  1  0  0  0  0
  6  5  1  1  0  0  0
  7  8  1  0  0  0  0
  9  7  2  0  0  0  0
 10 11  2  0  0  0  0
 11 12  1  0  0  0  0
 13 16  1  1  0  0  0
 14 13  1  0  0  0  0
 15 12  1  6  0  0  0
 15 16  1  0  0  0  0
 15 14  1  0  0  0  0
 15 13  1  0  0  0  0
 17  1  1  0  0  0  0
 18 17  2  0  0  0  0
 19 28  1  0  0  0  0
 20 24  1  0  0  0  0
 21 26  2  0  0  0  0
 22 19  2  0  0  0  0
 22 21  1  0  0  0  0
 24 23  2  0  0  0  0
 25 19  1  0  0  0  0
 26 27  1  0  0  0  0
 27 29  2  0  0  0  0
 28 20  2  0  0  0  0
 28 27  1  0  0  0  0
 29 23  1  0  0  0  0
 29 17  1  0  0  0  0
M  END
>  <MODEL>
9

>  <REMARK>
 VINA RESULT:      -7.0      2.911      7.174
  Name = 
  9 active torsions:
  status: ('A' for Active; 'I' for Inactive)
    1  A    between atoms: C_1  and  N_17
    2  A    between atoms: N_2  and  C_9
    3  A    between atoms: N_2  and  C_24
    4  A    between atoms: N_2  and  C_28
    5  A    between atoms: C_4  and  C_25
    6  A    between atoms: C_10  and  C_12
    7  A    between atoms: C_10  and  C_23
    8  A    between atoms: N_17  and  C_25
    9  A    between atoms: C_24  and  C_26
                            x       y       z     vdW  Elec       q    Type
                         _______ _______ _______ _____ _____    ______ ____

>  <TORSDO>
F 9

$$$$
