=
 OpenBabel10232408593D

 46 48  0  0  1  0  0  0  0  0999 V2000
  181.3670  178.1610  143.9720 F   0  0  0  0  0  0  0  0  0  0  0  0
  182.0790  178.7640  142.9830 C   0  0  0  0  0  0  0  0  0  0  0  0
  181.4980  178.9440  141.7920 C   0  0  0  0  0  3  0  0  0  0  0  0
  183.6840  179.3930  144.7590 C   0  0  0  0  0  2  0  0  0  0  0  0
  184.5100  178.2830  142.7550 C   0  0  2  0  0  3  0  0  0  0  0  0
  183.4650  179.2640  143.2660 C   0  0  1  0  0  3  0  0  0  0  0  0
  185.1380  179.0490  144.9760 C   0  0  1  0  0  3  0  0  0  0  0  0
  185.3270  178.4230  146.3420 C   0  0  0  0  0  1  0  0  0  0  0  0
  185.4900  178.0510  143.8910 C   0  0  0  0  0  2  0  0  0  0  0  0
  185.2450  178.8710  141.5630 C   0  0  0  0  0  2  0  0  0  0  0  0
  186.6240  178.6760  141.6940 O   0  0  0  0  0  0  0  0  0  0  0  0
  186.2130  178.7990  139.4570 O   0  0  0  0  0  1  0  0  0  0  0  0
  187.0490  178.2570  140.4320 C   0  0  1  0  0  3  0  0  0  0  0  0
  188.4170  178.6970  140.1970 N   0  0  0  0  0  2  0  0  0  0  0  0
  189.1950  177.5360  139.7840 C   0  0  0  0  0  2  0  0  0  0  0  0
  191.4740  177.5440  140.4760 O   0  0  0  0  0  0  0  0  0  0  0  0
  189.9640  176.6740  142.0290 N   0  0  0  0  0  2  0  0  0  0  0  0
  190.2810  177.2680  140.7690 C   0  0  0  0  0  0  0  0  0  0  0  0
  190.9220  176.4230  142.9560 O   0  0  0  0  0  0  0  0  0  0  0  0
  190.4160  178.8170  143.9100 O   0  0  0  0  0  0  0  0  0  0  0  0
  190.4980  177.3600  144.3060 P   0  0  1  0  0  0  0  0  0  0  0  0
  189.0020  176.8490  144.9090 O   0  0  0  0  0  1  0  0  0  0  0  0
  191.7010  177.1630  145.5210 O   0  0  0  0  0  0  0  0  0  0  0  0
  191.4230  176.6640  146.7980 C   0  0  0  0  0  0  0  0  0  0  0  0
  190.4190  177.0990  147.4200 O   0  0  0  0  0  0  0  0  0  0  0  0
  192.2810  175.6320  147.4500 C   0  0  0  0  0  1  0  0  0  0  0  0
  182.1890  179.6080  140.6400 C   0  0  0  0  0  2  0  0  0  0  0  0
  181.6300  178.5780  138.4240 C   0  0  0  0  0  0  0  0  0  0  0  0
  182.5970  177.5470  138.6570 N   0  0  0  0  0  2  0  0  0  0  0  0
  181.0350  178.6460  137.3130 O   0  0  0  0  0  0  0  0  0  0  0  0
  181.3490  179.5410  139.4530 N   0  0  0  0  0  0  0  0  0  0  0  0
  183.0300  174.0910  137.2330 C   0  0  2  0  0  3  0  0  0  0  0  0
  183.0670  175.2030  138.2060 C   0  0  1  0  0  3  0  0  0  0  0  0
  184.3340  174.5750  137.7620 N   0  0  2  0  0  0  0  0  0  0  0  0
  183.0090  176.6100  137.6250 C   0  0  2  0  0  3  0  0  0  0  0  0
  184.4140  176.9130  137.1880 C   0  0  0  0  0  2  0  0  0  0  0  0
  185.0020  175.5550  136.9000 C   0  0  0  0  0  2  0  0  0  0  0  0
  181.3620  174.7690  135.6470 O   0  0  0  0  0  1  0  0  0  0  0  0
  183.0520  173.3000  134.8650 C   0  0  0  0  0  1  0  0  0  0  0  0
  182.7170  174.4670  135.7730 C   0  0  2  0  0  3  0  0  0  0  0  0
  180.3350  180.5720  139.2550 C   0  0  0  0  0  2  0  0  0  0  0  0
  180.9520  181.8110  138.6180 C   0  0  0  0  0  2  0  0  0  0  0  0
  180.2910  182.1440  137.4020 O   0  0  0  0  0  0  0  0  0  0  0  0
  180.6040  182.9540  135.2190 C   0  0  0  0  0  2  0  0  0  0  0  0
  181.4500  184.3540  137.0120 C   0  0  0  0  0  1  0  0  0  0  0  0
  180.7650  183.1220  136.5220 C   0  0  0  0  0  0  0  0  0  0  0  0
  2  1  1  0  0  0  0
  3  2  2  0  0  0  0
  4  7  1  0  0  0  0
  5 10  1  6  0  0  0
  5  6  1  0  0  0  0
  5  9  1  0  0  0  0
  6  2  1  1  0  0  0
  6  4  1  0  0  0  0
  7  8  1  1  0  0  0
  9  7  1  0  0  0  0
 10 11  1  0  0  0  0
 13 12  1  6  0  0  0
 13 11  1  0  0  0  0
 14 13  1  0  0  0  0
 15 14  1  0  0  0  0
 15 18  1  0  0  0  0
 16 18  2  0  0  0  0
 17 19  1  0  0  0  0
 18 17  1  0  0  0  0
 19 21  1  0  0  0  0
 21 20  2  6  0  0  0
 21 22  1  0  0  0  0
 21 23  1  0  0  0  0
 23 24  1  0  0  0  0
 24 25  2  0  0  0  0
 24 26  1  0  0  0  0
 27  3  1  0  0  0  0
 28 29  1  0  0  0  0
 28 31  1  0  0  0  0
 30 28  2  0  0  0  0
 31 27  1  0  0  0  0
 32 40  1  6  0  0  0
 32 34  1  0  0  0  0
 32 33  1  0  0  0  0
 34 33  1  0  0  0  0
 35 33  1  0  0  0  0
 35 29  1  0  0  0  0
 36 35  1  0  0  0  0
 37 36  1  0  0  0  0
 37 34  1  0  0  0  0
 38 40  1  0  0  0  0
 39 40  1  0  0  0  0
 41 31  1  0  0  0  0
 42 41  1  0  0  0  0
 43 42  1  0  0  0  0
 44 46  2  0  0  0  0
 46 45  1  0  0  0  0
 46 43  1  0  0  0  0
M  END
>  <MODEL>
1

>  <REMARK>
 VINA RESULT:      -7.3      0.000      0.000
  Name = 
  19 active torsions:
  status: ('A' for Active; 'I' for Inactive)
    1  A    between atoms: C_2  and  C_7
    2  A    between atoms: C_2  and  N_24
    3  A    between atoms: C_6  and  C_23
    4  A    between atoms: C_6  and  N_43
    5  A    between atoms: C_7  and  O_8
    6  A    between atoms: O_8  and  C_45
    7  A    between atoms: C_10  and  O_30
    8  A    between atoms: C_11  and  C_36
    9  A    between atoms: N_13  and  C_37
   10  A    between atoms: C_14  and  C_34
   11  A    between atoms: O_15  and  C_34
   12  A    between atoms: O_15  and  C_46
   13  A    between atoms: C_18  and  C_27
   14  A    between atoms: C_21  and  C_26
   15  A    between atoms: N_22  and  O_31
   16  A    between atoms: N_24  and  C_26
   17  A    between atoms: O_30  and  P_38
   18  A    between atoms: O_31  and  P_38
   19  A    between atoms: N_43  and  C_46
                            x       y       z     vdW  Elec       q    Type
                         _______ _______ _______ _____ _____    ______ ____

>  <TORSDO>
F 19

$$$$
=
 OpenBabel10232408593D

 46 48  0  0  1  0  0  0  0  0999 V2000
  181.6990  178.3690  143.8320 F   0  0  0  0  0  0  0  0  0  0  0  0
  182.5920  178.7400  142.8760 C   0  0  0  0  0  0  0  0  0  0  0  0
  182.2000  178.7410  141.5980 C   0  0  0  0  0  3  0  0  0  0  0  0
  183.9860  179.5660  144.7470 C   0  0  0  0  0  2  0  0  0  0  0  0
  184.9790  178.0730  143.0980 C   0  0  2  0  0  3  0  0  0  0  0  0
  183.9650  179.1930  143.2790 C   0  0  1  0  0  3  0  0  0  0  0  0
  185.3600  179.1750  145.2340 C   0  0  1  0  0  3  0  0  0  0  0  0
  185.3050  178.7850  146.6960 C   0  0  0  0  0  1  0  0  0  0  0  0
  185.7700  177.9820  144.3920 C   0  0  0  0  0  2  0  0  0  0  0  0
  185.9210  178.3970  141.9510 C   0  0  0  0  0  2  0  0  0  0  0  0
  187.2400  178.4780  142.4080 O   0  0  0  0  0  0  0  0  0  0  0  0
  188.8080  178.1210  140.7950 O   0  0  0  0  0  1  0  0  0  0  0  0
  187.9310  177.5030  141.6860 C   0  0  1  0  0  3  0  0  0  0  0  0
  188.6850  176.6510  142.5950 N   0  0  0  0  0  2  0  0  0  0  0  0
  190.0990  176.9530  142.4200 C   0  0  0  0  0  2  0  0  0  0  0  0
  190.3880  178.8770  143.7930 O   0  0  0  0  0  0  0  0  0  0  0  0
  191.4270  176.9360  144.5670 N   0  0  0  0  0  2  0  0  0  0  0  0
  190.6280  177.6530  143.6250 C   0  0  0  0  0  0  0  0  0  0  0  0
  191.9200  177.5350  145.6800 O   0  0  0  0  0  0  0  0  0  0  0  0
  192.2790  175.0980  146.5930 O   0  0  0  0  0  0  0  0  0  0  0  0
  191.6520  176.4300  146.9400 P   0  0  1  0  0  0  0  0  0  0  0  0
  192.3290  177.0220  148.3720 O   0  0  0  0  0  1  0  0  0  0  0  0
  189.9560  176.2270  147.1520 O   0  0  0  0  0  0  0  0  0  0  0  0
  189.0580  177.2980  147.2010 C   0  0  0  0  0  0  0  0  0  0  0  0
  188.3770  177.5730  146.1780 O   0  0  0  0  0  0  0  0  0  0  0  0
  188.8780  178.1280  148.4270 C   0  0  0  0  0  1  0  0  0  0  0  0
  183.1010  179.1450  140.4700 C   0  0  0  0  0  2  0  0  0  0  0  0
  182.8060  178.1740  138.1780 C   0  0  0  0  0  0  0  0  0  0  0  0
  183.8080  177.1910  138.4630 N   0  0  0  0  0  2  0  0  0  0  0  0
  182.3100  178.2510  137.0200 O   0  0  0  0  0  0  0  0  0  0  0  0
  182.3760  179.0780  139.2090 N   0  0  0  0  0  0  0  0  0  0  0  0
  186.0240  176.4660  135.5090 C   0  0  2  0  0  3  0  0  0  0  0  0
  185.0420  177.1630  136.3650 C   0  0  1  0  0  3  0  0  0  0  0  0
  184.6210  176.6410  135.0430 N   0  0  2  0  0  0  0  0  0  0  0  0
  184.3670  176.3210  137.4420 C   0  0  2  0  0  3  0  0  0  0  0  0
  183.2650  175.5870  136.7320 C   0  0  0  0  0  2  0  0  0  0  0  0
  183.7550  175.4890  135.3110 C   0  0  0  0  0  2  0  0  0  0  0  0
  187.2860  175.0980  137.0220 O   0  0  0  0  0  1  0  0  0  0  0  0
  187.1080  174.3370  134.7830 C   0  0  0  0  0  1  0  0  0  0  0  0
  186.4160  175.0390  135.9350 C   0  0  2  0  0  3  0  0  0  0  0  0
  181.3240  180.0550  138.9540 C   0  0  0  0  0  2  0  0  0  0  0  0
  181.9170  181.3460  138.4030 C   0  0  0  0  0  2  0  0  0  0  0  0
  180.8940  182.2840  138.0860 O   0  0  0  0  0  0  0  0  0  0  0  0
  180.5990  182.1250  135.7610 C   0  0  0  0  0  2  0  0  0  0  0  0
  180.8480  184.3660  136.6570 C   0  0  0  0  0  1  0  0  0  0  0  0
  180.7770  182.8860  136.8290 C   0  0  0  0  0  0  0  0  0  0  0  0
  2  1  1  0  0  0  0
  3  2  2  0  0  0  0
  4  7  1  0  0  0  0
  5 10  1  6  0  0  0
  5  6  1  0  0  0  0
  5  9  1  0  0  0  0
  6  2  1  1  0  0  0
  6  4  1  0  0  0  0
  7  8  1  1  0  0  0
  9  7  1  0  0  0  0
 10 11  1  0  0  0  0
 13 12  1  6  0  0  0
 13 11  1  0  0  0  0
 13 14  1  0  0  0  0
 15 14  1  0  0  0  0
 15 18  1  0  0  0  0
 17 19  1  0  0  0  0
 18 16  2  0  0  0  0
 18 17  1  0  0  0  0
 19 21  1  0  0  0  0
 21 20  2  6  0  0  0
 21 23  1  0  0  0  0
 21 22  1  0  0  0  0
 23 24  1  0  0  0  0
 24 26  1  0  0  0  0
 25 24  2  0  0  0  0
 27  3  1  0  0  0  0
 28 29  1  0  0  0  0
 28 31  1  0  0  0  0
 30 28  2  0  0  0  0
 31 27  1  0  0  0  0
 32 40  1  1  0  0  0
 32 33  1  0  0  0  0
 33 35  1  0  0  0  0
 34 37  1  0  0  0  0
 34 32  1  0  0  0  0
 34 33  1  0  0  0  0
 35 29  1  0  0  0  0
 36 35  1  0  0  0  0
 37 36  1  0  0  0  0
 39 40  1  0  0  0  0
 40 38  1  0  0  0  0
 41 31  1  0  0  0  0
 42 41  1  0  0  0  0
 43 42  1  0  0  0  0
 44 46  2  0  0  0  0
 45 46  1  0  0  0  0
 46 43  1  0  0  0  0
M  END
>  <MODEL>
2

>  <REMARK>
 VINA RESULT:      -7.1      1.768      2.554
  Name = 
  19 active torsions:
  status: ('A' for Active; 'I' for Inactive)
    1  A    between atoms: C_2  and  C_7
    2  A    between atoms: C_2  and  N_24
    3  A    between atoms: C_6  and  C_23
    4  A    between atoms: C_6  and  N_43
    5  A    between atoms: C_7  and  O_8
    6  A    between atoms: O_8  and  C_45
    7  A    between atoms: C_10  and  O_30
    8  A    between atoms: C_11  and  C_36
    9  A    between atoms: N_13  and  C_37
   10  A    between atoms: C_14  and  C_34
   11  A    between atoms: O_15  and  C_34
   12  A    between atoms: O_15  and  C_46
   13  A    between atoms: C_18  and  C_27
   14  A    between atoms: C_21  and  C_26
   15  A    between atoms: N_22  and  O_31
   16  A    between atoms: N_24  and  C_26
   17  A    between atoms: O_30  and  P_38
   18  A    between atoms: O_31  and  P_38
   19  A    between atoms: N_43  and  C_46
                            x       y       z     vdW  Elec       q    Type
                         _______ _______ _______ _____ _____    ______ ____

>  <TORSDO>
F 19

$$$$
=
 OpenBabel10232408593D

 46 48  0  0  1  0  0  0  0  0999 V2000
  188.5220  175.4450  143.0890 F   0  0  0  0  0  0  0  0  0  0  0  0
  188.0590  176.7160  142.9430 C   0  0  0  0  0  0  0  0  0  0  0  0
  186.9610  177.0790  143.6130 C   0  0  0  0  0  3  0  0  0  0  0  0
  190.3000  177.6150  142.4000 C   0  0  0  0  0  2  0  0  0  0  0  0
  188.6640  177.3510  140.6150 C   0  0  2  0  0  3  0  0  0  0  0  0
  188.8190  177.6880  142.0910 C   0  0  1  0  0  3  0  0  0  0  0  0
  190.9920  177.8800  141.0850 C   0  0  1  0  0  3  0  0  0  0  0  0
  192.3160  177.1480  141.0350 C   0  0  0  0  0  1  0  0  0  0  0  0
  190.0600  177.3440  140.0160 C   0  0  0  0  0  2  0  0  0  0  0  0
  187.8200  178.4050  139.9200 C   0  0  0  0  0  2  0  0  0  0  0  0
  188.1700  178.5010  138.5700 O   0  0  0  0  0  0  0  0  0  0  0  0
  185.9360  178.8260  138.2650 O   0  0  0  0  0  1  0  0  0  0  0  0
  187.0390  178.0680  137.8730 C   0  0  1  0  0  3  0  0  0  0  0  0
  187.2480  178.2210  136.4400 N   0  0  0  0  0  2  0  0  0  0  0  0
  187.4290  176.8920  135.8720 C   0  0  0  0  0  2  0  0  0  0  0  0
  189.5560  177.5870  135.0560 O   0  0  0  0  0  0  0  0  0  0  0  0
  189.4460  175.3760  135.7960 N   0  0  0  0  0  2  0  0  0  0  0  0
  188.8670  176.6590  135.5550 C   0  0  0  0  0  0  0  0  0  0  0  0
  190.7530  175.1270  135.5300 O   0  0  0  0  0  0  0  0  0  0  0  0
  190.0620  173.5140  137.4840 O   0  0  0  0  0  1  0  0  0  0  0  0
  191.2640  174.0630  136.7490 P   0  0  1  0  0  0  0  0  0  0  0  0
  192.1420  172.7890  136.0640 O   0  0  0  0  0  0  0  0  0  0  0  0
  192.2690  174.9200  137.8520 O   0  0  0  0  0  0  0  0  0  0  0  0
  193.4140  175.6200  137.4590 C   0  0  0  0  0  0  0  0  0  0  0  0
  193.5050  176.8460  137.7280 O   0  0  0  0  0  0  0  0  0  0  0  0
  194.5350  174.9600  136.7280 C   0  0  0  0  0  1  0  0  0  0  0  0
  186.3760  178.4570  143.5330 C   0  0  0  0  0  2  0  0  0  0  0  0
  183.9350  178.4320  142.9630 C   0  0  0  0  0  0  0  0  0  0  0  0
  184.2580  178.2490  141.5800 N   0  0  0  0  0  2  0  0  0  0  0  0
  182.7350  178.6060  143.3140 O   0  0  0  0  0  0  0  0  0  0  0  0
  184.9810  178.4280  143.9490 N   0  0  0  0  0  0  0  0  0  0  0  0
  181.0360  179.5170  140.1030 C   0  0  2  0  0  3  0  0  0  0  0  0
  181.9760  178.9370  141.0860 C   0  0  1  0  0  3  0  0  0  0  0  0
  180.8440  178.1210  140.5850 N   0  0  2  0  0  0  0  0  0  0  0  0
  183.2650  178.3510  140.5230 C   0  0  2  0  0  3  0  0  0  0  0  0
  182.8930  176.9800  140.0330 C   0  0  0  0  0  2  0  0  0  0  0  0
  181.4260  177.1010  139.7070 C   0  0  0  0  0  2  0  0  0  0  0  0
  182.4620  180.7200  138.5950 O   0  0  0  0  0  1  0  0  0  0  0  0
  180.3930  179.9470  137.7300 C   0  0  0  0  0  1  0  0  0  0  0  0
  181.5560  179.6630  138.6610 C   0  0  2  0  0  3  0  0  0  0  0  0
  184.6710  178.5660  145.3680 C   0  0  0  0  0  2  0  0  0  0  0  0
  185.9060  179.0080  146.1430 C   0  0  0  0  0  2  0  0  0  0  0  0
  186.4150  177.9450  146.9410 O   0  0  0  0  0  0  0  0  0  0  0  0
  188.6990  177.6200  146.4920 C   0  0  0  0  0  2  0  0  0  0  0  0
  188.1210  178.1190  148.7970 C   0  0  0  0  0  1  0  0  0  0  0  0
  187.7450  177.8880  147.3710 C   0  0  0  0  0  0  0  0  0  0  0  0
  2  1  1  0  0  0  0
  2  3  2  0  0  0  0
  5 10  1  6  0  0  0
  5  6  1  0  0  0  0
  6  4  1  0  0  0  0
  6  2  1  1  0  0  0
  7  8  1  1  0  0  0
  7  4  1  0  0  0  0
  9  5  1  0  0  0  0
  9  7  1  0  0  0  0
 11 10  1  0  0  0  0
 13 12  1  1  0  0  0
 13 11  1  0  0  0  0
 14 13  1  0  0  0  0
 15 14  1  0  0  0  0
 16 18  2  0  0  0  0
 18 17  1  0  0  0  0
 18 15  1  0  0  0  0
 19 17  1  0  0  0  0
 19 21  1  0  0  0  0
 21 22  2  6  0  0  0
 21 20  1  0  0  0  0
 21 23  1  0  0  0  0
 24 25  2  0  0  0  0
 24 23  1  0  0  0  0
 26 24  1  0  0  0  0
 27  3  1  0  0  0  0
 27 31  1  0  0  0  0
 28 30  2  0  0  0  0
 28 31  1  0  0  0  0
 29 28  1  0  0  0  0
 31 41  1  0  0  0  0
 32 40  1  6  0  0  0
 32 34  1  0  0  0  0
 32 33  1  0  0  0  0
 34 33  1  0  0  0  0
 35 33  1  0  0  0  0
 35 29  1  0  0  0  0
 36 35  1  0  0  0  0
 37 36  1  0  0  0  0
 37 34  1  0  0  0  0
 38 40  1  0  0  0  0
 39 40  1  0  0  0  0
 41 42  1  0  0  0  0
 42 43  1  0  0  0  0
 43 46  1  0  0  0  0
 44 46  2  0  0  0  0
 46 45  1  0  0  0  0
M  END
>  <MODEL>
3

>  <REMARK>
 VINA RESULT:      -6.8      3.653      7.536
  Name = 
  19 active torsions:
  status: ('A' for Active; 'I' for Inactive)
    1  A    between atoms: C_2  and  C_7
    2  A    between atoms: C_2  and  N_24
    3  A    between atoms: C_6  and  C_23
    4  A    between atoms: C_6  and  N_43
    5  A    between atoms: C_7  and  O_8
    6  A    between atoms: O_8  and  C_45
    7  A    between atoms: C_10  and  O_30
    8  A    between atoms: C_11  and  C_36
    9  A    between atoms: N_13  and  C_37
   10  A    between atoms: C_14  and  C_34
   11  A    between atoms: O_15  and  C_34
   12  A    between atoms: O_15  and  C_46
   13  A    between atoms: C_18  and  C_27
   14  A    between atoms: C_21  and  C_26
   15  A    between atoms: N_22  and  O_31
   16  A    between atoms: N_24  and  C_26
   17  A    between atoms: O_30  and  P_38
   18  A    between atoms: O_31  and  P_38
   19  A    between atoms: N_43  and  C_46
                            x       y       z     vdW  Elec       q    Type
                         _______ _______ _______ _____ _____    ______ ____

>  <TORSDO>
F 19

$$$$
=
 OpenBabel10232408593D

 46 48  0  0  1  0  0  0  0  0999 V2000
  189.3530  179.7610  138.6740 F   0  0  0  0  0  0  0  0  0  0  0  0
  189.0990  178.4250  138.6480 C   0  0  0  0  0  0  0  0  0  0  0  0
  189.2740  177.7600  137.5020 C   0  0  0  0  0  3  0  0  0  0  0  0
  189.8790  177.0100  140.5240 C   0  0  0  0  0  2  0  0  0  0  0  0
  188.1990  178.7210  140.9490 C   0  0  2  0  0  3  0  0  0  0  0  0
  188.6920  177.7240  139.9110 C   0  0  1  0  0  3  0  0  0  0  0  0
  189.6690  177.1020  142.0160 C   0  0  1  0  0  3  0  0  0  0  0  0
  191.0030  177.1340  142.7300 C   0  0  0  0  0  1  0  0  0  0  0  0
  188.9230  178.4020  142.2460 C   0  0  0  0  0  2  0  0  0  0  0  0
  186.7020  178.5690  141.1550 C   0  0  0  0  0  2  0  0  0  0  0  0
  186.4210  178.2500  142.4870 O   0  0  0  0  0  0  0  0  0  0  0  0
  184.2970  177.9170  141.7350 O   0  0  0  0  0  1  0  0  0  0  0  0
  185.0800  178.5980  142.6650 C   0  0  1  0  0  3  0  0  0  0  0  0
  184.6490  178.2470  144.0110 N   0  0  0  0  0  2  0  0  0  0  0  0
  185.1590  179.2620  144.9220 C   0  0  0  0  0  2  0  0  0  0  0  0
  185.4660  179.0140  147.2710 O   0  0  0  0  0  0  0  0  0  0  0  0
  186.7370  177.5760  145.9430 N   0  0  0  0  0  2  0  0  0  0  0  0
  185.7770  178.6190  146.1160 C   0  0  0  0  0  0  0  0  0  0  0  0
  187.3150  176.9600  147.0040 O   0  0  0  0  0  0  0  0  0  0  0  0
  189.2730  178.1580  145.7270 O   0  0  0  0  0  0  0  0  0  0  0  0
  188.9000  177.5650  147.0670 P   0  0  1  0  0  0  0  0  0  0  0  0
  189.0090  178.7550  148.2640 O   0  0  0  0  0  1  0  0  0  0  0  0
  189.9750  176.2760  147.4440 O   0  0  0  0  0  0  0  0  0  0  0  0
  191.3670  176.4070  147.4150 C   0  0  0  0  0  0  0  0  0  0  0  0
  191.9120  177.2920  148.1250 O   0  0  0  0  0  0  0  0  0  0  0  0
  192.2290  175.5320  146.5700 C   0  0  0  0  0  1  0  0  0  0  0  0
  189.0360  176.2870  137.3700 C   0  0  0  0  0  2  0  0  0  0  0  0
  190.5330  175.3600  135.5860 C   0  0  0  0  0  0  0  0  0  0  0  0
  191.5260  175.0580  136.5730 N   0  0  0  0  0  2  0  0  0  0  0  0
  190.7880  175.1870  134.3620 O   0  0  0  0  0  0  0  0  0  0  0  0
  189.2530  175.8710  135.9910 N   0  0  0  0  0  0  0  0  0  0  0  0
  194.9920  173.8550  137.4110 C   0  0  2  0  0  3  0  0  0  0  0  0
  193.7490  174.6520  137.4760 C   0  0  1  0  0  3  0  0  0  0  0  0
  195.0290  175.3180  137.1370 N   0  0  2  0  0  0  0  0  0  0  0  0
  192.8760  174.6440  136.2270 C   0  0  2  0  0  3  0  0  0  0  0  0
  193.5020  175.6510  135.3040 C   0  0  0  0  0  2  0  0  0  0  0  0
  194.9520  175.6620  135.7140 C   0  0  0  0  0  2  0  0  0  0  0  0
  194.4360  171.7620  136.3780 O   0  0  0  0  0  1  0  0  0  0  0  0
  196.6230  172.5990  135.9970 C   0  0  0  0  0  1  0  0  0  0  0  0
  195.1570  172.9390  136.1830 C   0  0  2  0  0  3  0  0  0  0  0  0
  188.2110  176.1420  135.0070 C   0  0  0  0  0  2  0  0  0  0  0  0
  187.0160  175.2230  135.2280 C   0  0  0  0  0  2  0  0  0  0  0  0
  187.4090  173.8550  135.1830 O   0  0  0  0  0  0  0  0  0  0  0  0
  187.9740  172.4450  136.9760 C   0  0  0  0  0  2  0  0  0  0  0  0
  185.6360  172.4640  136.3240 C   0  0  0  0  0  1  0  0  0  0  0  0
  187.0460  172.9280  136.1650 C   0  0  0  0  0  0  0  0  0  0  0  0
  2  1  1  0  0  0  0
  3  2  2  0  0  0  0
  4  7  1  0  0  0  0
  5 10  1  1  0  0  0
  5  9  1  0  0  0  0
  6  2  1  6  0  0  0
  6  4  1  0  0  0  0
  6  5  1  0  0  0  0
  7  9  1  0  0  0  0
  7  8  1  1  0  0  0
 10 11  1  0  0  0  0
 11 13  1  0  0  0  0
 13 12  1  6  0  0  0
 13 14  1  0  0  0  0
 14 15  1  0  0  0  0
 15 18  1  0  0  0  0
 17 18  1  0  0  0  0
 17 19  1  0  0  0  0
 18 16  2  0  0  0  0
 19 21  1  0  0  0  0
 21 20  2  6  0  0  0
 21 23  1  0  0  0  0
 21 22  1  0  0  0  0
 24 23  1  0  0  0  0
 24 25  2  0  0  0  0
 26 24  1  0  0  0  0
 27  3  1  0  0  0  0
 28 31  1  0  0  0  0
 28 29  1  0  0  0  0
 30 28  2  0  0  0  0
 31 27  1  0  0  0  0
 32 40  1  6  0  0  0
 32 33  1  0  0  0  0
 34 32  1  0  0  0  0
 34 33  1  0  0  0  0
 35 29  1  0  0  0  0
 35 33  1  0  0  0  0
 36 37  1  0  0  0  0
 36 35  1  0  0  0  0
 37 34  1  0  0  0  0
 39 40  1  0  0  0  0
 40 38  1  0  0  0  0
 41 42  1  0  0  0  0
 41 31  1  0  0  0  0
 43 42  1  0  0  0  0
 43 46  1  0  0  0  0
 46 45  1  0  0  0  0
 46 44  2  0  0  0  0
M  END
>  <MODEL>
4

>  <REMARK>
 VINA RESULT:      -6.8      4.532      8.369
  Name = 
  19 active torsions:
  status: ('A' for Active; 'I' for Inactive)
    1  A    between atoms: C_2  and  C_7
    2  A    between atoms: C_2  and  N_24
    3  A    between atoms: C_6  and  C_23
    4  A    between atoms: C_6  and  N_43
    5  A    between atoms: C_7  and  O_8
    6  A    between atoms: O_8  and  C_45
    7  A    between atoms: C_10  and  O_30
    8  A    between atoms: C_11  and  C_36
    9  A    between atoms: N_13  and  C_37
   10  A    between atoms: C_14  and  C_34
   11  A    between atoms: O_15  and  C_34
   12  A    between atoms: O_15  and  C_46
   13  A    between atoms: C_18  and  C_27
   14  A    between atoms: C_21  and  C_26
   15  A    between atoms: N_22  and  O_31
   16  A    between atoms: N_24  and  C_26
   17  A    between atoms: O_30  and  P_38
   18  A    between atoms: O_31  and  P_38
   19  A    between atoms: N_43  and  C_46
                            x       y       z     vdW  Elec       q    Type
                         _______ _______ _______ _____ _____    ______ ____

>  <TORSDO>
F 19

$$$$
=
 OpenBabel10232408593D

 46 48  0  0  1  0  0  0  0  0999 V2000
  185.8130  177.2880  142.9840 F   0  0  0  0  0  0  0  0  0  0  0  0
  185.1150  178.1910  142.2450 C   0  0  0  0  0  0  0  0  0  0  0  0
  185.3120  178.2280  140.9230 C   0  0  0  0  0  3  0  0  0  0  0  0
  182.7860  179.0270  142.1720 C   0  0  0  0  0  2  0  0  0  0  0  0
  183.8250  178.5980  144.3330 C   0  0  2  0  0  3  0  0  0  0  0  0
  184.1050  179.0750  142.9160 C   0  0  1  0  0  3  0  0  0  0  0  0
  181.7260  179.1610  143.2390 C   0  0  1  0  0  3  0  0  0  0  0  0
  180.4720  178.4230  142.8230 C   0  0  0  0  0  1  0  0  0  0  0  0
  182.3150  178.5290  144.4840 C   0  0  0  0  0  2  0  0  0  0  0  0
  184.3900  179.5830  145.3410 C   0  0  0  0  0  2  0  0  0  0  0  0
  185.7590  179.3660  145.5230 O   0  0  0  0  0  0  0  0  0  0  0  0
  186.2420  177.1710  145.8900 O   0  0  0  0  0  1  0  0  0  0  0  0
  185.8390  178.3620  146.4910 C   0  0  1  0  0  3  0  0  0  0  0  0
  186.8010  178.7370  147.5180 N   0  0  0  0  0  2  0  0  0  0  0  0
  187.4930  177.5280  147.9430 C   0  0  0  0  0  2  0  0  0  0  0  0
  189.6630  178.3390  148.4960 O   0  0  0  0  0  0  0  0  0  0  0  0
  189.5480  177.0440  146.5580 N   0  0  0  0  0  2  0  0  0  0  0  0
  188.9580  177.6620  147.7020 C   0  0  0  0  0  0  0  0  0  0  0  0
  190.8790  177.1350  146.3090 O   0  0  0  0  0  0  0  0  0  0  0  0
  191.8460  178.5600  144.3260 O   0  0  0  0  0  1  0  0  0  0  0  0
  191.0080  177.3380  144.6290 P   0  0  1  0  0  0  0  0  0  0  0  0
  191.7290  175.9700  143.9430 O   0  0  0  0  0  0  0  0  0  0  0  0
  189.4330  177.5450  143.9700 O   0  0  0  0  0  0  0  0  0  0  0  0
  188.9470  176.7900  142.8970 C   0  0  0  0  0  0  0  0  0  0  0  0
  188.4390  175.6600  143.1250 O   0  0  0  0  0  0  0  0  0  0  0  0
  189.0110  177.2780  141.4890 C   0  0  0  0  0  1  0  0  0  0  0  0
  184.5840  179.1740  140.0170 C   0  0  0  0  0  2  0  0  0  0  0  0
  185.3720  178.1080  137.8900 C   0  0  0  0  0  0  0  0  0  0  0  0
  186.7200  178.1400  138.3710 N   0  0  0  0  0  2  0  0  0  0  0  0
  185.1310  177.7270  136.7110 O   0  0  0  0  0  0  0  0  0  0  0  0
  184.2960  178.5220  138.7480 N   0  0  0  0  0  0  0  0  0  0  0  0
  188.9710  175.8040  136.4610 C   0  0  2  0  0  3  0  0  0  0  0  0
  188.1570  176.3460  137.5700 C   0  0  1  0  0  3  0  0  0  0  0  0
  189.6180  176.1710  137.7500 N   0  0  2  0  0  0  0  0  0  0  0  0
  187.8630  177.8410  137.5230 C   0  0  2  0  0  3  0  0  0  0  0  0
  189.0970  178.5010  138.0730 C   0  0  0  0  0  2  0  0  0  0  0  0
  190.1970  177.5180  137.7660 C   0  0  0  0  0  2  0  0  0  0  0  0
  188.0960  176.8610  134.4930 O   0  0  0  0  0  1  0  0  0  0  0  0
  190.3750  176.2060  134.4360 C   0  0  0  0  0  1  0  0  0  0  0  0
  189.2410  176.7550  135.2800 C   0  0  2  0  0  3  0  0  0  0  0  0
  182.9110  178.4540  138.2950 C   0  0  0  0  0  2  0  0  0  0  0  0
  182.1280  177.4430  139.1220 C   0  0  0  0  0  2  0  0  0  0  0  0
  182.8220  176.2030  139.2040 O   0  0  0  0  0  0  0  0  0  0  0  0
  183.8570  174.6560  137.7690 C   0  0  0  0  0  2  0  0  0  0  0  0
  181.4380  174.7950  137.6280 C   0  0  0  0  0  1  0  0  0  0  0  0
  182.7440  175.2220  138.2090 C   0  0  0  0  0  0  0  0  0  0  0  0
  2  1  1  0  0  0  0
  3  2  2  0  0  0  0
  4  6  1  0  0  0  0
  4  7  1  0  0  0  0
  5  9  1  0  0  0  0
  5 10  1  1  0  0  0
  6  2  1  6  0  0  0
  6  5  1  0  0  0  0
  7  8  1  6  0  0  0
  7  9  1  0  0  0  0
 10 11  1  0  0  0  0
 11 13  1  0  0  0  0
 13 12  1  6  0  0  0
 13 14  1  0  0  0  0
 14 15  1  0  0  0  0
 17 18  1  0  0  0  0
 18 15  1  0  0  0  0
 18 16  2  0  0  0  0
 19 17  1  0  0  0  0
 20 21  1  0  0  0  0
 21 22  2  6  0  0  0
 21 19  1  0  0  0  0
 23 21  1  0  0  0  0
 24 25  2  0  0  0  0
 24 23  1  0  0  0  0
 26 24  1  0  0  0  0
 27  3  1  0  0  0  0
 28 29  1  0  0  0  0
 28 31  1  0  0  0  0
 30 28  2  0  0  0  0
 31 27  1  0  0  0  0
 32 40  1  6  0  0  0
 32 33  1  0  0  0  0
 32 34  1  0  0  0  0
 33 34  1  0  0  0  0
 34 37  1  0  0  0  0
 35 33  1  0  0  0  0
 35 36  1  0  0  0  0
 35 29  1  0  0  0  0
 37 36  1  0  0  0  0
 38 40  1  0  0  0  0
 39 40  1  0  0  0  0
 41 31  1  0  0  0  0
 41 42  1  0  0  0  0
 42 43  1  0  0  0  0
 44 46  2  0  0  0  0
 45 46  1  0  0  0  0
 46 43  1  0  0  0  0
M  END
>  <MODEL>
5

>  <REMARK>
 VINA RESULT:      -6.7      2.946      5.428
  Name = 
  19 active torsions:
  status: ('A' for Active; 'I' for Inactive)
    1  A    between atoms: C_2  and  C_7
    2  A    between atoms: C_2  and  N_24
    3  A    between atoms: C_6  and  C_23
    4  A    between atoms: C_6  and  N_43
    5  A    between atoms: C_7  and  O_8
    6  A    between atoms: O_8  and  C_45
    7  A    between atoms: C_10  and  O_30
    8  A    between atoms: C_11  and  C_36
    9  A    between atoms: N_13  and  C_37
   10  A    between atoms: C_14  and  C_34
   11  A    between atoms: O_15  and  C_34
   12  A    between atoms: O_15  and  C_46
   13  A    between atoms: C_18  and  C_27
   14  A    between atoms: C_21  and  C_26
   15  A    between atoms: N_22  and  O_31
   16  A    between atoms: N_24  and  C_26
   17  A    between atoms: O_30  and  P_38
   18  A    between atoms: O_31  and  P_38
   19  A    between atoms: N_43  and  C_46
                            x       y       z     vdW  Elec       q    Type
                         _______ _______ _______ _____ _____    ______ ____

>  <TORSDO>
F 19

$$$$
=
 OpenBabel10232408593D

 46 48  0  0  1  0  0  0  0  0999 V2000
  187.3120  176.7010  143.5810 F   0  0  0  0  0  0  0  0  0  0  0  0
  187.9670  177.4510  142.6550 C   0  0  0  0  0  0  0  0  0  0  0  0
  187.2810  177.9240  141.6100 C   0  0  0  0  0  3  0  0  0  0  0  0
  189.7140  177.9690  144.3310 C   0  0  0  0  0  2  0  0  0  0  0  0
  190.3020  176.6350  142.3790 C   0  0  2  0  0  3  0  0  0  0  0  0
  189.4180  177.7780  142.8580 C   0  0  1  0  0  3  0  0  0  0  0  0
  191.1180  177.4480  144.5220 C   0  0  1  0  0  3  0  0  0  0  0  0
  191.2810  176.8880  145.9190 C   0  0  0  0  0  1  0  0  0  0  0  0
  191.2900  176.3460  143.4950 C   0  0  0  0  0  2  0  0  0  0  0  0
  191.0580  177.0440  141.1270 C   0  0  0  0  0  2  0  0  0  0  0  0
  192.4310  177.1150  141.3850 O   0  0  0  0  0  0  0  0  0  0  0  0
  194.3570  176.9200  140.1860 O   0  0  0  0  0  1  0  0  0  0  0  0
  193.0220  177.3150  140.1350 C   0  0  1  0  0  3  0  0  0  0  0  0
  192.3230  176.5340  139.1240 N   0  0  0  0  0  2  0  0  0  0  0  0
  193.0270  176.7100  137.8600 C   0  0  0  0  0  2  0  0  0  0  0  0
  193.1520  174.3340  137.7660 O   0  0  0  0  0  0  0  0  0  0  0  0
  194.9120  175.4660  136.7330 N   0  0  0  0  0  2  0  0  0  0  0  0
  193.6790  175.4330  137.4530 C   0  0  0  0  0  0  0  0  0  0  0  0
  195.5330  174.3270  136.3360 O   0  0  0  0  0  0  0  0  0  0  0  0
  198.0210  173.6360  135.8580 O   0  0  0  0  0  0  0  0  0  0  0  0
  197.1730  174.5570  136.7060 P   0  0  1  0  0  0  0  0  0  0  0  0
  197.6060  176.1640  136.4060 O   0  0  0  0  0  1  0  0  0  0  0  0
  197.4250  174.1980  138.3700 O   0  0  0  0  0  0  0  0  0  0  0  0
  198.3050  174.9200  139.1830 C   0  0  0  0  0  0  0  0  0  0  0  0
  197.8390  175.7880  139.9680 O   0  0  0  0  0  0  0  0  0  0  0  0
  199.7790  174.6960  139.1520 C   0  0  0  0  0  1  0  0  0  0  0  0
  187.9050  178.7710  140.5420 C   0  0  0  0  0  2  0  0  0  0  0  0
  186.2340  178.1080  138.7940 C   0  0  0  0  0  0  0  0  0  0  0  0
  185.1920  178.7340  139.5500 N   0  0  0  0  0  2  0  0  0  0  0  0
  185.9520  177.4530  137.7530 O   0  0  0  0  0  0  0  0  0  0  0  0
  187.5990  178.2170  139.2300 N   0  0  0  0  0  0  0  0  0  0  0  0
  181.9230  179.8850  138.0810 C   0  0  2  0  0  3  0  0  0  0  0  0
  183.1860  179.9210  138.8480 C   0  0  1  0  0  3  0  0  0  0  0  0
  181.8930  180.0680  139.5580 N   0  0  2  0  0  0  0  0  0  0  0  0
  183.7830  178.5710  139.2290 C   0  0  2  0  0  3  0  0  0  0  0  0
  183.0240  178.1370  140.4520 C   0  0  0  0  0  2  0  0  0  0  0  0
  181.6910  178.8260  140.3100 C   0  0  0  0  0  2  0  0  0  0  0  0
  182.3730  178.0450  136.6090 O   0  0  0  0  0  1  0  0  0  0  0  0
  180.0960  178.6230  136.9390 C   0  0  0  0  0  1  0  0  0  0  0  0
  181.4720  178.5050  137.5670 C   0  0  2  0  0  3  0  0  0  0  0  0
  188.6820  177.6270  138.4500 C   0  0  0  0  0  2  0  0  0  0  0  0
  189.1320  178.5830  137.3530 C   0  0  0  0  0  2  0  0  0  0  0  0
  188.8280  178.0620  136.0640 O   0  0  0  0  0  0  0  0  0  0  0  0
  190.2560  176.2390  135.6630 C   0  0  0  0  0  2  0  0  0  0  0  0
  187.8790  175.8100  135.4200 C   0  0  0  0  0  1  0  0  0  0  0  0
  189.0230  176.7190  135.7220 C   0  0  0  0  0  0  0  0  0  0  0  0
  2  1  1  0  0  0  0
  3  2  2  0  0  0  0
  4  7  1  0  0  0  0
  5 10  1  6  0  0  0
  5  6  1  0  0  0  0
  5  9  1  0  0  0  0
  6  2  1  1  0  0  0
  6  4  1  0  0  0  0
  7  8  1  1  0  0  0
  9  7  1  0  0  0  0
 10 11  1  0  0  0  0
 13 12  1  1  0  0  0
 13 11  1  0  0  0  0
 14 13  1  0  0  0  0
 15 14  1  0  0  0  0
 17 18  1  0  0  0  0
 18 16  2  0  0  0  0
 18 15  1  0  0  0  0
 19 21  1  0  0  0  0
 19 17  1  0  0  0  0
 21 20  2  6  0  0  0
 21 23  1  0  0  0  0
 22 21  1  0  0  0  0
 23 24  1  0  0  0  0
 24 25  2  0  0  0  0
 26 24  1  0  0  0  0
 27  3  1  0  0  0  0
 28 31  1  0  0  0  0
 28 29  1  0  0  0  0
 30 28  2  0  0  0  0
 31 27  1  0  0  0  0
 32 40  1  1  0  0  0
 32 33  1  0  0  0  0
 32 34  1  0  0  0  0
 33 35  1  0  0  0  0
 33 34  1  0  0  0  0
 34 37  1  0  0  0  0
 35 29  1  0  0  0  0
 35 36  1  0  0  0  0
 37 36  1  0  0  0  0
 38 40  1  0  0  0  0
 39 40  1  0  0  0  0
 41 31  1  0  0  0  0
 42 41  1  0  0  0  0
 43 42  1  0  0  0  0
 44 46  2  0  0  0  0
 45 46  1  0  0  0  0
 46 43  1  0  0  0  0
M  END
>  <MODEL>
6

>  <REMARK>
 VINA RESULT:      -6.6      4.440      7.435
  Name = 
  19 active torsions:
  status: ('A' for Active; 'I' for Inactive)
    1  A    between atoms: C_2  and  C_7
    2  A    between atoms: C_2  and  N_24
    3  A    between atoms: C_6  and  C_23
    4  A    between atoms: C_6  and  N_43
    5  A    between atoms: C_7  and  O_8
    6  A    between atoms: O_8  and  C_45
    7  A    between atoms: C_10  and  O_30
    8  A    between atoms: C_11  and  C_36
    9  A    between atoms: N_13  and  C_37
   10  A    between atoms: C_14  and  C_34
   11  A    between atoms: O_15  and  C_34
   12  A    between atoms: O_15  and  C_46
   13  A    between atoms: C_18  and  C_27
   14  A    between atoms: C_21  and  C_26
   15  A    between atoms: N_22  and  O_31
   16  A    between atoms: N_24  and  C_26
   17  A    between atoms: O_30  and  P_38
   18  A    between atoms: O_31  and  P_38
   19  A    between atoms: N_43  and  C_46
                            x       y       z     vdW  Elec       q    Type
                         _______ _______ _______ _____ _____    ______ ____

>  <TORSDO>
F 19

$$$$
=
 OpenBabel10232408593D

 46 48  0  0  1  0  0  0  0  0999 V2000
  191.8400  179.3950  144.2430 F   0  0  0  0  0  0  0  0  0  0  0  0
  191.1380  178.3820  143.6680 C   0  0  0  0  0  0  0  0  0  0  0  0
  191.0740  178.3200  142.3350 C   0  0  0  0  0  3  0  0  0  0  0  0
  191.5700  176.5990  145.3310 C   0  0  0  0  0  2  0  0  0  0  0  0
  189.5620  177.9610  145.5470 C   0  0  2  0  0  3  0  0  0  0  0  0
  190.5090  177.3310  144.5360 C   0  0  1  0  0  3  0  0  0  0  0  0
  190.9160  176.2670  146.6500 C   0  0  1  0  0  3  0  0  0  0  0  0
  191.9530  176.2370  147.7530 C   0  0  0  0  0  1  0  0  0  0  0  0
  189.9170  177.3790  146.9050 C   0  0  0  0  0  2  0  0  0  0  0  0
  188.1230  177.6130  145.2080 C   0  0  0  0  0  2  0  0  0  0  0  0
  187.3760  177.4270  146.3760 O   0  0  0  0  0  0  0  0  0  0  0  0
  185.8780  179.1120  146.6970 O   0  0  0  0  0  1  0  0  0  0  0  0
  186.0970  177.8910  146.0620 C   0  0  1  0  0  3  0  0  0  0  0  0
  185.9690  178.0630  144.6210 N   0  0  0  0  0  2  0  0  0  0  0  0
  184.8710  178.9880  144.3780 C   0  0  0  0  0  2  0  0  0  0  0  0
  185.5050  179.6760  142.1880 O   0  0  0  0  0  0  0  0  0  0  0  0
  183.4040  178.6720  142.3480 N   0  0  0  0  0  2  0  0  0  0  0  0
  184.6320  179.1310  142.9140 C   0  0  0  0  0  0  0  0  0  0  0  0
  183.1530  178.7760  141.0190 O   0  0  0  0  0  0  0  0  0  0  0  0
  181.1910  177.2680  140.1380 O   0  0  0  0  0  0  0  0  0  0  0  0
  181.4760  178.5650  140.8610 P   0  0  1  0  0  0  0  0  0  0  0  0
  180.7580  178.5320  142.3920 O   0  0  0  0  0  1  0  0  0  0  0  0
  180.8320  179.8800  139.9560 O   0  0  0  0  0  0  0  0  0  0  0  0
  181.5080  180.4770  138.8870 C   0  0  0  0  0  0  0  0  0  0  0  0
  182.5330  179.9140  138.4210 O   0  0  0  0  0  0  0  0  0  0  0  0
  181.0530  181.7610  138.2780 C   0  0  0  0  0  1  0  0  0  0  0  0
  190.3400  177.2380  141.6030 C   0  0  0  0  0  2  0  0  0  0  0  0
  190.0480  177.2130  139.1130 C   0  0  0  0  0  0  0  0  0  0  0  0
  188.7140  177.7110  139.2620 N   0  0  0  0  0  2  0  0  0  0  0  0
  190.4750  176.8820  137.9720 O   0  0  0  0  0  0  0  0  0  0  0  0
  190.8950  177.0780  140.2660 N   0  0  0  0  0  0  0  0  0  0  0  0
  186.3950  176.1580  136.7380 C   0  0  2  0  0  3  0  0  0  0  0  0
  187.6090  176.3800  137.5500 C   0  0  1  0  0  3  0  0  0  0  0  0
  187.6800  176.5150  136.0750 N   0  0  2  0  0  0  0  0  0  0  0  0
  187.7700  177.7680  138.1580 C   0  0  2  0  0  3  0  0  0  0  0  0
  188.3240  178.6210  137.0520 C   0  0  0  0  0  2  0  0  0  0  0  0
  187.8310  177.9460  135.7980 C   0  0  0  0  0  2  0  0  0  0  0  0
  184.6510  177.2240  137.9940 O   0  0  0  0  0  1  0  0  0  0  0  0
  184.3390  177.0640  135.6480 C   0  0  0  0  0  1  0  0  0  0  0  0
  185.3300  177.2700  136.7780 C   0  0  2  0  0  3  0  0  0  0  0  0
  192.2730  176.6170  140.1320 C   0  0  0  0  0  2  0  0  0  0  0  0
  192.8870  177.1390  138.8390 C   0  0  0  0  0  2  0  0  0  0  0  0
  193.9200  176.2740  138.3790 O   0  0  0  0  0  0  0  0  0  0  0  0
  193.6010  174.2300  137.2650 C   0  0  0  0  0  2  0  0  0  0  0  0
  193.9550  176.1730  135.8550 C   0  0  0  0  0  1  0  0  0  0  0  0
  193.8200  175.5340  137.1960 C   0  0  0  0  0  0  0  0  0  0  0  0
  2  1  1  0  0  0  0
  3  2  2  0  0  0  0
  4  7  1  0  0  0  0
  5 10  1  6  0  0  0
  5  9  1  0  0  0  0
  6  2  1  1  0  0  0
  6  4  1  0  0  0  0
  6  5  1  0  0  0  0
  7  9  1  0  0  0  0
  7  8  1  1  0  0  0
 10 11  1  0  0  0  0
 13 11  1  0  0  0  0
 13 12  1  1  0  0  0
 14 13  1  0  0  0  0
 15 14  1  0  0  0  0
 16 18  2  0  0  0  0
 17 18  1  0  0  0  0
 18 15  1  0  0  0  0
 19 17  1  0  0  0  0
 21 20  2  6  0  0  0
 21 19  1  0  0  0  0
 21 22  1  0  0  0  0
 23 21  1  0  0  0  0
 24 23  1  0  0  0  0
 25 24  2  0  0  0  0
 26 24  1  0  0  0  0
 27  3  1  0  0  0  0
 28 29  1  0  0  0  0
 28 31  1  0  0  0  0
 30 28  2  0  0  0  0
 31 27  1  0  0  0  0
 32 40  1  1  0  0  0
 32 33  1  0  0  0  0
 33 35  1  0  0  0  0
 34 32  1  0  0  0  0
 34 33  1  0  0  0  0
 35 29  1  0  0  0  0
 36 35  1  0  0  0  0
 37 34  1  0  0  0  0
 37 36  1  0  0  0  0
 39 40  1  0  0  0  0
 40 38  1  0  0  0  0
 41 31  1  0  0  0  0
 42 41  1  0  0  0  0
 43 42  1  0  0  0  0
 45 46  1  0  0  0  0
 46 44  2  0  0  0  0
 46 43  1  0  0  0  0
M  END
>  <MODEL>
7

>  <REMARK>
 VINA RESULT:      -6.6      3.573      9.044
  Name = 
  19 active torsions:
  status: ('A' for Active; 'I' for Inactive)
    1  A    between atoms: C_2  and  C_7
    2  A    between atoms: C_2  and  N_24
    3  A    between atoms: C_6  and  C_23
    4  A    between atoms: C_6  and  N_43
    5  A    between atoms: C_7  and  O_8
    6  A    between atoms: O_8  and  C_45
    7  A    between atoms: C_10  and  O_30
    8  A    between atoms: C_11  and  C_36
    9  A    between atoms: N_13  and  C_37
   10  A    between atoms: C_14  and  C_34
   11  A    between atoms: O_15  and  C_34
   12  A    between atoms: O_15  and  C_46
   13  A    between atoms: C_18  and  C_27
   14  A    between atoms: C_21  and  C_26
   15  A    between atoms: N_22  and  O_31
   16  A    between atoms: N_24  and  C_26
   17  A    between atoms: O_30  and  P_38
   18  A    between atoms: O_31  and  P_38
   19  A    between atoms: N_43  and  C_46
                            x       y       z     vdW  Elec       q    Type
                         _______ _______ _______ _____ _____    ______ ____

>  <TORSDO>
F 19

$$$$
=
 OpenBabel10232408593D

 46 48  0  0  1  0  0  0  0  0999 V2000
  188.4400  175.4230  143.3410 F   0  0  0  0  0  0  0  0  0  0  0  0
  187.9960  176.6980  143.1770 C   0  0  0  0  0  0  0  0  0  0  0  0
  186.8440  177.0560  143.7530 C   0  0  0  0  0  3  0  0  0  0  0  0
  190.2730  177.6220  142.8770 C   0  0  0  0  0  2  0  0  0  0  0  0
  188.8400  177.3450  140.9270 C   0  0  2  0  0  3  0  0  0  0  0  0
  188.8330  177.6800  142.4110 C   0  0  1  0  0  3  0  0  0  0  0  0
  191.0980  177.8960  141.6430 C   0  0  1  0  0  3  0  0  0  0  0  0
  192.4280  177.1780  141.7340 C   0  0  0  0  0  1  0  0  0  0  0  0
  190.2910  177.3540  140.4800 C   0  0  0  0  0  2  0  0  0  0  0  0
  188.0630  178.3920  140.1470 C   0  0  0  0  0  2  0  0  0  0  0  0
  188.5680  178.5080  138.8480 O   0  0  0  0  0  0  0  0  0  0  0  0
  186.6590  178.7840  137.6350 O   0  0  0  0  0  1  0  0  0  0  0  0
  187.6280  177.8660  138.0390 C   0  0  1  0  0  3  0  0  0  0  0  0
  188.2830  177.3050  136.8650 N   0  0  0  0  0  2  0  0  0  0  0  0
  189.3350  176.4090  137.3270 C   0  0  0  0  0  2  0  0  0  0  0  0
  190.2820  176.8550  135.1880 O   0  0  0  0  0  0  0  0  0  0  0  0
  191.6930  175.7660  136.6950 N   0  0  0  0  0  2  0  0  0  0  0  0
  190.4500  176.3720  136.3390 C   0  0  0  0  0  0  0  0  0  0  0  0
  192.7340  175.7210  135.8270 O   0  0  0  0  0  0  0  0  0  0  0  0
  194.1260  175.8070  138.0540 O   0  0  0  0  0  1  0  0  0  0  0  0
  194.0360  175.0980  136.7210 P   0  0  1  0  0  0  0  0  0  0  0  0
  193.8150  173.4400  136.9730 O   0  0  0  0  0  0  0  0  0  0  0  0
  195.4910  175.3520  135.8380 O   0  0  0  0  0  0  0  0  0  0  0  0
  196.7620  175.2490  136.4110 C   0  0  0  0  0  0  0  0  0  0  0  0
  197.6030  176.1630  136.2050 O   0  0  0  0  0  0  0  0  0  0  0  0
  197.1570  174.0880  137.2610 C   0  0  0  0  0  1  0  0  0  0  0  0
  186.2750  178.4380  143.6450 C   0  0  0  0  0  2  0  0  0  0  0  0
  183.8000  178.3870  143.2480 C   0  0  0  0  0  0  0  0  0  0  0  0
  184.0260  178.0930  141.8650 N   0  0  0  0  0  2  0  0  0  0  0  0
  182.6280  178.5990  143.6640 O   0  0  0  0  0  0  0  0  0  0  0  0
  184.9110  178.4530  144.1560 N   0  0  0  0  0  0  0  0  0  0  0  0
  182.7070  178.4630  138.3590 C   0  0  2  0  0  3  0  0  0  0  0  0
  183.4810  178.7500  139.5850 C   0  0  1  0  0  3  0  0  0  0  0  0
  182.4700  179.7250  139.1130 N   0  0  2  0  0  0  0  0  0  0  0  0
  182.9630  178.1200  140.8730 C   0  0  2  0  0  3  0  0  0  0  0  0
  181.8530  179.0220  141.3330 C   0  0  0  0  0  2  0  0  0  0  0  0
  181.3530  179.6540  140.0600 C   0  0  0  0  0  2  0  0  0  0  0  0
  182.1810  176.1250  138.4640 O   0  0  0  0  0  1  0  0  0  0  0  0
  180.6500  177.5190  137.3060 C   0  0  0  0  0  1  0  0  0  0  0  0
  181.6050  177.3940  138.4770 C   0  0  2  0  0  3  0  0  0  0  0  0
  184.7000  178.7060  145.5780 C   0  0  0  0  0  2  0  0  0  0  0  0
  185.9830  179.2120  146.2250 C   0  0  0  0  0  2  0  0  0  0  0  0
  186.3520  178.3970  147.3330 O   0  0  0  0  0  0  0  0  0  0  0  0
  188.4600  177.6640  146.5980 C   0  0  0  0  0  2  0  0  0  0  0  0
  188.2300  178.0400  148.9850 C   0  0  0  0  0  1  0  0  0  0  0  0
  187.6760  178.0310  147.5990 C   0  0  0  0  0  0  0  0  0  0  0  0
  2  1  1  0  0  0  0
  2  3  2  0  0  0  0
  5 10  1  6  0  0  0
  5  6  1  0  0  0  0
  6  4  1  0  0  0  0
  6  2  1  1  0  0  0
  7  8  1  1  0  0  0
  7  4  1  0  0  0  0
  9  5  1  0  0  0  0
  9  7  1  0  0  0  0
 11 10  1  0  0  0  0
 13 12  1  6  0  0  0
 13 11  1  0  0  0  0
 14 15  1  0  0  0  0
 14 13  1  0  0  0  0
 16 18  2  0  0  0  0
 18 17  1  0  0  0  0
 18 15  1  0  0  0  0
 19 17  1  0  0  0  0
 19 21  1  0  0  0  0
 21 22  2  1  0  0  0
 21 20  1  0  0  0  0
 23 24  1  0  0  0  0
 23 21  1  0  0  0  0
 24 26  1  0  0  0  0
 25 24  2  0  0  0  0
 27  3  1  0  0  0  0
 27 31  1  0  0  0  0
 28 30  2  0  0  0  0
 28 31  1  0  0  0  0
 29 28  1  0  0  0  0
 31 41  1  0  0  0  0
 32 40  1  1  0  0  0
 32 34  1  0  0  0  0
 32 33  1  0  0  0  0
 33 35  1  0  0  0  0
 34 33  1  0  0  0  0
 34 37  1  0  0  0  0
 35 36  1  0  0  0  0
 35 29  1  0  0  0  0
 37 36  1  0  0  0  0
 38 40  1  0  0  0  0
 39 40  1  0  0  0  0
 41 42  1  0  0  0  0
 42 43  1  0  0  0  0
 43 46  1  0  0  0  0
 44 46  2  0  0  0  0
 46 45  1  0  0  0  0
M  END
>  <MODEL>
8

>  <REMARK>
 VINA RESULT:      -6.4      3.967      7.619
  Name = 
  19 active torsions:
  status: ('A' for Active; 'I' for Inactive)
    1  A    between atoms: C_2  and  C_7
    2  A    between atoms: C_2  and  N_24
    3  A    between atoms: C_6  and  C_23
    4  A    between atoms: C_6  and  N_43
    5  A    between atoms: C_7  and  O_8
    6  A    between atoms: O_8  and  C_45
    7  A    between atoms: C_10  and  O_30
    8  A    between atoms: C_11  and  C_36
    9  A    between atoms: N_13  and  C_37
   10  A    between atoms: C_14  and  C_34
   11  A    between atoms: O_15  and  C_34
   12  A    between atoms: O_15  and  C_46
   13  A    between atoms: C_18  and  C_27
   14  A    between atoms: C_21  and  C_26
   15  A    between atoms: N_22  and  O_31
   16  A    between atoms: N_24  and  C_26
   17  A    between atoms: O_30  and  P_38
   18  A    between atoms: O_31  and  P_38
   19  A    between atoms: N_43  and  C_46
                            x       y       z     vdW  Elec       q    Type
                         _______ _______ _______ _____ _____    ______ ____

>  <TORSDO>
F 19

$$$$
=
 OpenBabel10232408593D

 46 48  0  0  1  0  0  0  0  0999 V2000
  192.7910  178.1430  140.2870 F   0  0  0  0  0  0  0  0  0  0  0  0
  191.7810  177.2590  140.0640 C   0  0  0  0  0  0  0  0  0  0  0  0
  191.6810  176.6900  138.8580 C   0  0  0  0  0  3  0  0  0  0  0  0
  191.6250  176.7020  142.4710 C   0  0  0  0  0  2  0  0  0  0  0  0
  189.8550  178.0210  141.4420 C   0  0  2  0  0  3  0  0  0  0  0  0
  190.8500  176.8990  141.1850 C   0  0  1  0  0  3  0  0  0  0  0  0
  190.7060  177.1900  143.5640 C   0  0  1  0  0  3  0  0  0  0  0  0
  191.5160  177.7470  144.7160 C   0  0  0  0  0  1  0  0  0  0  0  0
  189.8690  178.2880  142.9370 C   0  0  0  0  0  2  0  0  0  0  0  0
  188.4600  177.5940  141.0170 C   0  0  0  0  0  2  0  0  0  0  0  0
  187.4960  178.1860  141.8400 O   0  0  0  0  0  0  0  0  0  0  0  0
  186.2730  178.3530  139.9250 O   0  0  0  0  0  1  0  0  0  0  0  0
  186.7990  179.0620  141.0040 C   0  0  1  0  0  3  0  0  0  0  0  0
  185.7160  179.6970  141.7420 N   0  0  0  0  0  2  0  0  0  0  0  0
  184.6520  178.7150  141.9050 C   0  0  0  0  0  2  0  0  0  0  0  0
  182.9720  178.2690  143.5330 O   0  0  0  0  0  0  0  0  0  0  0  0
  184.8160  179.4700  144.3090 N   0  0  0  0  0  2  0  0  0  0  0  0
  184.0910  178.7880  143.2840 C   0  0  0  0  0  0  0  0  0  0  0  0
  184.3440  179.5510  145.5780 O   0  0  0  0  0  0  0  0  0  0  0  0
  185.9810  180.0090  147.5800 O   0  0  0  0  0  1  0  0  0  0  0  0
  185.5950  178.9610  146.5610 P   0  0  1  0  0  0  0  0  0  0  0  0
  185.0830  177.5570  147.3550 O   0  0  0  0  0  0  0  0  0  0  0  0
  186.9540  178.5940  145.5720 O   0  0  0  0  0  0  0  0  0  0  0  0
  187.6770  177.4010  145.6770 C   0  0  0  0  0  0  0  0  0  0  0  0
  187.5420  176.5240  144.7840 O   0  0  0  0  0  0  0  0  0  0  0  0
  188.6050  177.1330  146.8140 C   0  0  0  0  0  1  0  0  0  0  0  0
  190.6150  175.6950  138.5130 C   0  0  0  0  0  2  0  0  0  0  0  0
  191.9370  174.7480  136.6060 C   0  0  0  0  0  0  0  0  0  0  0  0
  192.9660  174.3440  137.5170 N   0  0  0  0  0  2  0  0  0  0  0  0
  192.1050  174.6090  135.3630 O   0  0  0  0  0  0  0  0  0  0  0  0
  190.7200  175.3230  137.1100 N   0  0  0  0  0  0  0  0  0  0  0  0
  196.0830  172.2660  137.8780 C   0  0  2  0  0  3  0  0  0  0  0  0
  194.9830  173.1870  138.2350 C   0  0  1  0  0  3  0  0  0  0  0  0
  196.3820  173.6760  138.2520 N   0  0  2  0  0  0  0  0  0  0  0  0
  194.2620  173.8590  137.0720 C   0  0  2  0  0  3  0  0  0  0  0  0
  195.1380  175.0170  136.6830 C   0  0  0  0  0  2  0  0  0  0  0  0
  196.5170  174.5810  137.1060 C   0  0  0  0  0  2  0  0  0  0  0  0
  195.2500  171.0050  136.0150 O   0  0  0  0  0  1  0  0  0  0  0  0
  197.5990  171.3110  136.1400 C   0  0  0  0  0  1  0  0  0  0  0  0
  196.2330  171.9220  136.3840 C   0  0  2  0  0  3  0  0  0  0  0  0
  189.6410  175.6990  136.2030 C   0  0  0  0  0  2  0  0  0  0  0  0
  188.3030  175.6820  136.9310 C   0  0  0  0  0  2  0  0  0  0  0  0
  188.1050  176.8860  137.6650 O   0  0  0  0  0  0  0  0  0  0  0  0
  188.9920  179.0590  137.5540 C   0  0  0  0  0  2  0  0  0  0  0  0
  187.2900  178.5130  135.9120 C   0  0  0  0  0  1  0  0  0  0  0  0
  188.1560  178.1530  137.0730 C   0  0  0  0  0  0  0  0  0  0  0  0
  2  1  1  0  0  0  0
  3  2  2  0  0  0  0
  4  7  1  0  0  0  0
  5 10  1  1  0  0  0
  5  9  1  0  0  0  0
  6  2  1  6  0  0  0
  6  5  1  0  0  0  0
  6  4  1  0  0  0  0
  7  8  1  1  0  0  0
  9  7  1  0  0  0  0
 10 11  1  0  0  0  0
 13 12  1  6  0  0  0
 13 14  1  0  0  0  0
 13 11  1  0  0  0  0
 14 15  1  0  0  0  0
 15 18  1  0  0  0  0
 17 19  1  0  0  0  0
 18 16  2  0  0  0  0
 18 17  1  0  0  0  0
 19 21  1  0  0  0  0
 21 22  2  1  0  0  0
 21 20  1  0  0  0  0
 23 24  1  0  0  0  0
 23 21  1  0  0  0  0
 24 26  1  0  0  0  0
 25 24  2  0  0  0  0
 27  3  1  0  0  0  0
 28 31  1  0  0  0  0
 28 29  1  0  0  0  0
 30 28  2  0  0  0  0
 31 27  1  0  0  0  0
 32 40  1  6  0  0  0
 32 33  1  0  0  0  0
 32 34  1  0  0  0  0
 33 34  1  0  0  0  0
 35 29  1  0  0  0  0
 35 33  1  0  0  0  0
 36 35  1  0  0  0  0
 36 37  1  0  0  0  0
 37 34  1  0  0  0  0
 38 40  1  0  0  0  0
 39 40  1  0  0  0  0
 41 42  1  0  0  0  0
 41 31  1  0  0  0  0
 42 43  1  0  0  0  0
 45 46  1  0  0  0  0
 46 44  2  0  0  0  0
 46 43  1  0  0  0  0
M  END
>  <MODEL>
9

>  <REMARK>
 VINA RESULT:      -6.3      5.015      8.936
  Name = 
  19 active torsions:
  status: ('A' for Active; 'I' for Inactive)
    1  A    between atoms: C_2  and  C_7
    2  A    between atoms: C_2  and  N_24
    3  A    between atoms: C_6  and  C_23
    4  A    between atoms: C_6  and  N_43
    5  A    between atoms: C_7  and  O_8
    6  A    between atoms: O_8  and  C_45
    7  A    between atoms: C_10  and  O_30
    8  A    between atoms: C_11  and  C_36
    9  A    between atoms: N_13  and  C_37
   10  A    between atoms: C_14  and  C_34
   11  A    between atoms: O_15  and  C_34
   12  A    between atoms: O_15  and  C_46
   13  A    between atoms: C_18  and  C_27
   14  A    between atoms: C_21  and  C_26
   15  A    between atoms: N_22  and  O_31
   16  A    between atoms: N_24  and  C_26
   17  A    between atoms: O_30  and  P_38
   18  A    between atoms: O_31  and  P_38
   19  A    between atoms: N_43  and  C_46
                            x       y       z     vdW  Elec       q    Type
                         _______ _______ _______ _____ _____    ______ ____

>  <TORSDO>
F 19

$$$$
