=
 OpenBabel10232412063D

 66 71  0  0  1  0  0  0  0  0999 V2000
  191.7290  177.8310  140.4480 C   0  0  2  0  0  3  0  0  0  0  0  0
  190.6230  176.9910  144.0680 C   0  0  2  0  0  3  0  0  0  0  0  0
  191.8720  177.5840  141.9560 C   0  0  2  0  0  3  0  0  0  0  0  0
  190.8790  176.1490  142.5090 S   0  0  0  0  0  0  0  0  0  0  0  0
  191.3780  178.7960  142.7480 C   0  0  0  0  0  2  0  0  0  0  0  0
  190.9290  178.2810  144.0680 C   0  0  0  0  0  2  0  0  0  0  0  0
  190.2380  176.2760  145.3270 C   0  0  1  0  0  3  0  0  0  0  0  0
  191.2480  176.4350  146.2820 O   0  0  0  0  0  1  0  0  0  0  0  0
  187.2040  178.5990  147.3450 C   0  0  0  0  0  2  0  0  0  0  0  0
  188.9010  176.7940  145.8620 C   0  0  2  0  0  3  0  0  0  0  0  0
  187.2470  178.6930  145.8170 C   0  0  1  0  0  3  0  0  0  0  0  0
  188.5860  178.1800  145.2870 C   0  0  0  0  0  2  0  0  0  0  0  0
  188.9420  176.8750  147.3230 N   0  0  0  0  0  2  0  0  0  0  0  0
  187.6050  177.2010  147.8120 C   0  0  0  0  0  2  0  0  0  0  0  0
  186.0930  177.9340  145.1710 C   0  0  0  0  0  2  0  0  0  0  0  0
  183.7720  178.3400  144.1020 N   0  0  0  0  0  1  0  0  0  0  0  0
  184.4950  178.6310  145.6850 S   0  0  0  0  0  0  0  0  0  0  0  0
  189.7440  177.9920  139.0550 N   0  0  0  0  0  0  0  0  0  0  0  0
  190.4300  177.3140  139.9020 C   0  0  0  0  0  3  0  0  0  0  0  0
  188.5110  177.4660  138.5320 C   0  0  1  0  0  3  0  0  0  0  0  0
  188.7820  176.1960  137.7400 C   0  0  0  0  0  2  0  0  0  0  0  0
  187.5530  175.7910  136.9490 C   0  0  0  0  0  2  0  0  0  0  0  0
  187.2790  174.3780  137.1510 N   0  0  0  0  0  2  0  0  0  0  0  0
  185.8310  174.1930  137.1090 C   0  0  1  0  0  3  0  0  0  0  0  0
  185.2310  175.0930  136.1300 N   0  0  0  0  0  2  0  0  0  0  0  0
  183.7580  176.4170  137.7560 C   0  0  0  0  0  3  0  0  0  0  0  0
  182.9190  177.4260  137.5840 C   0  0  0  0  0  0  0  0  0  0  0  0
  183.8110  176.9040  135.5200 N   0  0  0  0  0  0  0  0  0  0  0  0
  182.8750  177.8240  136.1430 C   0  0  0  0  0  2  0  0  0  0  0  0
  184.2910  176.1300  136.4340 C   0  0  0  0  0  0  0  0  0  0  0  0
  180.9320  179.9670  139.5530 C   0  0  0  0  0  0  0  0  0  0  0  0
  180.4080  181.3480  139.4080 C   0  0  0  0  0  1  0  0  0  0  0  0
  181.8810  177.3830  139.8500 C   0  0  0  0  0  3  0  0  0  0  0  0
  180.6960  179.2460  140.7220 C   0  0  0  0  0  3  0  0  0  0  0  0
  182.1490  178.0720  138.6620 C   0  0  0  0  0  0  0  0  0  0  0  0
  181.1710  177.9780  140.8440 N   0  0  0  0  0  0  0  0  0  0  0  0
  181.6640  179.3800  138.5230 C   0  0  0  0  0  3  0  0  0  0  0  0
  183.7730  171.5230  135.2720 C   0  0  0  0  0  2  0  0  0  0  0  0
  184.1370  172.4080  137.4670 N   0  0  0  0  0  2  0  0  0  0  0  0
  183.6270  171.2560  136.7500 C   0  0  0  0  0  2  0  0  0  0  0  0
  185.3270  172.4210  135.0550 S   0  0  0  0  0  0  0  0  0  0  0  0
  185.4140  172.7390  136.8450 C   0  0  1  0  0  3  0  0  0  0  0  0
  187.6460  177.1840  139.5890 O   0  0  0  0  0  0  0  0  0  0  0  0
  186.6030  178.1050  139.4580 C   0  0  0  0  0  2  0  0  0  0  0  0
  184.8520  179.2160  140.9910 C   0  0  0  0  0  1  0  0  0  0  0  0
  186.9810  178.3940  141.8600 C   0  0  0  0  0  2  0  0  0  0  0  0
  186.1980  178.6020  140.8050 C   0  0  0  0  0  0  0  0  0  0  0  0
  192.8920  177.2140  139.6860 C   0  0  0  0  0  2  0  0  0  0  0  0
  192.9370  175.8770  137.6390 C   0  0  0  0  0  3  0  0  0  0  0  0
  192.3800  176.1160  138.8210 C   0  0  0  0  0  3  0  0  0  0  0  0
  192.4260  174.7690  136.7710 C   0  0  2  0  0  3  0  0  0  0  0  0
  193.5510  173.8580  136.3880 C   0  0  0  0  0  0  0  0  0  0  0  0
  193.9220  173.7750  135.1860 O   0  0  0  0  0  0  0  0  0  0  0  0
  194.2150  173.1020  137.4040 N   0  0  0  0  0  2  0  0  0  0  0  0
  194.8550  170.7370  137.3480 C   0  0  0  0  0  1  0  0  0  0  0  0
  195.3100  172.1700  137.1480 C   0  0  2  0  0  3  0  0  0  0  0  0
  196.4390  172.4730  138.0160 N   0  0  0  0  0  2  0  0  0  0  0  0
  197.7780  174.4160  137.4730 C   0  0  0  0  0  1  0  0  0  0  0  0
  197.5300  172.9500  137.1830 C   0  0  2  0  0  3  0  0  0  0  0  0
  197.1060  172.7510  135.4240 S   0  0  0  0  0  1  0  0  0  0  0  0
  191.6880  175.2960  135.5720 C   0  0  0  0  0  0  0  0  0  0  0  0
  191.3860  176.5190  135.5090 O   0  0  0  0  0  0  0  0  0  0  0  0
  191.2590  174.4170  134.5750 O   0  0  0  0  0  0  0  0  0  0  0  0
  190.0890  173.6250  134.7260 C   0  0  0  0  0  3  0  0  0  0  0  0
  190.4070  172.1930  134.3490 C   0  0  0  0  0  2  0  0  0  0  0  0
  190.3250  172.5890  135.8060 C   0  0  0  0  0  2  0  0  0  0  0  0
  1 48  1  6  0  0  0
  2  6  1  0  0  0  0
  2  7  1  1  0  0  0
  3  1  1  6  0  0  0
  3  4  1  0  0  0  0
  3  5  1  0  0  0  0
  4  2  1  0  0  0  0
  5  6  1  0  0  0  0
  7  8  1  1  0  0  0
  9 14  1  0  0  0  0
 10  7  1  6  0  0  0
 10 13  1  0  0  0  0
 11 15  1  6  0  0  0
 11  9  1  0  0  0  0
 12 11  1  0  0  0  0
 12 10  1  0  0  0  0
 13 14  1  0  0  0  0
 15 17  1  0  0  0  0
 16 17  1  0  0  0  0
 18 19  2  0  0  0  0
 19  1  1  0  0  0  0
 20 21  1  1  0  0  0
 20 18  1  0  0  0  0
 20 43  1  0  0  0  0
 22 23  1  0  0  0  0
 22 21  1  0  0  0  0
 24 25  1  6  0  0  0
 24 23  1  0  0  0  0
 25 30  1  0  0  0  0
 27 26  2  0  0  0  0
 27 35  1  0  0  0  0
 28 29  1  0  0  0  0
 28 30  2  0  0  0  0
 29 27  1  0  0  0  0
 30 26  1  0  0  0  0
 31 34  1  0  0  0  0
 32 31  1  0  0  0  0
 33 36  1  0  0  0  0
 34 36  2  0  0  0  0
 35 33  2  0  0  0  0
 37 35  1  0  0  0  0
 37 31  2  0  0  0  0
 38 40  1  0  0  0  0
 40 39  1  0  0  0  0
 41 38  1  0  0  0  0
 41 42  1  0  0  0  0
 42 24  1  6  0  0  0
 42 39  1  0  0  0  0
 44 43  1  0  0  0  0
 44 47  1  0  0  0  0
 47 45  1  0  0  0  0
 47 46  2  0  0  0  0
 49 50  2  0  0  0  0
 50 48  1  0  0  0  0
 51 49  1  6  0  0  0
 52 51  1  0  0  0  0
 52 54  1  0  0  0  0
 53 52  2  0  0  0  0
 56 55  1  1  0  0  0
 56 54  1  0  0  0  0
 56 57  1  0  0  0  0
 59 58  1  6  0  0  0
 59 57  1  0  0  0  0
 60 59  1  0  0  0  0
 61 51  1  0  0  0  0
 62 61  2  0  0  0  0
 63 64  1  0  0  0  0
 63 61  1  0  0  0  0
 64 66  1  0  0  0  0
 65 64  1  0  0  0  0
 65 66  1  0  0  0  0
M  END
>  <MODEL>
1

>  <REMARK>
 VINA RESULT:      -4.8      0.000      0.000
  Name = 
  27 active torsions:
  status: ('A' for Active; 'I' for Inactive)
    1  A    between atoms: C_3  and  C_5
    2  A    between atoms: C_3  and  C_14
    3  A    between atoms: C_6  and  N_10
    4  A    between atoms: C_6  and  N_50
    5  A    between atoms: C_6  and  C_61
    6  A    between atoms: O_7  and  C_37
    7  A    between atoms: O_7  and  C_45
    8  A    between atoms: C_8  and  C_17
    9  A    between atoms: C_9  and  C_42
   10  A    between atoms: N_11  and  C_37
   11  A    between atoms: C_13  and  C_42
   12  A    between atoms: C_13  and  O_53
   13  A    between atoms: C_17  and  C_18
   14  A    between atoms: C_17  and  C_26
   15  A    between atoms: C_18  and  C_48
   16  A    between atoms: C_23  and  C_49
   17  A    between atoms: C_27  and  C_28
   18  A    between atoms: C_27  and  C_37
   19  A    between atoms: C_28  and  N_50
   20  A    between atoms: C_29  and  C_55
   21  A    between atoms: C_31  and  C_42
   22  A    between atoms: C_35  and  O_53
   23  A    between atoms: C_44  and  C_45
   24  A    between atoms: C_46  and  N_59
   25  A    between atoms: C_46  and  N_66
   26  A    between atoms: C_51  and  N_59
   27  A    between atoms: C_55  and  S_60
                            x       y       z     vdW  Elec       q    Type
                         _______ _______ _______ _____ _____    ______ ____

>  <TORSDO>
F 27

$$$$
=
 OpenBabel10232412063D

 66 71  0  0  1  0  0  0  0  0999 V2000
  186.9890  178.1630  140.9290 C   0  0  2  0  0  3  0  0  0  0  0  0
  190.0030  177.0780  143.1130 C   0  0  2  0  0  3  0  0  0  0  0  0
  187.8510  178.0210  142.1900 C   0  0  2  0  0  3  0  0  0  0  0  0
  189.6280  178.2740  141.8340 S   0  0  0  0  0  0  0  0  0  0  0  0
  187.7120  176.6170  142.7800 C   0  0  0  0  0  2  0  0  0  0  0  0
  188.9760  176.3420  143.5130 C   0  0  0  0  0  2  0  0  0  0  0  0
  191.3350  177.0060  143.7970 C   0  0  1  0  0  3  0  0  0  0  0  0
  191.9330  178.2700  143.7880 O   0  0  0  0  0  1  0  0  0  0  0  0
  192.0090  176.1180  147.9710 C   0  0  0  0  0  2  0  0  0  0  0  0
  191.1860  176.4870  145.2290 C   0  0  2  0  0  3  0  0  0  0  0  0
  190.9070  177.1320  147.6470 C   0  0  1  0  0  3  0  0  0  0  0  0
  191.0620  177.6520  146.2190 C   0  0  0  0  0  2  0  0  0  0  0  0
  192.3450  175.6680  145.5880 N   0  0  0  0  0  2  0  0  0  0  0  0
  192.0940  175.0470  146.8860 C   0  0  0  0  0  2  0  0  0  0  0  0
  189.5170  176.5390  147.8500 C   0  0  0  0  0  2  0  0  0  0  0  0
  187.8620  178.4560  148.3830 N   0  0  0  0  0  1  0  0  0  0  0  0
  188.2660  177.5060  146.9520 S   0  0  0  0  0  0  0  0  0  0  0  0
  188.8220  177.2640  139.6100 N   0  0  0  0  0  0  0  0  0  0  0  0
  187.7920  178.0280  139.6670 C   0  0  0  0  0  3  0  0  0  0  0  0
  189.5640  177.1380  138.3840 C   0  0  1  0  0  3  0  0  0  0  0  0
  190.9550  176.5940  138.6710 C   0  0  0  0  0  2  0  0  0  0  0  0
  191.4620  175.7840  137.4940 C   0  0  0  0  0  2  0  0  0  0  0  0
  192.9100  175.6720  137.5580 N   0  0  0  0  0  2  0  0  0  0  0  0
  193.4140  175.6070  136.1880 C   0  0  1  0  0  3  0  0  0  0  0  0
  194.7290  176.2360  136.1000 N   0  0  0  0  0  2  0  0  0  0  0  0
  196.1310  174.1020  136.3170 C   0  0  0  0  0  3  0  0  0  0  0  0
  197.4370  173.8860  136.3140 C   0  0  0  0  0  0  0  0  0  0  0  0
  197.1060  176.1550  136.0390 N   0  0  0  0  0  0  0  0  0  0  0  0
  198.1760  175.1760  136.1400 C   0  0  0  0  0  2  0  0  0  0  0  0
  195.9780  175.5380  136.1400 C   0  0  0  0  0  0  0  0  0  0  0  0
  198.0670  170.1670  136.0930 C   0  0  0  0  0  0  0  0  0  0  0  0
  197.4150  168.9410  135.5690 C   0  0  0  0  0  1  0  0  0  0  0  0
  199.3200  172.4360  137.0660 C   0  0  0  0  0  3  0  0  0  0  0  0
  199.3080  170.0880  136.7210 C   0  0  0  0  0  3  0  0  0  0  0  0
  198.0700  172.5630  136.4490 C   0  0  0  0  0  0  0  0  0  0  0  0
  199.9040  171.2160  137.1900 N   0  0  0  0  0  0  0  0  0  0  0  0
  197.4450  171.4070  135.9600 C   0  0  0  0  0  3  0  0  0  0  0  0
  191.7210  172.3610  135.0330 C   0  0  0  0  0  2  0  0  0  0  0  0
  193.2770  173.1700  136.6630 N   0  0  0  0  0  2  0  0  0  0  0  0
  192.8230  171.9710  135.9870 C   0  0  0  0  0  2  0  0  0  0  0  0
  192.1720  173.9710  134.3460 S   0  0  0  0  0  0  0  0  0  0  0  0
  193.4510  174.1790  135.6250 C   0  0  1  0  0  3  0  0  0  0  0  0
  188.8910  176.2710  137.5240 O   0  0  0  0  0  0  0  0  0  0  0  0
  188.6400  177.0240  136.3740 C   0  0  0  0  0  2  0  0  0  0  0  0
  186.7640  175.7520  135.1450 C   0  0  0  0  0  1  0  0  0  0  0  0
  186.3000  177.7340  136.4940 C   0  0  0  0  0  2  0  0  0  0  0  0
  187.2040  176.8980  135.9910 C   0  0  0  0  0  0  0  0  0  0  0  0
  186.2440  179.4900  140.9280 C   0  0  0  0  0  2  0  0  0  0  0  0
  184.2030  178.1660  141.1660 C   0  0  0  0  0  3  0  0  0  0  0  0
  184.8700  179.2780  141.4560 C   0  0  0  0  0  3  0  0  0  0  0  0
  182.8220  177.9490  141.7020 C   0  0  2  0  0  3  0  0  0  0  0  0
  181.8060  178.2630  140.6460 C   0  0  0  0  0  0  0  0  0  0  0  0
  180.6440  177.7780  140.7170 O   0  0  0  0  0  0  0  0  0  0  0  0
  182.1620  179.1380  139.5730 N   0  0  0  0  0  2  0  0  0  0  0  0
  181.2860  178.4480  137.3900 C   0  0  0  0  0  1  0  0  0  0  0  0
  181.2640  179.5020  138.4810 C   0  0  2  0  0  3  0  0  0  0  0  0
  181.6320  180.8030  137.9410 N   0  0  0  0  0  2  0  0  0  0  0  0
  179.9820  181.1940  139.6680 C   0  0  0  0  0  1  0  0  0  0  0  0
  181.0420  181.8250  138.7900 C   0  0  2  0  0  3  0  0  0  0  0  0
  180.2800  183.1230  137.7660 S   0  0  0  0  0  1  0  0  0  0  0  0
  182.5860  178.7270  142.9670 C   0  0  0  0  0  0  0  0  0  0  0  0
  182.0270  179.8570  142.9130 O   0  0  0  0  0  0  0  0  0  0  0  0
  183.0670  178.2420  144.1850 O   0  0  0  0  0  0  0  0  0  0  0  0
  183.7220  179.0850  145.1220 C   0  0  0  0  0  3  0  0  0  0  0  0
  185.0200  178.4340  145.5520 C   0  0  0  0  0  2  0  0  0  0  0  0
  185.0390  179.5520  144.5350 C   0  0  0  0  0  2  0  0  0  0  0  0
  1 19  1  6  0  0  0
  2  6  1  0  0  0  0
  2  7  1  1  0  0  0
  3  1  1  6  0  0  0
  3  5  1  0  0  0  0
  4  3  1  0  0  0  0
  4  2  1  0  0  0  0
  5  6  1  0  0  0  0
  7  8  1  1  0  0  0
 10  7  1  6  0  0  0
 10 13  1  0  0  0  0
 10 12  1  0  0  0  0
 11 15  1  6  0  0  0
 11  9  1  0  0  0  0
 12 11  1  0  0  0  0
 13 14  1  0  0  0  0
 14  9  1  0  0  0  0
 17 15  1  0  0  0  0
 17 16  1  0  0  0  0
 18 19  2  0  0  0  0
 20 21  1  1  0  0  0
 20 18  1  0  0  0  0
 22 23  1  0  0  0  0
 22 21  1  0  0  0  0
 24 25  1  1  0  0  0
 24 23  1  0  0  0  0
 25 30  1  0  0  0  0
 27 26  2  0  0  0  0
 27 35  1  0  0  0  0
 28 30  2  0  0  0  0
 28 29  1  0  0  0  0
 29 27  1  0  0  0  0
 30 26  1  0  0  0  0
 31 34  1  0  0  0  0
 32 31  1  0  0  0  0
 33 36  1  0  0  0  0
 34 36  2  0  0  0  0
 35 33  2  0  0  0  0
 37 31  2  0  0  0  0
 37 35  1  0  0  0  0
 38 40  1  0  0  0  0
 40 39  1  0  0  0  0
 41 38  1  0  0  0  0
 41 42  1  0  0  0  0
 42 24  1  1  0  0  0
 42 39  1  0  0  0  0
 43 20  1  0  0  0  0
 44 43  1  0  0  0  0
 45 47  1  0  0  0  0
 47 44  1  0  0  0  0
 47 46  2  0  0  0  0
 48  1  1  0  0  0  0
 48 50  1  0  0  0  0
 49 50  2  0  0  0  0
 51 49  1  6  0  0  0
 51 61  1  0  0  0  0
 52 53  2  0  0  0  0
 52 51  1  0  0  0  0
 54 52  1  0  0  0  0
 56 55  1  6  0  0  0
 56 54  1  0  0  0  0
 57 56  1  0  0  0  0
 57 59  1  0  0  0  0
 59 58  1  1  0  0  0
 60 59  1  0  0  0  0
 61 63  1  0  0  0  0
 62 61  2  0  0  0  0
 63 64  1  0  0  0  0
 64 65  1  0  0  0  0
 66 64  1  0  0  0  0
 66 65  1  0  0  0  0
M  END
>  <MODEL>
2

>  <REMARK>
 VINA RESULT:      -4.4      2.948     11.279
  Name = 
  27 active torsions:
  status: ('A' for Active; 'I' for Inactive)
    1  A    between atoms: C_3  and  C_5
    2  A    between atoms: C_3  and  C_14
    3  A    between atoms: C_6  and  N_10
    4  A    between atoms: C_6  and  N_50
    5  A    between atoms: C_6  and  C_61
    6  A    between atoms: O_7  and  C_37
    7  A    between atoms: O_7  and  C_45
    8  A    between atoms: C_8  and  C_17
    9  A    between atoms: C_9  and  C_42
   10  A    between atoms: N_11  and  C_37
   11  A    between atoms: C_13  and  C_42
   12  A    between atoms: C_13  and  O_53
   13  A    between atoms: C_17  and  C_18
   14  A    between atoms: C_17  and  C_26
   15  A    between atoms: C_18  and  C_48
   16  A    between atoms: C_23  and  C_49
   17  A    between atoms: C_27  and  C_28
   18  A    between atoms: C_27  and  C_37
   19  A    between atoms: C_28  and  N_50
   20  A    between atoms: C_29  and  C_55
   21  A    between atoms: C_31  and  C_42
   22  A    between atoms: C_35  and  O_53
   23  A    between atoms: C_44  and  C_45
   24  A    between atoms: C_46  and  N_59
   25  A    between atoms: C_46  and  N_66
   26  A    between atoms: C_51  and  N_59
   27  A    between atoms: C_55  and  S_60
                            x       y       z     vdW  Elec       q    Type
                         _______ _______ _______ _____ _____    ______ ____

>  <TORSDO>
F 27

$$$$
=
 OpenBabel10232412063D

 66 71  0  0  1  0  0  0  0  0999 V2000
  190.1100  176.1820  138.2000 C   0  0  2  0  0  3  0  0  0  0  0  0
  186.8660  176.0910  136.0780 C   0  0  2  0  0  3  0  0  0  0  0  0
  189.0410  176.6770  137.2170 C   0  0  2  0  0  3  0  0  0  0  0  0
  187.3490  176.2810  137.7920 S   0  0  0  0  0  0  0  0  0  0  0  0
  189.2130  176.0080  135.8530 C   0  0  0  0  0  2  0  0  0  0  0  0
  187.8690  175.9940  135.2180 C   0  0  0  0  0  2  0  0  0  0  0  0
  185.4430  176.1840  135.6170 C   0  0  1  0  0  3  0  0  0  0  0  0
  185.4000  176.7840  134.3550 O   0  0  0  0  0  1  0  0  0  0  0  0
  184.5370  172.0130  136.2850 C   0  0  0  0  0  2  0  0  0  0  0  0
  184.7880  174.8010  135.5820 C   0  0  2  0  0  3  0  0  0  0  0  0
  183.5990  173.0380  136.9300 C   0  0  1  0  0  3  0  0  0  0  0  0
  184.2580  174.4150  136.9690 C   0  0  0  0  0  2  0  0  0  0  0  0
  185.7580  173.7980  135.1390 N   0  0  0  0  0  2  0  0  0  0  0  0
  185.0630  172.5280  134.9470 C   0  0  0  0  0  2  0  0  0  0  0  0
  182.2580  173.1090  136.2090 C   0  0  0  0  0  2  0  0  0  0  0  0
  180.6240  174.0190  137.9980 N   0  0  0  0  0  1  0  0  0  0  0  0
  181.4160  174.6800  136.5670 S   0  0  0  0  0  0  0  0  0  0  0  0
  189.3940  177.5000  140.1130 N   0  0  0  0  0  0  0  0  0  0  0  0
  189.6920  176.3460  139.6330 C   0  0  0  0  0  3  0  0  0  0  0  0
  188.9780  177.6280  141.4840 C   0  0  1  0  0  3  0  0  0  0  0  0
  187.6080  178.2850  141.5530 C   0  0  0  0  0  2  0  0  0  0  0  0
  187.2790  178.9640  140.2370 C   0  0  0  0  0  2  0  0  0  0  0  0
  185.8570  179.2650  140.1790 N   0  0  0  0  0  2  0  0  0  0  0  0
  185.1700  178.3560  141.0930 C   0  0  1  0  0  3  0  0  0  0  0  0
  184.5420  179.1050  142.1770 N   0  0  0  0  0  2  0  0  0  0  0  0
  186.1210  178.3560  144.0520 C   0  0  0  0  0  3  0  0  0  0  0  0
  186.1760  178.6430  145.3430 C   0  0  0  0  0  0  0  0  0  0  0  0
  184.4020  179.8160  144.4440 N   0  0  0  0  0  0  0  0  0  0  0  0
  185.0830  179.5970  145.7090 C   0  0  0  0  0  2  0  0  0  0  0  0
  184.9950  179.1180  143.5360 C   0  0  0  0  0  0  0  0  0  0  0  0
  189.3840  177.2180  146.7440 C   0  0  0  0  0  0  0  0  0  0  0  0
  190.7330  176.8080  146.2820 C   0  0  0  0  0  1  0  0  0  0  0  0
  186.8820  177.9920  147.6430 C   0  0  0  0  0  3  0  0  0  0  0  0
  189.0410  177.1140  148.0900 C   0  0  0  0  0  3  0  0  0  0  0  0
  187.1790  178.1080  146.2810 C   0  0  0  0  0  0  0  0  0  0  0  0
  187.8070  177.5010  148.5080 N   0  0  0  0  0  0  0  0  0  0  0  0
  188.4490  177.7140  145.8360 C   0  0  0  0  0  3  0  0  0  0  0  0
  182.1970  177.7650  138.7370 C   0  0  0  0  0  2  0  0  0  0  0  0
  182.8390  177.4930  141.0270 N   0  0  0  0  0  2  0  0  0  0  0  0
  181.8900  177.0450  140.0270 C   0  0  0  0  0  2  0  0  0  0  0  0
  183.9960  177.9100  138.6360 S   0  0  0  0  0  0  0  0  0  0  0  0
  184.1500  177.4490  140.3900 C   0  0  1  0  0  3  0  0  0  0  0  0
  188.9220  176.3640  142.0700 O   0  0  0  0  0  0  0  0  0  0  0  0
  190.0270  176.3110  142.9240 C   0  0  0  0  0  2  0  0  0  0  0  0
  192.0130  177.6940  142.0340 C   0  0  0  0  0  1  0  0  0  0  0  0
  190.2840  178.6910  143.4410 C   0  0  0  0  0  2  0  0  0  0  0  0
  190.7760  177.5990  142.8600 C   0  0  0  0  0  0  0  0  0  0  0  0
  191.4340  176.8930  137.9640 C   0  0  0  0  0  2  0  0  0  0  0  0
  192.6760  174.8130  137.6350 C   0  0  0  0  0  3  0  0  0  0  0  0
  192.3270  176.0070  137.1690 C   0  0  0  0  0  3  0  0  0  0  0  0
  193.5700  173.9190  136.8330 C   0  0  2  0  0  3  0  0  0  0  0  0
  195.0040  174.1900  137.1710 C   0  0  0  0  0  0  0  0  0  0  0  0
  195.3630  175.3390  137.5450 O   0  0  0  0  0  0  0  0  0  0  0  0
  195.9540  173.1250  137.0890 N   0  0  0  0  0  2  0  0  0  0  0  0
  197.8640  174.6580  136.9900 C   0  0  0  0  0  1  0  0  0  0  0  0
  197.3780  173.2740  137.3770 C   0  0  2  0  0  3  0  0  0  0  0  0
  198.1410  172.2510  136.6760 N   0  0  0  0  0  2  0  0  0  0  0  0
  197.4390  170.0700  137.4570 C   0  0  0  0  0  1  0  0  0  0  0  0
  197.2490  171.1370  136.3980 C   0  0  2  0  0  3  0  0  0  0  0  0
  197.6210  170.4310  134.7620 S   0  0  0  0  0  1  0  0  0  0  0  0
  193.3020  174.0400  135.3580 C   0  0  0  0  0  0  0  0  0  0  0  0
  193.4320  175.1570  134.7870 O   0  0  0  0  0  0  0  0  0  0  0  0
  192.8220  172.9400  134.6430 O   0  0  0  0  0  0  0  0  0  0  0  0
  191.8890  172.0290  135.2060 C   0  0  0  0  0  3  0  0  0  0  0  0
  190.6500  172.7880  135.6340 C   0  0  0  0  0  2  0  0  0  0  0  0
  190.6420  171.9970  134.3460 C   0  0  0  0  0  2  0  0  0  0  0  0
  1 48  1  1  0  0  0
  1 19  1  0  0  0  0
  2  7  1  6  0  0  0
  2  4  1  0  0  0  0
  3  4  1  0  0  0  0
  3  1  1  1  0  0  0
  5  3  1  0  0  0  0
  6  5  1  0  0  0  0
  6  2  1  0  0  0  0
  7  8  1  6  0  0  0
  9 11  1  0  0  0  0
 10  7  1  1  0  0  0
 10 12  1  0  0  0  0
 11 15  1  6  0  0  0
 11 12  1  0  0  0  0
 13 10  1  0  0  0  0
 14 13  1  0  0  0  0
 14  9  1  0  0  0  0
 15 17  1  0  0  0  0
 17 16  1  0  0  0  0
 18 20  1  0  0  0  0
 19 18  2  0  0  0  0
 20 21  1  6  0  0  0
 20 43  1  0  0  0  0
 22 21  1  0  0  0  0
 23 22  1  0  0  0  0
 24 23  1  6  0  0  0
 24 25  1  0  0  0  0
 25 30  1  0  0  0  0
 26 27  2  0  0  0  0
 27 29  1  0  0  0  0
 27 35  1  0  0  0  0
 28 29  1  0  0  0  0
 30 26  1  0  0  0  0
 30 28  2  0  0  0  0
 31 34  1  0  0  0  0
 32 31  1  0  0  0  0
 33 36  1  0  0  0  0
 34 36  2  0  0  0  0
 35 33  2  0  0  0  0
 37 35  1  0  0  0  0
 37 31  2  0  0  0  0
 38 40  1  0  0  0  0
 40 39  1  0  0  0  0
 41 38  1  0  0  0  0
 41 42  1  0  0  0  0
 42 39  1  0  0  0  0
 42 24  1  1  0  0  0
 43 44  1  0  0  0  0
 45 47  1  0  0  0  0
 47 44  1  0  0  0  0
 47 46  2  0  0  0  0
 50 49  2  0  0  0  0
 50 48  1  0  0  0  0
 51 52  1  0  0  0  0
 51 49  1  1  0  0  0
 52 53  2  0  0  0  0
 54 52  1  0  0  0  0
 54 56  1  0  0  0  0
 56 55  1  6  0  0  0
 57 56  1  0  0  0  0
 59 57  1  0  0  0  0
 59 58  1  1  0  0  0
 60 59  1  0  0  0  0
 61 51  1  0  0  0  0
 62 61  2  0  0  0  0
 63 64  1  0  0  0  0
 63 61  1  0  0  0  0
 64 65  1  0  0  0  0
 66 64  1  0  0  0  0
 66 65  1  0  0  0  0
M  END
>  <MODEL>
3

>  <REMARK>
 VINA RESULT:      -4.1      2.181      7.389
  Name = 
  27 active torsions:
  status: ('A' for Active; 'I' for Inactive)
    1  A    between atoms: C_3  and  C_5
    2  A    between atoms: C_3  and  C_14
    3  A    between atoms: C_6  and  N_10
    4  A    between atoms: C_6  and  N_50
    5  A    between atoms: C_6  and  C_61
    6  A    between atoms: O_7  and  C_37
    7  A    between atoms: O_7  and  C_45
    8  A    between atoms: C_8  and  C_17
    9  A    between atoms: C_9  and  C_42
   10  A    between atoms: N_11  and  C_37
   11  A    between atoms: C_13  and  C_42
   12  A    between atoms: C_13  and  O_53
   13  A    between atoms: C_17  and  C_18
   14  A    between atoms: C_17  and  C_26
   15  A    between atoms: C_18  and  C_48
   16  A    between atoms: C_23  and  C_49
   17  A    between atoms: C_27  and  C_28
   18  A    between atoms: C_27  and  C_37
   19  A    between atoms: C_28  and  N_50
   20  A    between atoms: C_29  and  C_55
   21  A    between atoms: C_31  and  C_42
   22  A    between atoms: C_35  and  O_53
   23  A    between atoms: C_44  and  C_45
   24  A    between atoms: C_46  and  N_59
   25  A    between atoms: C_46  and  N_66
   26  A    between atoms: C_51  and  N_59
   27  A    between atoms: C_55  and  S_60
                            x       y       z     vdW  Elec       q    Type
                         _______ _______ _______ _____ _____    ______ ____

>  <TORSDO>
F 27

$$$$
=
 OpenBabel10232412063D

 66 71  0  0  1  0  0  0  0  0999 V2000
  191.9650  177.7200  140.4820 C   0  0  2  0  0  3  0  0  0  0  0  0
  190.8890  176.8880  144.1130 C   0  0  2  0  0  3  0  0  0  0  0  0
  191.9770  177.7760  142.0150 C   0  0  2  0  0  3  0  0  0  0  0  0
  191.7730  176.1170  142.7600 S   0  0  0  0  0  0  0  0  0  0  0  0
  190.8230  178.6380  142.5300 C   0  0  0  0  0  2  0  0  0  0  0  0
  190.4970  178.1350  143.8900 C   0  0  0  0  0  2  0  0  0  0  0  0
  190.7270  176.2420  145.4550 C   0  0  1  0  0  3  0  0  0  0  0  0
  191.8630  176.4900  146.2320 O   0  0  0  0  0  1  0  0  0  0  0  0
  187.9080  178.6620  147.6610 C   0  0  0  0  0  2  0  0  0  0  0  0
  189.4680  176.7530  146.1590 C   0  0  2  0  0  3  0  0  0  0  0  0
  187.6610  178.5070  146.1580 C   0  0  1  0  0  3  0  0  0  0  0  0
  188.9220  178.0030  145.4580 C   0  0  0  0  0  2  0  0  0  0  0  0
  189.7690  177.0740  147.5550 N   0  0  0  0  0  2  0  0  0  0  0  0
  188.5190  177.3880  148.2420 C   0  0  0  0  0  2  0  0  0  0  0  0
  186.4860  177.5800  145.8700 C   0  0  0  0  0  2  0  0  0  0  0  0
  184.3130  178.5030  144.8110 N   0  0  0  0  0  1  0  0  0  0  0  0
  184.9280  178.3130  146.4540 S   0  0  0  0  0  0  0  0  0  0  0  0
  190.0830  178.1860  139.0160 N   0  0  0  0  0  0  0  0  0  0  0  0
  190.5970  177.4430  139.9290 C   0  0  0  0  0  3  0  0  0  0  0  0
  188.7770  177.8890  138.4890 C   0  0  1  0  0  3  0  0  0  0  0  0
  188.5200  176.3910  138.5530 C   0  0  0  0  0  2  0  0  0  0  0  0
  187.5090  175.9810  137.5000 C   0  0  0  0  0  2  0  0  0  0  0  0
  187.5840  174.5470  137.2740 N   0  0  0  0  0  2  0  0  0  0  0  0
  186.4430  174.1630  136.4480 C   0  0  1  0  0  3  0  0  0  0  0  0
  185.9130  175.3260  135.7410 N   0  0  0  0  0  2  0  0  0  0  0  0
  184.0820  175.9310  137.4290 C   0  0  0  0  0  3  0  0  0  0  0  0
  183.1820  176.9010  137.4630 C   0  0  0  0  0  0  0  0  0  0  0  0
  184.4290  177.1760  135.5390 N   0  0  0  0  0  0  0  0  0  0  0  0
  183.3210  177.7800  136.2590 C   0  0  0  0  0  2  0  0  0  0  0  0
  184.8380  176.1500  136.2060 C   0  0  0  0  0  0  0  0  0  0  0  0
  181.5770  177.9550  140.7180 C   0  0  0  0  0  0  0  0  0  0  0  0
  181.9240  178.6860  141.9620 C   0  0  0  0  0  1  0  0  0  0  0  0
  180.8920  176.6020  138.4010 C   0  0  0  0  0  3  0  0  0  0  0  0
  180.2950  177.4410  140.5400 C   0  0  0  0  0  3  0  0  0  0  0  0
  182.1950  177.0940  138.5390 C   0  0  0  0  0  0  0  0  0  0  0  0
  179.9820  176.7810  139.3930 N   0  0  0  0  0  0  0  0  0  0  0  0
  182.5310  177.7780  139.7170 C   0  0  0  0  0  3  0  0  0  0  0  0
  186.1430  170.5320  135.2380 C   0  0  0  0  0  2  0  0  0  0  0  0
  187.7750  172.1150  135.9880 N   0  0  0  0  0  2  0  0  0  0  0  0
  187.6120  170.8720  135.2600 C   0  0  0  0  0  2  0  0  0  0  0  0
  185.2490  172.0940  135.0670 S   0  0  0  0  0  0  0  0  0  0  0  0
  186.7610  173.0240  135.4680 C   0  0  1  0  0  3  0  0  0  0  0  0
  187.8130  178.5620  139.2380 O   0  0  0  0  0  0  0  0  0  0  0  0
  188.1690  178.3410  140.5700 C   0  0  0  0  0  2  0  0  0  0  0  0
  187.0190  177.6760  142.7800 C   0  0  0  0  0  1  0  0  0  0  0  0
  185.8120  178.8400  141.0060 C   0  0  0  0  0  2  0  0  0  0  0  0
  186.9420  178.2700  141.4160 C   0  0  0  0  0  0  0  0  0  0  0  0
  192.9490  176.6780  139.9700 C   0  0  0  0  0  2  0  0  0  0  0  0
  193.2320  175.3220  137.9560 C   0  0  0  0  0  3  0  0  0  0  0  0
  192.5600  176.2760  138.5920 C   0  0  0  0  0  3  0  0  0  0  0  0
  192.8370  174.9120  136.5710 C   0  0  2  0  0  3  0  0  0  0  0  0
  193.3050  173.5160  136.2970 C   0  0  0  0  0  0  0  0  0  0  0  0
  192.5170  172.6690  135.7940 O   0  0  0  0  0  0  0  0  0  0  0  0
  194.6590  173.1620  136.5880 N   0  0  0  0  0  2  0  0  0  0  0  0
  194.2890  170.7620  136.9180 C   0  0  0  0  0  1  0  0  0  0  0  0
  195.2210  171.8310  136.3790 C   0  0  2  0  0  3  0  0  0  0  0  0
  196.5290  171.7340  137.0120 N   0  0  0  0  0  2  0  0  0  0  0  0
  197.4700  170.2230  135.3720 C   0  0  0  0  0  1  0  0  0  0  0  0
  197.5280  171.6160  135.9630 C   0  0  2  0  0  3  0  0  0  0  0  0
  199.1890  171.9100  136.6460 S   0  0  0  0  0  1  0  0  0  0  0  0
  193.3290  175.8890  135.5390 C   0  0  0  0  0  0  0  0  0  0  0  0
  192.5020  176.6060  134.9110 O   0  0  0  0  0  0  0  0  0  0  0  0
  194.6860  175.9370  135.2130 O   0  0  0  0  0  0  0  0  0  0  0  0
  195.2140  176.9310  134.3460 C   0  0  0  0  0  3  0  0  0  0  0  0
  195.7210  178.0930  135.1740 C   0  0  0  0  0  2  0  0  0  0  0  0
  196.6980  177.0860  134.6120 C   0  0  0  0  0  2  0  0  0  0  0  0
  1 19  1  1  0  0  0
  2  7  1  1  0  0  0
  3  1  1  6  0  0  0
  3  5  1  0  0  0  0
  3  4  1  0  0  0  0
  4  2  1  0  0  0  0
  5  6  1  0  0  0  0
  6  2  1  0  0  0  0
  7  8  1  1  0  0  0
  9 14  1  0  0  0  0
 10  7  1  6  0  0  0
 10 13  1  0  0  0  0
 11 15  1  1  0  0  0
 11  9  1  0  0  0  0
 12 11  1  0  0  0  0
 12 10  1  0  0  0  0
 13 14  1  0  0  0  0
 15 17  1  0  0  0  0
 16 17  1  0  0  0  0
 18 19  2  0  0  0  0
 20 21  1  1  0  0  0
 20 18  1  0  0  0  0
 20 43  1  0  0  0  0
 22 21  1  0  0  0  0
 23 22  1  0  0  0  0
 24 25  1  6  0  0  0
 24 23  1  0  0  0  0
 25 30  1  0  0  0  0
 26 27  2  0  0  0  0
 27 35  1  0  0  0  0
 28 30  2  0  0  0  0
 28 29  1  0  0  0  0
 29 27  1  0  0  0  0
 30 26  1  0  0  0  0
 31 32  1  0  0  0  0
 33 35  2  0  0  0  0
 33 36  1  0  0  0  0
 34 31  1  0  0  0  0
 35 37  1  0  0  0  0
 36 34  2  0  0  0  0
 37 31  2  0  0  0  0
 38 40  1  0  0  0  0
 40 39  1  0  0  0  0
 41 38  1  0  0  0  0
 41 42  1  0  0  0  0
 42 39  1  0  0  0  0
 42 24  1  1  0  0  0
 43 44  1  0  0  0  0
 44 47  1  0  0  0  0
 46 47  2  0  0  0  0
 47 45  1  0  0  0  0
 48  1  1  0  0  0  0
 49 50  2  0  0  0  0
 50 48  1  0  0  0  0
 51 49  1  1  0  0  0
 52 51  1  0  0  0  0
 52 54  1  0  0  0  0
 53 52  2  0  0  0  0
 56 54  1  0  0  0  0
 56 55  1  1  0  0  0
 56 57  1  0  0  0  0
 59 58  1  1  0  0  0
 59 60  1  0  0  0  0
 59 57  1  0  0  0  0
 61 51  1  0  0  0  0
 62 61  2  0  0  0  0
 63 61  1  0  0  0  0
 64 66  1  0  0  0  0
 64 65  1  0  0  0  0
 64 63  1  0  0  0  0
 66 65  1  0  0  0  0
M  END
>  <MODEL>
4

>  <REMARK>
 VINA RESULT:      -3.8      1.554      2.267
  Name = 
  27 active torsions:
  status: ('A' for Active; 'I' for Inactive)
    1  A    between atoms: C_3  and  C_5
    2  A    between atoms: C_3  and  C_14
    3  A    between atoms: C_6  and  N_10
    4  A    between atoms: C_6  and  N_50
    5  A    between atoms: C_6  and  C_61
    6  A    between atoms: O_7  and  C_37
    7  A    between atoms: O_7  and  C_45
    8  A    between atoms: C_8  and  C_17
    9  A    between atoms: C_9  and  C_42
   10  A    between atoms: N_11  and  C_37
   11  A    between atoms: C_13  and  C_42
   12  A    between atoms: C_13  and  O_53
   13  A    between atoms: C_17  and  C_18
   14  A    between atoms: C_17  and  C_26
   15  A    between atoms: C_18  and  C_48
   16  A    between atoms: C_23  and  C_49
   17  A    between atoms: C_27  and  C_28
   18  A    between atoms: C_27  and  C_37
   19  A    between atoms: C_28  and  N_50
   20  A    between atoms: C_29  and  C_55
   21  A    between atoms: C_31  and  C_42
   22  A    between atoms: C_35  and  O_53
   23  A    between atoms: C_44  and  C_45
   24  A    between atoms: C_46  and  N_59
   25  A    between atoms: C_46  and  N_66
   26  A    between atoms: C_51  and  N_59
   27  A    between atoms: C_55  and  S_60
                            x       y       z     vdW  Elec       q    Type
                         _______ _______ _______ _____ _____    ______ ____

>  <TORSDO>
F 27

$$$$
=
 OpenBabel10232412063D

 66 71  0  0  1  0  0  0  0  0999 V2000
  188.5670  176.9660  141.5810 C   0  0  2  0  0  3  0  0  0  0  0  0
  190.2400  176.5690  145.0560 C   0  0  2  0  0  3  0  0  0  0  0  0
  189.1710  176.2440  142.7930 C   0  0  2  0  0  3  0  0  0  0  0  0
  188.6430  177.0020  144.3720 S   0  0  0  0  0  0  0  0  0  0  0  0
  190.6980  176.3170  142.7550 C   0  0  0  0  0  2  0  0  0  0  0  0
  191.1590  176.2260  144.1650 C   0  0  0  0  0  2  0  0  0  0  0  0
  190.4920  176.4530  146.5290 C   0  0  1  0  0  3  0  0  0  0  0  0
  191.6850  177.1080  146.8510 O   0  0  0  0  0  1  0  0  0  0  0  0
  187.8470  179.1320  148.6490 C   0  0  0  0  0  2  0  0  0  0  0  0
  189.3240  177.0310  147.3310 C   0  0  2  0  0  3  0  0  0  0  0  0
  187.3670  178.6150  147.2900 C   0  0  1  0  0  3  0  0  0  0  0  0
  188.5370  178.0450  146.4900 C   0  0  0  0  0  2  0  0  0  0  0  0
  189.8210  177.6880  148.5410 N   0  0  0  0  0  2  0  0  0  0  0  0
  188.6790  178.0720  149.3670 C   0  0  0  0  0  2  0  0  0  0  0  0
  186.2650  177.5720  147.4390 C   0  0  0  0  0  2  0  0  0  0  0  0
  185.1880  179.5890  146.2270 N   0  0  0  0  0  1  0  0  0  0  0  0
  184.9530  177.8400  146.2100 S   0  0  0  0  0  0  0  0  0  0  0  0
  190.1910  177.7790  139.9660 N   0  0  0  0  0  0  0  0  0  0  0  0
  189.4160  176.8300  140.3500 C   0  0  0  0  0  3  0  0  0  0  0  0
  191.0090  177.6180  138.7940 C   0  0  1  0  0  3  0  0  0  0  0  0
  192.3100  176.9200  139.1600 C   0  0  0  0  0  2  0  0  0  0  0  0
  192.6440  175.8480  138.1400 C   0  0  0  0  0  2  0  0  0  0  0  0
  194.0210  175.4150  138.3090 N   0  0  0  0  0  2  0  0  0  0  0  0
  194.4290  174.7330  137.0840 C   0  0  1  0  0  3  0  0  0  0  0  0
  193.7460  175.3080  135.9300 N   0  0  0  0  0  2  0  0  0  0  0  0
  191.5390  174.0290  136.1820 C   0  0  0  0  0  3  0  0  0  0  0  0
  190.4140  174.0400  135.4850 C   0  0  0  0  0  0  0  0  0  0  0  0
  191.8560  175.5540  134.5050 N   0  0  0  0  0  0  0  0  0  0  0  0
  190.5170  175.0110  134.3510 C   0  0  0  0  0  2  0  0  0  0  0  0
  192.4070  174.9960  135.5280 C   0  0  0  0  0  0  0  0  0  0  0  0
  187.0160  172.9730  136.7490 C   0  0  0  0  0  0  0  0  0  0  0  0
  185.8490  173.5430  137.4650 C   0  0  0  0  0  1  0  0  0  0  0  0
  189.1700  171.8820  135.3930 C   0  0  0  0  0  3  0  0  0  0  0  0
  187.0070  171.6410  136.3400 C   0  0  0  0  0  3  0  0  0  0  0  0
  189.2270  173.2220  135.7910 C   0  0  0  0  0  0  0  0  0  0  0  0
  188.0760  171.1280  135.6750 N   0  0  0  0  0  0  0  0  0  0  0  0
  188.1310  173.7640  136.4770 C   0  0  0  0  0  3  0  0  0  0  0  0
  197.8680  173.0290  137.1700 C   0  0  0  0  0  2  0  0  0  0  0  0
  196.6820  174.8760  138.1260 N   0  0  0  0  0  2  0  0  0  0  0  0
  198.0120  174.3520  137.8810 C   0  0  0  0  0  2  0  0  0  0  0  0
  196.4670  173.1920  136.0410 S   0  0  0  0  0  0  0  0  0  0  0  0
  195.9510  174.7260  136.8740 C   0  0  1  0  0  3  0  0  0  0  0  0
  190.3190  176.8570  137.8510 O   0  0  0  0  0  0  0  0  0  0  0  0
  189.9050  177.7730  136.8800 C   0  0  0  0  0  2  0  0  0  0  0  0
  187.9120  177.0030  135.4360 C   0  0  0  0  0  1  0  0  0  0  0  0
  187.5880  178.0240  137.6300 C   0  0  0  0  0  2  0  0  0  0  0  0
  188.4330  177.6560  136.6710 C   0  0  0  0  0  0  0  0  0  0  0  0
  188.3340  178.4380  141.8880 C   0  0  0  0  0  2  0  0  0  0  0  0
  186.0590  178.2190  141.0210 C   0  0  0  0  0  3  0  0  0  0  0  0
  186.8710  178.6950  141.9590 C   0  0  0  0  0  3  0  0  0  0  0  0
  184.5850  178.4720  141.0940 C   0  0  2  0  0  3  0  0  0  0  0  0
  184.0740  178.9180  139.7590 C   0  0  0  0  0  0  0  0  0  0  0  0
  184.3530  180.0690  139.3230 O   0  0  0  0  0  0  0  0  0  0  0  0
  183.2890  178.0170  138.9740 N   0  0  0  0  0  2  0  0  0  0  0  0
  181.7710  179.5220  137.7750 C   0  0  0  0  0  1  0  0  0  0  0  0
  182.7240  178.3460  137.6690 C   0  0  2  0  0  3  0  0  0  0  0  0
  182.0440  177.1870  137.1110 N   0  0  0  0  0  2  0  0  0  0  0  0
  183.8470  176.8780  135.5250 C   0  0  0  0  0  1  0  0  0  0  0  0
  183.0560  176.2490  136.6540 C   0  0  2  0  0  3  0  0  0  0  0  0
  182.2680  174.7210  136.0550 S   0  0  0  0  0  1  0  0  0  0  0  0
  184.2410  179.4450  142.1880 C   0  0  0  0  0  0  0  0  0  0  0  0
  185.1610  179.9610  142.8800 O   0  0  0  0  0  0  0  0  0  0  0  0
  182.9030  179.7050  142.4950 O   0  0  0  0  0  0  0  0  0  0  0  0
  181.8400  178.9980  141.8730 C   0  0  0  0  0  3  0  0  0  0  0  0
  181.1530  178.1280  142.9050 C   0  0  0  0  0  2  0  0  0  0  0  0
  180.5250  179.4370  142.4860 C   0  0  0  0  0  2  0  0  0  0  0  0
  1 19  1  6  0  0  0
  1 48  1  0  0  0  0
  2  7  1  1  0  0  0
  3  1  1  6  0  0  0
  3  4  1  0  0  0  0
  4  2  1  0  0  0  0
  5  3  1  0  0  0  0
  5  6  1  0  0  0  0
  6  2  1  0  0  0  0
  7  8  1  6  0  0  0
  9 14  1  0  0  0  0
 10  7  1  6  0  0  0
 10 13  1  0  0  0  0
 11 15  1  1  0  0  0
 11  9  1  0  0  0  0
 12 11  1  0  0  0  0
 12 10  1  0  0  0  0
 13 14  1  0  0  0  0
 17 16  1  0  0  0  0
 17 15  1  0  0  0  0
 18 19  2  0  0  0  0
 20 21  1  1  0  0  0
 20 18  1  0  0  0  0
 22 23  1  0  0  0  0
 22 21  1  0  0  0  0
 24 25  1  6  0  0  0
 24 23  1  0  0  0  0
 27 35  1  0  0  0  0
 27 26  2  0  0  0  0
 28 30  2  0  0  0  0
 29 28  1  0  0  0  0
 29 27  1  0  0  0  0
 30 25  1  0  0  0  0
 30 26  1  0  0  0  0
 31 32  1  0  0  0  0
 33 36  2  0  0  0  0
 33 35  1  0  0  0  0
 34 31  2  0  0  0  0
 35 37  2  0  0  0  0
 36 34  1  0  0  0  0
 37 31  1  0  0  0  0
 38 40  1  0  0  0  0
 40 39  1  0  0  0  0
 41 42  1  0  0  0  0
 41 38  1  0  0  0  0
 42 24  1  1  0  0  0
 42 39  1  0  0  0  0
 43 20  1  0  0  0  0
 44 43  1  0  0  0  0
 45 47  1  0  0  0  0
 47 44  1  0  0  0  0
 47 46  2  0  0  0  0
 48 50  1  0  0  0  0
 49 50  2  0  0  0  0
 51 49  1  6  0  0  0
 51 61  1  0  0  0  0
 52 51  1  0  0  0  0
 53 52  2  0  0  0  0
 54 52  1  0  0  0  0
 56 55  1  1  0  0  0
 56 54  1  0  0  0  0
 57 56  1  0  0  0  0
 59 58  1  6  0  0  0
 59 57  1  0  0  0  0
 60 59  1  0  0  0  0
 61 63  1  0  0  0  0
 61 62  2  0  0  0  0
 64 66  1  0  0  0  0
 64 63  1  0  0  0  0
 64 65  1  0  0  0  0
 66 65  1  0  0  0  0
M  END
>  <MODEL>
5

>  <REMARK>
 VINA RESULT:      -3.5      2.172      8.865
  Name = 
  27 active torsions:
  status: ('A' for Active; 'I' for Inactive)
    1  A    between atoms: C_3  and  C_5
    2  A    between atoms: C_3  and  C_14
    3  A    between atoms: C_6  and  N_10
    4  A    between atoms: C_6  and  N_50
    5  A    between atoms: C_6  and  C_61
    6  A    between atoms: O_7  and  C_37
    7  A    between atoms: O_7  and  C_45
    8  A    between atoms: C_8  and  C_17
    9  A    between atoms: C_9  and  C_42
   10  A    between atoms: N_11  and  C_37
   11  A    between atoms: C_13  and  C_42
   12  A    between atoms: C_13  and  O_53
   13  A    between atoms: C_17  and  C_18
   14  A    between atoms: C_17  and  C_26
   15  A    between atoms: C_18  and  C_48
   16  A    between atoms: C_23  and  C_49
   17  A    between atoms: C_27  and  C_28
   18  A    between atoms: C_27  and  C_37
   19  A    between atoms: C_28  and  N_50
   20  A    between atoms: C_29  and  C_55
   21  A    between atoms: C_31  and  C_42
   22  A    between atoms: C_35  and  O_53
   23  A    between atoms: C_44  and  C_45
   24  A    between atoms: C_46  and  N_59
   25  A    between atoms: C_46  and  N_66
   26  A    between atoms: C_51  and  N_59
   27  A    between atoms: C_55  and  S_60
                            x       y       z     vdW  Elec       q    Type
                         _______ _______ _______ _____ _____    ______ ____

>  <TORSDO>
F 27

$$$$
=
 OpenBabel10232412063D

 66 71  0  0  1  0  0  0  0  0999 V2000
  191.0020  176.5680  138.3880 C   0  0  2  0  0  3  0  0  0  0  0  0
  187.1950  176.8010  137.6960 C   0  0  2  0  0  3  0  0  0  0  0  0
  189.5100  176.2440  138.5340 C   0  0  2  0  0  3  0  0  0  0  0  0
  188.6690  176.1560  136.9110 S   0  0  0  0  0  0  0  0  0  0  0  0
  188.8010  177.3320  139.3420 C   0  0  0  0  0  2  0  0  0  0  0  0
  187.3820  177.3290  138.8970 C   0  0  0  0  0  2  0  0  0  0  0  0
  185.8220  176.6300  137.1190 C   0  0  1  0  0  3  0  0  0  0  0  0
  185.5710  175.2700  136.9080 O   0  0  0  0  0  1  0  0  0  0  0  0
  182.7880  179.1970  138.8140 C   0  0  0  0  0  2  0  0  0  0  0  0
  184.7620  177.2380  138.0410 C   0  0  2  0  0  3  0  0  0  0  0  0
  182.3280  177.8340  138.2890 C   0  0  1  0  0  3  0  0  0  0  0  0
  183.3860  177.2330  137.3650 C   0  0  0  0  0  2  0  0  0  0  0  0
  185.1260  178.6140  138.3840 N   0  0  0  0  0  2  0  0  0  0  0  0
  184.1960  179.1050  139.3980 C   0  0  0  0  0  2  0  0  0  0  0  0
  182.0040  176.8710  139.4260 C   0  0  0  0  0  2  0  0  0  0  0  0
  180.8730  178.3770  141.1990 N   0  0  0  0  0  1  0  0  0  0  0  0
  180.3220  177.1550  140.0520 S   0  0  0  0  0  0  0  0  0  0  0  0
  191.0930  174.8640  136.6570 N   0  0  0  0  0  0  0  0  0  0  0  0
  191.7220  175.5750  137.5220 C   0  0  0  0  0  3  0  0  0  0  0  0
  191.8090  173.9330  135.8250 C   0  0  1  0  0  3  0  0  0  0  0  0
  193.2480  173.8110  136.3010 C   0  0  0  0  0  2  0  0  0  0  0  0
  193.5340  172.3970  136.7710 C   0  0  0  0  0  2  0  0  0  0  0  0
  194.8970  172.0280  136.4270 N   0  0  0  0  0  2  0  0  0  0  0  0
  194.9870  171.9570  134.9710 C   0  0  1  0  0  3  0  0  0  0  0  0
  196.0240  172.8600  134.4800 N   0  0  0  0  0  2  0  0  0  0  0  0
  196.9010  173.6260  136.7630 C   0  0  0  0  0  3  0  0  0  0  0  0
  197.8680  174.4570  137.1160 C   0  0  0  0  0  0  0  0  0  0  0  0
  197.8240  174.3810  134.8090 N   0  0  0  0  0  0  0  0  0  0  0  0
  198.5420  175.0160  135.9020 C   0  0  0  0  0  2  0  0  0  0  0  0
  196.9170  173.6120  135.3090 C   0  0  0  0  0  0  0  0  0  0  0  0
  197.6690  175.5870  140.7170 C   0  0  0  0  0  0  0  0  0  0  0  0
  196.6760  176.1350  141.6740 C   0  0  0  0  0  1  0  0  0  0  0  0
  199.5410  174.5470  138.9620 C   0  0  0  0  0  3  0  0  0  0  0  0
  198.9800  175.3510  141.1240 C   0  0  0  0  0  3  0  0  0  0  0  0
  198.2370  174.7750  138.5070 C   0  0  0  0  0  0  0  0  0  0  0  0
  199.8810  174.8390  140.2450 N   0  0  0  0  0  0  0  0  0  0  0  0
  197.2980  175.3020  139.4040 C   0  0  0  0  0  3  0  0  0  0  0  0
  194.8690  168.1380  135.3470 C   0  0  0  0  0  2  0  0  0  0  0  0
  196.4210  169.9250  134.9910 N   0  0  0  0  0  2  0  0  0  0  0  0
  196.2510  168.4920  134.8560 C   0  0  0  0  0  2  0  0  0  0  0  0
  193.7730  169.4820  134.8370 S   0  0  0  0  0  0  0  0  0  0  0  0
  195.2100  170.5300  134.4480 C   0  0  1  0  0  3  0  0  0  0  0  0
  191.1870  172.6870  135.8880 O   0  0  0  0  0  0  0  0  0  0  0  0
  190.3130  172.6630  134.7980 C   0  0  0  0  0  2  0  0  0  0  0  0
  187.8360  171.9500  134.8660 C   0  0  0  0  0  1  0  0  0  0  0  0
  189.6430  170.3400  135.1900 C   0  0  0  0  0  2  0  0  0  0  0  0
  189.2790  171.6070  135.0030 C   0  0  0  0  0  0  0  0  0  0  0  0
  191.6750  176.6470  139.7510 C   0  0  0  0  0  2  0  0  0  0  0  0
  190.9830  177.2250  142.0230 C   0  0  0  0  0  3  0  0  0  0  0  0
  190.7440  177.2880  140.7170 C   0  0  0  0  0  3  0  0  0  0  0  0
  190.0490  177.8750  142.9960 C   0  0  2  0  0  3  0  0  0  0  0  0
  190.7220  178.0330  144.3250 C   0  0  0  0  0  0  0  0  0  0  0  0
  191.2660  179.1280  144.6360 O   0  0  0  0  0  0  0  0  0  0  0  0
  190.7190  176.9380  145.2450 N   0  0  0  0  0  2  0  0  0  0  0  0
  192.3430  175.8280  146.7060 C   0  0  0  0  0  1  0  0  0  0  0  0
  191.3560  176.9700  146.5580 C   0  0  2  0  0  3  0  0  0  0  0  0
  190.3470  176.9120  147.6060 N   0  0  0  0  0  2  0  0  0  0  0  0
  189.2530  178.6890  148.8310 C   0  0  0  0  0  1  0  0  0  0  0  0
  189.4870  178.0750  147.4670 C   0  0  2  0  0  3  0  0  0  0  0  0
  187.8880  177.5870  146.7460 S   0  0  0  0  0  1  0  0  0  0  0  0
  188.7480  177.1290  143.1030 C   0  0  0  0  0  0  0  0  0  0  0  0
  188.6840  175.9240  142.7330 O   0  0  0  0  0  0  0  0  0  0  0  0
  187.5940  177.7940  143.5260 O   0  0  0  0  0  0  0  0  0  0  0  0
  186.3500  177.6330  142.8590 C   0  0  0  0  0  3  0  0  0  0  0  0
  185.2740  178.3640  143.6360 C   0  0  0  0  0  2  0  0  0  0  0  0
  185.8590  178.9880  142.3890 C   0  0  0  0  0  2  0  0  0  0  0  0
  1 19  1  6  0  0  0
  1 48  1  0  0  0  0
  2  7  1  1  0  0  0
  2  6  1  0  0  0  0
  3  1  1  6  0  0  0
  3  5  1  0  0  0  0
  4  2  1  0  0  0  0
  4  3  1  0  0  0  0
  6  5  1  0  0  0  0
  7  8  1  1  0  0  0
  9 14  1  0  0  0  0
 10  7  1  6  0  0  0
 10 13  1  0  0  0  0
 11  9  1  0  0  0  0
 11 15  1  1  0  0  0
 12 10  1  0  0  0  0
 12 11  1  0  0  0  0
 13 14  1  0  0  0  0
 15 17  1  0  0  0  0
 17 16  1  0  0  0  0
 18 19  2  0  0  0  0
 20 43  1  0  0  0  0
 20 21  1  1  0  0  0
 20 18  1  0  0  0  0
 21 22  1  0  0  0  0
 23 22  1  0  0  0  0
 24 25  1  1  0  0  0
 24 23  1  0  0  0  0
 25 30  1  0  0  0  0
 26 27  2  0  0  0  0
 27 35  1  0  0  0  0
 28 30  2  0  0  0  0
 28 29  1  0  0  0  0
 29 27  1  0  0  0  0
 30 26  1  0  0  0  0
 31 34  1  0  0  0  0
 31 32  1  0  0  0  0
 33 36  1  0  0  0  0
 35 33  2  0  0  0  0
 35 37  1  0  0  0  0
 36 34  2  0  0  0  0
 37 31  2  0  0  0  0
 40 39  1  0  0  0  0
 40 38  1  0  0  0  0
 41 38  1  0  0  0  0
 42 41  1  0  0  0  0
 42 24  1  1  0  0  0
 42 39  1  0  0  0  0
 44 47  1  0  0  0  0
 44 43  1  0  0  0  0
 45 47  1  0  0  0  0
 47 46  2  0  0  0  0
 48 50  1  0  0  0  0
 50 49  2  0  0  0  0
 51 49  1  6  0  0  0
 51 61  1  0  0  0  0
 51 52  1  0  0  0  0
 52 53  2  0  0  0  0
 52 54  1  0  0  0  0
 54 56  1  0  0  0  0
 56 55  1  6  0  0  0
 56 57  1  0  0  0  0
 59 57  1  0  0  0  0
 59 58  1  1  0  0  0
 60 59  1  0  0  0  0
 61 63  1  0  0  0  0
 62 61  2  0  0  0  0
 64 63  1  0  0  0  0
 64 65  1  0  0  0  0
 66 64  1  0  0  0  0
 66 65  1  0  0  0  0
M  END
>  <MODEL>
6

>  <REMARK>
 VINA RESULT:      -3.0      2.635     10.829
  Name = 
  27 active torsions:
  status: ('A' for Active; 'I' for Inactive)
    1  A    between atoms: C_3  and  C_5
    2  A    between atoms: C_3  and  C_14
    3  A    between atoms: C_6  and  N_10
    4  A    between atoms: C_6  and  N_50
    5  A    between atoms: C_6  and  C_61
    6  A    between atoms: O_7  and  C_37
    7  A    between atoms: O_7  and  C_45
    8  A    between atoms: C_8  and  C_17
    9  A    between atoms: C_9  and  C_42
   10  A    between atoms: N_11  and  C_37
   11  A    between atoms: C_13  and  C_42
   12  A    between atoms: C_13  and  O_53
   13  A    between atoms: C_17  and  C_18
   14  A    between atoms: C_17  and  C_26
   15  A    between atoms: C_18  and  C_48
   16  A    between atoms: C_23  and  C_49
   17  A    between atoms: C_27  and  C_28
   18  A    between atoms: C_27  and  C_37
   19  A    between atoms: C_28  and  N_50
   20  A    between atoms: C_29  and  C_55
   21  A    between atoms: C_31  and  C_42
   22  A    between atoms: C_35  and  O_53
   23  A    between atoms: C_44  and  C_45
   24  A    between atoms: C_46  and  N_59
   25  A    between atoms: C_46  and  N_66
   26  A    between atoms: C_51  and  N_59
   27  A    between atoms: C_55  and  S_60
                            x       y       z     vdW  Elec       q    Type
                         _______ _______ _______ _____ _____    ______ ____

>  <TORSDO>
F 27

$$$$
=
 OpenBabel10232412063D

 66 71  0  0  1  0  0  0  0  0999 V2000
  185.1790  178.0320  139.3840 C   0  0  2  0  0  3  0  0  0  0  0  0
  184.5430  179.0660  143.0660 C   0  0  2  0  0  3  0  0  0  0  0  0
  184.6260  178.8590  140.5510 C   0  0  2  0  0  3  0  0  0  0  0  0
  185.8740  179.1000  141.8690 S   0  0  0  0  0  0  0  0  0  0  0  0
  183.4340  178.1500  141.1950 C   0  0  0  0  0  2  0  0  0  0  0  0
  183.3880  178.6040  142.6090 C   0  0  0  0  0  2  0  0  0  0  0  0
  184.6670  179.6510  144.4400 C   0  0  1  0  0  3  0  0  0  0  0  0
  183.4680  179.4670  145.1350 O   0  0  0  0  0  1  0  0  0  0  0  0
  187.0920  177.0320  146.8750 C   0  0  0  0  0  2  0  0  0  0  0  0
  185.8360  179.0190  145.2000 C   0  0  2  0  0  3  0  0  0  0  0  0
  187.3580  177.0200  145.3670 C   0  0  1  0  0  3  0  0  0  0  0  0
  186.1870  177.6470  144.6120 C   0  0  0  0  0  2  0  0  0  0  0  0
  185.4910  178.8650  146.6140 N   0  0  0  0  0  2  0  0  0  0  0  0
  186.6790  178.4270  147.3400 C   0  0  0  0  0  2  0  0  0  0  0  0
  188.6600  177.7340  145.0170 C   0  0  0  0  0  2  0  0  0  0  0  0
  191.1200  177.2170  145.6320 N   0  0  0  0  0  1  0  0  0  0  0  0
  189.9340  176.5400  144.5130 S   0  0  0  0  0  0  0  0  0  0  0  0
  187.4690  177.6970  138.6380 N   0  0  0  0  0  0  0  0  0  0  0  0
  186.6120  177.6320  139.5920 C   0  0  0  0  0  3  0  0  0  0  0  0
  188.8390  177.3260  138.8680 C   0  0  1  0  0  3  0  0  0  0  0  0
  189.6530  177.5250  137.5990 C   0  0  0  0  0  2  0  0  0  0  0  0
  188.7480  177.9110  136.4440 C   0  0  0  0  0  2  0  0  0  0  0  0
  187.9050  176.7850  136.0790 N   0  0  0  0  0  2  0  0  0  0  0  0
  188.5800  176.0470  135.0150 C   0  0  1  0  0  3  0  0  0  0  0  0
  189.8840  176.6390  134.7330 N   0  0  0  0  0  2  0  0  0  0  0  0
  191.2560  174.4760  134.8300 C   0  0  0  0  0  3  0  0  0  0  0  0
  192.5440  174.2270  134.6600 C   0  0  0  0  0  0  0  0  0  0  0  0
  192.2300  176.4940  134.3610 N   0  0  0  0  0  0  0  0  0  0  0  0
  193.2810  175.4910  134.3500 C   0  0  0  0  0  2  0  0  0  0  0  0
  191.1120  175.9100  134.6290 C   0  0  0  0  0  0  0  0  0  0  0  0
  192.9800  170.4850  134.9610 C   0  0  0  0  0  0  0  0  0  0  0  0
  192.1540  169.2590  135.0920 C   0  0  0  0  0  1  0  0  0  0  0  0
  194.5520  172.7490  134.6980 C   0  0  0  0  0  3  0  0  0  0  0  0
  194.3690  170.3920  134.9110 C   0  0  0  0  0  3  0  0  0  0  0  0
  193.1600  172.8910  134.7510 C   0  0  0  0  0  0  0  0  0  0  0  0
  195.1200  171.5180  134.7810 N   0  0  0  0  0  0  0  0  0  0  0  0
  192.3750  171.7380  134.8840 C   0  0  0  0  0  3  0  0  0  0  0  0
  187.1020  172.5920  135.8040 C   0  0  0  0  0  2  0  0  0  0  0  0
  188.5660  174.2450  136.7290 N   0  0  0  0  0  2  0  0  0  0  0  0
  188.1980  172.8450  136.8090 C   0  0  0  0  0  2  0  0  0  0  0  0
  187.4800  173.6040  134.3540 S   0  0  0  0  0  0  0  0  0  0  0  0
  188.7110  174.5450  135.3090 C   0  0  1  0  0  3  0  0  0  0  0  0
  189.3660  178.1150  139.8900 O   0  0  0  0  0  0  0  0  0  0  0  0
  190.3990  177.3530  140.4410 C   0  0  0  0  0  2  0  0  0  0  0  0
  190.0930  178.9790  142.4190 C   0  0  0  0  0  1  0  0  0  0  0  0
  192.1750  177.7480  142.0800 C   0  0  0  0  0  2  0  0  0  0  0  0
  190.9550  178.0460  141.6390 C   0  0  0  0  0  0  0  0  0  0  0  0
  185.0410  178.7890  138.0700 C   0  0  0  0  0  2  0  0  0  0  0  0
  182.9870  177.4660  137.9600 C   0  0  0  0  0  3  0  0  0  0  0  0
  183.7690  178.3900  137.4110 C   0  0  0  0  0  3  0  0  0  0  0  0
  181.7040  177.0690  137.3000 C   0  0  2  0  0  3  0  0  0  0  0  0
  181.9520  175.9660  136.3180 C   0  0  0  0  0  0  0  0  0  0  0  0
  181.5490  176.0710  135.1280 O   0  0  0  0  0  0  0  0  0  0  0  0
  182.6730  174.8040  136.7390 N   0  0  0  0  0  2  0  0  0  0  0  0
  183.6250  174.1090  134.5910 C   0  0  0  0  0  1  0  0  0  0  0  0
  182.9580  173.6610  135.8780 C   0  0  2  0  0  3  0  0  0  0  0  0
  181.7320  172.9320  135.5890 N   0  0  0  0  0  2  0  0  0  0  0  0
  180.8690  170.7400  135.0320 C   0  0  0  0  0  1  0  0  0  0  0  0
  182.0990  171.6230  135.0730 C   0  0  2  0  0  3  0  0  0  0  0  0
  183.3530  170.8570  136.1470 S   0  0  0  0  0  1  0  0  0  0  0  0
  181.0140  178.2470  136.6690 C   0  0  0  0  0  0  0  0  0  0  0  0
  180.4360  178.1120  135.5560 O   0  0  0  0  0  0  0  0  0  0  0  0
  181.0910  179.5060  137.2700 O   0  0  0  0  0  0  0  0  0  0  0  0
  179.9860  180.3990  137.2820 C   0  0  0  0  0  3  0  0  0  0  0  0
  180.3710  181.6520  138.0400 C   0  0  0  0  0  2  0  0  0  0  0  0
  180.3580  181.6610  136.5290 C   0  0  0  0  0  2  0  0  0  0  0  0
  1 48  1  6  0  0  0
  1 19  1  0  0  0  0
  2  7  1  6  0  0  0
  3  1  1  6  0  0  0
  3  5  1  0  0  0  0
  3  4  1  0  0  0  0
  4  2  1  0  0  0  0
  5  6  1  0  0  0  0
  6  2  1  0  0  0  0
  7  8  1  1  0  0  0
  9 14  1  0  0  0  0
 10  7  1  6  0  0  0
 10 13  1  0  0  0  0
 11 15  1  1  0  0  0
 11  9  1  0  0  0  0
 12 10  1  0  0  0  0
 12 11  1  0  0  0  0
 13 14  1  0  0  0  0
 17 15  1  0  0  0  0
 17 16  1  0  0  0  0
 18 20  1  0  0  0  0
 18 19  2  0  0  0  0
 20 21  1  6  0  0  0
 20 43  1  0  0  0  0
 22 21  1  0  0  0  0
 23 22  1  0  0  0  0
 24 25  1  1  0  0  0
 24 23  1  0  0  0  0
 27 35  1  0  0  0  0
 27 26  2  0  0  0  0
 28 30  2  0  0  0  0
 29 28  1  0  0  0  0
 29 27  1  0  0  0  0
 30 25  1  0  0  0  0
 30 26  1  0  0  0  0
 31 32  1  0  0  0  0
 33 35  2  0  0  0  0
 33 36  1  0  0  0  0
 34 31  1  0  0  0  0
 35 37  1  0  0  0  0
 36 34  2  0  0  0  0
 37 31  2  0  0  0  0
 38 40  1  0  0  0  0
 39 40  1  0  0  0  0
 41 42  1  0  0  0  0
 41 38  1  0  0  0  0
 42 24  1  1  0  0  0
 42 39  1  0  0  0  0
 43 44  1  0  0  0  0
 44 47  1  0  0  0  0
 47 46  2  0  0  0  0
 47 45  1  0  0  0  0
 50 49  2  0  0  0  0
 50 48  1  0  0  0  0
 51 49  1  6  0  0  0
 52 54  1  0  0  0  0
 52 51  1  0  0  0  0
 53 52  2  0  0  0  0
 56 55  1  6  0  0  0
 56 54  1  0  0  0  0
 57 56  1  0  0  0  0
 59 58  1  1  0  0  0
 59 57  1  0  0  0  0
 59 60  1  0  0  0  0
 61 63  1  0  0  0  0
 61 51  1  0  0  0  0
 62 61  2  0  0  0  0
 63 64  1  0  0  0  0
 64 65  1  0  0  0  0
 66 64  1  0  0  0  0
 66 65  1  0  0  0  0
M  END
>  <MODEL>
7

>  <REMARK>
 VINA RESULT:      -2.8      3.016      9.475
  Name = 
  27 active torsions:
  status: ('A' for Active; 'I' for Inactive)
    1  A    between atoms: C_3  and  C_5
    2  A    between atoms: C_3  and  C_14
    3  A    between atoms: C_6  and  N_10
    4  A    between atoms: C_6  and  N_50
    5  A    between atoms: C_6  and  C_61
    6  A    between atoms: O_7  and  C_37
    7  A    between atoms: O_7  and  C_45
    8  A    between atoms: C_8  and  C_17
    9  A    between atoms: C_9  and  C_42
   10  A    between atoms: N_11  and  C_37
   11  A    between atoms: C_13  and  C_42
   12  A    between atoms: C_13  and  O_53
   13  A    between atoms: C_17  and  C_18
   14  A    between atoms: C_17  and  C_26
   15  A    between atoms: C_18  and  C_48
   16  A    between atoms: C_23  and  C_49
   17  A    between atoms: C_27  and  C_28
   18  A    between atoms: C_27  and  C_37
   19  A    between atoms: C_28  and  N_50
   20  A    between atoms: C_29  and  C_55
   21  A    between atoms: C_31  and  C_42
   22  A    between atoms: C_35  and  O_53
   23  A    between atoms: C_44  and  C_45
   24  A    between atoms: C_46  and  N_59
   25  A    between atoms: C_46  and  N_66
   26  A    between atoms: C_51  and  N_59
   27  A    between atoms: C_55  and  S_60
                            x       y       z     vdW  Elec       q    Type
                         _______ _______ _______ _____ _____    ______ ____

>  <TORSDO>
F 27

$$$$
=
 OpenBabel10232412063D

 66 71  0  0  1  0  0  0  0  0999 V2000
  189.0870  175.9320  137.8250 C   0  0  2  0  0  3  0  0  0  0  0  0
  185.9110  174.4770  136.1420 C   0  0  2  0  0  3  0  0  0  0  0  0
  188.0120  175.7400  136.7470 C   0  0  2  0  0  3  0  0  0  0  0  0
  186.3370  175.5980  137.4720 S   0  0  0  0  0  0  0  0  0  0  0  0
  188.2640  174.4530  135.9600 C   0  0  0  0  0  2  0  0  0  0  0  0
  186.9410  174.0020  135.4560 C   0  0  0  0  0  2  0  0  0  0  0  0
  184.4970  174.2050  135.7260 C   0  0  1  0  0  3  0  0  0  0  0  0
  184.1490  175.0550  134.6720 O   0  0  0  0  0  1  0  0  0  0  0  0
  184.7460  169.8950  135.5600 C   0  0  0  0  0  2  0  0  0  0  0  0
  184.3200  172.7400  135.3220 C   0  0  2  0  0  3  0  0  0  0  0  0
  183.4110  170.4950  136.0130 C   0  0  1  0  0  3  0  0  0  0  0  0
  183.5940  171.9560  136.4220 C   0  0  0  0  0  2  0  0  0  0  0  0
  185.6250  172.1260  135.0720 N   0  0  0  0  0  2  0  0  0  0  0  0
  185.4160  170.7900  134.5200 C   0  0  0  0  0  2  0  0  0  0  0  0
  182.3410  170.3740  134.9340 C   0  0  0  0  0  2  0  0  0  0  0  0
  180.0280  169.2990  135.3680 N   0  0  0  0  0  1  0  0  0  0  0  0
  181.6270  168.7030  134.9180 S   0  0  0  0  0  0  0  0  0  0  0  0
  187.9620  177.6810  139.0830 N   0  0  0  0  0  0  0  0  0  0  0  0
  188.5350  176.5320  139.0850 C   0  0  0  0  0  3  0  0  0  0  0  0
  187.4240  178.2260  140.3010 C   0  0  1  0  0  3  0  0  0  0  0  0
  185.9690  178.6180  140.0970 C   0  0  0  0  0  2  0  0  0  0  0  0
  185.5310  178.3160  138.6760 C   0  0  0  0  0  2  0  0  0  0  0  0
  184.1060  178.0300  138.6480 N   0  0  0  0  0  2  0  0  0  0  0  0
  183.7130  177.5830  139.9820 C   0  0  1  0  0  3  0  0  0  0  0  0
  183.0620  178.6680  140.7100 N   0  0  0  0  0  2  0  0  0  0  0  0
  184.2600  178.3260  142.9500 C   0  0  0  0  0  3  0  0  0  0  0  0
  184.1860  178.9600  144.1090 C   0  0  0  0  0  0  0  0  0  0  0  0
  182.7310  180.0040  142.6520 N   0  0  0  0  0  0  0  0  0  0  0  0
  183.2020  180.0850  144.0240 C   0  0  0  0  0  2  0  0  0  0  0  0
  183.3310  179.0200  142.0720 C   0  0  0  0  0  0  0  0  0  0  0  0
  187.0520  177.9570  146.3590 C   0  0  0  0  0  0  0  0  0  0  0  0
  188.4900  177.6020  146.2650 C   0  0  0  0  0  1  0  0  0  0  0  0
  184.3750  178.6330  146.5730 C   0  0  0  0  0  3  0  0  0  0  0  0
  186.4150  177.9800  147.5980 C   0  0  0  0  0  3  0  0  0  0  0  0
  184.9720  178.6150  145.3070 C   0  0  0  0  0  0  0  0  0  0  0  0
  185.1000  178.3160  147.6780 N   0  0  0  0  0  0  0  0  0  0  0  0
  186.3270  178.2710  145.2110 C   0  0  0  0  0  3  0  0  0  0  0  0
  180.8440  175.4620  138.5640 C   0  0  0  0  0  2  0  0  0  0  0  0
  181.5280  176.5580  140.5800 N   0  0  0  0  0  2  0  0  0  0  0  0
  180.6480  175.5300  140.0580 C   0  0  0  0  0  2  0  0  0  0  0  0
  182.6040  175.7380  138.2560 S   0  0  0  0  0  0  0  0  0  0  0  0
  182.8290  176.3270  139.9630 C   0  0  1  0  0  3  0  0  0  0  0  0
  187.5140  177.2710  141.3130 O   0  0  0  0  0  0  0  0  0  0  0  0
  188.3820  177.8250  142.2570 C   0  0  0  0  0  2  0  0  0  0  0  0
  189.8550  175.7130  142.1190 C   0  0  0  0  0  1  0  0  0  0  0  0
  190.8040  177.9530  141.9190 C   0  0  0  0  0  2  0  0  0  0  0  0
  189.7300  177.1980  142.1330 C   0  0  0  0  0  0  0  0  0  0  0  0
  190.2300  176.7900  137.3020 C   0  0  0  0  0  2  0  0  0  0  0  0
  192.4030  175.6740  137.2000 C   0  0  0  0  0  3  0  0  0  0  0  0
  191.2280  175.9160  136.6290 C   0  0  0  0  0  3  0  0  0  0  0  0
  193.4050  174.7890  136.5260 C   0  0  2  0  0  3  0  0  0  0  0  0
  194.7500  175.4480  136.5210 C   0  0  0  0  0  0  0  0  0  0  0  0
  195.4010  175.5730  137.5930 O   0  0  0  0  0  0  0  0  0  0  0  0
  195.2960  175.9110  135.2830 N   0  0  0  0  0  2  0  0  0  0  0  0
  196.4540  177.8580  134.3470 C   0  0  0  0  0  1  0  0  0  0  0  0
  196.5870  176.5830  135.1580 C   0  0  2  0  0  3  0  0  0  0  0  0
  197.5600  175.6880  134.5470 N   0  0  0  0  0  2  0  0  0  0  0  0
  199.8270  175.0820  135.1380 C   0  0  0  0  0  1  0  0  0  0  0  0
  198.3880  175.1350  135.6060 C   0  0  2  0  0  3  0  0  0  0  0  0
  197.8290  173.4530  136.0210 S   0  0  0  0  0  1  0  0  0  0  0  0
  192.9600  174.3940  135.1450 C   0  0  0  0  0  0  0  0  0  0  0  0
  192.4800  175.2650  134.3680 O   0  0  0  0  0  0  0  0  0  0  0  0
  192.9930  173.0530  134.7570 O   0  0  0  0  0  0  0  0  0  0  0  0
  192.6550  172.0050  135.6550 C   0  0  0  0  0  3  0  0  0  0  0  0
  192.9760  170.6740  135.0070 C   0  0  0  0  0  2  0  0  0  0  0  0
  193.9140  171.2540  136.0400 C   0  0  0  0  0  2  0  0  0  0  0  0
  1 48  1  6  0  0  0
  1 19  1  0  0  0  0
  2  7  1  6  0  0  0
  2  4  1  0  0  0  0
  3  4  1  0  0  0  0
  3  1  1  1  0  0  0
  5  3  1  0  0  0  0
  6  5  1  0  0  0  0
  6  2  1  0  0  0  0
  7  8  1  6  0  0  0
  9 11  1  0  0  0  0
 10  7  1  1  0  0  0
 10 12  1  0  0  0  0
 11 15  1  6  0  0  0
 11 12  1  0  0  0  0
 13 10  1  0  0  0  0
 14 13  1  0  0  0  0
 14  9  1  0  0  0  0
 17 15  1  0  0  0  0
 17 16  1  0  0  0  0
 18 19  2  0  0  0  0
 18 20  1  0  0  0  0
 20 21  1  6  0  0  0
 20 43  1  0  0  0  0
 22 21  1  0  0  0  0
 23 22  1  0  0  0  0
 24 23  1  6  0  0  0
 24 25  1  0  0  0  0
 25 30  1  0  0  0  0
 26 27  2  0  0  0  0
 27 35  1  0  0  0  0
 28 29  1  0  0  0  0
 29 27  1  0  0  0  0
 30 28  2  0  0  0  0
 30 26  1  0  0  0  0
 31 34  1  0  0  0  0
 32 31  1  0  0  0  0
 33 36  1  0  0  0  0
 34 36  2  0  0  0  0
 35 33  2  0  0  0  0
 37 35  1  0  0  0  0
 37 31  2  0  0  0  0
 38 40  1  0  0  0  0
 40 39  1  0  0  0  0
 41 38  1  0  0  0  0
 41 42  1  0  0  0  0
 42 24  1  6  0  0  0
 42 39  1  0  0  0  0
 43 44  1  0  0  0  0
 45 47  1  0  0  0  0
 46 47  2  0  0  0  0
 47 44  1  0  0  0  0
 50 49  2  0  0  0  0
 50 48  1  0  0  0  0
 51 49  1  6  0  0  0
 52 51  1  0  0  0  0
 52 53  2  0  0  0  0
 54 52  1  0  0  0  0
 56 55  1  6  0  0  0
 56 54  1  0  0  0  0
 57 56  1  0  0  0  0
 57 59  1  0  0  0  0
 59 58  1  6  0  0  0
 59 60  1  0  0  0  0
 61 51  1  0  0  0  0
 62 61  2  0  0  0  0
 63 61  1  0  0  0  0
 63 64  1  0  0  0  0
 64 66  1  0  0  0  0
 65 64  1  0  0  0  0
 65 66  1  0  0  0  0
M  END
>  <MODEL>
8

>  <REMARK>
 VINA RESULT:      -2.8      2.683      7.541
  Name = 
  27 active torsions:
  status: ('A' for Active; 'I' for Inactive)
    1  A    between atoms: C_3  and  C_5
    2  A    between atoms: C_3  and  C_14
    3  A    between atoms: C_6  and  N_10
    4  A    between atoms: C_6  and  N_50
    5  A    between atoms: C_6  and  C_61
    6  A    between atoms: O_7  and  C_37
    7  A    between atoms: O_7  and  C_45
    8  A    between atoms: C_8  and  C_17
    9  A    between atoms: C_9  and  C_42
   10  A    between atoms: N_11  and  C_37
   11  A    between atoms: C_13  and  C_42
   12  A    between atoms: C_13  and  O_53
   13  A    between atoms: C_17  and  C_18
   14  A    between atoms: C_17  and  C_26
   15  A    between atoms: C_18  and  C_48
   16  A    between atoms: C_23  and  C_49
   17  A    between atoms: C_27  and  C_28
   18  A    between atoms: C_27  and  C_37
   19  A    between atoms: C_28  and  N_50
   20  A    between atoms: C_29  and  C_55
   21  A    between atoms: C_31  and  C_42
   22  A    between atoms: C_35  and  O_53
   23  A    between atoms: C_44  and  C_45
   24  A    between atoms: C_46  and  N_59
   25  A    between atoms: C_46  and  N_66
   26  A    between atoms: C_51  and  N_59
   27  A    between atoms: C_55  and  S_60
                            x       y       z     vdW  Elec       q    Type
                         _______ _______ _______ _____ _____    ______ ____

>  <TORSDO>
F 27

$$$$
=
 OpenBabel10232412063D

 66 71  0  0  1  0  0  0  0  0999 V2000
  190.1890  177.0040  140.3060 C   0  0  2  0  0  3  0  0  0  0  0  0
  186.6690  177.9230  138.9650 C   0  0  2  0  0  3  0  0  0  0  0  0
  188.6670  177.1950  140.3250 C   0  0  2  0  0  3  0  0  0  0  0  0
  187.8880  176.6250  138.7710 S   0  0  0  0  0  0  0  0  0  0  0  0
  188.3130  178.6740  140.4830 C   0  0  0  0  0  2  0  0  0  0  0  0
  186.9790  178.8570  139.8530 C   0  0  0  0  0  2  0  0  0  0  0  0
  185.3290  177.8910  138.2950 C   0  0  1  0  0  3  0  0  0  0  0  0
  185.2030  178.9990  137.4520 O   0  0  0  0  0  1  0  0  0  0  0  0
  183.9530  174.9080  135.4880 C   0  0  0  0  0  2  0  0  0  0  0  0
  185.1420  176.5900  137.5110 C   0  0  2  0  0  3  0  0  0  0  0  0
  185.3560  175.4780  135.2610 C   0  0  1  0  0  3  0  0  0  0  0  0
  185.5370  176.7800  136.0410 C   0  0  0  0  0  2  0  0  0  0  0  0
  183.7460  176.1560  137.5840 N   0  0  0  0  0  2  0  0  0  0  0  0
  183.6360  174.8310  136.9800 C   0  0  0  0  0  2  0  0  0  0  0  0
  186.4420  174.4760  135.6390 C   0  0  0  0  0  2  0  0  0  0  0  0
  187.3980  172.3380  134.5400 N   0  0  0  0  0  1  0  0  0  0  0  0
  185.8830  172.7740  135.3320 S   0  0  0  0  0  0  0  0  0  0  0  0
  191.8080  176.6780  138.5220 N   0  0  0  0  0  0  0  0  0  0  0  0
  190.6710  176.3690  139.0330 C   0  0  0  0  0  3  0  0  0  0  0  0
  192.2550  176.0430  137.3110 C   0  0  1  0  0  3  0  0  0  0  0  0
  191.4840  174.7510  137.0870 C   0  0  0  0  0  2  0  0  0  0  0  0
  192.4210  173.5590  137.1300 C   0  0  0  0  0  2  0  0  0  0  0  0
  193.4870  173.7310  136.1570 N   0  0  0  0  0  2  0  0  0  0  0  0
  193.2290  172.8190  135.0460 C   0  0  1  0  0  3  0  0  0  0  0  0
  194.4660  172.1680  134.6250 N   0  0  0  0  0  2  0  0  0  0  0  0
  196.0340  173.3380  136.2800 C   0  0  0  0  0  3  0  0  0  0  0  0
  197.3360  173.2430  136.4980 C   0  0  0  0  0  0  0  0  0  0  0  0
  196.8060  171.7710  134.8000 N   0  0  0  0  0  0  0  0  0  0  0  0
  197.9450  172.2380  135.5720 C   0  0  0  0  0  2  0  0  0  0  0  0
  195.7530  172.3950  135.2090 C   0  0  0  0  0  0  0  0  0  0  0  0
  198.2670  174.9270  139.7510 C   0  0  0  0  0  0  0  0  0  0  0  0
  197.7170  175.1320  141.1140 C   0  0  0  0  0  1  0  0  0  0  0  0
  199.3320  174.5480  137.2230 C   0  0  0  0  0  3  0  0  0  0  0  0
  199.5110  175.4530  139.4100 C   0  0  0  0  0  3  0  0  0  0  0  0
  198.0750  174.0080  137.5180 C   0  0  0  0  0  0  0  0  0  0  0  0
  200.0140  175.2520  138.1630 N   0  0  0  0  0  0  0  0  0  0  0  0
  197.5460  174.2060  138.8010 C   0  0  0  0  0  3  0  0  0  0  0  0
  191.5230  169.4190  134.5280 C   0  0  0  0  0  2  0  0  0  0  0  0
  191.0880  171.7660  134.3460 N   0  0  0  0  0  2  0  0  0  0  0  0
  190.4450  170.4710  134.4550 C   0  0  0  0  0  2  0  0  0  0  0  0
  192.8720  170.1220  135.5040 S   0  0  0  0  0  0  0  0  0  0  0  0
  192.1400  171.7810  135.3550 C   0  0  1  0  0  3  0  0  0  0  0  0
  192.0500  176.9040  136.2340 O   0  0  0  0  0  0  0  0  0  0  0  0
  191.8920  176.0680  135.1260 C   0  0  0  0  0  2  0  0  0  0  0  0
  189.7410  174.8750  134.3520 C   0  0  0  0  0  1  0  0  0  0  0  0
  189.8520  177.3040  134.5740 C   0  0  0  0  0  2  0  0  0  0  0  0
  190.4840  176.1340  134.6400 C   0  0  0  0  0  0  0  0  0  0  0  0
  190.6470  176.1780  141.4990 C   0  0  0  0  0  2  0  0  0  0  0  0
  189.0190  175.9360  143.3060 C   0  0  0  0  0  3  0  0  0  0  0  0
  189.9610  176.6700  142.7240 C   0  0  0  0  0  3  0  0  0  0  0  0
  188.3320  176.4270  144.5420 C   0  0  2  0  0  3  0  0  0  0  0  0
  187.0990  177.1940  144.1740 C   0  0  0  0  0  0  0  0  0  0  0  0
  186.7550  177.3020  142.9650 O   0  0  0  0  0  0  0  0  0  0  0  0
  186.3040  177.7790  145.2090 N   0  0  0  0  0  2  0  0  0  0  0  0
  184.2830  178.7000  146.2430 C   0  0  0  0  0  1  0  0  0  0  0  0
  185.0950  178.5600  144.9700 C   0  0  2  0  0  3  0  0  0  0  0  0
  184.2970  177.9410  143.9210 N   0  0  0  0  0  2  0  0  0  0  0  0
  181.9860  178.6610  143.9010 C   0  0  0  0  0  1  0  0  0  0  0  0
  183.3860  178.9450  143.3980 C   0  0  2  0  0  3  0  0  0  0  0  0
  183.3890  178.9050  141.5780 S   0  0  0  0  0  1  0  0  0  0  0  0
  189.2590  177.2280  145.4150 C   0  0  0  0  0  0  0  0  0  0  0  0
  190.4860  177.2950  145.1280 O   0  0  0  0  0  0  0  0  0  0  0  0
  188.7800  177.8180  146.5870 O   0  0  0  0  0  0  0  0  0  0  0  0
  188.9450  177.2030  147.8570 C   0  0  0  0  0  3  0  0  0  0  0  0
  189.2580  178.2690  148.8860 C   0  0  0  0  0  2  0  0  0  0  0  0
  187.8610  177.6980  148.7940 C   0  0  0  0  0  2  0  0  0  0  0  0
  1 19  1  6  0  0  0
  1 48  1  0  0  0  0
  2  7  1  1  0  0  0
  2  6  1  0  0  0  0
  3  1  1  6  0  0  0
  3  5  1  0  0  0  0
  4  2  1  0  0  0  0
  4  3  1  0  0  0  0
  6  5  1  0  0  0  0
  7  8  1  6  0  0  0
  9 14  1  0  0  0  0
 10 13  1  0  0  0  0
 10  7  1  1  0  0  0
 11  9  1  0  0  0  0
 11 15  1  1  0  0  0
 11 12  1  0  0  0  0
 12 10  1  0  0  0  0
 14 13  1  0  0  0  0
 16 17  1  0  0  0  0
 17 15  1  0  0  0  0
 18 19  2  0  0  0  0
 20 21  1  6  0  0  0
 20 18  1  0  0  0  0
 21 22  1  0  0  0  0
 23 22  1  0  0  0  0
 24 25  1  1  0  0  0
 24 23  1  0  0  0  0
 25 30  1  0  0  0  0
 26 27  2  0  0  0  0
 27 35  1  0  0  0  0
 28 30  2  0  0  0  0
 28 29  1  0  0  0  0
 29 27  1  0  0  0  0
 30 26  1  0  0  0  0
 31 32  1  0  0  0  0
 33 35  2  0  0  0  0
 33 36  1  0  0  0  0
 34 31  1  0  0  0  0
 35 37  1  0  0  0  0
 36 34  2  0  0  0  0
 37 31  2  0  0  0  0
 38 41  1  0  0  0  0
 39 40  1  0  0  0  0
 39 42  1  0  0  0  0
 40 38  1  0  0  0  0
 42 24  1  6  0  0  0
 42 41  1  0  0  0  0
 43 20  1  0  0  0  0
 44 43  1  0  0  0  0
 45 47  1  0  0  0  0
 46 47  2  0  0  0  0
 47 44  1  0  0  0  0
 48 50  1  0  0  0  0
 50 49  2  0  0  0  0
 51 49  1  6  0  0  0
 51 61  1  0  0  0  0
 52 51  1  0  0  0  0
 52 54  1  0  0  0  0
 53 52  2  0  0  0  0
 56 54  1  0  0  0  0
 56 55  1  1  0  0  0
 57 56  1  0  0  0  0
 59 58  1  1  0  0  0
 59 57  1  0  0  0  0
 60 59  1  0  0  0  0
 61 63  1  0  0  0  0
 62 61  2  0  0  0  0
 63 64  1  0  0  0  0
 64 66  1  0  0  0  0
 64 65  1  0  0  0  0
 66 65  1  0  0  0  0
M  END
>  <MODEL>
9

>  <REMARK>
 VINA RESULT:      -2.7      2.590     11.425
  Name = 
  27 active torsions:
  status: ('A' for Active; 'I' for Inactive)
    1  A    between atoms: C_3  and  C_5
    2  A    between atoms: C_3  and  C_14
    3  A    between atoms: C_6  and  N_10
    4  A    between atoms: C_6  and  N_50
    5  A    between atoms: C_6  and  C_61
    6  A    between atoms: O_7  and  C_37
    7  A    between atoms: O_7  and  C_45
    8  A    between atoms: C_8  and  C_17
    9  A    between atoms: C_9  and  C_42
   10  A    between atoms: N_11  and  C_37
   11  A    between atoms: C_13  and  C_42
   12  A    between atoms: C_13  and  O_53
   13  A    between atoms: C_17  and  C_18
   14  A    between atoms: C_17  and  C_26
   15  A    between atoms: C_18  and  C_48
   16  A    between atoms: C_23  and  C_49
   17  A    between atoms: C_27  and  C_28
   18  A    between atoms: C_27  and  C_37
   19  A    between atoms: C_28  and  N_50
   20  A    between atoms: C_29  and  C_55
   21  A    between atoms: C_31  and  C_42
   22  A    between atoms: C_35  and  O_53
   23  A    between atoms: C_44  and  C_45
   24  A    between atoms: C_46  and  N_59
   25  A    between atoms: C_46  and  N_66
   26  A    between atoms: C_51  and  N_59
   27  A    between atoms: C_55  and  S_60
                            x       y       z     vdW  Elec       q    Type
                         _______ _______ _______ _____ _____    ______ ____

>  <TORSDO>
F 27

$$$$
