=
 OpenBabel10232411083D

 36 40  0  0  1  0  0  0  0  0999 V2000
  183.6880  178.6060  143.1980 N   0  0  0  0  0  0  0  0  0  0  0  0
  188.7240  177.2910  141.5470 C   0  0  0  0  0  0  0  0  0  0  0  0
  189.9670  176.6350  141.5690 C   0  0  0  0  0  0  0  0  0  0  0  0
  186.6330  177.9300  142.6140 C   0  0  0  0  0  0  0  0  0  0  0  0
  183.0260  179.2040  139.7350 C   0  0  2  0  0  3  0  0  0  0  0  0
  185.9750  177.9670  143.7780 C   0  0  0  0  0  2  0  0  0  0  0  0
  183.7760  178.7400  141.9130 C   0  0  0  0  0  0  0  0  0  0  0  0
  181.2650  178.6770  141.5240 C   0  0  0  0  0  1  0  0  0  0  0  0
  184.5420  179.4780  139.7910 C   0  0  0  0  0  2  0  0  0  0  0  0
  188.3460  178.0290  140.4120 C   0  0  0  0  0  0  0  0  0  0  0  0
  184.9850  179.0310  141.1570 C   0  0  2  0  0  3  0  0  0  0  0  0
  187.8580  177.2600  142.6400 C   0  0  0  0  0  3  0  0  0  0  0  0
  189.2180  178.0920  139.3130 C   0  0  0  0  0  0  0  0  0  0  0  0
  190.4080  177.4360  139.3580 N   0  0  0  0  0  0  0  0  0  0  0  0
  187.1280  178.6300  140.3750 N   0  0  0  0  0  0  0  0  0  0  0  0
  190.7940  176.7200  140.4470 C   0  0  0  0  0  3  0  0  0  0  0  0
  182.6430  178.7690  141.0700 N   0  0  0  0  0  0  0  0  0  0  0  0
  184.8040  178.8330  144.0950 C   0  0  0  0  0  2  0  0  0  0  0  0
  186.2360  178.5830  141.4060 C   0  0  0  0  0  0  0  0  0  0  0  0
  182.7460  178.1520  138.7650 N   0  0  0  0  0  0  0  0  0  0  0  0
  182.3650  178.3580  137.4970 C   0  0  0  0  0  3  0  0  0  0  0  0
  182.5450  176.2000  137.8810 C   0  0  0  0  0  3  0  0  0  0  0  0
  182.2220  177.1200  136.8940 C   0  0  0  0  0  3  0  0  0  0  0  0
  182.8630  176.8600  139.0110 N   0  0  0  0  0  0  0  0  0  0  0  0
  190.5200  175.6790  142.9850 S   0  0  0  0  0  0  0  0  0  0  0  0
  191.4150  177.0870  143.7070 C   0  0  1  0  0  3  0  0  0  0  0  0
  191.3860  178.1650  142.8220 O   0  0  0  0  0  1  0  0  0  0  0  0
  190.2930  179.0400  145.2270 O   0  0  0  0  0  0  0  0  0  0  0  0
  190.6350  177.5680  145.2730 P   0  0  1  0  0  0  0  0  0  0  0  0
  189.2200  176.6680  145.4980 O   0  0  0  0  0  1  0  0  0  0  0  0
  192.0560  175.8430  146.5810 C   0  0  0  0  0  1  0  0  0  0  0  0
  191.7490  177.2620  146.5920 N   0  0  0  0  0  2  0  0  0  0  0  0
  188.8430  178.8380  138.0710 C   0  0  0  0  0  2  0  0  0  0  0  0
  188.1290  177.9250  137.0880 C   0  0  0  0  0  2  0  0  0  0  0  0
  186.0390  177.2190  137.1460 C   0  0  0  0  0  1  0  0  0  0  0  0
  186.8130  178.3530  136.9040 O   0  0  0  0  0  0  0  0  0  0  0  0
  1 18  1  0  0  0  0
  2  3  1  0  0  0  0
  2 12  1  0  0  0  0
  3 25  1  0  0  0  0
  4 12  2  0  0  0  0
  4  6  1  0  0  0  0
  5 20  1  6  0  0  0
  5  9  1  0  0  0  0
  5 17  1  0  0  0  0
  6 18  1  0  0  0  0
  7  1  2  0  0  0  0
 10  2  2  0  0  0  0
 11  9  1  6  0  0  0
 11 19  1  0  0  0  0
 11  7  1  0  0  0  0
 13 14  2  0  0  0  0
 13 10  1  0  0  0  0
 14 16  1  0  0  0  0
 15 10  1  0  0  0  0
 15 19  2  0  0  0  0
 16  3  2  0  0  0  0
 17  8  1  0  0  0  0
 17  7  1  0  0  0  0
 19  4  1  0  0  0  0
 20 24  1  0  0  0  0
 21 20  1  0  0  0  0
 22 24  2  0  0  0  0
 23 21  2  0  0  0  0
 23 22  1  0  0  0  0
 25 26  1  0  0  0  0
 26 27  1  6  0  0  0
 26 29  1  0  0  0  0
 29 28  2  6  0  0  0
 29 30  1  0  0  0  0
 29 32  1  0  0  0  0
 31 32  1  0  0  0  0
 33 13  1  0  0  0  0
 34 33  1  0  0  0  0
 36 34  1  0  0  0  0
 36 35  1  0  0  0  0
M  END
>  <MODEL>
1

>  <REMARK>
 VINA RESULT:      -8.0      0.000      0.000
  Name = 
  8 active torsions:
  status: ('A' for Active; 'I' for Inactive)
    1  A    between atoms: S_1  and  C_4
    2  A    between atoms: S_1  and  C_8
    3  A    between atoms: C_4  and  P_32
    4  A    between atoms: C_10  and  C_13
    5  A    between atoms: C_10  and  C_26
    6  A    between atoms: C_11  and  N_15
    7  A    between atoms: C_13  and  O_23
    8  A    between atoms: N_21  and  P_32
                            x       y       z     vdW  Elec       q    Type
                         _______ _______ _______ _____ _____    ______ ____

>  <TORSDO>
F 8

$$$$
=
 OpenBabel10232411083D

 36 40  0  0  1  0  0  0  0  0999 V2000
  182.1790  178.8500  142.0300 N   0  0  0  0  0  0  0  0  0  0  0  0
  187.5080  177.6620  141.9200 C   0  0  0  0  0  0  0  0  0  0  0  0
  188.7170  177.0820  142.3390 C   0  0  0  0  0  0  0  0  0  0  0  0
  185.1910  178.2850  142.3210 C   0  0  0  0  0  0  0  0  0  0  0  0
  182.4540  179.0700  138.4720 C   0  0  2  0  0  3  0  0  0  0  0  0
  184.2440  178.3980  143.2590 C   0  0  0  0  0  2  0  0  0  0  0  0
  182.6050  178.8630  140.8080 C   0  0  0  0  0  0  0  0  0  0  0  0
  180.2930  178.6240  139.7800 C   0  0  0  0  0  1  0  0  0  0  0  0
  183.8920  179.4320  138.8960 C   0  0  0  0  0  2  0  0  0  0  0  0
  187.4280  178.2640  140.6520 C   0  0  0  0  0  0  0  0  0  0  0  0
  183.9640  179.1460  140.3700 C   0  0  2  0  0  3  0  0  0  0  0  0
  186.3820  177.6900  142.7420 C   0  0  0  0  0  3  0  0  0  0  0  0
  188.5600  178.2680  139.8220 C   0  0  0  0  0  0  0  0  0  0  0  0
  189.7130  177.6870  140.2500 N   0  0  0  0  0  0  0  0  0  0  0  0
  186.2490  178.7900  140.2290 N   0  0  0  0  0  0  0  0  0  0  0  0
  189.8120  177.1030  141.4740 C   0  0  0  0  0  3  0  0  0  0  0  0
  181.7390  178.7470  139.6980 N   0  0  0  0  0  0  0  0  0  0  0  0
  183.0080  179.2250  143.1600 C   0  0  0  0  0  2  0  0  0  0  0  0
  185.1140  178.7940  140.9880 C   0  0  0  0  0  0  0  0  0  0  0  0
  182.4740  177.9150  137.5830 N   0  0  0  0  0  0  0  0  0  0  0  0
  182.1560  177.9430  136.2810 C   0  0  0  0  0  3  0  0  0  0  0  0
  182.7500  175.9070  136.8620 C   0  0  0  0  0  3  0  0  0  0  0  0
  182.3190  176.6620  135.7820 C   0  0  0  0  0  3  0  0  0  0  0  0
  182.8370  176.6990  137.9470 N   0  0  0  0  0  0  0  0  0  0  0  0
  188.8960  176.3000  143.9460 S   0  0  0  0  0  0  0  0  0  0  0  0
  189.6470  177.7800  144.6890 C   0  0  1  0  0  3  0  0  0  0  0  0
  189.0000  178.0830  145.8870 O   0  0  0  0  0  1  0  0  0  0  0  0
  191.8650  176.2940  144.1870 O   0  0  0  0  0  0  0  0  0  0  0  0
  191.4070  177.4750  145.0110 P   0  0  1  0  0  0  0  0  0  0  0  0
  192.3030  178.8440  144.5810 O   0  0  0  0  0  1  0  0  0  0  0  0
  192.1610  175.7810  146.8190 C   0  0  0  0  0  1  0  0  0  0  0  0
  191.6320  177.1300  146.7150 N   0  0  0  0  0  2  0  0  0  0  0  0
  188.5120  178.8680  138.4520 C   0  0  0  0  0  2  0  0  0  0  0  0
  188.3960  177.7840  137.3920 C   0  0  0  0  0  2  0  0  0  0  0  0
  186.3150  177.1130  137.0920 C   0  0  0  0  0  1  0  0  0  0  0  0
  187.2670  178.0060  136.6010 O   0  0  0  0  0  0  0  0  0  0  0  0
  1 18  1  0  0  0  0
  2  3  1  0  0  0  0
  2 12  1  0  0  0  0
  3 25  1  0  0  0  0
  4 12  2  0  0  0  0
  4  6  1  0  0  0  0
  5 20  1  6  0  0  0
  5  9  1  0  0  0  0
  5 17  1  0  0  0  0
  7  1  2  0  0  0  0
 10  2  2  0  0  0  0
 11  9  1  6  0  0  0
 11  7  1  0  0  0  0
 11 19  1  0  0  0  0
 13 14  2  0  0  0  0
 13 10  1  0  0  0  0
 14 16  1  0  0  0  0
 15 10  1  0  0  0  0
 15 19  2  0  0  0  0
 16  3  2  0  0  0  0
 17  8  1  0  0  0  0
 17  7  1  0  0  0  0
 18  6  1  0  0  0  0
 19  4  1  0  0  0  0
 20 24  1  0  0  0  0
 21 20  1  0  0  0  0
 22 24  2  0  0  0  0
 23 21  2  0  0  0  0
 23 22  1  0  0  0  0
 25 26  1  0  0  0  0
 26 29  1  0  0  0  0
 26 27  1  1  0  0  0
 29 28  2  6  0  0  0
 29 32  1  0  0  0  0
 30 29  1  0  0  0  0
 32 31  1  0  0  0  0
 33 13  1  0  0  0  0
 34 33  1  0  0  0  0
 36 35  1  0  0  0  0
 36 34  1  0  0  0  0
M  END
>  <MODEL>
2

>  <REMARK>
 VINA RESULT:      -7.7      1.204      1.669
  Name = 
  8 active torsions:
  status: ('A' for Active; 'I' for Inactive)
    1  A    between atoms: S_1  and  C_4
    2  A    between atoms: S_1  and  C_8
    3  A    between atoms: C_4  and  P_32
    4  A    between atoms: C_10  and  C_13
    5  A    between atoms: C_10  and  C_26
    6  A    between atoms: C_11  and  N_15
    7  A    between atoms: C_13  and  O_23
    8  A    between atoms: N_21  and  P_32
                            x       y       z     vdW  Elec       q    Type
                         _______ _______ _______ _____ _____    ______ ____

>  <TORSDO>
F 8

$$$$
=
 OpenBabel10232411083D

 36 40  0  0  1  0  0  0  0  0999 V2000
  190.9790  176.6890  139.3280 N   0  0  0  0  0  0  0  0  0  0  0  0
  185.9450  176.7800  137.2100 C   0  0  0  0  0  0  0  0  0  0  0  0
  184.8490  176.3380  136.4500 C   0  0  0  0  0  0  0  0  0  0  0  0
  188.3020  176.6850  137.8080 C   0  0  0  0  0  0  0  0  0  0  0  0
  189.5310  178.4420  142.0880 C   0  0  2  0  0  3  0  0  0  0  0  0
  189.4940  176.1950  137.4490 C   0  0  0  0  0  2  0  0  0  0  0  0
  190.1750  177.3040  140.1350 C   0  0  0  0  0  0  0  0  0  0  0  0
  191.6860  177.0520  142.1630 C   0  0  0  0  0  1  0  0  0  0  0  0
  188.5930  178.8770  140.9450 C   0  0  0  0  0  2  0  0  0  0  0  0
  185.7770  177.8290  138.1300 C   0  0  0  0  0  0  0  0  0  0  0  0
  188.9610  178.0170  139.7680 C   0  0  2  0  0  3  0  0  0  0  0  0
  187.2170  176.2260  137.0580 C   0  0  0  0  0  3  0  0  0  0  0  0
  184.5090  178.4160  138.2760 C   0  0  0  0  0  0  0  0  0  0  0  0
  183.4650  177.9590  137.5360 N   0  0  0  0  0  0  0  0  0  0  0  0
  186.8260  178.2310  138.8940 N   0  0  0  0  0  0  0  0  0  0  0  0
  183.6080  176.9460  136.6390 C   0  0  0  0  0  3  0  0  0  0  0  0
  190.4670  177.4920  141.5040 N   0  0  0  0  0  0  0  0  0  0  0  0
  190.8210  176.7130  137.8860 C   0  0  0  0  0  2  0  0  0  0  0  0
  188.0720  177.6820  138.8050 C   0  0  0  0  0  0  0  0  0  0  0  0
  188.7610  177.8010  143.1470 N   0  0  0  0  0  0  0  0  0  0  0  0
  189.0130  177.9200  144.4580 C   0  0  0  0  0  3  0  0  0  0  0  0
  187.2440  176.6500  144.1480 C   0  0  0  0  0  3  0  0  0  0  0  0
  188.0550  177.1870  145.1380 C   0  0  0  0  0  3  0  0  0  0  0  0
  187.6990  177.0440  142.9440 N   0  0  0  0  0  0  0  0  0  0  0  0
  184.9910  175.0060  135.2530 S   0  0  0  0  0  0  0  0  0  0  0  0
  183.7900  173.9610  136.1310 C   0  0  1  0  0  3  0  0  0  0  0  0
  182.8160  173.5150  135.2380 O   0  0  0  0  0  1  0  0  0  0  0  0
  185.2760  172.9520  138.1690 O   0  0  0  0  0  1  0  0  0  0  0  0
  184.6410  172.5350  136.8620 P   0  0  1  0  0  0  0  0  0  0  0  0
  183.5230  171.2970  137.1480 O   0  0  0  0  0  0  0  0  0  0  0  0
  185.4210  170.7130  135.1950 C   0  0  0  0  0  1  0  0  0  0  0  0
  185.8800  171.9710  135.7560 N   0  0  0  0  0  2  0  0  0  0  0  0
  184.2750  179.5140  139.2650 C   0  0  0  0  0  2  0  0  0  0  0  0
  184.1150  178.9510  140.6690 C   0  0  0  0  0  2  0  0  0  0  0  0
  184.7050  179.0930  142.7910 C   0  0  0  0  0  1  0  0  0  0  0  0
  185.1050  179.4640  141.5080 O   0  0  0  0  0  0  0  0  0  0  0  0
  1  7  2  0  0  0  0
  2 10  1  0  0  0  0
  3 16  2  0  0  0  0
  3  2  1  0  0  0  0
  4 19  2  0  0  0  0
  5  9  1  6  0  0  0
  5 20  1  0  0  0  0
  6  4  1  0  0  0  0
  6 18  1  0  0  0  0
  7 17  1  0  0  0  0
 10 13  1  0  0  0  0
 10 15  2  0  0  0  0
 11  7  1  0  0  0  0
 11  9  1  1  0  0  0
 12  2  2  0  0  0  0
 12  4  1  0  0  0  0
 13 33  1  0  0  0  0
 14 13  2  0  0  0  0
 16 14  1  0  0  0  0
 17  5  1  0  0  0  0
 17  8  1  0  0  0  0
 18  1  1  0  0  0  0
 19 15  1  0  0  0  0
 19 11  1  0  0  0  0
 20 21  1  0  0  0  0
 21 23  2  0  0  0  0
 22 23  1  0  0  0  0
 24 20  1  0  0  0  0
 24 22  2  0  0  0  0
 25 26  1  0  0  0  0
 25  3  1  0  0  0  0
 26 27  1  6  0  0  0
 26 29  1  0  0  0  0
 29 30  2  1  0  0  0
 29 28  1  0  0  0  0
 31 32  1  0  0  0  0
 32 29  1  0  0  0  0
 33 34  1  0  0  0  0
 34 36  1  0  0  0  0
 36 35  1  0  0  0  0
M  END
>  <MODEL>
3

>  <REMARK>
 VINA RESULT:      -7.3      3.963      8.179
  Name = 
  8 active torsions:
  status: ('A' for Active; 'I' for Inactive)
    1  A    between atoms: S_1  and  C_4
    2  A    between atoms: S_1  and  C_8
    3  A    between atoms: C_4  and  P_32
    4  A    between atoms: C_10  and  C_13
    5  A    between atoms: C_10  and  C_26
    6  A    between atoms: C_11  and  N_15
    7  A    between atoms: C_13  and  O_23
    8  A    between atoms: N_21  and  P_32
                            x       y       z     vdW  Elec       q    Type
                         _______ _______ _______ _____ _____    ______ ____

>  <TORSDO>
F 8

$$$$
=
 OpenBabel10232411083D

 36 40  0  0  1  0  0  0  0  0999 V2000
  181.7880  178.8370  141.6600 N   0  0  0  0  0  0  0  0  0  0  0  0
  187.0700  177.9230  142.7040 C   0  0  0  0  0  0  0  0  0  0  0  0
  188.1920  177.4760  143.4220 C   0  0  0  0  0  0  0  0  0  0  0  0
  184.7040  178.4790  142.5760 C   0  0  0  0  0  0  0  0  0  0  0  0
  182.7170  178.5280  138.2210 C   0  0  2  0  0  3  0  0  0  0  0  0
  183.5980  178.6840  143.2970 C   0  0  0  0  0  2  0  0  0  0  0  0
  182.4340  178.6860  140.5490 C   0  0  0  0  0  0  0  0  0  0  0  0
  180.3600  178.1740  139.1710 C   0  0  0  0  0  1  0  0  0  0  0  0
  184.0410  179.0230  138.8340 C   0  0  0  0  0  2  0  0  0  0  0  0
  187.2130  178.3190  141.3630 C   0  0  0  0  0  0  0  0  0  0  0  0
  183.8440  178.9690  140.3240 C   0  0  2  0  0  3  0  0  0  0  0  0
  185.8090  178.0170  143.2940 C   0  0  0  0  0  3  0  0  0  0  0  0
  188.4800  178.2560  140.7610 C   0  0  0  0  0  0  0  0  0  0  0  0
  189.5460  177.8070  141.4770 N   0  0  0  0  0  0  0  0  0  0  0  0
  186.1220  178.7140  140.6560 N   0  0  0  0  0  0  0  0  0  0  0  0
  189.4280  177.4210  142.7760 C   0  0  0  0  0  3  0  0  0  0  0  0
  181.7930  178.3580  139.3330 N   0  0  0  0  0  0  0  0  0  0  0  0
  182.3830  179.4220  142.8470 C   0  0  0  0  0  2  0  0  0  0  0  0
  184.8660  178.7750  141.1870 C   0  0  0  0  0  0  0  0  0  0  0  0
  182.9280  177.2530  137.5450 N   0  0  0  0  0  0  0  0  0  0  0  0
  183.6140  176.2200  138.0540 C   0  0  0  0  0  3  0  0  0  0  0  0
  182.8220  175.6890  136.0720 C   0  0  0  0  0  3  0  0  0  0  0  0
  183.5710  175.1910  137.1290 C   0  0  0  0  0  3  0  0  0  0  0  0
  182.4410  176.9480  136.3560 N   0  0  0  0  0  0  0  0  0  0  0  0
  188.0860  176.9580  145.1380 S   0  0  0  0  0  0  0  0  0  0  0  0
  189.8070  177.4270  145.4860 C   0  0  1  0  0  3  0  0  0  0  0  0
  189.9830  178.7860  145.2330 O   0  0  0  0  0  1  0  0  0  0  0  0
  189.5310  175.7840  147.6320 O   0  0  0  0  0  1  0  0  0  0  0  0
  190.1960  177.0790  147.2240 P   0  0  1  0  0  0  0  0  0  0  0  0
  191.8710  176.9340  147.4090 O   0  0  0  0  0  0  0  0  0  0  0  0
  188.2820  178.0060  148.7020 C   0  0  0  0  0  1  0  0  0  0  0  0
  189.5990  178.3890  148.2240 N   0  0  0  0  0  2  0  0  0  0  0  0
  188.6750  178.6370  139.3270 C   0  0  0  0  0  2  0  0  0  0  0  0
  188.9670  177.4110  138.4770 C   0  0  0  0  0  2  0  0  0  0  0  0
  188.0370  176.3480  136.7820 C   0  0  0  0  0  1  0  0  0  0  0  0
  187.7730  176.8150  138.0690 O   0  0  0  0  0  0  0  0  0  0  0  0
  1 18  1  0  0  0  0
  2 12  1  0  0  0  0
  2  3  2  0  0  0  0
  3 25  1  0  0  0  0
  4 12  2  0  0  0  0
  4  6  1  0  0  0  0
  5 20  1  1  0  0  0
  5  9  1  0  0  0  0
  5 17  1  0  0  0  0
  7  1  2  0  0  0  0
  8 17  1  0  0  0  0
 10  2  1  0  0  0  0
 11  9  1  6  0  0  0
 11  7  1  0  0  0  0
 11 19  1  0  0  0  0
 13 10  2  0  0  0  0
 13 14  1  0  0  0  0
 14 16  2  0  0  0  0
 15 19  2  0  0  0  0
 15 10  1  0  0  0  0
 16  3  1  0  0  0  0
 17  7  1  0  0  0  0
 18  6  1  0  0  0  0
 19  4  1  0  0  0  0
 20 21  1  0  0  0  0
 22 24  2  0  0  0  0
 22 23  1  0  0  0  0
 23 21  2  0  0  0  0
 24 20  1  0  0  0  0
 25 26  1  0  0  0  0
 26 27  1  1  0  0  0
 26 29  1  0  0  0  0
 29 30  2  1  0  0  0
 29 28  1  0  0  0  0
 29 32  1  0  0  0  0
 32 31  1  0  0  0  0
 33 13  1  0  0  0  0
 34 33  1  0  0  0  0
 35 36  1  0  0  0  0
 36 34  1  0  0  0  0
M  END
>  <MODEL>
4

>  <REMARK>
 VINA RESULT:      -7.1      1.879      2.428
  Name = 
  8 active torsions:
  status: ('A' for Active; 'I' for Inactive)
    1  A    between atoms: S_1  and  C_4
    2  A    between atoms: S_1  and  C_8
    3  A    between atoms: C_4  and  P_32
    4  A    between atoms: C_10  and  C_13
    5  A    between atoms: C_10  and  C_26
    6  A    between atoms: C_11  and  N_15
    7  A    between atoms: C_13  and  O_23
    8  A    between atoms: N_21  and  P_32
                            x       y       z     vdW  Elec       q    Type
                         _______ _______ _______ _____ _____    ______ ____

>  <TORSDO>
F 8

$$$$
=
 OpenBabel10232411083D

 36 40  0  0  1  0  0  0  0  0999 V2000
  190.1210  176.4540  136.7800 N   0  0  0  0  0  0  0  0  0  0  0  0
  184.6770  176.8050  137.0230 C   0  0  0  0  0  0  0  0  0  0  0  0
  183.3410  176.4500  136.7700 C   0  0  0  0  0  0  0  0  0  0  0  0
  187.0570  176.6250  136.5500 C   0  0  0  0  0  0  0  0  0  0  0  0
  190.0690  177.9590  140.0240 C   0  0  2  0  0  3  0  0  0  0  0  0
  187.9570  176.1560  135.6800 C   0  0  0  0  0  2  0  0  0  0  0  0
  189.7670  177.0000  137.8990 C   0  0  0  0  0  0  0  0  0  0  0  0
  191.9800  176.5410  139.0630 C   0  0  0  0  0  1  0  0  0  0  0  0
  188.7590  178.5110  139.4280 C   0  0  0  0  0  2  0  0  0  0  0  0
  184.9670  177.7660  138.0070 C   0  0  0  0  0  0  0  0  0  0  0  0
  188.5500  177.7600  138.1420 C   0  0  2  0  0  3  0  0  0  0  0  0
  185.7340  176.2520  136.3010 C   0  0  0  0  0  3  0  0  0  0  0  0
  183.9120  178.3520  138.7250 C   0  0  0  0  0  0  0  0  0  0  0  0
  182.6300  177.9790  138.4670 N   0  0  0  0  0  0  0  0  0  0  0  0
  186.2600  178.0810  138.2810 N   0  0  0  0  0  0  0  0  0  0  0  0
  182.3280  177.0540  137.5170 C   0  0  0  0  0  3  0  0  0  0  0  0
  190.6200  177.0560  139.0230 N   0  0  0  0  0  0  0  0  0  0  0  0
  189.3700  176.6140  135.5500 C   0  0  0  0  0  2  0  0  0  0  0  0
  187.3220  177.5270  137.6260 C   0  0  0  0  0  0  0  0  0  0  0  0
  189.7880  177.2310  141.2550 N   0  0  0  0  0  0  0  0  0  0  0  0
  188.6010  177.2070  141.8780 C   0  0  0  0  0  3  0  0  0  0  0  0
  190.0430  175.9530  142.9670 C   0  0  0  0  0  3  0  0  0  0  0  0
  188.7280  176.3940  142.9910 C   0  0  0  0  0  3  0  0  0  0  0  0
  190.6640  176.4780  141.8950 N   0  0  0  0  0  0  0  0  0  0  0  0
  182.8940  175.2340  135.5250 S   0  0  0  0  0  0  0  0  0  0  0  0
  182.5810  173.9400  136.7630 C   0  0  1  0  0  3  0  0  0  0  0  0
  181.3580  173.3250  136.4990 O   0  0  0  0  0  1  0  0  0  0  0  0
  183.3260  171.3370  136.9870 O   0  0  0  0  0  1  0  0  0  0  0  0
  183.9080  172.7040  136.7020 P   0  0  1  0  0  0  0  0  0  0  0  0
  184.6110  172.7070  135.1630 O   0  0  0  0  0  0  0  0  0  0  0  0
  186.4180  172.7970  137.3320 C   0  0  0  0  0  1  0  0  0  0  0  0
  185.1180  173.0940  137.9090 N   0  0  0  0  0  2  0  0  0  0  0  0
  184.1750  179.3560  139.8030 C   0  0  0  0  0  2  0  0  0  0  0  0
  184.2150  178.6850  141.1670 C   0  0  0  0  0  2  0  0  0  0  0  0
  185.2160  178.4960  143.1250 C   0  0  0  0  0  1  0  0  0  0  0  0
  185.3370  179.1110  141.8790 O   0  0  0  0  0  0  0  0  0  0  0  0
  1  7  2  0  0  0  0
  2 10  1  0  0  0  0
  3  2  2  0  0  0  0
  3 16  1  0  0  0  0
  4 19  1  0  0  0  0
  5  9  1  6  0  0  0
  5 20  1  0  0  0  0
  6  4  1  0  0  0  0
  7 11  1  0  0  0  0
  7 17  1  0  0  0  0
 10 15  1  0  0  0  0
 10 13  2  0  0  0  0
 11  9  1  1  0  0  0
 12  4  2  0  0  0  0
 12  2  1  0  0  0  0
 13 33  1  0  0  0  0
 14 13  1  0  0  0  0
 16 14  2  0  0  0  0
 17  8  1  0  0  0  0
 17  5  1  0  0  0  0
 18  6  1  0  0  0  0
 18  1  1  0  0  0  0
 19 11  1  0  0  0  0
 19 15  2  0  0  0  0
 20 21  1  0  0  0  0
 20 24  1  0  0  0  0
 21 23  2  0  0  0  0
 22 23  1  0  0  0  0
 24 22  2  0  0  0  0
 25 26  1  0  0  0  0
 25  3  1  0  0  0  0
 26 27  1  6  0  0  0
 29 30  2  6  0  0  0
 29 26  1  0  0  0  0
 29 28  1  0  0  0  0
 29 32  1  0  0  0  0
 31 32  1  0  0  0  0
 33 34  1  0  0  0  0
 34 36  1  0  0  0  0
 36 35  1  0  0  0  0
M  END
>  <MODEL>
5

>  <REMARK>
 VINA RESULT:      -6.7      3.916      8.518
  Name = 
  8 active torsions:
  status: ('A' for Active; 'I' for Inactive)
    1  A    between atoms: S_1  and  C_4
    2  A    between atoms: S_1  and  C_8
    3  A    between atoms: C_4  and  P_32
    4  A    between atoms: C_10  and  C_13
    5  A    between atoms: C_10  and  C_26
    6  A    between atoms: C_11  and  N_15
    7  A    between atoms: C_13  and  O_23
    8  A    between atoms: N_21  and  P_32
                            x       y       z     vdW  Elec       q    Type
                         _______ _______ _______ _____ _____    ______ ____

>  <TORSDO>
F 8

$$$$
=
 OpenBabel10232411083D

 36 40  0  0  1  0  0  0  0  0999 V2000
  181.2840  178.7940  140.7840 N   0  0  0  0  0  0  0  0  0  0  0  0
  186.0860  178.0540  143.2790 C   0  0  0  0  0  0  0  0  0  0  0  0
  186.9740  177.6540  144.2910 C   0  0  0  0  0  0  0  0  0  0  0  0
  183.8380  178.5390  142.4830 C   0  0  0  0  0  0  0  0  0  0  0  0
  183.1410  178.4470  137.7480 C   0  0  2  0  0  3  0  0  0  0  0  0
  182.5690  178.7260  142.8630 C   0  0  0  0  0  2  0  0  0  0  0  0
  182.2180  178.6410  139.9000 C   0  0  0  0  0  0  0  0  0  0  0  0
  180.6220  178.0430  138.0150 C   0  0  0  0  0  1  0  0  0  0  0  0
  184.2300  178.9920  138.6920 C   0  0  0  0  0  2  0  0  0  0  0  0
  186.5880  178.4290  142.0210 C   0  0  0  0  0  0  0  0  0  0  0  0
  183.6280  178.9600  140.0690 C   0  0  2  0  0  3  0  0  0  0  0  0
  184.7090  178.1230  143.4930 C   0  0  0  0  0  3  0  0  0  0  0  0
  187.9740  178.3910  141.7960 C   0  0  0  0  0  0  0  0  0  0  0  0
  188.8080  177.9870  142.7920 N   0  0  0  0  0  0  0  0  0  0  0  0
  185.7280  178.7780  141.0280 N   0  0  0  0  0  0  0  0  0  0  0  0
  188.3420  177.6230  144.0160 C   0  0  0  0  0  3  0  0  0  0  0  0
  181.9480  178.2710  138.5640 N   0  0  0  0  0  0  0  0  0  0  0  0
  181.5120  179.4180  142.0740 C   0  0  0  0  0  2  0  0  0  0  0  0
  184.3730  178.8130  141.1870 C   0  0  0  0  0  0  0  0  0  0  0  0
  183.5610  177.1660  137.1920 N   0  0  0  0  0  0  0  0  0  0  0  0
  183.9700  176.9750  135.9290 C   0  0  0  0  0  3  0  0  0  0  0  0
  184.0670  175.0800  137.0420 C   0  0  0  0  0  3  0  0  0  0  0  0
  184.3020  175.6380  135.7940 C   0  0  0  0  0  3  0  0  0  0  0  0
  183.6180  176.0380  137.8750 N   0  0  0  0  0  0  0  0  0  0  0  0
  186.4050  177.1660  145.9240 S   0  0  0  0  0  0  0  0  0  0  0  0
  187.4080  178.4330  146.7570 C   0  0  1  0  0  3  0  0  0  0  0  0
  186.5780  179.2810  147.4900 O   0  0  0  0  0  1  0  0  0  0  0  0
  189.3640  178.7000  148.6230 O   0  0  0  0  0  0  0  0  0  0  0  0
  188.5970  177.6360  147.8720 P   0  0  1  0  0  0  0  0  0  0  0  0
  187.7660  176.6560  148.9740 O   0  0  0  0  0  1  0  0  0  0  0  0
  191.0550  177.0620  147.2970 C   0  0  0  0  0  1  0  0  0  0  0  0
  189.7080  176.6600  146.9300 N   0  0  0  0  0  2  0  0  0  0  0  0
  188.5520  178.7510  140.4640 C   0  0  0  0  0  2  0  0  0  0  0  0
  188.8870  177.5010  139.6660 C   0  0  0  0  0  2  0  0  0  0  0  0
  191.0420  177.0450  139.8020 C   0  0  0  0  0  1  0  0  0  0  0  0
  190.0970  177.6720  138.9910 O   0  0  0  0  0  0  0  0  0  0  0  0
  1 18  1  0  0  0  0
  2 12  1  0  0  0  0
  2  3  2  0  0  0  0
  3 25  1  0  0  0  0
  4  6  1  0  0  0  0
  4 12  2  0  0  0  0
  5 20  1  1  0  0  0
  5 17  1  0  0  0  0
  5  9  1  0  0  0  0
  7 11  1  0  0  0  0
  7  1  2  0  0  0  0
  8 17  1  0  0  0  0
 10  2  1  0  0  0  0
 11  9  1  6  0  0  0
 11 19  1  0  0  0  0
 13 10  2  0  0  0  0
 13 14  1  0  0  0  0
 14 16  2  0  0  0  0
 15 19  2  0  0  0  0
 15 10  1  0  0  0  0
 16  3  1  0  0  0  0
 17  7  1  0  0  0  0
 18  6  1  0  0  0  0
 19  4  1  0  0  0  0
 20 24  1  0  0  0  0
 21 20  1  0  0  0  0
 22 24  2  0  0  0  0
 23 21  2  0  0  0  0
 23 22  1  0  0  0  0
 25 26  1  0  0  0  0
 26 27  1  1  0  0  0
 26 29  1  0  0  0  0
 29 28  2  1  0  0  0
 29 30  1  0  0  0  0
 32 31  1  0  0  0  0
 32 29  1  0  0  0  0
 33 13  1  0  0  0  0
 34 33  1  0  0  0  0
 36 34  1  0  0  0  0
 36 35  1  0  0  0  0
M  END
>  <MODEL>
6

>  <REMARK>
 VINA RESULT:      -6.7      2.282      3.374
  Name = 
  8 active torsions:
  status: ('A' for Active; 'I' for Inactive)
    1  A    between atoms: S_1  and  C_4
    2  A    between atoms: S_1  and  C_8
    3  A    between atoms: C_4  and  P_32
    4  A    between atoms: C_10  and  C_13
    5  A    between atoms: C_10  and  C_26
    6  A    between atoms: C_11  and  N_15
    7  A    between atoms: C_13  and  O_23
    8  A    between atoms: N_21  and  P_32
                            x       y       z     vdW  Elec       q    Type
                         _______ _______ _______ _____ _____    ______ ____

>  <TORSDO>
F 8

$$$$
=
 OpenBabel10232411083D

 36 40  0  0  1  0  0  0  0  0999 V2000
  183.4560  178.4410  138.5360 N   0  0  0  0  0  0  0  0  0  0  0  0
  188.5530  177.8990  140.4220 C   0  0  0  0  0  0  0  0  0  0  0  0
  189.5880  177.8660  141.3710 C   0  0  0  0  0  0  0  0  0  0  0  0
  186.2760  178.4570  139.7700 C   0  0  0  0  0  0  0  0  0  0  0  0
  184.4610  176.1250  136.0030 C   0  0  2  0  0  3  0  0  0  0  0  0
  185.1770  179.1270  140.1320 C   0  0  0  0  0  2  0  0  0  0  0  0
  184.1180  177.6240  137.7800 C   0  0  0  0  0  0  0  0  0  0  0  0
  182.0480  176.5700  136.7500 C   0  0  0  0  0  1  0  0  0  0  0  0
  185.8130  176.7820  136.3470 C   0  0  0  0  0  2  0  0  0  0  0  0
  188.7890  177.4330  139.1170 C   0  0  0  0  0  0  0  0  0  0  0  0
  185.5590  177.6160  137.5720 C   0  0  2  0  0  3  0  0  0  0  0  0
  187.2930  178.4140  140.7270 C   0  0  0  0  0  3  0  0  0  0  0  0
  190.0600  176.9350  138.7860 C   0  0  0  0  0  0  0  0  0  0  0  0
  191.0390  176.9040  139.7300 N   0  0  0  0  0  0  0  0  0  0  0  0
  187.7780  177.4270  138.2100 N   0  0  0  0  0  0  0  0  0  0  0  0
  190.8310  177.3530  140.9960 C   0  0  0  0  0  3  0  0  0  0  0  0
  183.4860  176.7030  136.9170 N   0  0  0  0  0  0  0  0  0  0  0  0
  184.0740  179.5570  139.2260 C   0  0  0  0  0  2  0  0  0  0  0  0
  186.5200  177.8800  138.4860 C   0  0  0  0  0  0  0  0  0  0  0  0
  184.5430  174.6830  136.2030 N   0  0  0  0  0  0  0  0  0  0  0  0
  185.1250  174.0860  137.2530 C   0  0  0  0  0  3  0  0  0  0  0  0
  184.2790  172.5690  135.9040 C   0  0  0  0  0  3  0  0  0  0  0  0
  184.9770  172.7200  137.0940 C   0  0  0  0  0  3  0  0  0  0  0  0
  184.0260  173.7850  135.3860 N   0  0  0  0  0  0  0  0  0  0  0  0
  189.3620  178.4490  143.0550 S   0  0  0  0  0  0  0  0  0  0  0  0
  191.0740  178.0570  143.5230 C   0  0  1  0  0  3  0  0  0  0  0  0
  191.7140  179.2130  143.9700 O   0  0  0  0  0  1  0  0  0  0  0  0
  191.6230  175.5130  144.3020 O   0  0  0  0  0  0  0  0  0  0  0  0
  191.0760  176.8140  144.8450 P   0  0  1  0  0  0  0  0  0  0  0  0
  192.0530  177.3480  146.1190 O   0  0  0  0  0  1  0  0  0  0  0  0
  189.3810  177.0380  146.7900 C   0  0  0  0  0  1  0  0  0  0  0  0
  189.4360  176.5730  145.4150 N   0  0  0  0  0  2  0  0  0  0  0  0
  190.3480  176.3990  137.4200 C   0  0  0  0  0  2  0  0  0  0  0  0
  190.0580  174.9080  137.3520 C   0  0  0  0  0  2  0  0  0  0  0  0
  191.6100  173.5550  136.5590 C   0  0  0  0  0  1  0  0  0  0  0  0
  191.1880  174.1810  137.7310 O   0  0  0  0  0  0  0  0  0  0  0  0
  1 18  1  0  0  0  0
  2 12  1  0  0  0  0
  2  3  2  0  0  0  0
  3 25  1  0  0  0  0
  4  6  1  0  0  0  0
  4 12  2  0  0  0  0
  5 20  1  1  0  0  0
  5  9  1  0  0  0  0
  5 17  1  0  0  0  0
  7  1  2  0  0  0  0
  8 17  1  0  0  0  0
 10  2  1  0  0  0  0
 11  9  1  1  0  0  0
 11  7  1  0  0  0  0
 11 19  1  0  0  0  0
 13 10  2  0  0  0  0
 13 14  1  0  0  0  0
 14 16  2  0  0  0  0
 15 19  2  0  0  0  0
 15 10  1  0  0  0  0
 16  3  1  0  0  0  0
 17  7  1  0  0  0  0
 18  6  1  0  0  0  0
 19  4  1  0  0  0  0
 20 21  1  0  0  0  0
 22 23  1  0  0  0  0
 23 21  2  0  0  0  0
 24 22  2  0  0  0  0
 24 20  1  0  0  0  0
 25 26  1  0  0  0  0
 26 27  1  1  0  0  0
 26 29  1  0  0  0  0
 29 28  2  6  0  0  0
 29 32  1  0  0  0  0
 29 30  1  0  0  0  0
 32 31  1  0  0  0  0
 33 13  1  0  0  0  0
 34 33  1  0  0  0  0
 34 36  1  0  0  0  0
 35 36  1  0  0  0  0
M  END
>  <MODEL>
7

>  <REMARK>
 VINA RESULT:      -6.7      2.649      3.750
  Name = 
  8 active torsions:
  status: ('A' for Active; 'I' for Inactive)
    1  A    between atoms: S_1  and  C_4
    2  A    between atoms: S_1  and  C_8
    3  A    between atoms: C_4  and  P_32
    4  A    between atoms: C_10  and  C_13
    5  A    between atoms: C_10  and  C_26
    6  A    between atoms: C_11  and  N_15
    7  A    between atoms: C_13  and  O_23
    8  A    between atoms: N_21  and  P_32
                            x       y       z     vdW  Elec       q    Type
                         _______ _______ _______ _____ _____    ______ ____

>  <TORSDO>
F 8

$$$$
=
 OpenBabel10232411083D

 36 40  0  0  1  0  0  0  0  0999 V2000
  187.1730  178.2360  142.8250 N   0  0  0  0  0  0  0  0  0  0  0  0
  189.4810  176.8540  138.0720 C   0  0  0  0  0  0  0  0  0  0  0  0
  190.3460  176.1730  137.2000 C   0  0  0  0  0  0  0  0  0  0  0  0
  188.7970  177.5130  140.3130 C   0  0  0  0  0  0  0  0  0  0  0  0
  184.2560  178.9210  140.8740 C   0  0  2  0  0  3  0  0  0  0  0  0
  189.1690  177.5380  141.5970 C   0  0  0  0  0  2  0  0  0  0  0  0
  186.3230  178.3960  141.8630 C   0  0  0  0  0  0  0  0  0  0  0  0
  184.2860  178.3920  143.3840 C   0  0  0  0  0  1  0  0  0  0  0  0
  185.3650  179.1630  139.8310 C   0  0  0  0  0  2  0  0  0  0  0  0
  188.4280  177.6240  137.5490 C   0  0  0  0  0  0  0  0  0  0  0  0
  186.6370  178.6780  140.4700 C   0  0  2  0  0  3  0  0  0  0  0  0
  189.6540  176.8180  139.4560 C   0  0  0  0  0  3  0  0  0  0  0  0
  188.2550  177.6930  136.1570 C   0  0  0  0  0  0  0  0  0  0  0  0
  189.1010  177.0120  135.3370 N   0  0  0  0  0  0  0  0  0  0  0  0
  187.5660  178.2500  138.3920 N   0  0  0  0  0  0  0  0  0  0  0  0
  190.1270  176.2650  135.8240 C   0  0  0  0  0  3  0  0  0  0  0  0
  184.9290  178.4650  142.0820 N   0  0  0  0  0  0  0  0  0  0  0  0
  188.6020  178.4210  142.6560 C   0  0  0  0  0  2  0  0  0  0  0  0
  187.6770  178.1990  139.7520 C   0  0  0  0  0  0  0  0  0  0  0  0
  183.3380  177.8960  140.3940 N   0  0  0  0  0  0  0  0  0  0  0  0
  182.0200  177.8690  140.6420 C   0  0  0  0  0  3  0  0  0  0  0  0
  182.5770  176.1620  139.3720 C   0  0  0  0  0  3  0  0  0  0  0  0
  181.4950  176.7610  140.0010 C   0  0  0  0  0  3  0  0  0  0  0  0
  183.6870  176.8790  139.6280 N   0  0  0  0  0  0  0  0  0  0  0  0
  191.7160  175.1760  137.7960 S   0  0  0  0  0  0  0  0  0  0  0  0
  192.9140  176.5280  137.5940 C   0  0  1  0  0  3  0  0  0  0  0  0
  193.4700  176.8500  138.8310 O   0  0  0  0  0  1  0  0  0  0  0  0
  193.6240  175.1990  135.3330 O   0  0  0  0  0  0  0  0  0  0  0  0
  194.2290  176.0130  136.4540 P   0  0  1  0  0  0  0  0  0  0  0  0
  194.9840  177.3840  135.8100 O   0  0  0  0  0  1  0  0  0  0  0  0
  195.1800  173.6570  136.9490 C   0  0  0  0  0  1  0  0  0  0  0  0
  195.4010  175.0420  137.3230 N   0  0  0  0  0  2  0  0  0  0  0  0
  187.1290  178.4730  135.5550 C   0  0  0  0  0  2  0  0  0  0  0  0
  186.3010  177.5980  134.6270 C   0  0  0  0  0  2  0  0  0  0  0  0
  184.7330  177.2880  136.1490 C   0  0  0  0  0  1  0  0  0  0  0  0
  185.6540  176.6010  135.3590 O   0  0  0  0  0  0  0  0  0  0  0  0
  2 12  1  0  0  0  0
  3 25  1  0  0  0  0
  3  2  1  0  0  0  0
  4  6  1  0  0  0  0
  5  9  1  6  0  0  0
  5 17  1  0  0  0  0
  6 18  1  0  0  0  0
  7 17  1  0  0  0  0
  7  1  2  0  0  0  0
 10  2  2  0  0  0  0
 10 15  1  0  0  0  0
 11  9  1  6  0  0  0
 11  7  1  0  0  0  0
 12  4  2  0  0  0  0
 13 10  1  0  0  0  0
 14 16  1  0  0  0  0
 14 13  2  0  0  0  0
 15 19  2  0  0  0  0
 16  3  2  0  0  0  0
 17  8  1  0  0  0  0
 18  1  1  0  0  0  0
 19  4  1  0  0  0  0
 19 11  1  0  0  0  0
 20 21  1  0  0  0  0
 20  5  1  0  0  0  0
 22 24  2  0  0  0  0
 22 23  1  0  0  0  0
 23 21  2  0  0  0  0
 24 20  1  0  0  0  0
 26 25  1  0  0  0  0
 26 27  1  1  0  0  0
 29 28  2  6  0  0  0
 29 32  1  0  0  0  0
 29 26  1  0  0  0  0
 30 29  1  0  0  0  0
 31 32  1  0  0  0  0
 33 13  1  0  0  0  0
 34 36  1  0  0  0  0
 34 33  1  0  0  0  0
 36 35  1  0  0  0  0
M  END
>  <MODEL>
8

>  <REMARK>
 VINA RESULT:      -6.3      3.525      5.009
  Name = 
  8 active torsions:
  status: ('A' for Active; 'I' for Inactive)
    1  A    between atoms: S_1  and  C_4
    2  A    between atoms: S_1  and  C_8
    3  A    between atoms: C_4  and  P_32
    4  A    between atoms: C_10  and  C_13
    5  A    between atoms: C_10  and  C_26
    6  A    between atoms: C_11  and  N_15
    7  A    between atoms: C_13  and  O_23
    8  A    between atoms: N_21  and  P_32
                            x       y       z     vdW  Elec       q    Type
                         _______ _______ _______ _____ _____    ______ ____

>  <TORSDO>
F 8

$$$$
=
 OpenBabel10232411083D

 36 40  0  0  1  0  0  0  0  0999 V2000
  191.0470  176.8490  139.4970 N   0  0  0  0  0  0  0  0  0  0  0  0
  186.1230  176.7820  137.1370 C   0  0  0  0  0  0  0  0  0  0  0  0
  185.0850  176.3140  136.3130 C   0  0  0  0  0  0  0  0  0  0  0  0
  188.4500  176.7720  137.8480 C   0  0  0  0  0  0  0  0  0  0  0  0
  189.3940  178.4650  142.2250 C   0  0  2  0  0  3  0  0  0  0  0  0
  189.6780  176.3420  137.5360 C   0  0  0  0  0  2  0  0  0  0  0  0
  190.1800  177.4070  140.2790 C   0  0  0  0  0  0  0  0  0  0  0  0
  191.6010  177.1660  142.3720 C   0  0  0  0  0  1  0  0  0  0  0  0
  188.4930  178.8900  141.0480 C   0  0  0  0  0  2  0  0  0  0  0  0
  185.8650  177.7990  138.0730 C   0  0  0  0  0  0  0  0  0  0  0  0
  188.9550  178.0780  139.8700 C   0  0  2  0  0  3  0  0  0  0  0  0
  187.4230  176.2870  137.0340 C   0  0  0  0  0  3  0  0  0  0  0  0
  184.5670  178.3270  138.1710 C   0  0  0  0  0  0  0  0  0  0  0  0
  183.5800  177.8460  137.3690 N   0  0  0  0  0  0  0  0  0  0  0  0
  186.8570  178.2240  138.8980 N   0  0  0  0  0  0  0  0  0  0  0  0
  183.8100  176.8650  136.4560 C   0  0  0  0  0  3  0  0  0  0  0  0
  190.3970  177.5710  141.6650 N   0  0  0  0  0  0  0  0  0  0  0  0
  190.9590  176.9040  138.0500 C   0  0  0  0  0  2  0  0  0  0  0  0
  188.1290  177.7310  138.8570 C   0  0  0  0  0  0  0  0  0  0  0  0
  188.6030  177.7630  143.2290 N   0  0  0  0  0  0  0  0  0  0  0  0
  187.4790  177.0760  142.9770 C   0  0  0  0  0  3  0  0  0  0  0  0
  187.9690  176.9510  145.1180 C   0  0  0  0  0  3  0  0  0  0  0  0
  187.0390  176.5390  144.1750 C   0  0  0  0  0  3  0  0  0  0  0  0
  188.9130  177.6940  144.5100 N   0  0  0  0  0  0  0  0  0  0  0  0
  185.3420  175.0220  135.0920 S   0  0  0  0  0  0  0  0  0  0  0  0
  185.3230  173.7030  136.3430 C   0  0  1  0  0  3  0  0  0  0  0  0
  184.0310  173.1910  136.4650 O   0  0  0  0  0  1  0  0  0  0  0  0
  187.1620  172.7750  134.5730 O   0  0  0  0  0  0  0  0  0  0  0  0
  186.4570  172.3760  135.8490 P   0  0  1  0  0  0  0  0  0  0  0  0
  187.6010  172.1290  137.0710 O   0  0  0  0  0  1  0  0  0  0  0  0
  186.4620  169.9140  135.0480 C   0  0  0  0  0  1  0  0  0  0  0  0
  185.5440  170.9040  135.5840 N   0  0  0  0  0  2  0  0  0  0  0  0
  184.2380  179.3870  139.1740 C   0  0  0  0  0  2  0  0  0  0  0  0
  182.7370  179.6220  139.2390 C   0  0  0  0  0  2  0  0  0  0  0  0
  181.1040  181.0760  138.9400 C   0  0  0  0  0  1  0  0  0  0  0  0
  182.3990  180.7700  138.5210 O   0  0  0  0  0  0  0  0  0  0  0  0
  1  7  2  0  0  0  0
  2 10  1  0  0  0  0
  3 16  2  0  0  0  0
  3  2  1  0  0  0  0
  4 19  2  0  0  0  0
  5  9  1  6  0  0  0
  5 20  1  0  0  0  0
  6  4  1  0  0  0  0
  6 18  1  0  0  0  0
  7 17  1  0  0  0  0
 10 13  1  0  0  0  0
 10 15  2  0  0  0  0
 11  7  1  0  0  0  0
 11  9  1  1  0  0  0
 12  2  2  0  0  0  0
 12  4  1  0  0  0  0
 13 33  1  0  0  0  0
 14 13  2  0  0  0  0
 16 14  1  0  0  0  0
 17  5  1  0  0  0  0
 17  8  1  0  0  0  0
 18  1  1  0  0  0  0
 19 15  1  0  0  0  0
 19 11  1  0  0  0  0
 20 24  1  0  0  0  0
 21 20  1  0  0  0  0
 21 23  2  0  0  0  0
 23 22  1  0  0  0  0
 24 22  2  0  0  0  0
 25  3  1  0  0  0  0
 25 26  1  0  0  0  0
 26 27  1  6  0  0  0
 29 28  2  6  0  0  0
 29 26  1  0  0  0  0
 29 30  1  0  0  0  0
 31 32  1  0  0  0  0
 32 29  1  0  0  0  0
 33 34  1  0  0  0  0
 36 35  1  0  0  0  0
 36 34  1  0  0  0  0
M  END
>  <MODEL>
9

>  <REMARK>
 VINA RESULT:      -6.1      4.375      8.123
  Name = 
  8 active torsions:
  status: ('A' for Active; 'I' for Inactive)
    1  A    between atoms: S_1  and  C_4
    2  A    between atoms: S_1  and  C_8
    3  A    between atoms: C_4  and  P_32
    4  A    between atoms: C_10  and  C_13
    5  A    between atoms: C_10  and  C_26
    6  A    between atoms: C_11  and  N_15
    7  A    between atoms: C_13  and  O_23
    8  A    between atoms: N_21  and  P_32
                            x       y       z     vdW  Elec       q    Type
                         _______ _______ _______ _____ _____    ______ ____

>  <TORSDO>
F 8

$$$$
