=
 OpenBabel10232412063D

 66 71  0  0  1  0  0  0  0  0999 V2000
  190.5950  177.4910  139.1950 C   0  0  1  0  0  3  0  0  0  0  0  0
  191.3250  176.5570  138.2650 C   0  0  0  0  0  0  0  0  0  0  0  0
  192.3460  176.9090  137.6970 O   0  0  0  0  0  0  0  0  0  0  0  0
  190.7630  175.1990  137.9810 C   0  0  0  0  0  2  0  0  0  0  0  0
  191.3720  174.6600  136.7740 N   0  0  0  0  0  2  0  0  0  0  0  0
  192.4480  173.7580  137.1790 C   0  0  0  0  0  2  0  0  0  0  0  0
  194.8540  171.8620  137.0980 N   0  0  0  0  0  0  0  0  0  0  0  0
  197.2250  171.9680  137.2720 C   0  0  0  0  0  3  0  0  0  0  0  0
  192.4470  171.5460  135.0460 C   0  0  0  0  0  2  0  0  0  0  0  0
  197.2000  173.2850  136.7920 C   0  0  0  0  0  0  0  0  0  0  0  0
  193.0010  172.9530  134.8120 C   0  0  0  0  0  2  0  0  0  0  0  0
  194.8020  173.1100  136.5660 C   0  0  0  0  0  0  0  0  0  0  0  0
  193.5040  173.6660  136.0760 C   0  0  2  0  0  3  0  0  0  0  0  0
  194.9930  168.9770  137.8490 N   0  0  0  0  0  2  0  0  0  0  0  0
  196.0560  169.9070  137.8820 N   0  0  0  0  0  2  0  0  0  0  0  0
  196.0270  171.2550  137.4020 C   0  0  0  0  0  0  0  0  0  0  0  0
  195.9760  173.8500  136.4120 C   0  0  0  0  0  3  0  0  0  0  0  0
  193.9260  168.8690  136.8900 C   0  0  0  0  0  3  0  0  0  0  0  0
  193.5030  170.5040  134.8970 C   0  0  0  0  0  3  0  0  0  0  0  0
  193.7370  169.6800  135.8810 C   0  0  0  0  0  0  0  0  0  0  0  0
  198.8050  174.7000  137.8270 F   0  0  0  0  0  0  0  0  0  0  0  0
  199.4950  173.2440  136.2600 F   0  0  0  0  0  0  0  0  0  0  0  0
  198.2860  175.0550  135.6640 F   0  0  0  0  0  0  0  0  0  0  0  0
  198.4630  174.0820  136.6380 C   0  0  0  0  0  0  0  0  0  0  0  0
  189.0840  177.5610  138.9370 C   0  0  1  0  0  3  0  0  0  0  0  0
  188.3250  178.2330  140.0670 C   0  0  0  0  0  1  0  0  0  0  0  0
  188.7780  178.2340  137.6040 C   0  0  0  0  0  2  0  0  0  0  0  0
  188.2880  177.2480  136.6460 N   0  0  0  0  0  2  0  0  0  0  0  0
  187.1360  176.5770  137.2360 C   0  0  1  0  0  3  0  0  0  0  0  0
  185.8210  177.2480  136.8070 C   0  0  2  0  0  3  0  0  0  0  0  0
  183.2670  177.0410  136.5870 C   0  0  1  0  0  3  0  0  0  0  0  0
  182.8240  179.6490  138.7140 O   0  0  0  0  0  0  0  0  0  0  0  0
  184.7740  175.3440  135.7790 O   0  0  0  0  0  1  0  0  0  0  0  0
  184.8770  178.5120  138.8190 C   0  0  0  0  0  2  0  0  0  0  0  0
  182.6860  177.4340  137.9410 C   0  0  0  0  0  2  0  0  0  0  0  0
  185.6420  178.6040  137.5070 C   0  0  0  0  0  2  0  0  0  0  0  0
  184.5970  176.3010  136.7840 C   0  0  1  0  0  3  0  0  0  0  0  0
  183.4130  178.5980  138.5300 C   0  0  0  0  0  0  0  0  0  0  0  0
  182.3420  176.2220  135.9340 O   0  0  0  0  0  1  0  0  0  0  0  0
  187.1750  175.0730  136.9670 C   0  0  0  0  0  2  0  0  0  0  0  0
  187.9530  174.7830  135.8460 O   0  0  0  0  0  1  0  0  0  0  0  0
  190.9960  177.3930  140.6740 C   0  0  0  0  0  2  0  0  0  0  0  0
  190.2560  176.3410  141.3520 N   0  0  0  0  0  2  0  0  0  0  0  0
  190.5770  175.9040  142.6710 C   0  0  0  0  0  0  0  0  0  0  0  0
  189.9320  174.9460  143.1780 O   0  0  0  0  0  0  0  0  0  0  0  0
  191.6420  176.5830  143.4790 C   0  0  0  0  0  2  0  0  0  0  0  0
  191.1170  177.0240  144.8090 C   0  0  0  0  0  0  0  0  0  0  0  0
  191.7140  176.6750  145.8650 O   0  0  0  0  0  0  0  0  0  0  0  0
  189.9360  178.9830  144.1650 O   0  0  0  0  0  0  0  0  0  0  0  0
  189.9660  177.9460  144.8840 C   0  0  0  0  0  0  0  0  0  0  0  0
  188.8210  177.6540  145.8120 C   0  0  2  0  0  3  0  0  0  0  0  0
  187.4950  177.9210  145.1760 C   0  0  0  0  0  0  0  0  0  0  0  0
  184.9940  178.3050  143.9560 C   0  0  0  0  0  0  0  0  0  0  0  0
  185.1790  178.6280  145.3080 C   0  0  0  0  0  3  0  0  0  0  0  0
  187.3170  177.6090  143.8230 C   0  0  0  0  0  3  0  0  0  0  0  0
  186.4220  178.4360  145.9170 C   0  0  0  0  0  3  0  0  0  0  0  0
  186.0730  177.7960  143.2150 C   0  0  0  0  0  3  0  0  0  0  0  0
  183.6390  178.4760  143.3330 C   0  0  1  0  0  0  0  0  0  0  0  0
  182.4710  178.4550  144.2140 C   0  0  2  0  0  3  0  0  0  0  0  0
  181.1610  178.5470  143.4610 C   0  0  0  0  0  2  0  0  0  0  0  0
  182.9590  179.7450  143.6640 N   0  0  2  0  0  0  0  0  0  0  0  0
  181.7000  179.8560  142.9310 C   0  0  0  0  0  2  0  0  0  0  0  0
  183.4700  178.0460  142.0050 O   0  0  0  0  0  1  0  0  0  0  0  0
  188.9440  178.3710  147.0090 O   0  0  0  0  0  0  0  0  0  0  0  0
  189.1380  177.4530  147.9340 O   0  0  0  0  0  0  0  0  0  0  0  0
  188.2260  177.7720  148.9470 C   0  0  0  0  0  1  0  0  0  0  0  0
  1 42  1  1  0  0  0
  2  1  1  0  0  0  0
  3  2  2  0  0  0  0
  4  2  1  0  0  0  0
  5  6  1  0  0  0  0
  5  4  1  0  0  0  0
  7 16  2  0  0  0  0
  8 16  1  0  0  0  0
 10  8  2  0  0  0  0
 11  9  1  0  0  0  0
 11 13  1  0  0  0  0
 12  7  1  0  0  0  0
 13 12  1  0  0  0  0
 13  6  1  1  0  0  0
 14 15  1  0  0  0  0
 16 15  1  0  0  0  0
 17 12  2  0  0  0  0
 17 10  1  0  0  0  0
 18 14  1  0  0  0  0
 19  9  1  0  0  0  0
 19 20  2  0  0  0  0
 20 18  2  0  0  0  0
 22 24  1  0  0  0  0
 23 24  1  0  0  0  0
 24 10  1  0  0  0  0
 24 21  1  0  0  0  0
 25  1  1  0  0  0  0
 25 26  1  1  0  0  0
 27 25  1  0  0  0  0
 28 29  1  0  0  0  0
 28 27  1  0  0  0  0
 29 40  1  6  0  0  0
 30 29  1  1  0  0  0
 30 36  1  0  0  0  0
 31 39  1  1  0  0  0
 31 37  1  0  0  0  0
 31 35  1  0  0  0  0
 35 38  1  0  0  0  0
 36 34  1  0  0  0  0
 37 33  1  6  0  0  0
 37 30  1  0  0  0  0
 38 32  2  0  0  0  0
 38 34  1  0  0  0  0
 41 40  1  0  0  0  0
 42 43  1  0  0  0  0
 43 44  1  0  0  0  0
 44 45  2  0  0  0  0
 44 46  1  0  0  0  0
 46 47  1  0  0  0  0
 47 50  1  0  0  0  0
 47 48  2  0  0  0  0
 49 50  2  0  0  0  0
 51 50  1  6  0  0  0
 51 64  1  0  0  0  0
 52 51  1  0  0  0  0
 52 56  1  0  0  0  0
 53 54  1  0  0  0  0
 54 56  2  0  0  0  0
 55 52  2  0  0  0  0
 57 55  1  0  0  0  0
 57 53  2  0  0  0  0
 58 63  1  6  0  0  0
 58 61  1  0  0  0  0
 58 53  1  0  0  0  0
 58 59  1  0  0  0  0
 59 60  1  6  0  0  0
 61 62  1  6  0  0  0
 61 59  1  0  0  0  0
 62 60  1  0  0  0  0
 64 65  1  0  0  0  0
 65 66  1  0  0  0  0
M  END
>  <MODEL>
1

>  <REMARK>
 VINA RESULT:      -7.5      0.000      0.000
  Name = 
  22 active torsions:
  status: ('A' for Active; 'I' for Inactive)
    1  A    between atoms: C_1  and  C_34
    2  A    between atoms: N_3  and  C_36
    3  A    between atoms: C_4  and  C_6
    4  A    between atoms: O_5  and  C_34
    5  A    between atoms: O_5  and  O_41
    6  A    between atoms: C_9  and  C_26
    7  A    between atoms: C_9  and  N_60
    8  A    between atoms: CA_10  and  C_14
    9  A    between atoms: CA_10  and  C_15
   10  A    between atoms: CA_10  and  N_64
   11  A    between atoms: C_11  and  C_25
   12  A    between atoms: C_11  and  N_64
   13  A    between atoms: C_13  and  C_58
   14  A    between atoms: C_17  and  C_30
   15  A    between atoms: C_17  and  C_53
   16  A    between atoms: C_21  and  C_24
   17  A    between atoms: C_21  and  C_34
   18  A    between atoms: C_24  and  C_47
   19  A    between atoms: C_25  and  C_30
   20  A    between atoms: C_30  and  C_36
   21  A    between atoms: C_31  and  C_47
   22  A    between atoms: C_53  and  N_60
                            x       y       z     vdW  Elec       q    Type
                         _______ _______ _______ _____ _____    ______ ____

>  <TORSDO>
F 22

$$$$
=
 OpenBabel10232412063D

 66 71  0  0  1  0  0  0  0  0999 V2000
  189.6100  176.2090  137.7500 C   0  0  1  0  0  3  0  0  0  0  0  0
  189.5530  174.7710  137.3050 C   0  0  0  0  0  0  0  0  0  0  0  0
  188.4950  174.2570  136.9810 O   0  0  0  0  0  0  0  0  0  0  0  0
  190.7960  173.9370  137.3160 C   0  0  0  0  0  2  0  0  0  0  0  0
  191.8990  174.6970  136.7480 N   0  0  0  0  0  2  0  0  0  0  0  0
  193.1450  174.0850  137.2010 C   0  0  0  0  0  2  0  0  0  0  0  0
  195.4720  172.0940  137.0680 N   0  0  0  0  0  0  0  0  0  0  0  0
  197.8510  172.1200  136.9950 C   0  0  0  0  0  3  0  0  0  0  0  0
  192.8590  171.6820  135.3060 C   0  0  0  0  0  2  0  0  0  0  0  0
  197.8160  173.3870  136.3930 C   0  0  0  0  0  0  0  0  0  0  0  0
  193.4280  173.0370  134.8810 C   0  0  0  0  0  2  0  0  0  0  0  0
  195.4040  173.2870  136.4250 C   0  0  0  0  0  0  0  0  0  0  0  0
  194.0800  173.8450  136.0130 C   0  0  2  0  0  3  0  0  0  0  0  0
  195.6000  169.2890  138.0820 N   0  0  0  0  0  2  0  0  0  0  0  0
  196.6890  170.1750  137.9180 N   0  0  0  0  0  2  0  0  0  0  0  0
  196.6510  171.4720  137.3130 C   0  0  0  0  0  0  0  0  0  0  0  0
  196.5780  173.9610  136.0820 C   0  0  0  0  0  3  0  0  0  0  0  0
  194.4370  169.1350  137.2490 C   0  0  0  0  0  3  0  0  0  0  0  0
  193.8620  170.5880  135.1570 C   0  0  0  0  0  3  0  0  0  0  0  0
  194.1710  169.8530  136.1900 C   0  0  0  0  0  0  0  0  0  0  0  0
  199.9240  173.3030  135.2990 F   0  0  0  0  0  0  0  0  0  0  0  0
  198.7740  175.2330  135.2870 F   0  0  0  0  0  0  0  0  0  0  0  0
  199.7370  174.5060  137.1940 F   0  0  0  0  0  0  0  0  0  0  0  0
  199.0800  174.1140  136.0360 C   0  0  0  0  0  0  0  0  0  0  0  0
  188.5370  177.0970  137.1070 C   0  0  1  0  0  3  0  0  0  0  0  0
  189.0570  178.4760  136.7400 C   0  0  0  0  0  1  0  0  0  0  0  0
  187.9040  176.4180  135.8980 C   0  0  0  0  0  2  0  0  0  0  0  0
  186.5850  176.9860  135.6370 N   0  0  0  0  0  2  0  0  0  0  0  0
  185.5870  176.1050  136.2320 C   0  0  1  0  0  3  0  0  0  0  0  0
  184.5150  176.9080  136.9850 C   0  0  2  0  0  3  0  0  0  0  0  0
  182.9030  177.0040  138.9870 C   0  0  1  0  0  3  0  0  0  0  0  0
  184.4880  179.7520  140.1950 O   0  0  0  0  0  0  0  0  0  0  0  0
  183.0290  175.0960  137.5210 O   0  0  0  0  0  1  0  0  0  0  0  0
  185.6910  178.3790  138.7150 C   0  0  0  0  0  2  0  0  0  0  0  0
  183.7120  177.5330  140.1650 C   0  0  0  0  0  2  0  0  0  0  0  0
  185.0310  178.3100  137.3460 C   0  0  0  0  0  2  0  0  0  0  0  0
  183.7890  176.1180  138.1000 C   0  0  1  0  0  3  0  0  0  0  0  0
  184.6370  178.6290  139.7450 C   0  0  0  0  0  0  0  0  0  0  0  0
  181.8240  176.2710  139.4890 O   0  0  0  0  0  1  0  0  0  0  0  0
  185.0160  175.1390  135.1950 C   0  0  0  0  0  2  0  0  0  0  0  0
  185.5460  173.8580  135.3550 O   0  0  0  0  0  1  0  0  0  0  0  0
  189.8120  176.4250  139.2570 C   0  0  0  0  0  2  0  0  0  0  0  0
  191.2070  176.6940  139.5690 N   0  0  0  0  0  2  0  0  0  0  0  0
  191.6140  177.3400  140.7730 C   0  0  0  0  0  0  0  0  0  0  0  0
  192.8360  177.5950  140.9540 O   0  0  0  0  0  0  0  0  0  0  0  0
  190.6230  177.6900  141.8420 C   0  0  0  0  0  2  0  0  0  0  0  0
  191.2560  177.6680  143.1980 C   0  0  0  0  0  0  0  0  0  0  0  0
  191.7010  178.7360  143.6990 O   0  0  0  0  0  0  0  0  0  0  0  0
  191.9210  175.4190  143.5860 O   0  0  0  0  0  0  0  0  0  0  0  0
  191.2690  176.4210  143.9900 C   0  0  0  0  0  0  0  0  0  0  0  0
  190.5110  176.3390  145.2850 C   0  0  2  0  0  3  0  0  0  0  0  0
  189.1560  176.9630  145.1870 C   0  0  0  0  0  0  0  0  0  0  0  0
  186.5610  178.0260  145.0130 C   0  0  0  0  0  0  0  0  0  0  0  0
  187.4130  178.4050  146.0620 C   0  0  0  0  0  3  0  0  0  0  0  0
  188.3130  176.5930  144.1330 C   0  0  0  0  0  3  0  0  0  0  0  0
  188.7030  177.8750  146.1500 C   0  0  0  0  0  3  0  0  0  0  0  0
  187.0210  177.1170  144.0470 C   0  0  0  0  0  3  0  0  0  0  0  0
  185.1640  178.5710  144.9620 C   0  0  1  0  0  0  0  0  0  0  0  0
  184.8450  179.5450  143.9160 C   0  0  2  0  0  3  0  0  0  0  0  0
  183.4360  180.0860  144.0220 C   0  0  0  0  0  2  0  0  0  0  0  0
  184.3730  178.1430  143.7890 N   0  0  2  0  0  0  0  0  0  0  0  0
  183.0030  178.6440  143.8860 C   0  0  0  0  0  2  0  0  0  0  0  0
  184.4420  178.6390  146.1660 O   0  0  0  0  0  1  0  0  0  0  0  0
  191.2400  176.9120  146.3350 O   0  0  0  0  0  0  0  0  0  0  0  0
  191.1730  176.0300  147.3120 O   0  0  0  0  0  0  0  0  0  0  0  0
  192.4630  176.0000  147.8520 C   0  0  0  0  0  1  0  0  0  0  0  0
  1 42  1  1  0  0  0
  2  4  1  0  0  0  0
  2  1  1  0  0  0  0
  3  2  2  0  0  0  0
  5  6  1  0  0  0  0
  5  4  1  0  0  0  0
  7 16  2  0  0  0  0
  8 16  1  0  0  0  0
 10  8  2  0  0  0  0
 11  9  1  0  0  0  0
 11 13  1  0  0  0  0
 12  7  1  0  0  0  0
 13 12  1  0  0  0  0
 13  6  1  1  0  0  0
 15 14  1  0  0  0  0
 16 15  1  0  0  0  0
 17 10  1  0  0  0  0
 17 12  2  0  0  0  0
 18 14  1  0  0  0  0
 19  9  1  0  0  0  0
 19 20  2  0  0  0  0
 20 18  2  0  0  0  0
 21 24  1  0  0  0  0
 22 24  1  0  0  0  0
 24 10  1  0  0  0  0
 24 23  1  0  0  0  0
 25 26  1  6  0  0  0
 25  1  1  0  0  0  0
 27 25  1  0  0  0  0
 28 27  1  0  0  0  0
 28 29  1  0  0  0  0
 29 40  1  6  0  0  0
 30 29  1  1  0  0  0
 30 36  1  0  0  0  0
 30 37  1  0  0  0  0
 31 39  1  1  0  0  0
 31 35  1  0  0  0  0
 34 38  1  0  0  0  0
 36 34  1  0  0  0  0
 37 33  1  6  0  0  0
 37 31  1  0  0  0  0
 38 35  1  0  0  0  0
 38 32  2  0  0  0  0
 40 41  1  0  0  0  0
 42 43  1  0  0  0  0
 43 44  1  0  0  0  0
 44 45  2  0  0  0  0
 44 46  1  0  0  0  0
 46 47  1  0  0  0  0
 47 48  2  0  0  0  0
 47 50  1  0  0  0  0
 49 50  2  0  0  0  0
 51 50  1  6  0  0  0
 51 64  1  0  0  0  0
 52 51  1  0  0  0  0
 52 56  1  0  0  0  0
 53 54  1  0  0  0  0
 54 56  2  0  0  0  0
 55 52  2  0  0  0  0
 57 55  1  0  0  0  0
 57 53  2  0  0  0  0
 58 53  1  0  0  0  0
 58 63  1  1  0  0  0
 59 60  1  1  0  0  0
 59 58  1  0  0  0  0
 61 62  1  1  0  0  0
 61 59  1  0  0  0  0
 61 58  1  0  0  0  0
 62 60  1  0  0  0  0
 64 65  1  0  0  0  0
 65 66  1  0  0  0  0
M  END
>  <MODEL>
2

>  <REMARK>
 VINA RESULT:      -7.4      1.490      2.264
  Name = 
  22 active torsions:
  status: ('A' for Active; 'I' for Inactive)
    1  A    between atoms: C_1  and  C_34
    2  A    between atoms: N_3  and  C_36
    3  A    between atoms: C_4  and  C_6
    4  A    between atoms: O_5  and  C_34
    5  A    between atoms: O_5  and  O_41
    6  A    between atoms: C_9  and  C_26
    7  A    between atoms: C_9  and  N_60
    8  A    between atoms: CA_10  and  C_14
    9  A    between atoms: CA_10  and  C_15
   10  A    between atoms: CA_10  and  N_64
   11  A    between atoms: C_11  and  C_25
   12  A    between atoms: C_11  and  N_64
   13  A    between atoms: C_13  and  C_58
   14  A    between atoms: C_17  and  C_30
   15  A    between atoms: C_17  and  C_53
   16  A    between atoms: C_21  and  C_24
   17  A    between atoms: C_21  and  C_34
   18  A    between atoms: C_24  and  C_47
   19  A    between atoms: C_25  and  C_30
   20  A    between atoms: C_30  and  C_36
   21  A    between atoms: C_31  and  C_47
   22  A    between atoms: C_53  and  N_60
                            x       y       z     vdW  Elec       q    Type
                         _______ _______ _______ _____ _____    ______ ____

>  <TORSDO>
F 22

$$$$
=
 OpenBabel10232412063D

 66 71  0  0  1  0  0  0  0  0999 V2000
  188.9610  177.1150  138.4130 C   0  0  1  0  0  3  0  0  0  0  0  0
  189.6770  176.5310  137.2220 C   0  0  0  0  0  0  0  0  0  0  0  0
  189.9720  177.2280  136.2650 O   0  0  0  0  0  0  0  0  0  0  0  0
  189.9790  175.0660  137.1800 C   0  0  0  0  0  2  0  0  0  0  0  0
  191.4130  174.8670  137.0330 N   0  0  0  0  0  2  0  0  0  0  0  0
  191.6340  173.4830  136.6230 C   0  0  0  0  0  2  0  0  0  0  0  0
  194.3060  172.0510  137.0760 N   0  0  0  0  0  0  0  0  0  0  0  0
  196.5960  172.5990  137.4220 C   0  0  0  0  0  3  0  0  0  0  0  0
  192.2220  170.9910  134.9230 C   0  0  0  0  0  2  0  0  0  0  0  0
  196.4140  173.7970  136.7160 C   0  0  0  0  0  0  0  0  0  0  0  0
  192.5660  172.4170  134.4900 C   0  0  0  0  0  2  0  0  0  0  0  0
  194.1150  173.1690  136.3290 C   0  0  0  0  0  0  0  0  0  0  0  0
  192.8070  173.4010  135.6440 C   0  0  2  0  0  3  0  0  0  0  0  0
  194.8200  169.3940  138.3350 N   0  0  0  0  0  2  0  0  0  0  0  0
  195.7100  170.4900  138.2900 N   0  0  0  0  0  2  0  0  0  0  0  0
  195.5200  171.7170  137.5780 C   0  0  0  0  0  0  0  0  0  0  0  0
  195.1660  174.0690  136.1420 C   0  0  0  0  0  3  0  0  0  0  0  0
  193.8950  168.9480  137.3270 C   0  0  0  0  0  3  0  0  0  0  0  0
  193.4400  170.1400  135.0480 C   0  0  0  0  0  3  0  0  0  0  0  0
  193.6920  169.5400  136.1790 C   0  0  0  0  0  0  0  0  0  0  0  0
  197.0860  175.9570  135.9870 F   0  0  0  0  0  0  0  0  0  0  0  0
  198.1350  175.0330  137.7460 F   0  0  0  0  0  0  0  0  0  0  0  0
  198.4890  174.2240  135.6690 F   0  0  0  0  0  0  0  0  0  0  0  0
  197.5430  174.7680  136.5260 C   0  0  0  0  0  0  0  0  0  0  0  0
  189.7550  177.0110  139.7210 C   0  0  1  0  0  3  0  0  0  0  0  0
  191.2200  177.3680  139.5500 C   0  0  0  0  0  1  0  0  0  0  0  0
  189.1190  177.8460  140.8260 C   0  0  0  0  0  2  0  0  0  0  0  0
  189.0230  177.0650  142.0550 N   0  0  0  0  0  2  0  0  0  0  0  0
  190.2610  177.2460  142.8040 C   0  0  1  0  0  3  0  0  0  0  0  0
  189.9860  177.8360  144.1970 C   0  0  2  0  0  3  0  0  0  0  0  0
  188.6760  177.6390  146.4010 C   0  0  1  0  0  3  0  0  0  0  0  0
  191.5680  177.2770  148.1430 O   0  0  0  0  0  0  0  0  0  0  0  0
  187.6030  177.5250  144.2470 O   0  0  0  0  0  1  0  0  0  0  0  0
  191.6230  176.7740  145.8480 C   0  0  0  0  0  2  0  0  0  0  0  0
  189.4630  176.6770  147.2840 C   0  0  0  0  0  2  0  0  0  0  0  0
  191.2900  177.9890  144.9950 C   0  0  0  0  0  2  0  0  0  0  0  0
  188.7800  177.2050  144.9330 C   0  0  1  0  0  3  0  0  0  0  0  0
  190.9350  176.9090  147.1680 C   0  0  0  0  0  0  0  0  0  0  0  0
  187.3440  177.6300  146.8220 O   0  0  0  0  0  1  0  0  0  0  0  0
  191.0820  175.9580  142.8340 C   0  0  0  0  0  2  0  0  0  0  0  0
  190.2590  174.8410  142.9810 O   0  0  0  0  0  1  0  0  0  0  0  0
  188.2800  178.4700  138.1730 C   0  0  0  0  0  2  0  0  0  0  0  0
  187.0260  178.3100  137.4550 N   0  0  0  0  0  2  0  0  0  0  0  0
  185.7720  178.1750  138.1200 C   0  0  0  0  0  0  0  0  0  0  0  0
  184.7290  177.9810  137.4380 O   0  0  0  0  0  0  0  0  0  0  0  0
  185.6650  178.2920  139.6100 C   0  0  0  0  0  2  0  0  0  0  0  0
  184.4890  179.1290  140.0070 C   0  0  0  0  0  0  0  0  0  0  0  0
  184.2270  180.1850  139.3680 O   0  0  0  0  0  0  0  0  0  0  0  0
  183.9920  178.5860  142.2680 O   0  0  0  0  0  0  0  0  0  0  0  0
  183.5800  178.6700  141.0770 C   0  0  0  0  0  0  0  0  0  0  0  0
  182.1570  178.3060  140.7570 C   0  0  2  0  0  3  0  0  0  0  0  0
  182.0540  177.4540  139.5330 C   0  0  0  0  0  0  0  0  0  0  0  0
  181.7940  175.7730  137.2970 C   0  0  0  0  0  0  0  0  0  0  0  0
  181.2830  177.0790  137.2640 C   0  0  0  0  0  3  0  0  0  0  0  0
  182.5750  176.1550  139.5650 C   0  0  0  0  0  3  0  0  0  0  0  0
  181.4110  177.9160  138.3770 C   0  0  0  0  0  3  0  0  0  0  0  0
  182.4430  175.3160  138.4560 C   0  0  0  0  0  3  0  0  0  0  0  0
  181.6070  174.8750  136.1090 C   0  0  1  0  0  0  0  0  0  0  0  0
  182.3530  173.6160  136.0760 C   0  0  2  0  0  3  0  0  0  0  0  0
  182.1500  172.8420  134.7910 C   0  0  0  0  0  2  0  0  0  0  0  0
  180.9020  173.6080  136.3920 N   0  0  2  0  0  0  0  0  0  0  0  0
  180.6840  172.8580  135.1570 C   0  0  0  0  0  2  0  0  0  0  0  0
  181.2730  175.4740  134.8810 O   0  0  0  0  0  1  0  0  0  0  0  0
  181.3590  179.4500  140.6270 O   0  0  0  0  0  0  0  0  0  0  0  0
  180.2450  179.1580  141.2680 O   0  0  0  0  0  0  0  0  0  0  0  0
  180.3660  179.8060  142.5020 C   0  0  0  0  0  1  0  0  0  0  0  0
  1 42  1  6  0  0  0
  1 25  1  0  0  0  0
  2  1  1  0  0  0  0
  3  2  2  0  0  0  0
  4  2  1  0  0  0  0
  5  4  1  0  0  0  0
  6  5  1  0  0  0  0
  7 16  2  0  0  0  0
  8 16  1  0  0  0  0
  9 19  1  0  0  0  0
 10  8  2  0  0  0  0
 11  9  1  0  0  0  0
 11 13  1  0  0  0  0
 12  7  1  0  0  0  0
 13 12  1  0  0  0  0
 13  6  1  1  0  0  0
 15 14  1  0  0  0  0
 16 15  1  0  0  0  0
 17 12  2  0  0  0  0
 17 10  1  0  0  0  0
 18 14  1  0  0  0  0
 19 20  2  0  0  0  0
 20 18  2  0  0  0  0
 21 24  1  0  0  0  0
 23 24  1  0  0  0  0
 24 10  1  0  0  0  0
 24 22  1  0  0  0  0
 25 26  1  6  0  0  0
 25 27  1  0  0  0  0
 27 28  1  0  0  0  0
 28 29  1  0  0  0  0
 29 40  1  1  0  0  0
 30 29  1  6  0  0  0
 30 37  1  0  0  0  0
 30 36  1  0  0  0  0
 31 39  1  1  0  0  0
 31 35  1  0  0  0  0
 34 38  1  0  0  0  0
 36 34  1  0  0  0  0
 37 33  1  6  0  0  0
 37 31  1  0  0  0  0
 38 35  1  0  0  0  0
 38 32  2  0  0  0  0
 40 41  1  0  0  0  0
 43 44  1  0  0  0  0
 43 42  1  0  0  0  0
 44 46  1  0  0  0  0
 45 44  2  0  0  0  0
 46 47  1  0  0  0  0
 47 50  1  0  0  0  0
 48 47  2  0  0  0  0
 50 49  2  0  0  0  0
 51 64  1  6  0  0  0
 51 50  1  0  0  0  0
 52 55  1  0  0  0  0
 52 51  1  0  0  0  0
 53 57  1  0  0  0  0
 54 53  2  0  0  0  0
 54 56  1  0  0  0  0
 56 52  2  0  0  0  0
 57 55  2  0  0  0  0
 58 63  1  6  0  0  0
 58 61  1  0  0  0  0
 58 53  1  0  0  0  0
 59 60  1  6  0  0  0
 59 58  1  0  0  0  0
 59 61  1  0  0  0  0
 60 62  1  0  0  0  0
 61 62  1  6  0  0  0
 64 65  1  0  0  0  0
 65 66  1  0  0  0  0
M  END
>  <MODEL>
3

>  <REMARK>
 VINA RESULT:      -7.4      2.038      6.944
  Name = 
  22 active torsions:
  status: ('A' for Active; 'I' for Inactive)
    1  A    between atoms: C_1  and  C_34
    2  A    between atoms: N_3  and  C_36
    3  A    between atoms: C_4  and  C_6
    4  A    between atoms: O_5  and  C_34
    5  A    between atoms: O_5  and  O_41
    6  A    between atoms: C_9  and  C_26
    7  A    between atoms: C_9  and  N_60
    8  A    between atoms: CA_10  and  C_14
    9  A    between atoms: CA_10  and  C_15
   10  A    between atoms: CA_10  and  N_64
   11  A    between atoms: C_11  and  C_25
   12  A    between atoms: C_11  and  N_64
   13  A    between atoms: C_13  and  C_58
   14  A    between atoms: C_17  and  C_30
   15  A    between atoms: C_17  and  C_53
   16  A    between atoms: C_21  and  C_24
   17  A    between atoms: C_21  and  C_34
   18  A    between atoms: C_24  and  C_47
   19  A    between atoms: C_25  and  C_30
   20  A    between atoms: C_30  and  C_36
   21  A    between atoms: C_31  and  C_47
   22  A    between atoms: C_53  and  N_60
                            x       y       z     vdW  Elec       q    Type
                         _______ _______ _______ _____ _____    ______ ____

>  <TORSDO>
F 22

$$$$
=
 OpenBabel10232412063D

 66 71  0  0  1  0  0  0  0  0999 V2000
  190.8890  175.3660  136.0580 C   0  0  1  0  0  3  0  0  0  0  0  0
  189.8210  174.5710  135.3520 C   0  0  0  0  0  0  0  0  0  0  0  0
  190.0790  173.9300  134.3460 O   0  0  0  0  0  0  0  0  0  0  0  0
  188.4100  174.6120  135.8490 C   0  0  0  0  0  2  0  0  0  0  0  0
  187.5120  174.1300  134.8120 N   0  0  0  0  0  2  0  0  0  0  0  0
  186.2110  174.7620  135.0150 C   0  0  0  0  0  2  0  0  0  0  0  0
  183.4620  175.2540  136.2780 N   0  0  0  0  0  0  0  0  0  0  0  0
  182.3210  176.9630  137.4770 C   0  0  0  0  0  3  0  0  0  0  0  0
  184.9310  172.4520  136.5870 C   0  0  0  0  0  2  0  0  0  0  0  0
  183.5480  177.4360  137.9670 C   0  0  0  0  0  0  0  0  0  0  0  0
  185.8790  173.4800  137.2060 C   0  0  0  0  0  2  0  0  0  0  0  0
  184.6570  175.6440  136.7900 C   0  0  0  0  0  0  0  0  0  0  0  0
  185.8910  174.8480  136.5090 C   0  0  2  0  0  3  0  0  0  0  0  0
  180.8110  174.1230  135.5000 N   0  0  0  0  0  2  0  0  0  0  0  0
  181.0420  175.3570  136.1480 N   0  0  0  0  0  2  0  0  0  0  0  0
  182.2960  175.8440  136.6370 C   0  0  0  0  0  0  0  0  0  0  0  0
  184.7240  176.7500  137.6380 C   0  0  0  0  0  3  0  0  0  0  0  0
  181.5030  172.8740  135.6800 C   0  0  0  0  0  3  0  0  0  0  0  0
  183.5800  172.4930  137.2170 C   0  0  0  0  0  3  0  0  0  0  0  0
  182.5270  172.6890  136.4700 C   0  0  0  0  0  0  0  0  0  0  0  0
  184.9300  178.9970  139.1080 F   0  0  0  0  0  0  0  0  0  0  0  0
  182.9620  179.6970  138.2790 F   0  0  0  0  0  0  0  0  0  0  0  0
  183.0080  178.3400  140.0830 F   0  0  0  0  0  0  0  0  0  0  0  0
  183.6160  178.6330  138.8700 C   0  0  0  0  0  0  0  0  0  0  0  0
  192.3170  174.9660  135.6650 C   0  0  1  0  0  3  0  0  0  0  0  0
  192.9410  175.9210  134.6640 C   0  0  0  0  0  1  0  0  0  0  0  0
  193.2080  174.8060  136.8910 C   0  0  0  0  0  2  0  0  0  0  0  0
  194.5930  175.1140  136.5490 N   0  0  0  0  0  2  0  0  0  0  0  0
  195.4360  174.0450  137.0720 C   0  0  1  0  0  3  0  0  0  0  0  0
  196.9160  174.2890  136.7340 C   0  0  2  0  0  3  0  0  0  0  0  0
  199.3510  174.2410  137.5580 C   0  0  1  0  0  3  0  0  0  0  0  0
  200.1530  171.9270  135.2070 O   0  0  0  0  0  0  0  0  0  0  0  0
  197.5870  175.3080  138.8040 O   0  0  0  0  0  1  0  0  0  0  0  0
  197.8880  172.1140  135.8050 C   0  0  0  0  0  2  0  0  0  0  0  0
  199.8430  172.8110  137.3630 C   0  0  0  0  0  2  0  0  0  0  0  0
  197.3320  173.4940  135.4860 C   0  0  0  0  0  2  0  0  0  0  0  0
  197.8680  174.2350  137.9520 C   0  0  1  0  0  3  0  0  0  0  0  0
  199.3530  172.2360  136.0740 C   0  0  0  0  0  0  0  0  0  0  0  0
  200.1220  174.8370  138.5590 O   0  0  0  0  0  1  0  0  0  0  0  0
  195.1760  173.8140  138.5600 C   0  0  0  0  0  2  0  0  0  0  0  0
  195.2440  172.4580  138.8780 O   0  0  0  0  0  1  0  0  0  0  0  0
  190.6380  176.8780  136.1400 C   0  0  0  0  0  2  0  0  0  0  0  0
  189.3290  177.2250  135.6100 N   0  0  0  0  0  2  0  0  0  0  0  0
  188.3990  178.0320  136.3290 C   0  0  0  0  0  0  0  0  0  0  0  0
  187.2570  178.2460  135.8370 O   0  0  0  0  0  0  0  0  0  0  0  0
  188.7630  178.6580  137.6410 C   0  0  0  0  0  2  0  0  0  0  0  0
  188.4010  177.7680  138.7890 C   0  0  0  0  0  0  0  0  0  0  0  0
  187.8070  176.6760  138.5710 O   0  0  0  0  0  0  0  0  0  0  0  0
  188.2610  179.0630  140.7770 O   0  0  0  0  0  0  0  0  0  0  0  0
  188.8240  178.1160  140.1600 C   0  0  0  0  0  0  0  0  0  0  0  0
  189.9220  177.3420  140.8330 C   0  0  2  0  0  3  0  0  0  0  0  0
  189.7630  177.3100  142.3190 C   0  0  0  0  0  0  0  0  0  0  0  0
  189.4760  177.3700  145.1130 C   0  0  0  0  0  0  0  0  0  0  0  0
  188.4430  176.8720  144.3050 C   0  0  0  0  0  3  0  0  0  0  0  0
  190.8010  177.7970  143.1230 C   0  0  0  0  0  3  0  0  0  0  0  0
  188.5840  176.8430  142.9150 C   0  0  0  0  0  3  0  0  0  0  0  0
  190.6580  177.8310  144.5120 C   0  0  0  0  0  3  0  0  0  0  0  0
  189.2860  177.4340  146.6010 C   0  0  1  0  0  0  0  0  0  0  0  0
  188.2560  178.3340  147.1230 C   0  0  2  0  0  3  0  0  0  0  0  0
  188.2220  178.3770  148.6360 C   0  0  0  0  0  2  0  0  0  0  0  0
  188.0120  176.8690  147.0900 N   0  0  2  0  0  0  0  0  0  0  0  0
  187.9720  176.8890  148.5500 C   0  0  0  0  0  2  0  0  0  0  0  0
  190.4010  177.1670  147.4150 O   0  0  0  0  0  1  0  0  0  0  0  0
  191.1820  177.8480  140.4860 O   0  0  0  0  0  0  0  0  0  0  0  0
  191.7530  176.8830  139.7920 O   0  0  0  0  0  0  0  0  0  0  0  0
  193.0950  177.2640  139.6930 C   0  0  0  0  0  1  0  0  0  0  0  0
  1 42  1  6  0  0  0
  2  4  1  0  0  0  0
  2  1  1  0  0  0  0
  3  2  2  0  0  0  0
  5  6  1  0  0  0  0
  5  4  1  0  0  0  0
  7 16  2  0  0  0  0
  7 12  1  0  0  0  0
  8 10  2  0  0  0  0
  9 11  1  0  0  0  0
  9 19  1  0  0  0  0
 10 24  1  0  0  0  0
 12 17  2  0  0  0  0
 13  6  1  6  0  0  0
 13 12  1  0  0  0  0
 13 11  1  0  0  0  0
 14 18  1  0  0  0  0
 14 15  1  0  0  0  0
 15 16  1  0  0  0  0
 16  8  1  0  0  0  0
 17 10  1  0  0  0  0
 18 20  2  0  0  0  0
 20 19  2  0  0  0  0
 22 24  1  0  0  0  0
 24 21  1  0  0  0  0
 24 23  1  0  0  0  0
 25 26  1  6  0  0  0
 25  1  1  0  0  0  0
 25 27  1  0  0  0  0
 28 27  1  0  0  0  0
 28 29  1  0  0  0  0
 29 40  1  1  0  0  0
 30 29  1  1  0  0  0
 30 37  1  0  0  0  0
 31 37  1  0  0  0  0
 31 39  1  1  0  0  0
 32 38  2  0  0  0  0
 34 38  1  0  0  0  0
 35 31  1  0  0  0  0
 36 34  1  0  0  0  0
 36 30  1  0  0  0  0
 37 33  1  1  0  0  0
 38 35  1  0  0  0  0
 40 41  1  0  0  0  0
 43 42  1  0  0  0  0
 43 44  1  0  0  0  0
 44 46  1  0  0  0  0
 45 44  2  0  0  0  0
 46 47  1  0  0  0  0
 47 50  1  0  0  0  0
 48 47  2  0  0  0  0
 50 49  2  0  0  0  0
 51 50  1  6  0  0  0
 51 52  1  0  0  0  0
 52 56  2  0  0  0  0
 52 55  1  0  0  0  0
 53 58  1  0  0  0  0
 54 53  2  0  0  0  0
 55 57  2  0  0  0  0
 56 54  1  0  0  0  0
 57 53  1  0  0  0  0
 58 61  1  0  0  0  0
 58 59  1  0  0  0  0
 58 63  1  1  0  0  0
 59 60  1  1  0  0  0
 61 59  1  0  0  0  0
 61 62  1  1  0  0  0
 62 60  1  0  0  0  0
 64 51  1  0  0  0  0
 65 64  1  0  0  0  0
 66 65  1  0  0  0  0
M  END
>  <MODEL>
4

>  <REMARK>
 VINA RESULT:      -7.1      4.593     10.464
  Name = 
  22 active torsions:
  status: ('A' for Active; 'I' for Inactive)
    1  A    between atoms: C_1  and  C_34
    2  A    between atoms: N_3  and  C_36
    3  A    between atoms: C_4  and  C_6
    4  A    between atoms: O_5  and  C_34
    5  A    between atoms: O_5  and  O_41
    6  A    between atoms: C_9  and  C_26
    7  A    between atoms: C_9  and  N_60
    8  A    between atoms: CA_10  and  C_14
    9  A    between atoms: CA_10  and  C_15
   10  A    between atoms: CA_10  and  N_64
   11  A    between atoms: C_11  and  C_25
   12  A    between atoms: C_11  and  N_64
   13  A    between atoms: C_13  and  C_58
   14  A    between atoms: C_17  and  C_30
   15  A    between atoms: C_17  and  C_53
   16  A    between atoms: C_21  and  C_24
   17  A    between atoms: C_21  and  C_34
   18  A    between atoms: C_24  and  C_47
   19  A    between atoms: C_25  and  C_30
   20  A    between atoms: C_30  and  C_36
   21  A    between atoms: C_31  and  C_47
   22  A    between atoms: C_53  and  N_60
                            x       y       z     vdW  Elec       q    Type
                         _______ _______ _______ _____ _____    ______ ____

>  <TORSDO>
F 22

$$$$
=
 OpenBabel10232412063D

 66 71  0  0  1  0  0  0  0  0999 V2000
  189.0200  176.5420  137.5720 C   0  0  1  0  0  3  0  0  0  0  0  0
  188.7260  175.1870  136.9830 C   0  0  0  0  0  0  0  0  0  0  0  0
  187.5950  174.8870  136.6360 O   0  0  0  0  0  0  0  0  0  0  0  0
  189.8170  174.1690  136.8740 C   0  0  0  0  0  2  0  0  0  0  0  0
  191.0910  174.8390  136.6630 N   0  0  0  0  0  2  0  0  0  0  0  0
  192.1520  173.9300  137.0900 C   0  0  0  0  0  2  0  0  0  0  0  0
  194.6290  172.1260  137.1300 N   0  0  0  0  0  0  0  0  0  0  0  0
  196.9900  172.3270  137.3570 C   0  0  0  0  0  3  0  0  0  0  0  0
  192.2890  171.6520  135.0320 C   0  0  0  0  0  2  0  0  0  0  0  0
  196.9270  173.6270  136.8340 C   0  0  0  0  0  0  0  0  0  0  0  0
  192.7950  173.0710  134.7650 C   0  0  0  0  0  2  0  0  0  0  0  0
  194.5440  173.3530  136.5560 C   0  0  0  0  0  0  0  0  0  0  0  0
  193.2390  173.8430  136.0160 C   0  0  2  0  0  3  0  0  0  0  0  0
  194.8580  169.2730  137.9790 N   0  0  0  0  0  2  0  0  0  0  0  0
  195.8840  170.2440  138.0070 N   0  0  0  0  0  2  0  0  0  0  0  0
  195.8160  171.5740  137.4820 C   0  0  0  0  0  0  0  0  0  0  0  0
  195.6930  174.1320  136.4060 C   0  0  0  0  0  3  0  0  0  0  0  0
  193.8200  169.0940  136.9990 C   0  0  0  0  0  3  0  0  0  0  0  0
  193.3870  170.6470  134.9430 C   0  0  0  0  0  3  0  0  0  0  0  0
  193.6270  169.8640  135.9600 C   0  0  0  0  0  0  0  0  0  0  0  0
  198.6370  174.8730  137.9180 F   0  0  0  0  0  0  0  0  0  0  0  0
  199.1470  173.7310  136.0510 F   0  0  0  0  0  0  0  0  0  0  0  0
  197.8750  175.5910  135.9240 F   0  0  0  0  0  0  0  0  0  0  0  0
  198.1630  174.4660  136.6840 C   0  0  0  0  0  0  0  0  0  0  0  0
  188.0730  177.6460  137.0840 C   0  0  1  0  0  3  0  0  0  0  0  0
  188.5850  178.3560  135.8440 C   0  0  0  0  0  1  0  0  0  0  0  0
  186.6630  177.1110  136.8590 C   0  0  0  0  0  2  0  0  0  0  0  0
  185.9180  177.1160  138.1130 N   0  0  0  0  0  2  0  0  0  0  0  0
  184.7660  177.9960  137.9500 C   0  0  1  0  0  3  0  0  0  0  0  0
  183.4490  177.2070  138.0220 C   0  0  2  0  0  3  0  0  0  0  0  0
  181.1610  176.7290  136.9500 C   0  0  1  0  0  3  0  0  0  0  0  0
  182.0080  173.4750  136.4770 O   0  0  0  0  0  0  0  0  0  0  0  0
  181.9480  178.9670  137.3700 O   0  0  0  0  0  1  0  0  0  0  0  0
  183.7620  175.0170  136.7400 C   0  0  0  0  0  2  0  0  0  0  0  0
  181.4000  175.6670  135.8820 C   0  0  0  0  0  2  0  0  0  0  0  0
  183.7180  175.6960  138.1010 C   0  0  0  0  0  2  0  0  0  0  0  0
  182.3650  177.6770  137.0230 C   0  0  1  0  0  3  0  0  0  0  0  0
  182.3720  174.6320  136.3490 C   0  0  0  0  0  0  0  0  0  0  0  0
  180.0020  177.4330  136.6160 O   0  0  0  0  0  1  0  0  0  0  0  0
  184.8300  179.1740  138.9210 C   0  0  0  0  0  2  0  0  0  0  0  0
  185.7780  178.9510  139.9210 O   0  0  0  0  0  1  0  0  0  0  0  0
  189.3100  176.5560  139.0800 C   0  0  0  0  0  2  0  0  0  0  0  0
  190.7300  176.7260  139.3420 N   0  0  0  0  0  2  0  0  0  0  0  0
  191.2230  177.3460  140.5280 C   0  0  0  0  0  0  0  0  0  0  0  0
  192.4660  177.5130  140.6660 O   0  0  0  0  0  0  0  0  0  0  0  0
  190.2970  177.7700  141.6270 C   0  0  0  0  0  2  0  0  0  0  0  0
  190.9760  177.7200  142.9600 C   0  0  0  0  0  0  0  0  0  0  0  0
  191.5390  178.7530  143.4160 O   0  0  0  0  0  0  0  0  0  0  0  0
  191.3680  175.4070  143.3470 O   0  0  0  0  0  0  0  0  0  0  0  0
  190.9020  176.4960  143.7840 C   0  0  0  0  0  0  0  0  0  0  0  0
  190.2780  176.5410  145.1510 C   0  0  2  0  0  3  0  0  0  0  0  0
  188.9090  177.1400  145.1270 C   0  0  0  0  0  0  0  0  0  0  0  0
  186.2900  178.1570  145.0570 C   0  0  0  0  0  0  0  0  0  0  0  0
  187.0550  178.2500  146.2290 C   0  0  0  0  0  3  0  0  0  0  0  0
  188.1520  177.0570  143.9520 C   0  0  0  0  0  3  0  0  0  0  0  0
  188.3570  177.7430  146.2650 C   0  0  0  0  0  3  0  0  0  0  0  0
  186.8480  177.5580  143.9160 C   0  0  0  0  0  3  0  0  0  0  0  0
  184.8780  178.6670  145.0520 C   0  0  1  0  0  0  0  0  0  0  0  0
  184.4680  179.5400  143.9520 C   0  0  2  0  0  3  0  0  0  0  0  0
  183.0540  180.0580  144.1050 C   0  0  0  0  0  2  0  0  0  0  0  0
  184.0250  178.1220  143.9760 N   0  0  2  0  0  0  0  0  0  0  0  0
  182.6520  178.6010  144.1210 C   0  0  0  0  0  2  0  0  0  0  0  0
  184.2340  178.8240  146.2920 O   0  0  0  0  0  1  0  0  0  0  0  0
  191.0960  177.2240  146.0590 O   0  0  0  0  0  0  0  0  0  0  0  0
  192.0580  176.3720  146.3530 O   0  0  0  0  0  0  0  0  0  0  0  0
  192.0270  176.2700  147.7480 C   0  0  0  0  0  1  0  0  0  0  0  0
  1 42  1  1  0  0  0
  2  1  1  0  0  0  0
  3  2  2  0  0  0  0
  4  2  1  0  0  0  0
  5  4  1  0  0  0  0
  5  6  1  0  0  0  0
  7 16  2  0  0  0  0
  8 16  1  0  0  0  0
 10  8  2  0  0  0  0
 11  9  1  0  0  0  0
 11 13  1  0  0  0  0
 12  7  1  0  0  0  0
 13 12  1  0  0  0  0
 13  6  1  1  0  0  0
 14 15  1  0  0  0  0
 16 15  1  0  0  0  0
 17 12  2  0  0  0  0
 17 10  1  0  0  0  0
 18 14  1  0  0  0  0
 19  9  1  0  0  0  0
 19 20  2  0  0  0  0
 20 18  2  0  0  0  0
 22 24  1  0  0  0  0
 23 24  1  0  0  0  0
 24 10  1  0  0  0  0
 24 21  1  0  0  0  0
 25 26  1  6  0  0  0
 25  1  1  0  0  0  0
 27 25  1  0  0  0  0
 27 28  1  0  0  0  0
 29 28  1  0  0  0  0
 29 40  1  1  0  0  0
 30 29  1  6  0  0  0
 30 36  1  0  0  0  0
 31 39  1  6  0  0  0
 31 37  1  0  0  0  0
 34 36  1  0  0  0  0
 35 38  1  0  0  0  0
 35 31  1  0  0  0  0
 37 33  1  1  0  0  0
 37 30  1  0  0  0  0
 38 32  2  0  0  0  0
 38 34  1  0  0  0  0
 40 41  1  0  0  0  0
 42 43  1  0  0  0  0
 43 44  1  0  0  0  0
 44 45  2  0  0  0  0
 44 46  1  0  0  0  0
 46 47  1  0  0  0  0
 47 48  2  0  0  0  0
 47 50  1  0  0  0  0
 49 50  2  0  0  0  0
 51 50  1  6  0  0  0
 51 64  1  0  0  0  0
 52 51  1  0  0  0  0
 52 56  1  0  0  0  0
 53 54  1  0  0  0  0
 54 56  2  0  0  0  0
 55 52  2  0  0  0  0
 57 55  1  0  0  0  0
 57 53  2  0  0  0  0
 58 53  1  0  0  0  0
 58 63  1  1  0  0  0
 59 61  1  0  0  0  0
 59 60  1  1  0  0  0
 59 58  1  0  0  0  0
 60 62  1  0  0  0  0
 61 62  1  1  0  0  0
 61 58  1  0  0  0  0
 64 65  1  0  0  0  0
 65 66  1  0  0  0  0
M  END
>  <MODEL>
5

>  <REMARK>
 VINA RESULT:      -6.9      1.495      2.732
  Name = 
  22 active torsions:
  status: ('A' for Active; 'I' for Inactive)
    1  A    between atoms: C_1  and  C_34
    2  A    between atoms: N_3  and  C_36
    3  A    between atoms: C_4  and  C_6
    4  A    between atoms: O_5  and  C_34
    5  A    between atoms: O_5  and  O_41
    6  A    between atoms: C_9  and  C_26
    7  A    between atoms: C_9  and  N_60
    8  A    between atoms: CA_10  and  C_14
    9  A    between atoms: CA_10  and  C_15
   10  A    between atoms: CA_10  and  N_64
   11  A    between atoms: C_11  and  C_25
   12  A    between atoms: C_11  and  N_64
   13  A    between atoms: C_13  and  C_58
   14  A    between atoms: C_17  and  C_30
   15  A    between atoms: C_17  and  C_53
   16  A    between atoms: C_21  and  C_24
   17  A    between atoms: C_21  and  C_34
   18  A    between atoms: C_24  and  C_47
   19  A    between atoms: C_25  and  C_30
   20  A    between atoms: C_30  and  C_36
   21  A    between atoms: C_31  and  C_47
   22  A    between atoms: C_53  and  N_60
                            x       y       z     vdW  Elec       q    Type
                         _______ _______ _______ _____ _____    ______ ____

>  <TORSDO>
F 22

$$$$
=
 OpenBabel10232412063D

 66 71  0  0  1  0  0  0  0  0999 V2000
  189.7760  175.2690  137.1580 C   0  0  1  0  0  3  0  0  0  0  0  0
  188.5650  174.3830  137.0130 C   0  0  0  0  0  0  0  0  0  0  0  0
  188.6850  173.1950  136.7630 O   0  0  0  0  0  0  0  0  0  0  0  0
  187.1940  174.9740  137.1150 C   0  0  0  0  0  2  0  0  0  0  0  0
  186.5890  175.0380  135.7930 N   0  0  0  0  0  2  0  0  0  0  0  0
  185.4730  174.0960  135.7640 C   0  0  0  0  0  2  0  0  0  0  0  0
  182.5760  174.5690  136.6460 N   0  0  0  0  0  0  0  0  0  0  0  0
  181.3380  176.0980  137.9840 C   0  0  0  0  0  3  0  0  0  0  0  0
  183.8130  171.6420  136.5780 C   0  0  0  0  0  2  0  0  0  0  0  0
  182.4840  176.3490  138.7540 C   0  0  0  0  0  0  0  0  0  0  0  0
  184.6920  172.4340  137.5470 C   0  0  0  0  0  2  0  0  0  0  0  0
  183.6830  174.7380  137.4130 C   0  0  0  0  0  0  0  0  0  0  0  0
  184.9020  173.9080  137.1710 C   0  0  2  0  0  3  0  0  0  0  0  0
  180.0460  173.8630  135.2290 N   0  0  0  0  0  2  0  0  0  0  0  0
  180.2260  174.9150  136.1540 N   0  0  0  0  0  2  0  0  0  0  0  0
  181.3990  175.1780  136.9310 C   0  0  0  0  0  0  0  0  0  0  0  0
  183.6600  175.6400  138.4790 C   0  0  0  0  0  3  0  0  0  0  0  0
  180.6260  172.5460  135.2450 C   0  0  0  0  0  3  0  0  0  0  0  0
  182.3770  171.6770  136.9770 C   0  0  0  0  0  3  0  0  0  0  0  0
  181.4840  172.1140  136.1310 C   0  0  0  0  0  0  0  0  0  0  0  0
  182.8290  178.5900  139.4660 F   0  0  0  0  0  0  0  0  0  0  0  0
  181.1810  177.3950  140.4160 F   0  0  0  0  0  0  0  0  0  0  0  0
  183.3360  176.9160  140.8840 F   0  0  0  0  0  0  0  0  0  0  0  0
  182.4580  177.3280  139.8920 C   0  0  0  0  0  0  0  0  0  0  0  0
  190.3370  175.7700  135.8200 C   0  0  1  0  0  3  0  0  0  0  0  0
  189.8870  177.1800  135.4850 C   0  0  0  0  0  1  0  0  0  0  0  0
  191.8570  175.6620  135.7780 C   0  0  0  0  0  2  0  0  0  0  0  0
  192.2910  174.4370  136.4430 N   0  0  0  0  0  2  0  0  0  0  0  0
  193.4510  173.9210  135.7250 C   0  0  1  0  0  3  0  0  0  0  0  0
  194.6620  173.7710  136.6610 C   0  0  2  0  0  3  0  0  0  0  0  0
  196.7370  172.3910  137.2950 C   0  0  1  0  0  3  0  0  0  0  0  0
  198.7600  175.0310  136.6170 O   0  0  0  0  0  0  0  0  0  0  0  0
  194.5690  171.3900  136.9760 O   0  0  0  0  0  1  0  0  0  0  0  0
  196.6340  175.0200  135.6180 C   0  0  0  0  0  2  0  0  0  0  0  0
  197.8650  172.8700  136.3890 C   0  0  0  0  0  2  0  0  0  0  0  0
  195.5210  175.0440  136.6550 C   0  0  0  0  0  2  0  0  0  0  0  0
  195.4060  172.4200  136.5330 C   0  0  1  0  0  3  0  0  0  0  0  0
  197.8320  174.3530  136.2120 C   0  0  0  0  0  0  0  0  0  0  0  0
  197.0330  171.0920  137.7150 O   0  0  0  0  0  1  0  0  0  0  0  0
  193.1040  172.6450  134.9600 C   0  0  0  0  0  2  0  0  0  0  0  0
  191.8340  172.1820  135.3040 O   0  0  0  0  0  1  0  0  0  0  0  0
  189.6850  176.3330  138.2620 C   0  0  0  0  0  2  0  0  0  0  0  0
  191.0070  176.7310  138.7190 N   0  0  0  0  0  2  0  0  0  0  0  0
  191.2370  177.2920  140.0090 C   0  0  0  0  0  0  0  0  0  0  0  0
  192.3990  177.6700  140.3200 O   0  0  0  0  0  0  0  0  0  0  0  0
  190.1320  177.4090  141.0150 C   0  0  0  0  0  2  0  0  0  0  0  0
  190.5260  176.8100  142.3290 C   0  0  0  0  0  0  0  0  0  0  0  0
  191.7220  176.8950  142.7230 O   0  0  0  0  0  0  0  0  0  0  0  0
  188.9260  175.1380  142.8720 O   0  0  0  0  0  0  0  0  0  0  0  0
  189.5020  176.2100  143.2080 C   0  0  0  0  0  0  0  0  0  0  0  0
  189.1430  176.8690  144.5100 C   0  0  2  0  0  3  0  0  0  0  0  0
  187.7590  177.4340  144.4940 C   0  0  0  0  0  0  0  0  0  0  0  0
  185.1200  178.3950  144.4130 C   0  0  0  0  0  0  0  0  0  0  0  0
  185.7830  178.2500  145.6410 C   0  0  0  0  0  3  0  0  0  0  0  0
  187.1040  177.5890  143.2670 C   0  0  0  0  0  3  0  0  0  0  0  0
  187.0960  177.7710  145.6820 C   0  0  0  0  0  3  0  0  0  0  0  0
  185.7900  178.0630  143.2250 C   0  0  0  0  0  3  0  0  0  0  0  0
  183.6950  178.8680  144.3930 C   0  0  1  0  0  0  0  0  0  0  0  0
  183.1620  179.3860  143.1330 C   0  0  2  0  0  3  0  0  0  0  0  0
  181.7490  179.9130  143.2610 C   0  0  0  0  0  2  0  0  0  0  0  0
  182.7740  178.0300  143.5980 N   0  0  2  0  0  0  0  0  0  0  0  0
  181.4020  178.5170  143.7270 C   0  0  0  0  0  2  0  0  0  0  0  0
  183.1540  179.3660  145.5920 O   0  0  0  0  0  1  0  0  0  0  0  0
  190.0730  177.8590  144.8500 O   0  0  0  0  0  0  0  0  0  0  0  0
  190.3830  177.6130  146.1070 O   0  0  0  0  0  0  0  0  0  0  0  0
  191.5990  176.9250  146.0450 C   0  0  0  0  0  1  0  0  0  0  0  0
  1 42  1  1  0  0  0
  2  4  1  0  0  0  0
  2  1  1  0  0  0  0
  3  2  2  0  0  0  0
  5  4  1  0  0  0  0
  6  5  1  0  0  0  0
  7 16  2  0  0  0  0
  7 12  1  0  0  0  0
  8 10  2  0  0  0  0
  9 19  1  0  0  0  0
  9 11  1  0  0  0  0
 10 24  1  0  0  0  0
 12 17  2  0  0  0  0
 13  6  1  6  0  0  0
 13 12  1  0  0  0  0
 13 11  1  0  0  0  0
 14 18  1  0  0  0  0
 14 15  1  0  0  0  0
 15 16  1  0  0  0  0
 16  8  1  0  0  0  0
 17 10  1  0  0  0  0
 18 20  2  0  0  0  0
 20 19  2  0  0  0  0
 21 24  1  0  0  0  0
 24 22  1  0  0  0  0
 24 23  1  0  0  0  0
 25 26  1  1  0  0  0
 25  1  1  0  0  0  0
 27 25  1  0  0  0  0
 27 28  1  0  0  0  0
 29 40  1  1  0  0  0
 29 28  1  0  0  0  0
 30 29  1  6  0  0  0
 31 39  1  6  0  0  0
 34 38  1  0  0  0  0
 34 36  1  0  0  0  0
 35 31  1  0  0  0  0
 36 30  1  0  0  0  0
 37 30  1  0  0  0  0
 37 33  1  1  0  0  0
 37 31  1  0  0  0  0
 38 35  1  0  0  0  0
 38 32  2  0  0  0  0
 40 41  1  0  0  0  0
 42 43  1  0  0  0  0
 43 44  1  0  0  0  0
 44 45  2  0  0  0  0
 44 46  1  0  0  0  0
 46 47  1  0  0  0  0
 47 48  2  0  0  0  0
 47 50  1  0  0  0  0
 49 50  2  0  0  0  0
 51 50  1  6  0  0  0
 51 64  1  0  0  0  0
 52 51  1  0  0  0  0
 52 56  1  0  0  0  0
 53 54  1  0  0  0  0
 54 56  2  0  0  0  0
 55 52  2  0  0  0  0
 57 55  1  0  0  0  0
 57 53  2  0  0  0  0
 58 53  1  0  0  0  0
 58 63  1  1  0  0  0
 59 60  1  1  0  0  0
 59 61  1  0  0  0  0
 59 58  1  0  0  0  0
 60 62  1  0  0  0  0
 61 62  1  1  0  0  0
 61 58  1  0  0  0  0
 64 65  1  0  0  0  0
 66 65  1  0  0  0  0
M  END
>  <MODEL>
6

>  <REMARK>
 VINA RESULT:      -6.7      4.687      9.461
  Name = 
  22 active torsions:
  status: ('A' for Active; 'I' for Inactive)
    1  A    between atoms: C_1  and  C_34
    2  A    between atoms: N_3  and  C_36
    3  A    between atoms: C_4  and  C_6
    4  A    between atoms: O_5  and  C_34
    5  A    between atoms: O_5  and  O_41
    6  A    between atoms: C_9  and  C_26
    7  A    between atoms: C_9  and  N_60
    8  A    between atoms: CA_10  and  C_14
    9  A    between atoms: CA_10  and  C_15
   10  A    between atoms: CA_10  and  N_64
   11  A    between atoms: C_11  and  C_25
   12  A    between atoms: C_11  and  N_64
   13  A    between atoms: C_13  and  C_58
   14  A    between atoms: C_17  and  C_30
   15  A    between atoms: C_17  and  C_53
   16  A    between atoms: C_21  and  C_24
   17  A    between atoms: C_21  and  C_34
   18  A    between atoms: C_24  and  C_47
   19  A    between atoms: C_25  and  C_30
   20  A    between atoms: C_30  and  C_36
   21  A    between atoms: C_31  and  C_47
   22  A    between atoms: C_53  and  N_60
                            x       y       z     vdW  Elec       q    Type
                         _______ _______ _______ _____ _____    ______ ____

>  <TORSDO>
F 22

$$$$
=
 OpenBabel10232412063D

 66 71  0  0  1  0  0  0  0  0999 V2000
  191.6660  176.8160  139.7210 C   0  0  1  0  0  3  0  0  0  0  0  0
  193.1170  177.1970  139.8640 C   0  0  0  0  0  0  0  0  0  0  0  0
  193.5050  178.3120  139.5560 O   0  0  0  0  0  0  0  0  0  0  0  0
  194.1110  176.1810  140.3330 C   0  0  0  0  0  2  0  0  0  0  0  0
  195.0870  175.9310  139.2830 N   0  0  0  0  0  2  0  0  0  0  0  0
  195.7250  174.6470  139.5600 C   0  0  0  0  0  2  0  0  0  0  0  0
  194.7520  175.3410  136.7380 N   0  0  0  0  0  0  0  0  0  0  0  0
  192.8020  175.0780  135.4000 C   0  0  0  0  0  3  0  0  0  0  0  0
  197.6880  174.2280  137.2340 C   0  0  0  0  0  2  0  0  0  0  0  0
  192.4580  173.9310  136.1300 C   0  0  0  0  0  0  0  0  0  0  0  0
  196.7470  173.1430  137.7580 C   0  0  0  0  0  2  0  0  0  0  0  0
  194.4830  174.1960  137.4170 C   0  0  0  0  0  0  0  0  0  0  0  0
  195.4610  173.6660  138.4150 C   0  0  2  0  0  3  0  0  0  0  0  0
  195.5780  177.6020  134.9730 N   0  0  0  0  0  2  0  0  0  0  0  0
  194.3330  176.9340  134.9580 N   0  0  0  0  0  2  0  0  0  0  0  0
  193.9790  175.7690  135.7110 C   0  0  0  0  0  0  0  0  0  0  0  0
  193.3240  173.4730  137.1300 C   0  0  0  0  0  3  0  0  0  0  0  0
  196.8880  177.0500  135.1970 C   0  0  0  0  0  3  0  0  0  0  0  0
  197.4060  174.5650  135.8080 C   0  0  0  0  0  3  0  0  0  0  0  0
  197.1380  175.7990  135.4790 C   0  0  0  0  0  0  0  0  0  0  0  0
  191.5000  171.8580  135.4690 F   0  0  0  0  0  0  0  0  0  0  0  0
  190.3920  173.1420  136.9440 F   0  0  0  0  0  0  0  0  0  0  0  0
  190.5250  173.7680  134.7800 F   0  0  0  0  0  0  0  0  0  0  0  0
  191.2050  173.1610  135.8260 C   0  0  0  0  0  0  0  0  0  0  0  0
  190.7200  177.6490  140.5950 C   0  0  1  0  0  3  0  0  0  0  0  0
  189.2620  177.2690  140.4120 C   0  0  0  0  0  1  0  0  0  0  0  0
  191.1170  177.5830  142.0650 C   0  0  0  0  0  2  0  0  0  0  0  0
  190.0160  178.0440  142.9040 N   0  0  0  0  0  2  0  0  0  0  0  0
  189.9810  177.2130  144.1010 C   0  0  1  0  0  3  0  0  0  0  0  0
  188.5350  176.9500  144.5520 C   0  0  2  0  0  3  0  0  0  0  0  0
  186.5560  177.7180  146.0030 C   0  0  1  0  0  3  0  0  0  0  0  0
  184.6340  178.1520  143.2380 O   0  0  0  0  0  0  0  0  0  0  0  0
  188.7880  177.4910  146.8800 O   0  0  0  0  0  1  0  0  0  0  0  0
  186.9650  178.1660  142.9420 C   0  0  0  0  0  2  0  0  0  0  0  0
  185.8020  178.7610  145.1850 C   0  0  0  0  0  2  0  0  0  0  0  0
  187.5940  176.8400  143.3430 C   0  0  0  0  0  2  0  0  0  0  0  0
  188.0620  177.8300  145.7330 C   0  0  1  0  0  3  0  0  0  0  0  0
  185.7210  178.3710  143.7450 C   0  0  0  0  0  0  0  0  0  0  0  0
  186.2820  177.9400  147.3550 O   0  0  0  0  0  1  0  0  0  0  0  0
  190.8070  175.9410  143.9150 C   0  0  0  0  0  2  0  0  0  0  0  0
  191.9560  175.9670  144.7060 O   0  0  0  0  0  1  0  0  0  0  0  0
  191.1850  176.5870  138.2800 C   0  0  0  0  0  2  0  0  0  0  0  0
  190.4390  177.7330  137.7860 N   0  0  0  0  0  2  0  0  0  0  0  0
  189.4450  177.6230  136.7690 C   0  0  0  0  0  0  0  0  0  0  0  0
  188.8770  178.6660  136.3450 O   0  0  0  0  0  0  0  0  0  0  0  0
  189.0400  176.2890  136.2190 C   0  0  0  0  0  2  0  0  0  0  0  0
  187.6260  175.9570  136.5850 C   0  0  0  0  0  0  0  0  0  0  0  0
  187.3080  175.8240  137.7980 O   0  0  0  0  0  0  0  0  0  0  0  0
  186.7290  176.5210  134.4570 O   0  0  0  0  0  0  0  0  0  0  0  0
  186.5880  175.8830  135.5370 C   0  0  0  0  0  0  0  0  0  0  0  0
  185.3580  175.0460  135.7490 C   0  0  2  0  0  3  0  0  0  0  0  0
  184.4070  175.6730  136.7170 C   0  0  0  0  0  0  0  0  0  0  0  0
  182.6820  176.8000  138.6260 C   0  0  0  0  0  0  0  0  0  0  0  0
  183.4240  177.6250  137.7690 C   0  0  0  0  0  3  0  0  0  0  0  0
  183.6580  174.8470  137.5630 C   0  0  0  0  0  3  0  0  0  0  0  0
  184.2840  177.0650  136.8190 C   0  0  0  0  0  3  0  0  0  0  0  0
  182.8020  175.4060  138.5160 C   0  0  0  0  0  3  0  0  0  0  0  0
  181.7980  177.4220  139.6690 C   0  0  1  0  0  0  0  0  0  0  0  0
  182.4150  178.3260  140.6410 C   0  0  2  0  0  3  0  0  0  0  0  0
  181.4420  178.8170  141.6910 C   0  0  0  0  0  2  0  0  0  0  0  0
  181.6010  178.8790  139.5280 N   0  0  2  0  0  0  0  0  0  0  0  0
  180.6510  179.3650  140.5260 C   0  0  0  0  0  2  0  0  0  0  0  0
  180.6540  176.7080  140.0680 O   0  0  0  0  0  1  0  0  0  0  0  0
  185.6930  173.7500  136.1610 O   0  0  0  0  0  0  0  0  0  0  0  0
  185.7080  173.0370  135.0530 O   0  0  0  0  0  0  0  0  0  0  0  0
  186.7450  172.1170  135.2370 C   0  0  0  0  0  1  0  0  0  0  0  0
  1 42  1  6  0  0  0
  1  2  1  0  0  0  0
  1 25  1  0  0  0  0
  2  4  1  0  0  0  0
  3  2  2  0  0  0  0
  5  6  1  0  0  0  0
  5  4  1  0  0  0  0
  7 12  1  0  0  0  0
  8 16  1  0  0  0  0
  8 10  2  0  0  0  0
  9 11  1  0  0  0  0
 10 17  1  0  0  0  0
 11 13  1  0  0  0  0
 12 13  1  0  0  0  0
 13  6  1  1  0  0  0
 14 18  1  0  0  0  0
 15 14  1  0  0  0  0
 15 16  1  0  0  0  0
 16  7  2  0  0  0  0
 17 12  2  0  0  0  0
 18 20  2  0  0  0  0
 19  9  1  0  0  0  0
 20 19  2  0  0  0  0
 21 24  1  0  0  0  0
 23 24  1  0  0  0  0
 24 10  1  0  0  0  0
 24 22  1  0  0  0  0
 25 26  1  1  0  0  0
 25 27  1  0  0  0  0
 27 28  1  0  0  0  0
 28 29  1  0  0  0  0
 29 40  1  6  0  0  0
 30 29  1  6  0  0  0
 30 37  1  0  0  0  0
 31 39  1  1  0  0  0
 32 38  2  0  0  0  0
 34 36  1  0  0  0  0
 34 38  1  0  0  0  0
 35 31  1  0  0  0  0
 36 30  1  0  0  0  0
 37 31  1  0  0  0  0
 37 33  1  1  0  0  0
 38 35  1  0  0  0  0
 40 41  1  0  0  0  0
 43 42  1  0  0  0  0
 44 43  1  0  0  0  0
 45 44  2  0  0  0  0
 46 47  1  0  0  0  0
 46 44  1  0  0  0  0
 47 48  2  0  0  0  0
 49 50  2  0  0  0  0
 50 47  1  0  0  0  0
 51 50  1  1  0  0  0
 51 64  1  0  0  0  0
 51 52  1  0  0  0  0
 52 56  2  0  0  0  0
 52 55  1  0  0  0  0
 53 58  1  0  0  0  0
 54 53  2  0  0  0  0
 55 57  2  0  0  0  0
 56 54  1  0  0  0  0
 57 53  1  0  0  0  0
 58 63  1  1  0  0  0
 58 59  1  0  0  0  0
 59 60  1  1  0  0  0
 61 58  1  0  0  0  0
 61 62  1  1  0  0  0
 61 59  1  0  0  0  0
 62 60  1  0  0  0  0
 65 66  1  0  0  0  0
 65 64  1  0  0  0  0
M  END
>  <MODEL>
7

>  <REMARK>
 VINA RESULT:      -6.6      2.838      7.328
  Name = 
  22 active torsions:
  status: ('A' for Active; 'I' for Inactive)
    1  A    between atoms: C_1  and  C_34
    2  A    between atoms: N_3  and  C_36
    3  A    between atoms: C_4  and  C_6
    4  A    between atoms: O_5  and  C_34
    5  A    between atoms: O_5  and  O_41
    6  A    between atoms: C_9  and  C_26
    7  A    between atoms: C_9  and  N_60
    8  A    between atoms: CA_10  and  C_14
    9  A    between atoms: CA_10  and  C_15
   10  A    between atoms: CA_10  and  N_64
   11  A    between atoms: C_11  and  C_25
   12  A    between atoms: C_11  and  N_64
   13  A    between atoms: C_13  and  C_58
   14  A    between atoms: C_17  and  C_30
   15  A    between atoms: C_17  and  C_53
   16  A    between atoms: C_21  and  C_24
   17  A    between atoms: C_21  and  C_34
   18  A    between atoms: C_24  and  C_47
   19  A    between atoms: C_25  and  C_30
   20  A    between atoms: C_30  and  C_36
   21  A    between atoms: C_31  and  C_47
   22  A    between atoms: C_53  and  N_60
                            x       y       z     vdW  Elec       q    Type
                         _______ _______ _______ _____ _____    ______ ____

>  <TORSDO>
F 22

$$$$
=
 OpenBabel10232412063D

 66 71  0  0  1  0  0  0  0  0999 V2000
  189.1670  177.0610  139.7200 C   0  0  1  0  0  3  0  0  0  0  0  0
  190.1010  177.3560  138.5750 C   0  0  0  0  0  0  0  0  0  0  0  0
  189.8860  178.2850  137.8140 O   0  0  0  0  0  0  0  0  0  0  0  0
  191.2770  176.4650  138.3250 C   0  0  0  0  0  2  0  0  0  0  0  0
  190.8240  175.0910  138.1640 N   0  0  0  0  0  2  0  0  0  0  0  0
  191.9580  174.2960  137.6990 C   0  0  0  0  0  2  0  0  0  0  0  0
  194.8700  173.4010  137.3630 N   0  0  0  0  0  0  0  0  0  0  0  0
  196.9280  173.5130  138.5530 C   0  0  0  0  0  3  0  0  0  0  0  0
  193.2460  174.6450  134.9310 C   0  0  0  0  0  2  0  0  0  0  0  0
  196.4960  174.6890  139.1840 C   0  0  0  0  0  0  0  0  0  0  0  0
  193.2510  175.7260  136.0130 C   0  0  0  0  0  2  0  0  0  0  0  0
  194.4520  174.5740  137.9040 C   0  0  0  0  0  0  0  0  0  0  0  0
  193.1710  175.1970  137.4520 C   0  0  2  0  0  3  0  0  0  0  0  0
  195.9510  171.0690  135.8460 N   0  0  0  0  0  2  0  0  0  0  0  0
  196.5430  171.6900  136.9680 N   0  0  0  0  0  2  0  0  0  0  0  0
  196.0970  172.8840  137.6180 C   0  0  0  0  0  0  0  0  0  0  0  0
  195.2560  175.2370  138.8330 C   0  0  0  0  0  3  0  0  0  0  0  0
  195.2280  171.6790  134.7620 C   0  0  0  0  0  3  0  0  0  0  0  0
  194.6270  174.2140  134.5710 C   0  0  0  0  0  3  0  0  0  0  0  0
  194.9530  172.9530  134.6650 C   0  0  0  0  0  0  0  0  0  0  0  0
  196.7300  176.5280  140.6710 F   0  0  0  0  0  0  0  0  0  0  0  0
  197.6170  174.5470  141.2520 F   0  0  0  0  0  0  0  0  0  0  0  0
  198.5590  175.7650  139.6020 F   0  0  0  0  0  0  0  0  0  0  0  0
  197.3590  175.3940  140.1910 C   0  0  0  0  0  0  0  0  0  0  0  0
  189.8760  176.9220  141.0740 C   0  0  1  0  0  3  0  0  0  0  0  0
  190.9250  177.9960  141.3020 C   0  0  0  0  0  1  0  0  0  0  0  0
  188.8780  176.8860  142.2250 C   0  0  0  0  0  2  0  0  0  0  0  0
  189.5070  176.3300  143.4180 N   0  0  0  0  0  2  0  0  0  0  0  0
  189.5620  177.3780  144.4300 C   0  0  1  0  0  3  0  0  0  0  0  0
  188.5440  177.1210  145.5530 C   0  0  2  0  0  3  0  0  0  0  0  0
  187.5940  177.8850  147.8170 C   0  0  1  0  0  3  0  0  0  0  0  0
  184.5390  178.3810  146.4220 O   0  0  0  0  0  0  0  0  0  0  0  0
  189.9580  177.6220  147.4310 O   0  0  0  0  0  1  0  0  0  0  0  0
  186.3930  178.3780  144.9790 C   0  0  0  0  0  2  0  0  0  0  0  0
  186.5460  178.9480  147.5070 C   0  0  0  0  0  2  0  0  0  0  0  0
  187.1160  177.0400  144.9910 C   0  0  0  0  0  2  0  0  0  0  0  0
  188.7540  177.9870  146.8180 C   0  0  1  0  0  3  0  0  0  0  0  0
  185.7360  178.5820  146.3060 C   0  0  0  0  0  0  0  0  0  0  0  0
  188.0510  178.0870  149.1220 O   0  0  0  0  0  1  0  0  0  0  0  0
  190.9910  177.5860  144.9320 C   0  0  0  0  0  2  0  0  0  0  0  0
  191.7420  176.4170  144.8100 O   0  0  0  0  0  1  0  0  0  0  0  0
  187.8760  177.8910  139.7480 C   0  0  0  0  0  2  0  0  0  0  0  0
  187.0510  177.6210  138.5810 N   0  0  0  0  0  2  0  0  0  0  0  0
  185.7230  178.1220  138.4460 C   0  0  0  0  0  0  0  0  0  0  0  0
  185.0420  177.8020  137.4340 O   0  0  0  0  0  0  0  0  0  0  0  0
  185.1340  179.0500  139.4660 C   0  0  0  0  0  2  0  0  0  0  0  0
  184.0450  178.3800  140.2460 C   0  0  0  0  0  0  0  0  0  0  0  0
  184.3350  177.6910  141.2620 O   0  0  0  0  0  0  0  0  0  0  0  0
  182.2990  179.6290  139.2260 O   0  0  0  0  0  0  0  0  0  0  0  0
  182.6300  178.6070  139.8890 C   0  0  0  0  0  0  0  0  0  0  0  0
  181.5770  177.6200  140.3070 C   0  0  2  0  0  3  0  0  0  0  0  0
  181.4100  176.5170  139.3120 C   0  0  0  0  0  0  0  0  0  0  0  0
  181.2160  174.4270  137.4450 C   0  0  0  0  0  0  0  0  0  0  0  0
  180.5730  174.3270  138.6880 C   0  0  0  0  0  3  0  0  0  0  0  0
  182.0420  176.6240  138.0680 C   0  0  0  0  0  3  0  0  0  0  0  0
  180.6710  175.3660  139.6180 C   0  0  0  0  0  3  0  0  0  0  0  0
  181.9500  175.5840  137.1390 C   0  0  0  0  0  3  0  0  0  0  0  0
  181.1370  173.2810  136.4770 C   0  0  1  0  0  0  0  0  0  0  0  0
  181.4460  171.9400  136.9750 C   0  0  2  0  0  3  0  0  0  0  0  0
  181.4180  170.8860  135.8890 C   0  0  0  0  0  2  0  0  0  0  0  0
  180.0340  172.3300  136.7290 N   0  0  2  0  0  0  0  0  0  0  0  0
  179.9850  171.3160  135.6790 C   0  0  0  0  0  2  0  0  0  0  0  0
  181.3830  173.5530  135.1200 O   0  0  0  0  0  1  0  0  0  0  0  0
  180.3520  178.2570  140.5420 O   0  0  0  0  0  0  0  0  0  0  0  0
  179.9890  177.8560  141.7440 O   0  0  0  0  0  0  0  0  0  0  0  0
  180.7050  178.6750  142.6230 C   0  0  0  0  0  1  0  0  0  0  0  0
  1 42  1  1  0  0  0
  1 25  1  0  0  0  0
  2  1  1  0  0  0  0
  3  2  2  0  0  0  0
  4  2  1  0  0  0  0
  5  4  1  0  0  0  0
  6  5  1  0  0  0  0
  7 16  2  0  0  0  0
  7 12  1  0  0  0  0
  8 10  2  0  0  0  0
  9 11  1  0  0  0  0
 10 24  1  0  0  0  0
 11 13  1  0  0  0  0
 12 17  2  0  0  0  0
 13  6  1  6  0  0  0
 13 12  1  0  0  0  0
 14 15  1  0  0  0  0
 15 16  1  0  0  0  0
 16  8  1  0  0  0  0
 17 10  1  0  0  0  0
 18 14  1  0  0  0  0
 19 20  2  0  0  0  0
 19  9  1  0  0  0  0
 20 18  2  0  0  0  0
 23 24  1  0  0  0  0
 24 21  1  0  0  0  0
 24 22  1  0  0  0  0
 25 26  1  1  0  0  0
 25 27  1  0  0  0  0
 27 28  1  0  0  0  0
 28 29  1  0  0  0  0
 29 40  1  1  0  0  0
 30 29  1  6  0  0  0
 30 37  1  0  0  0  0
 31 39  1  1  0  0  0
 34 36  1  0  0  0  0
 34 38  1  0  0  0  0
 35 31  1  0  0  0  0
 36 30  1  0  0  0  0
 37 33  1  1  0  0  0
 37 31  1  0  0  0  0
 38 32  2  0  0  0  0
 38 35  1  0  0  0  0
 41 40  1  0  0  0  0
 43 42  1  0  0  0  0
 44 43  1  0  0  0  0
 44 46  1  0  0  0  0
 45 44  2  0  0  0  0
 46 47  1  0  0  0  0
 47 48  2  0  0  0  0
 49 50  2  0  0  0  0
 50 47  1  0  0  0  0
 51 50  1  6  0  0  0
 51 64  1  0  0  0  0
 52 56  1  0  0  0  0
 52 51  1  0  0  0  0
 53 54  1  0  0  0  0
 54 56  2  0  0  0  0
 55 52  2  0  0  0  0
 57 53  2  0  0  0  0
 57 55  1  0  0  0  0
 58 63  1  6  0  0  0
 58 61  1  0  0  0  0
 58 59  1  0  0  0  0
 58 53  1  0  0  0  0
 59 60  1  6  0  0  0
 61 62  1  6  0  0  0
 61 59  1  0  0  0  0
 62 60  1  0  0  0  0
 64 65  1  0  0  0  0
 65 66  1  0  0  0  0
M  END
>  <MODEL>
8

>  <REMARK>
 VINA RESULT:      -6.3      2.747      7.355
  Name = 
  22 active torsions:
  status: ('A' for Active; 'I' for Inactive)
    1  A    between atoms: C_1  and  C_34
    2  A    between atoms: N_3  and  C_36
    3  A    between atoms: C_4  and  C_6
    4  A    between atoms: O_5  and  C_34
    5  A    between atoms: O_5  and  O_41
    6  A    between atoms: C_9  and  C_26
    7  A    between atoms: C_9  and  N_60
    8  A    between atoms: CA_10  and  C_14
    9  A    between atoms: CA_10  and  C_15
   10  A    between atoms: CA_10  and  N_64
   11  A    between atoms: C_11  and  C_25
   12  A    between atoms: C_11  and  N_64
   13  A    between atoms: C_13  and  C_58
   14  A    between atoms: C_17  and  C_30
   15  A    between atoms: C_17  and  C_53
   16  A    between atoms: C_21  and  C_24
   17  A    between atoms: C_21  and  C_34
   18  A    between atoms: C_24  and  C_47
   19  A    between atoms: C_25  and  C_30
   20  A    between atoms: C_30  and  C_36
   21  A    between atoms: C_31  and  C_47
   22  A    between atoms: C_53  and  N_60
                            x       y       z     vdW  Elec       q    Type
                         _______ _______ _______ _____ _____    ______ ____

>  <TORSDO>
F 22

$$$$
=
 OpenBabel10232412063D

 66 71  0  0  1  0  0  0  0  0999 V2000
  189.4480  177.3710  138.8760 C   0  0  1  0  0  3  0  0  0  0  0  0
  188.1950  178.0470  138.3830 C   0  0  0  0  0  0  0  0  0  0  0  0
  188.2140  179.2100  138.0150 O   0  0  0  0  0  0  0  0  0  0  0  0
  186.8940  177.3070  138.3990 C   0  0  0  0  0  2  0  0  0  0  0  0
  185.9370  177.9830  137.5360 N   0  0  0  0  0  2  0  0  0  0  0  0
  185.2400  176.9650  136.7550 C   0  0  0  0  0  2  0  0  0  0  0  0
  182.6130  178.4860  137.1800 N   0  0  0  0  0  0  0  0  0  0  0  0
  181.4130  179.5290  138.9500 C   0  0  0  0  0  3  0  0  0  0  0  0
  182.7290  175.8950  135.3420 C   0  0  0  0  0  2  0  0  0  0  0  0
  182.0180  178.6610  139.8700 C   0  0  0  0  0  0  0  0  0  0  0  0
  183.1880  175.4340  136.7260 C   0  0  0  0  0  2  0  0  0  0  0  0
  183.1630  177.5860  138.0350 C   0  0  0  0  0  0  0  0  0  0  0  0
  184.0060  176.4680  137.5130 C   0  0  2  0  0  3  0  0  0  0  0  0
  181.0840  180.1640  135.2420 N   0  0  0  0  0  2  0  0  0  0  0  0
  181.0850  180.2930  136.6490 N   0  0  0  0  0  2  0  0  0  0  0  0
  181.7120  179.4130  137.5870 C   0  0  0  0  0  0  0  0  0  0  0  0
  182.8820  177.6630  139.4010 C   0  0  0  0  0  3  0  0  0  0  0  0
  181.1320  178.9620  134.4520 C   0  0  0  0  0  3  0  0  0  0  0  0
  181.3840  176.5370  135.3890 C   0  0  0  0  0  3  0  0  0  0  0  0
  181.2340  177.7510  134.9330 C   0  0  0  0  0  0  0  0  0  0  0  0
  181.2670  177.5430  141.8280 F   0  0  0  0  0  0  0  0  0  0  0  0
  182.8730  179.1030  142.0210 F   0  0  0  0  0  0  0  0  0  0  0  0
  180.7510  179.7190  141.5610 F   0  0  0  0  0  0  0  0  0  0  0  0
  181.7230  178.7540  141.3390 C   0  0  0  0  0  0  0  0  0  0  0  0
  189.4420  177.0850  140.3840 C   0  0  1  0  0  3  0  0  0  0  0  0
  190.7450  177.4700  141.0610 C   0  0  0  0  0  1  0  0  0  0  0  0
  188.2570  177.7520  141.0720 C   0  0  0  0  0  2  0  0  0  0  0  0
  188.6810  178.3550  142.3310 N   0  0  0  0  0  2  0  0  0  0  0  0
  188.0750  177.6000  143.4210 C   0  0  1  0  0  3  0  0  0  0  0  0
  188.6550  178.0240  144.7800 C   0  0  2  0  0  3  0  0  0  0  0  0
  188.7540  177.5860  147.3130 C   0  0  1  0  0  3  0  0  0  0  0  0
  192.0880  176.9710  147.1250 O   0  0  0  0  0  0  0  0  0  0  0  0
  186.6730  177.7480  146.1110 O   0  0  0  0  0  1  0  0  0  0  0  0
  190.8390  176.7450  145.1480 C   0  0  0  0  0  2  0  0  0  0  0  0
  189.8170  176.5130  147.5220 C   0  0  0  0  0  2  0  0  0  0  0  0
  190.1910  178.0580  144.7350 C   0  0  0  0  0  2  0  0  0  0  0  0
  188.0030  177.3290  145.9990 C   0  0  1  0  0  3  0  0  0  0  0  0
  190.9980  176.7330  146.6340 C   0  0  0  0  0  0  0  0  0  0  0  0
  187.8740  177.5490  148.3970 O   0  0  0  0  0  1  0  0  0  0  0  0
  186.5500  177.6650  143.3570 C   0  0  0  0  0  2  0  0  0  0  0  0
  186.1130  178.9590  143.0720 O   0  0  0  0  0  1  0  0  0  0  0  0
  189.9640  176.2200  138.0010 C   0  0  0  0  0  2  0  0  0  0  0  0
  190.2090  176.6640  136.6370 N   0  0  0  0  0  2  0  0  0  0  0  0
  190.6540  175.7810  135.6100 C   0  0  0  0  0  0  0  0  0  0  0  0
  190.9020  176.2430  134.4630 O   0  0  0  0  0  0  0  0  0  0  0  0
  190.7990  174.3100  135.8580 C   0  0  0  0  0  2  0  0  0  0  0  0
  192.2350  173.8900  135.8160 C   0  0  0  0  0  0  0  0  0  0  0  0
  192.5790  172.9010  135.1120 O   0  0  0  0  0  0  0  0  0  0  0  0
  193.0290  175.1540  137.6660 O   0  0  0  0  0  0  0  0  0  0  0  0
  193.2620  174.6880  136.5160 C   0  0  0  0  0  0  0  0  0  0  0  0
  194.5920  174.9470  135.8660 C   0  0  2  0  0  3  0  0  0  0  0  0
  195.5300  173.7930  136.0200 C   0  0  0  0  0  0  0  0  0  0  0  0
  197.1970  171.5490  136.2980 C   0  0  0  0  0  0  0  0  0  0  0  0
  197.3780  172.4370  135.2270 C   0  0  0  0  0  3  0  0  0  0  0  0
  195.3550  172.9150  137.0960 C   0  0  0  0  0  3  0  0  0  0  0  0
  196.5480  173.5530  135.0870 C   0  0  0  0  0  3  0  0  0  0  0  0
  196.1800  171.7960  137.2340 C   0  0  0  0  0  3  0  0  0  0  0  0
  198.0700  170.3320  136.4060 C   0  0  1  0  0  0  0  0  0  0  0  0
  198.0600  169.5900  137.6670 C   0  0  2  0  0  3  0  0  0  0  0  0
  199.0430  168.4400  137.6840 C   0  0  0  0  0  2  0  0  0  0  0  0
  197.3400  169.0500  136.4860 N   0  0  2  0  0  0  0  0  0  0  0  0
  198.2770  167.9280  136.4850 C   0  0  0  0  0  2  0  0  0  0  0  0
  199.2420  170.2960  135.6300 O   0  0  0  0  0  1  0  0  0  0  0  0
  195.1750  176.1210  136.3590 O   0  0  0  0  0  0  0  0  0  0  0  0
  194.6240  177.0920  135.6580 O   0  0  0  0  0  0  0  0  0  0  0  0
  195.4660  177.2540  134.5530 C   0  0  0  0  0  1  0  0  0  0  0  0
  1 42  1  6  0  0  0
  1 25  1  0  0  0  0
  2  4  1  0  0  0  0
  2  1  1  0  0  0  0
  3  2  2  0  0  0  0
  5  4  1  0  0  0  0
  6  5  1  0  0  0  0
  7 16  2  0  0  0  0
  7 12  1  0  0  0  0
  8 10  2  0  0  0  0
  9 19  1  0  0  0  0
  9 11  1  0  0  0  0
 10 24  1  0  0  0  0
 11 13  1  0  0  0  0
 12 17  2  0  0  0  0
 13  6  1  6  0  0  0
 13 12  1  0  0  0  0
 14 15  1  0  0  0  0
 15 16  1  0  0  0  0
 16  8  1  0  0  0  0
 17 10  1  0  0  0  0
 18 20  2  0  0  0  0
 18 14  1  0  0  0  0
 20 19  2  0  0  0  0
 24 23  1  0  0  0  0
 24 21  1  0  0  0  0
 24 22  1  0  0  0  0
 25 26  1  1  0  0  0
 25 27  1  0  0  0  0
 27 28  1  0  0  0  0
 28 29  1  0  0  0  0
 29 40  1  1  0  0  0
 30 29  1  6  0  0  0
 30 37  1  0  0  0  0
 31 35  1  0  0  0  0
 31 39  1  1  0  0  0
 34 38  1  0  0  0  0
 36 30  1  0  0  0  0
 36 34  1  0  0  0  0
 37 33  1  1  0  0  0
 37 31  1  0  0  0  0
 38 32  2  0  0  0  0
 38 35  1  0  0  0  0
 41 40  1  0  0  0  0
 43 42  1  0  0  0  0
 44 46  1  0  0  0  0
 44 43  1  0  0  0  0
 45 44  2  0  0  0  0
 47 46  1  0  0  0  0
 47 50  1  0  0  0  0
 48 47  2  0  0  0  0
 50 49  2  0  0  0  0
 51 52  1  0  0  0  0
 51 64  1  1  0  0  0
 51 50  1  0  0  0  0
 52 55  1  0  0  0  0
 53 58  1  0  0  0  0
 53 57  1  0  0  0  0
 54 53  2  0  0  0  0
 55 57  2  0  0  0  0
 56 54  1  0  0  0  0
 56 52  2  0  0  0  0
 58 63  1  6  0  0  0
 58 61  1  0  0  0  0
 58 59  1  0  0  0  0
 59 60  1  6  0  0  0
 61 62  1  6  0  0  0
 61 59  1  0  0  0  0
 62 60  1  0  0  0  0
 65 64  1  0  0  0  0
 66 65  1  0  0  0  0
M  END
>  <MODEL>
9

>  <REMARK>
 VINA RESULT:      -6.2      4.787     12.863
  Name = 
  22 active torsions:
  status: ('A' for Active; 'I' for Inactive)
    1  A    between atoms: C_1  and  C_34
    2  A    between atoms: N_3  and  C_36
    3  A    between atoms: C_4  and  C_6
    4  A    between atoms: O_5  and  C_34
    5  A    between atoms: O_5  and  O_41
    6  A    between atoms: C_9  and  C_26
    7  A    between atoms: C_9  and  N_60
    8  A    between atoms: CA_10  and  C_14
    9  A    between atoms: CA_10  and  C_15
   10  A    between atoms: CA_10  and  N_64
   11  A    between atoms: C_11  and  C_25
   12  A    between atoms: C_11  and  N_64
   13  A    between atoms: C_13  and  C_58
   14  A    between atoms: C_17  and  C_30
   15  A    between atoms: C_17  and  C_53
   16  A    between atoms: C_21  and  C_24
   17  A    between atoms: C_21  and  C_34
   18  A    between atoms: C_24  and  C_47
   19  A    between atoms: C_25  and  C_30
   20  A    between atoms: C_30  and  C_36
   21  A    between atoms: C_31  and  C_47
   22  A    between atoms: C_53  and  N_60
                            x       y       z     vdW  Elec       q    Type
                         _______ _______ _______ _____ _____    ______ ____

>  <TORSDO>
F 22

$$$$
