=
 OpenBabel10232410583D

 42 44  0  0  1  0  0  0  0  0999 V2000
  188.6530  177.8900  145.7110 C   0  0  2  0  0  3  0  0  0  0  0  0
  187.1730  178.1240  145.6360 C   0  0  0  0  0  0  0  0  0  0  0  0
  185.1240  178.3950  144.3510 C   0  0  0  0  0  0  0  0  0  0  0  0
  184.4140  178.5950  145.5470 C   0  0  0  0  0  3  0  0  0  0  0  0
  186.5020  178.1620  144.4040 C   0  0  0  0  0  3  0  0  0  0  0  0
  185.0790  178.5620  146.7760 C   0  0  0  0  0  3  0  0  0  0  0  0
  186.4560  178.3280  146.8190 C   0  0  0  0  0  3  0  0  0  0  0  0
  184.4910  178.4250  143.1040 O   0  0  0  0  0  0  0  0  0  0  0  0
  182.0010  179.0220  142.8190 C   0  0  0  0  0  0  0  0  0  0  0  0
  183.1660  178.7420  142.9520 C   0  0  0  0  0  0  0  0  0  0  0  0
  180.2970  179.4310  142.6280 S   0  0  0  0  0  0  0  0  0  0  0  0
  180.4700  179.5760  140.8270 C   0  0  0  0  0  2  0  0  0  0  0  0
  180.8240  178.2490  140.2400 C   0  0  0  0  0  0  0  0  0  0  0  0
  179.9920  177.3070  140.3170 O   0  0  0  0  0  0  0  0  0  0  0  0
  182.0480  178.0260  139.5950 O   0  0  0  0  0  0  0  0  0  0  0  0
  181.5230  179.2650  137.7000 O   0  0  0  0  0  1  0  0  0  0  0  0
  182.5610  178.8220  138.5250 C   0  0  1  0  0  3  0  0  0  0  0  0
  183.3880  179.9630  139.0370 C   0  0  0  0  0  0  0  0  0  0  0  0
  184.5330  179.7040  139.7790 O   0  0  0  0  0  1  0  0  0  0  0  0
  183.0660  181.1550  138.7880 O   0  0  0  0  0  0  0  0  0  0  0  0
  191.3980  177.4640  142.3980 C   0  0  2  0  0  3  0  0  0  0  0  0
  190.1040  176.6550  142.3310 C   0  0  0  0  0  2  0  0  0  0  0  0
  191.1180  178.8110  143.0600 C   0  0  0  0  0  2  0  0  0  0  0  0
  190.6070  178.6080  144.4130 N   0  0  0  0  0  2  0  0  0  0  0  0
  189.4870  176.5320  143.7200 C   0  0  0  0  0  2  0  0  0  0  0  0
  189.3140  177.9290  144.3300 C   0  0  1  0  0  3  0  0  0  0  0  0
  191.9180  177.6810  141.0600 N   0  0  0  0  0  2  0  0  0  0  0  0
  190.8430  176.7270  139.1860 C   0  0  0  0  0  0  0  0  0  0  0  0
  191.8070  176.6730  140.0610 C   0  0  0  0  0  3  0  0  0  0  0  0
  189.8780  176.7830  138.3120 C   0  0  0  0  0  3  0  0  0  0  0  0
  189.0700  178.0260  138.1740 C   0  0  0  0  0  2  0  0  0  0  0  0
  186.8670  178.0090  135.3800 C   0  0  0  0  0  2  0  0  0  0  0  0
  187.1060  176.5370  135.6060 C   0  0  0  0  0  2  0  0  0  0  0  0
  187.7810  177.7130  137.5800 N   0  0  0  0  0  0  0  0  0  0  0  0
  187.9390  176.4550  136.8660 C   0  0  0  0  0  2  0  0  0  0  0  0
  187.5250  178.7090  136.5500 C   0  0  0  0  0  2  0  0  0  0  0  0
  189.0160  176.6360  146.5110 C   0  0  0  0  0  2  0  0  0  0  0  0
  191.7850  175.9950  146.2720 O   0  0  0  0  0  0  0  0  0  0  0  0
  191.4150  176.5960  147.3190 C   0  0  0  0  0  0  0  0  0  0  0  0
  190.0400  176.9380  147.5030 N   0  0  0  0  0  2  0  0  0  0  0  0
  193.1300  175.9430  148.9560 C   0  0  0  0  0  1  0  0  0  0  0  0
  192.3380  176.9280  148.3090 O   0  0  0  0  0  0  0  0  0  0  0  0
  1 37  1  6  0  0  0
  2  1  1  0  0  0  0
  2  7  1  0  0  0  0
  3  5  1  0  0  0  0
  3  4  2  0  0  0  0
  4  6  1  0  0  0  0
  5  2  2  0  0  0  0
  6  7  2  0  0  0  0
  8  3  1  0  0  0  0
  9 10  3  0  0  0  0
 10  8  1  0  0  0  0
 11  9  1  0  0  0  0
 12 11  1  0  0  0  0
 13 14  2  0  0  0  0
 13 12  1  0  0  0  0
 15 13  1  0  0  0  0
 17 16  1  1  0  0  0
 17 18  1  0  0  0  0
 17 15  1  0  0  0  0
 18 19  1  0  0  0  0
 20 18  2  0  0  0  0
 21 27  1  6  0  0  0
 21 23  1  0  0  0  0
 22 21  1  0  0  0  0
 22 25  1  0  0  0  0
 23 24  1  0  0  0  0
 25 26  1  0  0  0  0
 26 24  1  0  0  0  0
 26  1  1  1  0  0  0
 28 29  2  0  0  0  0
 29 27  1  0  0  0  0
 30 28  2  0  0  0  0
 31 30  1  0  0  0  0
 32 33  1  0  0  0  0
 32 36  1  0  0  0  0
 33 35  1  0  0  0  0
 34 31  1  0  0  0  0
 35 34  1  0  0  0  0
 36 34  1  0  0  0  0
 37 40  1  0  0  0  0
 38 39  2  0  0  0  0
 39 40  1  0  0  0  0
 39 42  1  0  0  0  0
 42 41  1  0  0  0  0
M  END
>  <MODEL>
1

>  <REMARK>
 VINA RESULT:      -7.4      0.000      0.000
  Name = 
  17 active torsions:
  status: ('A' for Active; 'I' for Inactive)
    1  A    between atoms: C_4  and  S_42
    2  A    between atoms: O_5  and  C_12
    3  A    between atoms: O_5  and  C_14
    4  A    between atoms: C_6  and  C_8
    5  A    between atoms: C_8  and  C_35
    6  A    between atoms: C_8  and  C_40
    7  A    between atoms: C_9  and  N_16
    8  A    between atoms: N_10  and  C_11
    9  A    between atoms: C_11  and  C_38
   10  A    between atoms: C_13  and  C_32
   11  A    between atoms: C_13  and  O_37
   12  A    between atoms: N_16  and  C_31
   13  A    between atoms: C_18  and  C_26
   14  A    between atoms: C_26  and  O_37
   15  A    between atoms: C_29  and  O_34
   16  A    between atoms: C_32  and  S_42
   17  A    between atoms: C_35  and  N_41
                            x       y       z     vdW  Elec       q    Type
                         _______ _______ _______ _____ _____    ______ ____

>  <TORSDO>
F 17

$$$$
=
 OpenBabel10232410583D

 42 44  0  0  1  0  0  0  0  0999 V2000
  188.6120  177.8990  145.6760 C   0  0  2  0  0  3  0  0  0  0  0  0
  187.1410  178.1930  145.6350 C   0  0  0  0  0  0  0  0  0  0  0  0
  185.1680  179.0210  144.4770 C   0  0  0  0  0  0  0  0  0  0  0  0
  184.3980  178.7530  145.6200 C   0  0  0  0  0  3  0  0  0  0  0  0
  186.5380  178.7400  144.4930 C   0  0  0  0  0  3  0  0  0  0  0  0
  184.9950  178.2110  146.7620 C   0  0  0  0  0  3  0  0  0  0  0  0
  186.3640  177.9330  146.7690 C   0  0  0  0  0  3  0  0  0  0  0  0
  184.6040  179.5660  143.3190 O   0  0  0  0  0  0  0  0  0  0  0  0
  183.7010  178.1150  141.3910 C   0  0  0  0  0  0  0  0  0  0  0  0
  184.1240  178.7940  142.2930 C   0  0  0  0  0  0  0  0  0  0  0  0
  183.0810  177.1200  140.0740 S   0  0  0  0  0  0  0  0  0  0  0  0
  183.4070  178.4230  138.8530 C   0  0  0  0  0  2  0  0  0  0  0  0
  184.5420  178.0200  137.9690 C   0  0  0  0  0  0  0  0  0  0  0  0
  184.4790  176.9200  137.3600 O   0  0  0  0  0  0  0  0  0  0  0  0
  185.6660  178.8360  137.7850 O   0  0  0  0  0  0  0  0  0  0  0  0
  187.7200  179.4550  136.8920 O   0  0  0  0  0  1  0  0  0  0  0  0
  186.9370  178.3790  137.3190 C   0  0  1  0  0  3  0  0  0  0  0  0
  187.6420  177.5580  138.3580 C   0  0  0  0  0  0  0  0  0  0  0  0
  188.1360  176.3040  138.0250 O   0  0  0  0  0  0  0  0  0  0  0  0
  187.8040  178.0000  139.5260 O   0  0  0  0  0  1  0  0  0  0  0  0
  191.2370  177.2790  142.2970 C   0  0  2  0  0  3  0  0  0  0  0  0
  189.8970  176.5470  142.2740 C   0  0  0  0  0  2  0  0  0  0  0  0
  191.0530  178.6470  142.9500 C   0  0  0  0  0  2  0  0  0  0  0  0
  190.5690  178.4880  144.3190 N   0  0  0  0  0  2  0  0  0  0  0  0
  189.3110  176.4730  143.6800 C   0  0  0  0  0  2  0  0  0  0  0  0
  189.2360  177.8850  144.2780 C   0  0  1  0  0  3  0  0  0  0  0  0
  191.7330  177.4520  140.9430 N   0  0  0  0  0  2  0  0  0  0  0  0
  191.6350  176.4910  138.7880 C   0  0  0  0  0  0  0  0  0  0  0  0
  191.0010  176.9530  139.8290 C   0  0  0  0  0  3  0  0  0  0  0  0
  192.2700  176.0300  137.7480 C   0  0  0  0  0  3  0  0  0  0  0  0
  193.7320  175.7620  137.8280 C   0  0  0  0  0  2  0  0  0  0  0  0
  195.9520  173.4550  136.2760 C   0  0  0  0  0  2  0  0  0  0  0  0
  195.7970  172.8680  137.6570 C   0  0  0  0  0  2  0  0  0  0  0  0
  194.0200  174.4350  137.3100 N   0  0  0  0  0  0  0  0  0  0  0  0
  194.7600  173.7290  138.3440 C   0  0  0  0  0  2  0  0  0  0  0  0
  194.9570  174.5940  136.2070 C   0  0  0  0  0  2  0  0  0  0  0  0
  188.9450  176.6460  146.4900 C   0  0  0  0  0  2  0  0  0  0  0  0
  191.7190  176.0810  146.1480 O   0  0  0  0  0  0  0  0  0  0  0  0
  191.3650  176.6270  147.2300 C   0  0  0  0  0  0  0  0  0  0  0  0
  189.9890  176.9280  147.4670 N   0  0  0  0  0  2  0  0  0  0  0  0
  193.0840  175.9360  148.8470 C   0  0  0  0  0  1  0  0  0  0  0  0
  192.3080  176.9390  148.2090 O   0  0  0  0  0  0  0  0  0  0  0  0
  1 37  1  6  0  0  0
  2  1  1  0  0  0  0
  2  7  1  0  0  0  0
  3  5  1  0  0  0  0
  3  4  2  0  0  0  0
  4  6  1  0  0  0  0
  5  2  2  0  0  0  0
  6  7  2  0  0  0  0
  8  3  1  0  0  0  0
  9 10  3  0  0  0  0
 10  8  1  0  0  0  0
 11  9  1  0  0  0  0
 12 11  1  0  0  0  0
 13 12  1  0  0  0  0
 14 13  2  0  0  0  0
 15 13  1  0  0  0  0
 17 16  1  1  0  0  0
 17 15  1  0  0  0  0
 17 18  1  0  0  0  0
 18 20  1  0  0  0  0
 19 18  2  0  0  0  0
 21 27  1  6  0  0  0
 21 23  1  0  0  0  0
 22 21  1  0  0  0  0
 22 25  1  0  0  0  0
 23 24  1  0  0  0  0
 25 26  1  0  0  0  0
 26 24  1  0  0  0  0
 26  1  1  1  0  0  0
 28 29  2  0  0  0  0
 29 27  1  0  0  0  0
 30 31  1  0  0  0  0
 30 28  2  0  0  0  0
 32 33  1  0  0  0  0
 33 35  1  0  0  0  0
 34 31  1  0  0  0  0
 34 35  1  0  0  0  0
 36 32  1  0  0  0  0
 36 34  1  0  0  0  0
 37 40  1  0  0  0  0
 38 39  2  0  0  0  0
 39 40  1  0  0  0  0
 39 42  1  0  0  0  0
 42 41  1  0  0  0  0
M  END
>  <MODEL>
2

>  <REMARK>
 VINA RESULT:      -7.4      2.610      3.976
  Name = 
  17 active torsions:
  status: ('A' for Active; 'I' for Inactive)
    1  A    between atoms: C_4  and  S_42
    2  A    between atoms: O_5  and  C_12
    3  A    between atoms: O_5  and  C_14
    4  A    between atoms: C_6  and  C_8
    5  A    between atoms: C_8  and  C_35
    6  A    between atoms: C_8  and  C_40
    7  A    between atoms: C_9  and  N_16
    8  A    between atoms: N_10  and  C_11
    9  A    between atoms: C_11  and  C_38
   10  A    between atoms: C_13  and  C_32
   11  A    between atoms: C_13  and  O_37
   12  A    between atoms: N_16  and  C_31
   13  A    between atoms: C_18  and  C_26
   14  A    between atoms: C_26  and  O_37
   15  A    between atoms: C_29  and  O_34
   16  A    between atoms: C_32  and  S_42
   17  A    between atoms: C_35  and  N_41
                            x       y       z     vdW  Elec       q    Type
                         _______ _______ _______ _____ _____    ______ ____

>  <TORSDO>
F 17

$$$$
=
 OpenBabel10232410583D

 42 44  0  0  1  0  0  0  0  0999 V2000
  190.7600  176.5700  139.6380 C   0  0  2  0  0  3  0  0  0  0  0  0
  189.7060  177.0670  138.6920 C   0  0  0  0  0  0  0  0  0  0  0  0
  187.8580  176.6610  137.1620 C   0  0  0  0  0  0  0  0  0  0  0  0
  187.7780  178.0410  136.9100 C   0  0  0  0  0  3  0  0  0  0  0  0
  188.8250  176.1820  138.0520 C   0  0  0  0  0  3  0  0  0  0  0  0
  188.6570  178.9250  137.5410 C   0  0  0  0  0  3  0  0  0  0  0  0
  189.6190  178.4380  138.4290 C   0  0  0  0  0  3  0  0  0  0  0  0
  186.9970  175.7470  136.5440 O   0  0  0  0  0  0  0  0  0  0  0  0
  184.5630  175.3890  137.3100 C   0  0  0  0  0  0  0  0  0  0  0  0
  185.7030  175.5560  136.9520 C   0  0  0  0  0  0  0  0  0  0  0  0
  182.8990  175.1460  137.8360 S   0  0  0  0  0  0  0  0  0  0  0  0
  182.6270  176.9330  138.0080 C   0  0  0  0  0  2  0  0  0  0  0  0
  182.0230  177.2310  139.3410 C   0  0  0  0  0  0  0  0  0  0  0  0
  181.2750  176.3720  139.8780 O   0  0  0  0  0  0  0  0  0  0  0  0
  182.2760  178.4320  140.0190 O   0  0  0  0  0  0  0  0  0  0  0  0
  183.9780  177.6330  141.3850 O   0  0  0  0  0  1  0  0  0  0  0  0
  183.4980  178.7470  140.6890 C   0  0  1  0  0  3  0  0  0  0  0  0
  184.5230  179.2900  139.7380 C   0  0  0  0  0  0  0  0  0  0  0  0
  184.2460  180.4440  139.0160 O   0  0  0  0  0  0  0  0  0  0  0  0
  185.6370  178.7220  139.5980 O   0  0  0  0  0  1  0  0  0  0  0  0
  190.8350  177.0890  143.9300 C   0  0  2  0  0  3  0  0  0  0  0  0
  191.5130  178.1720  143.0910 C   0  0  0  0  0  2  0  0  0  0  0  0
  189.6020  176.5760  143.1890 C   0  0  0  0  0  2  0  0  0  0  0  0
  189.9910  176.0110  141.9000 N   0  0  0  0  0  2  0  0  0  0  0  0
  191.8220  177.6410  141.6950 C   0  0  0  0  0  2  0  0  0  0  0  0
  190.5400  177.0810  141.0650 C   0  0  1  0  0  3  0  0  0  0  0  0
  190.4360  177.6350  145.2150 N   0  0  0  0  0  2  0  0  0  0  0  0
  189.1620  177.0470  147.1150 C   0  0  0  0  0  0  0  0  0  0  0  0
  190.1550  176.7770  146.3160 C   0  0  0  0  0  3  0  0  0  0  0  0
  188.1690  177.3190  147.9140 C   0  0  0  0  0  3  0  0  0  0  0  0
  187.1640  178.3470  147.5270 C   0  0  0  0  0  2  0  0  0  0  0  0
  184.2940  178.6640  145.4490 C   0  0  0  0  0  2  0  0  0  0  0  0
  185.3940  178.4480  144.4410 C   0  0  0  0  0  2  0  0  0  0  0  0
  186.2110  177.7770  146.5900 N   0  0  0  0  0  0  0  0  0  0  0  0
  186.6380  178.1760  145.2580 C   0  0  0  0  0  2  0  0  0  0  0  0
  184.9380  178.4520  146.8020 C   0  0  0  0  0  2  0  0  0  0  0  0
  192.1810  176.8200  139.1280 C   0  0  0  0  0  2  0  0  0  0  0  0
  194.6120  175.4670  138.5020 O   0  0  0  0  0  0  0  0  0  0  0  0
  193.6730  175.3950  137.6610 C   0  0  0  0  0  0  0  0  0  0  0  0
  192.4320  176.0580  137.9110 N   0  0  0  0  0  2  0  0  0  0  0  0
  195.1030  174.1980  136.0590 C   0  0  0  0  0  1  0  0  0  0  0  0
  193.8340  174.6750  136.4780 O   0  0  0  0  0  0  0  0  0  0  0  0
  1 37  1  6  0  0  0
  2  1  1  0  0  0  0
  3  5  1  0  0  0  0
  4  3  2  0  0  0  0
  4  6  1  0  0  0  0
  5  2  2  0  0  0  0
  6  7  2  0  0  0  0
  7  2  1  0  0  0  0
  8 10  1  0  0  0  0
  8  3  1  0  0  0  0
  9 11  1  0  0  0  0
 10  9  3  0  0  0  0
 11 12  1  0  0  0  0
 12 13  1  0  0  0  0
 13 14  2  0  0  0  0
 13 15  1  0  0  0  0
 15 17  1  0  0  0  0
 17 16  1  6  0  0  0
 18 17  1  0  0  0  0
 19 18  2  0  0  0  0
 20 18  1  0  0  0  0
 21 27  1  1  0  0  0
 22 21  1  0  0  0  0
 23 21  1  0  0  0  0
 24 23  1  0  0  0  0
 25 22  1  0  0  0  0
 26  1  1  6  0  0  0
 26 25  1  0  0  0  0
 26 24  1  0  0  0  0
 27 29  1  0  0  0  0
 28 30  2  0  0  0  0
 29 28  2  0  0  0  0
 31 30  1  0  0  0  0
 32 36  1  0  0  0  0
 33 35  1  0  0  0  0
 33 32  1  0  0  0  0
 34 36  1  0  0  0  0
 34 31  1  0  0  0  0
 35 34  1  0  0  0  0
 39 40  1  0  0  0  0
 39 38  2  0  0  0  0
 40 37  1  0  0  0  0
 41 42  1  0  0  0  0
 42 39  1  0  0  0  0
M  END
>  <MODEL>
3

>  <REMARK>
 VINA RESULT:      -7.3      3.047      7.295
  Name = 
  17 active torsions:
  status: ('A' for Active; 'I' for Inactive)
    1  A    between atoms: C_4  and  S_42
    2  A    between atoms: O_5  and  C_12
    3  A    between atoms: O_5  and  C_14
    4  A    between atoms: C_6  and  C_8
    5  A    between atoms: C_8  and  C_35
    6  A    between atoms: C_8  and  C_40
    7  A    between atoms: C_9  and  N_16
    8  A    between atoms: N_10  and  C_11
    9  A    between atoms: C_11  and  C_38
   10  A    between atoms: C_13  and  C_32
   11  A    between atoms: C_13  and  O_37
   12  A    between atoms: N_16  and  C_31
   13  A    between atoms: C_18  and  C_26
   14  A    between atoms: C_26  and  O_37
   15  A    between atoms: C_29  and  O_34
   16  A    between atoms: C_32  and  S_42
   17  A    between atoms: C_35  and  N_41
                            x       y       z     vdW  Elec       q    Type
                         _______ _______ _______ _____ _____    ______ ____

>  <TORSDO>
F 17

$$$$
=
 OpenBabel10232410583D

 42 44  0  0  1  0  0  0  0  0999 V2000
  189.8610  177.2180  138.5870 C   0  0  2  0  0  3  0  0  0  0  0  0
  189.7710  177.5670  140.0440 C   0  0  0  0  0  0  0  0  0  0  0  0
  190.7030  177.5730  142.2920 C   0  0  0  0  0  0  0  0  0  0  0  0
  189.5410  178.2120  142.7590 C   0  0  0  0  0  3  0  0  0  0  0  0
  190.8090  177.2540  140.9350 C   0  0  0  0  0  3  0  0  0  0  0  0
  188.5040  178.5220  141.8760 C   0  0  0  0  0  3  0  0  0  0  0  0
  188.6190  178.1990  140.5220 C   0  0  0  0  0  3  0  0  0  0  0  0
  191.7580  177.2450  143.1490 O   0  0  0  0  0  0  0  0  0  0  0  0
  191.4380  176.8750  145.6780 C   0  0  0  0  0  0  0  0  0  0  0  0
  191.5880  177.0470  144.4940 C   0  0  0  0  0  0  0  0  0  0  0  0
  191.2220  176.6240  147.4090 S   0  0  0  0  0  0  0  0  0  0  0  0
  189.4190  176.5070  147.2310 C   0  0  0  0  0  2  0  0  0  0  0  0
  188.7880  177.8210  147.5550 C   0  0  0  0  0  0  0  0  0  0  0  0
  189.0770  178.3840  148.6430 O   0  0  0  0  0  0  0  0  0  0  0  0
  187.8960  178.4530  146.6770 O   0  0  0  0  0  0  0  0  0  0  0  0
  185.7740  179.2950  147.1120 O   0  0  0  0  0  1  0  0  0  0  0  0
  186.4910  178.1990  146.6240 C   0  0  1  0  0  3  0  0  0  0  0  0
  186.0520  177.8230  145.2390 C   0  0  0  0  0  0  0  0  0  0  0  0
  186.8460  176.9790  144.4730 O   0  0  0  0  0  0  0  0  0  0  0  0
  184.9650  178.2500  144.7690 O   0  0  0  0  0  1  0  0  0  0  0  0
  186.6170  176.8100  135.7590 C   0  0  2  0  0  3  0  0  0  0  0  0
  186.8070  175.6720  136.7600 C   0  0  0  0  0  2  0  0  0  0  0  0
  186.9510  178.1380  136.4350 C   0  0  0  0  0  2  0  0  0  0  0  0
  188.3370  178.1310  136.8960 N   0  0  0  0  0  2  0  0  0  0  0  0
  188.2140  175.7160  137.3480 C   0  0  0  0  0  2  0  0  0  0  0  0
  188.4810  177.1090  137.9340 C   0  0  1  0  0  3  0  0  0  0  0  0
  185.2420  176.8360  135.2930 N   0  0  0  0  0  2  0  0  0  0  0  0
  183.4740  176.6900  136.8510 C   0  0  0  0  0  0  0  0  0  0  0  0
  184.2280  176.1000  135.9680 C   0  0  0  0  0  3  0  0  0  0  0  0
  182.7200  177.2820  137.7350 C   0  0  0  0  0  3  0  0  0  0  0  0
  182.7220  178.7670  137.8390 C   0  0  0  0  0  2  0  0  0  0  0  0
  183.6420  177.9410  141.1750 C   0  0  0  0  0  2  0  0  0  0  0  0
  184.8670  178.6660  140.6770 C   0  0  0  0  0  2  0  0  0  0  0  0
  183.0530  179.1670  139.1960 N   0  0  0  0  0  0  0  0  0  0  0  0
  184.5040  179.1640  139.2950 C   0  0  0  0  0  2  0  0  0  0  0  0
  182.6060  178.1010  140.0830 C   0  0  0  0  0  2  0  0  0  0  0  0
  190.7440  175.9950  138.3240 C   0  0  0  0  0  2  0  0  0  0  0  0
  193.5040  176.5110  138.8240 O   0  0  0  0  0  0  0  0  0  0  0  0
  193.1160  176.5340  137.6230 C   0  0  0  0  0  0  0  0  0  0  0  0
  191.7440  176.2920  137.3060 N   0  0  0  0  0  2  0  0  0  0  0  0
  194.7570  175.7670  135.9600 C   0  0  0  0  0  1  0  0  0  0  0  0
  194.0160  176.8000  136.5920 O   0  0  0  0  0  0  0  0  0  0  0  0
  1 37  1  1  0  0  0
  1  2  1  0  0  0  0
  2  7  2  0  0  0  0
  2  5  1  0  0  0  0
  3  4  1  0  0  0  0
  3  8  1  0  0  0  0
  5  3  2  0  0  0  0
  6  4  2  0  0  0  0
  7  6  1  0  0  0  0
  8 10  1  0  0  0  0
  9 11  1  0  0  0  0
 10  9  3  0  0  0  0
 12 11  1  0  0  0  0
 12 13  1  0  0  0  0
 13 14  2  0  0  0  0
 15 13  1  0  0  0  0
 17 15  1  0  0  0  0
 17 16  1  6  0  0  0
 18 17  1  0  0  0  0
 19 18  2  0  0  0  0
 20 18  1  0  0  0  0
 21 27  1  1  0  0  0
 21 23  1  0  0  0  0
 21 22  1  0  0  0  0
 22 25  1  0  0  0  0
 23 24  1  0  0  0  0
 24 26  1  0  0  0  0
 25 26  1  0  0  0  0
 26  1  1  6  0  0  0
 27 29  1  0  0  0  0
 28 30  2  0  0  0  0
 29 28  2  0  0  0  0
 30 31  1  0  0  0  0
 31 34  1  0  0  0  0
 33 32  1  0  0  0  0
 34 35  1  0  0  0  0
 34 36  1  0  0  0  0
 35 33  1  0  0  0  0
 36 32  1  0  0  0  0
 39 38  2  0  0  0  0
 40 39  1  0  0  0  0
 40 37  1  0  0  0  0
 41 42  1  0  0  0  0
 42 39  1  0  0  0  0
M  END
>  <MODEL>
4

>  <REMARK>
 VINA RESULT:      -7.3      3.936      8.308
  Name = 
  17 active torsions:
  status: ('A' for Active; 'I' for Inactive)
    1  A    between atoms: C_4  and  S_42
    2  A    between atoms: O_5  and  C_12
    3  A    between atoms: O_5  and  C_14
    4  A    between atoms: C_6  and  C_8
    5  A    between atoms: C_8  and  C_35
    6  A    between atoms: C_8  and  C_40
    7  A    between atoms: C_9  and  N_16
    8  A    between atoms: N_10  and  C_11
    9  A    between atoms: C_11  and  C_38
   10  A    between atoms: C_13  and  C_32
   11  A    between atoms: C_13  and  O_37
   12  A    between atoms: N_16  and  C_31
   13  A    between atoms: C_18  and  C_26
   14  A    between atoms: C_26  and  O_37
   15  A    between atoms: C_29  and  O_34
   16  A    between atoms: C_32  and  S_42
   17  A    between atoms: C_35  and  N_41
                            x       y       z     vdW  Elec       q    Type
                         _______ _______ _______ _____ _____    ______ ____

>  <TORSDO>
F 17

$$$$
=
 OpenBabel10232410583D

 42 44  0  0  1  0  0  0  0  0999 V2000
  183.2500  178.7330  140.1660 C   0  0  2  0  0  3  0  0  0  0  0  0
  183.5660  177.6780  139.1460 C   0  0  0  0  0  0  0  0  0  0  0  0
  184.6940  176.9520  137.1160 C   0  0  0  0  0  0  0  0  0  0  0  0
  184.0990  175.6860  137.2530 C   0  0  0  0  0  3  0  0  0  0  0  0
  184.4210  177.9420  138.0650 C   0  0  0  0  0  3  0  0  0  0  0  0
  183.2430  175.4210  138.3250 C   0  0  0  0  0  3  0  0  0  0  0  0
  182.9770  176.4160  139.2690 C   0  0  0  0  0  3  0  0  0  0  0  0
  185.5520  177.2530  136.0530 O   0  0  0  0  0  0  0  0  0  0  0  0
  187.7520  175.9800  135.6340 C   0  0  0  0  0  0  0  0  0  0  0  0
  186.7220  176.5760  135.8310 C   0  0  0  0  0  0  0  0  0  0  0  0
  189.2550  175.1050  135.3470 S   0  0  0  0  0  0  0  0  0  0  0  0
  190.2000  176.2680  136.3720 C   0  0  0  0  0  2  0  0  0  0  0  0
  190.0900  175.8840  137.8110 C   0  0  0  0  0  0  0  0  0  0  0  0
  190.6570  174.8310  138.2060 O   0  0  0  0  0  0  0  0  0  0  0  0
  189.3880  176.6670  138.7370 O   0  0  0  0  0  0  0  0  0  0  0  0
  191.1630  177.5430  139.9550 O   0  0  0  0  0  1  0  0  0  0  0  0
  189.8690  177.0200  140.0360 C   0  0  1  0  0  3  0  0  0  0  0  0
  188.9320  177.9620  140.7320 C   0  0  0  0  0  0  0  0  0  0  0  0
  188.9450  178.0430  142.1190 O   0  0  0  0  0  1  0  0  0  0  0  0
  188.1450  178.6920  140.0740 O   0  0  0  0  0  0  0  0  0  0  0  0
  184.8730  178.6940  144.1730 C   0  0  2  0  0  3  0  0  0  0  0  0
  183.3570  178.5550  144.0410 C   0  0  0  0  0  2  0  0  0  0  0  0
  185.5490  177.9720  143.0090 C   0  0  0  0  0  2  0  0  0  0  0  0
  185.1220  178.5580  141.7410 N   0  0  0  0  0  2  0  0  0  0  0  0
  182.9000  179.0500  142.6730 C   0  0  0  0  0  2  0  0  0  0  0  0
  183.6870  178.3220  141.5750 C   0  0  1  0  0  3  0  0  0  0  0  0
  185.3170  178.1120  145.4270 N   0  0  0  0  0  2  0  0  0  0  0  0
  186.7210  178.5570  147.2730 C   0  0  0  0  0  0  0  0  0  0  0  0
  185.7380  178.9380  146.5070 C   0  0  0  0  0  3  0  0  0  0  0  0
  187.7030  178.1750  148.0390 C   0  0  0  0  0  3  0  0  0  0  0  0
  188.5630  177.0300  147.6300 C   0  0  0  0  0  2  0  0  0  0  0  0
  191.7500  176.4520  146.1580 C   0  0  0  0  0  2  0  0  0  0  0  0
  190.9390  176.9340  144.9820 C   0  0  0  0  0  2  0  0  0  0  0  0
  189.7680  177.5250  146.9860 N   0  0  0  0  0  0  0  0  0  0  0  0
  189.5950  177.3250  145.5560 C   0  0  0  0  0  2  0  0  0  0  0  0
  190.8590  176.6380  147.3670 C   0  0  0  0  0  2  0  0  0  0  0  0
  181.7920  179.1990  140.1060 C   0  0  0  0  0  2  0  0  0  0  0  0
  180.7760  178.8260  137.4680 O   0  0  0  0  0  0  0  0  0  0  0  0
  181.1050  179.9970  137.8050 C   0  0  0  0  0  0  0  0  0  0  0  0
  181.6290  180.2490  139.1100 N   0  0  0  0  0  2  0  0  0  0  0  0
  180.6840  180.8450  135.5350 C   0  0  0  0  0  1  0  0  0  0  0  0
  180.9670  181.0570  136.9100 O   0  0  0  0  0  0  0  0  0  0  0  0
  1 37  1  1  0  0  0
  2  7  1  0  0  0  0
  2  1  1  0  0  0  0
  3  4  2  0  0  0  0
  3  5  1  0  0  0  0
  4  6  1  0  0  0  0
  5  2  2  0  0  0  0
  6  7  2  0  0  0  0
  8  3  1  0  0  0  0
  9 10  3  0  0  0  0
 10  8  1  0  0  0  0
 11  9  1  0  0  0  0
 11 12  1  0  0  0  0
 12 13  1  0  0  0  0
 13 14  2  0  0  0  0
 13 15  1  0  0  0  0
 15 17  1  0  0  0  0
 17 16  1  6  0  0  0
 17 18  1  0  0  0  0
 18 19  1  0  0  0  0
 20 18  2  0  0  0  0
 21 27  1  1  0  0  0
 22 21  1  0  0  0  0
 23 21  1  0  0  0  0
 24 23  1  0  0  0  0
 25 22  1  0  0  0  0
 26  1  1  6  0  0  0
 26 24  1  0  0  0  0
 26 25  1  0  0  0  0
 27 29  1  0  0  0  0
 28 30  2  0  0  0  0
 29 28  2  0  0  0  0
 31 30  1  0  0  0  0
 32 36  1  0  0  0  0
 33 35  1  0  0  0  0
 33 32  1  0  0  0  0
 34 36  1  0  0  0  0
 34 31  1  0  0  0  0
 35 34  1  0  0  0  0
 38 39  2  0  0  0  0
 39 40  1  0  0  0  0
 40 37  1  0  0  0  0
 41 42  1  0  0  0  0
 42 39  1  0  0  0  0
M  END
>  <MODEL>
5

>  <REMARK>
 VINA RESULT:      -7.3      3.644      9.774
  Name = 
  17 active torsions:
  status: ('A' for Active; 'I' for Inactive)
    1  A    between atoms: C_4  and  S_42
    2  A    between atoms: O_5  and  C_12
    3  A    between atoms: O_5  and  C_14
    4  A    between atoms: C_6  and  C_8
    5  A    between atoms: C_8  and  C_35
    6  A    between atoms: C_8  and  C_40
    7  A    between atoms: C_9  and  N_16
    8  A    between atoms: N_10  and  C_11
    9  A    between atoms: C_11  and  C_38
   10  A    between atoms: C_13  and  C_32
   11  A    between atoms: C_13  and  O_37
   12  A    between atoms: N_16  and  C_31
   13  A    between atoms: C_18  and  C_26
   14  A    between atoms: C_26  and  O_37
   15  A    between atoms: C_29  and  O_34
   16  A    between atoms: C_32  and  S_42
   17  A    between atoms: C_35  and  N_41
                            x       y       z     vdW  Elec       q    Type
                         _______ _______ _______ _____ _____    ______ ____

>  <TORSDO>
F 17

$$$$
=
 OpenBabel10232410583D

 42 44  0  0  1  0  0  0  0  0999 V2000
  186.8310  178.0500  144.3730 C   0  0  2  0  0  3  0  0  0  0  0  0
  185.4230  178.3620  143.9560 C   0  0  0  0  0  0  0  0  0  0  0  0
  183.7670  178.8240  142.2350 C   0  0  0  0  0  0  0  0  0  0  0  0
  182.7890  178.9750  143.2320 C   0  0  0  0  0  3  0  0  0  0  0  0
  185.0810  178.5190  142.6050 C   0  0  0  0  0  3  0  0  0  0  0  0
  183.1270  178.8240  144.5800 C   0  0  0  0  0  3  0  0  0  0  0  0
  184.4420  178.5190  144.9400 C   0  0  0  0  0  3  0  0  0  0  0  0
  183.4650  178.9730  140.8770 O   0  0  0  0  0  0  0  0  0  0  0  0
  183.3740  176.9840  139.2420 C   0  0  0  0  0  0  0  0  0  0  0  0
  183.4160  177.9150  140.0080 C   0  0  0  0  0  0  0  0  0  0  0  0
  183.3090  175.6260  138.1210 S   0  0  0  0  0  0  0  0  0  0  0  0
  184.1630  176.5710  136.8280 C   0  0  0  0  0  2  0  0  0  0  0  0
  185.6250  176.2660  136.8550 C   0  0  0  0  0  0  0  0  0  0  0  0
  186.0070  175.1470  137.2860 O   0  0  0  0  0  0  0  0  0  0  0  0
  186.5830  177.1840  136.4020 O   0  0  0  0  0  0  0  0  0  0  0  0
  186.5470  178.3370  138.4190 O   0  0  0  0  0  1  0  0  0  0  0  0
  186.9370  178.3920  137.0780 C   0  0  1  0  0  3  0  0  0  0  0  0
  188.4000  178.6920  136.9380 C   0  0  0  0  0  0  0  0  0  0  0  0
  189.1790  177.9290  136.0780 O   0  0  0  0  0  0  0  0  0  0  0  0
  188.9280  179.6390  137.5800 O   0  0  0  0  0  1  0  0  0  0  0  0
  189.9270  176.9290  141.5710 C   0  0  2  0  0  3  0  0  0  0  0  0
  189.5180  175.8800  142.6040 C   0  0  0  0  0  2  0  0  0  0  0  0
  188.6980  177.7320  141.1540 C   0  0  0  0  0  2  0  0  0  0  0  0
  188.1190  178.4020  142.3150 N   0  0  0  0  0  2  0  0  0  0  0  0
  188.8020  176.5450  143.7750 C   0  0  0  0  0  2  0  0  0  0  0  0
  187.6310  177.3860  143.2490 C   0  0  1  0  0  3  0  0  0  0  0  0
  190.5010  176.2800  140.4050 N   0  0  0  0  0  2  0  0  0  0  0  0
  191.6090  176.5150  138.3330 C   0  0  0  0  0  0  0  0  0  0  0  0
  190.8290  177.0300  139.2400 C   0  0  0  0  0  3  0  0  0  0  0  0
  192.3900  175.9980  137.4270 C   0  0  0  0  0  3  0  0  0  0  0  0
  192.7090  174.5440  137.4610 C   0  0  0  0  0  2  0  0  0  0  0  0
  195.9340  173.7200  138.7180 C   0  0  0  0  0  2  0  0  0  0  0  0
  195.6550  172.5730  137.7810 C   0  0  0  0  0  2  0  0  0  0  0  0
  194.1350  174.3470  137.2580 N   0  0  0  0  0  0  0  0  0  0  0  0
  194.3460  172.9160  137.1050 C   0  0  0  0  0  2  0  0  0  0  0  0
  194.8030  174.7030  138.5020 C   0  0  0  0  0  2  0  0  0  0  0  0
  186.9020  177.2760  145.6920 C   0  0  0  0  0  2  0  0  0  0  0  0
  187.5720  177.8650  148.4010 O   0  0  0  0  0  0  0  0  0  0  0  0
  188.5210  177.6060  147.6100 C   0  0  0  0  0  0  0  0  0  0  0  0
  188.2530  177.3110  146.2370 N   0  0  0  0  0  2  0  0  0  0  0  0
  190.8620  176.8850  147.3900 C   0  0  0  0  0  1  0  0  0  0  0  0
  189.8410  177.6090  148.0600 O   0  0  0  0  0  0  0  0  0  0  0  0
  1 37  1  1  0  0  0
  2  1  1  0  0  0  0
  2  7  1  0  0  0  0
  3  5  1  0  0  0  0
  3  4  2  0  0  0  0
  4  6  1  0  0  0  0
  5  2  2  0  0  0  0
  6  7  2  0  0  0  0
  8  3  1  0  0  0  0
  9 10  3  0  0  0  0
 10  8  1  0  0  0  0
 11  9  1  0  0  0  0
 12 13  1  0  0  0  0
 12 11  1  0  0  0  0
 13 14  2  0  0  0  0
 15 13  1  0  0  0  0
 15 17  1  0  0  0  0
 17 16  1  1  0  0  0
 18 17  1  0  0  0  0
 18 20  1  0  0  0  0
 19 18  2  0  0  0  0
 21 27  1  6  0  0  0
 21 22  1  0  0  0  0
 22 25  1  0  0  0  0
 23 21  1  0  0  0  0
 23 24  1  0  0  0  0
 24 26  1  0  0  0  0
 26 25  1  0  0  0  0
 26  1  1  1  0  0  0
 28 29  2  0  0  0  0
 29 27  1  0  0  0  0
 30 31  1  0  0  0  0
 30 28  2  0  0  0  0
 33 32  1  0  0  0  0
 34 31  1  0  0  0  0
 34 36  1  0  0  0  0
 35 34  1  0  0  0  0
 35 33  1  0  0  0  0
 36 32  1  0  0  0  0
 37 40  1  0  0  0  0
 39 42  1  0  0  0  0
 39 38  2  0  0  0  0
 40 39  1  0  0  0  0
 41 42  1  0  0  0  0
M  END
>  <MODEL>
6

>  <REMARK>
 VINA RESULT:      -7.1      3.169      4.771
  Name = 
  17 active torsions:
  status: ('A' for Active; 'I' for Inactive)
    1  A    between atoms: C_4  and  S_42
    2  A    between atoms: O_5  and  C_12
    3  A    between atoms: O_5  and  C_14
    4  A    between atoms: C_6  and  C_8
    5  A    between atoms: C_8  and  C_35
    6  A    between atoms: C_8  and  C_40
    7  A    between atoms: C_9  and  N_16
    8  A    between atoms: N_10  and  C_11
    9  A    between atoms: C_11  and  C_38
   10  A    between atoms: C_13  and  C_32
   11  A    between atoms: C_13  and  O_37
   12  A    between atoms: N_16  and  C_31
   13  A    between atoms: C_18  and  C_26
   14  A    between atoms: C_26  and  O_37
   15  A    between atoms: C_29  and  O_34
   16  A    between atoms: C_32  and  S_42
   17  A    between atoms: C_35  and  N_41
                            x       y       z     vdW  Elec       q    Type
                         _______ _______ _______ _____ _____    ______ ____

>  <TORSDO>
F 17

$$$$
=
 OpenBabel10232410583D

 42 44  0  0  1  0  0  0  0  0999 V2000
  190.2710  176.6650  140.0660 C   0  0  2  0  0  3  0  0  0  0  0  0
  188.9790  177.1690  139.4930 C   0  0  0  0  0  0  0  0  0  0  0  0
  186.8980  178.4120  139.7060 C   0  0  0  0  0  0  0  0  0  0  0  0
  186.5650  178.0580  138.3880 C   0  0  0  0  0  3  0  0  0  0  0  0
  188.1050  177.9630  140.2510 C   0  0  0  0  0  3  0  0  0  0  0  0
  187.4300  177.2640  137.6310 C   0  0  0  0  0  3  0  0  0  0  0  0
  188.6340  176.8200  138.1840 C   0  0  0  0  0  3  0  0  0  0  0  0
  186.0540  179.2020  140.4930 O   0  0  0  0  0  0  0  0  0  0  0  0
  183.5440  178.6990  140.7850 C   0  0  0  0  0  0  0  0  0  0  0  0
  184.7190  178.9340  140.6480 C   0  0  0  0  0  0  0  0  0  0  0  0
  181.8280  178.3520  140.9870 S   0  0  0  0  0  0  0  0  0  0  0  0
  181.6550  177.8760  139.2440 C   0  0  0  0  0  2  0  0  0  0  0  0
  181.4360  176.4020  139.1380 C   0  0  0  0  0  0  0  0  0  0  0  0
  180.6370  175.8450  139.9350 O   0  0  0  0  0  0  0  0  0  0  0  0
  182.0830  175.6240  138.1680 O   0  0  0  0  0  0  0  0  0  0  0  0
  183.9780  174.2810  138.0820 O   0  0  0  0  0  1  0  0  0  0  0  0
  183.4970  175.5880  137.9630 C   0  0  1  0  0  3  0  0  0  0  0  0
  183.8780  176.2010  136.6480 C   0  0  0  0  0  0  0  0  0  0  0  0
  184.6700  175.4850  135.7600 O   0  0  0  0  0  0  0  0  0  0  0  0
  183.4750  177.3520  136.3330 O   0  0  0  0  0  1  0  0  0  0  0  0
  191.5470  176.9120  144.1900 C   0  0  2  0  0  3  0  0  0  0  0  0
  191.9180  178.0830  143.2810 C   0  0  0  0  0  2  0  0  0  0  0  0
  190.1740  176.3770  143.7890 C   0  0  0  0  0  2  0  0  0  0  0  0
  190.2000  175.9190  142.4020 N   0  0  0  0  0  2  0  0  0  0  0  0
  191.8350  177.6610  141.8180 C   0  0  0  0  0  2  0  0  0  0  0  0
  190.4480  177.0690  141.5320 C   0  0  1  0  0  3  0  0  0  0  0  0
  191.5100  177.3500  145.5740 N   0  0  0  0  0  2  0  0  0  0  0  0
  189.8810  176.8450  147.2080 C   0  0  0  0  0  0  0  0  0  0  0  0
  190.9790  176.5080  146.5920 C   0  0  0  0  0  3  0  0  0  0  0  0
  188.7840  177.1830  147.8230 C   0  0  0  0  0  3  0  0  0  0  0  0
  187.9380  178.2830  147.2840 C   0  0  0  0  0  2  0  0  0  0  0  0
  184.8620  178.7150  145.5490 C   0  0  0  0  0  2  0  0  0  0  0  0
  185.7310  178.0690  144.5000 C   0  0  0  0  0  2  0  0  0  0  0  0
  186.7620  177.7290  146.6340 N   0  0  0  0  0  0  0  0  0  0  0  0
  187.0270  177.7350  145.2040 C   0  0  0  0  0  2  0  0  0  0  0  0
  185.6730  178.6760  146.8260 C   0  0  0  0  0  2  0  0  0  0  0  0
  191.4830  177.0180  139.2000 C   0  0  0  0  0  2  0  0  0  0  0  0
  193.8190  176.9120  137.5680 O   0  0  0  0  0  0  0  0  0  0  0  0
  193.1150  175.8670  137.6450 C   0  0  0  0  0  0  0  0  0  0  0  0
  191.9270  175.8570  138.4390 N   0  0  0  0  0  2  0  0  0  0  0  0
  192.5850  173.6250  136.7850 C   0  0  0  0  0  1  0  0  0  0  0  0
  193.4820  174.7120  136.9550 O   0  0  0  0  0  0  0  0  0  0  0  0
  1 37  1  6  0  0  0
  2  1  1  0  0  0  0
  2  5  1  0  0  0  0
  3  5  2  0  0  0  0
  3  8  1  0  0  0  0
  4  3  1  0  0  0  0
  6  7  1  0  0  0  0
  6  4  2  0  0  0  0
  7  2  2  0  0  0  0
  8 10  1  0  0  0  0
  9 11  1  0  0  0  0
 10  9  3  0  0  0  0
 12 11  1  0  0  0  0
 13 12  1  0  0  0  0
 13 14  2  0  0  0  0
 15 13  1  0  0  0  0
 17 16  1  6  0  0  0
 17 15  1  0  0  0  0
 18 17  1  0  0  0  0
 19 18  2  0  0  0  0
 20 18  1  0  0  0  0
 21 27  1  1  0  0  0
 22 21  1  0  0  0  0
 23 21  1  0  0  0  0
 24 23  1  0  0  0  0
 25 22  1  0  0  0  0
 26  1  1  6  0  0  0
 26 25  1  0  0  0  0
 26 24  1  0  0  0  0
 27 29  1  0  0  0  0
 28 30  2  0  0  0  0
 29 28  2  0  0  0  0
 31 30  1  0  0  0  0
 32 36  1  0  0  0  0
 33 35  1  0  0  0  0
 33 32  1  0  0  0  0
 34 36  1  0  0  0  0
 34 31  1  0  0  0  0
 35 34  1  0  0  0  0
 38 39  2  0  0  0  0
 39 40  1  0  0  0  0
 40 37  1  0  0  0  0
 41 42  1  0  0  0  0
 42 39  1  0  0  0  0
M  END
>  <MODEL>
7

>  <REMARK>
 VINA RESULT:      -7.1      3.043      6.804
  Name = 
  17 active torsions:
  status: ('A' for Active; 'I' for Inactive)
    1  A    between atoms: C_4  and  S_42
    2  A    between atoms: O_5  and  C_12
    3  A    between atoms: O_5  and  C_14
    4  A    between atoms: C_6  and  C_8
    5  A    between atoms: C_8  and  C_35
    6  A    between atoms: C_8  and  C_40
    7  A    between atoms: C_9  and  N_16
    8  A    between atoms: N_10  and  C_11
    9  A    between atoms: C_11  and  C_38
   10  A    between atoms: C_13  and  C_32
   11  A    between atoms: C_13  and  O_37
   12  A    between atoms: N_16  and  C_31
   13  A    between atoms: C_18  and  C_26
   14  A    between atoms: C_26  and  O_37
   15  A    between atoms: C_29  and  O_34
   16  A    between atoms: C_32  and  S_42
   17  A    between atoms: C_35  and  N_41
                            x       y       z     vdW  Elec       q    Type
                         _______ _______ _______ _____ _____    ______ ____

>  <TORSDO>
F 17

$$$$
=
 OpenBabel10232410583D

 42 44  0  0  1  0  0  0  0  0999 V2000
  190.3960  176.3260  138.7910 C   0  0  2  0  0  3  0  0  0  0  0  0
  189.2880  177.0400  138.0740 C   0  0  0  0  0  0  0  0  0  0  0  0
  187.0890  177.0520  137.0320 C   0  0  0  0  0  0  0  0  0  0  0  0
  187.2620  178.4080  136.7090 C   0  0  0  0  0  3  0  0  0  0  0  0
  188.1060  176.3750  137.7120 C   0  0  0  0  0  3  0  0  0  0  0  0
  188.4390  179.0730  137.0630 C   0  0  0  0  0  3  0  0  0  0  0  0
  189.4500  178.3880  137.7440 C   0  0  0  0  0  3  0  0  0  0  0  0
  185.9250  176.3550  136.6890 O   0  0  0  0  0  0  0  0  0  0  0  0
  183.5680  177.3570  136.9650 C   0  0  0  0  0  0  0  0  0  0  0  0
  184.6710  176.8880  136.8350 C   0  0  0  0  0  0  0  0  0  0  0  0
  181.9540  178.0400  137.1560 S   0  0  0  0  0  0  0  0  0  0  0  0
  182.5840  179.4040  138.1740 C   0  0  0  0  0  2  0  0  0  0  0  0
  182.8330  178.9280  139.5670 C   0  0  0  0  0  0  0  0  0  0  0  0
  182.1340  177.9860  140.0240 O   0  0  0  0  0  0  0  0  0  0  0  0
  183.8310  179.4890  140.3770 O   0  0  0  0  0  0  0  0  0  0  0  0
  186.1340  179.5010  140.6820 O   0  0  0  0  0  1  0  0  0  0  0  0
  184.9570  178.7760  140.8910 C   0  0  1  0  0  3  0  0  0  0  0  0
  184.7730  178.4250  142.3380 C   0  0  0  0  0  0  0  0  0  0  0  0
  183.5640  178.7010  142.9630 O   0  0  0  0  0  0  0  0  0  0  0  0
  185.6960  177.8690  142.9880 O   0  0  0  0  0  1  0  0  0  0  0  0
  190.4690  178.3140  142.6290 C   0  0  2  0  0  3  0  0  0  0  0  0
  189.1860  177.5700  142.2620 C   0  0  0  0  0  2  0  0  0  0  0  0
  191.6710  177.5490  142.0820 C   0  0  0  0  0  2  0  0  0  0  0  0
  191.5770  177.4430  140.6280 N   0  0  0  0  0  2  0  0  0  0  0  0
  189.1240  177.3400  140.7550 C   0  0  0  0  0  2  0  0  0  0  0  0
  190.4050  176.6350  140.2910 C   0  0  1  0  0  3  0  0  0  0  0  0
  190.5820  178.4250  144.0730 N   0  0  0  0  0  2  0  0  0  0  0  0
  191.1700  177.0930  145.9330 C   0  0  0  0  0  0  0  0  0  0  0  0
  191.5140  177.6280  144.7960 C   0  0  0  0  0  3  0  0  0  0  0  0
  190.8250  176.5590  147.0700 C   0  0  0  0  0  3  0  0  0  0  0  0
  189.3930  176.5410  147.4780 C   0  0  0  0  0  2  0  0  0  0  0  0
  186.5200  178.1180  146.0940 C   0  0  0  0  0  2  0  0  0  0  0  0
  186.6200  178.7720  147.4490 C   0  0  0  0  0  2  0  0  0  0  0  0
  188.7200  177.7240  146.9700 N   0  0  0  0  0  0  0  0  0  0  0  0
  187.9020  178.2430  148.0550 C   0  0  0  0  0  2  0  0  0  0  0  0
  187.7740  177.2830  145.9540 C   0  0  0  0  0  2  0  0  0  0  0  0
  191.7610  176.5350  138.1310 C   0  0  0  0  0  2  0  0  0  0  0  0
  194.4170  175.5170  138.3410 O   0  0  0  0  0  0  0  0  0  0  0  0
  193.5830  174.8360  137.6820 C   0  0  0  0  0  0  0  0  0  0  0  0
  192.2380  175.2950  137.5320 N   0  0  0  0  0  2  0  0  0  0  0  0
  195.0180  173.5630  136.1430 C   0  0  0  0  0  1  0  0  0  0  0  0
  193.9620  173.6320  137.0890 O   0  0  0  0  0  0  0  0  0  0  0  0
  1 37  1  6  0  0  0
  2  1  1  0  0  0  0
  3  5  1  0  0  0  0
  4  3  2  0  0  0  0
  4  6  1  0  0  0  0
  5  2  2  0  0  0  0
  6  7  2  0  0  0  0
  7  2  1  0  0  0  0
  8 10  1  0  0  0  0
  8  3  1  0  0  0  0
  9 11  1  0  0  0  0
 10  9  3  0  0  0  0
 11 12  1  0  0  0  0
 12 13  1  0  0  0  0
 13 14  2  0  0  0  0
 13 15  1  0  0  0  0
 15 17  1  0  0  0  0
 17 16  1  1  0  0  0
 17 18  1  0  0  0  0
 18 19  2  0  0  0  0
 18 20  1  0  0  0  0
 21 27  1  1  0  0  0
 22 21  1  0  0  0  0
 23 21  1  0  0  0  0
 24 23  1  0  0  0  0
 25 22  1  0  0  0  0
 26  1  1  6  0  0  0
 26 24  1  0  0  0  0
 26 25  1  0  0  0  0
 27 29  1  0  0  0  0
 28 30  2  0  0  0  0
 29 28  2  0  0  0  0
 30 31  1  0  0  0  0
 32 33  1  0  0  0  0
 33 35  1  0  0  0  0
 34 31  1  0  0  0  0
 34 35  1  0  0  0  0
 36 32  1  0  0  0  0
 36 34  1  0  0  0  0
 39 38  2  0  0  0  0
 40 39  1  0  0  0  0
 40 37  1  0  0  0  0
 41 42  1  0  0  0  0
 42 39  1  0  0  0  0
M  END
>  <MODEL>
8

>  <REMARK>
 VINA RESULT:      -7.0      2.897      7.466
  Name = 
  17 active torsions:
  status: ('A' for Active; 'I' for Inactive)
    1  A    between atoms: C_4  and  S_42
    2  A    between atoms: O_5  and  C_12
    3  A    between atoms: O_5  and  C_14
    4  A    between atoms: C_6  and  C_8
    5  A    between atoms: C_8  and  C_35
    6  A    between atoms: C_8  and  C_40
    7  A    between atoms: C_9  and  N_16
    8  A    between atoms: N_10  and  C_11
    9  A    between atoms: C_11  and  C_38
   10  A    between atoms: C_13  and  C_32
   11  A    between atoms: C_13  and  O_37
   12  A    between atoms: N_16  and  C_31
   13  A    between atoms: C_18  and  C_26
   14  A    between atoms: C_26  and  O_37
   15  A    between atoms: C_29  and  O_34
   16  A    between atoms: C_32  and  S_42
   17  A    between atoms: C_35  and  N_41
                            x       y       z     vdW  Elec       q    Type
                         _______ _______ _______ _____ _____    ______ ____

>  <TORSDO>
F 17

$$$$
=
 OpenBabel10232410583D

 42 44  0  0  1  0  0  0  0  0999 V2000
  188.0440  177.2800  145.3220 C   0  0  2  0  0  3  0  0  0  0  0  0
  189.1840  177.6450  144.4160 C   0  0  0  0  0  0  0  0  0  0  0  0
  190.4280  177.3650  142.3430 C   0  0  0  0  0  0  0  0  0  0  0  0
  191.3460  178.3370  142.7770 C   0  0  0  0  0  3  0  0  0  0  0  0
  189.3520  177.0240  143.1690 C   0  0  0  0  0  3  0  0  0  0  0  0
  191.1850  178.9540  144.0200 C   0  0  0  0  0  3  0  0  0  0  0  0
  190.1060  178.6070  144.8380 C   0  0  0  0  0  3  0  0  0  0  0  0
  190.5610  176.7250  141.1070 O   0  0  0  0  0  0  0  0  0  0  0  0
  189.0220  177.2280  139.1030 C   0  0  0  0  0  0  0  0  0  0  0  0
  189.7410  176.9920  140.0410 C   0  0  0  0  0  0  0  0  0  0  0  0
  187.9690  177.5770  137.7330 S   0  0  0  0  0  0  0  0  0  0  0  0
  189.3820  177.7070  136.6010 C   0  0  0  0  0  2  0  0  0  0  0  0
  189.9430  176.3500  136.3280 C   0  0  0  0  0  0  0  0  0  0  0  0
  189.1550  175.4040  136.0680 O   0  0  0  0  0  0  0  0  0  0  0  0
  191.3230  176.1020  136.3400 O   0  0  0  0  0  0  0  0  0  0  0  0
  192.3840  174.2360  137.2290 O   0  0  0  0  0  1  0  0  0  0  0  0
  192.0460  175.5730  137.4530 C   0  0  1  0  0  3  0  0  0  0  0  0
  193.2530  176.4050  137.7710 C   0  0  0  0  0  0  0  0  0  0  0  0
  194.2030  176.6410  136.7860 O   0  0  0  0  0  0  0  0  0  0  0  0
  193.4070  176.9060  138.9160 O   0  0  0  0  0  1  0  0  0  0  0  0
  184.0350  178.6180  144.4100 C   0  0  2  0  0  3  0  0  0  0  0  0
  184.5440  178.8760  145.8280 C   0  0  0  0  0  2  0  0  0  0  0  0
  185.1910  178.7670  143.4240 C   0  0  0  0  0  2  0  0  0  0  0  0
  186.2460  177.8060  143.7390 N   0  0  0  0  0  2  0  0  0  0  0  0
  185.7260  177.9650  146.1380 C   0  0  0  0  0  2  0  0  0  0  0  0
  186.8000  178.1310  145.0540 C   0  0  1  0  0  3  0  0  0  0  0  0
  182.9890  179.5680  144.0770 N   0  0  0  0  0  2  0  0  0  0  0  0
  181.7680  178.7580  142.2260 C   0  0  0  0  0  0  0  0  0  0  0  0
  181.7750  179.1360  143.4720 C   0  0  0  0  0  3  0  0  0  0  0  0
  181.7620  178.3800  140.9790 C   0  0  0  0  0  3  0  0  0  0  0  0
  183.0480  178.1320  140.2700 C   0  0  0  0  0  2  0  0  0  0  0  0
  182.0000  177.9370  136.8760 C   0  0  0  0  0  2  0  0  0  0  0  0
  183.4680  177.6080  136.7750 C   0  0  0  0  0  2  0  0  0  0  0  0
  182.8050  177.3610  139.0630 N   0  0  0  0  0  0  0  0  0  0  0  0
  183.9630  177.5460  138.2030 C   0  0  0  0  0  2  0  0  0  0  0  0
  181.6990  177.9950  138.3580 C   0  0  0  0  0  2  0  0  0  0  0  0
  188.4440  177.2570  146.8000 C   0  0  0  0  0  2  0  0  0  0  0  0
  190.5620  178.1600  148.4820 O   0  0  0  0  0  0  0  0  0  0  0  0
  190.7450  177.0880  147.8420 C   0  0  0  0  0  0  0  0  0  0  0  0
  189.7250  176.5860  146.9750 N   0  0  0  0  0  2  0  0  0  0  0  0
  192.3750  175.4640  146.9750 C   0  0  0  0  0  1  0  0  0  0  0  0
  191.9410  176.3820  147.9660 O   0  0  0  0  0  0  0  0  0  0  0  0
  1 37  1  1  0  0  0
  2  7  1  0  0  0  0
  2  1  1  0  0  0  0
  3  4  2  0  0  0  0
  3  5  1  0  0  0  0
  4  6  1  0  0  0  0
  5  2  2  0  0  0  0
  6  7  2  0  0  0  0
  8  3  1  0  0  0  0
  9 10  3  0  0  0  0
 10  8  1  0  0  0  0
 11  9  1  0  0  0  0
 12 11  1  0  0  0  0
 13 15  1  0  0  0  0
 13 12  1  0  0  0  0
 14 13  2  0  0  0  0
 15 17  1  0  0  0  0
 17 16  1  6  0  0  0
 17 18  1  0  0  0  0
 18 20  1  0  0  0  0
 19 18  2  0  0  0  0
 21 27  1  6  0  0  0
 21 22  1  0  0  0  0
 22 25  1  0  0  0  0
 23 24  1  0  0  0  0
 23 21  1  0  0  0  0
 24 26  1  0  0  0  0
 26  1  1  1  0  0  0
 26 25  1  0  0  0  0
 28 29  2  0  0  0  0
 29 27  1  0  0  0  0
 30 28  2  0  0  0  0
 31 30  1  0  0  0  0
 32 36  1  0  0  0  0
 33 32  1  0  0  0  0
 33 35  1  0  0  0  0
 34 31  1  0  0  0  0
 35 34  1  0  0  0  0
 36 34  1  0  0  0  0
 37 40  1  0  0  0  0
 39 42  1  0  0  0  0
 39 38  2  0  0  0  0
 40 39  1  0  0  0  0
 41 42  1  0  0  0  0
M  END
>  <MODEL>
9

>  <REMARK>
 VINA RESULT:      -7.0      3.931      7.206
  Name = 
  17 active torsions:
  status: ('A' for Active; 'I' for Inactive)
    1  A    between atoms: C_4  and  S_42
    2  A    between atoms: O_5  and  C_12
    3  A    between atoms: O_5  and  C_14
    4  A    between atoms: C_6  and  C_8
    5  A    between atoms: C_8  and  C_35
    6  A    between atoms: C_8  and  C_40
    7  A    between atoms: C_9  and  N_16
    8  A    between atoms: N_10  and  C_11
    9  A    between atoms: C_11  and  C_38
   10  A    between atoms: C_13  and  C_32
   11  A    between atoms: C_13  and  O_37
   12  A    between atoms: N_16  and  C_31
   13  A    between atoms: C_18  and  C_26
   14  A    between atoms: C_26  and  O_37
   15  A    between atoms: C_29  and  O_34
   16  A    between atoms: C_32  and  S_42
   17  A    between atoms: C_35  and  N_41
                            x       y       z     vdW  Elec       q    Type
                         _______ _______ _______ _____ _____    ______ ____

>  <TORSDO>
F 17

$$$$
