=
 OpenBabel10232409553D

 34 39  0  0  1  0  0  0  0  0999 V2000
  187.4870  178.1870  141.7510 N   0  0  0  0  0  0  0  0  0  0  0  0
  189.0910  177.9020  139.8740 C   0  0  0  0  0  0  0  0  0  0  0  0
  190.6880  176.9520  141.0200 N   0  0  0  0  0  2  0  0  0  0  0  0
  187.3120  177.9640  143.0940 C   0  0  0  0  0  0  0  0  0  0  0  0
  188.6530  177.8140  141.1710 C   0  0  0  0  0  0  0  0  0  0  0  0
  189.5530  176.9690  143.2180 C   0  0  0  0  0  0  0  0  0  0  0  0
  190.3340  177.3700  139.8060 N   0  0  0  0  0  0  0  0  0  0  0  0
  188.3480  177.3440  143.8430 C   0  0  0  0  0  3  0  0  0  0  0  0
  189.6650  177.2210  141.8540 C   0  0  0  0  0  0  0  0  0  0  0  0
  183.6970  179.2080  143.7290 C   0  0  2  0  0  3  0  0  0  0  0  0
  184.7060  178.7740  141.6810 N   0  0  0  0  0  0  0  0  0  0  0  0
  182.6910  178.1510  140.4440 C   0  0  0  0  0  3  0  0  0  0  0  0
  185.0280  179.2370  143.0340 C   0  0  2  0  0  3  0  0  0  0  0  0
  183.5910  178.9880  145.1740 C   0  0  0  0  0  3  0  0  0  0  0  0
  186.0420  178.3560  143.7470 C   0  0  0  0  0  0  0  0  0  0  0  0
  185.8660  178.0700  145.0540 C   0  0  0  0  0  3  0  0  0  0  0  0
  183.4210  178.6870  141.5920 C   0  0  0  0  0  0  0  0  0  0  0  0
  180.5550  178.1540  141.7970 C   0  0  0  0  0  2  0  0  0  0  0  0
  184.6440  178.4590  145.8010 C   0  0  0  0  0  3  0  0  0  0  0  0
  181.3470  178.5970  143.0050 C   0  0  0  0  0  0  0  0  0  0  0  0
  182.7590  178.9450  142.8360 C   0  0  1  0  0  3  0  0  0  0  0  0
  180.7840  178.6870  144.1270 O   0  0  0  0  0  0  0  0  0  0  0  0
  181.3750  177.9030  140.5370 C   0  0  0  0  0  0  0  0  0  0  0  0
  180.1490  176.9660  138.4530 N   0  0  0  0  0  0  0  0  0  0  0  0
  180.6960  177.3850  139.3830 C   0  0  0  0  0  0  0  0  0  0  0  0
  190.6370  176.2960  143.9870 C   0  0  0  0  0  2  0  0  0  0  0  0
  191.3210  177.2950  144.9040 C   0  0  0  0  0  2  0  0  0  0  0  0
  192.2940  176.2930  146.8030 O   0  0  0  0  0  0  0  0  0  0  0  0
  190.0480  176.9080  147.1150 C   0  0  0  0  0  1  0  0  0  0  0  0
  191.2990  176.8020  146.3130 C   0  0  0  0  0  0  0  0  0  0  0  0
  188.3930  178.4420  138.7500 N   0  0  0  0  0  2  0  0  0  0  0  0
  186.0940  178.1670  138.0490 C   0  0  0  0  0  2  0  0  0  0  0  0
  186.9180  178.5230  136.8300 C   0  0  0  0  0  2  0  0  0  0  0  0
  187.5090  177.6460  137.9150 C   0  0  0  0  0  3  0  0  0  0  0  0
  1  4  1  0  0  0  0
  2  5  1  0  0  0  0
  3  9  1  0  0  0  0
  4 15  1  0  0  0  0
  4  8  2  0  0  0  0
  5  1  2  0  0  0  0
  5  9  1  0  0  0  0
  6  8  1  0  0  0  0
  6 26  1  0  0  0  0
  7  2  2  0  0  0  0
  7  3  1  0  0  0  0
  9  6  2  0  0  0  0
 10 14  1  1  0  0  0
 12 23  2  0  0  0  0
 12 17  1  0  0  0  0
 13 11  1  6  0  0  0
 13 10  1  0  0  0  0
 13 15  1  0  0  0  0
 14 19  2  0  0  0  0
 15 16  2  0  0  0  0
 16 19  1  0  0  0  0
 17 11  2  0  0  0  0
 18 20  1  0  0  0  0
 20 22  2  0  0  0  0
 21 17  1  1  0  0  0
 21 20  1  0  0  0  0
 21 10  1  0  0  0  0
 23 18  1  0  0  0  0
 24 25  3  0  0  0  0
 25 23  1  0  0  0  0
 26 27  1  0  0  0  0
 27 30  1  0  0  0  0
 30 28  2  0  0  0  0
 30 29  1  0  0  0  0
 31  2  1  0  0  0  0
 33 34  1  0  0  0  0
 33 32  1  0  0  0  0
 34 32  1  0  0  0  0
 34 31  1  0  0  0  0
M  END
>  <MODEL>
1

>  <REMARK>
 VINA RESULT:      -9.7      0.000      0.000
  Name = 
  7 active torsions:
  status: ('A' for Active; 'I' for Inactive)
    1  A    between atoms: C_7  and  N_27
    2  A    between atoms: C_8  and  C_20
    3  A    between atoms: C_12  and  C_16
    4  A    between atoms: C_12  and  C_26
    5  A    between atoms: C_16  and  C_33
    6  A    between atoms: C_19  and  C_34
    7  A    between atoms: C_24  and  N_27
                            x       y       z     vdW  Elec       q    Type
                         _______ _______ _______ _____ _____    ______ ____

>  <TORSDO>
F 7

$$$$
=
 OpenBabel10232409553D

 34 39  0  0  1  0  0  0  0  0999 V2000
  185.5030  178.2540  140.1090 N   0  0  0  0  0  0  0  0  0  0  0  0
  185.3160  177.9440  137.6500 C   0  0  0  0  0  0  0  0  0  0  0  0
  187.4550  177.8940  137.2160 N   0  0  0  0  0  2  0  0  0  0  0  0
  186.4030  178.3820  141.1380 C   0  0  0  0  0  0  0  0  0  0  0  0
  185.9690  178.1020  138.8460 C   0  0  0  0  0  0  0  0  0  0  0  0
  188.2550  178.1920  139.5380 C   0  0  0  0  0  0  0  0  0  0  0  0
  186.2410  177.8190  136.6710 N   0  0  0  0  0  0  0  0  0  0  0  0
  187.7960  178.3460  140.8590 C   0  0  0  0  0  3  0  0  0  0  0  0
  187.2910  178.0660  138.5430 C   0  0  0  0  0  0  0  0  0  0  0  0
  185.8930  177.9760  144.9580 C   0  0  2  0  0  3  0  0  0  0  0  0
  187.5440  177.0090  143.6390 N   0  0  0  0  0  0  0  0  0  0  0  0
  189.2800  176.8410  145.3520 C   0  0  0  0  0  3  0  0  0  0  0  0
  186.1510  177.4580  143.5720 C   0  0  2  0  0  3  0  0  0  0  0  0
  184.9200  179.0410  145.2100 C   0  0  0  0  0  3  0  0  0  0  0  0
  185.9160  178.5390  142.5280 C   0  0  0  0  0  0  0  0  0  0  0  0
  185.1030  179.5760  142.8200 C   0  0  0  0  0  3  0  0  0  0  0  0
  187.9220  177.0870  144.8710 C   0  0  0  0  0  0  0  0  0  0  0  0
  188.6520  177.7770  147.6150 C   0  0  0  0  0  2  0  0  0  0  0  0
  184.5350  179.7890  144.1740 C   0  0  0  0  0  3  0  0  0  0  0  0
  187.2900  178.1310  147.0660 C   0  0  0  0  0  0  0  0  0  0  0  0
  186.9320  177.6810  145.7190 C   0  0  1  0  0  3  0  0  0  0  0  0
  186.4750  178.7780  147.7750 O   0  0  0  0  0  0  0  0  0  0  0  0
  189.6190  177.1600  146.6120 C   0  0  0  0  0  0  0  0  0  0  0  0
  192.0430  176.6780  147.3950 N   0  0  0  0  0  0  0  0  0  0  0  0
  190.9610  176.8940  147.0450 C   0  0  0  0  0  0  0  0  0  0  0  0
  189.7130  178.1310  139.2360 C   0  0  0  0  0  2  0  0  0  0  0  0
  190.3370  176.9300  139.9250 C   0  0  0  0  0  2  0  0  0  0  0  0
  192.5790  177.5830  140.2460 O   0  0  0  0  0  0  0  0  0  0  0  0
  191.3370  177.4840  142.2370 C   0  0  0  0  0  1  0  0  0  0  0  0
  191.4960  177.3580  140.7620 C   0  0  0  0  0  0  0  0  0  0  0  0
  183.9050  177.9020  137.4230 N   0  0  0  0  0  2  0  0  0  0  0  0
  182.9730  176.0060  138.6010 C   0  0  0  0  0  2  0  0  0  0  0  0
  181.8340  176.7630  137.9520 C   0  0  0  0  0  2  0  0  0  0  0  0
  183.1720  176.6590  137.2500 C   0  0  0  0  0  3  0  0  0  0  0  0
  1  4  1  0  0  0  0
  2  5  1  0  0  0  0
  3  9  1  0  0  0  0
  4 15  1  0  0  0  0
  5  1  2  0  0  0  0
  6  8  1  0  0  0  0
  7  3  1  0  0  0  0
  7  2  2  0  0  0  0
  8  4  2  0  0  0  0
  9  5  1  0  0  0  0
  9  6  2  0  0  0  0
 10 14  1  6  0  0  0
 10 21  1  0  0  0  0
 11 17  2  0  0  0  0
 12 23  2  0  0  0  0
 13 15  1  6  0  0  0
 13 11  1  0  0  0  0
 13 10  1  0  0  0  0
 15 16  2  0  0  0  0
 16 19  1  0  0  0  0
 17 12  1  0  0  0  0
 19 14  2  0  0  0  0
 20 18  1  0  0  0  0
 20 22  2  0  0  0  0
 21 17  1  6  0  0  0
 21 20  1  0  0  0  0
 23 25  1  0  0  0  0
 23 18  1  0  0  0  0
 25 24  3  0  0  0  0
 26  6  1  0  0  0  0
 26 27  1  0  0  0  0
 27 30  1  0  0  0  0
 28 30  2  0  0  0  0
 30 29  1  0  0  0  0
 31  2  1  0  0  0  0
 33 32  1  0  0  0  0
 34 31  1  0  0  0  0
 34 33  1  0  0  0  0
 34 32  1  0  0  0  0
M  END
>  <MODEL>
2

>  <REMARK>
 VINA RESULT:      -9.1      2.659      6.048
  Name = 
  7 active torsions:
  status: ('A' for Active; 'I' for Inactive)
    1  A    between atoms: C_7  and  N_27
    2  A    between atoms: C_8  and  C_20
    3  A    between atoms: C_12  and  C_16
    4  A    between atoms: C_12  and  C_26
    5  A    between atoms: C_16  and  C_33
    6  A    between atoms: C_19  and  C_34
    7  A    between atoms: C_24  and  N_27
                            x       y       z     vdW  Elec       q    Type
                         _______ _______ _______ _____ _____    ______ ____

>  <TORSDO>
F 7

$$$$
=
 OpenBabel10232409553D

 34 39  0  0  1  0  0  0  0  0999 V2000
  186.9850  178.4820  141.1030 N   0  0  0  0  0  0  0  0  0  0  0  0
  188.3510  178.3680  139.0310 C   0  0  0  0  0  0  0  0  0  0  0  0
  186.7010  178.4890  137.6070 N   0  0  0  0  0  2  0  0  0  0  0  0
  185.6980  178.5870  141.5700 C   0  0  0  0  0  0  0  0  0  0  0  0
  187.1960  178.4530  139.7660 C   0  0  0  0  0  0  0  0  0  0  0  0
  184.8670  178.6320  139.2610 C   0  0  0  0  0  0  0  0  0  0  0  0
  188.0250  178.3910  137.7170 N   0  0  0  0  0  0  0  0  0  0  0  0
  184.6210  178.6690  140.6460 C   0  0  0  0  0  3  0  0  0  0  0  0
  186.1930  178.5270  138.8550 C   0  0  0  0  0  0  0  0  0  0  0  0
  185.8290  177.8910  145.3800 C   0  0  2  0  0  3  0  0  0  0  0  0
  187.2530  177.0650  143.7400 N   0  0  0  0  0  0  0  0  0  0  0  0
  189.2500  176.8180  145.1300 C   0  0  0  0  0  3  0  0  0  0  0  0
  185.8620  177.4830  143.9350 C   0  0  2  0  0  3  0  0  0  0  0  0
  184.8960  178.9100  145.8680 C   0  0  0  0  0  3  0  0  0  0  0  0
  185.4440  178.6300  143.0290 C   0  0  0  0  0  0  0  0  0  0  0  0
  184.6770  179.6210  143.5270 C   0  0  0  0  0  3  0  0  0  0  0  0
  187.8280  177.0630  144.8970 C   0  0  0  0  0  0  0  0  0  0  0  0
  188.9900  177.5710  147.5290 C   0  0  0  0  0  2  0  0  0  0  0  0
  184.3360  179.7220  144.9680 C   0  0  0  0  0  3  0  0  0  0  0  0
  187.5520  177.9290  147.2380 C   0  0  0  0  0  0  0  0  0  0  0  0
  186.9830  177.5690  145.9380 C   0  0  1  0  0  3  0  0  0  0  0  0
  186.8560  178.5010  148.1170 O   0  0  0  0  0  0  0  0  0  0  0  0
  189.7870  177.0530  146.3370 C   0  0  0  0  0  0  0  0  0  0  0  0
  192.3130  176.5790  146.6740 N   0  0  0  0  0  0  0  0  0  0  0  0
  191.1850  176.7910  146.5240 C   0  0  0  0  0  0  0  0  0  0  0  0
  183.7490  178.7400  138.2820 C   0  0  0  0  0  2  0  0  0  0  0  0
  182.5070  179.2830  138.9680 C   0  0  0  0  0  2  0  0  0  0  0  0
  182.7080  181.6210  138.7420 O   0  0  0  0  0  0  0  0  0  0  0  0
  181.0290  180.6890  137.3900 C   0  0  0  0  0  1  0  0  0  0  0  0
  182.1320  180.6050  138.3870 C   0  0  0  0  0  0  0  0  0  0  0  0
  189.6920  178.2770  139.5160 N   0  0  0  0  0  2  0  0  0  0  0  0
  191.6410  177.3400  140.6030 C   0  0  0  0  0  2  0  0  0  0  0  0
  190.4980  177.3310  141.5960 C   0  0  0  0  0  2  0  0  0  0  0  0
  190.2280  177.0720  140.1280 C   0  0  0  0  0  3  0  0  0  0  0  0
  1  4  1  0  0  0  0
  2 31  1  0  0  0  0
  2  5  1  0  0  0  0
  3  7  1  0  0  0  0
  3  9  1  0  0  0  0
  4 15  1  0  0  0  0
  5  1  2  0  0  0  0
  6  8  1  0  0  0  0
  7  2  2  0  0  0  0
  8  4  2  0  0  0  0
  9  6  2  0  0  0  0
  9  5  1  0  0  0  0
 10 14  1  6  0  0  0
 10 21  1  0  0  0  0
 11 13  1  0  0  0  0
 11 17  2  0  0  0  0
 12 23  2  0  0  0  0
 13 15  1  6  0  0  0
 13 10  1  0  0  0  0
 15 16  2  0  0  0  0
 16 19  1  0  0  0  0
 17 12  1  0  0  0  0
 19 14  2  0  0  0  0
 20 18  1  0  0  0  0
 20 22  2  0  0  0  0
 21 17  1  6  0  0  0
 21 20  1  0  0  0  0
 23 25  1  0  0  0  0
 23 18  1  0  0  0  0
 25 24  3  0  0  0  0
 26 27  1  0  0  0  0
 26  6  1  0  0  0  0
 29 30  1  0  0  0  0
 30 28  2  0  0  0  0
 30 27  1  0  0  0  0
 31 34  1  0  0  0  0
 32 33  1  0  0  0  0
 34 32  1  0  0  0  0
 34 33  1  0  0  0  0
M  END
>  <MODEL>
3

>  <REMARK>
 VINA RESULT:      -9.1      2.540      7.347
  Name = 
  7 active torsions:
  status: ('A' for Active; 'I' for Inactive)
    1  A    between atoms: C_7  and  N_27
    2  A    between atoms: C_8  and  C_20
    3  A    between atoms: C_12  and  C_16
    4  A    between atoms: C_12  and  C_26
    5  A    between atoms: C_16  and  C_33
    6  A    between atoms: C_19  and  C_34
    7  A    between atoms: C_24  and  N_27
                            x       y       z     vdW  Elec       q    Type
                         _______ _______ _______ _____ _____    ______ ____

>  <TORSDO>
F 7

$$$$
=
 OpenBabel10232409553D

 34 39  0  0  1  0  0  0  0  0999 V2000
  188.3470  177.5760  143.5820 N   0  0  0  0  0  0  0  0  0  0  0  0
  190.6820  176.7630  143.3280 C   0  0  0  0  0  0  0  0  0  0  0  0
  190.8840  177.1690  141.1920 N   0  0  0  0  0  2  0  0  0  0  0  0
  187.2920  178.1270  142.8980 C   0  0  0  0  0  0  0  0  0  0  0  0
  189.4890  177.2950  142.9100 C   0  0  0  0  0  0  0  0  0  0  0  0
  188.6170  178.0900  140.8320 C   0  0  0  0  0  0  0  0  0  0  0  0
  191.5170  176.6950  142.2650 N   0  0  0  0  0  0  0  0  0  0  0  0
  187.4210  178.3960  141.5090 C   0  0  0  0  0  3  0  0  0  0  0  0
  189.6470  177.5360  141.5840 C   0  0  0  0  0  0  0  0  0  0  0  0
  183.6690  179.2260  143.7240 C   0  0  2  0  0  3  0  0  0  0  0  0
  184.6080  178.9070  141.6220 N   0  0  0  0  0  0  0  0  0  0  0  0
  182.5640  178.2700  140.4400 C   0  0  0  0  0  3  0  0  0  0  0  0
  184.9690  179.3260  142.9790 C   0  0  2  0  0  3  0  0  0  0  0  0
  183.6280  178.9460  145.1610 C   0  0  0  0  0  3  0  0  0  0  0  0
  186.0370  178.4510  143.6160 C   0  0  0  0  0  0  0  0  0  0  0  0
  185.9240  178.1070  144.9160 C   0  0  0  0  0  3  0  0  0  0  0  0
  183.3230  178.7830  141.5800 C   0  0  0  0  0  0  0  0  0  0  0  0
  180.4860  178.1500  141.8750 C   0  0  0  0  0  2  0  0  0  0  0  0
  184.7220  178.4270  145.7250 C   0  0  0  0  0  3  0  0  0  0  0  0
  181.3110  178.5690  143.0680 C   0  0  0  0  0  0  0  0  0  0  0  0
  182.7040  178.9700  142.8580 C   0  0  1  0  0  3  0  0  0  0  0  0
  180.7920  178.5970  144.2140 O   0  0  0  0  0  0  0  0  0  0  0  0
  181.2610  177.9760  140.5740 C   0  0  0  0  0  0  0  0  0  0  0  0
  179.9820  177.0840  138.5030 N   0  0  0  0  0  0  0  0  0  0  0  0
  180.5520  177.4830  139.4280 C   0  0  0  0  0  0  0  0  0  0  0  0
  188.7720  178.3890  139.3800 C   0  0  0  0  0  2  0  0  0  0  0  0
  187.8940  177.4590  138.5610 C   0  0  0  0  0  2  0  0  0  0  0  0
  187.2260  179.1270  137.0350 O   0  0  0  0  0  0  0  0  0  0  0  0
  185.4280  177.9650  137.9990 C   0  0  0  0  0  1  0  0  0  0  0  0
  186.8770  178.2440  137.8010 C   0  0  0  0  0  0  0  0  0  0  0  0
  191.0380  176.3440  144.6470 N   0  0  0  0  0  2  0  0  0  0  0  0
  190.0470  176.9730  146.7630 C   0  0  0  0  0  2  0  0  0  0  0  0
  191.4580  176.4930  147.0280 C   0  0  0  0  0  2  0  0  0  0  0  0
  191.1460  177.2680  145.7640 C   0  0  0  0  0  3  0  0  0  0  0  0
  2 31  1  0  0  0  0
  3  9  1  0  0  0  0
  3  7  1  0  0  0  0
  4  1  2  0  0  0  0
  4 15  1  0  0  0  0
  5  2  1  0  0  0  0
  5  1  1  0  0  0  0
  6  8  2  0  0  0  0
  6  9  1  0  0  0  0
  7  2  2  0  0  0  0
  8  4  1  0  0  0  0
  9  5  2  0  0  0  0
 10 14  1  1  0  0  0
 12 23  2  0  0  0  0
 12 17  1  0  0  0  0
 13 11  1  6  0  0  0
 13 15  1  0  0  0  0
 13 10  1  0  0  0  0
 14 19  2  0  0  0  0
 15 16  2  0  0  0  0
 16 19  1  0  0  0  0
 17 11  2  0  0  0  0
 18 20  1  0  0  0  0
 20 22  2  0  0  0  0
 21 17  1  6  0  0  0
 21 20  1  0  0  0  0
 21 10  1  0  0  0  0
 23 18  1  0  0  0  0
 24 25  3  0  0  0  0
 25 23  1  0  0  0  0
 26  6  1  0  0  0  0
 27 26  1  0  0  0  0
 28 30  2  0  0  0  0
 30 29  1  0  0  0  0
 30 27  1  0  0  0  0
 31 34  1  0  0  0  0
 32 33  1  0  0  0  0
 34 32  1  0  0  0  0
 34 33  1  0  0  0  0
M  END
>  <MODEL>
4

>  <REMARK>
 VINA RESULT:      -9.0      2.153      4.853
  Name = 
  7 active torsions:
  status: ('A' for Active; 'I' for Inactive)
    1  A    between atoms: C_7  and  N_27
    2  A    between atoms: C_8  and  C_20
    3  A    between atoms: C_12  and  C_16
    4  A    between atoms: C_12  and  C_26
    5  A    between atoms: C_16  and  C_33
    6  A    between atoms: C_19  and  C_34
    7  A    between atoms: C_24  and  N_27
                            x       y       z     vdW  Elec       q    Type
                         _______ _______ _______ _____ _____    ______ ____

>  <TORSDO>
F 7

$$$$
=
 OpenBabel10232409553D

 34 39  0  0  1  0  0  0  0  0999 V2000
  187.0730  178.4210  141.0480 N   0  0  0  0  0  0  0  0  0  0  0  0
  188.4560  178.2870  138.9870 C   0  0  0  0  0  0  0  0  0  0  0  0
  186.8160  178.3830  137.5490 N   0  0  0  0  0  2  0  0  0  0  0  0
  185.7820  178.5250  141.5030 C   0  0  0  0  0  0  0  0  0  0  0  0
  187.2950  178.3770  139.7130 C   0  0  0  0  0  0  0  0  0  0  0  0
  184.9690  178.5390  139.1870 C   0  0  0  0  0  0  0  0  0  0  0  0
  188.1400  178.2930  137.6710 N   0  0  0  0  0  0  0  0  0  0  0  0
  184.7120  178.5910  140.5700 C   0  0  0  0  0  3  0  0  0  0  0  0
  186.2990  178.4350  138.7930 C   0  0  0  0  0  0  0  0  0  0  0  0
  185.8820  177.8720  145.3220 C   0  0  2  0  0  3  0  0  0  0  0  0
  187.3200  177.0280  143.7030 N   0  0  0  0  0  0  0  0  0  0  0  0
  189.3060  176.7970  145.1110 C   0  0  0  0  0  3  0  0  0  0  0  0
  185.9270  177.4470  143.8820 C   0  0  2  0  0  3  0  0  0  0  0  0
  184.9460  178.8970  145.7910 C   0  0  0  0  0  3  0  0  0  0  0  0
  185.5160  178.5840  142.9590 C   0  0  0  0  0  0  0  0  0  0  0  0
  184.7450  179.5810  143.4400 C   0  0  0  0  0  3  0  0  0  0  0  0
  187.8850  177.0400  144.8640 C   0  0  0  0  0  0  0  0  0  0  0  0
  189.0260  177.5780  147.4990 C   0  0  0  0  0  2  0  0  0  0  0  0
  184.3920  179.6980  144.8770 C   0  0  0  0  0  3  0  0  0  0  0  0
  187.5910  177.9320  147.1930 C   0  0  0  0  0  0  0  0  0  0  0  0
  187.0320  177.5570  145.8920 C   0  0  1  0  0  3  0  0  0  0  0  0
  186.8870  178.5140  148.0600 O   0  0  0  0  0  0  0  0  0  0  0  0
  189.8330  177.0460  146.3200 C   0  0  0  0  0  0  0  0  0  0  0  0
  192.3560  176.5760  146.6840 N   0  0  0  0  0  0  0  0  0  0  0  0
  191.2300  176.7860  146.5210 C   0  0  0  0  0  0  0  0  0  0  0  0
  183.8580  178.6300  138.1980 C   0  0  0  0  0  2  0  0  0  0  0  0
  183.5700  177.2600  137.6100 C   0  0  0  0  0  2  0  0  0  0  0  0
  182.7640  175.3110  138.6630 O   0  0  0  0  0  0  0  0  0  0  0  0
  181.4820  177.2240  139.1250 C   0  0  0  0  0  1  0  0  0  0  0  0
  182.6230  176.5100  138.4860 C   0  0  0  0  0  0  0  0  0  0  0  0
  189.7940  178.2090  139.4850 N   0  0  0  0  0  2  0  0  0  0  0  0
  191.7020  177.2900  140.6540 C   0  0  0  0  0  2  0  0  0  0  0  0
  190.4770  177.0860  141.5190 C   0  0  0  0  0  2  0  0  0  0  0  0
  190.3660  176.9810  140.0120 C   0  0  0  0  0  3  0  0  0  0  0  0
  1  4  1  0  0  0  0
  2 31  1  0  0  0  0
  2  5  1  0  0  0  0
  3  7  1  0  0  0  0
  3  9  1  0  0  0  0
  4 15  1  0  0  0  0
  5  1  2  0  0  0  0
  6  8  1  0  0  0  0
  7  2  2  0  0  0  0
  8  4  2  0  0  0  0
  9  6  2  0  0  0  0
  9  5  1  0  0  0  0
 10 14  1  6  0  0  0
 10 21  1  0  0  0  0
 11 13  1  0  0  0  0
 11 17  2  0  0  0  0
 12 23  2  0  0  0  0
 13 15  1  6  0  0  0
 13 10  1  0  0  0  0
 15 16  2  0  0  0  0
 16 19  1  0  0  0  0
 17 12  1  0  0  0  0
 19 14  2  0  0  0  0
 20 18  1  0  0  0  0
 20 22  2  0  0  0  0
 21 17  1  6  0  0  0
 21 20  1  0  0  0  0
 23 25  1  0  0  0  0
 23 18  1  0  0  0  0
 25 24  3  0  0  0  0
 26  6  1  0  0  0  0
 27 26  1  0  0  0  0
 27 30  1  0  0  0  0
 30 28  2  0  0  0  0
 30 29  1  0  0  0  0
 31 34  1  0  0  0  0
 32 33  1  0  0  0  0
 34 32  1  0  0  0  0
 34 33  1  0  0  0  0
M  END
>  <MODEL>
5

>  <REMARK>
 VINA RESULT:      -8.9      2.490      7.131
  Name = 
  7 active torsions:
  status: ('A' for Active; 'I' for Inactive)
    1  A    between atoms: C_7  and  N_27
    2  A    between atoms: C_8  and  C_20
    3  A    between atoms: C_12  and  C_16
    4  A    between atoms: C_12  and  C_26
    5  A    between atoms: C_16  and  C_33
    6  A    between atoms: C_19  and  C_34
    7  A    between atoms: C_24  and  N_27
                            x       y       z     vdW  Elec       q    Type
                         _______ _______ _______ _____ _____    ______ ____

>  <TORSDO>
F 7

$$$$
=
 OpenBabel10232409553D

 34 39  0  0  1  0  0  0  0  0999 V2000
  188.5900  177.8480  141.1280 N   0  0  0  0  0  0  0  0  0  0  0  0
  190.5360  177.3560  139.6630 C   0  0  0  0  0  0  0  0  0  0  0  0
  192.0540  177.3020  141.2320 N   0  0  0  0  0  2  0  0  0  0  0  0
  188.2190  178.0630  142.4330 C   0  0  0  0  0  0  0  0  0  0  0  0
  189.8930  177.6110  140.8480 C   0  0  0  0  0  0  0  0  0  0  0  0
  190.5530  177.7810  143.1390 C   0  0  0  0  0  0  0  0  0  0  0  0
  191.8520  177.1710  139.9210 N   0  0  0  0  0  0  0  0  0  0  0  0
  189.2040  178.0260  143.4560 C   0  0  0  0  0  3  0  0  0  0  0  0
  190.8610  177.5700  141.7990 C   0  0  0  0  0  0  0  0  0  0  0  0
  184.4810  179.0630  142.2160 C   0  0  2  0  0  3  0  0  0  0  0  0
  186.0160  178.9330  140.4750 N   0  0  0  0  0  0  0  0  0  0  0  0
  184.4410  178.3860  138.6860 C   0  0  0  0  0  3  0  0  0  0  0  0
  185.9410  179.2350  141.9070 C   0  0  2  0  0  3  0  0  0  0  0  0
  184.0210  178.6590  143.5470 C   0  0  0  0  0  3  0  0  0  0  0  0
  186.7980  178.3160  142.7630 C   0  0  0  0  0  0  0  0  0  0  0  0
  186.3110  177.8600  143.9370 C   0  0  0  0  0  3  0  0  0  0  0  0
  184.8070  178.8040  140.0380 C   0  0  0  0  0  0  0  0  0  0  0  0
  182.0340  178.1280  139.4140 C   0  0  0  0  0  2  0  0  0  0  0  0
  184.9130  178.1010  144.3700 C   0  0  0  0  0  3  0  0  0  0  0  0
  182.4500  178.4480  140.8300 C   0  0  0  0  0  0  0  0  0  0  0  0
  183.8280  178.8750  141.0820 C   0  0  1  0  0  3  0  0  0  0  0  0
  181.6110  178.3730  141.7650 O   0  0  0  0  0  0  0  0  0  0  0  0
  183.1680  178.0720  138.3970 C   0  0  0  0  0  0  0  0  0  0  0  0
  182.5950  177.3560  135.9730 N   0  0  0  0  0  0  0  0  0  0  0  0
  182.8510  177.6750  137.0550 C   0  0  0  0  0  0  0  0  0  0  0  0
  191.5910  177.7170  144.2060 C   0  0  0  0  0  2  0  0  0  0  0  0
  191.5530  176.3600  144.8880 C   0  0  0  0  0  2  0  0  0  0  0  0
  192.3250  176.4280  147.1140 O   0  0  0  0  0  0  0  0  0  0  0  0
  190.0120  176.7840  146.9120 C   0  0  0  0  0  1  0  0  0  0  0  0
  191.3710  176.5260  146.3590 C   0  0  0  0  0  0  0  0  0  0  0  0
  189.9620  177.2790  138.3560 N   0  0  0  0  0  2  0  0  0  0  0  0
  187.7160  176.7500  137.6290 C   0  0  0  0  0  2  0  0  0  0  0  0
  188.6680  176.4070  136.5030 C   0  0  0  0  0  2  0  0  0  0  0  0
  189.0880  176.1930  137.9430 C   0  0  0  0  0  3  0  0  0  0  0  0
  1  4  1  0  0  0  0
  2  7  2  0  0  0  0
  2  5  1  0  0  0  0
  3  9  1  0  0  0  0
  4 15  1  0  0  0  0
  4  8  2  0  0  0  0
  5  1  2  0  0  0  0
  5  9  1  0  0  0  0
  6  8  1  0  0  0  0
  6 26  1  0  0  0  0
  7  3  1  0  0  0  0
  9  6  2  0  0  0  0
 10 14  1  1  0  0  0
 12 17  1  0  0  0  0
 13 11  1  6  0  0  0
 13 10  1  0  0  0  0
 13 15  1  0  0  0  0
 14 19  2  0  0  0  0
 15 16  2  0  0  0  0
 16 19  1  0  0  0  0
 17 11  2  0  0  0  0
 18 20  1  0  0  0  0
 20 21  1  0  0  0  0
 20 22  2  0  0  0  0
 21 17  1  6  0  0  0
 21 10  1  0  0  0  0
 23 12  2  0  0  0  0
 23 18  1  0  0  0  0
 24 25  3  0  0  0  0
 25 23  1  0  0  0  0
 26 27  1  0  0  0  0
 27 30  1  0  0  0  0
 30 29  1  0  0  0  0
 30 28  2  0  0  0  0
 31  2  1  0  0  0  0
 32 34  1  0  0  0  0
 33 32  1  0  0  0  0
 33 34  1  0  0  0  0
 34 31  1  0  0  0  0
M  END
>  <MODEL>
6

>  <REMARK>
 VINA RESULT:      -8.8      1.554      1.902
  Name = 
  7 active torsions:
  status: ('A' for Active; 'I' for Inactive)
    1  A    between atoms: C_7  and  N_27
    2  A    between atoms: C_8  and  C_20
    3  A    between atoms: C_12  and  C_16
    4  A    between atoms: C_12  and  C_26
    5  A    between atoms: C_16  and  C_33
    6  A    between atoms: C_19  and  C_34
    7  A    between atoms: C_24  and  N_27
                            x       y       z     vdW  Elec       q    Type
                         _______ _______ _______ _____ _____    ______ ____

>  <TORSDO>
F 7

$$$$
=
 OpenBabel10232409553D

 34 39  0  0  1  0  0  0  0  0999 V2000
  188.3290  177.6070  139.5590 N   0  0  0  0  0  0  0  0  0  0  0  0
  189.8340  177.0890  137.6500 C   0  0  0  0  0  0  0  0  0  0  0  0
  191.6920  176.9670  138.7890 N   0  0  0  0  0  2  0  0  0  0  0  0
  188.3020  177.8090  140.9170 C   0  0  0  0  0  0  0  0  0  0  0  0
  189.5140  177.3400  138.9600 C   0  0  0  0  0  0  0  0  0  0  0  0
  190.7290  177.4530  141.0150 C   0  0  0  0  0  0  0  0  0  0  0  0
  191.1660  176.8650  137.5690 N   0  0  0  0  0  0  0  0  0  0  0  0
  189.5090  177.7280  141.6620 C   0  0  0  0  0  3  0  0  0  0  0  0
  190.6870  177.2570  139.6390 C   0  0  0  0  0  0  0  0  0  0  0  0
  185.4230  177.9380  143.5070 C   0  0  2  0  0  3  0  0  0  0  0  0
  187.5700  177.1030  143.8160 N   0  0  0  0  0  0  0  0  0  0  0  0
  187.7570  177.5490  146.2130 C   0  0  0  0  0  3  0  0  0  0  0  0
  186.5480  177.2610  142.7780 C   0  0  2  0  0  3  0  0  0  0  0  0
  184.4840  178.8240  142.8160 C   0  0  0  0  0  3  0  0  0  0  0  0
  187.0160  178.0940  141.5940 C   0  0  0  0  0  0  0  0  0  0  0  0
  186.1730  178.9900  141.0400 C   0  0  0  0  0  3  0  0  0  0  0  0
  187.0410  177.4500  144.9420 C   0  0  0  0  0  0  0  0  0  0  0  0
  185.7610  178.7020  147.2510 C   0  0  0  0  0  2  0  0  0  0  0  0
  184.8470  179.3070  141.6260 C   0  0  0  0  0  3  0  0  0  0  0  0
  185.0830  178.6960  145.9010 C   0  0  0  0  0  0  0  0  0  0  0  0
  185.7160  177.9740  144.7950 C   0  0  1  0  0  3  0  0  0  0  0  0
  183.9790  179.2810  145.7490 O   0  0  0  0  0  0  0  0  0  0  0  0
  187.1720  178.1260  147.2750 C   0  0  0  0  0  0  0  0  0  0  0  0
  188.5010  178.2490  149.4970 N   0  0  0  0  0  0  0  0  0  0  0  0
  187.9070  178.1950  148.5050 C   0  0  0  0  0  0  0  0  0  0  0  0
  191.9980  177.3420  141.7890 C   0  0  0  0  0  2  0  0  0  0  0  0
  191.7420  176.6370  143.1090 C   0  0  0  0  0  2  0  0  0  0  0  0
  191.9140  178.8080  144.0100 O   0  0  0  0  0  0  0  0  0  0  0  0
  191.3910  177.1690  145.6090 C   0  0  0  0  0  1  0  0  0  0  0  0
  191.6900  177.6280  144.2240 C   0  0  0  0  0  0  0  0  0  0  0  0
  188.9500  177.0500  136.5270 N   0  0  0  0  0  2  0  0  0  0  0  0
  187.2420  177.7670  134.9700 C   0  0  0  0  0  2  0  0  0  0  0  0
  186.6010  177.6090  136.3330 C   0  0  0  0  0  2  0  0  0  0  0  0
  188.0210  178.1240  136.2180 C   0  0  0  0  0  3  0  0  0  0  0  0
  1  4  1  0  0  0  0
  2  5  1  0  0  0  0
  3  9  1  0  0  0  0
  4 15  1  0  0  0  0
  4  8  2  0  0  0  0
  5  1  2  0  0  0  0
  5  9  1  0  0  0  0
  6  8  1  0  0  0  0
  6 26  1  0  0  0  0
  7  2  2  0  0  0  0
  7  3  1  0  0  0  0
  9  6  2  0  0  0  0
 10 14  1  6  0  0  0
 10 21  1  0  0  0  0
 11 17  2  0  0  0  0
 12 23  2  0  0  0  0
 13 15  1  6  0  0  0
 13 10  1  0  0  0  0
 13 11  1  0  0  0  0
 16 15  2  0  0  0  0
 16 19  1  0  0  0  0
 17 12  1  0  0  0  0
 18 23  1  0  0  0  0
 19 14  2  0  0  0  0
 20 18  1  0  0  0  0
 21 17  1  6  0  0  0
 21 20  1  0  0  0  0
 22 20  2  0  0  0  0
 23 25  1  0  0  0  0
 25 24  3  0  0  0  0
 26 27  1  0  0  0  0
 27 30  1  0  0  0  0
 28 30  2  0  0  0  0
 30 29  1  0  0  0  0
 31  2  1  0  0  0  0
 32 34  1  0  0  0  0
 32 33  1  0  0  0  0
 34 33  1  0  0  0  0
 34 31  1  0  0  0  0
M  END
>  <MODEL>
7

>  <REMARK>
 VINA RESULT:      -8.7      2.649      4.807
  Name = 
  7 active torsions:
  status: ('A' for Active; 'I' for Inactive)
    1  A    between atoms: C_7  and  N_27
    2  A    between atoms: C_8  and  C_20
    3  A    between atoms: C_12  and  C_16
    4  A    between atoms: C_12  and  C_26
    5  A    between atoms: C_16  and  C_33
    6  A    between atoms: C_19  and  C_34
    7  A    between atoms: C_24  and  N_27
                            x       y       z     vdW  Elec       q    Type
                         _______ _______ _______ _____ _____    ______ ____

>  <TORSDO>
F 7

$$$$
=
 OpenBabel10232409553D

 34 39  0  0  1  0  0  0  0  0999 V2000
  189.0930  177.7630  141.4810 N   0  0  0  0  0  0  0  0  0  0  0  0
  191.5090  177.2830  141.1470 C   0  0  0  0  0  0  0  0  0  0  0  0
  191.5560  177.6060  138.9880 N   0  0  0  0  0  2  0  0  0  0  0  0
  187.9400  178.1200  140.8280 C   0  0  0  0  0  0  0  0  0  0  0  0
  190.2330  177.6150  140.7660 C   0  0  0  0  0  0  0  0  0  0  0  0
  189.1650  178.1700  138.7010 C   0  0  0  0  0  0  0  0  0  0  0  0
  192.2980  177.2830  140.0480 N   0  0  0  0  0  0  0  0  0  0  0  0
  187.9680  178.3330  139.4230 C   0  0  0  0  0  3  0  0  0  0  0  0
  190.2970  177.8090  139.4240 C   0  0  0  0  0  0  0  0  0  0  0  0
  185.2330  177.9860  143.5980 C   0  0  2  0  0  3  0  0  0  0  0  0
  187.4500  177.3050  143.7500 N   0  0  0  0  0  0  0  0  0  0  0  0
  187.7610  177.7170  146.1400 C   0  0  0  0  0  3  0  0  0  0  0  0
  186.3540  177.4080  142.7820 C   0  0  2  0  0  3  0  0  0  0  0  0
  184.1900  178.8150  142.9900 C   0  0  0  0  0  3  0  0  0  0  0  0
  186.6830  178.2960  141.5920 C   0  0  0  0  0  0  0  0  0  0  0  0
  185.7440  179.1380  141.1150 C   0  0  0  0  0  3  0  0  0  0  0  0
  186.9730  177.5910  144.9150 C   0  0  0  0  0  0  0  0  0  0  0  0
  185.7580  178.7010  147.3300 C   0  0  0  0  0  2  0  0  0  0  0  0
  184.4390  179.3460  141.7910 C   0  0  0  0  0  3  0  0  0  0  0  0
  184.9960  178.6710  146.0270 C   0  0  0  0  0  0  0  0  0  0  0  0
  185.6060  178.0190  144.8660 C   0  0  1  0  0  3  0  0  0  0  0  0
  183.8460  179.1760  145.9590 O   0  0  0  0  0  0  0  0  0  0  0  0
  187.2060  178.2290  147.2500 C   0  0  0  0  0  0  0  0  0  0  0  0
  188.6630  178.4080  149.3870 N   0  0  0  0  0  0  0  0  0  0  0  0
  188.0130  178.3270  148.4320 C   0  0  0  0  0  0  0  0  0  0  0  0
  189.2120  178.4140  137.2320 C   0  0  0  0  0  2  0  0  0  0  0  0
  187.8020  178.5070  136.6740 C   0  0  0  0  0  2  0  0  0  0  0  0
  187.0200  177.7890  134.5700 O   0  0  0  0  0  0  0  0  0  0  0  0
  188.0910  176.0980  135.7990 C   0  0  0  0  0  1  0  0  0  0  0  0
  187.6020  177.4910  135.6000 C   0  0  0  0  0  0  0  0  0  0  0  0
  191.9780  176.9880  142.4640 N   0  0  0  0  0  2  0  0  0  0  0  0
  191.9500  176.1670  144.7400 C   0  0  0  0  0  2  0  0  0  0  0  0
  191.0360  177.3720  144.6630 C   0  0  0  0  0  2  0  0  0  0  0  0
  191.1270  176.4140  143.4930 C   0  0  0  0  0  3  0  0  0  0  0  0
  2 31  1  0  0  0  0
  3  9  1  0  0  0  0
  3  7  1  0  0  0  0
  4  1  1  0  0  0  0
  4 15  1  0  0  0  0
  5  2  1  0  0  0  0
  5  1  2  0  0  0  0
  6  8  1  0  0  0  0
  6  9  2  0  0  0  0
  7  2  2  0  0  0  0
  8  4  2  0  0  0  0
  9  5  1  0  0  0  0
 10 14  1  6  0  0  0
 10 21  1  0  0  0  0
 11 17  2  0  0  0  0
 12 23  2  0  0  0  0
 13 15  1  6  0  0  0
 13 10  1  0  0  0  0
 13 11  1  0  0  0  0
 16 15  2  0  0  0  0
 16 19  1  0  0  0  0
 17 12  1  0  0  0  0
 19 14  2  0  0  0  0
 20 18  1  0  0  0  0
 21 17  1  6  0  0  0
 21 20  1  0  0  0  0
 22 20  2  0  0  0  0
 23 18  1  0  0  0  0
 23 25  1  0  0  0  0
 25 24  3  0  0  0  0
 26  6  1  0  0  0  0
 27 26  1  0  0  0  0
 28 30  2  0  0  0  0
 30 29  1  0  0  0  0
 30 27  1  0  0  0  0
 31 34  1  0  0  0  0
 33 32  1  0  0  0  0
 34 33  1  0  0  0  0
 34 32  1  0  0  0  0
M  END
>  <MODEL>
8

>  <REMARK>
 VINA RESULT:      -8.2      3.025      6.764
  Name = 
  7 active torsions:
  status: ('A' for Active; 'I' for Inactive)
    1  A    between atoms: C_7  and  N_27
    2  A    between atoms: C_8  and  C_20
    3  A    between atoms: C_12  and  C_16
    4  A    between atoms: C_12  and  C_26
    5  A    between atoms: C_16  and  C_33
    6  A    between atoms: C_19  and  C_34
    7  A    between atoms: C_24  and  N_27
                            x       y       z     vdW  Elec       q    Type
                         _______ _______ _______ _____ _____    ______ ____

>  <TORSDO>
F 7

$$$$
=
 OpenBabel10232409553D

 34 39  0  0  1  0  0  0  0  0999 V2000
  187.4760  178.0040  144.6470 N   0  0  0  0  0  0  0  0  0  0  0  0
  189.7830  177.5150  145.4300 C   0  0  0  0  0  0  0  0  0  0  0  0
  190.6800  177.2050  143.4640 N   0  0  0  0  0  2  0  0  0  0  0  0
  186.6970  178.1260  143.5240 C   0  0  0  0  0  0  0  0  0  0  0  0
  188.7850  177.6890  144.5060 C   0  0  0  0  0  0  0  0  0  0  0  0
  188.6410  177.5970  142.1220 C   0  0  0  0  0  0  0  0  0  0  0  0
  190.9300  177.2210  144.7730 N   0  0  0  0  0  0  0  0  0  0  0  0
  187.2780  177.9280  142.2420 C   0  0  0  0  0  3  0  0  0  0  0  0
  189.3740  177.4900  143.2990 C   0  0  0  0  0  0  0  0  0  0  0  0
  183.0120  179.0350  142.7360 C   0  0  2  0  0  3  0  0  0  0  0  0
  184.6550  178.3550  141.2390 N   0  0  0  0  0  0  0  0  0  0  0  0
  183.1870  177.2880  139.6000 C   0  0  0  0  0  3  0  0  0  0  0  0
  184.4940  179.0910  142.4960 C   0  0  2  0  0  3  0  0  0  0  0  0
  182.4530  179.0710  144.0900 C   0  0  0  0  0  3  0  0  0  0  0  0
  185.2640  178.4800  143.6550 C   0  0  0  0  0  0  0  0  0  0  0  0
  184.6880  178.4180  144.8740 C   0  0  0  0  0  3  0  0  0  0  0  0
  183.4750  178.1050  140.7770 C   0  0  0  0  0  0  0  0  0  0  0  0
  180.7300  177.2890  140.1950 C   0  0  0  0  0  2  0  0  0  0  0  0
  183.2710  178.7920  145.1080 C   0  0  0  0  0  3  0  0  0  0  0  0
  181.0610  178.0330  141.4680 C   0  0  0  0  0  0  0  0  0  0  0  0
  182.4310  178.5070  141.6730 C   0  0  1  0  0  3  0  0  0  0  0  0
  180.1590  178.2600  142.3160 O   0  0  0  0  0  0  0  0  0  0  0  0
  181.9280  176.9090  139.3320 C   0  0  0  0  0  0  0  0  0  0  0  0
  181.4980  175.4740  137.2160 N   0  0  0  0  0  0  0  0  0  0  0  0
  181.6890  176.1150  138.1610 C   0  0  0  0  0  0  0  0  0  0  0  0
  189.2670  177.4100  140.7820 C   0  0  0  0  0  2  0  0  0  0  0  0
  188.6570  178.3760  139.7830 C   0  0  0  0  0  2  0  0  0  0  0  0
  188.6560  176.6160  138.2150 O   0  0  0  0  0  0  0  0  0  0  0  0
  188.9780  178.7310  137.2480 C   0  0  0  0  0  1  0  0  0  0  0  0
  188.7470  177.8180  138.4020 C   0  0  0  0  0  0  0  0  0  0  0  0
  189.6860  177.6230  146.8520 N   0  0  0  0  0  2  0  0  0  0  0  0
  188.4960  177.8150  148.9500 C   0  0  0  0  0  2  0  0  0  0  0  0
  187.5660  178.2560  147.8390 C   0  0  0  0  0  2  0  0  0  0  0  0
  188.5460  177.1250  147.6040 C   0  0  0  0  0  3  0  0  0  0  0  0
  2 31  1  0  0  0  0
  3  7  1  0  0  0  0
  4 15  1  0  0  0  0
  4  1  2  0  0  0  0
  5  1  1  0  0  0  0
  5  2  1  0  0  0  0
  6  8  2  0  0  0  0
  6  9  1  0  0  0  0
  7  2  2  0  0  0  0
  8  4  1  0  0  0  0
  9  3  1  0  0  0  0
  9  5  2  0  0  0  0
 10 14  1  1  0  0  0
 12 17  1  0  0  0  0
 13 11  1  6  0  0  0
 13 10  1  0  0  0  0
 13 15  1  0  0  0  0
 14 19  2  0  0  0  0
 15 16  2  0  0  0  0
 16 19  1  0  0  0  0
 17 11  2  0  0  0  0
 18 20  1  0  0  0  0
 20 21  1  0  0  0  0
 20 22  2  0  0  0  0
 21 17  1  1  0  0  0
 21 10  1  0  0  0  0
 23 12  2  0  0  0  0
 23 18  1  0  0  0  0
 24 25  3  0  0  0  0
 25 23  1  0  0  0  0
 26  6  1  0  0  0  0
 27 26  1  0  0  0  0
 28 30  2  0  0  0  0
 29 30  1  0  0  0  0
 30 27  1  0  0  0  0
 31 34  1  0  0  0  0
 33 32  1  0  0  0  0
 34 33  1  0  0  0  0
 34 32  1  0  0  0  0
M  END
>  <MODEL>
9

>  <REMARK>
 VINA RESULT:      -8.1      2.434      4.983
  Name = 
  7 active torsions:
  status: ('A' for Active; 'I' for Inactive)
    1  A    between atoms: C_7  and  N_27
    2  A    between atoms: C_8  and  C_20
    3  A    between atoms: C_12  and  C_16
    4  A    between atoms: C_12  and  C_26
    5  A    between atoms: C_16  and  C_33
    6  A    between atoms: C_19  and  C_34
    7  A    between atoms: C_24  and  N_27
                            x       y       z     vdW  Elec       q    Type
                         _______ _______ _______ _____ _____    ______ ____

>  <TORSDO>
F 7

$$$$
