=
 OpenBabel10232408043D

 62 67  0  0  1  0  0  0  0  0999 V2000
  189.3650  176.5450  138.1680 C   0  0  2  0  0  3  0  0  0  0  0  0
  190.0480  176.7920  141.9160 C   0  0  0  0  0  0  0  0  0  0  0  0
  188.8820  177.9300  143.7080 C   0  0  0  0  0  3  0  0  0  0  0  0
  188.1300  177.7000  140.0890 C   0  0  0  0  0  3  0  0  0  0  0  0
  189.8140  177.4660  144.5860 N   0  0  0  0  0  0  0  0  0  0  0  0
  190.9930  176.3320  142.8370 C   0  0  0  0  0  3  0  0  0  0  0  0
  191.8450  176.2030  145.1830 C   0  0  0  0  0  1  0  0  0  0  0  0
  188.0160  178.0470  141.4410 C   0  0  0  0  0  3  0  0  0  0  0  0
  189.1980  176.9000  139.6380 C   0  0  0  0  0  0  0  0  0  0  0  0
  190.1610  176.4630  140.5670 C   0  0  0  0  0  3  0  0  0  0  0  0
  188.9730  177.5950  142.3530 C   0  0  0  0  0  0  0  0  0  0  0  0
  190.8540  176.6830  144.1850 C   0  0  0  0  0  0  0  0  0  0  0  0
  193.9620  175.1980  137.4190 N   0  0  0  0  0  2  0  0  0  0  0  0
  192.1370  173.5720  136.7350 C   0  0  0  0  0  0  0  0  0  0  0  0
  194.9630  174.3140  137.9330 C   0  0  0  0  0  0  0  0  0  0  0  0
  192.5740  174.8490  137.3630 C   0  0  0  0  0  0  0  0  0  0  0  0
  189.8370  174.5030  136.6630 C   0  0  2  0  0  3  0  0  0  0  0  0
  190.2690  175.3360  137.8840 C   0  0  1  0  0  3  0  0  0  0  0  0
  190.8370  173.3950  136.4520 C   0  0  0  0  0  3  0  0  0  0  0  0
  191.6890  175.6920  137.8150 N   0  0  0  0  0  0  0  0  0  0  0  0
  194.6310  173.3660  138.7000 O   0  0  0  0  0  0  0  0  0  0  0  0
  189.7920  175.3010  135.5160 O   0  0  0  0  0  0  0  0  0  0  0  0
  189.1190  174.5310  134.5660 C   0  0  0  0  0  1  0  0  0  0  0  0
  193.0870  172.5900  136.4260 O   0  0  0  0  0  0  0  0  0  0  0  0
  193.0320  171.8030  135.2440 C   0  0  0  0  0  1  0  0  0  0  0  0
  196.3980  174.4880  137.5290 C   0  0  1  0  0  3  0  0  0  0  0  0
  197.2290  174.3180  138.6440 O   0  0  0  0  0  0  0  0  0  0  0  0
  196.5080  174.8040  139.7460 C   0  0  0  0  0  2  0  0  0  0  0  0
  197.0970  176.7980  141.1460 O   0  0  0  0  0  1  0  0  0  0  0  0
  197.4170  175.5230  140.6910 C   0  0  0  0  0  0  0  0  0  0  0  0
  198.4660  174.9590  141.1020 O   0  0  0  0  0  0  0  0  0  0  0  0
  196.7390  173.4460  136.4640 C   0  0  0  0  0  2  0  0  0  0  0  0
  197.9390  172.6170  136.8850 C   0  0  0  0  0  2  0  0  0  0  0  0
  198.7490  170.6020  137.2990 C   0  0  0  0  0  1  0  0  0  0  0  0
  197.5600  171.2840  137.0280 O   0  0  0  0  0  0  0  0  0  0  0  0
  189.6400  177.6790  137.2660 N   0  0  0  0  0  0  0  0  0  0  0  0
  189.6630  178.9460  137.9950 C   0  0  0  0  0  1  0  0  0  0  0  0
  188.5800  177.7350  136.2690 C   0  0  0  0  0  2  0  0  0  0  0  0
  187.3990  178.5600  136.7840 C   0  0  0  0  0  2  0  0  0  0  0  0
  186.2600  177.6840  137.0250 N   0  0  0  0  0  2  0  0  0  0  0  0
  185.6200  177.3720  135.7470 C   0  0  0  0  0  2  0  0  0  0  0  0
  184.2300  176.7640  135.9330 C   0  0  0  0  0  2  0  0  0  0  0  0
  184.2240  175.7070  137.0180 C   0  0  0  0  0  2  0  0  0  0  0  0
  183.5920  176.2260  138.1780 O   0  0  0  0  0  0  0  0  0  0  0  0
  182.7920  178.5750  138.5030 C   0  0  2  0  0  3  0  0  0  0  0  0
  180.2040  177.6050  137.4850 C   0  0  0  0  0  2  0  0  0  0  0  0
  181.3520  176.7280  137.7350 N   0  0  0  0  0  0  0  0  0  0  0  0
  181.7020  179.5060  137.9600 C   0  0  0  0  0  2  0  0  0  0  0  0
  182.5340  177.1310  138.1180 C   0  0  0  0  0  0  0  0  0  0  0  0
  180.3300  178.9200  138.2370 C   0  0  0  0  0  2  0  0  0  0  0  0
  182.1530  178.3690  140.9960 C   0  0  0  0  0  0  0  0  0  0  0  0
  182.7570  178.6280  142.2100 C   0  0  0  0  0  0  0  0  0  0  0  0
  183.1730  179.0530  144.6290 C   0  0  0  0  0  2  0  0  0  0  0  0
  184.6640  178.8450  144.3150 C   0  0  0  0  0  2  0  0  0  0  0  0
  184.1930  179.1550  140.5860 N   0  0  0  0  0  0  0  0  0  0  0  0
  185.0310  179.4580  142.9570 C   0  0  0  0  0  2  0  0  0  0  0  0
  185.3830  179.4840  139.9760 O   0  0  0  0  0  1  0  0  0  0  0  0
  182.2840  178.3370  143.6090 C   0  0  1  0  0  3  0  0  0  0  0  0
  180.8510  178.7770  143.8130 C   0  0  0  0  0  1  0  0  0  0  0  0
  183.0460  178.7290  139.9930 C   0  0  0  0  0  0  0  0  0  0  0  0
  180.8870  177.8150  140.8190 O   0  0  0  0  0  1  0  0  0  0  0  0
  184.0270  179.0690  141.9170 C   0  0  0  0  0  0  0  0  0  0  0  0
  1 36  1  6  0  0  0
  1  9  1  0  0  0  0
  2 11  1  0  0  0  0
  2  6  2  0  0  0  0
  3  5  1  0  0  0  0
  4  8  2  0  0  0  0
  6 12  1  0  0  0  0
  8 11  1  0  0  0  0
  9  4  1  0  0  0  0
  9 10  2  0  0  0  0
 10  2  1  0  0  0  0
 11  3  2  0  0  0  0
 12  5  2  0  0  0  0
 12  7  1  0  0  0  0
 13 15  1  0  0  0  0
 14 16  1  0  0  0  0
 15 21  2  0  0  0  0
 16 13  1  0  0  0  0
 16 20  2  0  0  0  0
 17 22  1  6  0  0  0
 17 18  1  0  0  0  0
 18  1  1  6  0  0  0
 19 17  1  0  0  0  0
 19 14  2  0  0  0  0
 20 18  1  0  0  0  0
 23 22  1  0  0  0  0
 24 14  1  0  0  0  0
 25 24  1  0  0  0  0
 26 32  1  6  0  0  0
 26 15  1  0  0  0  0
 26 27  1  0  0  0  0
 27 28  1  0  0  0  0
 28 30  1  0  0  0  0
 30 31  2  0  0  0  0
 30 29  1  0  0  0  0
 32 33  1  0  0  0  0
 33 35  1  0  0  0  0
 35 34  1  0  0  0  0
 36 37  1  0  0  0  0
 38 39  1  0  0  0  0
 38 36  1  0  0  0  0
 39 40  1  0  0  0  0
 41 42  1  0  0  0  0
 41 40  1  0  0  0  0
 42 43  1  0  0  0  0
 43 44  1  0  0  0  0
 45 60  1  1  0  0  0
 46 47  1  0  0  0  0
 46 50  1  0  0  0  0
 47 49  2  0  0  0  0
 48 50  1  0  0  0  0
 48 45  1  0  0  0  0
 49 44  1  0  0  0  0
 49 45  1  0  0  0  0
 51 52  1  0  0  0  0
 52 58  1  0  0  0  0
 54 53  1  0  0  0  0
 55 62  1  0  0  0  0
 56 54  1  0  0  0  0
 57 55  1  0  0  0  0
 58 59  1  6  0  0  0
 58 53  1  0  0  0  0
 60 55  1  0  0  0  0
 60 51  2  0  0  0  0
 61 51  1  0  0  0  0
 62 52  2  0  0  0  0
 62 56  1  0  0  0  0
M  END
>  <MODEL>
1

>  <REMARK>
 VINA RESULT:      -7.2      0.000      0.000
  Name = 
  21 active torsions:
  status: ('A' for Active; 'I' for Inactive)
    1  A    between atoms: C_1  and  N_19
    2  A    between atoms: C_1  and  C_21
    3  A    between atoms: C_5  and  O_26
    4  A    between atoms: C_7  and  C_13
    5  A    between atoms: C_11  and  O_29
    6  A    between atoms: C_11  and  C_46
    7  A    between atoms: C_12  and  C_51
    8  A    between atoms: C_13  and  C_41
    9  A    between atoms: C_13  and  O_47
   10  A    between atoms: C_16  and  O_53
   11  A    between atoms: C_17  and  C_38
   12  A    between atoms: C_17  and  O_47
   13  A    between atoms: N_19  and  C_35
   14  A    between atoms: N_20  and  C_21
   15  A    between atoms: N_20  and  C_23
   16  A    between atoms: C_23  and  C_28
   17  A    between atoms: C_23  and  C_44
   18  A    between atoms: O_29  and  C_43
   19  A    between atoms: C_35  and  C_46
   20  A    between atoms: O_37  and  C_62
   21  A    between atoms: C_41  and  C_62
                            x       y       z     vdW  Elec       q    Type
                         _______ _______ _______ _____ _____    ______ ____

>  <TORSDO>
F 21

$$$$
=
 OpenBabel10232408043D

 62 67  0  0  1  0  0  0  0  0999 V2000
  190.7810  176.0510  136.3350 C   0  0  2  0  0  3  0  0  0  0  0  0
  194.5250  175.3970  136.6990 C   0  0  0  0  0  0  0  0  0  0  0  0
  196.3830  175.6980  135.1750 C   0  0  0  0  0  3  0  0  0  0  0  0
  192.7700  176.4000  134.7620 C   0  0  0  0  0  3  0  0  0  0  0  0
  197.2250  175.2230  136.1350 N   0  0  0  0  0  0  0  0  0  0  0  0
  195.4100  174.9100  137.6650 C   0  0  0  0  0  3  0  0  0  0  0  0
  197.7340  174.3220  138.3720 C   0  0  0  0  0  1  0  0  0  0  0  0
  194.1370  176.3050  134.4740 C   0  0  0  0  0  3  0  0  0  0  0  0
  192.2680  175.9960  136.0150 C   0  0  0  0  0  0  0  0  0  0  0  0
  193.1620  175.4820  136.9730 C   0  0  0  0  0  3  0  0  0  0  0  0
  195.0140  175.8040  135.4400 C   0  0  0  0  0  0  0  0  0  0  0  0
  196.7740  174.8340  137.3600 C   0  0  0  0  0  0  0  0  0  0  0  0
  190.2570  176.1400  141.1540 N   0  0  0  0  0  2  0  0  0  0  0  0
  189.1680  178.0060  139.8200 C   0  0  0  0  0  0  0  0  0  0  0  0
  190.7180  176.8410  142.3130 C   0  0  0  0  0  0  0  0  0  0  0  0
  190.0220  176.7880  139.8980 C   0  0  0  0  0  0  0  0  0  0  0  0
  189.0310  177.6390  137.3700 C   0  0  2  0  0  3  0  0  0  0  0  0
  190.3990  176.9490  137.5210 C   0  0  1  0  0  3  0  0  0  0  0  0
  188.7450  178.4310  138.6200 C   0  0  0  0  0  3  0  0  0  0  0  0
  190.5150  176.2650  138.8120 N   0  0  0  0  0  0  0  0  0  0  0  0
  191.2980  177.9570  142.1840 O   0  0  0  0  0  0  0  0  0  0  0  0
  188.0200  176.6900  137.1890 O   0  0  0  0  0  0  0  0  0  0  0  0
  187.4340  177.0140  135.9650 C   0  0  0  0  0  1  0  0  0  0  0  0
  188.8000  178.6720  140.9970 O   0  0  0  0  0  0  0  0  0  0  0  0
  187.4480  178.9210  141.3570 C   0  0  0  0  0  1  0  0  0  0  0  0
  190.4780  176.2710  143.6800 C   0  0  1  0  0  3  0  0  0  0  0  0
  191.6880  176.1880  144.3800 O   0  0  0  0  0  0  0  0  0  0  0  0
  191.5470  177.0170  145.5050 C   0  0  0  0  0  2  0  0  0  0  0  0
  191.8870  176.9170  147.9860 O   0  0  0  0  0  1  0  0  0  0  0  0
  191.9540  176.2910  146.7470 C   0  0  0  0  0  0  0  0  0  0  0  0
  192.3340  175.0910  146.6730 O   0  0  0  0  0  0  0  0  0  0  0  0
  189.5060  177.1810  144.4300 C   0  0  0  0  0  2  0  0  0  0  0  0
  188.0740  176.9030  144.0110 C   0  0  0  0  0  2  0  0  0  0  0  0
  186.4010  177.9410  145.0190 C   0  0  0  0  0  1  0  0  0  0  0  0
  187.2590  176.8440  145.1400 O   0  0  0  0  0  0  0  0  0  0  0  0
  190.0880  174.7490  136.3660 N   0  0  0  0  0  0  0  0  0  0  0  0
  190.9530  173.6980  136.8980 C   0  0  0  0  0  1  0  0  0  0  0  0
  189.7150  174.4010  135.0020 C   0  0  0  0  0  2  0  0  0  0  0  0
  188.8970  173.1070  134.9820 C   0  0  0  0  0  2  0  0  0  0  0  0
  187.5790  173.3550  135.5520 N   0  0  0  0  0  2  0  0  0  0  0  0
  187.0240  172.0920  136.0380 C   0  0  0  0  0  2  0  0  0  0  0  0
  185.6540  172.2790  136.6900 C   0  0  0  0  0  2  0  0  0  0  0  0
  185.3270  173.7440  136.8900 C   0  0  0  0  0  2  0  0  0  0  0  0
  184.0290  173.8650  137.4490 O   0  0  0  0  0  0  0  0  0  0  0  0
  182.6990  175.8070  136.5950 C   0  0  2  0  0  3  0  0  0  0  0  0
  181.0390  173.7930  135.2310 C   0  0  0  0  0  2  0  0  0  0  0  0
  182.1300  173.4510  136.1480 N   0  0  0  0  0  0  0  0  0  0  0  0
  181.7720  176.1400  135.4220 C   0  0  0  0  0  2  0  0  0  0  0  0
  182.9310  174.3130  136.7150 C   0  0  0  0  0  0  0  0  0  0  0  0
  180.5640  175.2230  135.4350 C   0  0  0  0  0  2  0  0  0  0  0  0
  182.9120  177.4750  138.5540 C   0  0  0  0  0  0  0  0  0  0  0  0
  182.2030  177.7710  139.7010 C   0  0  0  0  0  0  0  0  0  0  0  0
  181.5330  178.6280  141.9420 C   0  0  0  0  0  2  0  0  0  0  0  0
  180.0940  178.2540  141.5530 C   0  0  0  0  0  2  0  0  0  0  0  0
  181.1560  176.1130  138.6360 N   0  0  0  0  0  0  0  0  0  0  0  0
  180.0610  176.9370  140.7660 C   0  0  0  0  0  2  0  0  0  0  0  0
  180.1590  175.2230  138.3040 O   0  0  0  0  0  1  0  0  0  0  0  0
  182.3980  178.8760  140.7030 C   0  0  1  0  0  3  0  0  0  0  0  0
  183.8450  178.9900  141.1300 C   0  0  0  0  0  1  0  0  0  0  0  0
  182.2670  176.4230  137.9150 C   0  0  0  0  0  0  0  0  0  0  0  0
  184.0520  178.1420  138.1070 O   0  0  0  0  0  1  0  0  0  0  0  0
  181.1060  176.9410  139.6930 C   0  0  0  0  0  0  0  0  0  0  0  0
  1 36  1  1  0  0  0
  2 10  1  0  0  0  0
  2  6  2  0  0  0  0
  3 11  2  0  0  0  0
  3  5  1  0  0  0  0
  4  9  1  0  0  0  0
  5 12  2  0  0  0  0
  8  4  2  0  0  0  0
  8 11  1  0  0  0  0
  9  1  1  0  0  0  0
  9 10  2  0  0  0  0
 11  2  1  0  0  0  0
 12  6  1  0  0  0  0
 12  7  1  0  0  0  0
 13 15  1  0  0  0  0
 14 16  1  0  0  0  0
 14 24  1  0  0  0  0
 15 26  1  0  0  0  0
 16 13  1  0  0  0  0
 17 22  1  1  0  0  0
 17 18  1  0  0  0  0
 17 19  1  0  0  0  0
 18  1  1  6  0  0  0
 18 20  1  0  0  0  0
 19 14  2  0  0  0  0
 20 16  2  0  0  0  0
 21 15  2  0  0  0  0
 23 22  1  0  0  0  0
 24 25  1  0  0  0  0
 26 27  1  0  0  0  0
 26 32  1  1  0  0  0
 27 28  1  0  0  0  0
 28 30  1  0  0  0  0
 30 29  1  0  0  0  0
 31 30  2  0  0  0  0
 33 32  1  0  0  0  0
 33 35  1  0  0  0  0
 34 35  1  0  0  0  0
 36 37  1  0  0  0  0
 38 36  1  0  0  0  0
 39 38  1  0  0  0  0
 39 40  1  0  0  0  0
 40 41  1  0  0  0  0
 41 42  1  0  0  0  0
 42 43  1  0  0  0  0
 43 44  1  0  0  0  0
 45 49  1  0  0  0  0
 45 60  1  1  0  0  0
 46 50  1  0  0  0  0
 46 47  1  0  0  0  0
 47 49  2  0  0  0  0
 48 50  1  0  0  0  0
 48 45  1  0  0  0  0
 49 44  1  0  0  0  0
 51 52  1  0  0  0  0
 52 58  1  0  0  0  0
 54 53  1  0  0  0  0
 55 62  1  0  0  0  0
 56 54  1  0  0  0  0
 57 55  1  0  0  0  0
 58 59  1  1  0  0  0
 58 53  1  0  0  0  0
 60 51  2  0  0  0  0
 60 55  1  0  0  0  0
 61 51  1  0  0  0  0
 62 52  2  0  0  0  0
 62 56  1  0  0  0  0
M  END
>  <MODEL>
2

>  <REMARK>
 VINA RESULT:      -7.1      3.107      6.876
  Name = 
  21 active torsions:
  status: ('A' for Active; 'I' for Inactive)
    1  A    between atoms: C_1  and  N_19
    2  A    between atoms: C_1  and  C_21
    3  A    between atoms: C_5  and  O_26
    4  A    between atoms: C_7  and  C_13
    5  A    between atoms: C_11  and  O_29
    6  A    between atoms: C_11  and  C_46
    7  A    between atoms: C_12  and  C_51
    8  A    between atoms: C_13  and  C_41
    9  A    between atoms: C_13  and  O_47
   10  A    between atoms: C_16  and  O_53
   11  A    between atoms: C_17  and  C_38
   12  A    between atoms: C_17  and  O_47
   13  A    between atoms: N_19  and  C_35
   14  A    between atoms: N_20  and  C_21
   15  A    between atoms: N_20  and  C_23
   16  A    between atoms: C_23  and  C_28
   17  A    between atoms: C_23  and  C_44
   18  A    between atoms: O_29  and  C_43
   19  A    between atoms: C_35  and  C_46
   20  A    between atoms: O_37  and  C_62
   21  A    between atoms: C_41  and  C_62
                            x       y       z     vdW  Elec       q    Type
                         _______ _______ _______ _____ _____    ______ ____

>  <TORSDO>
F 21

$$$$
=
 OpenBabel10232408043D

 62 67  0  0  1  0  0  0  0  0999 V2000
  188.0680  176.5730  137.2600 C   0  0  2  0  0  3  0  0  0  0  0  0
  191.5450  175.0710  136.7760 C   0  0  0  0  0  0  0  0  0  0  0  0
  193.0590  175.0560  134.8860 C   0  0  0  0  0  3  0  0  0  0  0  0
  189.7080  176.5780  135.2950 C   0  0  0  0  0  3  0  0  0  0  0  0
  193.9480  174.3370  135.6260 N   0  0  0  0  0  0  0  0  0  0  0  0
  192.4730  174.3310  137.5120 C   0  0  0  0  0  3  0  0  0  0  0  0
  194.6890  173.1870  137.6770 C   0  0  0  0  0  1  0  0  0  0  0  0
  190.9230  176.2000  134.7100 C   0  0  0  0  0  3  0  0  0  0  0  0
  189.3990  176.2090  136.6190 C   0  0  0  0  0  0  0  0  0  0  0  0
  190.3280  175.4410  137.3450 C   0  0  0  0  0  3  0  0  0  0  0  0
  191.8400  175.4480  135.4490 C   0  0  0  0  0  0  0  0  0  0  0  0
  193.6850  173.9730  136.9120 C   0  0  0  0  0  0  0  0  0  0  0  0
  183.2770  177.2340  136.9370 N   0  0  0  0  0  2  0  0  0  0  0  0
  184.2840  175.2970  135.6410 C   0  0  0  0  0  0  0  0  0  0  0  0
  182.2740  177.7020  136.0300 C   0  0  0  0  0  0  0  0  0  0  0  0
  184.4290  176.5000  136.5080 C   0  0  0  0  0  0  0  0  0  0  0  0
  186.6170  174.7000  136.2400 C   0  0  2  0  0  3  0  0  0  0  0  0
  186.8230  176.2130  136.4360 C   0  0  1  0  0  3  0  0  0  0  0  0
  185.3340  174.4790  135.4790 C   0  0  0  0  0  3  0  0  0  0  0  0
  185.6060  176.8600  136.9340 N   0  0  0  0  0  0  0  0  0  0  0  0
  182.5460  177.8270  134.8010 O   0  0  0  0  0  0  0  0  0  0  0  0
  186.5330  174.0520  137.4750 O   0  0  0  0  0  0  0  0  0  0  0  0
  186.3910  172.6980  137.1650 C   0  0  0  0  0  1  0  0  0  0  0  0
  183.0520  175.0250  135.0320 O   0  0  0  0  0  0  0  0  0  0  0  0
  182.4700  173.7290  135.0040 C   0  0  0  0  0  1  0  0  0  0  0  0
  180.8910  178.0050  136.5280 C   0  0  1  0  0  3  0  0  0  0  0  0
  180.9100  178.1520  137.9210 O   0  0  0  0  0  0  0  0  0  0  0  0
  180.2260  177.0420  138.4410 C   0  0  0  0  0  2  0  0  0  0  0  0
  180.6100  175.2920  140.1940 O   0  0  0  0  0  0  0  0  0  0  0  0
  180.8850  176.5600  139.6940 C   0  0  0  0  0  0  0  0  0  0  0  0
  181.7200  177.2970  140.2850 O   0  0  0  0  0  1  0  0  0  0  0  0
  180.4050  179.2980  135.8760 C   0  0  0  0  0  2  0  0  0  0  0  0
  180.2860  180.4100  136.9030 C   0  0  0  0  0  2  0  0  0  0  0  0
  180.7040  181.4710  135.0080 C   0  0  0  0  0  1  0  0  0  0  0  0
  180.8490  181.5790  136.3940 O   0  0  0  0  0  0  0  0  0  0  0  0
  187.9890  177.9280  137.8400 N   0  0  0  0  0  0  0  0  0  0  0  0
  187.9090  178.9490  136.7970 C   0  0  0  0  0  1  0  0  0  0  0  0
  189.1940  178.1570  138.6250 C   0  0  0  0  0  2  0  0  0  0  0  0
  189.1090  177.4250  139.9670 C   0  0  0  0  0  2  0  0  0  0  0  0
  190.1280  177.9450  140.8700 N   0  0  0  0  0  2  0  0  0  0  0  0
  190.6950  176.8370  141.6370 C   0  0  0  0  0  2  0  0  0  0  0  0
  190.7780  177.1540  143.1310 C   0  0  0  0  0  2  0  0  0  0  0  0
  189.7630  178.2020  143.5340 C   0  0  0  0  0  2  0  0  0  0  0  0
  190.0750  178.6860  144.8320 O   0  0  0  0  0  0  0  0  0  0  0  0
  188.4050  177.1190  145.8450 C   0  0  2  0  0  3  0  0  0  0  0  0
  189.3670  178.1180  148.4430 C   0  0  0  0  0  2  0  0  0  0  0  0
  189.8170  178.6560  147.1560 N   0  0  0  0  0  0  0  0  0  0  0  0
  188.1770  176.3760  147.1650 C   0  0  0  0  0  2  0  0  0  0  0  0
  189.4670  178.1930  145.9860 C   0  0  0  0  0  0  0  0  0  0  0  0
  188.0520  177.3670  148.3070 C   0  0  0  0  0  2  0  0  0  0  0  0
  186.7330  177.4330  143.9020 C   0  0  0  0  0  0  0  0  0  0  0  0
  185.5140  178.0550  143.7200 C   0  0  0  0  0  0  0  0  0  0  0  0
  183.4940  179.1000  142.7050 C   0  0  0  0  0  2  0  0  0  0  0  0
  182.8650  179.0270  144.1050 C   0  0  0  0  0  2  0  0  0  0  0  0
  186.1500  178.3660  145.8360 N   0  0  0  0  0  0  0  0  0  0  0  0
  183.9020  179.3400  145.1910 C   0  0  0  0  0  2  0  0  0  0  0  0
  186.0660  178.6970  147.1690 O   0  0  0  0  0  1  0  0  0  0  0  0
  184.5910  178.0470  142.5310 C   0  0  1  0  0  3  0  0  0  0  0  0
  185.3390  178.3250  141.2450 C   0  0  0  0  0  1  0  0  0  0  0  0
  187.1320  177.6590  145.2150 C   0  0  0  0  0  0  0  0  0  0  0  0
  187.4170  176.6860  142.9450 O   0  0  0  0  0  1  0  0  0  0  0  0
  185.1680  178.5800  144.9430 C   0  0  0  0  0  0  0  0  0  0  0  0
  1 36  1  6  0  0  0
  2 10  1  0  0  0  0
  2  6  2  0  0  0  0
  3 11  2  0  0  0  0
  3  5  1  0  0  0  0
  4  9  1  0  0  0  0
  5 12  2  0  0  0  0
  8  4  2  0  0  0  0
  8 11  1  0  0  0  0
  9  1  1  0  0  0  0
  9 10  2  0  0  0  0
 11  2  1  0  0  0  0
 12  6  1  0  0  0  0
 12  7  1  0  0  0  0
 14 16  1  0  0  0  0
 15 26  1  0  0  0  0
 15 13  1  0  0  0  0
 16 20  2  0  0  0  0
 16 13  1  0  0  0  0
 17 18  1  0  0  0  0
 17 22  1  1  0  0  0
 18 20  1  0  0  0  0
 18  1  1  1  0  0  0
 19 14  2  0  0  0  0
 19 17  1  0  0  0  0
 21 15  2  0  0  0  0
 23 22  1  0  0  0  0
 24 14  1  0  0  0  0
 25 24  1  0  0  0  0
 26 32  1  6  0  0  0
 26 27  1  0  0  0  0
 27 28  1  0  0  0  0
 28 30  1  0  0  0  0
 30 29  2  0  0  0  0
 30 31  1  0  0  0  0
 32 33  1  0  0  0  0
 34 35  1  0  0  0  0
 35 33  1  0  0  0  0
 36 38  1  0  0  0  0
 37 36  1  0  0  0  0
 38 39  1  0  0  0  0
 39 40  1  0  0  0  0
 40 41  1  0  0  0  0
 41 42  1  0  0  0  0
 42 43  1  0  0  0  0
 43 44  1  0  0  0  0
 44 49  1  0  0  0  0
 45 60  1  1  0  0  0
 45 49  1  0  0  0  0
 45 48  1  0  0  0  0
 47 46  1  0  0  0  0
 48 50  1  0  0  0  0
 49 47  2  0  0  0  0
 50 46  1  0  0  0  0
 51 60  2  0  0  0  0
 52 51  1  0  0  0  0
 52 62  2  0  0  0  0
 53 54  1  0  0  0  0
 54 56  1  0  0  0  0
 55 57  1  0  0  0  0
 58 59  1  6  0  0  0
 58 53  1  0  0  0  0
 58 52  1  0  0  0  0
 60 55  1  0  0  0  0
 61 51  1  0  0  0  0
 62 56  1  0  0  0  0
 62 55  1  0  0  0  0
M  END
>  <MODEL>
3

>  <REMARK>
 VINA RESULT:      -6.8      3.554     10.027
  Name = 
  21 active torsions:
  status: ('A' for Active; 'I' for Inactive)
    1  A    between atoms: C_1  and  N_19
    2  A    between atoms: C_1  and  C_21
    3  A    between atoms: C_5  and  O_26
    4  A    between atoms: C_7  and  C_13
    5  A    between atoms: C_11  and  O_29
    6  A    between atoms: C_11  and  C_46
    7  A    between atoms: C_12  and  C_51
    8  A    between atoms: C_13  and  C_41
    9  A    between atoms: C_13  and  O_47
   10  A    between atoms: C_16  and  O_53
   11  A    between atoms: C_17  and  C_38
   12  A    between atoms: C_17  and  O_47
   13  A    between atoms: N_19  and  C_35
   14  A    between atoms: N_20  and  C_21
   15  A    between atoms: N_20  and  C_23
   16  A    between atoms: C_23  and  C_28
   17  A    between atoms: C_23  and  C_44
   18  A    between atoms: O_29  and  C_43
   19  A    between atoms: C_35  and  C_46
   20  A    between atoms: O_37  and  C_62
   21  A    between atoms: C_41  and  C_62
                            x       y       z     vdW  Elec       q    Type
                         _______ _______ _______ _____ _____    ______ ____

>  <TORSDO>
F 21

$$$$
=
 OpenBabel10232408043D

 62 67  0  0  1  0  0  0  0  0999 V2000
  193.1470  174.6380  136.5840 C   0  0  2  0  0  3  0  0  0  0  0  0
  196.8000  173.5320  136.4910 C   0  0  0  0  0  0  0  0  0  0  0  0
  198.4940  173.6640  134.7660 C   0  0  0  0  0  3  0  0  0  0  0  0
  194.9700  174.8030  134.7960 C   0  0  0  0  0  3  0  0  0  0  0  0
  199.3760  173.0600  135.6100 N   0  0  0  0  0  0  0  0  0  0  0  0
  197.7240  172.9110  137.3360 C   0  0  0  0  0  3  0  0  0  0  0  0
  200.0240  172.0270  137.7520 C   0  0  0  0  0  1  0  0  0  0  0  0
  196.2740  174.5570  134.3460 C   0  0  0  0  0  3  0  0  0  0  0  0
  194.5690  174.4190  136.0900 C   0  0  0  0  0  0  0  0  0  0  0  0
  195.4980  173.7690  136.9250 C   0  0  0  0  0  3  0  0  0  0  0  0
  197.1870  173.9230  135.1920 C   0  0  0  0  0  0  0  0  0  0  0  0
  199.0240  172.6840  136.8710 C   0  0  0  0  0  0  0  0  0  0  0  0
  188.4990  173.2640  136.6880 N   0  0  0  0  0  2  0  0  0  0  0  0
  190.0220  172.1240  135.0070 C   0  0  0  0  0  0  0  0  0  0  0  0
  187.2830  173.3860  135.9440 C   0  0  0  0  0  0  0  0  0  0  0  0
  189.7820  173.1470  136.0630 C   0  0  0  0  0  0  0  0  0  0  0  0
  192.4540  172.4870  135.3410 C   0  0  2  0  0  3  0  0  0  0  0  0
  192.0560  173.9040  135.7900 C   0  0  1  0  0  3  0  0  0  0  0  0
  191.2820  171.8530  134.6360 C   0  0  0  0  0  3  0  0  0  0  0  0
  190.7590  173.9060  136.4720 N   0  0  0  0  0  0  0  0  0  0  0  0
  187.3170  173.7790  134.7430 O   0  0  0  0  0  0  0  0  0  0  0  0
  192.8030  171.7020  136.4440 O   0  0  0  0  0  0  0  0  0  0  0  0
  193.7690  170.8150  135.9670 C   0  0  0  0  0  1  0  0  0  0  0  0
  188.9360  171.4450  134.4390 O   0  0  0  0  0  0  0  0  0  0  0  0
  188.6050  170.1030  134.7640 C   0  0  0  0  0  1  0  0  0  0  0  0
  185.9750  173.0100  136.5760 C   0  0  1  0  0  3  0  0  0  0  0  0
  184.9810  173.9180  136.1880 O   0  0  0  0  0  0  0  0  0  0  0  0
  184.5870  174.5890  137.3560 C   0  0  0  0  0  2  0  0  0  0  0  0
  184.6750  177.0950  137.3450 O   0  0  0  0  0  1  0  0  0  0  0  0
  183.9990  175.9230  137.0220 C   0  0  0  0  0  0  0  0  0  0  0  0
  182.8950  175.9860  136.4160 O   0  0  0  0  0  0  0  0  0  0  0  0
  185.5960  171.6010  136.1220 C   0  0  0  0  0  2  0  0  0  0  0  0
  184.5390  171.6500  135.0330 C   0  0  0  0  0  2  0  0  0  0  0  0
  183.8510  169.5550  135.2000 C   0  0  0  0  0  1  0  0  0  0  0  0
  184.5180  170.4370  134.3460 O   0  0  0  0  0  0  0  0  0  0  0  0
  192.7840  176.0370  136.8810 N   0  0  0  0  0  0  0  0  0  0  0  0
  193.9120  176.9390  136.6540 C   0  0  0  0  0  1  0  0  0  0  0  0
  192.3970  176.1190  138.2830 C   0  0  0  0  0  2  0  0  0  0  0  0
  190.8790  176.2650  138.4150 C   0  0  0  0  0  2  0  0  0  0  0  0
  190.4230  177.3720  137.5840 N   0  0  0  0  0  2  0  0  0  0  0  0
  189.1120  177.8140  138.0570 C   0  0  0  0  0  2  0  0  0  0  0  0
  188.7570  177.2110  139.4160 C   0  0  0  0  0  2  0  0  0  0  0  0
  188.0560  178.2160  140.3060 C   0  0  0  0  0  2  0  0  0  0  0  0
  188.9270  178.6000  141.3590 O   0  0  0  0  0  0  0  0  0  0  0  0
  189.2670  176.5930  142.8160 C   0  0  2  0  0  3  0  0  0  0  0  0
  192.1330  176.9140  142.2190 C   0  0  0  0  0  2  0  0  0  0  0  0
  191.1060  177.8600  141.7730 N   0  0  0  0  0  0  0  0  0  0  0  0
  190.2950  175.4740  143.0120 C   0  0  0  0  0  2  0  0  0  0  0  0
  189.8210  177.7140  141.9580 C   0  0  0  0  0  0  0  0  0  0  0  0
  191.6440  176.0620  143.3790 C   0  0  0  0  0  2  0  0  0  0  0  0
  187.3210  177.3890  144.3140 C   0  0  0  0  0  0  0  0  0  0  0  0
  187.1690  177.8050  145.6220 C   0  0  0  0  0  0  0  0  0  0  0  0
  186.2780  178.8040  147.7230 C   0  0  0  0  0  2  0  0  0  0  0  0
  187.3970  178.0430  148.4510 C   0  0  0  0  0  2  0  0  0  0  0  0
  189.3190  177.3110  145.2900 N   0  0  0  0  0  0  0  0  0  0  0  0
  188.6930  178.0510  147.6300 C   0  0  0  0  0  2  0  0  0  0  0  0
  190.6360  177.0340  145.5810 O   0  0  0  0  0  1  0  0  0  0  0  0
  185.9190  178.1320  146.3950 C   0  0  1  0  0  3  0  0  0  0  0  0
  185.0050  179.0480  145.6120 C   0  0  0  0  0  1  0  0  0  0  0  0
  188.6680  177.1130  144.1120 C   0  0  0  0  0  0  0  0  0  0  0  0
  186.2960  177.2440  143.3820 O   0  0  0  0  0  1  0  0  0  0  0  0
  188.4110  177.7010  146.2020 C   0  0  0  0  0  0  0  0  0  0  0  0
  1 36  1  6  0  0  0
  2 10  1  0  0  0  0
  2  6  2  0  0  0  0
  3 11  2  0  0  0  0
  3  5  1  0  0  0  0
  4  9  1  0  0  0  0
  5 12  2  0  0  0  0
  8  4  2  0  0  0  0
  8 11  1  0  0  0  0
  9  1  1  0  0  0  0
  9 10  2  0  0  0  0
 11  2  1  0  0  0  0
 12  6  1  0  0  0  0
 12  7  1  0  0  0  0
 14 16  1  0  0  0  0
 15 26  1  0  0  0  0
 15 13  1  0  0  0  0
 16 20  2  0  0  0  0
 16 13  1  0  0  0  0
 17 18  1  0  0  0  0
 17 22  1  1  0  0  0
 18 20  1  0  0  0  0
 18  1  1  1  0  0  0
 19 14  2  0  0  0  0
 19 17  1  0  0  0  0
 21 15  2  0  0  0  0
 23 22  1  0  0  0  0
 24 25  1  0  0  0  0
 24 14  1  0  0  0  0
 26 32  1  6  0  0  0
 27 26  1  0  0  0  0
 27 28  1  0  0  0  0
 30 29  1  0  0  0  0
 30 28  1  0  0  0  0
 31 30  2  0  0  0  0
 33 32  1  0  0  0  0
 35 33  1  0  0  0  0
 35 34  1  0  0  0  0
 36 38  1  0  0  0  0
 37 36  1  0  0  0  0
 38 39  1  0  0  0  0
 40 41  1  0  0  0  0
 40 39  1  0  0  0  0
 41 42  1  0  0  0  0
 42 43  1  0  0  0  0
 43 44  1  0  0  0  0
 44 49  1  0  0  0  0
 45 48  1  0  0  0  0
 45 60  1  1  0  0  0
 46 50  1  0  0  0  0
 47 49  2  0  0  0  0
 47 46  1  0  0  0  0
 48 50  1  0  0  0  0
 49 45  1  0  0  0  0
 51 52  1  0  0  0  0
 52 62  2  0  0  0  0
 52 58  1  0  0  0  0
 53 54  1  0  0  0  0
 55 57  1  0  0  0  0
 55 62  1  0  0  0  0
 56 54  1  0  0  0  0
 58 59  1  6  0  0  0
 58 53  1  0  0  0  0
 60 51  2  0  0  0  0
 60 55  1  0  0  0  0
 61 51  1  0  0  0  0
 62 56  1  0  0  0  0
M  END
>  <MODEL>
4

>  <REMARK>
 VINA RESULT:      -6.6      3.266      8.736
  Name = 
  21 active torsions:
  status: ('A' for Active; 'I' for Inactive)
    1  A    between atoms: C_1  and  N_19
    2  A    between atoms: C_1  and  C_21
    3  A    between atoms: C_5  and  O_26
    4  A    between atoms: C_7  and  C_13
    5  A    between atoms: C_11  and  O_29
    6  A    between atoms: C_11  and  C_46
    7  A    between atoms: C_12  and  C_51
    8  A    between atoms: C_13  and  C_41
    9  A    between atoms: C_13  and  O_47
   10  A    between atoms: C_16  and  O_53
   11  A    between atoms: C_17  and  C_38
   12  A    between atoms: C_17  and  O_47
   13  A    between atoms: N_19  and  C_35
   14  A    between atoms: N_20  and  C_21
   15  A    between atoms: N_20  and  C_23
   16  A    between atoms: C_23  and  C_28
   17  A    between atoms: C_23  and  C_44
   18  A    between atoms: O_29  and  C_43
   19  A    between atoms: C_35  and  C_46
   20  A    between atoms: O_37  and  C_62
   21  A    between atoms: C_41  and  C_62
                            x       y       z     vdW  Elec       q    Type
                         _______ _______ _______ _____ _____    ______ ____

>  <TORSDO>
F 21

$$$$
=
 OpenBabel10232408043D

 62 67  0  0  1  0  0  0  0  0999 V2000
  191.0260  175.1930  136.8010 C   0  0  2  0  0  3  0  0  0  0  0  0
  194.3260  173.3890  136.1460 C   0  0  0  0  0  0  0  0  0  0  0  0
  195.9970  173.6370  134.4100 C   0  0  0  0  0  3  0  0  0  0  0  0
  192.8300  175.4620  135.0060 C   0  0  0  0  0  3  0  0  0  0  0  0
  196.7200  172.6380  134.9880 N   0  0  0  0  0  0  0  0  0  0  0  0
  195.0860  172.3640  136.7160 C   0  0  0  0  0  3  0  0  0  0  0  0
  197.1230  170.9160  136.7050 C   0  0  0  0  0  1  0  0  0  0  0  0
  194.0400  175.0770  134.4150 C   0  0  0  0  0  3  0  0  0  0  0  0
  192.3580  174.8190  136.1660 C   0  0  0  0  0  0  0  0  0  0  0  0
  193.1150  173.7700  136.7190 C   0  0  0  0  0  3  0  0  0  0  0  0
  194.7870  174.0420  134.9830 C   0  0  0  0  0  0  0  0  0  0  0  0
  196.2970  172.0020  136.1150 C   0  0  0  0  0  0  0  0  0  0  0  0
  186.2910  174.1990  137.1090 N   0  0  0  0  0  2  0  0  0  0  0  0
  187.4900  173.5470  134.9690 C   0  0  0  0  0  0  0  0  0  0  0  0
  185.0240  174.6390  136.6120 C   0  0  0  0  0  0  0  0  0  0  0  0
  187.4790  174.1940  136.3100 C   0  0  0  0  0  0  0  0  0  0  0  0
  189.9690  173.6060  135.0630 C   0  0  2  0  0  3  0  0  0  0  0  0
  189.7820  174.8320  135.9750 C   0  0  1  0  0  3  0  0  0  0  0  0
  188.6650  173.3170  134.3640 C   0  0  0  0  0  3  0  0  0  0  0  0
  188.5720  174.7100  136.7950 N   0  0  0  0  0  0  0  0  0  0  0  0
  184.9740  175.3910  135.5970 O   0  0  0  0  0  0  0  0  0  0  0  0
  190.3430  172.4880  135.8130 O   0  0  0  0  0  0  0  0  0  0  0  0
  191.1040  171.7060  134.9430 C   0  0  0  0  0  1  0  0  0  0  0  0
  186.2810  173.1650  134.3730 O   0  0  0  0  0  0  0  0  0  0  0  0
  185.7550  171.8480  134.4580 C   0  0  0  0  0  1  0  0  0  0  0  0
  183.7570  174.1780  137.2690 C   0  0  1  0  0  3  0  0  0  0  0  0
  182.9960  175.2850  137.6650 O   0  0  0  0  0  0  0  0  0  0  0  0
  183.8040  176.0200  138.5460 C   0  0  0  0  0  2  0  0  0  0  0  0
  183.1960  178.3150  139.3510 O   0  0  0  0  0  1  0  0  0  0  0  0
  183.6270  177.4880  138.3200 C   0  0  0  0  0  0  0  0  0  0  0  0
  183.8970  177.9840  137.1930 O   0  0  0  0  0  0  0  0  0  0  0  0
  182.9640  173.3330  136.2720 C   0  0  0  0  0  2  0  0  0  0  0  0
  182.7250  171.9370  136.8170 C   0  0  0  0  0  2  0  0  0  0  0  0
  180.5540  172.2200  137.1300 C   0  0  0  0  0  1  0  0  0  0  0  0
  181.7500  171.9840  137.8130 O   0  0  0  0  0  0  0  0  0  0  0  0
  190.9500  176.5520  137.3710 N   0  0  0  0  0  0  0  0  0  0  0  0
  190.7160  176.5120  138.8130 C   0  0  0  0  0  1  0  0  0  0  0  0
  189.8400  177.2490  136.7370 C   0  0  0  0  0  2  0  0  0  0  0  0
  189.3060  178.3540  137.6520 C   0  0  0  0  0  2  0  0  0  0  0  0
  187.8490  178.3280  137.6460 N   0  0  0  0  0  2  0  0  0  0  0  0
  187.3820  177.4780  138.7400 C   0  0  0  0  0  2  0  0  0  0  0  0
  187.3580  178.2210  140.0760 C   0  0  0  0  0  2  0  0  0  0  0  0
  188.7100  178.8210  140.4030 C   0  0  0  0  0  2  0  0  0  0  0  0
  188.9700  178.6690  141.7890 O   0  0  0  0  0  0  0  0  0  0  0  0
  189.4420  176.6220  143.1530 C   0  0  2  0  0  3  0  0  0  0  0  0
  192.2450  176.9800  142.3250 C   0  0  0  0  0  2  0  0  0  0  0  0
  191.1800  177.9310  141.9960 N   0  0  0  0  0  0  0  0  0  0  0  0
  190.4870  175.5050  143.2280 C   0  0  0  0  0  2  0  0  0  0  0  0
  189.9160  177.7720  142.2840 C   0  0  0  0  0  0  0  0  0  0  0  0
  191.8600  176.0920  143.4960 C   0  0  0  0  0  2  0  0  0  0  0  0
  187.6330  177.4040  144.8210 C   0  0  0  0  0  0  0  0  0  0  0  0
  187.5870  177.7660  146.1530 C   0  0  0  0  0  0  0  0  0  0  0  0
  186.8790  178.6950  148.3530 C   0  0  0  0  0  2  0  0  0  0  0  0
  188.0230  177.8710  148.9660 C   0  0  0  0  0  2  0  0  0  0  0  0
  189.6920  177.2270  145.6450 N   0  0  0  0  0  0  0  0  0  0  0  0
  189.2570  177.8800  148.0540 C   0  0  0  0  0  2  0  0  0  0  0  0
  191.0170  176.9010  145.8280 O   0  0  0  0  0  1  0  0  0  0  0  0
  186.4060  178.0920  147.0280 C   0  0  1  0  0  3  0  0  0  0  0  0
  185.4670  179.0680  146.3520 C   0  0  0  0  0  1  0  0  0  0  0  0
  188.9530  177.1000  144.5100 C   0  0  0  0  0  0  0  0  0  0  0  0
  186.5400  177.3290  143.9600 O   0  0  0  0  0  1  0  0  0  0  0  0
  188.8640  177.6020  146.6360 C   0  0  0  0  0  0  0  0  0  0  0  0
  1 36  1  6  0  0  0
  2  6  2  0  0  0  0
  2 10  1  0  0  0  0
  3 11  2  0  0  0  0
  3  5  1  0  0  0  0
  4  9  1  0  0  0  0
  5 12  2  0  0  0  0
  8 11  1  0  0  0  0
  8  4  2  0  0  0  0
  9 10  2  0  0  0  0
  9  1  1  0  0  0  0
 11  2  1  0  0  0  0
 12  7  1  0  0  0  0
 12  6  1  0  0  0  0
 14 16  1  0  0  0  0
 15 13  1  0  0  0  0
 15 26  1  0  0  0  0
 16 20  2  0  0  0  0
 16 13  1  0  0  0  0
 17 22  1  1  0  0  0
 17 18  1  0  0  0  0
 18 20  1  0  0  0  0
 18  1  1  1  0  0  0
 19 14  2  0  0  0  0
 19 17  1  0  0  0  0
 21 15  2  0  0  0  0
 23 22  1  0  0  0  0
 24 25  1  0  0  0  0
 24 14  1  0  0  0  0
 26 32  1  6  0  0  0
 26 27  1  0  0  0  0
 27 28  1  0  0  0  0
 30 28  1  0  0  0  0
 30 29  1  0  0  0  0
 31 30  2  0  0  0  0
 32 33  1  0  0  0  0
 33 35  1  0  0  0  0
 34 35  1  0  0  0  0
 36 37  1  0  0  0  0
 38 36  1  0  0  0  0
 38 39  1  0  0  0  0
 40 39  1  0  0  0  0
 40 41  1  0  0  0  0
 41 42  1  0  0  0  0
 42 43  1  0  0  0  0
 43 44  1  0  0  0  0
 44 49  1  0  0  0  0
 45 48  1  0  0  0  0
 45 60  1  1  0  0  0
 46 50  1  0  0  0  0
 47 49  2  0  0  0  0
 47 46  1  0  0  0  0
 48 50  1  0  0  0  0
 49 45  1  0  0  0  0
 51 52  1  0  0  0  0
 52 62  2  0  0  0  0
 52 58  1  0  0  0  0
 53 54  1  0  0  0  0
 55 57  1  0  0  0  0
 55 62  1  0  0  0  0
 56 54  1  0  0  0  0
 58 59  1  6  0  0  0
 58 53  1  0  0  0  0
 60 51  2  0  0  0  0
 60 55  1  0  0  0  0
 61 51  1  0  0  0  0
 62 56  1  0  0  0  0
M  END
>  <MODEL>
5

>  <REMARK>
 VINA RESULT:      -6.2      3.283      9.023
  Name = 
  21 active torsions:
  status: ('A' for Active; 'I' for Inactive)
    1  A    between atoms: C_1  and  N_19
    2  A    between atoms: C_1  and  C_21
    3  A    between atoms: C_5  and  O_26
    4  A    between atoms: C_7  and  C_13
    5  A    between atoms: C_11  and  O_29
    6  A    between atoms: C_11  and  C_46
    7  A    between atoms: C_12  and  C_51
    8  A    between atoms: C_13  and  C_41
    9  A    between atoms: C_13  and  O_47
   10  A    between atoms: C_16  and  O_53
   11  A    between atoms: C_17  and  C_38
   12  A    between atoms: C_17  and  O_47
   13  A    between atoms: N_19  and  C_35
   14  A    between atoms: N_20  and  C_21
   15  A    between atoms: N_20  and  C_23
   16  A    between atoms: C_23  and  C_28
   17  A    between atoms: C_23  and  C_44
   18  A    between atoms: O_29  and  C_43
   19  A    between atoms: C_35  and  C_46
   20  A    between atoms: O_37  and  C_62
   21  A    between atoms: C_41  and  C_62
                            x       y       z     vdW  Elec       q    Type
                         _______ _______ _______ _____ _____    ______ ____

>  <TORSDO>
F 21

$$$$
=
 OpenBabel10232408043D

 62 67  0  0  1  0  0  0  0  0999 V2000
  192.8440  175.1830  136.8260 C   0  0  2  0  0  3  0  0  0  0  0  0
  196.6140  174.6340  136.5650 C   0  0  0  0  0  0  0  0  0  0  0  0
  198.1650  174.8690  134.7200 C   0  0  0  0  0  3  0  0  0  0  0  0
  194.5150  175.4650  134.9080 C   0  0  0  0  0  3  0  0  0  0  0  0
  199.1770  174.4790  135.5450 N   0  0  0  0  0  0  0  0  0  0  0  0
  197.6690  174.2330  137.3880 C   0  0  0  0  0  3  0  0  0  0  0  0
  200.0980  173.7430  137.7090 C   0  0  0  0  0  1  0  0  0  0  0  0
  195.8130  175.3790  134.3890 C   0  0  0  0  0  3  0  0  0  0  0  0
  194.2530  175.1380  136.2530 C   0  0  0  0  0  0  0  0  0  0  0  0
  195.3170  174.7090  137.0680 C   0  0  0  0  0  3  0  0  0  0  0  0
  196.8610  174.9650  135.2160 C   0  0  0  0  0  0  0  0  0  0  0  0
  198.9600  174.1650  136.8520 C   0  0  0  0  0  0  0  0  0  0  0  0
  188.0990  174.2250  136.5660 N   0  0  0  0  0  2  0  0  0  0  0  0
  189.6400  172.9540  135.0000 C   0  0  0  0  0  0  0  0  0  0  0  0
  186.9590  174.4540  135.7320 C   0  0  0  0  0  0  0  0  0  0  0  0
  189.4110  173.9940  136.0400 C   0  0  0  0  0  0  0  0  0  0  0  0
  192.0620  173.1000  135.5210 C   0  0  2  0  0  3  0  0  0  0  0  0
  191.7570  174.5470  135.9460 C   0  0  1  0  0  3  0  0  0  0  0  0
  190.8960  172.5720  134.7240 C   0  0  0  0  0  3  0  0  0  0  0  0
  190.4170  174.6650  136.5270 N   0  0  0  0  0  0  0  0  0  0  0  0
  187.1200  174.8410  134.5390 O   0  0  0  0  0  0  0  0  0  0  0  0
  192.2540  172.2880  136.6430 O   0  0  0  0  0  0  0  0  0  0  0  0
  193.5280  171.7410  136.4800 C   0  0  0  0  0  1  0  0  0  0  0  0
  188.5460  172.3730  134.3460 O   0  0  0  0  0  0  0  0  0  0  0  0
  188.2480  170.9860  134.4150 C   0  0  0  0  0  1  0  0  0  0  0  0
  185.5780  174.1960  136.2590 C   0  0  1  0  0  3  0  0  0  0  0  0
  185.6170  173.1710  137.2120 O   0  0  0  0  0  0  0  0  0  0  0  0
  185.2040  172.0040  136.5500 C   0  0  0  0  0  2  0  0  0  0  0  0
  183.3500  172.1130  134.8660 O   0  0  0  0  0  0  0  0  0  0  0  0
  183.7530  172.0870  136.1970 C   0  0  0  0  0  0  0  0  0  0  0  0
  182.8870  172.1030  137.1120 O   0  0  0  0  0  1  0  0  0  0  0  0
  185.0470  175.4790  136.8970 C   0  0  0  0  0  2  0  0  0  0  0  0
  184.4650  176.4040  135.8430 C   0  0  0  0  0  2  0  0  0  0  0  0
  184.9160  177.6250  137.6310 C   0  0  0  0  0  1  0  0  0  0  0  0
  184.2860  177.6760  136.3850 O   0  0  0  0  0  0  0  0  0  0  0  0
  192.4270  176.4810  137.3900 N   0  0  0  0  0  0  0  0  0  0  0  0
  193.5260  177.4450  137.3770 C   0  0  0  0  0  1  0  0  0  0  0  0
  192.0130  176.2650  138.7700 C   0  0  0  0  0  2  0  0  0  0  0  0
  190.5370  176.6290  138.9510 C   0  0  0  0  0  2  0  0  0  0  0  0
  190.2410  177.8470  138.2090 N   0  0  0  0  0  2  0  0  0  0  0  0
  188.9750  178.4010  138.6880 C   0  0  0  0  0  2  0  0  0  0  0  0
  188.5000  177.7240  139.9740 C   0  0  0  0  0  2  0  0  0  0  0  0
  188.3280  178.7230  141.0990 C   0  0  0  0  0  2  0  0  0  0  0  0
  189.5460  178.8380  141.8180 O   0  0  0  0  0  0  0  0  0  0  0  0
  189.4010  176.6820  143.0830 C   0  0  2  0  0  3  0  0  0  0  0  0
  192.2960  176.4510  142.5930 C   0  0  0  0  0  2  0  0  0  0  0  0
  191.5060  177.6260  142.2150 N   0  0  0  0  0  0  0  0  0  0  0  0
  190.1680  175.3600  143.1960 C   0  0  0  0  0  2  0  0  0  0  0  0
  190.2120  177.7350  142.3520 C   0  0  0  0  0  0  0  0  0  0  0  0
  191.5910  175.6200  143.6530 C   0  0  0  0  0  2  0  0  0  0  0  0
  187.5210  177.4100  144.6950 C   0  0  0  0  0  0  0  0  0  0  0  0
  187.4340  177.8430  146.0030 C   0  0  0  0  0  0  0  0  0  0  0  0
  186.6330  178.8390  148.1410 C   0  0  0  0  0  2  0  0  0  0  0  0
  187.8360  178.1500  148.8060 C   0  0  0  0  0  2  0  0  0  0  0  0
  189.5800  177.4510  145.5350 N   0  0  0  0  0  0  0  0  0  0  0  0
  189.0730  178.2060  147.8990 C   0  0  0  0  0  2  0  0  0  0  0  0
  190.9260  177.2460  145.7420 O   0  0  0  0  0  1  0  0  0  0  0  0
  186.2230  178.1230  146.8520 C   0  0  1  0  0  3  0  0  0  0  0  0
  185.2140  178.9770  146.1160 C   0  0  0  0  0  1  0  0  0  0  0  0
  188.8640  177.1970  144.4070 C   0  0  0  0  0  0  0  0  0  0  0  0
  186.4450  177.1940  143.8350 O   0  0  0  0  0  1  0  0  0  0  0  0
  188.7160  177.8140  146.4990 C   0  0  0  0  0  0  0  0  0  0  0  0
  1 36  1  6  0  0  0
  2 10  1  0  0  0  0
  2  6  2  0  0  0  0
  3 11  2  0  0  0  0
  3  5  1  0  0  0  0
  4  9  1  0  0  0  0
  5 12  2  0  0  0  0
  8  4  2  0  0  0  0
  8 11  1  0  0  0  0
  9  1  1  0  0  0  0
  9 10  2  0  0  0  0
 11  2  1  0  0  0  0
 12  6  1  0  0  0  0
 12  7  1  0  0  0  0
 14 16  1  0  0  0  0
 15 26  1  0  0  0  0
 15 13  1  0  0  0  0
 16 20  2  0  0  0  0
 16 13  1  0  0  0  0
 17 18  1  0  0  0  0
 17 22  1  1  0  0  0
 18 20  1  0  0  0  0
 18  1  1  1  0  0  0
 19 14  2  0  0  0  0
 19 17  1  0  0  0  0
 21 15  2  0  0  0  0
 23 22  1  0  0  0  0
 24 25  1  0  0  0  0
 24 14  1  0  0  0  0
 26 32  1  1  0  0  0
 26 27  1  0  0  0  0
 28 27  1  0  0  0  0
 29 30  2  0  0  0  0
 30 28  1  0  0  0  0
 30 31  1  0  0  0  0
 33 35  1  0  0  0  0
 33 32  1  0  0  0  0
 35 34  1  0  0  0  0
 36 38  1  0  0  0  0
 37 36  1  0  0  0  0
 38 39  1  0  0  0  0
 40 41  1  0  0  0  0
 40 39  1  0  0  0  0
 41 42  1  0  0  0  0
 42 43  1  0  0  0  0
 43 44  1  0  0  0  0
 44 49  1  0  0  0  0
 45 48  1  0  0  0  0
 45 60  1  1  0  0  0
 46 50  1  0  0  0  0
 47 49  2  0  0  0  0
 47 46  1  0  0  0  0
 48 50  1  0  0  0  0
 49 45  1  0  0  0  0
 51 52  1  0  0  0  0
 52 62  2  0  0  0  0
 52 58  1  0  0  0  0
 53 54  1  0  0  0  0
 55 57  1  0  0  0  0
 55 62  1  0  0  0  0
 56 54  1  0  0  0  0
 58 59  1  6  0  0  0
 58 53  1  0  0  0  0
 60 51  2  0  0  0  0
 60 55  1  0  0  0  0
 61 51  1  0  0  0  0
 62 56  1  0  0  0  0
M  END
>  <MODEL>
6

>  <REMARK>
 VINA RESULT:      -5.9      3.283      8.880
  Name = 
  21 active torsions:
  status: ('A' for Active; 'I' for Inactive)
    1  A    between atoms: C_1  and  N_19
    2  A    between atoms: C_1  and  C_21
    3  A    between atoms: C_5  and  O_26
    4  A    between atoms: C_7  and  C_13
    5  A    between atoms: C_11  and  O_29
    6  A    between atoms: C_11  and  C_46
    7  A    between atoms: C_12  and  C_51
    8  A    between atoms: C_13  and  C_41
    9  A    between atoms: C_13  and  O_47
   10  A    between atoms: C_16  and  O_53
   11  A    between atoms: C_17  and  C_38
   12  A    between atoms: C_17  and  O_47
   13  A    between atoms: N_19  and  C_35
   14  A    between atoms: N_20  and  C_21
   15  A    between atoms: N_20  and  C_23
   16  A    between atoms: C_23  and  C_28
   17  A    between atoms: C_23  and  C_44
   18  A    between atoms: O_29  and  C_43
   19  A    between atoms: C_35  and  C_46
   20  A    between atoms: O_37  and  C_62
   21  A    between atoms: C_41  and  C_62
                            x       y       z     vdW  Elec       q    Type
                         _______ _______ _______ _____ _____    ______ ____

>  <TORSDO>
F 21

$$$$
=
 OpenBabel10232408043D

 62 67  0  0  1  0  0  0  0  0999 V2000
  190.3150  176.1930  137.1960 C   0  0  2  0  0  3  0  0  0  0  0  0
  186.5080  176.4460  137.3400 C   0  0  0  0  0  0  0  0  0  0  0  0
  184.7550  174.8340  136.9030 C   0  0  0  0  0  3  0  0  0  0  0  0
  188.4410  174.4990  136.7840 C   0  0  0  0  0  3  0  0  0  0  0  0
  183.8280  175.7890  137.1930 N   0  0  0  0  0  0  0  0  0  0  0  0
  185.5360  177.4080  137.6290 C   0  0  0  0  0  3  0  0  0  0  0  0
  183.1340  178.0590  137.8580 C   0  0  0  0  0  1  0  0  0  0  0  0
  187.0830  174.1680  136.7020 C   0  0  0  0  0  3  0  0  0  0  0  0
  188.8460  175.8000  137.1420 C   0  0  0  0  0  0  0  0  0  0  0  0
  187.8610  176.7700  137.4060 C   0  0  0  0  0  3  0  0  0  0  0  0
  186.1170  175.1390  136.9800 C   0  0  0  0  0  0  0  0  0  0  0  0
  184.1850  177.0530  137.5520 C   0  0  0  0  0  0  0  0  0  0  0  0
  195.0310  175.1220  136.8720 N   0  0  0  0  0  2  0  0  0  0  0  0
  193.3890  173.5370  135.7600 C   0  0  0  0  0  0  0  0  0  0  0  0
  196.0070  174.2130  137.3920 C   0  0  0  0  0  0  0  0  0  0  0  0
  193.6810  174.7350  136.5960 C   0  0  0  0  0  0  0  0  0  0  0  0
  191.0710  174.3870  135.5160 C   0  0  2  0  0  3  0  0  0  0  0  0
  191.3080  175.0650  136.8780 C   0  0  1  0  0  3  0  0  0  0  0  0
  192.1450  173.3520  135.2950 C   0  0  0  0  0  3  0  0  0  0  0  0
  192.7050  175.4780  137.0350 N   0  0  0  0  0  0  0  0  0  0  0  0
  195.6340  173.1600  137.9840 O   0  0  0  0  0  0  0  0  0  0  0  0
  191.1230  175.3280  134.4830 O   0  0  0  0  0  0  0  0  0  0  0  0
  192.4330  175.8110  134.5000 C   0  0  0  0  0  1  0  0  0  0  0  0
  194.4190  172.6390  135.4520 O   0  0  0  0  0  0  0  0  0  0  0  0
  194.2210  171.4710  134.6670 C   0  0  0  0  0  1  0  0  0  0  0  0
  197.4690  174.4900  137.1990 C   0  0  1  0  0  3  0  0  0  0  0  0
  197.8880  175.4830  138.0940 O   0  0  0  0  0  0  0  0  0  0  0  0
  198.4870  174.8120  139.1710 C   0  0  0  0  0  2  0  0  0  0  0  0
  196.5640  175.7500  140.4780 O   0  0  0  0  0  0  0  0  0  0  0  0
  197.8470  175.2130  140.4620 C   0  0  0  0  0  0  0  0  0  0  0  0
  198.4640  175.0370  141.5470 O   0  0  0  0  0  1  0  0  0  0  0  0
  198.2520  173.2010  137.4520 C   0  0  0  0  0  2  0  0  0  0  0  0
  198.3760  172.3870  136.1770 C   0  0  0  0  0  2  0  0  0  0  0  0
  198.3800  170.5050  137.3380 C   0  0  0  0  0  1  0  0  0  0  0  0
  197.6950  171.1800  136.3240 O   0  0  0  0  0  0  0  0  0  0  0  0
  190.7190  176.9860  138.3730 N   0  0  0  0  0  0  0  0  0  0  0  0
  192.1680  177.1750  138.4140 C   0  0  0  0  0  1  0  0  0  0  0  0
  190.3090  176.2650  139.5700 C   0  0  0  0  0  2  0  0  0  0  0  0
  190.0110  177.2420  140.7100 C   0  0  0  0  0  2  0  0  0  0  0  0
  190.4930  176.6840  141.9670 N   0  0  0  0  0  2  0  0  0  0  0  0
  191.8180  177.2300  142.2550 C   0  0  0  0  0  2  0  0  0  0  0  0
  191.7830  178.2570  143.3880 C   0  0  0  0  0  2  0  0  0  0  0  0
  191.2470  177.6530  144.6700 C   0  0  0  0  0  2  0  0  0  0  0  0
  190.0480  178.3160  145.0370 O   0  0  0  0  0  0  0  0  0  0  0  0
  188.2310  177.0600  146.2160 C   0  0  2  0  0  3  0  0  0  0  0  0
  189.2200  178.3580  148.6670 C   0  0  0  0  0  2  0  0  0  0  0  0
  189.7400  178.6580  147.3300 N   0  0  0  0  0  0  0  0  0  0  0  0
  187.9140  176.5450  147.6240 C   0  0  0  0  0  2  0  0  0  0  0  0
  189.3770  178.0540  146.2310 C   0  0  0  0  0  0  0  0  0  0  0  0
  187.8500  177.7030  148.6010 C   0  0  0  0  0  2  0  0  0  0  0  0
  186.8050  177.4710  144.1040 C   0  0  0  0  0  0  0  0  0  0  0  0
  185.5870  178.0560  143.8150 C   0  0  0  0  0  0  0  0  0  0  0  0
  183.6590  179.1000  142.6330 C   0  0  0  0  0  2  0  0  0  0  0  0
  182.8630  178.8790  143.9290 C   0  0  0  0  0  2  0  0  0  0  0  0
  185.9330  178.2080  146.0140 N   0  0  0  0  0  0  0  0  0  0  0  0
  183.7370  179.1400  145.1630 C   0  0  0  0  0  2  0  0  0  0  0  0
  185.6640  178.4180  147.3470 O   0  0  0  0  0  1  0  0  0  0  0  0
  184.8240  178.1130  142.5190 C   0  0  1  0  0  3  0  0  0  0  0  0
  185.7120  178.5330  141.3690 C   0  0  0  0  0  1  0  0  0  0  0  0
  187.0210  177.5990  145.4710 C   0  0  0  0  0  0  0  0  0  0  0  0
  187.6420  176.8400  143.1870 O   0  0  0  0  0  1  0  0  0  0  0  0
  185.0620  178.4570  145.0210 C   0  0  0  0  0  0  0  0  0  0  0  0
  1 36  1  1  0  0  0
  2 10  1  0  0  0  0
  2  6  2  0  0  0  0
  3 11  2  0  0  0  0
  3  5  1  0  0  0  0
  4  9  1  0  0  0  0
  5 12  2  0  0  0  0
  8  4  2  0  0  0  0
  8 11  1  0  0  0  0
  9  1  1  0  0  0  0
  9 10  2  0  0  0  0
 11  2  1  0  0  0  0
 12  6  1  0  0  0  0
 12  7  1  0  0  0  0
 13 15  1  0  0  0  0
 14 16  1  0  0  0  0
 15 21  2  0  0  0  0
 16 13  1  0  0  0  0
 16 20  2  0  0  0  0
 17 22  1  6  0  0  0
 17 18  1  0  0  0  0
 18 20  1  0  0  0  0
 18  1  1  6  0  0  0
 19 17  1  0  0  0  0
 19 14  2  0  0  0  0
 22 23  1  0  0  0  0
 24 14  1  0  0  0  0
 25 24  1  0  0  0  0
 26 15  1  0  0  0  0
 26 32  1  1  0  0  0
 26 27  1  0  0  0  0
 27 28  1  0  0  0  0
 28 30  1  0  0  0  0
 30 29  2  0  0  0  0
 30 31  1  0  0  0  0
 33 35  1  0  0  0  0
 33 32  1  0  0  0  0
 35 34  1  0  0  0  0
 36 37  1  0  0  0  0
 36 38  1  0  0  0  0
 38 39  1  0  0  0  0
 39 40  1  0  0  0  0
 40 41  1  0  0  0  0
 41 42  1  0  0  0  0
 42 43  1  0  0  0  0
 43 44  1  0  0  0  0
 44 49  1  0  0  0  0
 45 60  1  1  0  0  0
 45 49  1  0  0  0  0
 45 48  1  0  0  0  0
 47 46  1  0  0  0  0
 48 50  1  0  0  0  0
 49 47  2  0  0  0  0
 50 46  1  0  0  0  0
 51 60  2  0  0  0  0
 52 51  1  0  0  0  0
 52 62  2  0  0  0  0
 53 54  1  0  0  0  0
 54 56  1  0  0  0  0
 55 57  1  0  0  0  0
 58 59  1  6  0  0  0
 58 53  1  0  0  0  0
 58 52  1  0  0  0  0
 60 55  1  0  0  0  0
 61 51  1  0  0  0  0
 62 56  1  0  0  0  0
 62 55  1  0  0  0  0
M  END
>  <MODEL>
7

>  <REMARK>
 VINA RESULT:      -5.9      2.422      6.136
  Name = 
  21 active torsions:
  status: ('A' for Active; 'I' for Inactive)
    1  A    between atoms: C_1  and  N_19
    2  A    between atoms: C_1  and  C_21
    3  A    between atoms: C_5  and  O_26
    4  A    between atoms: C_7  and  C_13
    5  A    between atoms: C_11  and  O_29
    6  A    between atoms: C_11  and  C_46
    7  A    between atoms: C_12  and  C_51
    8  A    between atoms: C_13  and  C_41
    9  A    between atoms: C_13  and  O_47
   10  A    between atoms: C_16  and  O_53
   11  A    between atoms: C_17  and  C_38
   12  A    between atoms: C_17  and  O_47
   13  A    between atoms: N_19  and  C_35
   14  A    between atoms: N_20  and  C_21
   15  A    between atoms: N_20  and  C_23
   16  A    between atoms: C_23  and  C_28
   17  A    between atoms: C_23  and  C_44
   18  A    between atoms: O_29  and  C_43
   19  A    between atoms: C_35  and  C_46
   20  A    between atoms: O_37  and  C_62
   21  A    between atoms: C_41  and  C_62
                            x       y       z     vdW  Elec       q    Type
                         _______ _______ _______ _____ _____    ______ ____

>  <TORSDO>
F 21

$$$$
=
 OpenBabel10232408043D

 62 67  0  0  1  0  0  0  0  0999 V2000
  191.1200  175.2480  136.8000 C   0  0  2  0  0  3  0  0  0  0  0  0
  194.4490  173.4440  136.3060 C   0  0  0  0  0  0  0  0  0  0  0  0
  196.0930  173.5270  134.5300 C   0  0  0  0  0  3  0  0  0  0  0  0
  192.8970  175.3460  134.9600 C   0  0  0  0  0  3  0  0  0  0  0  0
  196.8440  172.6130  135.2070 N   0  0  0  0  0  0  0  0  0  0  0  0
  195.2360  172.5050  136.9780 C   0  0  0  0  0  3  0  0  0  0  0  0
  197.3020  171.1050  137.1020 C   0  0  0  0  0  1  0  0  0  0  0  0
  194.1070  174.9200  134.3990 C   0  0  0  0  0  3  0  0  0  0  0  0
  192.4510  174.8300  136.1930 C   0  0  0  0  0  0  0  0  0  0  0  0
  193.2370  173.8650  136.8500 C   0  0  0  0  0  3  0  0  0  0  0  0
  194.8820  173.9700  135.0710 C   0  0  0  0  0  0  0  0  0  0  0  0
  196.4470  172.1010  136.4050 C   0  0  0  0  0  0  0  0  0  0  0  0
  186.3020  174.7400  136.9660 N   0  0  0  0  0  2  0  0  0  0  0  0
  187.5170  173.7540  134.9670 C   0  0  0  0  0  0  0  0  0  0  0  0
  185.1060  175.2420  136.3610 C   0  0  0  0  0  0  0  0  0  0  0  0
  187.5150  174.5390  136.2330 C   0  0  0  0  0  0  0  0  0  0  0  0
  189.9840  173.5910  135.1810 C   0  0  2  0  0  3  0  0  0  0  0  0
  189.8810  174.9190  135.9530 C   0  0  1  0  0  3  0  0  0  0  0  0
  188.6870  173.3520  134.4490 C   0  0  0  0  0  3  0  0  0  0  0  0
  188.6330  174.9990  136.7170 N   0  0  0  0  0  0  0  0  0  0  0  0
  185.1720  175.8830  135.2730 O   0  0  0  0  0  0  0  0  0  0  0  0
  190.2150  172.5280  136.0600 O   0  0  0  0  0  0  0  0  0  0  0  0
  190.1840  171.3840  135.2620 C   0  0  0  0  0  1  0  0  0  0  0  0
  186.3020  173.4260  134.3520 O   0  0  0  0  0  0  0  0  0  0  0  0
  185.6640  172.1670  134.5170 C   0  0  0  0  0  1  0  0  0  0  0  0
  183.7730  174.9740  136.9970 C   0  0  1  0  0  3  0  0  0  0  0  0
  183.6460  173.6080  137.2780 O   0  0  0  0  0  0  0  0  0  0  0  0
  182.2690  173.3530  137.3700 C   0  0  0  0  0  2  0  0  0  0  0  0
  180.3980  173.5020  135.7070 O   0  0  0  0  0  1  0  0  0  0  0  0
  181.6920  173.0940  136.0150 C   0  0  0  0  0  0  0  0  0  0  0  0
  182.3930  172.5270  135.1340 O   0  0  0  0  0  0  0  0  0  0  0  0
  183.6720  175.7820  138.2900 C   0  0  0  0  0  2  0  0  0  0  0  0
  183.6140  177.2700  137.9940 C   0  0  0  0  0  2  0  0  0  0  0  0
  182.2720  179.0170  137.8010 C   0  0  0  0  0  1  0  0  0  0  0  0
  182.4100  177.7930  138.4620 O   0  0  0  0  0  0  0  0  0  0  0  0
  191.0750  176.6120  137.3600 N   0  0  0  0  0  0  0  0  0  0  0  0
  190.8580  176.5870  138.8050 C   0  0  0  0  0  1  0  0  0  0  0  0
  189.9680  177.3230  136.7350 C   0  0  0  0  0  2  0  0  0  0  0  0
  189.3660  178.3420  137.7060 C   0  0  0  0  0  2  0  0  0  0  0  0
  187.9140  178.3250  137.5910 N   0  0  0  0  0  2  0  0  0  0  0  0
  187.3590  177.5270  138.6840 C   0  0  0  0  0  2  0  0  0  0  0  0
  187.2990  178.3110  139.9960 C   0  0  0  0  0  2  0  0  0  0  0  0
  188.6180  178.9890  140.3000 C   0  0  0  0  0  2  0  0  0  0  0  0
  188.9300  178.8180  141.6730 O   0  0  0  0  0  0  0  0  0  0  0  0
  189.2100  176.6970  142.9740 C   0  0  2  0  0  3  0  0  0  0  0  0
  192.0270  176.8000  142.1230 C   0  0  0  0  0  2  0  0  0  0  0  0
  191.0580  177.8610  141.8330 N   0  0  0  0  0  0  0  0  0  0  0  0
  190.1400  175.4800  143.0060 C   0  0  0  0  0  2  0  0  0  0  0  0
  189.7880  177.8180  142.1320 C   0  0  0  0  0  0  0  0  0  0  0  0
  191.5670  175.9210  143.2740 C   0  0  0  0  0  2  0  0  0  0  0  0
  187.4700  177.4030  144.7460 C   0  0  0  0  0  0  0  0  0  0  0  0
  187.4900  177.8020  146.0680 C   0  0  0  0  0  0  0  0  0  0  0  0
  186.8720  178.7480  148.2880 C   0  0  0  0  0  2  0  0  0  0  0  0
  188.1120  178.0260  148.8390 C   0  0  0  0  0  2  0  0  0  0  0  0
  189.5880  177.3960  145.4260 N   0  0  0  0  0  0  0  0  0  0  0  0
  189.2760  178.0920  147.8410 C   0  0  0  0  0  2  0  0  0  0  0  0
  190.9430  177.1700  145.5220 O   0  0  0  0  0  1  0  0  0  0  0  0
  186.3530  178.0730  147.0160 C   0  0  1  0  0  3  0  0  0  0  0  0
  185.3020  178.9590  146.3840 C   0  0  0  0  0  1  0  0  0  0  0  0
  188.7840  177.1820  144.3500 C   0  0  0  0  0  0  0  0  0  0  0  0
  186.3280  177.2250  143.9680 O   0  0  0  0  0  1  0  0  0  0  0  0
  188.8060  177.7430  146.4630 C   0  0  0  0  0  0  0  0  0  0  0  0
  1 36  1  6  0  0  0
  2 10  1  0  0  0  0
  2  6  2  0  0  0  0
  3 11  2  0  0  0  0
  3  5  1  0  0  0  0
  4  9  1  0  0  0  0
  5 12  2  0  0  0  0
  8  4  2  0  0  0  0
  8 11  1  0  0  0  0
  9  1  1  0  0  0  0
  9 10  2  0  0  0  0
 11  2  1  0  0  0  0
 12  6  1  0  0  0  0
 12  7  1  0  0  0  0
 14 16  1  0  0  0  0
 15 13  1  0  0  0  0
 15 26  1  0  0  0  0
 16 20  2  0  0  0  0
 16 13  1  0  0  0  0
 17 18  1  0  0  0  0
 17 22  1  1  0  0  0
 18 20  1  0  0  0  0
 18  1  1  1  0  0  0
 19 14  2  0  0  0  0
 19 17  1  0  0  0  0
 21 15  2  0  0  0  0
 23 22  1  0  0  0  0
 24 25  1  0  0  0  0
 24 14  1  0  0  0  0
 26 27  1  0  0  0  0
 26 32  1  1  0  0  0
 27 28  1  0  0  0  0
 29 30  1  0  0  0  0
 30 28  1  0  0  0  0
 31 30  2  0  0  0  0
 33 32  1  0  0  0  0
 33 35  1  0  0  0  0
 34 35  1  0  0  0  0
 36 37  1  0  0  0  0
 38 36  1  0  0  0  0
 38 39  1  0  0  0  0
 40 39  1  0  0  0  0
 40 41  1  0  0  0  0
 41 42  1  0  0  0  0
 42 43  1  0  0  0  0
 43 44  1  0  0  0  0
 44 49  1  0  0  0  0
 45 48  1  0  0  0  0
 45 60  1  1  0  0  0
 46 50  1  0  0  0  0
 47 46  1  0  0  0  0
 47 49  2  0  0  0  0
 48 50  1  0  0  0  0
 49 45  1  0  0  0  0
 51 52  1  0  0  0  0
 52 62  2  0  0  0  0
 52 58  1  0  0  0  0
 53 54  1  0  0  0  0
 55 57  1  0  0  0  0
 55 62  1  0  0  0  0
 56 54  1  0  0  0  0
 58 59  1  6  0  0  0
 58 53  1  0  0  0  0
 60 51  2  0  0  0  0
 60 55  1  0  0  0  0
 61 51  1  0  0  0  0
 62 56  1  0  0  0  0
M  END
>  <MODEL>
8

>  <REMARK>
 VINA RESULT:      -5.9      3.213      9.224
  Name = 
  21 active torsions:
  status: ('A' for Active; 'I' for Inactive)
    1  A    between atoms: C_1  and  N_19
    2  A    between atoms: C_1  and  C_21
    3  A    between atoms: C_5  and  O_26
    4  A    between atoms: C_7  and  C_13
    5  A    between atoms: C_11  and  O_29
    6  A    between atoms: C_11  and  C_46
    7  A    between atoms: C_12  and  C_51
    8  A    between atoms: C_13  and  C_41
    9  A    between atoms: C_13  and  O_47
   10  A    between atoms: C_16  and  O_53
   11  A    between atoms: C_17  and  C_38
   12  A    between atoms: C_17  and  O_47
   13  A    between atoms: N_19  and  C_35
   14  A    between atoms: N_20  and  C_21
   15  A    between atoms: N_20  and  C_23
   16  A    between atoms: C_23  and  C_28
   17  A    between atoms: C_23  and  C_44
   18  A    between atoms: O_29  and  C_43
   19  A    between atoms: C_35  and  C_46
   20  A    between atoms: O_37  and  C_62
   21  A    between atoms: C_41  and  C_62
                            x       y       z     vdW  Elec       q    Type
                         _______ _______ _______ _____ _____    ______ ____

>  <TORSDO>
F 21

$$$$
=
 OpenBabel10232408043D

 62 67  0  0  1  0  0  0  0  0999 V2000
  190.4790  176.5010  137.1070 C   0  0  2  0  0  3  0  0  0  0  0  0
  186.6950  175.9960  137.0570 C   0  0  0  0  0  0  0  0  0  0  0  0
  184.8470  177.5610  137.0470 C   0  0  0  0  0  3  0  0  0  0  0  0
  188.5060  178.1310  137.0510 C   0  0  0  0  0  3  0  0  0  0  0  0
  183.9800  176.5100  137.0320 N   0  0  0  0  0  0  0  0  0  0  0  0
  185.7840  174.9360  137.0460 C   0  0  0  0  0  3  0  0  0  0  0  0
  183.4260  174.1080  137.0160 C   0  0  0  0  0  1  0  0  0  0  0  0
  187.1300  178.3910  137.0470 C   0  0  0  0  0  3  0  0  0  0  0  0
  188.9890  176.8080  137.0590 C   0  0  0  0  0  0  0  0  0  0  0  0
  188.0650  175.7460  137.0750 C   0  0  0  0  0  3  0  0  0  0  0  0
  186.2250  177.3260  137.0490 C   0  0  0  0  0  0  0  0  0  0  0  0
  184.4130  175.2190  137.0300 C   0  0  0  0  0  0  0  0  0  0  0  0
  194.2410  173.6700  135.9550 N   0  0  0  0  0  2  0  0  0  0  0  0
  191.9270  172.8820  135.2710 C   0  0  0  0  0  0  0  0  0  0  0  0
  194.8690  172.4410  136.3320 C   0  0  0  0  0  0  0  0  0  0  0  0
  192.8210  173.8510  135.9650 C   0  0  0  0  0  0  0  0  0  0  0  0
  190.1240  174.5790  135.4230 C   0  0  2  0  0  3  0  0  0  0  0  0
  190.8700  175.0810  136.6730 C   0  0  1  0  0  3  0  0  0  0  0  0
  190.6440  173.2110  135.0630 C   0  0  0  0  0  3  0  0  0  0  0  0
  192.3190  174.9080  136.5370 N   0  0  0  0  0  0  0  0  0  0  0  0
  194.2410  171.6070  137.0460 O   0  0  0  0  0  0  0  0  0  0  0  0
  190.3320  175.4450  134.3460 O   0  0  0  0  0  0  0  0  0  0  0  0
  189.2770  176.3570  134.4040 C   0  0  0  0  0  1  0  0  0  0  0  0
  192.4440  171.6580  134.8260 O   0  0  0  0  0  0  0  0  0  0  0  0
  191.6580  170.4800  134.7120 C   0  0  0  0  0  1  0  0  0  0  0  0
  196.2540  172.1250  135.8490 C   0  0  1  0  0  3  0  0  0  0  0  0
  197.1760  172.9920  136.4480 O   0  0  0  0  0  0  0  0  0  0  0  0
  197.8460  173.6380  135.3970 C   0  0  0  0  0  2  0  0  0  0  0  0
  199.5110  175.5050  135.5640 O   0  0  0  0  0  0  0  0  0  0  0  0
  198.2240  175.0300  135.7930 C   0  0  0  0  0  0  0  0  0  0  0  0
  197.3620  175.7890  136.3120 O   0  0  0  0  0  1  0  0  0  0  0  0
  196.5860  170.6790  136.2170 C   0  0  0  0  0  2  0  0  0  0  0  0
  197.9640  170.5860  136.8470 C   0  0  0  0  0  2  0  0  0  0  0  0
  197.2240  168.5010  136.8590 C   0  0  0  0  0  1  0  0  0  0  0  0
  198.0850  169.3750  137.5280 O   0  0  0  0  0  0  0  0  0  0  0  0
  191.1780  176.9300  138.3330 N   0  0  0  0  0  0  0  0  0  0  0  0
  192.6140  176.6670  138.2460 C   0  0  0  0  0  1  0  0  0  0  0  0
  190.6340  176.1760  139.4540 C   0  0  0  0  0  2  0  0  0  0  0  0
  190.2230  177.1190  140.5880 C   0  0  0  0  0  2  0  0  0  0  0  0
  190.5470  176.5080  141.8710 N   0  0  0  0  0  2  0  0  0  0  0  0
  191.8260  177.0370  142.3410 C   0  0  0  0  0  2  0  0  0  0  0  0
  191.6460  178.0980  143.4280 C   0  0  0  0  0  2  0  0  0  0  0  0
  191.0890  177.5000  144.7030 C   0  0  0  0  0  2  0  0  0  0  0  0
  189.9880  178.2780  145.1460 O   0  0  0  0  0  0  0  0  0  0  0  0
  188.1570  177.0030  146.2820 C   0  0  2  0  0  3  0  0  0  0  0  0
  189.0960  178.2870  148.7610 C   0  0  0  0  0  2  0  0  0  0  0  0
  189.6380  178.6000  147.4350 N   0  0  0  0  0  0  0  0  0  0  0  0
  187.8170  176.4760  147.6800 C   0  0  0  0  0  2  0  0  0  0  0  0
  189.2970  178.0020  146.3250 C   0  0  0  0  0  0  0  0  0  0  0  0
  187.7310  177.6260  148.6650 C   0  0  0  0  0  2  0  0  0  0  0  0
  186.7750  177.4420  144.1460 C   0  0  0  0  0  0  0  0  0  0  0  0
  185.5570  178.0160  143.8400 C   0  0  0  0  0  0  0  0  0  0  0  0
  183.6430  179.0610  142.6350 C   0  0  0  0  0  2  0  0  0  0  0  0
  182.8200  178.8020  143.9070 C   0  0  0  0  0  2  0  0  0  0  0  0
  185.8490  178.1260  146.0500 N   0  0  0  0  0  0  0  0  0  0  0  0
  183.6610  179.0470  145.1670 C   0  0  0  0  0  2  0  0  0  0  0  0
  185.5460  178.3040  147.3810 O   0  0  0  0  0  1  0  0  0  0  0  0
  184.8230  178.0910  142.5280 C   0  0  1  0  0  3  0  0  0  0  0  0
  185.7330  178.5470  141.4090 C   0  0  0  0  0  1  0  0  0  0  0  0
  186.9580  177.5430  145.5200 C   0  0  0  0  0  0  0  0  0  0  0  0
  187.6420  176.8400  143.2360 O   0  0  0  0  0  1  0  0  0  0  0  0
  184.9980  178.3850  145.0420 C   0  0  0  0  0  0  0  0  0  0  0  0
  1 36  1  1  0  0  0
  2 10  1  0  0  0  0
  3 11  1  0  0  0  0
  4  9  1  0  0  0  0
  5  3  2  0  0  0  0
  6  2  1  0  0  0  0
  7 12  1  0  0  0  0
  8 11  1  0  0  0  0
  8  4  2  0  0  0  0
  9 10  2  0  0  0  0
  9  1  1  0  0  0  0
 11  2  2  0  0  0  0
 12  5  1  0  0  0  0
 12  6  2  0  0  0  0
 13 16  1  0  0  0  0
 13 15  1  0  0  0  0
 14 16  1  0  0  0  0
 15 21  2  0  0  0  0
 16 20  2  0  0  0  0
 17 22  1  6  0  0  0
 17 18  1  0  0  0  0
 18  1  1  6  0  0  0
 19 14  2  0  0  0  0
 19 17  1  0  0  0  0
 20 18  1  0  0  0  0
 22 23  1  0  0  0  0
 24 14  1  0  0  0  0
 25 24  1  0  0  0  0
 26 32  1  1  0  0  0
 26 15  1  0  0  0  0
 26 27  1  0  0  0  0
 28 30  1  0  0  0  0
 28 27  1  0  0  0  0
 29 30  2  0  0  0  0
 30 31  1  0  0  0  0
 32 33  1  0  0  0  0
 33 35  1  0  0  0  0
 34 35  1  0  0  0  0
 36 38  1  0  0  0  0
 37 36  1  0  0  0  0
 38 39  1  0  0  0  0
 39 40  1  0  0  0  0
 40 41  1  0  0  0  0
 41 42  1  0  0  0  0
 42 43  1  0  0  0  0
 43 44  1  0  0  0  0
 44 49  1  0  0  0  0
 45 60  1  1  0  0  0
 45 49  1  0  0  0  0
 45 48  1  0  0  0  0
 47 46  1  0  0  0  0
 48 50  1  0  0  0  0
 49 47  2  0  0  0  0
 50 46  1  0  0  0  0
 51 60  2  0  0  0  0
 52 51  1  0  0  0  0
 52 62  2  0  0  0  0
 53 54  1  0  0  0  0
 54 56  1  0  0  0  0
 55 57  1  0  0  0  0
 58 59  1  6  0  0  0
 58 53  1  0  0  0  0
 58 52  1  0  0  0  0
 60 55  1  0  0  0  0
 61 51  1  0  0  0  0
 62 56  1  0  0  0  0
 62 55  1  0  0  0  0
M  END
>  <MODEL>
9

>  <REMARK>
 VINA RESULT:      -5.8      2.699      6.289
  Name = 
  21 active torsions:
  status: ('A' for Active; 'I' for Inactive)
    1  A    between atoms: C_1  and  N_19
    2  A    between atoms: C_1  and  C_21
    3  A    between atoms: C_5  and  O_26
    4  A    between atoms: C_7  and  C_13
    5  A    between atoms: C_11  and  O_29
    6  A    between atoms: C_11  and  C_46
    7  A    between atoms: C_12  and  C_51
    8  A    between atoms: C_13  and  C_41
    9  A    between atoms: C_13  and  O_47
   10  A    between atoms: C_16  and  O_53
   11  A    between atoms: C_17  and  C_38
   12  A    between atoms: C_17  and  O_47
   13  A    between atoms: N_19  and  C_35
   14  A    between atoms: N_20  and  C_21
   15  A    between atoms: N_20  and  C_23
   16  A    between atoms: C_23  and  C_28
   17  A    between atoms: C_23  and  C_44
   18  A    between atoms: O_29  and  C_43
   19  A    between atoms: C_35  and  C_46
   20  A    between atoms: O_37  and  C_62
   21  A    between atoms: C_41  and  C_62
                            x       y       z     vdW  Elec       q    Type
                         _______ _______ _______ _____ _____    ______ ____

>  <TORSDO>
F 21

$$$$
