=
 OpenBabel10232411093D

 36 40  0  0  1  0  0  0  0  0999 V2000
  191.4870  176.8130  141.1820 C   0  0  0  0  0  3  0  0  0  0  0  0
  188.8050  177.4780  140.8100 C   0  0  0  0  0  3  0  0  0  0  0  0
  189.2340  176.9970  142.0560 C   0  0  0  0  0  0  0  0  0  0  0  0
  189.7130  177.6320  139.7550 C   0  0  0  0  0  0  0  0  0  0  0  0
  190.5840  176.6610  142.2440 C   0  0  0  0  0  0  0  0  0  0  0  0
  191.0540  177.2930  139.9440 C   0  0  0  0  0  3  0  0  0  0  0  0
  191.0080  176.1690  143.5260 N   0  0  0  0  0  2  0  0  0  0  0  0
  191.4950  176.9400  144.6340 C   0  0  0  0  0  0  0  0  0  0  0  0
  191.5920  178.1930  144.5490 O   0  0  0  0  0  0  0  0  0  0  0  0
  191.8690  176.3210  145.8340 O   0  0  0  0  0  0  0  0  0  0  0  0
  190.1340  176.6580  147.3430 O   0  0  0  0  0  0  0  0  0  0  0  0
  192.2620  176.9600  148.1190 O   0  0  0  0  0  1  0  0  0  0  0  0
  191.3710  176.6480  147.1020 C   0  0  0  0  0  0  0  0  0  0  0  0
  189.2630  178.1260  138.4150 C   0  0  2  0  0  3  0  0  0  0  0  0
  188.9880  179.4960  138.4560 O   0  0  0  0  0  1  0  0  0  0  0  0
  185.8850  175.8750  137.0390 C   0  0  0  0  0  0  0  0  0  0  0  0
  188.2240  176.0320  137.4540 C   0  0  0  0  0  0  0  0  0  0  0  0
  188.0780  177.3520  137.9100 C   0  0  0  0  0  0  0  0  0  0  0  0
  189.3580  175.4820  137.4340 O   0  0  0  0  0  0  0  0  0  0  0  0
  185.6980  177.1880  137.4800 C   0  0  0  0  0  2  0  0  0  0  0  0
  187.1350  175.3350  137.0280 N   0  0  0  0  0  0  0  0  0  0  0  0
  186.7980  177.9230  137.9220 C   0  0  0  0  0  3  0  0  0  0  0  0
  184.2390  174.1450  137.5760 C   0  0  2  0  0  3  0  0  0  0  0  0
  183.5840  175.3600  137.3150 O   0  0  0  0  0  0  0  0  0  0  0  0
  184.7230  175.0820  136.5350 C   0  0  1  0  0  3  0  0  0  0  0  0
  183.4680  173.0170  136.9260 C   0  0  0  0  0  1  0  0  0  0  0  0
  188.3350  176.8370  143.1200 O   0  0  0  0  0  0  0  0  0  0  0  0
  187.9590  177.8980  143.9950 C   0  0  2  0  0  3  0  0  0  0  0  0
  185.6140  178.0990  144.5570 C   0  0  1  0  0  0  0  0  0  0  0  0
  185.5870  177.4960  143.1730 C   0  0  0  0  0  2  0  0  0  0  0  0
  187.7630  177.3790  145.4140 C   0  0  0  0  0  2  0  0  0  0  0  0
  186.2700  177.2910  145.6540 C   0  0  0  0  0  2  0  0  0  0  0  0
  186.6480  178.5350  143.5420 C   0  0  2  0  0  3  0  0  0  0  0  0
  184.5910  179.1350  144.8790 C   0  0  0  0  0  0  0  0  0  0  0  0
  183.9700  179.0950  145.9740 O   0  0  0  0  0  1  0  0  0  0  0  0
  184.2940  180.1290  143.9550 O   0  0  0  0  0  0  0  0  0  0  0  0
  1  5  1  0  0  0  0
  2  3  1  0  0  0  0
  3  5  2  0  0  0  0
  3 27  1  0  0  0  0
  4  6  1  0  0  0  0
  4  2  2  0  0  0  0
  5  7  1  0  0  0  0
  6  1  2  0  0  0  0
  7  8  1  0  0  0  0
  8 10  1  0  0  0  0
  9  8  2  0  0  0  0
 10 13  1  0  0  0  0
 13 11  2  0  0  0  0
 13 12  1  0  0  0  0
 14 15  1  1  0  0  0
 14  4  1  0  0  0  0
 16 20  1  0  0  0  0
 17 18  1  0  0  0  0
 18 22  2  0  0  0  0
 18 14  1  0  0  0  0
 19 17  2  0  0  0  0
 20 22  1  0  0  0  0
 21 16  2  0  0  0  0
 21 17  1  0  0  0  0
 23 26  1  6  0  0  0
 24 23  1  0  0  0  0
 25 16  1  1  0  0  0
 25 24  1  0  0  0  0
 25 23  1  0  0  0  0
 28 27  1  6  0  0  0
 28 31  1  0  0  0  0
 29 34  1  1  0  0  0
 29 32  1  0  0  0  0
 30 29  1  0  0  0  0
 31 32  1  0  0  0  0
 33 30  1  6  0  0  0
 33 28  1  0  0  0  0
 33 29  1  0  0  0  0
 34 35  1  0  0  0  0
 36 34  2  0  0  0  0
M  END
>  <MODEL>
1

>  <REMARK>
 VINA RESULT:      -8.5      0.000      0.000
  Name = 
  9 active torsions:
  status: ('A' for Active; 'I' for Inactive)
    1  A    between atoms: C_3  and  C_5
    2  A    between atoms: N_4  and  C_23
    3  A    between atoms: C_6  and  O_26
    4  A    between atoms: C_10  and  C_12
    5  A    between atoms: C_10  and  C_21
    6  A    between atoms: C_13  and  O_26
    7  A    between atoms: C_14  and  C_15
    8  A    between atoms: C_22  and  O_25
    9  A    between atoms: O_25  and  C_35
                            x       y       z     vdW  Elec       q    Type
                         _______ _______ _______ _____ _____    ______ ____

>  <TORSDO>
F 9

$$$$
=
 OpenBabel10232411093D

 36 40  0  0  1  0  0  0  0  0999 V2000
  184.6200  179.0410  140.9900 C   0  0  0  0  0  3  0  0  0  0  0  0
  187.1700  178.3620  140.0890 C   0  0  0  0  0  3  0  0  0  0  0  0
  186.9550  178.5870  141.4570 C   0  0  0  0  0  0  0  0  0  0  0  0
  186.1150  178.4710  139.1750 C   0  0  0  0  0  0  0  0  0  0  0  0
  185.6720  178.9290  141.9120 C   0  0  0  0  0  0  0  0  0  0  0  0
  184.8410  178.8150  139.6300 C   0  0  0  0  0  3  0  0  0  0  0  0
  185.4670  179.1560  143.3160 N   0  0  0  0  0  2  0  0  0  0  0  0
  184.2690  178.9150  144.0690 C   0  0  0  0  0  0  0  0  0  0  0  0
  183.2410  178.4540  143.5050 O   0  0  0  0  0  0  0  0  0  0  0  0
  184.2160  179.1790  145.4430 O   0  0  0  0  0  0  0  0  0  0  0  0
  185.6370  177.5950  146.3770 O   0  0  0  0  0  0  0  0  0  0  0  0
  185.6050  179.6640  147.3460 O   0  0  0  0  0  1  0  0  0  0  0  0
  185.1660  178.7630  146.3850 C   0  0  0  0  0  0  0  0  0  0  0  0
  186.3360  178.2530  137.7100 C   0  0  2  0  0  3  0  0  0  0  0  0
  185.2490  177.5880  137.1350 O   0  0  0  0  0  1  0  0  0  0  0  0
  190.0200  176.1690  137.0370 C   0  0  0  0  0  0  0  0  0  0  0  0
  188.8270  178.2140  137.2800 C   0  0  0  0  0  0  0  0  0  0  0  0
  187.6200  177.5160  137.4480 C   0  0  0  0  0  0  0  0  0  0  0  0
  188.8500  179.4730  137.3170 O   0  0  0  0  0  0  0  0  0  0  0  0
  188.8400  175.4380  137.1950 C   0  0  0  0  0  2  0  0  0  0  0  0
  189.9850  177.5300  137.0740 N   0  0  0  0  0  0  0  0  0  0  0  0
  187.6400  176.1160  137.4070 C   0  0  0  0  0  3  0  0  0  0  0  0
  192.1650  175.4750  137.9900 C   0  0  2  0  0  3  0  0  0  0  0  0
  191.4170  174.3420  137.6280 O   0  0  0  0  0  0  0  0  0  0  0  0
  191.3110  175.4610  136.7800 C   0  0  1  0  0  3  0  0  0  0  0  0
  193.6110  175.2600  137.5960 C   0  0  0  0  0  1  0  0  0  0  0  0
  188.0030  178.4840  142.3820 O   0  0  0  0  0  0  0  0  0  0  0  0
  188.5790  177.2410  142.7790 C   0  0  2  0  0  3  0  0  0  0  0  0
  190.1870  177.2870  144.5860 C   0  0  1  0  0  0  0  0  0  0  0  0
  190.3560  178.6410  143.9390 C   0  0  0  0  0  2  0  0  0  0  0  0
  187.8990  176.7110  144.0340 C   0  0  0  0  0  2  0  0  0  0  0  0
  188.8380  176.9710  145.1940 C   0  0  0  0  0  2  0  0  0  0  0  0
  190.0660  177.4060  143.0830 C   0  0  2  0  0  3  0  0  0  0  0  0
  191.4180  176.5850  145.0510 C   0  0  0  0  0  0  0  0  0  0  0  0
  191.9490  176.8970  146.1500 O   0  0  0  0  0  1  0  0  0  0  0  0
  192.0030  175.6080  144.2560 O   0  0  0  0  0  0  0  0  0  0  0  0
  1  5  1  0  0  0  0
  2  3  1  0  0  0  0
  3  5  2  0  0  0  0
  3 27  1  0  0  0  0
  4  6  1  0  0  0  0
  4  2  2  0  0  0  0
  5  7  1  0  0  0  0
  6  1  2  0  0  0  0
  7  8  1  0  0  0  0
  8 10  1  0  0  0  0
  9  8  2  0  0  0  0
 10 13  1  0  0  0  0
 11 13  2  0  0  0  0
 13 12  1  0  0  0  0
 14 15  1  1  0  0  0
 14  4  1  0  0  0  0
 16 21  2  0  0  0  0
 16 20  1  0  0  0  0
 17 19  2  0  0  0  0
 17 18  1  0  0  0  0
 18 14  1  0  0  0  0
 20 22  1  0  0  0  0
 21 17  1  0  0  0  0
 22 18  2  0  0  0  0
 23 26  1  6  0  0  0
 24 23  1  0  0  0  0
 25 16  1  1  0  0  0
 25 24  1  0  0  0  0
 25 23  1  0  0  0  0
 28 27  1  1  0  0  0
 28 33  1  0  0  0  0
 28 31  1  0  0  0  0
 29 34  1  1  0  0  0
 29 32  1  0  0  0  0
 30 29  1  0  0  0  0
 31 32  1  0  0  0  0
 33 30  1  1  0  0  0
 33 29  1  0  0  0  0
 34 35  1  0  0  0  0
 36 34  2  0  0  0  0
M  END
>  <MODEL>
2

>  <REMARK>
 VINA RESULT:      -8.5      2.347      5.659
  Name = 
  9 active torsions:
  status: ('A' for Active; 'I' for Inactive)
    1  A    between atoms: C_3  and  C_5
    2  A    between atoms: N_4  and  C_23
    3  A    between atoms: C_6  and  O_26
    4  A    between atoms: C_10  and  C_12
    5  A    between atoms: C_10  and  C_21
    6  A    between atoms: C_13  and  O_26
    7  A    between atoms: C_14  and  C_15
    8  A    between atoms: C_22  and  O_25
    9  A    between atoms: O_25  and  C_35
                            x       y       z     vdW  Elec       q    Type
                         _______ _______ _______ _____ _____    ______ ____

>  <TORSDO>
F 9

$$$$
=
 OpenBabel10232411093D

 36 40  0  0  1  0  0  0  0  0999 V2000
  191.2200  177.0820  141.0560 C   0  0  0  0  0  3  0  0  0  0  0  0
  188.6490  178.0570  140.5920 C   0  0  0  0  0  3  0  0  0  0  0  0
  189.0590  177.7790  141.9050 C   0  0  0  0  0  0  0  0  0  0  0  0
  189.5210  177.8530  139.5150 C   0  0  0  0  0  0  0  0  0  0  0  0
  190.3530  177.2880  142.1400 C   0  0  0  0  0  0  0  0  0  0  0  0
  190.8060  177.3610  139.7520 C   0  0  0  0  0  3  0  0  0  0  0  0
  190.7590  177.0080  143.4890 N   0  0  0  0  0  2  0  0  0  0  0  0
  191.4080  177.9030  144.4040 C   0  0  0  0  0  0  0  0  0  0  0  0
  191.6870  179.0810  144.0570 O   0  0  0  0  0  0  0  0  0  0  0  0
  191.7400  177.4920  145.7010 O   0  0  0  0  0  0  0  0  0  0  0  0
  191.3020  176.0100  147.4360 O   0  0  0  0  0  1  0  0  0  0  0  0
  189.5180  177.1250  146.5440 O   0  0  0  0  0  0  0  0  0  0  0  0
  190.8760  176.8410  146.5910 C   0  0  0  0  0  0  0  0  0  0  0  0
  189.0880  178.1270  138.1080 C   0  0  2  0  0  3  0  0  0  0  0  0
  188.7730  179.4790  137.9380 O   0  0  0  0  0  1  0  0  0  0  0  0
  185.8150  175.5840  137.0210 C   0  0  0  0  0  0  0  0  0  0  0  0
  188.1530  175.9150  137.3210 C   0  0  0  0  0  0  0  0  0  0  0  0
  187.9370  177.2490  137.7030 C   0  0  0  0  0  0  0  0  0  0  0  0
  189.3190  175.4390  137.2830 O   0  0  0  0  0  0  0  0  0  0  0  0
  185.5590  176.9070  137.3910 C   0  0  0  0  0  2  0  0  0  0  0  0
  187.0970  175.1250  136.9860 N   0  0  0  0  0  0  0  0  0  0  0  0
  186.6240  177.7370  137.7390 C   0  0  0  0  0  3  0  0  0  0  0  0
  184.5060  173.6000  137.6050 C   0  0  2  0  0  3  0  0  0  0  0  0
  183.6740  174.7310  137.5920 O   0  0  0  0  0  0  0  0  0  0  0  0
  184.6890  174.6880  136.6170 C   0  0  1  0  0  3  0  0  0  0  0  0
  183.7780  172.4410  136.9590 C   0  0  0  0  0  1  0  0  0  0  0  0
  188.1950  177.9760  142.9910 O   0  0  0  0  0  0  0  0  0  0  0  0
  186.8080  177.6460  142.9590 C   0  0  2  0  0  3  0  0  0  0  0  0
  185.3470  178.8350  144.4780 C   0  0  1  0  0  0  0  0  0  0  0  0
  186.6640  178.8100  145.2150 C   0  0  0  0  0  2  0  0  0  0  0  0
  186.0280  178.6800  142.1580 C   0  0  0  0  0  2  0  0  0  0  0  0
  185.3070  179.5650  143.1530 C   0  0  0  0  0  2  0  0  0  0  0  0
  186.2280  177.6110  144.3710 C   0  0  2  0  0  3  0  0  0  0  0  0
  184.1040  178.6330  145.2760 C   0  0  0  0  0  0  0  0  0  0  0  0
  182.9800  178.6300  144.7100 O   0  0  0  0  0  0  0  0  0  0  0  0
  184.1800  178.4820  146.6550 O   0  0  0  0  0  1  0  0  0  0  0  0
  1  5  1  0  0  0  0
  2  3  1  0  0  0  0
  3  5  2  0  0  0  0
  3 27  1  0  0  0  0
  4  6  1  0  0  0  0
  4  2  2  0  0  0  0
  5  7  1  0  0  0  0
  6  1  2  0  0  0  0
  7  8  1  0  0  0  0
  8 10  1  0  0  0  0
  9  8  2  0  0  0  0
 10 13  1  0  0  0  0
 12 13  2  0  0  0  0
 13 11  1  0  0  0  0
 14 15  1  1  0  0  0
 14  4  1  0  0  0  0
 16 20  1  0  0  0  0
 17 18  1  0  0  0  0
 18 22  2  0  0  0  0
 18 14  1  0  0  0  0
 19 17  2  0  0  0  0
 20 22  1  0  0  0  0
 21 16  2  0  0  0  0
 21 17  1  0  0  0  0
 23 26  1  6  0  0  0
 24 23  1  0  0  0  0
 25 16  1  1  0  0  0
 25 24  1  0  0  0  0
 25 23  1  0  0  0  0
 28 27  1  1  0  0  0
 28 33  1  0  0  0  0
 29 30  1  0  0  0  0
 29 34  1  1  0  0  0
 31 28  1  0  0  0  0
 31 32  1  0  0  0  0
 32 29  1  0  0  0  0
 33 29  1  0  0  0  0
 33 30  1  1  0  0  0
 34 36  1  0  0  0  0
 35 34  2  0  0  0  0
M  END
>  <MODEL>
3

>  <REMARK>
 VINA RESULT:      -8.4      0.925      1.445
  Name = 
  9 active torsions:
  status: ('A' for Active; 'I' for Inactive)
    1  A    between atoms: C_3  and  C_5
    2  A    between atoms: N_4  and  C_23
    3  A    between atoms: C_6  and  O_26
    4  A    between atoms: C_10  and  C_12
    5  A    between atoms: C_10  and  C_21
    6  A    between atoms: C_13  and  O_26
    7  A    between atoms: C_14  and  C_15
    8  A    between atoms: C_22  and  O_25
    9  A    between atoms: O_25  and  C_35
                            x       y       z     vdW  Elec       q    Type
                         _______ _______ _______ _____ _____    ______ ____

>  <TORSDO>
F 9

$$$$
=
 OpenBabel10232411093D

 36 40  0  0  1  0  0  0  0  0999 V2000
  183.9340  178.4030  145.0110 C   0  0  0  0  0  3  0  0  0  0  0  0
  185.1150  178.5130  142.4880 C   0  0  0  0  0  3  0  0  0  0  0  0
  185.8950  178.1740  143.6040 C   0  0  0  0  0  0  0  0  0  0  0  0
  183.7500  178.7910  142.6300 C   0  0  0  0  0  0  0  0  0  0  0  0
  185.3010  178.1180  144.8750 C   0  0  0  0  0  0  0  0  0  0  0  0
  183.1640  178.7400  143.8960 C   0  0  0  0  0  3  0  0  0  0  0  0
  186.1130  177.7700  146.0080 N   0  0  0  0  0  2  0  0  0  0  0  0
  186.3540  178.5630  147.1790 C   0  0  0  0  0  0  0  0  0  0  0  0
  185.8330  179.7040  147.2990 O   0  0  0  0  0  0  0  0  0  0  0  0
  187.1670  178.0890  148.2160 O   0  0  0  0  0  0  0  0  0  0  0  0
  189.4080  178.5260  148.6470 O   0  0  0  0  0  1  0  0  0  0  0  0
  188.9320  176.6800  147.3880 O   0  0  0  0  0  0  0  0  0  0  0  0
  188.5340  177.7990  148.1060 C   0  0  0  0  0  0  0  0  0  0  0  0
  182.9120  179.1740  141.4490 C   0  0  2  0  0  3  0  0  0  0  0  0
  181.5510  179.0860  141.7560 O   0  0  0  0  0  1  0  0  0  0  0  0
  183.9440  176.8060  138.0300 C   0  0  0  0  0  0  0  0  0  0  0  0
  184.0640  178.8630  139.2220 C   0  0  0  0  0  0  0  0  0  0  0  0
  183.2480  178.3460  140.2410 C   0  0  1  0  0  3  0  0  0  0  0  0
  184.5050  180.0410  139.2890 O   0  0  0  0  0  0  0  0  0  0  0  0
  183.1260  176.2560  139.0210 C   0  0  0  0  0  3  0  0  0  0  0  0
  184.3830  178.0890  138.1480 N   0  0  0  0  0  0  0  0  0  0  0  0
  182.7840  177.0290  140.1300 C   0  0  0  0  0  3  0  0  0  0  0  0
  185.6890  175.5030  136.9120 C   0  0  2  0  0  3  0  0  0  0  0  0
  184.5880  174.6780  137.1970 O   0  0  0  0  0  0  0  0  0  0  0  0
  184.2970  176.0030  136.8200 C   0  0  1  0  0  3  0  0  0  0  0  0
  186.2060  175.1780  135.5270 C   0  0  0  0  0  1  0  0  0  0  0  0
  187.2620  177.8950  143.4740 O   0  0  0  0  0  0  0  0  0  0  0  0
  187.7810  176.9180  142.5740 C   0  0  2  0  0  3  0  0  0  0  0  0
  190.0600  177.2090  141.8130 C   0  0  1  0  0  0  0  0  0  0  0  0
  189.5950  178.6240  142.0540 C   0  0  0  0  0  2  0  0  0  0  0  0
  188.6610  175.9200  143.3140 C   0  0  0  0  0  2  0  0  0  0  0  0
  190.1000  176.2780  143.0050 C   0  0  0  0  0  2  0  0  0  0  0  0
  188.6300  177.5790  141.4900 C   0  0  2  0  0  3  0  0  0  0  0  0
  190.9160  176.9570  140.6180 C   0  0  0  0  0  0  0  0  0  0  0  0
  190.5260  176.1760  139.7110 O   0  0  0  0  0  0  0  0  0  0  0  0
  192.1650  177.5570  140.5200 O   0  0  0  0  0  1  0  0  0  0  0  0
  2  4  2  0  0  0  0
  2  3  1  0  0  0  0
  3  5  2  0  0  0  0
  4  6  1  0  0  0  0
  5  1  1  0  0  0  0
  5  7  1  0  0  0  0
  6  1  2  0  0  0  0
  7  8  1  0  0  0  0
  8  9  2  0  0  0  0
  8 10  1  0  0  0  0
 12 13  2  0  0  0  0
 13 10  1  0  0  0  0
 13 11  1  0  0  0  0
 14 15  1  1  0  0  0
 14  4  1  0  0  0  0
 16 21  2  0  0  0  0
 16 20  1  0  0  0  0
 17 19  2  0  0  0  0
 17 18  1  0  0  0  0
 18 14  1  1  0  0  0
 20 22  2  0  0  0  0
 21 17  1  0  0  0  0
 22 18  1  0  0  0  0
 23 26  1  6  0  0  0
 23 24  1  0  0  0  0
 25 23  1  0  0  0  0
 25 24  1  0  0  0  0
 25 16  1  1  0  0  0
 27  3  1  0  0  0  0
 28 31  1  0  0  0  0
 28 27  1  1  0  0  0
 29 34  1  6  0  0  0
 29 30  1  0  0  0  0
 29 32  1  0  0  0  0
 32 31  1  0  0  0  0
 33 29  1  0  0  0  0
 33 30  1  1  0  0  0
 33 28  1  0  0  0  0
 35 34  2  0  0  0  0
 36 34  1  0  0  0  0
M  END
>  <MODEL>
4

>  <REMARK>
 VINA RESULT:      -8.3      2.573      5.431
  Name = 
  9 active torsions:
  status: ('A' for Active; 'I' for Inactive)
    1  A    between atoms: C_3  and  C_5
    2  A    between atoms: N_4  and  C_23
    3  A    between atoms: C_6  and  O_26
    4  A    between atoms: C_10  and  C_12
    5  A    between atoms: C_10  and  C_21
    6  A    between atoms: C_13  and  O_26
    7  A    between atoms: C_14  and  C_15
    8  A    between atoms: C_22  and  O_25
    9  A    between atoms: O_25  and  C_35
                            x       y       z     vdW  Elec       q    Type
                         _______ _______ _______ _____ _____    ______ ____

>  <TORSDO>
F 9

$$$$
=
 OpenBabel10232411093D

 36 40  0  0  1  0  0  0  0  0999 V2000
  183.9850  179.3360  143.4770 C   0  0  0  0  0  3  0  0  0  0  0  0
  186.3720  178.0220  144.0670 C   0  0  0  0  0  3  0  0  0  0  0  0
  186.0380  178.2840  142.7300 C   0  0  0  0  0  0  0  0  0  0  0  0
  185.5210  178.4180  145.1060 C   0  0  0  0  0  0  0  0  0  0  0  0
  184.8360  178.9450  142.4320 C   0  0  0  0  0  0  0  0  0  0  0  0
  184.3250  179.0720  144.8060 C   0  0  0  0  0  3  0  0  0  0  0  0
  184.5060  179.2070  141.0580 N   0  0  0  0  0  2  0  0  0  0  0  0
  183.7170  178.3870  140.1840 C   0  0  0  0  0  0  0  0  0  0  0  0
  183.2260  177.3020  140.5940 O   0  0  0  0  0  0  0  0  0  0  0  0
  183.4700  178.7740  138.8610 O   0  0  0  0  0  0  0  0  0  0  0  0
  181.9180  180.3430  138.1310 O   0  0  0  0  0  1  0  0  0  0  0  0
  181.2930  178.1460  138.0520 O   0  0  0  0  0  0  0  0  0  0  0  0
  182.2200  179.1380  138.3440 C   0  0  0  0  0  0  0  0  0  0  0  0
  185.8580  178.1260  146.5360 C   0  0  2  0  0  3  0  0  0  0  0  0
  185.4240  179.1600  147.3710 O   0  0  0  0  0  1  0  0  0  0  0  0
  190.0320  177.3190  147.0750 C   0  0  0  0  0  0  0  0  0  0  0  0
  187.8910  177.7900  148.0000 C   0  0  0  0  0  0  0  0  0  0  0  0
  187.3280  177.8690  146.7160 C   0  0  1  0  0  3  0  0  0  0  0  0
  187.1770  177.9630  149.0240 O   0  0  0  0  0  0  0  0  0  0  0  0
  189.5120  177.3940  145.7800 C   0  0  0  0  0  3  0  0  0  0  0  0
  189.2180  177.5260  148.1460 N   0  0  0  0  0  0  0  0  0  0  0  0
  188.1550  177.6630  145.6040 C   0  0  0  0  0  3  0  0  0  0  0  0
  191.7410  175.6130  147.4740 C   0  0  2  0  0  3  0  0  0  0  0  0
  191.9810  176.2470  146.2430 O   0  0  0  0  0  0  0  0  0  0  0  0
  191.4900  177.0600  147.2830 C   0  0  1  0  0  3  0  0  0  0  0  0
  193.0580  175.4150  148.1940 C   0  0  0  0  0  1  0  0  0  0  0  0
  186.8800  177.8900  141.6820 O   0  0  0  0  0  0  0  0  0  0  0  0
  188.0850  178.5740  141.3450 C   0  0  2  0  0  3  0  0  0  0  0  0
  190.1040  177.2510  141.1760 C   0  0  1  0  0  0  0  0  0  0  0  0
  189.2880  176.5040  142.2010 C   0  0  0  0  0  2  0  0  0  0  0  0
  188.4120  178.3910  139.8690 C   0  0  0  0  0  2  0  0  0  0  0  0
  189.5280  177.3710  139.7820 C   0  0  0  0  0  2  0  0  0  0  0  0
  189.2600  178.0330  142.1570 C   0  0  2  0  0  3  0  0  0  0  0  0
  191.5740  177.3580  141.4060 C   0  0  0  0  0  0  0  0  0  0  0  0
  192.0370  177.3180  142.5770 O   0  0  0  0  0  1  0  0  0  0  0  0
  192.4350  177.5370  140.3310 O   0  0  0  0  0  0  0  0  0  0  0  0
  1  6  1  0  0  0  0
  2  4  1  0  0  0  0
  3  2  2  0  0  0  0
  4 14  1  0  0  0  0
  5  3  1  0  0  0  0
  5  1  2  0  0  0  0
  6  4  2  0  0  0  0
  7  5  1  0  0  0  0
  8  9  2  0  0  0  0
  8  7  1  0  0  0  0
 10  8  1  0  0  0  0
 11 13  1  0  0  0  0
 12 13  2  0  0  0  0
 13 10  1  0  0  0  0
 14 15  1  1  0  0  0
 16 21  2  0  0  0  0
 17 21  1  0  0  0  0
 17 19  2  0  0  0  0
 18 14  1  1  0  0  0
 18 17  1  0  0  0  0
 20 16  1  0  0  0  0
 22 20  2  0  0  0  0
 22 18  1  0  0  0  0
 23 26  1  1  0  0  0
 24 25  1  0  0  0  0
 24 23  1  0  0  0  0
 25 16  1  6  0  0  0
 25 23  1  0  0  0  0
 27  3  1  0  0  0  0
 28 27  1  1  0  0  0
 28 33  1  0  0  0  0
 29 34  1  1  0  0  0
 29 33  1  0  0  0  0
 29 30  1  0  0  0  0
 31 28  1  0  0  0  0
 32 31  1  0  0  0  0
 32 29  1  0  0  0  0
 33 30  1  1  0  0  0
 34 35  1  0  0  0  0
 36 34  2  0  0  0  0
M  END
>  <MODEL>
5

>  <REMARK>
 VINA RESULT:      -8.3      2.980      9.340
  Name = 
  9 active torsions:
  status: ('A' for Active; 'I' for Inactive)
    1  A    between atoms: C_3  and  C_5
    2  A    between atoms: N_4  and  C_23
    3  A    between atoms: C_6  and  O_26
    4  A    between atoms: C_10  and  C_12
    5  A    between atoms: C_10  and  C_21
    6  A    between atoms: C_13  and  O_26
    7  A    between atoms: C_14  and  C_15
    8  A    between atoms: C_22  and  O_25
    9  A    between atoms: O_25  and  C_35
                            x       y       z     vdW  Elec       q    Type
                         _______ _______ _______ _____ _____    ______ ____

>  <TORSDO>
F 9

$$$$
=
 OpenBabel10232411093D

 36 40  0  0  1  0  0  0  0  0999 V2000
  190.2760  176.6990  137.7130 C   0  0  0  0  0  3  0  0  0  0  0  0
  192.3400  176.8930  139.5770 C   0  0  0  0  0  3  0  0  0  0  0  0
  191.0170  177.1280  139.9810 C   0  0  0  0  0  0  0  0  0  0  0  0
  192.6310  176.5560  138.2490 C   0  0  0  0  0  0  0  0  0  0  0  0
  189.9770  177.0310  139.0430 C   0  0  0  0  0  0  0  0  0  0  0  0
  191.5940  176.4650  137.3180 C   0  0  0  0  0  3  0  0  0  0  0  0
  188.6270  177.2750  139.4700 N   0  0  0  0  0  2  0  0  0  0  0  0
  187.7390  178.3000  139.0000 C   0  0  0  0  0  0  0  0  0  0  0  0
  188.1150  179.1160  138.1160 O   0  0  0  0  0  0  0  0  0  0  0  0
  186.4380  178.4160  139.5060 O   0  0  0  0  0  0  0  0  0  0  0  0
  186.8320  178.4650  141.7960 O   0  0  0  0  0  1  0  0  0  0  0  0
  184.9620  179.5380  141.0380 O   0  0  0  0  0  0  0  0  0  0  0  0
  186.1090  178.7880  140.8160 C   0  0  0  0  0  0  0  0  0  0  0  0
  194.0410  176.3230  137.8020 C   0  0  2  0  0  3  0  0  0  0  0  0
  194.2730  176.9140  136.5570 O   0  0  0  0  0  1  0  0  0  0  0  0
  194.9550  172.1360  137.7920 C   0  0  0  0  0  0  0  0  0  0  0  0
  195.2510  174.3050  138.7260 C   0  0  0  0  0  0  0  0  0  0  0  0
  194.3770  174.8580  137.7760 C   0  0  0  0  0  0  0  0  0  0  0  0
  195.7930  175.0340  139.6000 O   0  0  0  0  0  0  0  0  0  0  0  0
  194.0840  172.6480  136.8270 C   0  0  0  0  0  2  0  0  0  0  0  0
  195.5210  172.9720  138.7060 N   0  0  0  0  0  0  0  0  0  0  0  0
  193.7910  174.0110  136.8260 C   0  0  0  0  0  3  0  0  0  0  0  0
  196.0620  170.3270  136.5690 C   0  0  2  0  0  3  0  0  0  0  0  0
  196.7030  170.5290  137.8030 O   0  0  0  0  0  0  0  0  0  0  0  0
  195.3030  170.6820  137.7910 C   0  0  1  0  0  3  0  0  0  0  0  0
  195.9430  168.8410  136.3100 C   0  0  0  0  0  1  0  0  0  0  0  0
  190.7130  177.4680  141.3060 O   0  0  0  0  0  0  0  0  0  0  0  0
  190.7340  176.5290  142.3800 C   0  0  2  0  0  3  0  0  0  0  0  0
  190.3710  177.3880  144.6130 C   0  0  1  0  0  0  0  0  0  0  0  0
  191.0210  178.5480  143.8990 C   0  0  0  0  0  2  0  0  0  0  0  0
  189.3170  176.1670  142.8040 C   0  0  0  0  0  2  0  0  0  0  0  0
  189.0320  176.9130  144.0920 C   0  0  0  0  0  2  0  0  0  0  0  0
  191.4540  177.1130  143.5940 C   0  0  2  0  0  3  0  0  0  0  0  0
  190.7750  177.1310  146.0250 C   0  0  0  0  0  0  0  0  0  0  0  0
  191.9820  176.9130  146.3100 O   0  0  0  0  0  0  0  0  0  0  0  0
  189.8140  177.0970  147.0280 O   0  0  0  0  0  1  0  0  0  0  0  0
  1  5  1  0  0  0  0
  2  3  1  0  0  0  0
  3 27  1  0  0  0  0
  4  2  2  0  0  0  0
  5  7  1  0  0  0  0
  5  3  2  0  0  0  0
  6  1  2  0  0  0  0
  6  4  1  0  0  0  0
  8  7  1  0  0  0  0
  8 10  1  0  0  0  0
  9  8  2  0  0  0  0
 10 13  1  0  0  0  0
 13 12  2  0  0  0  0
 13 11  1  0  0  0  0
 14 15  1  6  0  0  0
 14  4  1  0  0  0  0
 16 21  2  0  0  0  0
 17 19  2  0  0  0  0
 18 14  1  0  0  0  0
 18 17  1  0  0  0  0
 20 16  1  0  0  0  0
 21 17  1  0  0  0  0
 22 20  1  0  0  0  0
 22 18  2  0  0  0  0
 23 26  1  1  0  0  0
 23 25  1  0  0  0  0
 23 24  1  0  0  0  0
 25 16  1  6  0  0  0
 25 24  1  0  0  0  0
 28 27  1  6  0  0  0
 28 31  1  0  0  0  0
 28 33  1  0  0  0  0
 29 34  1  1  0  0  0
 30 29  1  0  0  0  0
 31 32  1  0  0  0  0
 32 29  1  0  0  0  0
 33 30  1  6  0  0  0
 33 29  1  0  0  0  0
 34 35  2  0  0  0  0
 34 36  1  0  0  0  0
M  END
>  <MODEL>
6

>  <REMARK>
 VINA RESULT:      -7.8      4.492      7.409
  Name = 
  9 active torsions:
  status: ('A' for Active; 'I' for Inactive)
    1  A    between atoms: C_3  and  C_5
    2  A    between atoms: N_4  and  C_23
    3  A    between atoms: C_6  and  O_26
    4  A    between atoms: C_10  and  C_12
    5  A    between atoms: C_10  and  C_21
    6  A    between atoms: C_13  and  O_26
    7  A    between atoms: C_14  and  C_15
    8  A    between atoms: C_22  and  O_25
    9  A    between atoms: O_25  and  C_35
                            x       y       z     vdW  Elec       q    Type
                         _______ _______ _______ _____ _____    ______ ____

>  <TORSDO>
F 9

$$$$
=
 OpenBabel10232411093D

 36 40  0  0  1  0  0  0  0  0999 V2000
  186.6090  177.7590  146.8640 C   0  0  0  0  0  3  0  0  0  0  0  0
  186.3560  178.5250  144.1950 C   0  0  0  0  0  3  0  0  0  0  0  0
  187.5530  177.9420  144.6390 C   0  0  0  0  0  0  0  0  0  0  0  0
  185.2880  178.7210  145.0800 C   0  0  0  0  0  0  0  0  0  0  0  0
  187.6810  177.5560  145.9820 C   0  0  0  0  0  0  0  0  0  0  0  0
  185.4210  178.3410  146.4160 C   0  0  0  0  0  3  0  0  0  0  0  0
  188.9130  176.9600  146.4220 N   0  0  0  0  0  2  0  0  0  0  0  0
  189.7300  177.3710  147.5270 C   0  0  0  0  0  0  0  0  0  0  0  0
  189.3970  178.3570  148.2370 O   0  0  0  0  0  0  0  0  0  0  0  0
  190.9090  176.6870  147.8460 O   0  0  0  0  0  0  0  0  0  0  0  0
  192.6620  175.3190  147.1710 O   0  0  0  0  0  1  0  0  0  0  0  0
  191.9820  176.9360  145.7070 O   0  0  0  0  0  0  0  0  0  0  0  0
  191.8820  176.2760  146.9250 C   0  0  0  0  0  0  0  0  0  0  0  0
  184.0140  179.3610  144.6230 C   0  0  2  0  0  3  0  0  0  0  0  0
  182.9940  179.1630  145.5580 O   0  0  0  0  0  1  0  0  0  0  0  0
  182.8250  178.0260  140.7280 C   0  0  0  0  0  0  0  0  0  0  0  0
  182.2490  178.8350  142.8910 C   0  0  0  0  0  0  0  0  0  0  0  0
  183.6030  178.8670  143.2640 C   0  0  0  0  0  0  0  0  0  0  0  0
  181.3530  179.1940  143.7010 O   0  0  0  0  0  0  0  0  0  0  0  0
  184.1820  178.0380  141.0620 C   0  0  0  0  0  2  0  0  0  0  0  0
  181.8970  178.4130  141.6470 N   0  0  0  0  0  0  0  0  0  0  0  0
  184.5690  178.4660  142.3310 C   0  0  0  0  0  3  0  0  0  0  0  0
  182.3880  176.0630  139.3330 C   0  0  2  0  0  3  0  0  0  0  0  0
  181.2020  176.7960  139.5070 O   0  0  0  0  0  0  0  0  0  0  0  0
  182.3890  177.5430  139.3820 C   0  0  1  0  0  3  0  0  0  0  0  0
  182.4780  175.6010  137.8950 C   0  0  0  0  0  1  0  0  0  0  0  0
  188.6290  177.7420  143.7640 O   0  0  0  0  0  0  0  0  0  0  0  0
  188.6160  176.7810  142.7100 C   0  0  2  0  0  3  0  0  0  0  0  0
  189.2460  177.5450  140.5020 C   0  0  1  0  0  0  0  0  0  0  0  0
  188.6450  178.7770  141.1330 C   0  0  0  0  0  2  0  0  0  0  0  0
  190.0260  176.2840  142.4190 C   0  0  0  0  0  2  0  0  0  0  0  0
  190.4860  176.9670  141.1480 C   0  0  0  0  0  2  0  0  0  0  0  0
  188.0590  177.3940  141.4270 C   0  0  2  0  0  3  0  0  0  0  0  0
  188.9440  177.2880  139.0640 C   0  0  0  0  0  0  0  0  0  0  0  0
  189.7590  176.6470  138.3490 O   0  0  0  0  0  0  0  0  0  0  0  0
  187.7760  177.7850  138.5000 O   0  0  0  0  0  1  0  0  0  0  0  0
  2  3  2  0  0  0  0
  2  4  1  0  0  0  0
  3  5  1  0  0  0  0
  4  6  2  0  0  0  0
  5  7  1  0  0  0  0
  5  1  2  0  0  0  0
  6  1  1  0  0  0  0
  7  8  1  0  0  0  0
  8 10  1  0  0  0  0
  8  9  2  0  0  0  0
 12 13  2  0  0  0  0
 13 11  1  0  0  0  0
 13 10  1  0  0  0  0
 14  4  1  0  0  0  0
 14 15  1  1  0  0  0
 16 20  1  0  0  0  0
 16 21  2  0  0  0  0
 17 18  1  0  0  0  0
 17 19  2  0  0  0  0
 18 14  1  0  0  0  0
 20 22  1  0  0  0  0
 21 17  1  0  0  0  0
 22 18  2  0  0  0  0
 23 26  1  6  0  0  0
 23 25  1  0  0  0  0
 23 24  1  0  0  0  0
 25 24  1  0  0  0  0
 25 16  1  1  0  0  0
 27  3  1  0  0  0  0
 28 27  1  1  0  0  0
 29 34  1  6  0  0  0
 29 30  1  0  0  0  0
 29 32  1  0  0  0  0
 29 33  1  0  0  0  0
 31 28  1  0  0  0  0
 32 31  1  0  0  0  0
 33 30  1  1  0  0  0
 33 28  1  0  0  0  0
 35 34  2  0  0  0  0
 36 34  1  0  0  0  0
M  END
>  <MODEL>
7

>  <REMARK>
 VINA RESULT:      -7.7      2.332      5.728
  Name = 
  9 active torsions:
  status: ('A' for Active; 'I' for Inactive)
    1  A    between atoms: C_3  and  C_5
    2  A    between atoms: N_4  and  C_23
    3  A    between atoms: C_6  and  O_26
    4  A    between atoms: C_10  and  C_12
    5  A    between atoms: C_10  and  C_21
    6  A    between atoms: C_13  and  O_26
    7  A    between atoms: C_14  and  C_15
    8  A    between atoms: C_22  and  O_25
    9  A    between atoms: O_25  and  C_35
                            x       y       z     vdW  Elec       q    Type
                         _______ _______ _______ _____ _____    ______ ____

>  <TORSDO>
F 9

$$$$
=
 OpenBabel10232411093D

 36 40  0  0  1  0  0  0  0  0999 V2000
  186.0710  177.6410  145.1300 C   0  0  0  0  0  3  0  0  0  0  0  0
  186.4040  178.5360  142.5100 C   0  0  0  0  0  3  0  0  0  0  0  0
  187.5120  178.0550  143.2250 C   0  0  0  0  0  0  0  0  0  0  0  0
  185.1340  178.5660  143.0990 C   0  0  0  0  0  0  0  0  0  0  0  0
  187.3450  177.6050  144.5440 C   0  0  0  0  0  0  0  0  0  0  0  0
  184.9730  178.1210  144.4130 C   0  0  0  0  0  3  0  0  0  0  0  0
  188.4880  177.1150  145.2630 N   0  0  0  0  0  2  0  0  0  0  0  0
  188.8730  177.4410  146.6070 C   0  0  0  0  0  0  0  0  0  0  0  0
  188.1830  178.2390  147.2950 O   0  0  0  0  0  0  0  0  0  0  0  0
  190.0180  176.8780  147.1860 O   0  0  0  0  0  0  0  0  0  0  0  0
  191.6190  177.5660  145.6490 O   0  0  0  0  0  0  0  0  0  0  0  0
  192.1550  175.7920  146.9860 O   0  0  0  0  0  1  0  0  0  0  0  0
  191.2710  176.7780  146.5690 C   0  0  0  0  0  0  0  0  0  0  0  0
  183.9490  179.0960  142.3530 C   0  0  2  0  0  3  0  0  0  0  0  0
  182.8030  179.0650  143.1540 O   0  0  0  0  0  1  0  0  0  0  0  0
  183.3950  176.9560  138.6820 C   0  0  0  0  0  0  0  0  0  0  0  0
  184.2520  178.8400  139.8570 C   0  0  0  0  0  0  0  0  0  0  0  0
  183.7280  178.3530  141.0660 C   0  0  1  0  0  3  0  0  0  0  0  0
  184.8920  179.9250  139.8270 O   0  0  0  0  0  0  0  0  0  0  0  0
  182.8540  176.4390  139.8630 C   0  0  0  0  0  3  0  0  0  0  0  0
  184.0680  178.1390  138.7050 N   0  0  0  0  0  0  0  0  0  0  0  0
  183.0280  177.1390  141.0570 C   0  0  0  0  0  3  0  0  0  0  0  0
  183.5370  174.8010  137.5300 C   0  0  2  0  0  3  0  0  0  0  0  0
  182.2040  175.2450  137.5450 O   0  0  0  0  0  0  0  0  0  0  0  0
  183.1940  176.2350  137.3880 C   0  0  1  0  0  3  0  0  0  0  0  0
  183.8490  174.2150  136.1700 C   0  0  0  0  0  1  0  0  0  0  0  0
  188.7880  178.0230  142.6470 O   0  0  0  0  0  0  0  0  0  0  0  0
  189.3140  176.8830  141.9700 C   0  0  2  0  0  3  0  0  0  0  0  0
  190.2490  177.2320  139.7660 C   0  0  1  0  0  0  0  0  0  0  0  0
  189.1860  178.3000  139.8630 C   0  0  0  0  0  2  0  0  0  0  0  0
  190.8320  176.8430  142.0850 C   0  0  0  0  0  2  0  0  0  0  0  0
  191.3920  177.2980  140.7540 C   0  0  0  0  0  2  0  0  0  0  0  0
  188.9560  176.9220  140.4870 C   0  0  2  0  0  3  0  0  0  0  0  0
  190.4080  176.5330  138.4580 C   0  0  0  0  0  0  0  0  0  0  0  0
  190.4620  175.2760  138.4140 O   0  0  0  0  0  1  0  0  0  0  0  0
  190.5340  177.2700  137.2870 O   0  0  0  0  0  0  0  0  0  0  0  0
  2  4  2  0  0  0  0
  2  3  1  0  0  0  0
  3  5  2  0  0  0  0
  4  6  1  0  0  0  0
  5  1  1  0  0  0  0
  5  7  1  0  0  0  0
  6  1  2  0  0  0  0
  7  8  1  0  0  0  0
  8 10  1  0  0  0  0
  8  9  2  0  0  0  0
 11 13  2  0  0  0  0
 13 12  1  0  0  0  0
 13 10  1  0  0  0  0
 14  4  1  0  0  0  0
 14 15  1  1  0  0  0
 16 21  2  0  0  0  0
 16 20  1  0  0  0  0
 17 18  1  0  0  0  0
 18 14  1  1  0  0  0
 19 17  2  0  0  0  0
 20 22  2  0  0  0  0
 21 17  1  0  0  0  0
 22 18  1  0  0  0  0
 23 26  1  6  0  0  0
 23 24  1  0  0  0  0
 25 23  1  0  0  0  0
 25 24  1  0  0  0  0
 25 16  1  1  0  0  0
 27  3  1  0  0  0  0
 28 31  1  0  0  0  0
 28 27  1  1  0  0  0
 29 34  1  6  0  0  0
 29 30  1  0  0  0  0
 29 33  1  0  0  0  0
 29 32  1  0  0  0  0
 32 31  1  0  0  0  0
 33 30  1  1  0  0  0
 33 28  1  0  0  0  0
 35 34  1  0  0  0  0
 36 34  2  0  0  0  0
M  END
>  <MODEL>
8

>  <REMARK>
 VINA RESULT:      -7.6      2.026      5.179
  Name = 
  9 active torsions:
  status: ('A' for Active; 'I' for Inactive)
    1  A    between atoms: C_3  and  C_5
    2  A    between atoms: N_4  and  C_23
    3  A    between atoms: C_6  and  O_26
    4  A    between atoms: C_10  and  C_12
    5  A    between atoms: C_10  and  C_21
    6  A    between atoms: C_13  and  O_26
    7  A    between atoms: C_14  and  C_15
    8  A    between atoms: C_22  and  O_25
    9  A    between atoms: O_25  and  C_35
                            x       y       z     vdW  Elec       q    Type
                         _______ _______ _______ _____ _____    ______ ____

>  <TORSDO>
F 9

$$$$
=
 OpenBabel10232411093D

 36 40  0  0  1  0  0  0  0  0999 V2000
  184.1260  178.7410  140.0990 C   0  0  0  0  0  3  0  0  0  0  0  0
  186.1590  178.6490  142.0040 C   0  0  0  0  0  3  0  0  0  0  0  0
  186.4860  178.6130  140.6390 C   0  0  0  0  0  0  0  0  0  0  0  0
  184.8240  178.7350  142.4150 C   0  0  0  0  0  0  0  0  0  0  0  0
  185.4630  178.6590  139.6800 C   0  0  0  0  0  0  0  0  0  0  0  0
  183.8090  178.7760  141.4580 C   0  0  0  0  0  3  0  0  0  0  0  0
  185.8110  178.6210  138.2860 N   0  0  0  0  0  2  0  0  0  0  0  0
  185.5420  177.5660  137.3520 C   0  0  0  0  0  0  0  0  0  0  0  0
  184.9390  176.5230  137.7210 O   0  0  0  0  0  0  0  0  0  0  0  0
  185.9380  177.6700  136.0130 O   0  0  0  0  0  0  0  0  0  0  0  0
  187.7750  177.7030  134.5900 O   0  0  0  0  0  0  0  0  0  0  0  0
  187.5050  175.8490  135.8980 O   0  0  0  0  0  1  0  0  0  0  0  0
  187.0950  177.1020  135.4640 C   0  0  0  0  0  0  0  0  0  0  0  0
  184.4630  178.7540  143.8680 C   0  0  2  0  0  3  0  0  0  0  0  0
  184.0300  180.0250  144.2580 O   0  0  0  0  0  1  0  0  0  0  0  0
  187.6720  177.3540  146.3390 C   0  0  0  0  0  0  0  0  0  0  0  0
  185.5110  178.3290  146.1290 C   0  0  0  0  0  0  0  0  0  0  0  0
  185.6030  178.2850  144.7280 C   0  0  1  0  0  3  0  0  0  0  0  0
  184.4810  178.7890  146.6890 O   0  0  0  0  0  0  0  0  0  0  0  0
  187.8050  177.2990  144.9490 C   0  0  0  0  0  3  0  0  0  0  0  0
  186.5410  177.8730  146.8920 N   0  0  0  0  0  0  0  0  0  0  0  0
  186.7640  177.7600  144.1450 C   0  0  0  0  0  3  0  0  0  0  0  0
  190.0800  177.4580  146.7630 C   0  0  2  0  0  3  0  0  0  0  0  0
  189.3820  177.9970  147.8560 O   0  0  0  0  0  0  0  0  0  0  0  0
  188.7900  176.8910  147.2180 C   0  0  1  0  0  3  0  0  0  0  0  0
  191.2200  176.6050  147.2770 C   0  0  0  0  0  1  0  0  0  0  0  0
  187.8180  178.5250  140.2150 O   0  0  0  0  0  0  0  0  0  0  0  0
  188.5820  177.3220  140.2740 C   0  0  2  0  0  3  0  0  0  0  0  0
  190.5210  177.1640  138.8340 C   0  0  1  0  0  0  0  0  0  0  0  0
  189.5890  178.0660  138.0610 C   0  0  0  0  0  2  0  0  0  0  0  0
  189.8270  177.5180  141.1290 C   0  0  0  0  0  2  0  0  0  0  0  0
  191.0020  177.6540  140.1820 C   0  0  0  0  0  2  0  0  0  0  0  0
  189.0320  176.8980  138.8780 C   0  0  2  0  0  3  0  0  0  0  0  0
  191.3040  176.1560  138.0640 C   0  0  0  0  0  0  0  0  0  0  0  0
  191.3750  174.9650  138.4670 O   0  0  0  0  0  1  0  0  0  0  0  0
  191.9900  176.5370  136.9180 O   0  0  0  0  0  0  0  0  0  0  0  0
  1  6  1  0  0  0  0
  2  4  1  0  0  0  0
  3  2  2  0  0  0  0
  4 14  1  0  0  0  0
  5  1  2  0  0  0  0
  5  3  1  0  0  0  0
  6  4  2  0  0  0  0
  7  5  1  0  0  0  0
  8  9  2  0  0  0  0
  8  7  1  0  0  0  0
 10  8  1  0  0  0  0
 11 13  2  0  0  0  0
 13 12  1  0  0  0  0
 13 10  1  0  0  0  0
 14 15  1  1  0  0  0
 16 21  2  0  0  0  0
 17 19  2  0  0  0  0
 17 21  1  0  0  0  0
 18 14  1  1  0  0  0
 18 17  1  0  0  0  0
 20 16  1  0  0  0  0
 22 18  1  0  0  0  0
 22 20  2  0  0  0  0
 23 25  1  0  0  0  0
 23 26  1  1  0  0  0
 23 24  1  0  0  0  0
 25 16  1  6  0  0  0
 25 24  1  0  0  0  0
 27  3  1  0  0  0  0
 28 27  1  6  0  0  0
 28 31  1  0  0  0  0
 29 34  1  6  0  0  0
 29 33  1  0  0  0  0
 29 32  1  0  0  0  0
 30 29  1  0  0  0  0
 32 31  1  0  0  0  0
 33 30  1  6  0  0  0
 33 28  1  0  0  0  0
 34 35  1  0  0  0  0
 36 34  2  0  0  0  0
M  END
>  <MODEL>
9

>  <REMARK>
 VINA RESULT:      -7.6      2.335      9.014
  Name = 
  9 active torsions:
  status: ('A' for Active; 'I' for Inactive)
    1  A    between atoms: C_3  and  C_5
    2  A    between atoms: N_4  and  C_23
    3  A    between atoms: C_6  and  O_26
    4  A    between atoms: C_10  and  C_12
    5  A    between atoms: C_10  and  C_21
    6  A    between atoms: C_13  and  O_26
    7  A    between atoms: C_14  and  C_15
    8  A    between atoms: C_22  and  O_25
    9  A    between atoms: O_25  and  C_35
                            x       y       z     vdW  Elec       q    Type
                         _______ _______ _______ _____ _____    ______ ____

>  <TORSDO>
F 9

$$$$
