=
 OpenBabel10232409583D

 34 37  0  0  1  0  0  0  0  0999 V2000
  193.0890  177.2880  139.2670 C   0  0  0  0  0  3  0  0  0  0  0  0
  190.2570  176.6150  138.5380 C   0  0  0  0  0  0  0  0  0  0  0  0
  192.6750  174.3530  136.9100 C   0  0  0  0  0  1  0  0  0  0  0  0
  193.2170  176.1140  138.4450 N   0  0  0  0  0  0  0  0  0  0  0  0
  190.9560  176.0380  137.6100 N   0  0  0  0  0  0  0  0  0  0  0  0
  190.7810  176.7290  139.9420 C   0  0  2  0  0  3  0  0  0  0  0  0
  189.7510  177.2220  140.9420 C   0  0  0  0  0  0  0  0  0  0  0  0
  188.2450  177.7720  139.0800 C   0  0  0  0  0  3  0  0  0  0  0  0
  191.9850  177.6100  139.9380 C   0  0  0  0  0  3  0  0  0  0  0  0
  189.0060  177.2110  138.1940 N   0  0  0  0  0  0  0  0  0  0  0  0
  192.2850  175.5100  137.7570 C   0  0  0  0  0  0  0  0  0  0  0  0
  188.5990  177.7950  140.5150 C   0  0  0  0  0  0  0  0  0  0  0  0
  190.3760  178.1800  143.2190 C   0  0  0  0  0  2  0  0  0  0  0  0
  190.3180  175.8110  143.0000 C   0  0  0  0  0  2  0  0  0  0  0  0
  190.7080  176.1840  144.4110 C   0  0  0  0  0  2  0  0  0  0  0  0
  190.0360  177.0710  142.3510 N   0  0  0  0  0  0  0  0  0  0  0  0
  190.9190  177.6320  144.4580 N   0  0  0  0  0  0  0  0  0  0  0  0
  190.1030  178.1540  145.5450 C   0  0  0  0  0  2  0  0  0  0  0  0
  187.4280  177.7330  147.2170 C   0  0  0  0  0  2  0  0  0  0  0  0
  189.0520  177.1290  145.9470 C   0  0  0  0  0  3  0  0  0  0  0  0
  188.8190  177.1750  147.4460 C   0  0  0  0  0  2  0  0  0  0  0  0
  187.6650  177.6970  145.7190 C   0  0  0  0  0  2  0  0  0  0  0  0
  187.7050  178.4060  141.4600 N   0  0  0  0  0  2  0  0  0  0  0  0
  186.3670  178.8600  141.2230 C   0  0  0  0  0  0  0  0  0  0  0  0
  185.8390  178.7830  140.0830 O   0  0  0  0  0  0  0  0  0  0  0  0
  185.6020  179.4710  142.3420 C   0  0  0  0  0  2  0  0  0  0  0  0
  184.5530  178.4910  142.8370 C   0  0  0  0  0  2  0  0  0  0  0  0
  183.5180  179.2070  143.6960 C   0  0  2  0  0  3  0  0  0  0  0  0
  184.5730  179.2400  145.8230 O   0  0  0  0  0  0  0  0  0  0  0  0
  183.6570  178.8130  145.1360 C   0  0  0  0  0  3  0  0  0  0  0  0
  182.1080  178.8970  143.2050 C   0  0  0  0  0  2  0  0  0  0  0  0
  182.0620  178.7870  141.6880 C   0  0  0  0  0  2  0  0  0  0  0  0
  180.1360  179.7480  142.1740 C   0  0  0  0  0  1  0  0  0  0  0  0
  180.7470  178.9140  141.2380 O   0  0  0  0  0  0  0  0  0  0  0  0
  1  9  2  0  0  0  0
  2  6  1  0  0  0  0
  3 11  1  0  0  0  0
  4  1  1  0  0  0  0
  5 11  1  0  0  0  0
  5  2  2  0  0  0  0
  6  9  1  6  0  0  0
  6  7  1  0  0  0  0
  7 16  1  0  0  0  0
  8 12  1  0  0  0  0
 10  2  1  0  0  0  0
 10  8  2  0  0  0  0
 11  4  2  0  0  0  0
 12  7  2  0  0  0  0
 12 23  1  0  0  0  0
 13 17  1  0  0  0  0
 14 15  1  0  0  0  0
 15 17  1  0  0  0  0
 16 14  1  0  0  0  0
 16 13  1  0  0  0  0
 17 18  1  0  0  0  0
 18 20  1  0  0  0  0
 19 21  1  0  0  0  0
 20 21  1  0  0  0  0
 22 20  1  0  0  0  0
 22 19  1  0  0  0  0
 24 23  1  0  0  0  0
 24 26  1  0  0  0  0
 25 24  2  0  0  0  0
 26 27  1  0  0  0  0
 28 27  1  6  0  0  0
 28 30  1  0  0  0  0
 30 29  2  0  0  0  0
 31 28  1  0  0  0  0
 32 31  1  0  0  0  0
 34 32  1  0  0  0  0
 34 33  1  0  0  0  0
M  END
>  <MODEL>
1

>  <REMARK>
 VINA RESULT:      -7.9      0.000      0.000
  Name = 
  11 active torsions:
  status: ('A' for Active; 'I' for Inactive)
    1  A    between atoms: N_2  and  C_34
    2  A    between atoms: C_6  and  C_33
    3  A    between atoms: C_9  and  C_23
    4  A    between atoms: C_13  and  C_27
    5  A    between atoms: C_13  and  C_29
    6  A    between atoms: O_15  and  C_29
    7  A    between atoms: N_18  and  C_21
    8  A    between atoms: C_19  and  C_27
    9  A    between atoms: C_19  and  C_33
   10  A    between atoms: C_23  and  N_32
   11  A    between atoms: C_27  and  C_28
                            x       y       z     vdW  Elec       q    Type
                         _______ _______ _______ _____ _____    ______ ____

>  <TORSDO>
F 11

$$$$
=
 OpenBabel10232409583D

 34 37  0  0  1  0  0  0  0  0999 V2000
  193.4830  177.3540  139.7810 C   0  0  0  0  0  3  0  0  0  0  0  0
  190.8730  176.7510  138.4290 C   0  0  0  0  0  0  0  0  0  0  0  0
  193.5740  174.5200  137.2700 C   0  0  0  0  0  1  0  0  0  0  0  0
  193.7790  176.2120  138.9570 N   0  0  0  0  0  0  0  0  0  0  0  0
  191.7530  176.2000  137.6500 N   0  0  0  0  0  0  0  0  0  0  0  0
  191.0810  176.8020  139.9170 C   0  0  2  0  0  3  0  0  0  0  0  0
  189.8610  177.2700  140.6890 C   0  0  0  0  0  0  0  0  0  0  0  0
  188.7970  177.9130  138.5710 C   0  0  0  0  0  3  0  0  0  0  0  0
  192.2610  177.6650  140.2090 C   0  0  0  0  0  3  0  0  0  0  0  0
  189.7290  177.3780  137.8470 N   0  0  0  0  0  0  0  0  0  0  0  0
  193.0160  175.6490  138.0600 C   0  0  0  0  0  0  0  0  0  0  0  0
  188.8310  177.8750  140.0480 C   0  0  0  0  0  0  0  0  0  0  0  0
  189.9030  178.1360  143.0860 C   0  0  0  0  0  2  0  0  0  0  0  0
  190.0390  175.7820  142.7640 C   0  0  0  0  0  2  0  0  0  0  0  0
  190.0820  176.0990  144.2410 C   0  0  0  0  0  2  0  0  0  0  0  0
  189.8340  177.0590  142.1200 N   0  0  0  0  0  0  0  0  0  0  0  0
  190.1890  177.5510  144.3920 N   0  0  0  0  0  0  0  0  0  0  0  0
  189.1210  177.9730  145.2870 C   0  0  0  0  0  2  0  0  0  0  0  0
  189.1230  177.9650  148.4700 C   0  0  0  0  0  2  0  0  0  0  0  0
  189.0820  177.0740  146.5150 C   0  0  0  0  0  3  0  0  0  0  0  0
  190.1740  177.4720  147.4920 C   0  0  0  0  0  2  0  0  0  0  0  0
  188.0340  177.5770  147.4880 C   0  0  0  0  0  2  0  0  0  0  0  0
  187.7580  178.4600  140.8020 N   0  0  0  0  0  2  0  0  0  0  0  0
  186.4120  178.6910  140.3650 C   0  0  0  0  0  0  0  0  0  0  0  0
  186.0440  178.4060  139.1960 O   0  0  0  0  0  0  0  0  0  0  0  0
  185.4430  179.3140  141.3040 C   0  0  0  0  0  2  0  0  0  0  0  0
  184.0420  178.8230  140.9910 C   0  0  0  0  0  2  0  0  0  0  0  0
  183.3510  178.3380  142.2590 C   0  0  2  0  0  3  0  0  0  0  0  0
  181.0580  178.5210  141.6670 O   0  0  0  0  0  0  0  0  0  0  0  0
  181.9740  178.9200  142.3720 C   0  0  0  0  0  3  0  0  0  0  0  0
  184.1730  178.7040  143.4900 C   0  0  0  0  0  2  0  0  0  0  0  0
  183.2770  179.0580  144.6690 C   0  0  0  0  0  2  0  0  0  0  0  0
  185.3390  178.9340  145.4460 C   0  0  0  0  0  1  0  0  0  0  0  0
  184.0090  179.0110  145.8570 O   0  0  0  0  0  0  0  0  0  0  0  0
  1  9  2  0  0  0  0
  2  6  1  0  0  0  0
  3 11  1  0  0  0  0
  4  1  1  0  0  0  0
  5 11  1  0  0  0  0
  5  2  2  0  0  0  0
  6  9  1  6  0  0  0
  6  7  1  0  0  0  0
  7 16  1  0  0  0  0
  8 12  1  0  0  0  0
 10  2  1  0  0  0  0
 10  8  2  0  0  0  0
 11  4  2  0  0  0  0
 12  7  2  0  0  0  0
 12 23  1  0  0  0  0
 13 17  1  0  0  0  0
 14 15  1  0  0  0  0
 15 17  1  0  0  0  0
 16 14  1  0  0  0  0
 16 13  1  0  0  0  0
 17 18  1  0  0  0  0
 18 20  1  0  0  0  0
 20 22  1  0  0  0  0
 20 21  1  0  0  0  0
 21 19  1  0  0  0  0
 22 19  1  0  0  0  0
 24 23  1  0  0  0  0
 24 26  1  0  0  0  0
 25 24  2  0  0  0  0
 27 26  1  0  0  0  0
 28 27  1  6  0  0  0
 28 30  1  0  0  0  0
 28 31  1  0  0  0  0
 29 30  2  0  0  0  0
 31 32  1  0  0  0  0
 32 34  1  0  0  0  0
 33 34  1  0  0  0  0
M  END
>  <MODEL>
2

>  <REMARK>
 VINA RESULT:      -7.7      0.885      2.128
  Name = 
  11 active torsions:
  status: ('A' for Active; 'I' for Inactive)
    1  A    between atoms: N_2  and  C_34
    2  A    between atoms: C_6  and  C_33
    3  A    between atoms: C_9  and  C_23
    4  A    between atoms: C_13  and  C_27
    5  A    between atoms: C_13  and  C_29
    6  A    between atoms: O_15  and  C_29
    7  A    between atoms: N_18  and  C_21
    8  A    between atoms: C_19  and  C_27
    9  A    between atoms: C_19  and  C_33
   10  A    between atoms: C_23  and  N_32
   11  A    between atoms: C_27  and  C_28
                            x       y       z     vdW  Elec       q    Type
                         _______ _______ _______ _____ _____    ______ ____

>  <TORSDO>
F 11

$$$$
=
 OpenBabel10232409583D

 34 37  0  0  1  0  0  0  0  0999 V2000
  190.7190  178.6270  144.4930 C   0  0  0  0  0  3  0  0  0  0  0  0
  190.6750  176.7630  142.1420 C   0  0  0  0  0  0  0  0  0  0  0  0
  192.1150  175.1670  145.1410 C   0  0  0  0  0  1  0  0  0  0  0  0
  191.2220  177.3900  145.0270 N   0  0  0  0  0  0  0  0  0  0  0  0
  191.5430  176.2240  142.9410 N   0  0  0  0  0  0  0  0  0  0  0  0
  189.4800  177.4980  142.6810 C   0  0  2  0  0  3  0  0  0  0  0  0
  188.4560  177.8620  141.6210 C   0  0  0  0  0  0  0  0  0  0  0  0
  190.0590  177.2010  139.8810 C   0  0  0  0  0  3  0  0  0  0  0  0
  189.9480  178.7110  143.4100 C   0  0  0  0  0  3  0  0  0  0  0  0
  190.9050  176.7130  140.7330 N   0  0  0  0  0  0  0  0  0  0  0  0
  191.5330  176.3010  144.3770 C   0  0  0  0  0  0  0  0  0  0  0  0
  188.7770  177.8030  140.3060 C   0  0  0  0  0  0  0  0  0  0  0  0
  186.4250  177.6530  143.1470 C   0  0  0  0  0  2  0  0  0  0  0  0
  186.2600  179.1340  141.2910 C   0  0  0  0  0  2  0  0  0  0  0  0
  184.9650  179.1430  142.0700 C   0  0  0  0  0  2  0  0  0  0  0  0
  187.1400  178.2790  142.0540 N   0  0  0  0  0  0  0  0  0  0  0  0
  185.0330  178.0880  143.0820 N   0  0  0  0  0  0  0  0  0  0  0  0
  184.7210  178.6980  144.3660 C   0  0  0  0  0  2  0  0  0  0  0  0
  185.9910  178.9750  147.2710 C   0  0  0  0  0  2  0  0  0  0  0  0
  185.4050  177.9290  145.4880 C   0  0  0  0  0  3  0  0  0  0  0  0
  186.6540  178.6630  145.9430 C   0  0  0  0  0  2  0  0  0  0  0  0
  184.7400  178.2510  146.8120 C   0  0  0  0  0  2  0  0  0  0  0  0
  187.8620  178.3040  139.3180 N   0  0  0  0  0  2  0  0  0  0  0  0
  187.3870  177.6240  138.1490 C   0  0  0  0  0  0  0  0  0  0  0  0
  187.7810  176.4650  137.8570 O   0  0  0  0  0  0  0  0  0  0  0  0
  186.4360  178.3210  137.2430 C   0  0  0  0  0  2  0  0  0  0  0  0
  185.5280  177.3040  136.5770 C   0  0  0  0  0  2  0  0  0  0  0  0
  184.1430  177.3310  137.2090 C   0  0  2  0  0  3  0  0  0  0  0  0
  183.2310  179.1100  138.4910 O   0  0  0  0  0  0  0  0  0  0  0  0
  184.1090  178.2680  138.3790 C   0  0  0  0  0  3  0  0  0  0  0  0
  183.7280  175.9320  137.6500 C   0  0  0  0  0  2  0  0  0  0  0  0
  184.7360  174.8860  137.1950 C   0  0  0  0  0  2  0  0  0  0  0  0
  185.4460  172.8010  137.3260 C   0  0  0  0  0  1  0  0  0  0  0  0
  184.5460  173.6970  137.9020 O   0  0  0  0  0  0  0  0  0  0  0  0
  1  4  1  0  0  0  0
  2  6  1  0  0  0  0
  2  5  2  0  0  0  0
  5 11  1  0  0  0  0
  6  9  1  6  0  0  0
  7 16  1  0  0  0  0
  7  6  1  0  0  0  0
  8 12  1  0  0  0  0
  8 10  2  0  0  0  0
  9  1  2  0  0  0  0
 10  2  1  0  0  0  0
 11  4  2  0  0  0  0
 11  3  1  0  0  0  0
 12  7  2  0  0  0  0
 14 16  1  0  0  0  0
 14 15  1  0  0  0  0
 15 17  1  0  0  0  0
 16 13  1  0  0  0  0
 17 13  1  0  0  0  0
 17 18  1  0  0  0  0
 18 20  1  0  0  0  0
 20 21  1  0  0  0  0
 20 22  1  0  0  0  0
 21 19  1  0  0  0  0
 22 19  1  0  0  0  0
 23 12  1  0  0  0  0
 24 23  1  0  0  0  0
 25 24  2  0  0  0  0
 26 24  1  0  0  0  0
 27 26  1  0  0  0  0
 28 27  1  1  0  0  0
 28 31  1  0  0  0  0
 28 30  1  0  0  0  0
 30 29  2  0  0  0  0
 32 31  1  0  0  0  0
 32 34  1  0  0  0  0
 33 34  1  0  0  0  0
M  END
>  <MODEL>
3

>  <REMARK>
 VINA RESULT:      -6.6      2.723      5.361
  Name = 
  11 active torsions:
  status: ('A' for Active; 'I' for Inactive)
    1  A    between atoms: N_2  and  C_34
    2  A    between atoms: C_6  and  C_33
    3  A    between atoms: C_9  and  C_23
    4  A    between atoms: C_13  and  C_27
    5  A    between atoms: C_13  and  C_29
    6  A    between atoms: O_15  and  C_29
    7  A    between atoms: N_18  and  C_21
    8  A    between atoms: C_19  and  C_27
    9  A    between atoms: C_19  and  C_33
   10  A    between atoms: C_23  and  N_32
   11  A    between atoms: C_27  and  C_28
                            x       y       z     vdW  Elec       q    Type
                         _______ _______ _______ _____ _____    ______ ____

>  <TORSDO>
F 11

$$$$
=
 OpenBabel10232409583D

 34 37  0  0  1  0  0  0  0  0999 V2000
  190.7290  178.6150  144.4450 C   0  0  0  0  0  3  0  0  0  0  0  0
  190.6660  176.7560  142.0900 C   0  0  0  0  0  0  0  0  0  0  0  0
  192.1180  175.1490  145.0790 C   0  0  0  0  0  1  0  0  0  0  0  0
  191.2310  177.3750  144.9740 N   0  0  0  0  0  0  0  0  0  0  0  0
  191.5380  176.2130  142.8840 N   0  0  0  0  0  0  0  0  0  0  0  0
  189.4760  177.4930  142.6370 C   0  0  2  0  0  3  0  0  0  0  0  0
  188.4480  177.8630  141.5840 C   0  0  0  0  0  0  0  0  0  0  0  0
  190.0390  177.2000  139.8340 C   0  0  0  0  0  3  0  0  0  0  0  0
  189.9530  178.7040  143.3660 C   0  0  0  0  0  3  0  0  0  0  0  0
  190.8880  176.7080  140.6800 N   0  0  0  0  0  0  0  0  0  0  0  0
  191.5350  176.2870  144.3200 C   0  0  0  0  0  0  0  0  0  0  0  0
  188.7620  177.8050  140.2670 C   0  0  0  0  0  0  0  0  0  0  0  0
  186.4260  177.6580  143.1210 C   0  0  0  0  0  2  0  0  0  0  0  0
  186.2540  179.1410  141.2680 C   0  0  0  0  0  2  0  0  0  0  0  0
  184.9630  179.1530  142.0540 C   0  0  0  0  0  2  0  0  0  0  0  0
  187.1360  178.2830  142.0250 N   0  0  0  0  0  0  0  0  0  0  0  0
  185.0350  178.0970  143.0650 N   0  0  0  0  0  0  0  0  0  0  0  0
  184.7320  178.7070  144.3510 C   0  0  0  0  0  2  0  0  0  0  0  0
  186.0310  178.9230  147.2490 C   0  0  0  0  0  2  0  0  0  0  0  0
  185.3770  177.9050  145.4730 C   0  0  0  0  0  3  0  0  0  0  0  0
  186.6680  178.5690  145.9190 C   0  0  0  0  0  2  0  0  0  0  0  0
  184.7380  178.2700  146.7990 C   0  0  0  0  0  2  0  0  0  0  0  0
  187.8430  178.3100  139.2850 N   0  0  0  0  0  2  0  0  0  0  0  0
  187.3590  177.6340  138.1170 C   0  0  0  0  0  0  0  0  0  0  0  0
  187.7470  176.4740  137.8220 O   0  0  0  0  0  0  0  0  0  0  0  0
  186.4060  178.3360  137.2180 C   0  0  0  0  0  2  0  0  0  0  0  0
  185.3120  177.3760  136.7860 C   0  0  0  0  0  2  0  0  0  0  0  0
  184.3260  177.1420  137.9230 C   0  0  2  0  0  3  0  0  0  0  0  0
  183.5140  174.9340  138.2460 O   0  0  0  0  0  0  0  0  0  0  0  0
  183.4280  175.9810  137.6200 C   0  0  0  0  0  3  0  0  0  0  0  0
  183.4930  178.3940  138.1750 C   0  0  0  0  0  2  0  0  0  0  0  0
  182.5970  178.2260  139.3940 C   0  0  0  0  0  2  0  0  0  0  0  0
  182.1510  180.2480  138.6290 C   0  0  0  0  0  1  0  0  0  0  0  0
  182.0760  179.4630  139.7790 O   0  0  0  0  0  0  0  0  0  0  0  0
  1  4  1  0  0  0  0
  2  6  1  0  0  0  0
  2  5  2  0  0  0  0
  5 11  1  0  0  0  0
  6  9  1  6  0  0  0
  7 16  1  0  0  0  0
  7  6  1  0  0  0  0
  8 12  1  0  0  0  0
  8 10  2  0  0  0  0
  9  1  2  0  0  0  0
 10  2  1  0  0  0  0
 11  4  2  0  0  0  0
 11  3  1  0  0  0  0
 12  7  2  0  0  0  0
 14 16  1  0  0  0  0
 14 15  1  0  0  0  0
 15 17  1  0  0  0  0
 16 13  1  0  0  0  0
 17 13  1  0  0  0  0
 17 18  1  0  0  0  0
 18 20  1  0  0  0  0
 20 21  1  0  0  0  0
 20 22  1  0  0  0  0
 21 19  1  0  0  0  0
 22 19  1  0  0  0  0
 23 12  1  0  0  0  0
 24 23  1  0  0  0  0
 25 24  2  0  0  0  0
 26 24  1  0  0  0  0
 27 26  1  0  0  0  0
 28 27  1  6  0  0  0
 28 31  1  0  0  0  0
 30 28  1  0  0  0  0
 30 29  2  0  0  0  0
 31 32  1  0  0  0  0
 32 34  1  0  0  0  0
 33 34  1  0  0  0  0
M  END
>  <MODEL>
4

>  <REMARK>
 VINA RESULT:      -6.6      2.468      4.906
  Name = 
  11 active torsions:
  status: ('A' for Active; 'I' for Inactive)
    1  A    between atoms: N_2  and  C_34
    2  A    between atoms: C_6  and  C_33
    3  A    between atoms: C_9  and  C_23
    4  A    between atoms: C_13  and  C_27
    5  A    between atoms: C_13  and  C_29
    6  A    between atoms: O_15  and  C_29
    7  A    between atoms: N_18  and  C_21
    8  A    between atoms: C_19  and  C_27
    9  A    between atoms: C_19  and  C_33
   10  A    between atoms: C_23  and  N_32
   11  A    between atoms: C_27  and  C_28
                            x       y       z     vdW  Elec       q    Type
                         _______ _______ _______ _____ _____    ______ ____

>  <TORSDO>
F 11

$$$$
=
 OpenBabel10232409583D

 34 37  0  0  1  0  0  0  0  0999 V2000
  190.8140  178.8970  144.4820 C   0  0  0  0  0  3  0  0  0  0  0  0
  190.7260  176.5580  142.6030 C   0  0  0  0  0  0  0  0  0  0  0  0
  192.0610  175.6200  145.9130 C   0  0  0  0  0  1  0  0  0  0  0  0
  191.2600  177.7920  145.2890 N   0  0  0  0  0  0  0  0  0  0  0  0
  191.5620  176.1800  143.5210 N   0  0  0  0  0  0  0  0  0  0  0  0
  189.5550  177.4380  142.9400 C   0  0  2  0  0  3  0  0  0  0  0  0
  188.5610  177.5930  141.8040 C   0  0  0  0  0  0  0  0  0  0  0  0
  190.1590  176.5030  140.2900 C   0  0  0  0  0  3  0  0  0  0  0  0
  190.0620  178.7650  143.3910 C   0  0  0  0  0  3  0  0  0  0  0  0
  190.9730  176.1880  141.2470 N   0  0  0  0  0  0  0  0  0  0  0  0
  191.5360  176.5760  144.9040 C   0  0  0  0  0  0  0  0  0  0  0  0
  188.8970  177.2310  140.5420 C   0  0  0  0  0  0  0  0  0  0  0  0
  186.3570  177.5710  143.0840 C   0  0  0  0  0  2  0  0  0  0  0  0
  186.5680  179.1130  141.2840 C   0  0  0  0  0  2  0  0  0  0  0  0
  185.2010  179.2460  141.9130 C   0  0  0  0  0  2  0  0  0  0  0  0
  187.2570  178.1430  142.1040 N   0  0  0  0  0  0  0  0  0  0  0  0
  185.0380  178.1620  142.8830 N   0  0  0  0  0  0  0  0  0  0  0  0
  184.6480  178.7670  144.1480 C   0  0  0  0  0  2  0  0  0  0  0  0
  185.8290  178.9980  147.0950 C   0  0  0  0  0  2  0  0  0  0  0  0
  185.2270  177.9680  145.3080 C   0  0  0  0  0  3  0  0  0  0  0  0
  186.5130  178.6090  145.7980 C   0  0  0  0  0  2  0  0  0  0  0  0
  184.5410  178.3670  146.6000 C   0  0  0  0  0  2  0  0  0  0  0  0
  188.0160  177.5310  139.4470 N   0  0  0  0  0  2  0  0  0  0  0  0
  188.3110  178.3140  138.2830 C   0  0  0  0  0  0  0  0  0  0  0  0
  189.4330  178.8640  138.1280 O   0  0  0  0  0  0  0  0  0  0  0  0
  187.2540  178.5110  137.2570 C   0  0  0  0  0  2  0  0  0  0  0  0
  187.7600  178.0370  135.9060 C   0  0  0  0  0  2  0  0  0  0  0  0
  187.1760  176.6710  135.5670 C   0  0  2  0  0  3  0  0  0  0  0  0
  186.0610  175.2930  137.1470 O   0  0  0  0  0  0  0  0  0  0  0  0
  186.0510  176.3270  136.4960 C   0  0  0  0  0  3  0  0  0  0  0  0
  188.2540  175.5960  135.6350 C   0  0  0  0  0  2  0  0  0  0  0  0
  189.6480  176.2070  135.6050 C   0  0  0  0  0  2  0  0  0  0  0  0
  189.7860  174.6010  137.1120 C   0  0  0  0  0  1  0  0  0  0  0  0
  190.3700  175.8090  136.7320 O   0  0  0  0  0  0  0  0  0  0  0  0
  1  4  1  0  0  0  0
  2  6  1  0  0  0  0
  2  5  2  0  0  0  0
  5 11  1  0  0  0  0
  6  9  1  6  0  0  0
  7 16  1  0  0  0  0
  7  6  1  0  0  0  0
  8 12  1  0  0  0  0
  8 10  2  0  0  0  0
  9  1  2  0  0  0  0
 10  2  1  0  0  0  0
 11  4  2  0  0  0  0
 11  3  1  0  0  0  0
 12  7  2  0  0  0  0
 14 15  1  0  0  0  0
 14 16  1  0  0  0  0
 15 17  1  0  0  0  0
 16 13  1  0  0  0  0
 17 13  1  0  0  0  0
 17 18  1  0  0  0  0
 18 20  1  0  0  0  0
 20 21  1  0  0  0  0
 20 22  1  0  0  0  0
 21 19  1  0  0  0  0
 22 19  1  0  0  0  0
 23 12  1  0  0  0  0
 24 23  1  0  0  0  0
 25 24  2  0  0  0  0
 26 24  1  0  0  0  0
 27 26  1  0  0  0  0
 28 31  1  1  0  0  0
 28 27  1  0  0  0  0
 28 30  1  0  0  0  0
 30 29  2  0  0  0  0
 32 31  1  0  0  0  0
 32 34  1  0  0  0  0
 34 33  1  0  0  0  0
M  END
>  <MODEL>
5

>  <REMARK>
 VINA RESULT:      -6.5      2.992      6.418
  Name = 
  11 active torsions:
  status: ('A' for Active; 'I' for Inactive)
    1  A    between atoms: N_2  and  C_34
    2  A    between atoms: C_6  and  C_33
    3  A    between atoms: C_9  and  C_23
    4  A    between atoms: C_13  and  C_27
    5  A    between atoms: C_13  and  C_29
    6  A    between atoms: O_15  and  C_29
    7  A    between atoms: N_18  and  C_21
    8  A    between atoms: C_19  and  C_27
    9  A    between atoms: C_19  and  C_33
   10  A    between atoms: C_23  and  N_32
   11  A    between atoms: C_27  and  C_28
                            x       y       z     vdW  Elec       q    Type
                         _______ _______ _______ _____ _____    ______ ____

>  <TORSDO>
F 11

$$$$
=
 OpenBabel10232409583D

 34 37  0  0  1  0  0  0  0  0999 V2000
  191.9410  175.4280  147.3340 C   0  0  0  0  0  3  0  0  0  0  0  0
  190.1440  177.6610  148.2240 C   0  0  0  0  0  0  0  0  0  0  0  0
  193.4540  177.8220  149.8480 C   0  0  0  0  0  1  0  0  0  0  0  0
  192.7740  176.2120  148.2060 N   0  0  0  0  0  0  0  0  0  0  0  0
  191.0550  177.6170  149.1470 N   0  0  0  0  0  0  0  0  0  0  0  0
  190.4760  177.3410  146.7940 C   0  0  2  0  0  3  0  0  0  0  0  0
  189.3560  177.6610  145.8200 C   0  0  0  0  0  0  0  0  0  0  0  0
  187.8460  178.0400  147.7190 C   0  0  0  0  0  3  0  0  0  0  0  0
  190.8710  175.9060  146.7000 C   0  0  0  0  0  3  0  0  0  0  0  0
  188.7950  177.9470  148.5960 N   0  0  0  0  0  0  0  0  0  0  0  0
  192.4240  177.2160  148.9650 C   0  0  0  0  0  0  0  0  0  0  0  0
  188.1000  177.8990  146.2700 C   0  0  0  0  0  0  0  0  0  0  0  0
  189.1000  176.7750  143.4440 C   0  0  0  0  0  2  0  0  0  0  0  0
  190.7740  178.4220  143.8300 C   0  0  0  0  0  2  0  0  0  0  0  0
  190.7770  178.0220  142.3730 C   0  0  0  0  0  2  0  0  0  0  0  0
  189.6660  177.6960  144.4080 N   0  0  0  0  0  0  0  0  0  0  0  0
  189.8750  176.8810  142.2110 N   0  0  0  0  0  0  0  0  0  0  0  0
  188.9370  177.2160  141.1500 C   0  0  0  0  0  2  0  0  0  0  0  0
  189.0550  177.1050  137.9710 C   0  0  0  0  0  2  0  0  0  0  0  0
  189.6900  177.7240  139.9290 C   0  0  0  0  0  3  0  0  0  0  0  0
  190.0300  176.5700  139.0030 C   0  0  0  0  0  2  0  0  0  0  0  0
  188.7080  178.2520  138.9010 C   0  0  0  0  0  2  0  0  0  0  0  0
  187.0160  178.0380  145.3380 N   0  0  0  0  0  2  0  0  0  0  0  0
  185.7670  178.7090  145.5510 C   0  0  0  0  0  0  0  0  0  0  0  0
  185.4880  179.2410  146.6570 O   0  0  0  0  0  0  0  0  0  0  0  0
  184.7660  178.7410  144.4520 C   0  0  0  0  0  2  0  0  0  0  0  0
  185.3620  178.1200  143.2020 C   0  0  0  0  0  2  0  0  0  0  0  0
  184.4020  178.2590  142.0280 C   0  0  2  0  0  3  0  0  0  0  0  0
  186.1360  179.5340  141.0240 O   0  0  0  0  0  0  0  0  0  0  0  0
  184.9720  179.1630  140.9770 C   0  0  0  0  0  3  0  0  0  0  0  0
  183.0540  178.7920  142.4990 C   0  0  0  0  0  2  0  0  0  0  0  0
  181.9970  178.6630  141.4120 C   0  0  0  0  0  2  0  0  0  0  0  0
  180.6270  179.0120  143.1060 C   0  0  0  0  0  1  0  0  0  0  0  0
  180.7910  178.2270  141.9650 O   0  0  0  0  0  0  0  0  0  0  0  0
  1  4  1  0  0  0  0
  2 10  1  0  0  0  0
  2  5  2  0  0  0  0
  4 11  2  0  0  0  0
  6  9  1  1  0  0  0
  6  2  1  0  0  0  0
  7 12  2  0  0  0  0
  7  6  1  0  0  0  0
  8 10  2  0  0  0  0
  9  1  2  0  0  0  0
 11  5  1  0  0  0  0
 11  3  1  0  0  0  0
 12  8  1  0  0  0  0
 13 16  1  0  0  0  0
 14 16  1  0  0  0  0
 15 14  1  0  0  0  0
 16  7  1  0  0  0  0
 17 15  1  0  0  0  0
 17 13  1  0  0  0  0
 18 17  1  0  0  0  0
 19 22  1  0  0  0  0
 19 21  1  0  0  0  0
 20 18  1  0  0  0  0
 21 20  1  0  0  0  0
 22 20  1  0  0  0  0
 23 24  1  0  0  0  0
 23 12  1  0  0  0  0
 24 25  2  0  0  0  0
 26 24  1  0  0  0  0
 27 26  1  0  0  0  0
 28 30  1  6  0  0  0
 28 31  1  0  0  0  0
 28 27  1  0  0  0  0
 30 29  2  0  0  0  0
 32 34  1  0  0  0  0
 32 31  1  0  0  0  0
 34 33  1  0  0  0  0
M  END
>  <MODEL>
6

>  <REMARK>
 VINA RESULT:      -6.4      2.250      6.597
  Name = 
  11 active torsions:
  status: ('A' for Active; 'I' for Inactive)
    1  A    between atoms: N_2  and  C_34
    2  A    between atoms: C_6  and  C_33
    3  A    between atoms: C_9  and  C_23
    4  A    between atoms: C_13  and  C_27
    5  A    between atoms: C_13  and  C_29
    6  A    between atoms: O_15  and  C_29
    7  A    between atoms: N_18  and  C_21
    8  A    between atoms: C_19  and  C_27
    9  A    between atoms: C_19  and  C_33
   10  A    between atoms: C_23  and  N_32
   11  A    between atoms: C_27  and  C_28
                            x       y       z     vdW  Elec       q    Type
                         _______ _______ _______ _____ _____    ______ ____

>  <TORSDO>
F 11

$$$$
=
 OpenBabel10232409583D

 34 37  0  0  1  0  0  0  0  0999 V2000
  193.4830  176.6790  137.5860 C   0  0  0  0  0  3  0  0  0  0  0  0
  191.4950  174.4730  137.1530 C   0  0  0  0  0  0  0  0  0  0  0  0
  194.8100  173.1720  138.1200 C   0  0  0  0  0  1  0  0  0  0  0  0
  194.2140  175.4870  137.9250 N   0  0  0  0  0  0  0  0  0  0  0  0
  192.6410  173.8700  137.0740 N   0  0  0  0  0  0  0  0  0  0  0  0
  191.2980  175.6400  138.0790 C   0  0  2  0  0  3  0  0  0  0  0  0
  189.8500  176.0760  138.2150 C   0  0  0  0  0  0  0  0  0  0  0  0
  189.2560  174.5970  136.3450 C   0  0  0  0  0  3  0  0  0  0  0  0
  192.1540  176.7710  137.6190 C   0  0  0  0  0  3  0  0  0  0  0  0
  190.4340  174.0590  136.2910 N   0  0  0  0  0  0  0  0  0  0  0  0
  193.8440  174.2450  137.7680 C   0  0  0  0  0  0  0  0  0  0  0  0
  188.9170  175.6440  137.3320 C   0  0  0  0  0  0  0  0  0  0  0  0
  189.3450  176.5220  140.6730 C   0  0  0  0  0  2  0  0  0  0  0  0
  188.9750  178.2980  139.1320 C   0  0  0  0  0  2  0  0  0  0  0  0
  188.6180  178.7500  140.5290 C   0  0  0  0  0  2  0  0  0  0  0  0
  189.5010  176.9630  139.3020 N   0  0  0  0  0  0  0  0  0  0  0  0
  188.6740  177.5860  141.4140 N   0  0  0  0  0  0  0  0  0  0  0  0
  189.5390  177.9320  142.5320 C   0  0  0  0  0  2  0  0  0  0  0  0
  187.8360  177.6640  145.2070 C   0  0  0  0  0  2  0  0  0  0  0  0
  189.2470  177.0240  143.7180 C   0  0  0  0  0  3  0  0  0  0  0  0
  189.3330  177.8090  145.0150 C   0  0  0  0  0  2  0  0  0  0  0  0
  187.7480  176.8890  143.9060 C   0  0  0  0  0  2  0  0  0  0  0  0
  187.5870  176.1870  137.3670 N   0  0  0  0  0  2  0  0  0  0  0  0
  187.0050  177.1220  136.4500 C   0  0  0  0  0  0  0  0  0  0  0  0
  187.6660  177.5990  135.4900 O   0  0  0  0  0  0  0  0  0  0  0  0
  185.6020  177.5660  136.6610 C   0  0  0  0  0  2  0  0  0  0  0  0
  185.3200  177.6720  138.1490 C   0  0  0  0  0  2  0  0  0  0  0  0
  183.8620  178.0390  138.3900 C   0  0  2  0  0  3  0  0  0  0  0  0
  184.5100  179.9180  139.6910 O   0  0  0  0  0  0  0  0  0  0  0  0
  183.7400  179.4580  138.8600 C   0  0  0  0  0  3  0  0  0  0  0  0
  183.2340  177.0970  139.4120 C   0  0  0  0  0  2  0  0  0  0  0  0
  182.8440  175.7710  138.7750 C   0  0  0  0  0  2  0  0  0  0  0  0
  183.0030  174.9880  136.7180 C   0  0  0  0  0  1  0  0  0  0  0  0
  182.3820  175.9810  137.4740 O   0  0  0  0  0  0  0  0  0  0  0  0
  1  9  2  0  0  0  0
  1  4  1  0  0  0  0
  2  6  1  0  0  0  0
  5  2  2  0  0  0  0
  5 11  1  0  0  0  0
  6  9  1  6  0  0  0
  6  7  1  0  0  0  0
  7 16  1  0  0  0  0
  8 12  1  0  0  0  0
 10  8  2  0  0  0  0
 10  2  1  0  0  0  0
 11  4  2  0  0  0  0
 11  3  1  0  0  0  0
 12 23  1  0  0  0  0
 12  7  2  0  0  0  0
 13 17  1  0  0  0  0
 14 16  1  0  0  0  0
 14 15  1  0  0  0  0
 15 17  1  0  0  0  0
 16 13  1  0  0  0  0
 17 18  1  0  0  0  0
 18 20  1  0  0  0  0
 20 22  1  0  0  0  0
 20 21  1  0  0  0  0
 21 19  1  0  0  0  0
 22 19  1  0  0  0  0
 24 26  1  0  0  0  0
 24 23  1  0  0  0  0
 25 24  2  0  0  0  0
 26 27  1  0  0  0  0
 28 27  1  1  0  0  0
 28 30  1  0  0  0  0
 28 31  1  0  0  0  0
 30 29  2  0  0  0  0
 32 31  1  0  0  0  0
 33 34  1  0  0  0  0
 34 32  1  0  0  0  0
M  END
>  <MODEL>
7

>  <REMARK>
 VINA RESULT:      -6.3      2.721      4.120
  Name = 
  11 active torsions:
  status: ('A' for Active; 'I' for Inactive)
    1  A    between atoms: N_2  and  C_34
    2  A    between atoms: C_6  and  C_33
    3  A    between atoms: C_9  and  C_23
    4  A    between atoms: C_13  and  C_27
    5  A    between atoms: C_13  and  C_29
    6  A    between atoms: O_15  and  C_29
    7  A    between atoms: N_18  and  C_21
    8  A    between atoms: C_19  and  C_27
    9  A    between atoms: C_19  and  C_33
   10  A    between atoms: C_23  and  N_32
   11  A    between atoms: C_27  and  C_28
                            x       y       z     vdW  Elec       q    Type
                         _______ _______ _______ _____ _____    ______ ____

>  <TORSDO>
F 11

$$$$
=
 OpenBabel10232409583D

 34 37  0  0  1  0  0  0  0  0999 V2000
  190.4920  178.8090  144.6450 C   0  0  0  0  0  3  0  0  0  0  0  0
  190.6900  176.6090  142.6130 C   0  0  0  0  0  0  0  0  0  0  0  0
  191.9870  175.5660  145.9060 C   0  0  0  0  0  1  0  0  0  0  0  0
  191.0100  177.6950  145.3940 N   0  0  0  0  0  0  0  0  0  0  0  0
  191.5240  176.2450  143.5380 N   0  0  0  0  0  0  0  0  0  0  0  0
  189.4300  177.3530  142.9570 C   0  0  2  0  0  3  0  0  0  0  0  0
  188.4670  177.4980  141.7930 C   0  0  0  0  0  0  0  0  0  0  0  0
  190.2130  176.6660  140.2790 C   0  0  0  0  0  3  0  0  0  0  0  0
  189.7950  178.6860  143.5170 C   0  0  0  0  0  3  0  0  0  0  0  0
  191.0190  176.3590  141.2460 N   0  0  0  0  0  0  0  0  0  0  0  0
  191.4110  176.5380  144.9410 C   0  0  0  0  0  0  0  0  0  0  0  0
  188.8810  177.2560  140.5250 C   0  0  0  0  0  0  0  0  0  0  0  0
  186.3490  178.7930  141.2180 C   0  0  0  0  0  2  0  0  0  0  0  0
  186.4510  177.7410  143.3500 C   0  0  0  0  0  2  0  0  0  0  0  0
  185.1290  178.4570  143.1960 C   0  0  0  0  0  2  0  0  0  0  0  0
  187.1080  177.9050  142.0740 N   0  0  0  0  0  0  0  0  0  0  0  0
  185.1780  179.2450  141.9640 N   0  0  0  0  0  0  0  0  0  0  0  0
  184.0100  178.8870  141.1730 C   0  0  0  0  0  2  0  0  0  0  0  0
  182.7890  178.7190  138.2390 C   0  0  0  0  0  2  0  0  0  0  0  0
  184.3630  178.8870  139.6920 C   0  0  0  0  0  3  0  0  0  0  0  0
  183.6690  177.7360  138.9870 C   0  0  0  0  0  2  0  0  0  0  0  0
  183.4760  179.8690  138.9520 C   0  0  0  0  0  2  0  0  0  0  0  0
  188.0150  177.5520  139.4170 N   0  0  0  0  0  2  0  0  0  0  0  0
  188.2790  178.4370  138.3200 C   0  0  0  0  0  0  0  0  0  0  0  0
  189.3500  179.0940  138.2480 O   0  0  0  0  0  0  0  0  0  0  0  0
  187.2450  178.6090  137.2660 C   0  0  0  0  0  2  0  0  0  0  0  0
  186.7070  177.2510  136.8530 C   0  0  0  0  0  2  0  0  0  0  0  0
  187.8030  176.4200  136.1980 C   0  0  2  0  0  3  0  0  0  0  0  0
  189.4670  177.4660  134.8650 O   0  0  0  0  0  0  0  0  0  0  0  0
  188.3080  177.0890  134.9550 C   0  0  0  0  0  3  0  0  0  0  0  0
  187.2890  175.0230  135.8650 C   0  0  0  0  0  2  0  0  0  0  0  0
  186.1480  174.6190  136.7870 C   0  0  0  0  0  2  0  0  0  0  0  0
  185.2160  172.8510  137.7230 C   0  0  0  0  0  1  0  0  0  0  0  0
  185.7590  173.3050  136.5210 O   0  0  0  0  0  0  0  0  0  0  0  0
  1  4  1  0  0  0  0
  2  6  1  0  0  0  0
  2  5  2  0  0  0  0
  5 11  1  0  0  0  0
  6  9  1  6  0  0  0
  7 16  1  0  0  0  0
  7  6  1  0  0  0  0
  8 12  1  0  0  0  0
  8 10  2  0  0  0  0
  9  1  2  0  0  0  0
 10  2  1  0  0  0  0
 11  4  2  0  0  0  0
 11  3  1  0  0  0  0
 12  7  2  0  0  0  0
 13 17  1  0  0  0  0
 13 16  1  0  0  0  0
 15 14  1  0  0  0  0
 16 14  1  0  0  0  0
 17 15  1  0  0  0  0
 18 17  1  0  0  0  0
 19 22  1  0  0  0  0
 19 21  1  0  0  0  0
 20 18  1  0  0  0  0
 21 20  1  0  0  0  0
 22 20  1  0  0  0  0
 23 12  1  0  0  0  0
 24 23  1  0  0  0  0
 25 24  2  0  0  0  0
 26 24  1  0  0  0  0
 27 26  1  0  0  0  0
 28 30  1  6  0  0  0
 28 27  1  0  0  0  0
 29 30  2  0  0  0  0
 31 28  1  0  0  0  0
 31 32  1  0  0  0  0
 34 32  1  0  0  0  0
 34 33  1  0  0  0  0
M  END
>  <MODEL>
8

>  <REMARK>
 VINA RESULT:      -6.3      3.207      6.950
  Name = 
  11 active torsions:
  status: ('A' for Active; 'I' for Inactive)
    1  A    between atoms: N_2  and  C_34
    2  A    between atoms: C_6  and  C_33
    3  A    between atoms: C_9  and  C_23
    4  A    between atoms: C_13  and  C_27
    5  A    between atoms: C_13  and  C_29
    6  A    between atoms: O_15  and  C_29
    7  A    between atoms: N_18  and  C_21
    8  A    between atoms: C_19  and  C_27
    9  A    between atoms: C_19  and  C_33
   10  A    between atoms: C_23  and  N_32
   11  A    between atoms: C_27  and  C_28
                            x       y       z     vdW  Elec       q    Type
                         _______ _______ _______ _____ _____    ______ ____

>  <TORSDO>
F 11

$$$$
=
 OpenBabel10232409583D

 34 37  0  0  1  0  0  0  0  0999 V2000
  193.5360  176.6610  137.6550 C   0  0  0  0  0  3  0  0  0  0  0  0
  191.4880  174.5290  137.1420 C   0  0  0  0  0  0  0  0  0  0  0  0
  194.7550  173.1020  138.0950 C   0  0  0  0  0  1  0  0  0  0  0  0
  194.2290  175.4380  137.9630 N   0  0  0  0  0  0  0  0  0  0  0  0
  192.6160  173.8940  137.0540 N   0  0  0  0  0  0  0  0  0  0  0  0
  191.3170  175.6740  138.1000 C   0  0  2  0  0  3  0  0  0  0  0  0
  189.8820  176.1480  138.2380 C   0  0  0  0  0  0  0  0  0  0  0  0
  189.2600  174.7430  136.3220 C   0  0  0  0  0  3  0  0  0  0  0  0
  192.2110  176.7910  137.6800 C   0  0  0  0  0  3  0  0  0  0  0  0
  190.4220  174.1720  136.2610 N   0  0  0  0  0  0  0  0  0  0  0  0
  193.8230  174.2130  137.7670 C   0  0  0  0  0  0  0  0  0  0  0  0
  188.9440  175.7710  137.3360 C   0  0  0  0  0  0  0  0  0  0  0  0
  189.3830  176.5400  140.7070 C   0  0  0  0  0  2  0  0  0  0  0  0
  189.0530  178.3630  139.2140 C   0  0  0  0  0  2  0  0  0  0  0  0
  188.7030  178.7860  140.6220 C   0  0  0  0  0  2  0  0  0  0  0  0
  189.5500  177.0140  139.3480 N   0  0  0  0  0  0  0  0  0  0  0  0
  188.7340  177.5980  141.4750 N   0  0  0  0  0  0  0  0  0  0  0  0
  189.6050  177.8950  142.6030 C   0  0  0  0  0  2  0  0  0  0  0  0
  188.0530  177.6590  145.3710 C   0  0  0  0  0  2  0  0  0  0  0  0
  189.2950  176.9600  143.7630 C   0  0  0  0  0  3  0  0  0  0  0  0
  189.5420  177.6640  145.0860 C   0  0  0  0  0  2  0  0  0  0  0  0
  187.8050  176.9660  144.0450 C   0  0  0  0  0  2  0  0  0  0  0  0
  187.6310  176.3520  137.3770 N   0  0  0  0  0  2  0  0  0  0  0  0
  186.9830  177.1100  136.3480 C   0  0  0  0  0  0  0  0  0  0  0  0
  187.5610  177.3720  135.2610 O   0  0  0  0  0  0  0  0  0  0  0  0
  185.6110  177.6300  136.5870 C   0  0  0  0  0  2  0  0  0  0  0  0
  184.8510  176.6710  137.4860 C   0  0  0  0  0  2  0  0  0  0  0  0
  183.7790  177.4130  138.2720 C   0  0  2  0  0  3  0  0  0  0  0  0
  181.9140  176.4210  137.1860 O   0  0  0  0  0  0  0  0  0  0  0  0
  182.4880  177.4500  137.5090 C   0  0  0  0  0  3  0  0  0  0  0  0
  184.2350  178.8310  138.5940 C   0  0  0  0  0  2  0  0  0  0  0  0
  184.0220  179.1610  140.0640 C   0  0  0  0  0  2  0  0  0  0  0  0
  185.2800  178.8170  141.8450 C   0  0  0  0  0  1  0  0  0  0  0  0
  185.2320  179.5360  140.6510 O   0  0  0  0  0  0  0  0  0  0  0  0
  1  9  2  0  0  0  0
  1  4  1  0  0  0  0
  2  6  1  0  0  0  0
  5  2  2  0  0  0  0
  5 11  1  0  0  0  0
  6  9  1  6  0  0  0
  6  7  1  0  0  0  0
  7 16  1  0  0  0  0
  8 12  1  0  0  0  0
 10  8  2  0  0  0  0
 10  2  1  0  0  0  0
 11  4  2  0  0  0  0
 11  3  1  0  0  0  0
 12 23  1  0  0  0  0
 12  7  2  0  0  0  0
 13 17  1  0  0  0  0
 14 16  1  0  0  0  0
 14 15  1  0  0  0  0
 15 17  1  0  0  0  0
 16 13  1  0  0  0  0
 17 18  1  0  0  0  0
 18 20  1  0  0  0  0
 20 22  1  0  0  0  0
 20 21  1  0  0  0  0
 21 19  1  0  0  0  0
 22 19  1  0  0  0  0
 24 26  1  0  0  0  0
 24 23  1  0  0  0  0
 25 24  2  0  0  0  0
 26 27  1  0  0  0  0
 28 27  1  6  0  0  0
 28 31  1  0  0  0  0
 29 30  2  0  0  0  0
 30 28  1  0  0  0  0
 31 32  1  0  0  0  0
 32 34  1  0  0  0  0
 34 33  1  0  0  0  0
M  END
>  <MODEL>
9

>  <REMARK>
 VINA RESULT:      -6.3      2.478      4.253
  Name = 
  11 active torsions:
  status: ('A' for Active; 'I' for Inactive)
    1  A    between atoms: N_2  and  C_34
    2  A    between atoms: C_6  and  C_33
    3  A    between atoms: C_9  and  C_23
    4  A    between atoms: C_13  and  C_27
    5  A    between atoms: C_13  and  C_29
    6  A    between atoms: O_15  and  C_29
    7  A    between atoms: N_18  and  C_21
    8  A    between atoms: C_19  and  C_27
    9  A    between atoms: C_19  and  C_33
   10  A    between atoms: C_23  and  N_32
   11  A    between atoms: C_27  and  C_28
                            x       y       z     vdW  Elec       q    Type
                         _______ _______ _______ _____ _____    ______ ____

>  <TORSDO>
F 11

$$$$
