=
 OpenBabel10232411463D

 27 28  0  0  1  0  0  0  0  0999 V2000
  187.6470  178.2980  140.9760 C   0  0  0  0  0  0  0  0  0  0  0  0
  189.8180  177.6730  140.6320 C   0  0  0  0  0  0  0  0  0  0  0  0
  188.7920  178.5870  140.0470 C   0  0  1  0  0  3  0  0  0  0  0  0
  189.2800  177.0160  141.6500 C   0  0  0  0  0  0  0  0  0  0  0  0
  187.9350  177.4110  141.8720 N   0  0  0  0  0  0  0  0  0  0  0  0
  185.5810  178.9560  139.7110 N   0  0  0  0  0  2  0  0  0  0  0  0
  186.3380  178.9650  140.9220 C   0  0  0  0  0  0  0  0  0  0  0  0
  185.8870  179.5490  141.9440 O   0  0  0  0  0  0  0  0  0  0  0  0
  184.3320  179.5820  139.6370 N   0  0  0  0  0  2  0  0  0  0  0  0
  184.1940  180.6170  138.9550 O   0  0  0  0  0  1  0  0  0  0  0  0
  187.9580  177.0750  138.3730 O   0  0  0  0  0  1  0  0  0  0  0  0
  188.7370  179.0860  137.6030 O   0  0  0  0  0  0  0  0  0  0  0  0
  188.4650  178.1990  138.6350 C   0  0  0  0  0  0  0  0  0  0  0  0
  191.2410  177.5660  140.1770 C   0  0  0  0  0  2  0  0  0  0  0  0
  191.3840  176.5180  139.1270 C   0  0  0  0  0  0  0  0  0  0  0  0
  190.5590  175.5710  139.0680 O   0  0  0  0  0  0  0  0  0  0  0  0
  192.4690  176.5740  138.2090 N   0  0  0  0  0  1  0  0  0  0  0  0
  190.0040  176.0680  142.5490 C   0  0  0  0  0  2  0  0  0  0  0  0
  190.5660  177.1250  145.9680 C   0  0  0  0  0  3  0  0  0  0  0  0
  189.9550  176.5480  143.9200 N   0  0  0  0  0  0  0  0  0  0  0  0
  188.2470  177.5590  146.8230 N   0  0  0  0  0  0  0  0  0  0  0  0
  191.0200  176.7060  144.7270 C   0  0  0  0  0  3  0  0  0  0  0  0
  188.8350  176.8260  144.5600 N   0  0  0  0  0  0  0  0  0  0  0  0
  188.7060  178.0280  148.1200 C   0  0  0  0  0  1  0  0  0  0  0  0
  189.1890  177.1830  145.8060 C   0  0  0  0  0  0  0  0  0  0  0  0
  186.1880  178.8300  147.1420 C   0  0  0  0  0  1  0  0  0  0  0  0
  186.8180  177.5830  146.5470 C   0  0  0  0  0  2  0  0  0  0  0  0
  1  5  2  0  0  0  0
  2  4  2  0  0  0  0
  3 13  1  6  0  0  0
  3  2  1  0  0  0  0
  3  1  1  0  0  0  0
  4  5  1  0  0  0  0
  4 18  1  0  0  0  0
  6  7  1  0  0  0  0
  7  1  1  0  0  0  0
  7  8  2  0  0  0  0
  9  6  1  0  0  0  0
 10  9  1  0  0  0  0
 11 13  1  0  0  0  0
 12 13  2  0  0  0  0
 14  2  1  0  0  0  0
 15 14  1  0  0  0  0
 16 15  2  0  0  0  0
 17 15  1  0  0  0  0
 18 20  1  0  0  0  0
 20 23  1  0  0  0  0
 20 22  1  0  0  0  0
 21 24  1  0  0  0  0
 22 19  2  0  0  0  0
 23 25  2  0  0  0  0
 25 19  1  0  0  0  0
 25 21  1  0  0  0  0
 27 21  1  0  0  0  0
 27 26  1  0  0  0  0
M  END
>  <MODEL>
1

>  <REMARK>
 VINA RESULT:      -7.9      0.000      0.000
  Name = 
  8 active torsions:
  status: ('A' for Active; 'I' for Inactive)
    1  A    between atoms: N_1  and  N_13
    2  A    between atoms: C_2  and  C_3
    3  A    between atoms: C_4  and  C_8
    4  A    between atoms: C_8  and  C_9
    5  A    between atoms: N_11  and  C_19
    6  A    between atoms: N_14  and  C_22
    7  A    between atoms: C_17  and  C_26
    8  A    between atoms: C_19  and  C_21
                            x       y       z     vdW  Elec       q    Type
                         _______ _______ _______ _____ _____    ______ ____

>  <TORSDO>
F 8

$$$$
=
 OpenBabel10232411463D

 27 28  0  0  1  0  0  0  0  0999 V2000
  185.7410  178.2290  142.7370 C   0  0  0  0  0  0  0  0  0  0  0  0
  186.2490  177.7640  144.9160 C   0  0  0  0  0  0  0  0  0  0  0  0
  185.0530  177.9860  144.0500 C   0  0  1  0  0  3  0  0  0  0  0  0
  187.3440  177.9020  144.1810 C   0  0  0  0  0  0  0  0  0  0  0  0
  187.0310  178.1800  142.8250 N   0  0  0  0  0  0  0  0  0  0  0  0
  185.6430  179.2960  140.4670 N   0  0  0  0  0  2  0  0  0  0  0  0
  185.0480  178.4600  141.4610 C   0  0  0  0  0  0  0  0  0  0  0  0
  183.9280  177.9230  141.2460 O   0  0  0  0  0  0  0  0  0  0  0  0
  185.0040  179.5280  139.2450 N   0  0  0  0  0  2  0  0  0  0  0  0
  184.1910  180.4670  139.1340 O   0  0  0  0  0  1  0  0  0  0  0  0
  184.5940  180.3460  144.0970 O   0  0  0  0  0  0  0  0  0  0  0  0
  183.2140  179.0360  145.3710 O   0  0  0  0  0  1  0  0  0  0  0  0
  184.2810  179.1930  144.4960 C   0  0  0  0  0  0  0  0  0  0  0  0
  186.2110  177.3850  146.3640 C   0  0  0  0  0  2  0  0  0  0  0  0
  186.5720  178.5470  147.2250 C   0  0  0  0  0  0  0  0  0  0  0  0
  185.8550  179.5800  147.2190 O   0  0  0  0  0  0  0  0  0  0  0  0
  187.7410  178.4990  148.0330 N   0  0  0  0  0  1  0  0  0  0  0  0
  188.7420  177.6770  144.6580 C   0  0  0  0  0  2  0  0  0  0  0  0
  191.4570  177.2440  142.3010 C   0  0  0  0  0  3  0  0  0  0  0  0
  189.6270  177.4710  143.5240 N   0  0  0  0  0  0  0  0  0  0  0  0
  190.2860  177.1690  140.0830 N   0  0  0  0  0  0  0  0  0  0  0  0
  190.9680  177.3820  143.5890 C   0  0  0  0  0  3  0  0  0  0  0  0
  189.2130  177.4110  142.2730 N   0  0  0  0  0  0  0  0  0  0  0  0
  191.5070  176.9190  139.3340 C   0  0  0  0  0  1  0  0  0  0  0  0
  190.3140  177.2680  141.5150 C   0  0  0  0  0  0  0  0  0  0  0  0
  188.9080  178.5090  138.5790 C   0  0  0  0  0  1  0  0  0  0  0  0
  189.0270  177.2100  139.3540 C   0  0  0  0  0  2  0  0  0  0  0  0
  1  5  2  0  0  0  0
  1  3  1  0  0  0  0
  2 14  1  0  0  0  0
  3 13  1  1  0  0  0
  3  2  1  0  0  0  0
  4 18  1  0  0  0  0
  4  2  2  0  0  0  0
  5  4  1  0  0  0  0
  6  7  1  0  0  0  0
  7  1  1  0  0  0  0
  8  7  2  0  0  0  0
  9  6  1  0  0  0  0
 10  9  1  0  0  0  0
 11 13  2  0  0  0  0
 13 12  1  0  0  0  0
 14 15  1  0  0  0  0
 15 17  1  0  0  0  0
 16 15  2  0  0  0  0
 19 22  2  0  0  0  0
 20 22  1  0  0  0  0
 20 18  1  0  0  0  0
 21 25  1  0  0  0  0
 23 20  1  0  0  0  0
 24 21  1  0  0  0  0
 25 23  2  0  0  0  0
 25 19  1  0  0  0  0
 26 27  1  0  0  0  0
 27 21  1  0  0  0  0
M  END
>  <MODEL>
2

>  <REMARK>
 VINA RESULT:      -7.6      2.441      6.082
  Name = 
  8 active torsions:
  status: ('A' for Active; 'I' for Inactive)
    1  A    between atoms: N_1  and  N_13
    2  A    between atoms: C_2  and  C_3
    3  A    between atoms: C_4  and  C_8
    4  A    between atoms: C_8  and  C_9
    5  A    between atoms: N_11  and  C_19
    6  A    between atoms: N_14  and  C_22
    7  A    between atoms: C_17  and  C_26
    8  A    between atoms: C_19  and  C_21
                            x       y       z     vdW  Elec       q    Type
                         _______ _______ _______ _____ _____    ______ ____

>  <TORSDO>
F 8

$$$$
=
 OpenBabel10232411463D

 27 28  0  0  1  0  0  0  0  0999 V2000
  188.6340  177.7220  142.0920 C   0  0  0  0  0  0  0  0  0  0  0  0
  189.2490  177.9840  144.2770 C   0  0  0  0  0  0  0  0  0  0  0  0
  189.8600  178.0040  142.9140 C   0  0  1  0  0  3  0  0  0  0  0  0
  187.9570  177.7090  144.1670 C   0  0  0  0  0  0  0  0  0  0  0  0
  187.5700  177.5570  142.8100 N   0  0  0  0  0  0  0  0  0  0  0  0
  187.6820  178.4850  139.8990 N   0  0  0  0  0  2  0  0  0  0  0  0
  188.6060  177.6730  140.6230 C   0  0  0  0  0  0  0  0  0  0  0  0
  189.3970  176.9110  140.0040 O   0  0  0  0  0  0  0  0  0  0  0  0
  187.6390  178.4580  138.5010 N   0  0  0  0  0  2  0  0  0  0  0  0
  186.6150  178.8400  137.9010 O   0  0  0  0  0  1  0  0  0  0  0  0
  192.0770  177.1860  142.4720 O   0  0  0  0  0  0  0  0  0  0  0  0
  190.5010  175.5930  142.9390 O   0  0  0  0  0  1  0  0  0  0  0  0
  190.8820  176.9160  142.7650 C   0  0  0  0  0  0  0  0  0  0  0  0
  189.9720  178.2880  145.5530 C   0  0  0  0  0  2  0  0  0  0  0  0
  190.3610  177.0310  146.2530 C   0  0  0  0  0  0  0  0  0  0  0  0
  189.5470  176.4630  147.0250 O   0  0  0  0  0  0  0  0  0  0  0  0
  191.6630  176.4880  146.0700 N   0  0  0  0  0  1  0  0  0  0  0  0
  186.9780  177.6800  145.2950 C   0  0  0  0  0  2  0  0  0  0  0  0
  183.6350  178.9980  144.8380 C   0  0  0  0  0  3  0  0  0  0  0  0
  185.6820  178.1560  144.8400 N   0  0  0  0  0  0  0  0  0  0  0  0
  183.1660  178.5460  142.4150 N   0  0  0  0  0  0  0  0  0  0  0  0
  184.7510  178.7380  145.6180 C   0  0  0  0  0  3  0  0  0  0  0  0
  185.2390  178.0090  143.6070 N   0  0  0  0  0  0  0  0  0  0  0  0
  181.8690  179.2020  142.4400 C   0  0  0  0  0  1  0  0  0  0  0  0
  183.9960  178.5200  143.5860 C   0  0  0  0  0  0  0  0  0  0  0  0
  184.1670  179.1330  140.2680 C   0  0  0  0  0  1  0  0  0  0  0  0
  183.6440  178.0120  141.1470 C   0  0  0  0  0  2  0  0  0  0  0  0
  1  5  2  0  0  0  0
  1  3  1  0  0  0  0
  2 14  1  0  0  0  0
  3 13  1  1  0  0  0
  3  2  1  0  0  0  0
  4  2  2  0  0  0  0
  4 18  1  0  0  0  0
  5  4  1  0  0  0  0
  6  7  1  0  0  0  0
  7  1  1  0  0  0  0
  8  7  2  0  0  0  0
  9  6  1  0  0  0  0
 10  9  1  0  0  0  0
 11 13  2  0  0  0  0
 13 12  1  0  0  0  0
 14 15  1  0  0  0  0
 15 16  2  0  0  0  0
 17 15  1  0  0  0  0
 19 22  2  0  0  0  0
 20 18  1  0  0  0  0
 20 22  1  0  0  0  0
 21 24  1  0  0  0  0
 21 25  1  0  0  0  0
 23 20  1  0  0  0  0
 25 23  2  0  0  0  0
 25 19  1  0  0  0  0
 26 27  1  0  0  0  0
 27 21  1  0  0  0  0
M  END
>  <MODEL>
3

>  <REMARK>
 VINA RESULT:      -7.6      2.870      5.481
  Name = 
  8 active torsions:
  status: ('A' for Active; 'I' for Inactive)
    1  A    between atoms: N_1  and  N_13
    2  A    between atoms: C_2  and  C_3
    3  A    between atoms: C_4  and  C_8
    4  A    between atoms: C_8  and  C_9
    5  A    between atoms: N_11  and  C_19
    6  A    between atoms: N_14  and  C_22
    7  A    between atoms: C_17  and  C_26
    8  A    between atoms: C_19  and  C_21
                            x       y       z     vdW  Elec       q    Type
                         _______ _______ _______ _____ _____    ______ ____

>  <TORSDO>
F 8

$$$$
=
 OpenBabel10232411463D

 27 28  0  0  1  0  0  0  0  0999 V2000
  189.0540  177.8520  140.3170 C   0  0  0  0  0  0  0  0  0  0  0  0
  190.4190  177.1060  141.9920 C   0  0  0  0  0  0  0  0  0  0  0  0
  190.5170  177.7360  140.6410 C   0  0  1  0  0  3  0  0  0  0  0  0
  189.1400  176.9080  142.2830 C   0  0  0  0  0  0  0  0  0  0  0  0
  188.2910  177.3810  141.2500 N   0  0  0  0  0  0  0  0  0  0  0  0
  187.1960  178.1440  138.6560 N   0  0  0  0  0  2  0  0  0  0  0  0
  188.5150  178.4680  139.0960 C   0  0  0  0  0  0  0  0  0  0  0  0
  189.2200  179.2790  138.4360 O   0  0  0  0  0  0  0  0  0  0  0  0
  186.6600  178.7200  137.4980 N   0  0  0  0  0  2  0  0  0  0  0  0
  186.7900  178.1450  136.3990 O   0  0  0  0  0  1  0  0  0  0  0  0
  190.6340  175.8410  139.1650 O   0  0  0  0  0  0  0  0  0  0  0  0
  192.5470  177.0870  139.3450 O   0  0  0  0  0  1  0  0  0  0  0  0
  191.2230  176.8330  139.6730 C   0  0  0  0  0  0  0  0  0  0  0  0
  191.5760  176.8050  142.8920 C   0  0  0  0  0  2  0  0  0  0  0  0
  191.5910  177.7280  144.0620 C   0  0  0  0  0  0  0  0  0  0  0  0
  191.6660  177.2630  145.2280 O   0  0  0  0  0  0  0  0  0  0  0  0
  191.4930  179.1330  143.8620 N   0  0  0  0  0  1  0  0  0  0  0  0
  188.6190  176.3740  143.5780 C   0  0  0  0  0  2  0  0  0  0  0  0
  186.0770  178.3000  145.2950 C   0  0  0  0  0  3  0  0  0  0  0  0
  187.4770  177.1590  144.0150 N   0  0  0  0  0  0  0  0  0  0  0  0
  184.2940  178.5790  143.5520 N   0  0  0  0  0  0  0  0  0  0  0  0
  187.3080  177.6650  145.2510 C   0  0  0  0  0  3  0  0  0  0  0  0
  186.4290  177.4150  143.2560 N   0  0  0  0  0  0  0  0  0  0  0  0
  183.4550  179.4100  144.4000 C   0  0  0  0  0  1  0  0  0  0  0  0
  185.5690  178.1120  144.0170 C   0  0  0  0  0  0  0  0  0  0  0  0
  184.7190  179.0900  141.2040 C   0  0  0  0  0  1  0  0  0  0  0  0
  183.8550  178.3230  142.1880 C   0  0  0  0  0  2  0  0  0  0  0  0
  1  3  1  0  0  0  0
  1  5  2  0  0  0  0
  2  4  2  0  0  0  0
  2 14  1  0  0  0  0
  3 13  1  6  0  0  0
  3  2  1  0  0  0  0
  4 18  1  0  0  0  0
  5  4  1  0  0  0  0
  6  7  1  0  0  0  0
  7  1  1  0  0  0  0
  8  7  2  0  0  0  0
  9  6  1  0  0  0  0
 10  9  1  0  0  0  0
 11 13  2  0  0  0  0
 12 13  1  0  0  0  0
 14 15  1  0  0  0  0
 15 16  2  0  0  0  0
 17 15  1  0  0  0  0
 18 20  1  0  0  0  0
 20 22  1  0  0  0  0
 21 25  1  0  0  0  0
 21 24  1  0  0  0  0
 22 19  2  0  0  0  0
 23 20  1  0  0  0  0
 23 25  2  0  0  0  0
 25 19  1  0  0  0  0
 26 27  1  0  0  0  0
 27 21  1  0  0  0  0
M  END
>  <MODEL>
4

>  <REMARK>
 VINA RESULT:      -7.4      2.350      4.043
  Name = 
  8 active torsions:
  status: ('A' for Active; 'I' for Inactive)
    1  A    between atoms: N_1  and  N_13
    2  A    between atoms: C_2  and  C_3
    3  A    between atoms: C_4  and  C_8
    4  A    between atoms: C_8  and  C_9
    5  A    between atoms: N_11  and  C_19
    6  A    between atoms: N_14  and  C_22
    7  A    between atoms: C_17  and  C_26
    8  A    between atoms: C_19  and  C_21
                            x       y       z     vdW  Elec       q    Type
                         _______ _______ _______ _____ _____    ______ ____

>  <TORSDO>
F 8

$$$$
=
 OpenBabel10232411463D

 27 28  0  0  1  0  0  0  0  0999 V2000
  189.7290  177.3700  139.9530 C   0  0  0  0  0  0  0  0  0  0  0  0
  190.9710  177.0590  141.8460 C   0  0  0  0  0  0  0  0  0  0  0  0
  191.0770  177.7240  140.5130 C   0  0  1  0  0  3  0  0  0  0  0  0
  189.7960  176.4500  141.9310 C   0  0  0  0  0  0  0  0  0  0  0  0
  189.0180  176.6520  140.7610 N   0  0  0  0  0  0  0  0  0  0  0  0
  189.0360  179.2040  138.3860 N   0  0  0  0  0  2  0  0  0  0  0  0
  189.2250  177.8120  138.6450 C   0  0  0  0  0  0  0  0  0  0  0  0
  188.9560  176.9630  137.7530 O   0  0  0  0  0  0  0  0  0  0  0  0
  188.5600  179.6490  137.1480 N   0  0  0  0  0  2  0  0  0  0  0  0
  187.3500  179.5410  136.8700 O   0  0  0  0  0  1  0  0  0  0  0  0
  191.9530  176.2050  138.8680 O   0  0  0  0  0  0  0  0  0  0  0  0
  193.4830  177.5840  139.8680 O   0  0  0  0  0  1  0  0  0  0  0  0
  192.1850  177.1250  139.6970 C   0  0  0  0  0  0  0  0  0  0  0  0
  192.0020  177.1230  142.9300 C   0  0  0  0  0  2  0  0  0  0  0  0
  191.5670  178.0400  144.0210 C   0  0  0  0  0  0  0  0  0  0  0  0
  191.1510  179.1940  143.7450 O   0  0  0  0  0  0  0  0  0  0  0  0
  191.6470  177.6200  145.3780 N   0  0  0  0  0  1  0  0  0  0  0  0
  189.2730  175.7410  143.1370 C   0  0  0  0  0  2  0  0  0  0  0  0
  186.7340  178.0690  144.2550 C   0  0  0  0  0  3  0  0  0  0  0  0
  188.3270  176.5900  143.8420 N   0  0  0  0  0  0  0  0  0  0  0  0
  187.0130  178.0710  146.7480 N   0  0  0  0  0  0  0  0  0  0  0  0
  187.4030  177.3750  143.2600 C   0  0  0  0  0  3  0  0  0  0  0  0
  188.3110  176.7390  145.1530 N   0  0  0  0  0  0  0  0  0  0  0  0
  185.8910  178.9670  146.9740 C   0  0  0  0  0  1  0  0  0  0  0  0
  187.3440  177.6320  145.4220 C   0  0  0  0  0  0  0  0  0  0  0  0
  188.9680  178.3710  148.1780 C   0  0  0  0  0  1  0  0  0  0  0  0
  187.7220  177.5490  147.9080 C   0  0  0  0  0  2  0  0  0  0  0  0
  1  3  1  0  0  0  0
  1  5  2  0  0  0  0
  2  4  2  0  0  0  0
  2 14  1  0  0  0  0
  3 13  1  6  0  0  0
  3  2  1  0  0  0  0
  4 18  1  0  0  0  0
  5  4  1  0  0  0  0
  6  7  1  0  0  0  0
  7  1  1  0  0  0  0
  8  7  2  0  0  0  0
  9  6  1  0  0  0  0
 10  9  1  0  0  0  0
 11 13  2  0  0  0  0
 13 12  1  0  0  0  0
 14 15  1  0  0  0  0
 15 17  1  0  0  0  0
 16 15  2  0  0  0  0
 18 20  1  0  0  0  0
 19 25  1  0  0  0  0
 20 23  1  0  0  0  0
 21 24  1  0  0  0  0
 21 27  1  0  0  0  0
 22 20  1  0  0  0  0
 22 19  2  0  0  0  0
 23 25  2  0  0  0  0
 25 21  1  0  0  0  0
 27 26  1  0  0  0  0
M  END
>  <MODEL>
5

>  <REMARK>
 VINA RESULT:      -7.3      2.352      3.717
  Name = 
  8 active torsions:
  status: ('A' for Active; 'I' for Inactive)
    1  A    between atoms: N_1  and  N_13
    2  A    between atoms: C_2  and  C_3
    3  A    between atoms: C_4  and  C_8
    4  A    between atoms: C_8  and  C_9
    5  A    between atoms: N_11  and  C_19
    6  A    between atoms: N_14  and  C_22
    7  A    between atoms: C_17  and  C_26
    8  A    between atoms: C_19  and  C_21
                            x       y       z     vdW  Elec       q    Type
                         _______ _______ _______ _____ _____    ______ ____

>  <TORSDO>
F 8

$$$$
=
 OpenBabel10232411463D

 27 28  0  0  1  0  0  0  0  0999 V2000
  187.1970  177.9550  142.6000 C   0  0  0  0  0  0  0  0  0  0  0  0
  189.0730  176.6490  142.6450 C   0  0  0  0  0  0  0  0  0  0  0  0
  187.8900  176.9700  143.5000 C   0  0  1  0  0  3  0  0  0  0  0  0
  189.0070  177.3670  141.5320 C   0  0  0  0  0  0  0  0  0  0  0  0
  187.8370  178.1690  141.4970 N   0  0  0  0  0  0  0  0  0  0  0  0
  185.1270  178.1440  144.0070 N   0  0  0  0  0  2  0  0  0  0  0  0
  185.9070  178.5920  142.8970 C   0  0  0  0  0  0  0  0  0  0  0  0
  185.4870  179.5330  142.1700 O   0  0  0  0  0  0  0  0  0  0  0  0
  183.8970  178.7370  144.3110 N   0  0  0  0  0  2  0  0  0  0  0  0
  183.6780  179.1640  145.4620 O   0  0  0  0  0  1  0  0  0  0  0  0
  187.7580  177.3000  145.8780 O   0  0  0  0  0  1  0  0  0  0  0  0
  189.3210  178.5630  144.7800 O   0  0  0  0  0  0  0  0  0  0  0  0
  188.3130  177.6090  144.7900 C   0  0  0  0  0  0  0  0  0  0  0  0
  190.1260  175.6360  142.9710 C   0  0  0  0  0  2  0  0  0  0  0  0
  191.2800  176.2760  143.6640 C   0  0  0  0  0  0  0  0  0  0  0  0
  191.9810  177.1280  143.0620 O   0  0  0  0  0  0  0  0  0  0  0  0
  191.6060  175.9020  144.9970 N   0  0  0  0  0  1  0  0  0  0  0  0
  189.9590  177.2730  140.3840 C   0  0  0  0  0  2  0  0  0  0  0  0
  188.5250  178.7400  137.3990 C   0  0  0  0  0  3  0  0  0  0  0  0
  189.2760  177.6060  139.1450 N   0  0  0  0  0  0  0  0  0  0  0  0
  187.0230  176.9260  136.5320 N   0  0  0  0  0  0  0  0  0  0  0  0
  189.3560  178.7880  138.5060 C   0  0  0  0  0  3  0  0  0  0  0  0
  188.4370  176.7960  138.5300 N   0  0  0  0  0  0  0  0  0  0  0  0
  186.6390  177.6730  135.3460 C   0  0  0  0  0  1  0  0  0  0  0  0
  187.9730  177.4680  137.4630 C   0  0  0  0  0  0  0  0  0  0  0  0
  187.2770  174.6060  135.8210 C   0  0  0  0  0  1  0  0  0  0  0  0
  186.5040  175.5760  136.6950 C   0  0  0  0  0  2  0  0  0  0  0  0
  1  7  1  0  0  0  0
  1  3  1  0  0  0  0
  2 14  1  0  0  0  0
  2  3  1  0  0  0  0
  3 13  1  1  0  0  0
  4  2  2  0  0  0  0
  5  4  1  0  0  0  0
  5  1  2  0  0  0  0
  6  9  1  0  0  0  0
  7  6  1  0  0  0  0
  8  7  2  0  0  0  0
  9 10  1  0  0  0  0
 12 13  2  0  0  0  0
 13 11  1  0  0  0  0
 14 15  1  0  0  0  0
 15 17  1  0  0  0  0
 16 15  2  0  0  0  0
 18  4  1  0  0  0  0
 19 25  1  0  0  0  0
 19 22  2  0  0  0  0
 20 18  1  0  0  0  0
 21 27  1  0  0  0  0
 21 25  1  0  0  0  0
 22 20  1  0  0  0  0
 23 20  1  0  0  0  0
 24 21  1  0  0  0  0
 25 23  2  0  0  0  0
 26 27  1  0  0  0  0
M  END
>  <MODEL>
6

>  <REMARK>
 VINA RESULT:      -7.1      2.951      6.532
  Name = 
  8 active torsions:
  status: ('A' for Active; 'I' for Inactive)
    1  A    between atoms: N_1  and  N_13
    2  A    between atoms: C_2  and  C_3
    3  A    between atoms: C_4  and  C_8
    4  A    between atoms: C_8  and  C_9
    5  A    between atoms: N_11  and  C_19
    6  A    between atoms: N_14  and  C_22
    7  A    between atoms: C_17  and  C_26
    8  A    between atoms: C_19  and  C_21
                            x       y       z     vdW  Elec       q    Type
                         _______ _______ _______ _____ _____    ______ ____

>  <TORSDO>
F 8

$$$$
=
 OpenBabel10232411463D

 27 28  0  0  1  0  0  0  0  0999 V2000
  185.4190  178.7020  141.4520 C   0  0  0  0  0  0  0  0  0  0  0  0
  186.5430  177.7560  143.2010 C   0  0  0  0  0  0  0  0  0  0  0  0
  185.1400  178.0090  142.7550 C   0  0  1  0  0  3  0  0  0  0  0  0
  187.3790  178.2590  142.3040 C   0  0  0  0  0  0  0  0  0  0  0  0
  186.6830  178.8380  141.2100 N   0  0  0  0  0  0  0  0  0  0  0  0
  183.0400  178.6990  140.6520 N   0  0  0  0  0  2  0  0  0  0  0  0
  184.3860  179.1550  140.5090 C   0  0  0  0  0  0  0  0  0  0  0  0
  184.6890  179.9420  139.5720 O   0  0  0  0  0  0  0  0  0  0  0  0
  182.0390  179.1180  139.7680 N   0  0  0  0  0  2  0  0  0  0  0  0
  180.9860  179.6180  140.2110 O   0  0  0  0  0  1  0  0  0  0  0  0
  184.7920  180.1060  143.8790 O   0  0  0  0  0  0  0  0  0  0  0  0
  183.3470  178.4210  144.4400 O   0  0  0  0  0  1  0  0  0  0  0  0
  184.4230  178.9130  143.7150 C   0  0  0  0  0  0  0  0  0  0  0  0
  186.9360  177.0010  144.4330 C   0  0  0  0  0  2  0  0  0  0  0  0
  187.3950  177.9330  145.5020 C   0  0  0  0  0  0  0  0  0  0  0  0
  188.6170  178.2040  145.6180 O   0  0  0  0  0  0  0  0  0  0  0  0
  186.4530  178.4940  146.4090 N   0  0  0  0  0  1  0  0  0  0  0  0
  188.8670  178.1400  142.3430 C   0  0  0  0  0  2  0  0  0  0  0  0
  190.4830  176.4840  139.5560 C   0  0  0  0  0  3  0  0  0  0  0  0
  189.3600  177.6460  141.0670 N   0  0  0  0  0  0  0  0  0  0  0  0
  189.7120  177.8130  137.5730 N   0  0  0  0  0  0  0  0  0  0  0  0
  190.2050  176.6120  140.9070 C   0  0  0  0  0  3  0  0  0  0  0  0
  189.0800  178.2070  139.9070 N   0  0  0  0  0  0  0  0  0  0  0  0
  190.3870  176.9570  136.6110 C   0  0  0  0  0  1  0  0  0  0  0  0
  189.7520  177.5100  138.9750 C   0  0  0  0  0  0  0  0  0  0  0  0
  187.5500  178.4200  136.6160 C   0  0  0  0  0  1  0  0  0  0  0  0
  188.9110  178.9180  137.0680 C   0  0  0  0  0  2  0  0  0  0  0  0
  1  3  1  0  0  0  0
  2 14  1  0  0  0  0
  3  2  1  0  0  0  0
  3 13  1  1  0  0  0
  4 18  1  0  0  0  0
  4  2  2  0  0  0  0
  5  1  2  0  0  0  0
  5  4  1  0  0  0  0
  7  6  1  0  0  0  0
  7  1  1  0  0  0  0
  8  7  2  0  0  0  0
  9 10  1  0  0  0  0
  9  6  1  0  0  0  0
 13 11  2  0  0  0  0
 13 12  1  0  0  0  0
 14 15  1  0  0  0  0
 15 16  2  0  0  0  0
 15 17  1  0  0  0  0
 19 22  2  0  0  0  0
 20 18  1  0  0  0  0
 21 25  1  0  0  0  0
 22 20  1  0  0  0  0
 23 20  1  0  0  0  0
 24 21  1  0  0  0  0
 25 19  1  0  0  0  0
 25 23  2  0  0  0  0
 26 27  1  0  0  0  0
 27 21  1  0  0  0  0
M  END
>  <MODEL>
7

>  <REMARK>
 VINA RESULT:      -7.1      2.763      6.356
  Name = 
  8 active torsions:
  status: ('A' for Active; 'I' for Inactive)
    1  A    between atoms: N_1  and  N_13
    2  A    between atoms: C_2  and  C_3
    3  A    between atoms: C_4  and  C_8
    4  A    between atoms: C_8  and  C_9
    5  A    between atoms: N_11  and  C_19
    6  A    between atoms: N_14  and  C_22
    7  A    between atoms: C_17  and  C_26
    8  A    between atoms: C_19  and  C_21
                            x       y       z     vdW  Elec       q    Type
                         _______ _______ _______ _____ _____    ______ ____

>  <TORSDO>
F 8

$$$$
=
 OpenBabel10232411463D

 27 28  0  0  1  0  0  0  0  0999 V2000
  185.7240  178.6910  140.9590 C   0  0  0  0  0  0  0  0  0  0  0  0
  183.5110  178.4630  141.4820 C   0  0  0  0  0  0  0  0  0  0  0  0
  184.4350  178.2440  140.3290 C   0  0  1  0  0  3  0  0  0  0  0  0
  184.2010  178.9610  142.4990 C   0  0  0  0  0  0  0  0  0  0  0  0
  185.5770  179.0930  142.1800 N   0  0  0  0  0  0  0  0  0  0  0  0
  187.1150  178.5270  138.8770 N   0  0  0  0  0  2  0  0  0  0  0  0
  187.0360  178.6490  140.2970 C   0  0  0  0  0  0  0  0  0  0  0  0
  188.0900  178.7160  140.9850 O   0  0  0  0  0  0  0  0  0  0  0  0
  188.3520  178.4870  138.2240 N   0  0  0  0  0  2  0  0  0  0  0  0
  188.8990  179.5470  137.8600 O   0  0  0  0  0  1  0  0  0  0  0  0
  184.2730  180.3570  139.1920 O   0  0  0  0  0  1  0  0  0  0  0  0
  183.4660  178.5440  138.0500 O   0  0  0  0  0  0  0  0  0  0  0  0
  184.0620  179.1150  139.1650 C   0  0  0  0  0  0  0  0  0  0  0  0
  182.0540  178.1160  141.5010 C   0  0  0  0  0  2  0  0  0  0  0  0
  181.2180  179.3310  141.2870 C   0  0  0  0  0  0  0  0  0  0  0  0
  181.0510  179.7820  140.1250 O   0  0  0  0  0  0  0  0  0  0  0  0
  180.6300  179.9960  142.3990 N   0  0  0  0  0  1  0  0  0  0  0  0
  183.6550  179.2420  143.8610 C   0  0  0  0  0  2  0  0  0  0  0  0
  185.5220  178.3620  146.8370 C   0  0  0  0  0  3  0  0  0  0  0  0
  184.5940  178.7910  144.8740 N   0  0  0  0  0  0  0  0  0  0  0  0
  187.7290  177.5920  145.9240 N   0  0  0  0  0  0  0  0  0  0  0  0
  184.3790  178.8180  146.2020 C   0  0  0  0  0  3  0  0  0  0  0  0
  185.8110  178.3570  144.6050 N   0  0  0  0  0  0  0  0  0  0  0  0
  188.2560  177.2300  147.2300 C   0  0  0  0  0  1  0  0  0  0  0  0
  186.3880  178.0870  145.7880 C   0  0  0  0  0  0  0  0  0  0  0  0
  189.8470  178.1340  144.8400 C   0  0  0  0  0  1  0  0  0  0  0  0
  188.5560  177.3400  144.7530 C   0  0  0  0  0  2  0  0  0  0  0  0
  1  5  2  0  0  0  0
  2 14  1  0  0  0  0
  2  4  2  0  0  0  0
  3 13  1  6  0  0  0
  3  1  1  0  0  0  0
  3  2  1  0  0  0  0
  4 18  1  0  0  0  0
  5  4  1  0  0  0  0
  6  7  1  0  0  0  0
  7  1  1  0  0  0  0
  7  8  2  0  0  0  0
  9  6  1  0  0  0  0
 10  9  1  0  0  0  0
 12 13  2  0  0  0  0
 13 11  1  0  0  0  0
 15 14  1  0  0  0  0
 15 17  1  0  0  0  0
 16 15  2  0  0  0  0
 18 20  1  0  0  0  0
 20 22  1  0  0  0  0
 21 24  1  0  0  0  0
 22 19  2  0  0  0  0
 23 20  1  0  0  0  0
 23 25  2  0  0  0  0
 25 21  1  0  0  0  0
 25 19  1  0  0  0  0
 27 26  1  0  0  0  0
 27 21  1  0  0  0  0
M  END
>  <MODEL>
8

>  <REMARK>
 VINA RESULT:      -7.0      2.719      5.856
  Name = 
  8 active torsions:
  status: ('A' for Active; 'I' for Inactive)
    1  A    between atoms: N_1  and  N_13
    2  A    between atoms: C_2  and  C_3
    3  A    between atoms: C_4  and  C_8
    4  A    between atoms: C_8  and  C_9
    5  A    between atoms: N_11  and  C_19
    6  A    between atoms: N_14  and  C_22
    7  A    between atoms: C_17  and  C_26
    8  A    between atoms: C_19  and  C_21
                            x       y       z     vdW  Elec       q    Type
                         _______ _______ _______ _____ _____    ______ ____

>  <TORSDO>
F 8

$$$$
=
 OpenBabel10232411463D

 27 28  0  0  1  0  0  0  0  0999 V2000
  187.1280  177.7940  143.2870 C   0  0  0  0  0  0  0  0  0  0  0  0
  189.1340  176.8740  142.6920 C   0  0  0  0  0  0  0  0  0  0  0  0
  188.1490  176.8260  143.8150 C   0  0  1  0  0  3  0  0  0  0  0  0
  188.7050  177.7340  141.7790 C   0  0  0  0  0  0  0  0  0  0  0  0
  187.4540  178.2980  142.1410 N   0  0  0  0  0  0  0  0  0  0  0  0
  185.8630  178.4910  145.3390 N   0  0  0  0  0  2  0  0  0  0  0  0
  185.8630  178.1220  143.9600 C   0  0  0  0  0  0  0  0  0  0  0  0
  184.7780  178.0750  143.3190 O   0  0  0  0  0  0  0  0  0  0  0  0
  184.6710  178.8100  146.0000 N   0  0  0  0  0  2  0  0  0  0  0  0
  184.4880  178.4280  147.1730 O   0  0  0  0  0  1  0  0  0  0  0  0
  189.3850  178.4140  145.1320 O   0  0  0  0  0  0  0  0  0  0  0  0
  188.6540  176.5490  146.2420 O   0  0  0  0  0  1  0  0  0  0  0  0
  188.7630  177.3180  145.0920 C   0  0  0  0  0  0  0  0  0  0  0  0
  190.3710  176.0370  142.5910 C   0  0  0  0  0  2  0  0  0  0  0  0
  191.4840  176.6400  143.3790 C   0  0  0  0  0  0  0  0  0  0  0  0
  191.9650  176.0210  144.3610 O   0  0  0  0  0  0  0  0  0  0  0  0
  191.9830  177.9270  143.0370 N   0  0  0  0  0  1  0  0  0  0  0  0
  189.3650  178.0060  140.4670 C   0  0  0  0  0  2  0  0  0  0  0  0
  187.6740  176.8690  137.4720 C   0  0  0  0  0  3  0  0  0  0  0  0
  188.4620  177.6720  139.3780 N   0  0  0  0  0  0  0  0  0  0  0  0
  185.4150  177.9450  137.6450 N   0  0  0  0  0  0  0  0  0  0  0  0
  188.7740  176.9100  138.3140 C   0  0  0  0  0  3  0  0  0  0  0  0
  187.2330  178.1400  139.2750 N   0  0  0  0  0  0  0  0  0  0  0  0
  184.9100  177.3110  136.4370 C   0  0  0  0  0  1  0  0  0  0  0  0
  186.7370  177.6580  138.1230 C   0  0  0  0  0  0  0  0  0  0  0  0
  183.1960  178.0710  138.6520 C   0  0  0  0  0  1  0  0  0  0  0  0
  184.5090  178.7910  138.4080 C   0  0  0  0  0  2  0  0  0  0  0  0
  1  3  1  0  0  0  0
  1  7  1  0  0  0  0
  2  3  1  0  0  0  0
  3 13  1  1  0  0  0
  4  5  1  0  0  0  0
  4  2  2  0  0  0  0
  5  1  2  0  0  0  0
  6  9  1  0  0  0  0
  7  6  1  0  0  0  0
  8  7  2  0  0  0  0
  9 10  1  0  0  0  0
 13 11  2  0  0  0  0
 13 12  1  0  0  0  0
 14  2  1  0  0  0  0
 14 15  1  0  0  0  0
 15 16  2  0  0  0  0
 17 15  1  0  0  0  0
 18  4  1  0  0  0  0
 19 25  1  0  0  0  0
 19 22  2  0  0  0  0
 20 18  1  0  0  0  0
 21 25  1  0  0  0  0
 21 27  1  0  0  0  0
 22 20  1  0  0  0  0
 23 20  1  0  0  0  0
 24 21  1  0  0  0  0
 25 23  2  0  0  0  0
 27 26  1  0  0  0  0
M  END
>  <MODEL>
9

>  <REMARK>
 VINA RESULT:      -6.7      3.110      6.392
  Name = 
  8 active torsions:
  status: ('A' for Active; 'I' for Inactive)
    1  A    between atoms: N_1  and  N_13
    2  A    between atoms: C_2  and  C_3
    3  A    between atoms: C_4  and  C_8
    4  A    between atoms: C_8  and  C_9
    5  A    between atoms: N_11  and  C_19
    6  A    between atoms: N_14  and  C_22
    7  A    between atoms: C_17  and  C_26
    8  A    between atoms: C_19  and  C_21
                            x       y       z     vdW  Elec       q    Type
                         _______ _______ _______ _____ _____    ______ ____

>  <TORSDO>
F 8

$$$$
