=
 OpenBabel10232409383D

 35 38  0  0  1  0  0  0  0  0999 V2000
  187.0210  178.5200  138.4330 N   0  0  0  0  0  0  0  0  0  0  0  0
  188.2630  178.1560  138.5210 C   0  0  0  0  0  3  0  0  0  0  0  0
  186.3280  178.8330  140.7320 C   0  0  0  0  0  3  0  0  0  0  0  0
  188.5050  177.6220  140.9620 C   0  0  0  0  0  0  0  0  0  0  0  0
  187.4350  178.5400  141.4100 C   0  0  0  0  0  3  0  0  0  0  0  0
  188.8610  177.4340  139.6680 C   0  0  0  0  0  0  0  0  0  0  0  0
  185.9990  178.2060  139.4200 C   0  0  1  0  0  3  0  0  0  0  0  0
  182.2140  179.5850  138.0130 C   0  0  0  0  0  0  0  0  0  0  0  0
  184.6700  178.6850  138.9350 C   0  0  0  0  0  0  0  0  0  0  0  0
  183.0270  180.3980  138.8040 C   0  0  0  0  0  3  0  0  0  0  0  0
  184.2280  179.9360  139.2450 N   0  0  0  0  0  0  0  0  0  0  0  0
  182.6490  178.3030  137.6770 C   0  0  0  0  0  3  0  0  0  0  0  0
  183.8850  177.8480  138.1380 C   0  0  0  0  0  3  0  0  0  0  0  0
  180.9010  180.0820  137.5290 C   0  0  0  0  0  1  0  0  0  0  0  0
  189.2950  176.9920  142.0720 C   0  0  0  0  0  2  0  0  0  0  0  0
  188.3990  176.4170  143.1650 C   0  0  0  0  0  2  0  0  0  0  0  0
  188.5870  177.1260  144.4300 N   0  0  0  0  0  0  0  0  0  0  0  0
  187.4250  177.9540  146.3950 N   0  0  0  0  0  0  0  0  0  0  0  0
  186.3350  178.4390  147.0460 C   0  0  0  0  0  3  0  0  0  0  0  0
  185.0860  178.3450  144.9930 C   0  0  0  0  0  0  0  0  0  0  0  0
  183.9070  178.5390  144.2860 O   0  0  0  0  0  1  0  0  0  0  0  0
  187.4050  177.6620  145.0620 C   0  0  0  0  0  0  0  0  0  0  0  0
  185.1430  178.6470  146.3530 C   0  0  0  0  0  3  0  0  0  0  0  0
  186.2140  177.8470  144.3440 C   0  0  0  0  0  3  0  0  0  0  0  0
  189.8950  177.2100  145.0510 C   0  0  0  0  0  0  0  0  0  0  0  0
  190.8520  178.1080  144.8140 C   0  0  0  0  0  0  0  0  0  0  0  0
  190.4620  176.2200  146.0210 C   0  0  0  0  0  2  0  0  0  0  0  0
  192.0070  177.7970  145.5690 N   0  0  0  0  0  0  0  0  0  0  0  0
  190.8020  179.2720  143.8850 C   0  0  0  0  0  1  0  0  0  0  0  0
  191.8020  176.7450  146.2490 N   0  0  0  0  0  0  0  0  0  0  0  0
  190.0310  176.5610  139.3300 C   0  0  0  0  0  2  0  0  0  0  0  0
  189.6300  175.1820  137.4540 C   0  0  0  0  0  1  0  0  0  0  0  0
  190.1790  176.4600  137.8820 N   0  0  0  0  0  0  0  0  0  0  0  0
  192.5260  176.7680  138.7080 C   0  0  0  0  0  1  0  0  0  0  0  0
  191.5980  176.5330  137.5160 C   0  0  0  0  0  2  0  0  0  0  0  0
  1  2  2  0  0  0  0
  1  7  1  0  0  0  0
  2  6  1  0  0  0  0
  3  5  2  0  0  0  0
  4  5  1  0  0  0  0
  4 15  1  0  0  0  0
  6  4  2  0  0  0  0
  7  9  1  6  0  0  0
  7  3  1  0  0  0  0
  8 10  1  0  0  0  0
  9 11  1  0  0  0  0
 10 11  2  0  0  0  0
 12  8  2  0  0  0  0
 12 13  1  0  0  0  0
 13  9  2  0  0  0  0
 14  8  1  0  0  0  0
 15 16  1  0  0  0  0
 16 17  1  0  0  0  0
 17 25  1  0  0  0  0
 17 22  1  0  0  0  0
 18 19  1  0  0  0  0
 20 23  1  0  0  0  0
 21 20  1  0  0  0  0
 22 18  2  0  0  0  0
 23 19  2  0  0  0  0
 24 20  2  0  0  0  0
 24 22  1  0  0  0  0
 25 27  1  0  0  0  0
 26 25  2  0  0  0  0
 26 28  1  0  0  0  0
 27 30  1  0  0  0  0
 28 30  2  0  0  0  0
 29 26  1  0  0  0  0
 31  6  1  0  0  0  0
 32 33  1  0  0  0  0
 33 31  1  0  0  0  0
 35 33  1  0  0  0  0
 35 34  1  0  0  0  0
M  END
>  <MODEL>
1

>  <REMARK>
 VINA RESULT:      -8.1      0.000      0.000
  Name = 
  9 active torsions:
  status: ('A' for Active; 'I' for Inactive)
    1  A    between atoms: C_1  and  C_8
    2  A    between atoms: C_1  and  C_17
    3  A    between atoms: C_2  and  N_7
    4  A    between atoms: N_7  and  C_8
    5  A    between atoms: N_7  and  C_28
    6  A    between atoms: C_11  and  C_35
    7  A    between atoms: C_13  and  N_32
    8  A    between atoms: C_23  and  C_25
    9  A    between atoms: C_25  and  N_32
                            x       y       z     vdW  Elec       q    Type
                         _______ _______ _______ _____ _____    ______ ____

>  <TORSDO>
F 9

$$$$
=
 OpenBabel10232409383D

 35 38  0  0  1  0  0  0  0  0999 V2000
  190.4300  176.3960  142.4840 N   0  0  0  0  0  0  0  0  0  0  0  0
  190.0780  176.5710  141.2470 C   0  0  0  0  0  3  0  0  0  0  0  0
  188.4330  176.9140  143.7500 C   0  0  0  0  0  3  0  0  0  0  0  0
  187.8900  177.7810  141.4680 C   0  0  0  0  0  0  0  0  0  0  0  0
  187.5580  177.2230  142.7970 C   0  0  0  0  0  3  0  0  0  0  0  0
  189.0270  177.5060  140.7830 C   0  0  0  0  0  0  0  0  0  0  0  0
  189.8970  177.1520  143.6060 C   0  0  1  0  0  3  0  0  0  0  0  0
  191.9600  176.0560  147.1780 C   0  0  0  0  0  0  0  0  0  0  0  0
  190.6130  176.7620  144.8580 C   0  0  0  0  0  0  0  0  0  0  0  0
  192.3600  175.5620  145.9350 C   0  0  0  0  0  3  0  0  0  0  0  0
  191.6850  175.9220  144.8100 N   0  0  0  0  0  0  0  0  0  0  0  0
  190.8680  176.9230  147.2490 C   0  0  0  0  0  3  0  0  0  0  0  0
  190.1900  177.2810  146.0840 C   0  0  0  0  0  3  0  0  0  0  0  0
  192.6900  175.6660  148.4100 C   0  0  0  0  0  1  0  0  0  0  0  0
  186.7950  178.5890  140.8360 C   0  0  0  0  0  2  0  0  0  0  0  0
  186.1100  179.5180  141.8350 C   0  0  0  0  0  2  0  0  0  0  0  0
  184.7390  179.0880  142.1050 N   0  0  0  0  0  0  0  0  0  0  0  0
  183.6030  179.6270  140.0280 N   0  0  0  0  0  0  0  0  0  0  0  0
  182.8340  179.3190  138.9500 C   0  0  0  0  0  3  0  0  0  0  0  0
  182.6750  177.0500  139.7290 C   0  0  0  0  0  0  0  0  0  0  0  0
  182.2070  175.7520  139.5800 O   0  0  0  0  0  1  0  0  0  0  0  0
  183.9410  178.6970  140.9680 C   0  0  0  0  0  0  0  0  0  0  0  0
  182.3590  178.0200  138.7790 C   0  0  0  0  0  3  0  0  0  0  0  0
  183.4630  177.3850  140.8290 C   0  0  0  0  0  3  0  0  0  0  0  0
  184.2420  178.9860  143.4640 C   0  0  0  0  0  0  0  0  0  0  0  0
  182.9830  179.1150  143.8810 C   0  0  0  0  0  0  0  0  0  0  0  0
  185.0880  178.8180  144.6880 C   0  0  0  0  0  2  0  0  0  0  0  0
  182.9270  179.0240  145.2920 N   0  0  0  0  0  0  0  0  0  0  0  0
  181.7660  179.3500  143.0540 C   0  0  0  0  0  1  0  0  0  0  0  0
  184.0970  178.8570  145.7550 N   0  0  0  0  0  0  0  0  0  0  0  0
  189.2170  178.0400  139.3960 C   0  0  0  0  0  2  0  0  0  0  0  0
  190.2640  177.2580  137.4280 C   0  0  0  0  0  1  0  0  0  0  0  0
  189.2670  176.9400  138.4390 N   0  0  0  0  0  0  0  0  0  0  0  0
  187.3970  178.0600  137.2000 C   0  0  0  0  0  1  0  0  0  0  0  0
  187.9560  176.7700  137.8010 C   0  0  0  0  0  2  0  0  0  0  0  0
  1  7  1  0  0  0  0
  2  1  2  0  0  0  0
  4  5  1  0  0  0  0
  5  3  2  0  0  0  0
  6  2  1  0  0  0  0
  6  4  2  0  0  0  0
  7  3  1  0  0  0  0
  7  9  1  1  0  0  0
  8 12  1  0  0  0  0
  8 14  1  0  0  0  0
  9 13  1  0  0  0  0
 10  8  2  0  0  0  0
 11  9  2  0  0  0  0
 11 10  1  0  0  0  0
 13 12  2  0  0  0  0
 15  4  1  0  0  0  0
 15 16  1  0  0  0  0
 16 17  1  0  0  0  0
 17 25  1  0  0  0  0
 18 22  1  0  0  0  0
 19 18  2  0  0  0  0
 20 24  1  0  0  0  0
 21 20  1  0  0  0  0
 22 17  1  0  0  0  0
 23 19  1  0  0  0  0
 23 20  2  0  0  0  0
 24 22  2  0  0  0  0
 25 26  2  0  0  0  0
 25 27  1  0  0  0  0
 26 28  1  0  0  0  0
 27 30  1  0  0  0  0
 28 30  2  0  0  0  0
 29 26  1  0  0  0  0
 31  6  1  0  0  0  0
 32 33  1  0  0  0  0
 33 31  1  0  0  0  0
 34 35  1  0  0  0  0
 35 33  1  0  0  0  0
M  END
>  <MODEL>
2

>  <REMARK>
 VINA RESULT:      -8.0      2.227      7.495
  Name = 
  9 active torsions:
  status: ('A' for Active; 'I' for Inactive)
    1  A    between atoms: C_1  and  C_8
    2  A    between atoms: C_1  and  C_17
    3  A    between atoms: C_2  and  N_7
    4  A    between atoms: N_7  and  C_8
    5  A    between atoms: N_7  and  C_28
    6  A    between atoms: C_11  and  C_35
    7  A    between atoms: C_13  and  N_32
    8  A    between atoms: C_23  and  C_25
    9  A    between atoms: C_25  and  N_32
                            x       y       z     vdW  Elec       q    Type
                         _______ _______ _______ _____ _____    ______ ____

>  <TORSDO>
F 9

$$$$
=
 OpenBabel10232409383D

 35 38  0  0  1  0  0  0  0  0999 V2000
  184.1900  178.6530  143.5480 N   0  0  0  0  0  0  0  0  0  0  0  0
  183.2650  178.7650  142.6440 C   0  0  0  0  0  3  0  0  0  0  0  0
  186.2600  178.7730  142.2980 C   0  0  0  0  0  3  0  0  0  0  0  0
  184.5450  178.4390  140.5090 C   0  0  0  0  0  0  0  0  0  0  0  0
  185.8340  178.9230  141.0470 C   0  0  0  0  0  3  0  0  0  0  0  0
  183.3990  178.3480  141.2300 C   0  0  0  0  0  0  0  0  0  0  0  0
  185.4830  178.0250  143.3280 C   0  0  1  0  0  3  0  0  0  0  0  0
  187.6340  177.8580  147.0100 C   0  0  0  0  0  0  0  0  0  0  0  0
  186.2410  177.9740  144.6140 C   0  0  0  0  0  0  0  0  0  0  0  0
  186.3580  178.4210  146.9470 C   0  0  0  0  0  3  0  0  0  0  0  0
  185.6930  178.4660  145.7610 N   0  0  0  0  0  0  0  0  0  0  0  0
  188.2120  177.3420  145.8490 C   0  0  0  0  0  3  0  0  0  0  0  0
  187.5130  177.3980  144.6430 C   0  0  0  0  0  3  0  0  0  0  0  0
  188.3680  177.8060  148.3000 C   0  0  0  0  0  1  0  0  0  0  0  0
  184.5400  178.1740  139.0320 C   0  0  0  0  0  2  0  0  0  0  0  0
  185.8350  178.6220  138.3610 C   0  0  0  0  0  2  0  0  0  0  0  0
  186.5170  177.4970  137.7220 N   0  0  0  0  0  0  0  0  0  0  0  0
  188.5150  178.1090  138.9590 N   0  0  0  0  0  0  0  0  0  0  0  0
  189.7920  177.9070  139.3790 C   0  0  0  0  0  3  0  0  0  0  0  0
  189.8510  175.8370  138.1560 C   0  0  0  0  0  0  0  0  0  0  0  0
  190.5240  174.6930  137.7480 O   0  0  0  0  0  1  0  0  0  0  0  0
  187.8650  177.2170  138.1570 C   0  0  0  0  0  0  0  0  0  0  0  0
  190.4830  176.7610  138.9860 C   0  0  0  0  0  3  0  0  0  0  0  0
  188.5420  176.0640  137.7340 C   0  0  0  0  0  3  0  0  0  0  0  0
  185.8310  176.6600  136.7560 C   0  0  0  0  0  0  0  0  0  0  0  0
  185.7850  176.8150  135.4330 C   0  0  0  0  0  0  0  0  0  0  0  0
  184.9430  175.5010  137.0870 C   0  0  0  0  0  2  0  0  0  0  0  0
  184.9470  175.8310  134.8580 N   0  0  0  0  0  0  0  0  0  0  0  0
  186.4620  177.8580  134.6120 C   0  0  0  0  0  1  0  0  0  0  0  0
  184.4700  175.0900  135.7720 N   0  0  0  0  0  0  0  0  0  0  0  0
  182.1210  177.9440  140.5610 C   0  0  0  0  0  2  0  0  0  0  0  0
  179.9820  178.8440  141.0050 C   0  0  0  0  0  1  0  0  0  0  0  0
  181.2650  179.1110  140.3720 N   0  0  0  0  0  0  0  0  0  0  0  0
  181.7350  180.6400  138.4410 C   0  0  0  0  0  1  0  0  0  0  0  0
  181.0640  179.3600  138.9400 C   0  0  0  0  0  2  0  0  0  0  0  0
  2  1  2  0  0  0  0
  3  7  1  0  0  0  0
  4  5  1  0  0  0  0
  4  6  2  0  0  0  0
  5  3  2  0  0  0  0
  6  2  1  0  0  0  0
  7  1  1  0  0  0  0
  7  9  1  1  0  0  0
  8 14  1  0  0  0  0
  9 13  2  0  0  0  0
  9 11  1  0  0  0  0
 10  8  1  0  0  0  0
 11 10  2  0  0  0  0
 12  8  2  0  0  0  0
 13 12  1  0  0  0  0
 15  4  1  0  0  0  0
 16 15  1  0  0  0  0
 17 22  1  0  0  0  0
 17 16  1  0  0  0  0
 18 19  1  0  0  0  0
 20 23  1  0  0  0  0
 21 20  1  0  0  0  0
 22 18  2  0  0  0  0
 23 19  2  0  0  0  0
 24 20  2  0  0  0  0
 24 22  1  0  0  0  0
 25 27  1  0  0  0  0
 25 17  1  0  0  0  0
 26 25  2  0  0  0  0
 28 26  1  0  0  0  0
 28 30  2  0  0  0  0
 29 26  1  0  0  0  0
 30 27  1  0  0  0  0
 31  6  1  0  0  0  0
 33 31  1  0  0  0  0
 33 32  1  0  0  0  0
 34 35  1  0  0  0  0
 35 33  1  0  0  0  0
M  END
>  <MODEL>
3

>  <REMARK>
 VINA RESULT:      -7.8      2.934      8.696
  Name = 
  9 active torsions:
  status: ('A' for Active; 'I' for Inactive)
    1  A    between atoms: C_1  and  C_8
    2  A    between atoms: C_1  and  C_17
    3  A    between atoms: C_2  and  N_7
    4  A    between atoms: N_7  and  C_8
    5  A    between atoms: N_7  and  C_28
    6  A    between atoms: C_11  and  C_35
    7  A    between atoms: C_13  and  N_32
    8  A    between atoms: C_23  and  C_25
    9  A    between atoms: C_25  and  N_32
                            x       y       z     vdW  Elec       q    Type
                         _______ _______ _______ _____ _____    ______ ____

>  <TORSDO>
F 9

$$$$
=
 OpenBabel10232409383D

 35 38  0  0  1  0  0  0  0  0999 V2000
  189.7090  176.7980  142.5970 N   0  0  0  0  0  0  0  0  0  0  0  0
  189.2590  177.0350  141.4030 C   0  0  0  0  0  3  0  0  0  0  0  0
  187.8010  177.1820  144.0380 C   0  0  0  0  0  3  0  0  0  0  0  0
  187.0650  178.1660  141.8590 C   0  0  0  0  0  0  0  0  0  0  0  0
  186.8490  177.5210  143.1720 C   0  0  0  0  0  3  0  0  0  0  0  0
  188.1540  177.9640  141.0770 C   0  0  0  0  0  0  0  0  0  0  0  0
  189.2440  177.4710  143.8000 C   0  0  1  0  0  3  0  0  0  0  0  0
  191.5950  176.2280  147.1380 C   0  0  0  0  0  0  0  0  0  0  0  0
  190.0610  177.0280  144.9690 C   0  0  0  0  0  0  0  0  0  0  0  0
  192.0010  175.9570  145.8310 C   0  0  0  0  0  3  0  0  0  0  0  0
  191.2340  176.3600  144.7820 N   0  0  0  0  0  0  0  0  0  0  0  0
  190.4010  176.9180  147.3540 C   0  0  0  0  0  3  0  0  0  0  0  0
  189.6280  177.3230  146.2640 C   0  0  0  0  0  3  0  0  0  0  0  0
  192.4260  175.7910  148.2880 C   0  0  0  0  0  1  0  0  0  0  0  0
  185.9060  178.9780  141.3610 C   0  0  0  0  0  2  0  0  0  0  0  0
  184.8140  179.1360  142.4150 C   0  0  0  0  0  2  0  0  0  0  0  0
  183.4950  178.8360  141.8600 N   0  0  0  0  0  0  0  0  0  0  0  0
  183.4170  179.4310  139.5080 N   0  0  0  0  0  0  0  0  0  0  0  0
  183.3430  179.1360  138.1830 C   0  0  0  0  0  3  0  0  0  0  0  0
  183.2900  176.7930  138.7230 C   0  0  0  0  0  0  0  0  0  0  0  0
  183.2230  175.4640  138.3290 O   0  0  0  0  0  1  0  0  0  0  0  0
  183.4400  178.4610  140.4670 C   0  0  0  0  0  0  0  0  0  0  0  0
  183.2820  177.8070  137.7660 C   0  0  0  0  0  3  0  0  0  0  0  0
  183.3640  177.1170  140.0770 C   0  0  0  0  0  3  0  0  0  0  0  0
  182.3130  178.8400  142.7020 C   0  0  0  0  0  0  0  0  0  0  0  0
  182.2630  178.8030  144.0330 C   0  0  1  0  0  3  0  0  0  0  0  0
  180.8990  178.7830  142.2140 C   0  0  0  0  0  3  0  0  0  0  0  0
  180.9170  178.7440  144.4670 N   0  0  0  0  0  0  0  0  0  0  0  0
  183.4050  178.7910  144.9900 C   0  0  0  0  0  1  0  0  0  0  0  0
  180.1450  178.7330  143.4590 N   0  0  0  0  0  0  0  0  0  0  0  0
  188.2260  178.5850  139.7150 C   0  0  0  0  0  2  0  0  0  0  0  0
  189.3400  177.7260  137.8170 C   0  0  0  0  0  1  0  0  0  0  0  0
  188.1890  177.5470  138.6890 N   0  0  0  0  0  0  0  0  0  0  0  0
  187.1320  178.4230  136.5910 C   0  0  0  0  0  1  0  0  0  0  0  0
  186.9540  177.6600  137.9040 C   0  0  0  0  0  2  0  0  0  0  0  0
  1  7  1  0  0  0  0
  2  1  2  0  0  0  0
  4  5  1  0  0  0  0
  5  3  2  0  0  0  0
  6  2  1  0  0  0  0
  6  4  2  0  0  0  0
  7  3  1  0  0  0  0
  7  9  1  1  0  0  0
  8 12  1  0  0  0  0
  8 14  1  0  0  0  0
  9 13  1  0  0  0  0
 10  8  2  0  0  0  0
 11  9  2  0  0  0  0
 11 10  1  0  0  0  0
 13 12  2  0  0  0  0
 15  4  1  0  0  0  0
 15 16  1  0  0  0  0
 17 16  1  0  0  0  0
 17 25  1  0  0  0  0
 18 22  1  0  0  0  0
 19 18  2  0  0  0  0
 20 24  1  0  0  0  0
 21 20  1  0  0  0  0
 22 17  1  0  0  0  0
 23 19  1  0  0  0  0
 23 20  2  0  0  0  0
 24 22  2  0  0  0  0
 25 26  1  0  0  0  0
 26 28  1  0  0  0  0
 26 29  1  6  0  0  0
 27 25  2  0  0  0  0
 27 30  1  0  0  0  0
 30 28  2  0  0  0  0
 31  6  1  0  0  0  0
 32 33  1  0  0  0  0
 33 31  1  0  0  0  0
 34 35  1  0  0  0  0
 35 33  1  0  0  0  0
M  END
>  <MODEL>
4

>  <REMARK>
 VINA RESULT:      -7.8      2.607      7.980
  Name = 
  9 active torsions:
  status: ('A' for Active; 'I' for Inactive)
    1  A    between atoms: C_1  and  C_8
    2  A    between atoms: C_1  and  C_17
    3  A    between atoms: C_2  and  N_7
    4  A    between atoms: N_7  and  C_8
    5  A    between atoms: N_7  and  C_28
    6  A    between atoms: C_11  and  C_35
    7  A    between atoms: C_13  and  N_32
    8  A    between atoms: C_23  and  C_25
    9  A    between atoms: C_25  and  N_32
                            x       y       z     vdW  Elec       q    Type
                         _______ _______ _______ _____ _____    ______ ____

>  <TORSDO>
F 9

$$$$
=
 OpenBabel10232409383D

 35 38  0  0  1  0  0  0  0  0999 V2000
  184.3420  178.9520  144.3360 N   0  0  0  0  0  0  0  0  0  0  0  0
  183.2440  179.2110  143.6940 C   0  0  0  0  0  3  0  0  0  0  0  0
  185.9620  178.5150  142.5920 C   0  0  0  0  0  3  0  0  0  0  0  0
  183.7860  178.4620  141.3610 C   0  0  0  0  0  0  0  0  0  0  0  0
  185.2440  178.6750  141.4840 C   0  0  0  0  0  3  0  0  0  0  0  0
  182.8930  178.6820  142.3570 C   0  0  0  0  0  0  0  0  0  0  0  0
  185.3690  178.0330  143.8710 C   0  0  1  0  0  3  0  0  0  0  0  0
  188.3870  177.6210  146.8620 C   0  0  0  0  0  0  0  0  0  0  0  0
  186.4290  177.8970  144.9160 C   0  0  0  0  0  0  0  0  0  0  0  0
  187.1020  178.0550  147.1910 C   0  0  0  0  0  3  0  0  0  0  0  0
  186.1570  178.1830  146.2210 N   0  0  0  0  0  0  0  0  0  0  0  0
  188.6860  177.3160  145.5330 C   0  0  0  0  0  3  0  0  0  0  0  0
  187.7020  177.4530  144.5520 C   0  0  0  0  0  3  0  0  0  0  0  0
  189.4240  177.4800  147.9140 C   0  0  0  0  0  1  0  0  0  0  0  0
  183.3180  178.1080  139.9800 C   0  0  0  0  0  2  0  0  0  0  0  0
  184.1480  178.7880  138.8950 C   0  0  0  0  0  2  0  0  0  0  0  0
  184.6550  177.8160  137.9280 N   0  0  0  0  0  0  0  0  0  0  0  0
  186.3710  177.9060  136.2130 N   0  0  0  0  0  0  0  0  0  0  0  0
  187.6590  177.9990  135.7880 C   0  0  0  0  0  3  0  0  0  0  0  0
  188.3860  178.1580  138.0740 C   0  0  0  0  0  0  0  0  0  0  0  0
  189.4010  178.2820  139.0130 O   0  0  0  0  0  1  0  0  0  0  0  0
  186.0380  177.9430  137.5360 C   0  0  0  0  0  0  0  0  0  0  0  0
  188.6920  178.1300  136.7140 C   0  0  0  0  0  3  0  0  0  0  0  0
  187.0590  178.0590  138.4900 C   0  0  0  0  0  3  0  0  0  0  0  0
  183.8190  176.7280  137.4550 C   0  0  0  0  0  0  0  0  0  0  0  0
  182.6910  176.8170  136.7510 C   0  0  0  0  0  0  0  0  0  0  0  0
  184.0210  175.2780  137.7670 C   0  0  0  0  0  2  0  0  0  0  0  0
  182.1380  175.5300  136.5550 N   0  0  0  0  0  0  0  0  0  0  0  0
  182.0300  178.0500  136.2370 C   0  0  0  0  0  1  0  0  0  0  0  0
  182.8730  174.6610  137.1170 N   0  0  0  0  0  0  0  0  0  0  0  0
  181.4250  178.5360  142.0960 C   0  0  0  0  0  2  0  0  0  0  0  0
  179.9820  180.1930  142.9640 C   0  0  0  0  0  1  0  0  0  0  0  0
  180.8300  179.8430  141.8350 N   0  0  0  0  0  0  0  0  0  0  0  0
  180.5200  180.7310  139.5110 C   0  0  0  0  0  1  0  0  0  0  0  0
  180.0230  179.7920  140.6100 C   0  0  0  0  0  2  0  0  0  0  0  0
  2  1  2  0  0  0  0
  3  7  1  0  0  0  0
  4  5  1  0  0  0  0
  4  6  2  0  0  0  0
  5  3  2  0  0  0  0
  6  2  1  0  0  0  0
  7  1  1  0  0  0  0
  7  9  1  1  0  0  0
  8 10  1  0  0  0  0
  8 14  1  0  0  0  0
  9 11  1  0  0  0  0
 11 10  2  0  0  0  0
 12  8  2  0  0  0  0
 13  9  2  0  0  0  0
 13 12  1  0  0  0  0
 15  4  1  0  0  0  0
 16 15  1  0  0  0  0
 17 16  1  0  0  0  0
 18 22  1  0  0  0  0
 19 18  2  0  0  0  0
 19 23  1  0  0  0  0
 20 24  1  0  0  0  0
 20 21  1  0  0  0  0
 22 17  1  0  0  0  0
 22 24  2  0  0  0  0
 23 20  2  0  0  0  0
 25 27  1  0  0  0  0
 25 17  1  0  0  0  0
 26 25  2  0  0  0  0
 28 26  1  0  0  0  0
 28 30  2  0  0  0  0
 29 26  1  0  0  0  0
 30 27  1  0  0  0  0
 31  6  1  0  0  0  0
 33 31  1  0  0  0  0
 33 32  1  0  0  0  0
 34 35  1  0  0  0  0
 35 33  1  0  0  0  0
M  END
>  <MODEL>
5

>  <REMARK>
 VINA RESULT:      -7.8      2.960      9.293
  Name = 
  9 active torsions:
  status: ('A' for Active; 'I' for Inactive)
    1  A    between atoms: C_1  and  C_8
    2  A    between atoms: C_1  and  C_17
    3  A    between atoms: C_2  and  N_7
    4  A    between atoms: N_7  and  C_8
    5  A    between atoms: N_7  and  C_28
    6  A    between atoms: C_11  and  C_35
    7  A    between atoms: C_13  and  N_32
    8  A    between atoms: C_23  and  C_25
    9  A    between atoms: C_25  and  N_32
                            x       y       z     vdW  Elec       q    Type
                         _______ _______ _______ _____ _____    ______ ____

>  <TORSDO>
F 9

$$$$
=
 OpenBabel10232409383D

 35 38  0  0  1  0  0  0  0  0999 V2000
  189.7630  177.5790  142.5010 N   0  0  0  0  0  0  0  0  0  0  0  0
  189.0380  177.7330  143.5660 C   0  0  0  0  0  3  0  0  0  0  0  0
  188.3120  178.2680  140.6900 C   0  0  0  0  0  3  0  0  0  0  0  0
  186.7360  178.0540  142.6190 C   0  0  0  0  0  0  0  0  0  0  0  0
  187.1950  178.6070  141.3270 C   0  0  0  0  0  3  0  0  0  0  0  0
  187.5610  177.6430  143.6140 C   0  0  0  0  0  0  0  0  0  0  0  0
  189.2380  177.2150  141.1940 C   0  0  1  0  0  3  0  0  0  0  0  0
  192.4730  176.6220  138.4750 C   0  0  0  0  0  0  0  0  0  0  0  0
  190.3680  177.0150  140.2390 C   0  0  0  0  0  0  0  0  0  0  0  0
  192.6920  177.1460  139.7500 C   0  0  0  0  0  3  0  0  0  0  0  0
  191.6450  177.3300  140.5990 N   0  0  0  0  0  0  0  0  0  0  0  0
  191.1750  176.2860  138.0870 C   0  0  0  0  0  3  0  0  0  0  0  0
  190.1150  176.4820  138.9730 C   0  0  0  0  0  3  0  0  0  0  0  0
  193.6100  176.4200  137.5420 C   0  0  0  0  0  1  0  0  0  0  0  0
  185.2510  178.1020  142.8310 C   0  0  0  0  0  2  0  0  0  0  0  0
  184.5690  179.1180  141.9180 C   0  0  0  0  0  2  0  0  0  0  0  0
  183.3000  178.6030  141.4070 N   0  0  0  0  0  0  0  0  0  0  0  0
  182.5780  176.6710  140.1270 N   0  0  0  0  0  0  0  0  0  0  0  0
  182.6060  175.8560  139.0400 C   0  0  0  0  0  3  0  0  0  0  0  0
  184.2680  177.2750  138.0370 C   0  0  0  0  0  0  0  0  0  0  0  0
  185.1220  177.5800  136.9860 O   0  0  0  0  0  1  0  0  0  0  0  0
  183.3540  177.7890  140.2170 C   0  0  0  0  0  0  0  0  0  0  0  0
  183.4520  176.1470  137.9700 C   0  0  0  0  0  3  0  0  0  0  0  0
  184.2260  178.0970  139.1620 C   0  0  0  0  0  3  0  0  0  0  0  0
  182.0580  178.8400  142.1210 C   0  0  0  0  0  0  0  0  0  0  0  0
  180.9440  179.4000  141.6500 C   0  0  0  0  0  0  0  0  0  0  0  0
  181.8320  178.5850  143.5780 C   0  0  0  0  0  2  0  0  0  0  0  0
  179.9860  179.5190  142.6840 N   0  0  0  0  0  0  0  0  0  0  0  0
  180.6800  179.8830  140.2650 C   0  0  0  0  0  1  0  0  0  0  0  0
  180.4700  179.0660  143.7670 N   0  0  0  0  0  0  0  0  0  0  0  0
  186.9920  177.1970  144.9260 C   0  0  0  0  0  2  0  0  0  0  0  0
  187.9620  177.2530  147.0800 C   0  0  0  0  0  1  0  0  0  0  0  0
  187.4500  178.0780  145.9960 N   0  0  0  0  0  0  0  0  0  0  0  0
  185.0070  178.1380  146.5580 C   0  0  0  0  0  1  0  0  0  0  0  0
  186.3340  178.8950  146.4850 C   0  0  0  0  0  2  0  0  0  0  0  0
  1  2  2  0  0  0  0
  2  6  1  0  0  0  0
  3  7  1  0  0  0  0
  3  5  2  0  0  0  0
  4 15  1  0  0  0  0
  4  6  2  0  0  0  0
  5  4  1  0  0  0  0
  6 31  1  0  0  0  0
  7  9  1  6  0  0  0
  7  1  1  0  0  0  0
  8 10  1  0  0  0  0
  9 11  1  0  0  0  0
 10 11  2  0  0  0  0
 12  8  2  0  0  0  0
 12 13  1  0  0  0  0
 13  9  2  0  0  0  0
 14  8  1  0  0  0  0
 16 15  1  0  0  0  0
 17 16  1  0  0  0  0
 17 25  1  0  0  0  0
 18 22  1  0  0  0  0
 19 18  2  0  0  0  0
 20 24  1  0  0  0  0
 21 20  1  0  0  0  0
 22 17  1  0  0  0  0
 23 20  2  0  0  0  0
 23 19  1  0  0  0  0
 24 22  2  0  0  0  0
 25 27  1  0  0  0  0
 26 25  2  0  0  0  0
 26 28  1  0  0  0  0
 27 30  1  0  0  0  0
 28 30  2  0  0  0  0
 29 26  1  0  0  0  0
 31 33  1  0  0  0  0
 33 35  1  0  0  0  0
 33 32  1  0  0  0  0
 35 34  1  0  0  0  0
M  END
>  <MODEL>
6

>  <REMARK>
 VINA RESULT:      -7.7      2.662      8.147
  Name = 
  9 active torsions:
  status: ('A' for Active; 'I' for Inactive)
    1  A    between atoms: C_1  and  C_8
    2  A    between atoms: C_1  and  C_17
    3  A    between atoms: C_2  and  N_7
    4  A    between atoms: N_7  and  C_8
    5  A    between atoms: N_7  and  C_28
    6  A    between atoms: C_11  and  C_35
    7  A    between atoms: C_13  and  N_32
    8  A    between atoms: C_23  and  C_25
    9  A    between atoms: C_25  and  N_32
                            x       y       z     vdW  Elec       q    Type
                         _______ _______ _______ _____ _____    ______ ____

>  <TORSDO>
F 9

$$$$
=
 OpenBabel10232409383D

 35 38  0  0  1  0  0  0  0  0999 V2000
  190.0120  176.7380  141.9940 N   0  0  0  0  0  0  0  0  0  0  0  0
  189.7090  176.8660  140.7390 C   0  0  0  0  0  3  0  0  0  0  0  0
  187.9390  177.2000  143.1570 C   0  0  0  0  0  3  0  0  0  0  0  0
  187.4640  177.9840  140.8300 C   0  0  0  0  0  0  0  0  0  0  0  0
  187.0960  177.4460  142.1580 C   0  0  0  0  0  3  0  0  0  0  0  0
  188.6410  177.7410  140.2040 C   0  0  0  0  0  0  0  0  0  0  0  0
  189.3970  177.4990  143.0710 C   0  0  1  0  0  3  0  0  0  0  0  0
  191.3380  176.5880  146.7610 C   0  0  0  0  0  0  0  0  0  0  0  0
  190.0710  177.1720  144.3630 C   0  0  0  0  0  0  0  0  0  0  0  0
  191.9340  176.2770  145.5380 C   0  0  0  0  0  3  0  0  0  0  0  0
  191.2960  176.5730  144.3740 N   0  0  0  0  0  0  0  0  0  0  0  0
  190.0880  177.2090  146.7730 C   0  0  0  0  0  3  0  0  0  0  0  0
  189.4490  177.5050  145.5680 C   0  0  0  0  0  3  0  0  0  0  0  0
  192.0280  176.2670  148.0360 C   0  0  0  0  0  1  0  0  0  0  0  0
  186.3650  178.7270  140.1280 C   0  0  0  0  0  2  0  0  0  0  0  0
  185.3920  179.3800  141.1060 C   0  0  0  0  0  2  0  0  0  0  0  0
  184.0450  178.8300  140.9600 N   0  0  0  0  0  0  0  0  0  0  0  0
  181.8660  178.7000  142.0220 N   0  0  0  0  0  0  0  0  0  0  0  0
  181.0400  178.6860  143.1010 C   0  0  0  0  0  3  0  0  0  0  0  0
  182.9520  178.8850  144.5470 C   0  0  0  0  0  0  0  0  0  0  0  0
  183.5010  178.9810  145.8180 O   0  0  0  0  0  1  0  0  0  0  0  0
  183.2210  178.7940  142.1450 C   0  0  0  0  0  0  0  0  0  0  0  0
  181.5710  178.7750  144.3870 C   0  0  0  0  0  3  0  0  0  0  0  0
  183.7810  178.9010  143.4260 C   0  0  0  0  0  3  0  0  0  0  0  0
  183.5440  178.4160  139.6630 C   0  0  0  0  0  0  0  0  0  0  0  0
  182.9790  179.1810  138.7280 C   0  0  0  0  0  0  0  0  0  0  0  0
  183.4750  177.0060  139.1670 C   0  0  0  0  0  2  0  0  0  0  0  0
  182.5570  178.3830  137.6390 N   0  0  0  0  0  0  0  0  0  0  0  0
  182.7610  180.6540  138.7630 C   0  0  0  0  0  1  0  0  0  0  0  0
  182.8290  177.1660  137.8720 N   0  0  0  0  0  0  0  0  0  0  0  0
  188.8710  178.2480  138.8120 C   0  0  0  0  0  2  0  0  0  0  0  0
  189.8050  177.5320  136.7630 C   0  0  0  0  0  1  0  0  0  0  0  0
  188.9650  177.1280  137.8810 N   0  0  0  0  0  0  0  0  0  0  0  0
  187.1290  177.6790  136.2660 C   0  0  0  0  0  1  0  0  0  0  0  0
  187.6300  176.7710  137.3890 C   0  0  0  0  0  2  0  0  0  0  0  0
  1  7  1  0  0  0  0
  2  1  2  0  0  0  0
  4  5  1  0  0  0  0
  5  3  2  0  0  0  0
  6  2  1  0  0  0  0
  6  4  2  0  0  0  0
  7  3  1  0  0  0  0
  7  9  1  1  0  0  0
  8 12  1  0  0  0  0
  8 14  1  0  0  0  0
  9 11  2  0  0  0  0
  9 13  1  0  0  0  0
 10  8  2  0  0  0  0
 11 10  1  0  0  0  0
 13 12  2  0  0  0  0
 15  4  1  0  0  0  0
 15 16  1  0  0  0  0
 17 16  1  0  0  0  0
 17 22  1  0  0  0  0
 18 22  2  0  0  0  0
 18 19  1  0  0  0  0
 19 23  2  0  0  0  0
 20 21  1  0  0  0  0
 22 24  1  0  0  0  0
 23 20  1  0  0  0  0
 24 20  2  0  0  0  0
 25 17  1  0  0  0  0
 26 29  1  0  0  0  0
 26 25  2  0  0  0  0
 27 25  1  0  0  0  0
 28 30  2  0  0  0  0
 28 26  1  0  0  0  0
 30 27  1  0  0  0  0
 31  6  1  0  0  0  0
 32 33  1  0  0  0  0
 33 31  1  0  0  0  0
 34 35  1  0  0  0  0
 35 33  1  0  0  0  0
M  END
>  <MODEL>
7

>  <REMARK>
 VINA RESULT:      -7.5      2.078      7.486
  Name = 
  9 active torsions:
  status: ('A' for Active; 'I' for Inactive)
    1  A    between atoms: C_1  and  C_8
    2  A    between atoms: C_1  and  C_17
    3  A    between atoms: C_2  and  N_7
    4  A    between atoms: N_7  and  C_8
    5  A    between atoms: N_7  and  C_28
    6  A    between atoms: C_11  and  C_35
    7  A    between atoms: C_13  and  N_32
    8  A    between atoms: C_23  and  C_25
    9  A    between atoms: C_25  and  N_32
                            x       y       z     vdW  Elec       q    Type
                         _______ _______ _______ _____ _____    ______ ____

>  <TORSDO>
F 9

$$$$
=
 OpenBabel10232409383D

 35 38  0  0  1  0  0  0  0  0999 V2000
  191.3970  176.1030  136.5450 N   0  0  0  0  0  0  0  0  0  0  0  0
  190.1690  176.5180  136.6110 C   0  0  0  0  0  3  0  0  0  0  0  0
  192.1620  176.1420  138.8420 C   0  0  0  0  0  3  0  0  0  0  0  0
  190.0290  177.4440  138.9390 C   0  0  0  0  0  0  0  0  0  0  0  0
  191.0890  176.5760  139.4960 C   0  0  0  0  0  3  0  0  0  0  0  0
  189.6320  177.4330  137.6430 C   0  0  0  0  0  0  0  0  0  0  0  0
  192.4610  176.5380  137.4360 C   0  0  1  0  0  3  0  0  0  0  0  0
  196.1810  174.8590  136.1870 C   0  0  0  0  0  0  0  0  0  0  0  0
  193.7580  175.9440  136.9940 C   0  0  0  0  0  0  0  0  0  0  0  0
  195.6390  175.9700  135.5400 C   0  0  0  0  0  3  0  0  0  0  0  0
  194.4500  176.4870  135.9530 N   0  0  0  0  0  0  0  0  0  0  0  0
  195.4930  174.2910  137.2610 C   0  0  0  0  0  3  0  0  0  0  0  0
  194.2750  174.8360  137.6700 C   0  0  0  0  0  3  0  0  0  0  0  0
  197.4770  174.2890  135.7420 C   0  0  0  0  0  1  0  0  0  0  0  0
  189.2970  178.2710  139.9560 C   0  0  0  0  0  2  0  0  0  0  0  0
  188.3640  177.4300  140.8220 C   0  0  0  0  0  2  0  0  0  0  0  0
  188.4680  177.8040  142.2310 N   0  0  0  0  0  0  0  0  0  0  0  0
  186.1380  178.4810  142.2790 N   0  0  0  0  0  0  0  0  0  0  0  0
  184.9550  178.7190  142.9060 C   0  0  0  0  0  3  0  0  0  0  0  0
  185.9380  178.0270  144.9890 C   0  0  0  0  0  0  0  0  0  0  0  0
  185.8390  177.7990  146.3540 O   0  0  0  0  0  1  0  0  0  0  0  0
  187.2320  178.0140  142.9460 C   0  0  0  0  0  0  0  0  0  0  0  0
  184.8330  178.4910  144.2760 C   0  0  0  0  0  3  0  0  0  0  0  0
  187.1420  177.7910  144.3280 C   0  0  0  0  0  3  0  0  0  0  0  0
  189.7590  177.8790  142.8900 C   0  0  0  0  0  0  0  0  0  0  0  0
  190.5590  176.8680  143.2280 C   0  0  0  0  0  0  0  0  0  0  0  0
  190.3960  179.1280  143.4140 C   0  0  0  0  0  2  0  0  0  0  0  0
  191.6910  177.3560  143.9220 N   0  0  0  0  0  0  0  0  0  0  0  0
  190.3500  175.4140  142.9760 C   0  0  0  0  0  1  0  0  0  0  0  0
  191.6120  178.6180  144.0320 N   0  0  0  0  0  0  0  0  0  0  0  0
  188.4760  178.2790  137.2040 C   0  0  0  0  0  2  0  0  0  0  0  0
  187.0390  178.2670  135.3280 C   0  0  0  0  0  1  0  0  0  0  0  0
  187.5240  177.4720  136.4470 N   0  0  0  0  0  0  0  0  0  0  0  0
  185.8440  178.2450  138.1400 C   0  0  0  0  0  1  0  0  0  0  0  0
  186.3960  177.0900  137.3040 C   0  0  0  0  0  2  0  0  0  0  0  0
  1  2  2  0  0  0  0
  1  7  1  0  0  0  0
  2  6  1  0  0  0  0
  3  5  2  0  0  0  0
  4  5  1  0  0  0  0
  4 15  1  0  0  0  0
  6  4  2  0  0  0  0
  7  9  1  6  0  0  0
  7  3  1  0  0  0  0
  8 12  1  0  0  0  0
  9 13  1  0  0  0  0
 10 11  1  0  0  0  0
 10  8  2  0  0  0  0
 11  9  2  0  0  0  0
 12 13  2  0  0  0  0
 14  8  1  0  0  0  0
 15 16  1  0  0  0  0
 16 17  1  0  0  0  0
 17 25  1  0  0  0  0
 17 22  1  0  0  0  0
 18 19  2  0  0  0  0
 18 22  1  0  0  0  0
 19 23  1  0  0  0  0
 20 21  1  0  0  0  0
 22 24  2  0  0  0  0
 23 20  2  0  0  0  0
 24 20  1  0  0  0  0
 25 26  2  0  0  0  0
 25 27  1  0  0  0  0
 26 28  1  0  0  0  0
 27 30  1  0  0  0  0
 28 30  2  0  0  0  0
 29 26  1  0  0  0  0
 31  6  1  0  0  0  0
 32 33  1  0  0  0  0
 33 31  1  0  0  0  0
 33 35  1  0  0  0  0
 35 34  1  0  0  0  0
M  END
>  <MODEL>
8

>  <REMARK>
 VINA RESULT:      -7.4      2.542      6.861
  Name = 
  9 active torsions:
  status: ('A' for Active; 'I' for Inactive)
    1  A    between atoms: C_1  and  C_8
    2  A    between atoms: C_1  and  C_17
    3  A    between atoms: C_2  and  N_7
    4  A    between atoms: N_7  and  C_8
    5  A    between atoms: N_7  and  C_28
    6  A    between atoms: C_11  and  C_35
    7  A    between atoms: C_13  and  N_32
    8  A    between atoms: C_23  and  C_25
    9  A    between atoms: C_25  and  N_32
                            x       y       z     vdW  Elec       q    Type
                         _______ _______ _______ _____ _____    ______ ____

>  <TORSDO>
F 9

$$$$
=
 OpenBabel10232409383D

 35 38  0  0  1  0  0  0  0  0999 V2000
  187.0010  177.0340  143.4980 N   0  0  0  0  0  0  0  0  0  0  0  0
  188.2130  176.5710  143.4860 C   0  0  0  0  0  3  0  0  0  0  0  0
  186.6810  177.9230  141.2690 C   0  0  0  0  0  3  0  0  0  0  0  0
  189.1530  177.5540  141.3760 C   0  0  0  0  0  0  0  0  0  0  0  0
  187.8500  177.6690  140.6860 C   0  0  0  0  0  3  0  0  0  0  0  0
  189.3140  177.0820  142.6360 C   0  0  0  0  0  0  0  0  0  0  0  0
  186.5530  178.1860  142.7310 C   0  0  1  0  0  3  0  0  0  0  0  0
  182.4940  179.0510  143.7280 C   0  0  0  0  0  0  0  0  0  0  0  0
  185.1340  178.4980  143.0790 C   0  0  0  0  0  0  0  0  0  0  0  0
  182.8710  178.7900  142.4100 C   0  0  0  0  0  3  0  0  0  0  0  0
  184.1720  178.5190  142.1150 N   0  0  0  0  0  0  0  0  0  0  0  0
  183.4620  179.0270  144.7330 C   0  0  0  0  0  3  0  0  0  0  0  0
  184.7900  178.7470  144.4100 C   0  0  0  0  0  3  0  0  0  0  0  0
  181.0780  179.3480  144.0580 C   0  0  0  0  0  1  0  0  0  0  0  0
  190.3450  177.8710  140.5210 C   0  0  0  0  0  2  0  0  0  0  0  0
  190.7820  176.6790  139.6730 C   0  0  0  0  0  2  0  0  0  0  0  0
  190.5970  176.9470  138.2480 N   0  0  0  0  0  0  0  0  0  0  0  0
  191.3070  176.2150  136.0450 N   0  0  0  0  0  0  0  0  0  0  0  0
  192.2210  175.7320  135.1630 C   0  0  0  0  0  3  0  0  0  0  0  0
  193.8650  175.6800  136.9170 C   0  0  0  0  0  0  0  0  0  0  0  0
  195.1530  175.4090  137.3590 O   0  0  0  0  0  1  0  0  0  0  0  0
  191.6160  176.4560  137.3520 C   0  0  0  0  0  0  0  0  0  0  0  0
  193.5220  175.4580  135.5840 C   0  0  0  0  0  3  0  0  0  0  0  0
  192.9130  176.1750  137.8070 C   0  0  0  0  0  3  0  0  0  0  0  0
  189.3990  177.6060  137.7620 C   0  0  0  0  0  0  0  0  0  0  0  0
  188.2640  177.0350  137.3590 C   0  0  0  0  0  0  0  0  0  0  0  0
  189.2520  179.0760  137.5220 C   0  0  0  0  0  2  0  0  0  0  0  0
  187.3660  178.0210  136.8860 N   0  0  0  0  0  0  0  0  0  0  0  0
  187.9250  175.5840  137.3470 C   0  0  0  0  0  1  0  0  0  0  0  0
  187.9060  179.1660  136.9730 N   0  0  0  0  0  0  0  0  0  0  0  0
  190.6890  176.9080  143.2040 C   0  0  0  0  0  2  0  0  0  0  0  0
  191.6100  178.8930  144.0950 C   0  0  0  0  0  1  0  0  0  0  0  0
  190.8350  177.7040  144.4180 N   0  0  0  0  0  0  0  0  0  0  0  0
  190.7450  176.7870  146.7500 C   0  0  0  0  0  1  0  0  0  0  0  0
  191.5340  176.9260  145.4480 C   0  0  0  0  0  2  0  0  0  0  0  0
  2  1  2  0  0  0  0
  3  7  1  0  0  0  0
  4  6  2  0  0  0  0
  5  3  2  0  0  0  0
  5  4  1  0  0  0  0
  6 31  1  0  0  0  0
  6  2  1  0  0  0  0
  7  9  1  6  0  0  0
  7  1  1  0  0  0  0
  8 14  1  0  0  0  0
  8 12  1  0  0  0  0
  9 13  1  0  0  0  0
 10  8  2  0  0  0  0
 11 10  1  0  0  0  0
 11  9  2  0  0  0  0
 13 12  2  0  0  0  0
 15  4  1  0  0  0  0
 16 15  1  0  0  0  0
 17 16  1  0  0  0  0
 18 22  1  0  0  0  0
 19 23  1  0  0  0  0
 19 18  2  0  0  0  0
 20 21  1  0  0  0  0
 20 24  1  0  0  0  0
 22 24  2  0  0  0  0
 22 17  1  0  0  0  0
 23 20  2  0  0  0  0
 25 17  1  0  0  0  0
 26 25  2  0  0  0  0
 27 25  1  0  0  0  0
 28 30  2  0  0  0  0
 28 26  1  0  0  0  0
 29 26  1  0  0  0  0
 30 27  1  0  0  0  0
 31 33  1  0  0  0  0
 32 33  1  0  0  0  0
 33 35  1  0  0  0  0
 35 34  1  0  0  0  0
M  END
>  <MODEL>
9

>  <REMARK>
 VINA RESULT:      -7.4      3.288      7.714
  Name = 
  9 active torsions:
  status: ('A' for Active; 'I' for Inactive)
    1  A    between atoms: C_1  and  C_8
    2  A    between atoms: C_1  and  C_17
    3  A    between atoms: C_2  and  N_7
    4  A    between atoms: N_7  and  C_8
    5  A    between atoms: N_7  and  C_28
    6  A    between atoms: C_11  and  C_35
    7  A    between atoms: C_13  and  N_32
    8  A    between atoms: C_23  and  C_25
    9  A    between atoms: C_25  and  N_32
                            x       y       z     vdW  Elec       q    Type
                         _______ _______ _______ _____ _____    ______ ____

>  <TORSDO>
F 9

$$$$
