=
 OpenBabel10232411493D

 47 51  0  0  1  0  0  0  0  0999 V2000
  187.5700  176.5740  136.9250 C   0  0  2  0  0  3  0  0  0  0  0  0
  189.6690  175.3540  136.7130 C   0  0  0  0  0  0  0  0  0  0  0  0
  190.6200  174.6620  137.2830 C   0  0  0  0  0  3  0  0  0  0  0  0
  188.7210  176.0410  136.1370 C   0  0  0  0  0  3  0  0  0  0  0  0
  194.3220  174.0160  137.0490 C   0  0  0  0  0  3  0  0  0  0  0  0
  193.8540  176.1100  135.9350 C   0  0  0  0  0  3  0  0  0  0  0  0
  194.7680  175.1360  136.3420 C   0  0  0  0  0  3  0  0  0  0  0  0
  192.9630  173.8710  137.3500 C   0  0  0  0  0  3  0  0  0  0  0  0
  192.0420  174.8440  136.9430 C   0  0  0  0  0  0  0  0  0  0  0  0
  192.4950  175.9670  136.2330 C   0  0  0  0  0  3  0  0  0  0  0  0
  186.3350  176.4810  136.1510 N   0  0  0  0  0  0  0  0  0  0  0  0
  186.0500  175.1320  136.0030 O   0  0  0  0  0  0  0  0  0  0  0  0
  185.3600  175.7950  136.9660 C   0  0  2  0  0  3  0  0  0  0  0  0
  184.0180  176.0960  136.4920 N   0  0  0  0  0  2  0  0  0  0  0  0
  183.1500  176.2980  137.6490 C   0  0  2  0  0  3  0  0  0  0  0  0
  181.7030  174.7020  136.4490 N   0  0  0  0  0  1  0  0  0  0  0  0
  181.7190  175.8210  137.3780 C   0  0  1  0  0  3  0  0  0  0  0  0
  181.0950  175.4570  138.5690 O   0  0  0  0  0  1  0  0  0  0  0  0
  183.1630  177.7650  138.0370 C   0  0  0  0  0  2  0  0  0  0  0  0
  183.9860  177.9620  139.2230 N   0  0  0  0  0  2  0  0  0  0  0  0
  184.4960  179.2500  139.5840 C   0  0  0  0  0  0  0  0  0  0  0  0
  184.2320  180.2600  138.8710 O   0  0  0  0  0  0  0  0  0  0  0  0
  185.3040  179.3770  140.7610 N   0  0  0  0  0  0  0  0  0  0  0  0
  185.0700  178.9640  143.4480 C   0  0  0  0  0  2  0  0  0  0  0  0
  184.8710  179.0830  141.9430 C   0  0  0  0  0  0  0  0  0  0  0  0
  183.8010  178.5980  142.9110 C   0  0  0  0  0  2  0  0  0  0  0  0
  187.8450  177.9930  137.3480 C   0  0  0  0  0  0  0  0  0  0  0  0
  187.4010  178.9650  136.5560 C   0  0  0  0  0  2  0  0  0  0  0  0
  188.5400  178.3150  138.6200 C   0  0  0  0  0  0  0  0  0  0  0  0
  188.9770  179.4850  138.8100 O   0  0  0  0  0  0  0  0  0  0  0  0
  191.9210  177.6790  142.1990 N   0  0  0  0  0  0  0  0  0  0  0  0
  190.5910  177.8430  142.4930 C   0  0  0  0  0  0  0  0  0  0  0  0
  191.4860  177.1130  139.8570 C   0  0  0  0  0  3  0  0  0  0  0  0
  192.3740  177.3310  140.9410 C   0  0  0  0  0  3  0  0  0  0  0  0
  189.7070  177.6430  141.4580 C   0  0  0  0  0  0  0  0  0  0  0  0
  190.1520  177.2830  140.1680 C   0  0  0  0  0  0  0  0  0  0  0  0
  188.2910  177.6340  140.9930 C   0  0  0  0  0  2  0  0  0  0  0  0
  188.7480  177.2460  139.6690 C   0  0  1  0  0  3  0  0  0  0  0  0
  190.8200  179.2800  144.3550 O   0  0  0  0  0  1  0  0  0  0  0  0
  190.1300  178.1680  143.8740 C   0  0  2  0  0  3  0  0  0  0  0  0
  190.3730  177.0220  144.7480 N   0  0  0  0  0  2  0  0  0  0  0  0
  189.3060  176.8710  145.7430 C   0  0  2  0  0  3  0  0  0  0  0  0
  188.0690  177.6300  145.3510 C   0  0  0  0  0  3  0  0  0  0  0  0
  186.2940  178.2500  147.0630 O   0  0  0  0  0  0  0  0  0  0  0  0
  187.1540  177.9510  146.2260 C   0  0  0  0  0  0  0  0  0  0  0  0
  189.7940  177.2260  147.1470 C   0  0  0  0  0  2  0  0  0  0  0  0
  191.4680  176.5560  147.4020 S   0  0  0  0  0  1  0  0  0  0  0  0
  1  4  1  6  0  0  0
  1 27  1  0  0  0  0
  2  3  2  0  0  0  0
  4  2  2  0  0  0  0
  5  8  1  0  0  0  0
  6 10  2  0  0  0  0
  6  7  1  0  0  0  0
  7  5  2  0  0  0  0
  9  3  1  0  0  0  0
  9  8  2  0  0  0  0
 10  9  1  0  0  0  0
 11  1  1  0  0  0  0
 11 13  1  0  0  0  0
 12 11  1  0  0  0  0
 12 13  1  0  0  0  0
 13 14  1  6  0  0  0
 14 15  1  0  0  0  0
 15 19  1  6  0  0  0
 17 16  1  6  0  0  0
 17 15  1  0  0  0  0
 17 18  1  0  0  0  0
 19 20  1  0  0  0  0
 20 21  1  0  0  0  0
 21 23  1  0  0  0  0
 22 21  2  0  0  0  0
 23 25  2  0  0  0  0
 25 26  1  0  0  0  0
 25 24  1  0  0  0  0
 26 24  1  0  0  0  0
 27 29  1  0  0  0  0
 28 27  2  0  0  0  0
 29 30  2  0  0  0  0
 31 32  1  0  0  0  0
 32 40  1  0  0  0  0
 33 36  2  0  0  0  0
 33 34  1  0  0  0  0
 34 31  2  0  0  0  0
 35 32  2  0  0  0  0
 36 35  1  0  0  0  0
 37 35  1  0  0  0  0
 38 29  1  6  0  0  0
 38 36  1  0  0  0  0
 38 37  1  0  0  0  0
 40 39  1  1  0  0  0
 40 41  1  0  0  0  0
 41 42  1  0  0  0  0
 42 43  1  6  0  0  0
 42 46  1  0  0  0  0
 43 45  2  0  0  0  0
 45 44  2  0  0  0  0
 46 47  1  0  0  0  0
M  END
>  <MODEL>
1

>  <REMARK>
 VINA RESULT:      -7.4      0.000      0.000
  Name = 
  17 active torsions:
  status: ('A' for Active; 'I' for Inactive)
    1  A    between atoms: C_1  and  C_17
    2  A    between atoms: C_1  and  C_23
    3  A    between atoms: C_1  and  N_25
    4  A    between atoms: C_5  and  C_46
    5  A    between atoms: C_7  and  C_19
    6  A    between atoms: N_8  and  C_37
    7  A    between atoms: C_9  and  C_34
    8  A    between atoms: N_11  and  C_34
    9  A    between atoms: N_11  and  C_46
   10  A    between atoms: N_12  and  C_18
   11  A    between atoms: C_13  and  C_35
   12  A    between atoms: C_18  and  C_19
   13  A    between atoms: C_19  and  N_38
   14  A    between atoms: C_23  and  C_28
   15  A    between atoms: C_28  and  C_40
   16  A    between atoms: C_29  and  C_46
   17  A    between atoms: N_38  and  C_47
                            x       y       z     vdW  Elec       q    Type
                         _______ _______ _______ _____ _____    ______ ____

>  <TORSDO>
F 17

$$$$
=
 OpenBabel10232411493D

 47 51  0  0  1  0  0  0  0  0999 V2000
  188.9910  177.5530  139.6510 C   0  0  2  0  0  3  0  0  0  0  0  0
  188.0660  177.8630  141.8850 C   0  0  0  0  0  0  0  0  0  0  0  0
  187.6230  177.3300  142.9930 C   0  0  0  0  0  3  0  0  0  0  0  0
  188.5110  178.4010  140.7820 C   0  0  0  0  0  3  0  0  0  0  0  0
  184.1940  178.7650  143.5890 C   0  0  0  0  0  3  0  0  0  0  0  0
  185.2590  178.4490  145.7360 C   0  0  0  0  0  3  0  0  0  0  0  0
  184.1570  178.8590  144.9820 C   0  0  0  0  0  3  0  0  0  0  0  0
  185.3330  178.2620  142.9490 C   0  0  0  0  0  3  0  0  0  0  0  0
  186.4390  177.8480  143.7000 C   0  0  0  0  0  0  0  0  0  0  0  0
  186.3970  177.9440  145.1000 C   0  0  0  0  0  3  0  0  0  0  0  0
  190.4510  177.5400  139.6060 N   0  0  0  0  0  0  0  0  0  0  0  0
  190.8680  176.4310  140.3270 O   0  0  0  0  0  0  0  0  0  0  0  0
  190.8560  176.3050  138.9750 C   0  0  2  0  0  3  0  0  0  0  0  0
  192.2090  176.4350  138.4560 N   0  0  0  0  0  2  0  0  0  0  0  0
  192.3240  175.6250  137.2470 C   0  0  2  0  0  3  0  0  0  0  0  0
  190.5310  175.5470  135.5560 N   0  0  0  0  0  1  0  0  0  0  0  0
  190.9780  175.0200  136.8360 C   0  0  1  0  0  3  0  0  0  0  0  0
  191.0680  173.6320  136.7710 O   0  0  0  0  0  1  0  0  0  0  0  0
  193.3580  174.5370  137.4660 C   0  0  0  0  0  2  0  0  0  0  0  0
  194.5140  175.0790  138.1690 N   0  0  0  0  0  2  0  0  0  0  0  0
  195.4490  174.2340  138.8490 C   0  0  0  0  0  0  0  0  0  0  0  0
  195.2920  172.9790  138.8440 O   0  0  0  0  0  0  0  0  0  0  0  0
  196.5630  174.8280  139.5260 N   0  0  0  0  0  0  0  0  0  0  0  0
  199.2650  175.0400  139.2080 C   0  0  0  0  0  2  0  0  0  0  0  0
  197.7780  174.7400  139.0890 C   0  0  0  0  0  0  0  0  0  0  0  0
  198.8250  174.2740  138.0880 C   0  0  0  0  0  2  0  0  0  0  0  0
  188.4090  178.0440  138.3520 C   0  0  0  0  0  0  0  0  0  0  0  0
  189.0300  179.0520  137.7450 C   0  0  0  0  0  2  0  0  0  0  0  0
  187.2160  177.4110  137.7330 C   0  0  0  0  0  0  0  0  0  0  0  0
  187.2870  176.2170  137.3270 O   0  0  0  0  0  0  0  0  0  0  0  0
  182.4600  176.0850  137.2170 N   0  0  0  0  0  0  0  0  0  0  0  0
  182.8840  176.8240  138.2930 C   0  0  0  0  0  0  0  0  0  0  0  0
  184.4600  176.5880  135.8960 C   0  0  0  0  0  3  0  0  0  0  0  0
  183.2000  175.9570  136.0570 C   0  0  0  0  0  3  0  0  0  0  0  0
  184.1050  177.4440  138.1650 C   0  0  0  0  0  0  0  0  0  0  0  0
  184.8720  177.3270  136.9860 C   0  0  0  0  0  0  0  0  0  0  0  0
  185.1540  178.3030  138.7850 C   0  0  0  0  0  2  0  0  0  0  0  0
  185.9360  178.1970  137.5640 C   0  0  1  0  0  3  0  0  0  0  0  0
  181.6400  175.7360  139.9830 O   0  0  0  0  0  1  0  0  0  0  0  0
  182.0390  176.9860  139.5100 C   0  0  2  0  0  3  0  0  0  0  0  0
  180.8600  177.7860  139.1800 N   0  0  0  0  0  2  0  0  0  0  0  0
  181.1080  179.2170  139.3850 C   0  0  2  0  0  3  0  0  0  0  0  0
  180.4130  179.7290  140.6160 C   0  0  0  0  0  3  0  0  0  0  0  0
  180.6660  178.5660  142.8630 O   0  0  0  0  0  0  0  0  0  0  0  0
  180.5390  179.1360  141.7730 C   0  0  0  0  0  0  0  0  0  0  0  0
  180.7700  180.0290  138.1370 C   0  0  0  0  0  2  0  0  0  0  0  0
  181.4870  181.6970  138.2770 S   0  0  0  0  0  1  0  0  0  0  0  0
  1  4  1  1  0  0  0
  2  3  2  0  0  0  0
  3  9  1  0  0  0  0
  4  2  2  0  0  0  0
  5  7  1  0  0  0  0
  7  6  2  0  0  0  0
  8  5  2  0  0  0  0
  8  9  1  0  0  0  0
  9 10  2  0  0  0  0
 10  6  1  0  0  0  0
 11  1  1  0  0  0  0
 11 12  1  0  0  0  0
 13 14  1  6  0  0  0
 13 11  1  0  0  0  0
 13 12  1  0  0  0  0
 15 19  1  1  0  0  0
 15 14  1  0  0  0  0
 17 16  1  6  0  0  0
 17 15  1  0  0  0  0
 18 17  1  0  0  0  0
 19 20  1  0  0  0  0
 20 21  1  0  0  0  0
 21 23  1  0  0  0  0
 22 21  2  0  0  0  0
 25 24  1  0  0  0  0
 25 23  2  0  0  0  0
 26 25  1  0  0  0  0
 26 24  1  0  0  0  0
 27  1  1  0  0  0  0
 28 27  2  0  0  0  0
 29 27  1  0  0  0  0
 30 29  2  0  0  0  0
 31 32  1  0  0  0  0
 32 40  1  0  0  0  0
 33 34  1  0  0  0  0
 33 36  2  0  0  0  0
 34 31  2  0  0  0  0
 35 32  2  0  0  0  0
 35 37  1  0  0  0  0
 36 38  1  0  0  0  0
 36 35  1  0  0  0  0
 38 29  1  1  0  0  0
 38 37  1  0  0  0  0
 40 39  1  6  0  0  0
 41 42  1  0  0  0  0
 41 40  1  0  0  0  0
 42 46  1  6  0  0  0
 42 43  1  0  0  0  0
 43 45  2  0  0  0  0
 45 44  2  0  0  0  0
 46 47  1  0  0  0  0
M  END
>  <MODEL>
2

>  <REMARK>
 VINA RESULT:      -7.1      3.739      9.718
  Name = 
  17 active torsions:
  status: ('A' for Active; 'I' for Inactive)
    1  A    between atoms: C_1  and  C_17
    2  A    between atoms: C_1  and  C_23
    3  A    between atoms: C_1  and  N_25
    4  A    between atoms: C_5  and  C_46
    5  A    between atoms: C_7  and  C_19
    6  A    between atoms: N_8  and  C_37
    7  A    between atoms: C_9  and  C_34
    8  A    between atoms: N_11  and  C_34
    9  A    between atoms: N_11  and  C_46
   10  A    between atoms: N_12  and  C_18
   11  A    between atoms: C_13  and  C_35
   12  A    between atoms: C_18  and  C_19
   13  A    between atoms: C_19  and  N_38
   14  A    between atoms: C_23  and  C_28
   15  A    between atoms: C_28  and  C_40
   16  A    between atoms: C_29  and  C_46
   17  A    between atoms: N_38  and  C_47
                            x       y       z     vdW  Elec       q    Type
                         _______ _______ _______ _____ _____    ______ ____

>  <TORSDO>
F 17

$$$$
=
 OpenBabel10232411493D

 47 51  0  0  1  0  0  0  0  0999 V2000
  187.2440  176.4770  137.2050 C   0  0  2  0  0  3  0  0  0  0  0  0
  189.1320  174.9780  136.8440 C   0  0  0  0  0  0  0  0  0  0  0  0
  190.2020  174.3980  137.3190 C   0  0  0  0  0  3  0  0  0  0  0  0
  188.0620  175.5520  136.3660 C   0  0  0  0  0  3  0  0  0  0  0  0
  193.6000  175.1420  135.8770 C   0  0  0  0  0  3  0  0  0  0  0  0
  192.8310  173.0480  134.9440 C   0  0  0  0  0  3  0  0  0  0  0  0
  193.8060  174.0430  135.0390 C   0  0  0  0  0  3  0  0  0  0  0  0
  192.4180  175.2460  136.6190 C   0  0  0  0  0  3  0  0  0  0  0  0
  191.4370  174.2510  136.5280 C   0  0  0  0  0  0  0  0  0  0  0  0
  191.6490  173.1500  135.6850 C   0  0  0  0  0  3  0  0  0  0  0  0
  185.9190  176.6630  136.6190 N   0  0  0  0  0  0  0  0  0  0  0  0
  185.2250  175.4770  136.8040 O   0  0  0  0  0  0  0  0  0  0  0  0
  184.9480  176.4820  137.6730 C   0  0  2  0  0  3  0  0  0  0  0  0
  183.6930  177.1200  137.3040 N   0  0  0  0  0  2  0  0  0  0  0  0
  183.0070  177.5380  138.5230 C   0  0  2  0  0  3  0  0  0  0  0  0
  181.5920  178.6770  136.8550 N   0  0  0  0  0  1  0  0  0  0  0  0
  181.6490  178.1800  138.2210 C   0  0  1  0  0  3  0  0  0  0  0  0
  180.6200  177.2670  138.4360 O   0  0  0  0  0  1  0  0  0  0  0  0
  183.8940  178.4940  139.2970 C   0  0  0  0  0  2  0  0  0  0  0  0
  183.6730  178.3350  140.7280 N   0  0  0  0  0  2  0  0  0  0  0  0
  184.5710  178.8850  141.6980 C   0  0  0  0  0  0  0  0  0  0  0  0
  185.5880  179.5380  141.3240 O   0  0  0  0  0  0  0  0  0  0  0  0
  184.3010  178.6910  143.0910 N   0  0  0  0  0  0  0  0  0  0  0  0
  185.6670  178.0350  145.3610 C   0  0  0  0  0  2  0  0  0  0  0  0
  185.2170  178.3690  143.9460 C   0  0  0  0  0  0  0  0  0  0  0  0
  186.6520  178.0350  144.3300 C   0  0  0  0  0  2  0  0  0  0  0  0
  187.9580  177.7930  137.3700 C   0  0  0  0  0  0  0  0  0  0  0  0
  187.9300  178.6370  136.3430 C   0  0  0  0  0  2  0  0  0  0  0  0
  188.6310  178.1710  138.6390 C   0  0  0  0  0  0  0  0  0  0  0  0
  189.0040  179.3650  138.8130 O   0  0  0  0  0  0  0  0  0  0  0  0
  192.1510  177.6670  142.1030 N   0  0  0  0  0  0  0  0  0  0  0  0
  190.8310  177.8180  142.4420 C   0  0  0  0  0  0  0  0  0  0  0  0
  191.6390  177.0400  139.7920 C   0  0  0  0  0  3  0  0  0  0  0  0
  192.5630  177.2960  140.8370 C   0  0  0  0  0  3  0  0  0  0  0  0
  189.9120  177.5820  141.4460 C   0  0  0  0  0  0  0  0  0  0  0  0
  190.3150  177.1980  140.1490 C   0  0  0  0  0  0  0  0  0  0  0  0
  188.4800  177.5410  141.0340 C   0  0  0  0  0  2  0  0  0  0  0  0
  188.8940  177.1290  139.7030 C   0  0  1  0  0  3  0  0  0  0  0  0
  191.4440  178.8580  144.4740 O   0  0  0  0  0  1  0  0  0  0  0  0
  190.4160  178.1690  143.8310 C   0  0  2  0  0  3  0  0  0  0  0  0
  190.1080  176.9450  144.5690 N   0  0  0  0  0  2  0  0  0  0  0  0
  190.4770  177.0630  145.9830 C   0  0  2  0  0  3  0  0  0  0  0  0
  191.5830  176.1140  146.3500 C   0  0  0  0  0  3  0  0  0  0  0  0
  192.7950  176.2870  148.5800 O   0  0  0  0  0  0  0  0  0  0  0  0
  192.2080  176.1980  147.4930 C   0  0  0  0  0  0  0  0  0  0  0  0
  189.2580  176.9280  146.8940 C   0  0  0  0  0  2  0  0  0  0  0  0
  189.2600  178.2680  148.1260 S   0  0  0  0  0  1  0  0  0  0  0  0
  1  4  1  6  0  0  0
  1 27  1  0  0  0  0
  2  3  2  0  0  0  0
  4  2  2  0  0  0  0
  5  8  1  0  0  0  0
  6  7  1  0  0  0  0
  6 10  2  0  0  0  0
  7  5  2  0  0  0  0
  9  8  2  0  0  0  0
  9  3  1  0  0  0  0
 10  9  1  0  0  0  0
 11 12  1  0  0  0  0
 11  1  1  0  0  0  0
 11 13  1  0  0  0  0
 12 13  1  0  0  0  0
 13 14  1  6  0  0  0
 14 15  1  0  0  0  0
 15 19  1  6  0  0  0
 17 16  1  6  0  0  0
 17 18  1  0  0  0  0
 17 15  1  0  0  0  0
 19 20  1  0  0  0  0
 20 21  1  0  0  0  0
 21 23  1  0  0  0  0
 22 21  2  0  0  0  0
 23 25  2  0  0  0  0
 25 26  1  0  0  0  0
 25 24  1  0  0  0  0
 26 24  1  0  0  0  0
 27 29  1  0  0  0  0
 28 27  2  0  0  0  0
 29 30  2  0  0  0  0
 31 32  1  0  0  0  0
 32 40  1  0  0  0  0
 33 36  2  0  0  0  0
 33 34  1  0  0  0  0
 34 31  2  0  0  0  0
 35 32  2  0  0  0  0
 36 35  1  0  0  0  0
 37 35  1  0  0  0  0
 38 29  1  6  0  0  0
 38 36  1  0  0  0  0
 38 37  1  0  0  0  0
 40 39  1  1  0  0  0
 40 41  1  0  0  0  0
 41 42  1  0  0  0  0
 42 43  1  1  0  0  0
 42 46  1  0  0  0  0
 43 45  2  0  0  0  0
 45 44  2  0  0  0  0
 46 47  1  0  0  0  0
M  END
>  <MODEL>
3

>  <REMARK>
 VINA RESULT:      -6.7      1.613      2.147
  Name = 
  17 active torsions:
  status: ('A' for Active; 'I' for Inactive)
    1  A    between atoms: C_1  and  C_17
    2  A    between atoms: C_1  and  C_23
    3  A    between atoms: C_1  and  N_25
    4  A    between atoms: C_5  and  C_46
    5  A    between atoms: C_7  and  C_19
    6  A    between atoms: N_8  and  C_37
    7  A    between atoms: C_9  and  C_34
    8  A    between atoms: N_11  and  C_34
    9  A    between atoms: N_11  and  C_46
   10  A    between atoms: N_12  and  C_18
   11  A    between atoms: C_13  and  C_35
   12  A    between atoms: C_18  and  C_19
   13  A    between atoms: C_19  and  N_38
   14  A    between atoms: C_23  and  C_28
   15  A    between atoms: C_28  and  C_40
   16  A    between atoms: C_29  and  C_46
   17  A    between atoms: N_38  and  C_47
                            x       y       z     vdW  Elec       q    Type
                         _______ _______ _______ _____ _____    ______ ____

>  <TORSDO>
F 17

$$$$
=
 OpenBabel10232411493D

 47 51  0  0  1  0  0  0  0  0999 V2000
  186.4460  178.7880  140.7680 C   0  0  2  0  0  3  0  0  0  0  0  0
  187.5240  177.8120  142.7250 C   0  0  0  0  0  0  0  0  0  0  0  0
  187.4880  176.9470  143.7040 C   0  0  0  0  0  3  0  0  0  0  0  0
  187.5680  178.6760  141.7470 C   0  0  0  0  0  3  0  0  0  0  0  0
  187.3950  177.9900  147.3200 C   0  0  0  0  0  3  0  0  0  0  0  0
  189.6960  177.5460  146.7260 C   0  0  0  0  0  3  0  0  0  0  0  0
  188.7450  177.9310  147.6740 C   0  0  0  0  0  3  0  0  0  0  0  0
  186.9950  177.6640  146.0190 C   0  0  0  0  0  3  0  0  0  0  0  0
  187.9440  177.2760  145.0660 C   0  0  0  0  0  0  0  0  0  0  0  0
  189.2990  177.2190  145.4260 C   0  0  0  0  0  3  0  0  0  0  0  0
  185.2780  178.0510  141.2440 N   0  0  0  0  0  0  0  0  0  0  0  0
  184.7440  178.7740  142.2990 O   0  0  0  0  0  0  0  0  0  0  0  0
  184.1290  178.9130  141.0970 C   0  0  2  0  0  3  0  0  0  0  0  0
  182.9110  178.1170  141.0720 N   0  0  0  0  0  2  0  0  0  0  0  0
  181.9150  178.8150  140.2650 C   0  0  2  0  0  3  0  0  0  0  0  0
  180.0520  177.6550  141.3900 N   0  0  0  0  0  1  0  0  0  0  0  0
  180.5790  178.9540  141.0030 C   0  0  1  0  0  3  0  0  0  0  0  0
  180.7280  179.7600  142.1290 O   0  0  0  0  0  1  0  0  0  0  0  0
  181.7290  178.0810  138.9500 C   0  0  0  0  0  2  0  0  0  0  0  0
  182.2580  176.7270  139.0530 N   0  0  0  0  0  2  0  0  0  0  0  0
  182.8280  176.0510  137.9270 C   0  0  0  0  0  0  0  0  0  0  0  0
  182.8900  176.6280  136.8040 O   0  0  0  0  0  0  0  0  0  0  0  0
  183.3280  174.7180  138.0910 N   0  0  0  0  0  0  0  0  0  0  0  0
  185.5700  173.2910  137.4720 C   0  0  0  0  0  2  0  0  0  0  0  0
  184.4900  174.3470  137.6610 C   0  0  0  0  0  0  0  0  0  0  0  0
  185.8200  174.6010  136.9670 C   0  0  0  0  0  2  0  0  0  0  0  0
  186.8880  178.2970  139.4150 C   0  0  0  0  0  0  0  0  0  0  0  0
  185.9410  178.0450  138.5160 C   0  0  0  0  0  2  0  0  0  0  0  0
  188.3220  178.1390  139.0640 C   0  0  0  0  0  0  0  0  0  0  0  0
  188.9890  179.1500  138.7040 O   0  0  0  0  0  0  0  0  0  0  0  0
  191.6100  175.8440  136.1370 N   0  0  0  0  0  0  0  0  0  0  0  0
  191.8980  176.1310  137.4470 C   0  0  0  0  0  0  0  0  0  0  0  0
  189.1970  176.1260  136.4500 C   0  0  0  0  0  3  0  0  0  0  0  0
  190.3220  175.8370  135.6360 C   0  0  0  0  0  3  0  0  0  0  0  0
  190.8260  176.4210  138.2590 C   0  0  0  0  0  0  0  0  0  0  0  0
  189.5040  176.4140  137.7650 C   0  0  0  0  0  0  0  0  0  0  0  0
  190.3370  176.8000  139.6150 C   0  0  0  0  0  2  0  0  0  0  0  0
  188.9740  176.7760  139.1110 C   0  0  1  0  0  3  0  0  0  0  0  0
  193.5150  177.1490  138.8380 O   0  0  0  0  0  1  0  0  0  0  0  0
  193.2930  176.0800  137.9700 C   0  0  2  0  0  3  0  0  0  0  0  0
  194.2320  176.1500  136.8520 N   0  0  0  0  0  2  0  0  0  0  0  0
  195.1090  174.9750  136.8130 C   0  0  2  0  0  3  0  0  0  0  0  0
  195.2600  174.3500  138.1720 C   0  0  0  0  0  3  0  0  0  0  0  0
  195.3560  171.8260  138.4690 O   0  0  0  0  0  0  0  0  0  0  0  0
  195.3100  173.0550  138.3310 C   0  0  0  0  0  0  0  0  0  0  0  0
  196.4530  175.2990  136.1610 C   0  0  0  0  0  2  0  0  0  0  0  0
  196.3340  175.0610  134.3610 S   0  0  0  0  0  1  0  0  0  0  0  0
  1 11  1  0  0  0  0
  1  4  1  1  0  0  0
  2  3  2  0  0  0  0
  3  9  1  0  0  0  0
  4  2  2  0  0  0  0
  5  7  1  0  0  0  0
  6  7  2  0  0  0  0
  8  5  2  0  0  0  0
  9 10  2  0  0  0  0
  9  8  1  0  0  0  0
 10  6  1  0  0  0  0
 11 12  1  0  0  0  0
 13 14  1  1  0  0  0
 13 11  1  0  0  0  0
 13 12  1  0  0  0  0
 15 19  1  6  0  0  0
 15 17  1  0  0  0  0
 15 14  1  0  0  0  0
 17 16  1  1  0  0  0
 17 18  1  0  0  0  0
 19 20  1  0  0  0  0
 21 23  1  0  0  0  0
 21 20  1  0  0  0  0
 22 21  2  0  0  0  0
 24 25  1  0  0  0  0
 25 23  2  0  0  0  0
 26 24  1  0  0  0  0
 26 25  1  0  0  0  0
 27  1  1  0  0  0  0
 28 27  2  0  0  0  0
 29 27  1  0  0  0  0
 30 29  2  0  0  0  0
 31 32  1  0  0  0  0
 32 40  1  0  0  0  0
 32 35  2  0  0  0  0
 33 36  2  0  0  0  0
 34 31  2  0  0  0  0
 34 33  1  0  0  0  0
 35 37  1  0  0  0  0
 36 35  1  0  0  0  0
 36 38  1  0  0  0  0
 38 29  1  6  0  0  0
 38 37  1  0  0  0  0
 40 39  1  1  0  0  0
 41 40  1  0  0  0  0
 42 46  1  1  0  0  0
 42 41  1  0  0  0  0
 42 43  1  0  0  0  0
 43 45  2  0  0  0  0
 45 44  2  0  0  0  0
 47 46  1  0  0  0  0
M  END
>  <MODEL>
4

>  <REMARK>
 VINA RESULT:      -6.7      3.434      7.599
  Name = 
  17 active torsions:
  status: ('A' for Active; 'I' for Inactive)
    1  A    between atoms: C_1  and  C_17
    2  A    between atoms: C_1  and  C_23
    3  A    between atoms: C_1  and  N_25
    4  A    between atoms: C_5  and  C_46
    5  A    between atoms: C_7  and  C_19
    6  A    between atoms: N_8  and  C_37
    7  A    between atoms: C_9  and  C_34
    8  A    between atoms: N_11  and  C_34
    9  A    between atoms: N_11  and  C_46
   10  A    between atoms: N_12  and  C_18
   11  A    between atoms: C_13  and  C_35
   12  A    between atoms: C_18  and  C_19
   13  A    between atoms: C_19  and  N_38
   14  A    between atoms: C_23  and  C_28
   15  A    between atoms: C_28  and  C_40
   16  A    between atoms: C_29  and  C_46
   17  A    between atoms: N_38  and  C_47
                            x       y       z     vdW  Elec       q    Type
                         _______ _______ _______ _____ _____    ______ ____

>  <TORSDO>
F 17

$$$$
=
 OpenBabel10232411493D

 47 51  0  0  1  0  0  0  0  0999 V2000
  189.9570  176.9670  138.8000 C   0  0  2  0  0  3  0  0  0  0  0  0
  189.9580  177.0970  141.2340 C   0  0  0  0  0  0  0  0  0  0  0  0
  190.0540  176.4840  142.3840 C   0  0  0  0  0  3  0  0  0  0  0  0
  189.8630  177.7150  140.0880 C   0  0  0  0  0  3  0  0  0  0  0  0
  186.9590  177.1940  144.4060 C   0  0  0  0  0  3  0  0  0  0  0  0
  188.8740  177.4050  145.8670 C   0  0  0  0  0  3  0  0  0  0  0  0
  187.4920  177.4590  145.6700 C   0  0  0  0  0  3  0  0  0  0  0  0
  187.8060  176.8740  143.3390 C   0  0  0  0  0  3  0  0  0  0  0  0
  189.1920  176.8170  143.5310 C   0  0  0  0  0  0  0  0  0  0  0  0
  189.7230  177.0850  144.8030 C   0  0  0  0  0  3  0  0  0  0  0  0
  191.2860  177.1220  138.2140 N   0  0  0  0  0  0  0  0  0  0  0  0
  192.1560  176.3580  138.9770 O   0  0  0  0  0  0  0  0  0  0  0  0
  191.7380  175.8120  137.8060 C   0  0  2  0  0  3  0  0  0  0  0  0
  192.7830  175.9390  136.8020 N   0  0  0  0  0  2  0  0  0  0  0  0
  192.8230  174.7110  136.0140 C   0  0  2  0  0  3  0  0  0  0  0  0
  190.5520  174.3150  135.1390 N   0  0  0  0  0  1  0  0  0  0  0  0
  191.5240  173.9080  136.1420 C   0  0  1  0  0  3  0  0  0  0  0  0
  191.7820  172.5450  136.0260 O   0  0  0  0  0  1  0  0  0  0  0  0
  194.0160  173.8770  136.4420 C   0  0  0  0  0  2  0  0  0  0  0  0
  194.7730  174.5770  137.4710 N   0  0  0  0  0  2  0  0  0  0  0  0
  195.3290  173.8910  138.5990 C   0  0  0  0  0  0  0  0  0  0  0  0
  195.1760  172.6420  138.7210 O   0  0  0  0  0  0  0  0  0  0  0  0
  196.0600  174.6370  139.5790 N   0  0  0  0  0  0  0  0  0  0  0  0
  198.6340  175.4120  140.0480 C   0  0  0  0  0  2  0  0  0  0  0  0
  197.3360  174.8320  139.5040 C   0  0  0  0  0  0  0  0  0  0  0  0
  198.6920  174.6720  138.8310 C   0  0  0  0  0  2  0  0  0  0  0  0
  188.8840  177.4320  137.8510 C   0  0  0  0  0  0  0  0  0  0  0  0
  188.9760  178.6750  137.3860 C   0  0  0  0  0  2  0  0  0  0  0  0
  187.7850  176.5390  137.4040 C   0  0  0  0  0  0  0  0  0  0  0  0
  187.9190  175.2880  137.5120 O   0  0  0  0  0  0  0  0  0  0  0  0
  182.9860  175.3050  137.7070 N   0  0  0  0  0  0  0  0  0  0  0  0
  183.4430  176.5170  138.1590 C   0  0  0  0  0  0  0  0  0  0  0  0
  184.9870  174.8880  136.3580 C   0  0  0  0  0  3  0  0  0  0  0  0
  183.7110  174.5050  136.8430 C   0  0  0  0  0  3  0  0  0  0  0  0
  184.6810  176.9110  137.7080 C   0  0  0  0  0  0  0  0  0  0  0  0
  185.4320  176.1090  136.8220 C   0  0  0  0  0  0  0  0  0  0  0  0
  185.7610  177.9380  137.7240 C   0  0  0  0  0  2  0  0  0  0  0  0
  186.5270  177.1200  136.7990 C   0  0  1  0  0  3  0  0  0  0  0  0
  182.6770  178.7060  138.6170 O   0  0  0  0  0  1  0  0  0  0  0  0
  182.6150  177.3810  139.0490 C   0  0  2  0  0  3  0  0  0  0  0  0
  183.1160  177.2870  140.4190 N   0  0  0  0  0  2  0  0  0  0  0  0
  183.0950  178.5910  141.0890 C   0  0  2  0  0  3  0  0  0  0  0  0
  184.3460  178.8250  141.8890 C   0  0  0  0  0  3  0  0  0  0  0  0
  186.6360  178.8830  140.7860 O   0  0  0  0  0  0  0  0  0  0  0  0
  185.5240  178.8560  141.3280 C   0  0  0  0  0  0  0  0  0  0  0  0
  181.8230  178.7770  141.9150 C   0  0  0  0  0  2  0  0  0  0  0  0
  182.2560  178.9600  143.6740 S   0  0  0  0  0  1  0  0  0  0  0  0
  1  4  1  1  0  0  0
  2  3  2  0  0  0  0
  3  9  1  0  0  0  0
  4  2  2  0  0  0  0
  5  7  1  0  0  0  0
  7  6  2  0  0  0  0
  8  9  1  0  0  0  0
  8  5  2  0  0  0  0
  9 10  2  0  0  0  0
 10  6  1  0  0  0  0
 11  1  1  0  0  0  0
 11 12  1  0  0  0  0
 13 14  1  6  0  0  0
 13 11  1  0  0  0  0
 13 12  1  0  0  0  0
 15 17  1  0  0  0  0
 15 19  1  1  0  0  0
 15 14  1  0  0  0  0
 17 16  1  6  0  0  0
 18 17  1  0  0  0  0
 19 20  1  0  0  0  0
 20 21  1  0  0  0  0
 21 22  2  0  0  0  0
 21 23  1  0  0  0  0
 25 23  2  0  0  0  0
 25 24  1  0  0  0  0
 26 25  1  0  0  0  0
 26 24  1  0  0  0  0
 27  1  1  0  0  0  0
 28 27  2  0  0  0  0
 29 30  2  0  0  0  0
 29 27  1  0  0  0  0
 31 32  1  0  0  0  0
 32 40  1  0  0  0  0
 33 36  2  0  0  0  0
 33 34  1  0  0  0  0
 34 31  2  0  0  0  0
 35 37  1  0  0  0  0
 35 32  2  0  0  0  0
 36 35  1  0  0  0  0
 38 36  1  0  0  0  0
 38 29  1  1  0  0  0
 38 37  1  0  0  0  0
 40 39  1  6  0  0  0
 40 41  1  0  0  0  0
 41 42  1  0  0  0  0
 42 43  1  1  0  0  0
 42 46  1  0  0  0  0
 44 45  2  0  0  0  0
 45 43  2  0  0  0  0
 46 47  1  0  0  0  0
M  END
>  <MODEL>
5

>  <REMARK>
 VINA RESULT:      -6.6      3.399      8.916
  Name = 
  17 active torsions:
  status: ('A' for Active; 'I' for Inactive)
    1  A    between atoms: C_1  and  C_17
    2  A    between atoms: C_1  and  C_23
    3  A    between atoms: C_1  and  N_25
    4  A    between atoms: C_5  and  C_46
    5  A    between atoms: C_7  and  C_19
    6  A    between atoms: N_8  and  C_37
    7  A    between atoms: C_9  and  C_34
    8  A    between atoms: N_11  and  C_34
    9  A    between atoms: N_11  and  C_46
   10  A    between atoms: N_12  and  C_18
   11  A    between atoms: C_13  and  C_35
   12  A    between atoms: C_18  and  C_19
   13  A    between atoms: C_19  and  N_38
   14  A    between atoms: C_23  and  C_28
   15  A    between atoms: C_28  and  C_40
   16  A    between atoms: C_29  and  C_46
   17  A    between atoms: N_38  and  C_47
                            x       y       z     vdW  Elec       q    Type
                         _______ _______ _______ _____ _____    ______ ____

>  <TORSDO>
F 17

$$$$
=
 OpenBabel10232411493D

 47 51  0  0  1  0  0  0  0  0999 V2000
  190.6330  176.7740  138.3530 C   0  0  2  0  0  3  0  0  0  0  0  0
  192.5660  175.4970  137.5960 C   0  0  0  0  0  0  0  0  0  0  0  0
  193.3150  174.4320  137.7130 C   0  0  0  0  0  3  0  0  0  0  0  0
  191.8200  176.5610  137.4730 C   0  0  0  0  0  3  0  0  0  0  0  0
  196.7730  174.8450  136.2810 C   0  0  0  0  0  3  0  0  0  0  0  0
  196.9920  174.2880  138.6240 C   0  0  0  0  0  3  0  0  0  0  0  0
  197.5790  174.5930  137.3940 C   0  0  0  0  0  3  0  0  0  0  0  0
  195.3790  174.7910  136.3980 C   0  0  0  0  0  3  0  0  0  0  0  0
  194.7850  174.4870  137.6290 C   0  0  0  0  0  0  0  0  0  0  0  0
  195.6000  174.2350  138.7430 C   0  0  0  0  0  3  0  0  0  0  0  0
  190.8510  176.1640  139.6620 N   0  0  0  0  0  0  0  0  0  0  0  0
  191.7510  176.9720  140.3400 O   0  0  0  0  0  0  0  0  0  0  0  0
  190.4400  177.1220  140.6620 C   0  0  2  0  0  3  0  0  0  0  0  0
  190.1600  176.4390  141.9160 N   0  0  0  0  0  2  0  0  0  0  0  0
  189.4280  177.3510  142.7900 C   0  0  2  0  0  3  0  0  0  0  0  0
  191.3550  176.8590  144.2480 N   0  0  0  0  0  1  0  0  0  0  0  0
  190.2740  177.7970  143.9860 C   0  0  1  0  0  3  0  0  0  0  0  0
  190.7950  179.0700  143.7670 O   0  0  0  0  0  1  0  0  0  0  0  0
  188.1480  176.6830  143.2550 C   0  0  0  0  0  2  0  0  0  0  0  0
  187.9340  176.9440  144.6730 N   0  0  0  0  0  2  0  0  0  0  0  0
  186.7940  177.6710  145.1440 C   0  0  0  0  0  0  0  0  0  0  0  0
  185.9320  178.1010  144.3250 O   0  0  0  0  0  0  0  0  0  0  0  0
  186.6430  177.8980  146.5500 N   0  0  0  0  0  0  0  0  0  0  0  0
  188.2180  178.0380  148.7740 C   0  0  0  0  0  2  0  0  0  0  0  0
  187.6410  177.9000  147.3720 C   0  0  0  0  0  0  0  0  0  0  0  0
  189.1220  177.7720  147.7030 C   0  0  0  0  0  2  0  0  0  0  0  0
  189.3950  176.2260  137.6940 C   0  0  0  0  0  0  0  0  0  0  0  0
  189.5150  175.0870  137.0170 C   0  0  0  0  0  2  0  0  0  0  0  0
  188.0730  176.8910  137.8220 C   0  0  0  0  0  0  0  0  0  0  0  0
  187.8280  177.5950  138.8410 O   0  0  0  0  0  0  0  0  0  0  0  0
  183.7110  174.5230  137.7310 N   0  0  0  0  0  0  0  0  0  0  0  0
  183.7910  175.8810  137.5500 C   0  0  0  0  0  0  0  0  0  0  0  0
  186.0890  174.1710  137.2620 C   0  0  0  0  0  3  0  0  0  0  0  0
  184.8000  173.6830  137.6000 C   0  0  0  0  0  3  0  0  0  0  0  0
  185.0310  176.3820  137.2270 C   0  0  0  0  0  0  0  0  0  0  0  0
  186.1530  175.5370  137.0850 C   0  0  0  0  0  0  0  0  0  0  0  0
  185.8670  177.5770  136.9170 C   0  0  0  0  0  2  0  0  0  0  0  0
  187.0190  176.7060  136.7540 C   0  0  1  0  0  3  0  0  0  0  0  0
  182.5520  177.6370  136.5670 O   0  0  0  0  0  1  0  0  0  0  0  0
  182.5870  176.7550  137.6470 C   0  0  2  0  0  3  0  0  0  0  0  0
  182.6360  177.5100  138.8980 N   0  0  0  0  0  2  0  0  0  0  0  0
  182.5250  178.9530  138.6580 C   0  0  2  0  0  3  0  0  0  0  0  0
  183.7060  179.7000  139.2130 C   0  0  0  0  0  3  0  0  0  0  0  0
  185.2580  178.6430  140.9280 O   0  0  0  0  0  0  0  0  0  0  0  0
  184.5070  179.1620  140.0930 C   0  0  0  0  0  0  0  0  0  0  0  0
  181.1910  179.5040  139.1590 C   0  0  0  0  0  2  0  0  0  0  0  0
  180.7230  178.6670  140.7060 S   0  0  0  0  0  1  0  0  0  0  0  0
  1  4  1  6  0  0  0
  1 11  1  0  0  0  0
  2  3  2  0  0  0  0
  4  2  2  0  0  0  0
  5  8  2  0  0  0  0
  5  7  1  0  0  0  0
  6 10  1  0  0  0  0
  7  6  2  0  0  0  0
  8  9  1  0  0  0  0
  9  3  1  0  0  0  0
  9 10  2  0  0  0  0
 11 12  1  0  0  0  0
 11 13  1  0  0  0  0
 12 13  1  0  0  0  0
 13 14  1  1  0  0  0
 14 15  1  0  0  0  0
 15 19  1  1  0  0  0
 15 17  1  0  0  0  0
 17 18  1  6  0  0  0
 17 16  1  0  0  0  0
 19 20  1  0  0  0  0
 20 21  1  0  0  0  0
 21 23  1  0  0  0  0
 22 21  2  0  0  0  0
 23 25  2  0  0  0  0
 25 26  1  0  0  0  0
 25 24  1  0  0  0  0
 26 24  1  0  0  0  0
 27 29  1  0  0  0  0
 27  1  1  0  0  0  0
 28 27  2  0  0  0  0
 29 30  2  0  0  0  0
 32 40  1  0  0  0  0
 32 31  2  0  0  0  0
 33 34  2  0  0  0  0
 34 31  1  0  0  0  0
 35 32  1  0  0  0  0
 36 35  2  0  0  0  0
 36 33  1  0  0  0  0
 37 35  1  0  0  0  0
 38 37  1  0  0  0  0
 38 36  1  0  0  0  0
 38 29  1  1  0  0  0
 40 39  1  6  0  0  0
 40 41  1  0  0  0  0
 42 41  1  0  0  0  0
 42 46  1  1  0  0  0
 42 43  1  0  0  0  0
 43 45  2  0  0  0  0
 45 44  2  0  0  0  0
 46 47  1  0  0  0  0
M  END
>  <MODEL>
6

>  <REMARK>
 VINA RESULT:      -6.6      2.695      7.211
  Name = 
  17 active torsions:
  status: ('A' for Active; 'I' for Inactive)
    1  A    between atoms: C_1  and  C_17
    2  A    between atoms: C_1  and  C_23
    3  A    between atoms: C_1  and  N_25
    4  A    between atoms: C_5  and  C_46
    5  A    between atoms: C_7  and  C_19
    6  A    between atoms: N_8  and  C_37
    7  A    between atoms: C_9  and  C_34
    8  A    between atoms: N_11  and  C_34
    9  A    between atoms: N_11  and  C_46
   10  A    between atoms: N_12  and  C_18
   11  A    between atoms: C_13  and  C_35
   12  A    between atoms: C_18  and  C_19
   13  A    between atoms: C_19  and  N_38
   14  A    between atoms: C_23  and  C_28
   15  A    between atoms: C_28  and  C_40
   16  A    between atoms: C_29  and  C_46
   17  A    between atoms: N_38  and  C_47
                            x       y       z     vdW  Elec       q    Type
                         _______ _______ _______ _____ _____    ______ ____

>  <TORSDO>
F 17

$$$$
=
 OpenBabel10232411493D

 47 51  0  0  1  0  0  0  0  0999 V2000
  187.2610  177.5500  138.6920 C   0  0  2  0  0  3  0  0  0  0  0  0
  185.2110  178.8700  138.7310 C   0  0  0  0  0  0  0  0  0  0  0  0
  184.0670  179.1360  139.3020 C   0  0  0  0  0  3  0  0  0  0  0  0
  186.3540  178.6100  138.1570 C   0  0  0  0  0  3  0  0  0  0  0  0
  181.0570  180.9420  137.9390 C   0  0  0  0  0  3  0  0  0  0  0  0
  181.1050  178.7270  136.9710 C   0  0  0  0  0  3  0  0  0  0  0  0
  180.4970  179.9770  137.0980 C   0  0  0  0  0  3  0  0  0  0  0  0
  182.2260  180.6560  138.6540 C   0  0  0  0  0  3  0  0  0  0  0  0
  182.8410  179.4050  138.5290 C   0  0  0  0  0  0  0  0  0  0  0  0
  182.2740  178.4390  137.6830 C   0  0  0  0  0  3  0  0  0  0  0  0
  188.4010  178.1520  139.3780 N   0  0  0  0  0  0  0  0  0  0  0  0
  187.8980  178.8470  140.4670 O   0  0  0  0  0  0  0  0  0  0  0  0
  188.4290  177.6240  140.7220 C   0  0  2  0  0  3  0  0  0  0  0  0
  189.7620  177.7730  141.2850 N   0  0  0  0  0  2  0  0  0  0  0  0
  189.6480  177.8570  142.7380 C   0  0  2  0  0  3  0  0  0  0  0  0
  192.0440  177.3050  142.5540 N   0  0  0  0  0  1  0  0  0  0  0  0
  191.0200  177.8720  143.4190 C   0  0  1  0  0  3  0  0  0  0  0  0
  191.3710  179.1700  143.7790 O   0  0  0  0  0  1  0  0  0  0  0  0
  188.8080  176.6990  143.2440 C   0  0  0  0  0  2  0  0  0  0  0  0
  188.3690  176.9580  144.6090 N   0  0  0  0  0  2  0  0  0  0  0  0
  187.0690  177.4810  144.8980 C   0  0  0  0  0  0  0  0  0  0  0  0
  186.2590  177.7250  143.9580 O   0  0  0  0  0  0  0  0  0  0  0  0
  186.6980  177.7180  146.2620 N   0  0  0  0  0  0  0  0  0  0  0  0
  187.9050  177.8770  148.7040 C   0  0  0  0  0  2  0  0  0  0  0  0
  187.5550  177.7280  147.2300 C   0  0  0  0  0  0  0  0  0  0  0  0
  188.9650  177.6060  147.7910 C   0  0  0  0  0  2  0  0  0  0  0  0
  187.7100  176.6420  137.5780 C   0  0  0  0  0  0  0  0  0  0  0  0
  186.7680  175.9900  136.9020 C   0  0  0  0  0  2  0  0  0  0  0  0
  189.1400  176.5030  137.2030 C   0  0  0  0  0  0  0  0  0  0  0  0
  189.5710  177.0890  136.1710 O   0  0  0  0  0  0  0  0  0  0  0  0
  193.0510  173.6590  136.0800 N   0  0  0  0  0  0  0  0  0  0  0  0
  193.1740  174.7520  136.9010 C   0  0  0  0  0  0  0  0  0  0  0  0
  190.6190  173.5490  136.3430 C   0  0  0  0  0  3  0  0  0  0  0  0
  191.8360  173.0660  135.7960 C   0  0  0  0  0  3  0  0  0  0  0  0
  192.0080  175.2440  137.4400 C   0  0  0  0  0  0  0  0  0  0  0  0
  190.7590  174.6480  137.1650 C   0  0  0  0  0  0  0  0  0  0  0  0
  191.3520  176.2680  138.3030 C   0  0  0  0  0  2  0  0  0  0  0  0
  190.0670  175.6440  138.0330 C   0  0  1  0  0  3  0  0  0  0  0  0
  194.6500  176.5720  136.5980 O   0  0  0  0  0  1  0  0  0  0  0  0
  194.5050  175.3370  137.2290 C   0  0  2  0  0  3  0  0  0  0  0  0
  195.5580  174.4280  136.7790 N   0  0  0  0  0  2  0  0  0  0  0  0
  196.1760  173.7230  137.9070 C   0  0  2  0  0  3  0  0  0  0  0  0
  195.7300  174.2880  139.2270 C   0  0  0  0  0  3  0  0  0  0  0  0
  197.2600  175.7630  140.6230 O   0  0  0  0  0  0  0  0  0  0  0  0
  196.5110  175.0460  139.9480 C   0  0  0  0  0  0  0  0  0  0  0  0
  197.6970  173.6710  137.7720 C   0  0  0  0  0  2  0  0  0  0  0  0
  198.1990  174.4400  136.2000 S   0  0  0  0  0  1  0  0  0  0  0  0
  1  4  1  6  0  0  0
  1 11  1  0  0  0  0
  2  3  2  0  0  0  0
  4  2  2  0  0  0  0
  5  8  1  0  0  0  0
  6  7  1  0  0  0  0
  6 10  2  0  0  0  0
  7  5  2  0  0  0  0
  9  8  2  0  0  0  0
  9  3  1  0  0  0  0
 10  9  1  0  0  0  0
 11 12  1  0  0  0  0
 11 13  1  0  0  0  0
 12 13  1  0  0  0  0
 13 14  1  1  0  0  0
 14 15  1  0  0  0  0
 15 19  1  1  0  0  0
 15 17  1  0  0  0  0
 17 16  1  6  0  0  0
 17 18  1  0  0  0  0
 19 20  1  0  0  0  0
 20 21  1  0  0  0  0
 21 23  1  0  0  0  0
 22 21  2  0  0  0  0
 23 25  2  0  0  0  0
 25 26  1  0  0  0  0
 25 24  1  0  0  0  0
 26 24  1  0  0  0  0
 27  1  1  0  0  0  0
 28 27  2  0  0  0  0
 29 27  1  0  0  0  0
 30 29  2  0  0  0  0
 31 32  1  0  0  0  0
 32 40  1  0  0  0  0
 32 35  2  0  0  0  0
 33 36  2  0  0  0  0
 34 31  2  0  0  0  0
 34 33  1  0  0  0  0
 35 37  1  0  0  0  0
 36 35  1  0  0  0  0
 36 38  1  0  0  0  0
 38 29  1  6  0  0  0
 38 37  1  0  0  0  0
 40 39  1  6  0  0  0
 41 40  1  0  0  0  0
 41 42  1  0  0  0  0
 42 46  1  6  0  0  0
 42 43  1  0  0  0  0
 43 45  2  0  0  0  0
 45 44  2  0  0  0  0
 47 46  1  0  0  0  0
M  END
>  <MODEL>
7

>  <REMARK>
 VINA RESULT:      -6.4      3.530      8.629
  Name = 
  17 active torsions:
  status: ('A' for Active; 'I' for Inactive)
    1  A    between atoms: C_1  and  C_17
    2  A    between atoms: C_1  and  C_23
    3  A    between atoms: C_1  and  N_25
    4  A    between atoms: C_5  and  C_46
    5  A    between atoms: C_7  and  C_19
    6  A    between atoms: N_8  and  C_37
    7  A    between atoms: C_9  and  C_34
    8  A    between atoms: N_11  and  C_34
    9  A    between atoms: N_11  and  C_46
   10  A    between atoms: N_12  and  C_18
   11  A    between atoms: C_13  and  C_35
   12  A    between atoms: C_18  and  C_19
   13  A    between atoms: C_19  and  N_38
   14  A    between atoms: C_23  and  C_28
   15  A    between atoms: C_28  and  C_40
   16  A    between atoms: C_29  and  C_46
   17  A    between atoms: N_38  and  C_47
                            x       y       z     vdW  Elec       q    Type
                         _______ _______ _______ _____ _____    ______ ____

>  <TORSDO>
F 17

$$$$
=
 OpenBabel10232411493D

 47 51  0  0  1  0  0  0  0  0999 V2000
  183.3890  178.2580  138.0610 C   0  0  2  0  0  3  0  0  0  0  0  0
  181.8840  176.3410  138.0190 C   0  0  0  0  0  0  0  0  0  0  0  0
  181.6190  175.1220  138.4110 C   0  0  0  0  0  3  0  0  0  0  0  0
  182.1430  177.5590  137.6280 C   0  0  0  0  0  3  0  0  0  0  0  0
  180.1750  171.8660  137.1920 C   0  0  0  0  0  3  0  0  0  0  0  0
  180.3230  173.3720  135.3070 C   0  0  0  0  0  3  0  0  0  0  0  0
  179.9820  172.1240  135.8330 C   0  0  0  0  0  3  0  0  0  0  0  0
  180.7090  172.8550  138.0260 C   0  0  0  0  0  3  0  0  0  0  0  0
  181.0520  174.1080  137.5050 C   0  0  0  0  0  0  0  0  0  0  0  0
  180.8570  174.3620  136.1380 C   0  0  0  0  0  3  0  0  0  0  0  0
  184.5160  177.3290  138.0790 N   0  0  0  0  0  0  0  0  0  0  0  0
  184.7420  176.9400  136.7670 O   0  0  0  0  0  0  0  0  0  0  0  0
  185.5640  177.8990  137.2650 C   0  0  2  0  0  3  0  0  0  0  0  0
  186.8460  177.3120  137.6240 N   0  0  0  0  0  2  0  0  0  0  0  0
  187.7480  177.4290  136.4830 C   0  0  2  0  0  3  0  0  0  0  0  0
  188.0670  175.0350  136.9810 N   0  0  0  0  0  1  0  0  0  0  0  0
  188.1780  176.0580  135.9520 C   0  0  1  0  0  3  0  0  0  0  0  0
  187.4100  175.7010  134.8470 O   0  0  0  0  0  1  0  0  0  0  0  0
  188.9580  178.2550  136.8810 C   0  0  0  0  0  2  0  0  0  0  0  0
  189.8140  177.4890  137.7770 N   0  0  0  0  0  2  0  0  0  0  0  0
  189.8220  177.7140  139.1910 C   0  0  0  0  0  0  0  0  0  0  0  0
  189.0660  178.5930  139.6980 O   0  0  0  0  0  0  0  0  0  0  0  0
  190.6900  176.9310  140.0190 N   0  0  0  0  0  0  0  0  0  0  0  0
  191.6230  176.9490  142.5830 C   0  0  0  0  0  2  0  0  0  0  0  0
  190.9340  177.2250  141.2550 C   0  0  0  0  0  0  0  0  0  0  0  0
  190.7700  178.0880  142.4980 C   0  0  0  0  0  2  0  0  0  0  0  0
  183.1840  178.8950  139.4090 C   0  0  0  0  0  0  0  0  0  0  0  0
  182.3680  179.9440  139.4730 C   0  0  0  0  0  2  0  0  0  0  0  0
  183.8200  178.3590  140.6390 C   0  0  0  0  0  0  0  0  0  0  0  0
  183.4660  177.2300  141.0810 O   0  0  0  0  0  0  0  0  0  0  0  0
  185.6510  178.1640  145.2500 N   0  0  0  0  0  0  0  0  0  0  0  0
  186.4490  177.9500  144.1540 C   0  0  0  0  0  0  0  0  0  0  0  0
  183.8820  179.2360  143.9380 C   0  0  0  0  0  3  0  0  0  0  0  0
  184.4150  178.7780  145.1700 C   0  0  0  0  0  3  0  0  0  0  0  0
  185.9540  178.3800  142.9450 C   0  0  0  0  0  0  0  0  0  0  0  0
  184.6960  179.0120  142.8460 C   0  0  0  0  0  0  0  0  0  0  0  0
  186.1530  178.5030  141.4730 C   0  0  0  0  0  2  0  0  0  0  0  0
  184.8650  179.1700  141.3730 C   0  0  1  0  0  3  0  0  0  0  0  0
  187.8390  176.1270  143.5800 O   0  0  0  0  0  1  0  0  0  0  0  0
  187.8000  177.3330  144.2800 C   0  0  2  0  0  3  0  0  0  0  0  0
  188.0930  177.0910  145.6920 N   0  0  0  0  0  2  0  0  0  0  0  0
  189.3050  177.7990  146.1170 C   0  0  2  0  0  3  0  0  0  0  0  0
  190.5390  176.9720  145.8900 C   0  0  0  0  0  3  0  0  0  0  0  0
  191.9280  176.0990  147.8340 O   0  0  0  0  0  0  0  0  0  0  0  0
  191.2560  176.5210  146.8840 C   0  0  0  0  0  0  0  0  0  0  0  0
  189.1870  178.2990  147.5560 C   0  0  0  0  0  2  0  0  0  0  0  0
  187.8920  177.3620  148.4270 S   0  0  0  0  0  1  0  0  0  0  0  0
  1  4  1  1  0  0  0
  1 11  1  0  0  0  0
  1 27  1  0  0  0  0
  2  3  2  0  0  0  0
  4  2  2  0  0  0  0
  5  8  1  0  0  0  0
  6  7  1  0  0  0  0
  6 10  2  0  0  0  0
  7  5  2  0  0  0  0
  9  8  2  0  0  0  0
  9  3  1  0  0  0  0
 10  9  1  0  0  0  0
 12 13  1  0  0  0  0
 12 11  1  0  0  0  0
 13 14  1  1  0  0  0
 13 11  1  0  0  0  0
 15 19  1  1  0  0  0
 15 14  1  0  0  0  0
 17 18  1  6  0  0  0
 17 15  1  0  0  0  0
 17 16  1  0  0  0  0
 19 20  1  0  0  0  0
 20 21  1  0  0  0  0
 21 22  2  0  0  0  0
 21 23  1  0  0  0  0
 23 25  2  0  0  0  0
 25 26  1  0  0  0  0
 25 24  1  0  0  0  0
 26 24  1  0  0  0  0
 27 28  2  0  0  0  0
 27 29  1  0  0  0  0
 29 30  2  0  0  0  0
 32 40  1  0  0  0  0
 32 31  2  0  0  0  0
 33 34  2  0  0  0  0
 34 31  1  0  0  0  0
 35 32  1  0  0  0  0
 36 35  2  0  0  0  0
 36 33  1  0  0  0  0
 37 35  1  0  0  0  0
 38 29  1  6  0  0  0
 38 37  1  0  0  0  0
 38 36  1  0  0  0  0
 40 39  1  6  0  0  0
 40 41  1  0  0  0  0
 41 42  1  0  0  0  0
 42 43  1  1  0  0  0
 42 46  1  0  0  0  0
 43 45  2  0  0  0  0
 45 44  2  0  0  0  0
 46 47  1  0  0  0  0
M  END
>  <MODEL>
8

>  <REMARK>
 VINA RESULT:      -6.4      2.794      6.994
  Name = 
  17 active torsions:
  status: ('A' for Active; 'I' for Inactive)
    1  A    between atoms: C_1  and  C_17
    2  A    between atoms: C_1  and  C_23
    3  A    between atoms: C_1  and  N_25
    4  A    between atoms: C_5  and  C_46
    5  A    between atoms: C_7  and  C_19
    6  A    between atoms: N_8  and  C_37
    7  A    between atoms: C_9  and  C_34
    8  A    between atoms: N_11  and  C_34
    9  A    between atoms: N_11  and  C_46
   10  A    between atoms: N_12  and  C_18
   11  A    between atoms: C_13  and  C_35
   12  A    between atoms: C_18  and  C_19
   13  A    between atoms: C_19  and  N_38
   14  A    between atoms: C_23  and  C_28
   15  A    between atoms: C_28  and  C_40
   16  A    between atoms: C_29  and  C_46
   17  A    between atoms: N_38  and  C_47
                            x       y       z     vdW  Elec       q    Type
                         _______ _______ _______ _____ _____    ______ ____

>  <TORSDO>
F 17

$$$$
=
 OpenBabel10232411493D

 47 51  0  0  1  0  0  0  0  0999 V2000
  187.9960  176.2770  136.8030 C   0  0  2  0  0  3  0  0  0  0  0  0
  190.1210  175.1220  136.5040 C   0  0  0  0  0  0  0  0  0  0  0  0
  191.0590  174.3620  137.0060 C   0  0  0  0  0  3  0  0  0  0  0  0
  189.1870  175.8780  135.9960 C   0  0  0  0  0  3  0  0  0  0  0  0
  194.2320  175.3820  135.2560 C   0  0  0  0  0  3  0  0  0  0  0  0
  194.8200  174.5430  137.4460 C   0  0  0  0  0  3  0  0  0  0  0  0
  195.2020  175.0810  136.2150 C   0  0  0  0  0  3  0  0  0  0  0  0
  192.8800  175.1440  135.5260 C   0  0  0  0  0  3  0  0  0  0  0  0
  192.4900  174.6060  136.7590 C   0  0  0  0  0  0  0  0  0  0  0  0
  193.4690  174.3050  137.7190 C   0  0  0  0  0  3  0  0  0  0  0  0
  186.7640  175.9910  136.0710 N   0  0  0  0  0  0  0  0  0  0  0  0
  186.6450  174.6110  136.0020 O   0  0  0  0  0  0  0  0  0  0  0  0
  185.9010  175.2360  136.9500 C   0  0  2  0  0  3  0  0  0  0  0  0
  184.5210  175.3440  136.5010 N   0  0  0  0  0  2  0  0  0  0  0  0
  183.6690  174.6190  137.4390 C   0  0  2  0  0  3  0  0  0  0  0  0
  183.1950  173.1870  135.4890 N   0  0  0  0  0  1  0  0  0  0  0  0
  183.3370  173.2110  136.9360 C   0  0  1  0  0  3  0  0  0  0  0  0
  184.3210  172.3090  137.3310 O   0  0  0  0  0  1  0  0  0  0  0  0
  182.4010  175.4160  137.6840 C   0  0  0  0  0  2  0  0  0  0  0  0
  182.7060  176.8390  137.7410 N   0  0  0  0  0  2  0  0  0  0  0  0
  182.8350  177.5360  138.9840 C   0  0  0  0  0  0  0  0  0  0  0  0
  182.6920  176.9160  140.0780 O   0  0  0  0  0  0  0  0  0  0  0  0
  183.1320  178.9380  138.9730 N   0  0  0  0  0  0  0  0  0  0  0  0
  181.8450  181.2900  138.4640 C   0  0  0  0  0  2  0  0  0  0  0  0
  182.2540  179.8380  138.6730 C   0  0  0  0  0  0  0  0  0  0  0  0
  180.8570  180.2820  138.2620 C   0  0  0  0  0  2  0  0  0  0  0  0
  188.0850  177.7330  137.1740 C   0  0  0  0  0  0  0  0  0  0  0  0
  187.5760  178.6150  136.3190 C   0  0  0  0  0  2  0  0  0  0  0  0
  188.6740  178.1840  138.4610 C   0  0  0  0  0  0  0  0  0  0  0  0
  188.9730  179.4020  138.6150 O   0  0  0  0  0  0  0  0  0  0  0  0
  192.3590  177.6610  141.7460 N   0  0  0  0  0  0  0  0  0  0  0  0
  191.0710  177.9120  142.1500 C   0  0  0  0  0  0  0  0  0  0  0  0
  191.6740  176.9390  139.5090 C   0  0  0  0  0  3  0  0  0  0  0  0
  192.6720  177.1950  140.4840 C   0  0  0  0  0  3  0  0  0  0  0  0
  190.0830  177.6770  141.2220 C   0  0  0  0  0  0  0  0  0  0  0  0
  190.3860  177.1970  139.9290 C   0  0  0  0  0  0  0  0  0  0  0  0
  188.6290  177.7010  140.8940 C   0  0  0  0  0  2  0  0  0  0  0  0
  188.9390  177.1900  139.5690 C   0  0  1  0  0  3  0  0  0  0  0  0
  191.9210  178.8320  144.1540 O   0  0  0  0  0  1  0  0  0  0  0  0
  190.7610  178.3650  143.5360 C   0  0  2  0  0  3  0  0  0  0  0  0
  190.2130  177.2460  144.3000 N   0  0  0  0  0  2  0  0  0  0  0  0
  189.2380  177.7030  145.2960 C   0  0  2  0  0  3  0  0  0  0  0  0
  189.6230  177.2790  146.6860 C   0  0  0  0  0  3  0  0  0  0  0  0
  191.9900  176.5290  147.2360 O   0  0  0  0  0  0  0  0  0  0  0  0
  190.8370  176.8940  146.9740 C   0  0  0  0  0  0  0  0  0  0  0  0
  187.8170  177.2810  144.9240 C   0  0  0  0  0  2  0  0  0  0  0  0
  186.6810  177.6850  146.2870 S   0  0  0  0  0  1  0  0  0  0  0  0
  1  4  1  6  0  0  0
  1 27  1  0  0  0  0
  2  3  2  0  0  0  0
  4  2  2  0  0  0  0
  5  8  2  0  0  0  0
  5  7  1  0  0  0  0
  6 10  1  0  0  0  0
  7  6  2  0  0  0  0
  8  9  1  0  0  0  0
  9  3  1  0  0  0  0
  9 10  2  0  0  0  0
 11  1  1  0  0  0  0
 11 13  1  0  0  0  0
 12 11  1  0  0  0  0
 12 13  1  0  0  0  0
 13 14  1  6  0  0  0
 14 15  1  0  0  0  0
 15 19  1  6  0  0  0
 17 16  1  6  0  0  0
 17 18  1  0  0  0  0
 17 15  1  0  0  0  0
 19 20  1  0  0  0  0
 20 21  1  0  0  0  0
 21 22  2  0  0  0  0
 23 21  1  0  0  0  0
 24 25  1  0  0  0  0
 25 23  2  0  0  0  0
 26 24  1  0  0  0  0
 26 25  1  0  0  0  0
 27 29  1  0  0  0  0
 28 27  2  0  0  0  0
 29 30  2  0  0  0  0
 31 32  1  0  0  0  0
 32 40  1  0  0  0  0
 33 36  2  0  0  0  0
 33 34  1  0  0  0  0
 34 31  2  0  0  0  0
 35 32  2  0  0  0  0
 36 35  1  0  0  0  0
 37 35  1  0  0  0  0
 38 29  1  6  0  0  0
 38 36  1  0  0  0  0
 38 37  1  0  0  0  0
 40 39  1  1  0  0  0
 40 41  1  0  0  0  0
 41 42  1  0  0  0  0
 42 46  1  6  0  0  0
 42 43  1  0  0  0  0
 43 45  2  0  0  0  0
 45 44  2  0  0  0  0
 46 47  1  0  0  0  0
M  END
>  <MODEL>
9

>  <REMARK>
 VINA RESULT:      -6.3      1.897      2.497
  Name = 
  17 active torsions:
  status: ('A' for Active; 'I' for Inactive)
    1  A    between atoms: C_1  and  C_17
    2  A    between atoms: C_1  and  C_23
    3  A    between atoms: C_1  and  N_25
    4  A    between atoms: C_5  and  C_46
    5  A    between atoms: C_7  and  C_19
    6  A    between atoms: N_8  and  C_37
    7  A    between atoms: C_9  and  C_34
    8  A    between atoms: N_11  and  C_34
    9  A    between atoms: N_11  and  C_46
   10  A    between atoms: N_12  and  C_18
   11  A    between atoms: C_13  and  C_35
   12  A    between atoms: C_18  and  C_19
   13  A    between atoms: C_19  and  N_38
   14  A    between atoms: C_23  and  C_28
   15  A    between atoms: C_28  and  C_40
   16  A    between atoms: C_29  and  C_46
   17  A    between atoms: N_38  and  C_47
                            x       y       z     vdW  Elec       q    Type
                         _______ _______ _______ _____ _____    ______ ____

>  <TORSDO>
F 17

$$$$
