=
 OpenBabel10232411223D

 37 39  0  0  1  0  0  0  0  0999 V2000
  182.5920  178.4280  140.6650 C   0  0  0  0  0  0  0  0  0  0  0  0
  185.3560  178.7200  141.0530 C   0  0  0  0  0  3  0  0  0  0  0  0
  184.8110  178.8880  139.7700 C   0  0  0  0  0  0  0  0  0  0  0  0
  183.1560  178.2620  141.9420 C   0  0  0  0  0  3  0  0  0  0  0  0
  183.4340  178.7420  139.5860 C   0  0  0  0  0  3  0  0  0  0  0  0
  184.5310  178.4070  142.1400 C   0  0  0  0  0  0  0  0  0  0  0  0
  181.1010  178.2760  140.4630 C   0  0  2  0  0  0  0  0  0  0  0  0
  179.9820  178.8370  138.4930 N   0  0  0  0  0  0  0  0  0  0  0  0
  180.7740  176.9730  139.7410 C   0  0  0  0  0  3  0  0  0  0  0  0
  180.0190  177.3860  138.4780 C   0  0  0  0  0  3  0  0  0  0  0  0
  180.5580  179.3090  139.5460 C   0  0  0  0  0  0  0  0  0  0  0  0
  180.4080  178.3190  141.6770 O   0  0  0  0  0  1  0  0  0  0  0  0
  180.6470  180.7120  139.8160 N   0  0  0  0  0  0  0  0  0  0  0  0
  180.7330  181.5820  138.8910 C   0  0  0  0  0  0  0  0  0  0  0  0
  180.8150  182.4290  137.9910 O   0  0  0  0  0  0  0  0  0  0  0  0
  185.6120  179.2020  138.6670 O   0  0  0  0  0  0  0  0  0  0  0  0
  186.2180  178.2160  137.8390 C   0  0  0  0  0  2  0  0  0  0  0  0
  188.3860  177.8060  137.8750 C   0  0  0  0  0  1  0  0  0  0  0  0
  187.4400  178.6900  137.3580 O   0  0  0  0  0  0  0  0  0  0  0  0
  185.0710  178.2300  143.4530 N   0  0  0  0  0  2  0  0  0  0  0  0
  183.2830  178.6450  144.8790 F   0  0  0  0  0  0  0  0  0  0  0  0
  184.6020  178.9710  144.6150 C   0  0  1  0  0  3  0  0  0  0  0  0
  185.3020  179.2880  146.8730 O   0  0  0  0  0  0  0  0  0  0  0  0
  186.4090  177.5940  145.7020 N   0  0  0  0  0  2  0  0  0  0  0  0
  185.4470  178.6450  145.7970 C   0  0  0  0  0  0  0  0  0  0  0  0
  187.3320  177.2720  146.7810 C   0  0  0  0  0  2  0  0  0  0  0  0
  190.8000  176.9160  146.0640 C   0  0  0  0  0  2  0  0  0  0  0  0
  188.6610  177.9840  146.5730 C   0  0  2  0  0  3  0  0  0  0  0  0
  189.4470  177.2730  145.4820 C   0  0  1  0  0  3  0  0  0  0  0  0
  190.5960  176.8940  147.5600 C   0  0  0  0  0  2  0  0  0  0  0  0
  189.5150  177.9170  147.8300 C   0  0  0  0  0  2  0  0  0  0  0  0
  189.5930  178.1460  144.2400 C   0  0  0  0  0  2  0  0  0  0  0  0
  189.0070  177.5330  143.1260 O   0  0  0  0  0  0  0  0  0  0  0  0
  190.0320  176.7770  140.8260 O   0  0  0  0  0  0  0  0  0  0  0  0
  191.7460  177.5280  142.6590 O   0  0  0  0  0  1  0  0  0  0  0  0
  190.2790  176.7560  142.3170 P   0  0  0  0  0  0  0  0  0  0  0  0
  190.3650  175.1510  142.8420 O   0  0  0  0  0  1  0  0  0  0  0  0
  1  4  1  0  0  0  0
  2  6  1  0  0  0  0
  3  2  2  0  0  0  0
  4  6  2  0  0  0  0
  5  3  1  0  0  0  0
  5  1  2  0  0  0  0
  6 20  1  0  0  0  0
  7  1  1  0  0  0  0
  7 12  1  1  0  0  0
  8 11  2  0  0  0  0
  9  7  1  0  0  0  0
 10  8  1  0  0  0  0
 10  9  2  0  0  0  0
 11 13  1  0  0  0  0
 11  7  1  0  0  0  0
 14 13  2  0  0  0  0
 15 14  2  0  0  0  0
 16  3  1  0  0  0  0
 17 16  1  0  0  0  0
 19 17  1  0  0  0  0
 19 18  1  0  0  0  0
 20 22  1  0  0  0  0
 22 21  1  1  0  0  0
 22 25  1  0  0  0  0
 24 25  1  0  0  0  0
 24 26  1  0  0  0  0
 25 23  2  0  0  0  0
 27 30  1  0  0  0  0
 28 26  1  1  0  0  0
 28 31  1  0  0  0  0
 29 32  1  6  0  0  0
 29 27  1  0  0  0  0
 29 28  1  0  0  0  0
 30 31  1  0  0  0  0
 33 32  1  0  0  0  0
 34 36  2  0  0  0  0
 36 35  1  0  0  0  0
 36 37  1  0  0  0  0
 36 33  1  0  0  0  0
M  END
>  <MODEL>
1

>  <REMARK>
 VINA RESULT:      -7.8      0.000      0.000
  Name = 
  13 active torsions:
  status: ('A' for Active; 'I' for Inactive)
    1  A    between atoms: C_2  and  C_4
    2  A    between atoms: O_8  and  C_25
    3  A    between atoms: O_8  and  P_30
    4  A    between atoms: C_9  and  C_28
    5  A    between atoms: N_11  and  C_28
    6  A    between atoms: O_13  and  C_15
    7  A    between atoms: O_13  and  C_36
    8  A    between atoms: C_16  and  C_25
    9  A    between atoms: N_20  and  C_23
   10  A    between atoms: N_20  and  C_37
   11  A    between atoms: C_21  and  N_27
   12  A    between atoms: C_23  and  C_32
   13  A    between atoms: O_24  and  C_36
                            x       y       z     vdW  Elec       q    Type
                         _______ _______ _______ _____ _____    ______ ____

>  <TORSDO>
F 13

$$$$
=
 OpenBabel10232411223D

 37 39  0  0  1  0  0  0  0  0999 V2000
  189.6370  177.3980  144.5630 C   0  0  0  0  0  0  0  0  0  0  0  0
  187.3200  177.4050  142.9800 C   0  0  0  0  0  3  0  0  0  0  0  0
  187.2080  177.4490  144.3780 C   0  0  0  0  0  0  0  0  0  0  0  0
  189.7300  177.3520  143.1620 C   0  0  0  0  0  3  0  0  0  0  0  0
  188.3670  177.4470  145.1590 C   0  0  0  0  0  3  0  0  0  0  0  0
  188.5790  177.3570  142.3690 C   0  0  0  0  0  0  0  0  0  0  0  0
  190.8890  177.4010  145.4120 C   0  0  2  0  0  0  0  0  0  0  0  0
  191.1110  176.2390  147.4240 N   0  0  0  0  0  0  0  0  0  0  0  0
  191.7460  176.1690  145.1330 C   0  0  0  0  0  3  0  0  0  0  0  0
  191.8870  175.4590  146.4790 C   0  0  0  0  0  3  0  0  0  0  0  0
  190.5790  177.2680  146.8570 C   0  0  0  0  0  0  0  0  0  0  0  0
  191.6530  178.5530  145.2020 O   0  0  0  0  0  1  0  0  0  0  0  0
  189.7750  178.2150  147.5690 N   0  0  0  0  0  0  0  0  0  0  0  0
  188.8380  177.8610  148.3550 C   0  0  0  0  0  0  0  0  0  0  0  0
  187.9280  177.5180  149.1210 O   0  0  0  0  0  0  0  0  0  0  0  0
  185.9640  177.4990  145.0150 O   0  0  0  0  0  0  0  0  0  0  0  0
  185.7370  178.2100  146.2270 C   0  0  0  0  0  2  0  0  0  0  0  0
  183.9070  178.8380  145.1660 C   0  0  0  0  0  1  0  0  0  0  0  0
  184.9310  179.3220  145.9790 O   0  0  0  0  0  0  0  0  0  0  0  0
  188.7110  177.3090  140.9460 N   0  0  0  0  0  2  0  0  0  0  0  0
  190.5870  176.0850  140.3300 F   0  0  0  0  0  0  0  0  0  0  0  0
  189.9950  177.3340  140.2610 C   0  0  1  0  0  3  0  0  0  0  0  0
  190.5510  177.2380  137.9440 O   0  0  0  0  0  0  0  0  0  0  0  0
  188.7560  178.6320  138.4940 N   0  0  0  0  0  2  0  0  0  0  0  0
  189.8020  177.7210  138.8360 C   0  0  0  0  0  0  0  0  0  0  0  0
  188.5570  179.1270  137.1400 C   0  0  0  0  0  2  0  0  0  0  0  0
  186.5570  176.1840  137.0510 C   0  0  0  0  0  2  0  0  0  0  0  0
  187.3910  178.4100  136.4770 C   0  0  2  0  0  3  0  0  0  0  0  0
  186.6230  177.6220  137.5280 C   0  0  1  0  0  3  0  0  0  0  0  0
  187.7110  176.0310  136.0890 C   0  0  0  0  0  2  0  0  0  0  0  0
  187.8850  177.3950  135.4570 C   0  0  0  0  0  2  0  0  0  0  0  0
  185.2270  178.1950  137.7460 C   0  0  0  0  0  2  0  0  0  0  0  0
  184.6650  177.7090  138.9320 O   0  0  0  0  0  0  0  0  0  0  0  0
  184.1000  180.2760  139.0150 O   0  0  0  0  0  0  0  0  0  0  0  0
  183.0700  178.8080  140.9240 O   0  0  0  0  0  1  0  0  0  0  0  0
  184.3840  179.0780  139.8930 P   0  0  0  0  0  0  0  0  0  0  0  0
  185.7610  179.3880  140.8230 O   0  0  0  0  0  1  0  0  0  0  0  0
  1  5  1  0  0  0  0
  1  7  1  0  0  0  0
  2  3  1  0  0  0  0
  3 16  1  0  0  0  0
  3  5  2  0  0  0  0
  4  1  2  0  0  0  0
  6  2  2  0  0  0  0
  6  4  1  0  0  0  0
  7 12  1  6  0  0  0
  7 11  1  0  0  0  0
  9  7  1  0  0  0  0
  9 10  2  0  0  0  0
 10  8  1  0  0  0  0
 11  8  2  0  0  0  0
 11 13  1  0  0  0  0
 13 14  2  0  0  0  0
 14 15  2  0  0  0  0
 16 17  1  0  0  0  0
 18 19  1  0  0  0  0
 19 17  1  0  0  0  0
 20  6  1  0  0  0  0
 22 21  1  6  0  0  0
 22 20  1  0  0  0  0
 23 25  2  0  0  0  0
 24 25  1  0  0  0  0
 25 22  1  0  0  0  0
 26 24  1  0  0  0  0
 27 29  1  0  0  0  0
 28 26  1  1  0  0  0
 28 29  1  0  0  0  0
 29 32  1  6  0  0  0
 30 27  1  0  0  0  0
 31 30  1  0  0  0  0
 31 28  1  0  0  0  0
 32 33  1  0  0  0  0
 33 36  1  0  0  0  0
 34 36  2  0  0  0  0
 36 37  1  0  0  0  0
 36 35  1  0  0  0  0
M  END
>  <MODEL>
2

>  <REMARK>
 VINA RESULT:      -7.6      4.049      9.551
  Name = 
  13 active torsions:
  status: ('A' for Active; 'I' for Inactive)
    1  A    between atoms: C_2  and  C_4
    2  A    between atoms: O_8  and  C_25
    3  A    between atoms: O_8  and  P_30
    4  A    between atoms: C_9  and  C_28
    5  A    between atoms: N_11  and  C_28
    6  A    between atoms: O_13  and  C_15
    7  A    between atoms: O_13  and  C_36
    8  A    between atoms: C_16  and  C_25
    9  A    between atoms: N_20  and  C_23
   10  A    between atoms: N_20  and  C_37
   11  A    between atoms: C_21  and  N_27
   12  A    between atoms: C_23  and  C_32
   13  A    between atoms: O_24  and  C_36
                            x       y       z     vdW  Elec       q    Type
                         _______ _______ _______ _____ _____    ______ ____

>  <TORSDO>
F 13

$$$$
=
 OpenBabel10232411223D

 37 39  0  0  1  0  0  0  0  0999 V2000
  188.9950  176.8040  137.5650 C   0  0  0  0  0  0  0  0  0  0  0  0
  191.2440  176.2570  139.1510 C   0  0  0  0  0  3  0  0  0  0  0  0
  191.2490  175.9080  137.7920 C   0  0  0  0  0  0  0  0  0  0  0  0
  189.0060  177.1440  138.9280 C   0  0  0  0  0  3  0  0  0  0  0  0
  190.1260  176.1860  137.0090 C   0  0  0  0  0  3  0  0  0  0  0  0
  190.1240  176.8740  139.7220 C   0  0  0  0  0  0  0  0  0  0  0  0
  187.7830  177.1080  136.7120 C   0  0  2  0  0  0  0  0  0  0  0  0
  185.5940  176.5550  137.3020 N   0  0  0  0  0  0  0  0  0  0  0  0
  187.0980  178.3930  137.1660 C   0  0  0  0  0  3  0  0  0  0  0  0
  185.6650  177.9890  137.5130 C   0  0  0  0  0  3  0  0  0  0  0  0
  186.7180  176.0870  136.8790 C   0  0  0  0  0  0  0  0  0  0  0  0
  188.1180  177.2160  135.3580 O   0  0  0  0  0  1  0  0  0  0  0  0
  186.9150  174.7020  136.5760 N   0  0  0  0  0  0  0  0  0  0  0  0
  186.4110  173.7690  137.2800 C   0  0  0  0  0  0  0  0  0  0  0  0
  185.9190  172.8620  137.9640 O   0  0  0  0  0  0  0  0  0  0  0  0
  192.3540  175.2920  137.1960 O   0  0  0  0  0  0  0  0  0  0  0  0
  193.5590  175.9840  136.8870 C   0  0  0  0  0  2  0  0  0  0  0  0
  194.5760  174.3160  137.9130 C   0  0  0  0  0  1  0  0  0  0  0  0
  194.5240  175.7080  137.8570 O   0  0  0  0  0  0  0  0  0  0  0  0
  190.1010  177.2330  141.1060 N   0  0  0  0  0  2  0  0  0  0  0  0
  192.2450  178.1170  141.2640 F   0  0  0  0  0  0  0  0  0  0  0  0
  191.3020  177.3460  141.9220 C   0  0  1  0  0  3  0  0  0  0  0  0
  191.6700  178.9190  143.6770 O   0  0  0  0  0  0  0  0  0  0  0  0
  189.8400  177.4910  143.9670 N   0  0  0  0  0  2  0  0  0  0  0  0
  190.9680  177.9700  143.2320 C   0  0  0  0  0  0  0  0  0  0  0  0
  189.4990  177.9870  145.2930 C   0  0  0  0  0  2  0  0  0  0  0  0
  186.3220  178.4800  146.8200 C   0  0  0  0  0  2  0  0  0  0  0  0
  188.2200  177.3320  145.7920 C   0  0  2  0  0  3  0  0  0  0  0  0
  187.0400  178.2490  145.5060 C   0  0  1  0  0  3  0  0  0  0  0  0
  187.3510  178.1990  147.8900 C   0  0  0  0  0  2  0  0  0  0  0  0
  188.2590  177.1420  147.3010 C   0  0  0  0  0  2  0  0  0  0  0  0
  186.1040  177.6460  144.4640 C   0  0  0  0  0  2  0  0  0  0  0  0
  186.5450  177.9370  143.1670 O   0  0  0  0  0  0  0  0  0  0  0  0
  185.8340  179.6480  141.3010 O   0  0  0  0  0  0  0  0  0  0  0  0
  184.0750  177.8020  141.8990 O   0  0  0  0  0  1  0  0  0  0  0  0
  185.2940  178.8360  142.4570 P   0  0  0  0  0  0  0  0  0  0  0  0
  184.6430  179.8820  143.6140 O   0  0  0  0  0  1  0  0  0  0  0  0
  1  4  1  0  0  0  0
  2  6  1  0  0  0  0
  3  2  2  0  0  0  0
  4  6  2  0  0  0  0
  5  1  2  0  0  0  0
  5  3  1  0  0  0  0
  6 20  1  0  0  0  0
  7 12  1  6  0  0  0
  7 11  1  0  0  0  0
  7  9  1  0  0  0  0
  7  1  1  0  0  0  0
  8 10  1  0  0  0  0
  9 10  2  0  0  0  0
 11  8  2  0  0  0  0
 13 11  1  0  0  0  0
 13 14  2  0  0  0  0
 14 15  2  0  0  0  0
 16  3  1  0  0  0  0
 17 16  1  0  0  0  0
 17 19  1  0  0  0  0
 19 18  1  0  0  0  0
 20 22  1  0  0  0  0
 22 21  1  6  0  0  0
 22 25  1  0  0  0  0
 24 26  1  0  0  0  0
 25 23  2  0  0  0  0
 25 24  1  0  0  0  0
 27 30  1  0  0  0  0
 28 26  1  1  0  0  0
 28 31  1  0  0  0  0
 29 32  1  6  0  0  0
 29 28  1  0  0  0  0
 29 27  1  0  0  0  0
 31 30  1  0  0  0  0
 33 32  1  0  0  0  0
 34 36  2  0  0  0  0
 35 36  1  0  0  0  0
 36 33  1  0  0  0  0
 36 37  1  0  0  0  0
M  END
>  <MODEL>
3

>  <REMARK>
 VINA RESULT:      -7.6      4.132      6.754
  Name = 
  13 active torsions:
  status: ('A' for Active; 'I' for Inactive)
    1  A    between atoms: C_2  and  C_4
    2  A    between atoms: O_8  and  C_25
    3  A    between atoms: O_8  and  P_30
    4  A    between atoms: C_9  and  C_28
    5  A    between atoms: N_11  and  C_28
    6  A    between atoms: O_13  and  C_15
    7  A    between atoms: O_13  and  C_36
    8  A    between atoms: C_16  and  C_25
    9  A    between atoms: N_20  and  C_23
   10  A    between atoms: N_20  and  C_37
   11  A    between atoms: C_21  and  N_27
   12  A    between atoms: C_23  and  C_32
   13  A    between atoms: O_24  and  C_36
                            x       y       z     vdW  Elec       q    Type
                         _______ _______ _______ _____ _____    ______ ____

>  <TORSDO>
F 13

$$$$
=
 OpenBabel10232411223D

 37 39  0  0  1  0  0  0  0  0999 V2000
  188.9150  177.8980  144.1940 C   0  0  0  0  0  0  0  0  0  0  0  0
  186.1970  177.7380  144.8750 C   0  0  0  0  0  3  0  0  0  0  0  0
  187.1680  177.7710  145.8880 C   0  0  0  0  0  0  0  0  0  0  0  0
  187.9290  177.8610  143.1930 C   0  0  0  0  0  3  0  0  0  0  0  0
  188.5190  177.8520  145.5410 C   0  0  0  0  0  3  0  0  0  0  0  0
  186.5750  177.7820  143.5270 C   0  0  0  0  0  0  0  0  0  0  0  0
  190.3780  177.9910  143.8220 C   0  0  2  0  0  0  0  0  0  0  0  0
  191.8350  176.1690  143.7690 N   0  0  0  0  0  0  0  0  0  0  0  0
  190.5970  177.6290  142.3570 C   0  0  0  0  0  3  0  0  0  0  0  0
  191.5760  176.4550  142.3700 C   0  0  0  0  0  3  0  0  0  0  0  0
  191.1970  176.9820  144.5390 C   0  0  0  0  0  0  0  0  0  0  0  0
  190.8920  179.2690  144.0650 O   0  0  0  0  0  1  0  0  0  0  0  0
  191.2900  176.9290  145.9670 N   0  0  0  0  0  0  0  0  0  0  0  0
  192.0120  176.0750  146.5740 C   0  0  0  0  0  0  0  0  0  0  0  0
  192.7160  175.2450  147.1650 O   0  0  0  0  0  0  0  0  0  0  0  0
  186.8190  177.7290  147.2420 O   0  0  0  0  0  0  0  0  0  0  0  0
  187.3930  178.5880  148.2210 C   0  0  0  0  0  2  0  0  0  0  0  0
  189.4920  178.2770  148.8290 C   0  0  0  0  0  1  0  0  0  0  0  0
  188.1920  177.8440  149.0910 O   0  0  0  0  0  0  0  0  0  0  0  0
  185.5980  177.7470  142.4830 N   0  0  0  0  0  2  0  0  0  0  0  0
  185.1660  180.0280  142.5920 F   0  0  0  0  0  0  0  0  0  0  0  0
  184.6140  178.7990  142.2740 C   0  0  1  0  0  3  0  0  0  0  0  0
  182.9410  178.6970  140.5760 O   0  0  0  0  0  0  0  0  0  0  0  0
  185.1400  178.9310  139.8140 N   0  0  0  0  0  2  0  0  0  0  0  0
  184.1680  178.8000  140.8530 C   0  0  0  0  0  0  0  0  0  0  0  0
  184.7950  178.8530  138.4020 C   0  0  0  0  0  2  0  0  0  0  0  0
  185.4100  176.9710  135.4440 C   0  0  0  0  0  2  0  0  0  0  0  0
  185.2380  177.5190  137.8200 C   0  0  2  0  0  3  0  0  0  0  0  0
  186.0560  177.7650  136.5610 C   0  0  1  0  0  3  0  0  0  0  0  0
  183.9820  176.7530  135.8850 C   0  0  0  0  0  2  0  0  0  0  0  0
  184.0380  176.6860  137.3950 C   0  0  0  0  0  2  0  0  0  0  0  0
  187.5140  177.3610  136.7540 C   0  0  0  0  0  2  0  0  0  0  0  0
  187.7780  177.0660  138.0970 O   0  0  0  0  0  0  0  0  0  0  0  0
  188.4530  178.8450  139.9120 O   0  0  0  0  0  1  0  0  0  0  0  0
  190.4260  177.5290  138.8010 O   0  0  0  0  0  1  0  0  0  0  0  0
  188.8990  178.2330  138.6030 P   0  0  0  0  0  0  0  0  0  0  0  0
  188.9990  179.4450  137.4300 O   0  0  0  0  0  0  0  0  0  0  0  0
  1  5  1  0  0  0  0
  2  3  1  0  0  0  0
  3 16  1  0  0  0  0
  4  6  1  0  0  0  0
  4  1  2  0  0  0  0
  5  3  2  0  0  0  0
  6  2  2  0  0  0  0
  7 12  1  1  0  0  0
  7  1  1  0  0  0  0
  7 11  1  0  0  0  0
  8 11  2  0  0  0  0
  9 10  2  0  0  0  0
  9  7  1  0  0  0  0
 10  8  1  0  0  0  0
 11 13  1  0  0  0  0
 13 14  2  0  0  0  0
 14 15  2  0  0  0  0
 16 17  1  0  0  0  0
 17 19  1  0  0  0  0
 18 19  1  0  0  0  0
 20  6  1  0  0  0  0
 22 20  1  0  0  0  0
 22 21  1  6  0  0  0
 23 25  2  0  0  0  0
 24 25  1  0  0  0  0
 25 22  1  0  0  0  0
 26 24  1  0  0  0  0
 27 30  1  0  0  0  0
 27 29  1  0  0  0  0
 28 26  1  6  0  0  0
 29 32  1  1  0  0  0
 29 28  1  0  0  0  0
 30 31  1  0  0  0  0
 31 28  1  0  0  0  0
 32 33  1  0  0  0  0
 33 36  1  0  0  0  0
 36 35  1  0  0  0  0
 36 34  1  0  0  0  0
 37 36  2  0  0  0  0
M  END
>  <MODEL>
4

>  <REMARK>
 VINA RESULT:      -7.5      2.817      9.194
  Name = 
  13 active torsions:
  status: ('A' for Active; 'I' for Inactive)
    1  A    between atoms: C_2  and  C_4
    2  A    between atoms: O_8  and  C_25
    3  A    between atoms: O_8  and  P_30
    4  A    between atoms: C_9  and  C_28
    5  A    between atoms: N_11  and  C_28
    6  A    between atoms: O_13  and  C_15
    7  A    between atoms: O_13  and  C_36
    8  A    between atoms: C_16  and  C_25
    9  A    between atoms: N_20  and  C_23
   10  A    between atoms: N_20  and  C_37
   11  A    between atoms: C_21  and  N_27
   12  A    between atoms: C_23  and  C_32
   13  A    between atoms: O_24  and  C_36
                            x       y       z     vdW  Elec       q    Type
                         _______ _______ _______ _____ _____    ______ ____

>  <TORSDO>
F 13

$$$$
=
 OpenBabel10232411223D

 37 39  0  0  1  0  0  0  0  0999 V2000
  188.0270  177.1900  145.8880 C   0  0  0  0  0  0  0  0  0  0  0  0
  187.2080  177.5340  143.2260 C   0  0  0  0  0  3  0  0  0  0  0  0
  186.3490  177.9030  144.2720 C   0  0  0  0  0  0  0  0  0  0  0  0
  188.8730  176.8230  144.8270 C   0  0  0  0  0  3  0  0  0  0  0  0
  186.7650  177.7300  145.5950 C   0  0  0  0  0  3  0  0  0  0  0  0
  188.4710  176.9940  143.5010 C   0  0  0  0  0  0  0  0  0  0  0  0
  188.4760  177.0090  147.3210 C   0  0  2  0  0  0  0  0  0  0  0  0
  190.1850  178.2410  148.3250 N   0  0  0  0  0  0  0  0  0  0  0  0
  187.8170  178.0350  148.2380 C   0  0  0  0  0  3  0  0  0  0  0  0
  188.9700  178.7950  148.8930 C   0  0  0  0  0  3  0  0  0  0  0  0
  189.9220  177.2940  147.4900 C   0  0  0  0  0  0  0  0  0  0  0  0
  188.1960  175.7220  147.7910 O   0  0  0  0  0  1  0  0  0  0  0  0
  190.9440  176.5670  146.7980 N   0  0  0  0  0  0  0  0  0  0  0  0
  192.0000  176.1540  147.3770 C   0  0  0  0  0  0  0  0  0  0  0  0
  193.0260  175.7510  147.9390 O   0  0  0  0  0  0  0  0  0  0  0  0
  185.0830  178.4470  144.0270 O   0  0  0  0  0  0  0  0  0  0  0  0
  184.5290  179.5080  144.7960 C   0  0  0  0  0  2  0  0  0  0  0  0
  182.5510  178.7750  144.1490 C   0  0  0  0  0  1  0  0  0  0  0  0
  183.2770  179.1330  145.2840 O   0  0  0  0  0  0  0  0  0  0  0  0
  189.3570  176.6100  142.4460 N   0  0  0  0  0  2  0  0  0  0  0  0
  191.6020  176.2840  142.9510 F   0  0  0  0  0  0  0  0  0  0  0  0
  190.7110  177.1290  142.3120 C   0  0  1  0  0  3  0  0  0  0  0  0
  192.2210  177.6320  140.5360 O   0  0  0  0  0  0  0  0  0  0  0  0
  190.1020  176.8920  139.8800 N   0  0  0  0  0  2  0  0  0  0  0  0
  191.0690  177.2420  140.8710 C   0  0  0  0  0  0  0  0  0  0  0  0
  190.3430  177.0580  138.4540 C   0  0  0  0  0  2  0  0  0  0  0  0
  187.1870  176.9530  136.8110 C   0  0  0  0  0  2  0  0  0  0  0  0
  189.2220  177.8640  137.8150 C   0  0  2  0  0  3  0  0  0  0  0  0
  187.8870  177.2070  138.1310 C   0  0  1  0  0  3  0  0  0  0  0  0
  188.2880  176.9240  135.7770 C   0  0  0  0  0  2  0  0  0  0  0  0
  189.3500  177.8670  136.2990 C   0  0  0  0  0  2  0  0  0  0  0  0
  187.0370  178.0810  139.0470 C   0  0  0  0  0  2  0  0  0  0  0  0
  186.0280  178.7290  138.3260 O   0  0  0  0  0  0  0  0  0  0  0  0
  183.8900  177.9330  139.6350 O   0  0  0  0  0  1  0  0  0  0  0  0
  185.5380  179.4810  140.9570 O   0  0  0  0  0  1  0  0  0  0  0  0
  184.8300  179.1060  139.4660 P   0  0  0  0  0  0  0  0  0  0  0  0
  183.9530  180.4440  138.9200 O   0  0  0  0  0  0  0  0  0  0  0  0
  1  7  1  0  0  0  0
  2  6  2  0  0  0  0
  2  3  1  0  0  0  0
  3  5  2  0  0  0  0
  4  1  2  0  0  0  0
  5  1  1  0  0  0  0
  6  4  1  0  0  0  0
  7 11  1  0  0  0  0
  7 12  1  1  0  0  0
  7  9  1  0  0  0  0
  8 10  1  0  0  0  0
  9 10  2  0  0  0  0
 11  8  2  0  0  0  0
 13 14  2  0  0  0  0
 13 11  1  0  0  0  0
 14 15  2  0  0  0  0
 16  3  1  0  0  0  0
 16 17  1  0  0  0  0
 17 19  1  0  0  0  0
 18 19  1  0  0  0  0
 20  6  1  0  0  0  0
 22 20  1  0  0  0  0
 22 21  1  1  0  0  0
 23 25  2  0  0  0  0
 24 25  1  0  0  0  0
 25 22  1  0  0  0  0
 26 24  1  0  0  0  0
 27 29  1  0  0  0  0
 28 29  1  0  0  0  0
 28 26  1  1  0  0  0
 29 32  1  1  0  0  0
 30 31  1  0  0  0  0
 30 27  1  0  0  0  0
 31 28  1  0  0  0  0
 33 32  1  0  0  0  0
 33 36  1  0  0  0  0
 36 34  1  0  0  0  0
 36 35  1  0  0  0  0
 37 36  2  0  0  0  0
M  END
>  <MODEL>
5

>  <REMARK>
 VINA RESULT:      -7.5      4.259      9.330
  Name = 
  13 active torsions:
  status: ('A' for Active; 'I' for Inactive)
    1  A    between atoms: C_2  and  C_4
    2  A    between atoms: O_8  and  C_25
    3  A    between atoms: O_8  and  P_30
    4  A    between atoms: C_9  and  C_28
    5  A    between atoms: N_11  and  C_28
    6  A    between atoms: O_13  and  C_15
    7  A    between atoms: O_13  and  C_36
    8  A    between atoms: C_16  and  C_25
    9  A    between atoms: N_20  and  C_23
   10  A    between atoms: N_20  and  C_37
   11  A    between atoms: C_21  and  N_27
   12  A    between atoms: C_23  and  C_32
   13  A    between atoms: O_24  and  C_36
                            x       y       z     vdW  Elec       q    Type
                         _______ _______ _______ _____ _____    ______ ____

>  <TORSDO>
F 13

$$$$
=
 OpenBabel10232411223D

 37 39  0  0  1  0  0  0  0  0999 V2000
  184.0350  178.6250  139.2550 C   0  0  0  0  0  0  0  0  0  0  0  0
  186.4360  178.7130  140.7050 C   0  0  0  0  0  3  0  0  0  0  0  0
  186.4380  178.2430  139.3830 C   0  0  0  0  0  0  0  0  0  0  0  0
  184.0520  179.0910  140.5810 C   0  0  0  0  0  3  0  0  0  0  0  0
  185.2380  178.2030  138.6670 C   0  0  0  0  0  3  0  0  0  0  0  0
  185.2450  179.1380  141.3060 C   0  0  0  0  0  0  0  0  0  0  0  0
  182.7390  178.5850  138.4760 C   0  0  2  0  0  0  0  0  0  0  0  0
  180.6260  178.4200  139.4530 N   0  0  0  0  0  0  0  0  0  0  0  0
  182.0970  179.9670  138.4050 C   0  0  0  0  0  3  0  0  0  0  0  0
  180.7110  179.8040  139.0270 C   0  0  0  0  0  3  0  0  0  0  0  0
  181.7040  177.7740  139.1620 C   0  0  0  0  0  0  0  0  0  0  0  0
  182.9310  178.0970  137.1790 O   0  0  0  0  0  1  0  0  0  0  0  0
  181.8770  176.3840  139.4600 N   0  0  0  0  0  0  0  0  0  0  0  0
  181.5130  175.4630  138.6600 C   0  0  0  0  0  0  0  0  0  0  0  0
  181.1600  174.5670  137.8810 O   0  0  0  0  0  0  0  0  0  0  0  0
  187.6130  177.8140  138.7570 O   0  0  0  0  0  0  0  0  0  0  0  0
  188.7470  177.3380  139.4730 C   0  0  0  0  0  2  0  0  0  0  0  0
  190.8500  176.9150  138.9530 C   0  0  0  0  0  1  0  0  0  0  0  0
  189.9050  177.9400  138.9770 O   0  0  0  0  0  0  0  0  0  0  0  0
  185.2260  179.6180  142.6530 N   0  0  0  0  0  2  0  0  0  0  0  0
  183.2380  178.4640  143.0020 F   0  0  0  0  0  0  0  0  0  0  0  0
  184.1600  179.3090  143.5960 C   0  0  1  0  0  3  0  0  0  0  0  0
  184.1990  178.8560  145.9370 O   0  0  0  0  0  0  0  0  0  0  0  0
  185.8680  177.8080  144.6790 N   0  0  0  0  0  2  0  0  0  0  0  0
  184.7290  178.6600  144.8100 C   0  0  0  0  0  0  0  0  0  0  0  0
  186.5350  177.2080  145.8250 C   0  0  0  0  0  2  0  0  0  0  0  0
  189.5250  177.4480  147.7430 C   0  0  0  0  0  2  0  0  0  0  0  0
  187.6450  178.1170  146.3290 C   0  0  2  0  0  3  0  0  0  0  0  0
  188.9590  177.3510  146.3400 C   0  0  1  0  0  3  0  0  0  0  0  0
  188.3380  177.7450  148.6290 C   0  0  0  0  0  2  0  0  0  0  0  0
  187.3870  178.5450  147.7660 C   0  0  0  0  0  2  0  0  0  0  0  0
  189.9380  177.9060  145.3100 C   0  0  0  0  0  2  0  0  0  0  0  0
  190.8100  176.9090  144.8590 O   0  0  0  0  0  0  0  0  0  0  0  0
  190.1700  175.4020  142.8010 O   0  0  0  0  0  1  0  0  0  0  0  0
  189.3330  177.8820  142.7160 O   0  0  0  0  0  1  0  0  0  0  0  0
  190.5580  176.8120  143.1850 P   0  0  0  0  0  0  0  0  0  0  0  0
  191.9890  177.2300  142.3890 O   0  0  0  0  0  0  0  0  0  0  0  0
  1  4  1  0  0  0  0
  2  6  1  0  0  0  0
  3  2  2  0  0  0  0
  4  6  2  0  0  0  0
  5  1  2  0  0  0  0
  5  3  1  0  0  0  0
  6 20  1  0  0  0  0
  7 12  1  6  0  0  0
  7 11  1  0  0  0  0
  7  1  1  0  0  0  0
  9  7  1  0  0  0  0
  9 10  2  0  0  0  0
 10  8  1  0  0  0  0
 11  8  2  0  0  0  0
 11 13  1  0  0  0  0
 14 13  2  0  0  0  0
 15 14  2  0  0  0  0
 16  3  1  0  0  0  0
 16 17  1  0  0  0  0
 18 19  1  0  0  0  0
 19 17  1  0  0  0  0
 20 22  1  0  0  0  0
 22 21  1  6  0  0  0
 22 25  1  0  0  0  0
 24 25  1  0  0  0  0
 24 26  1  0  0  0  0
 25 23  2  0  0  0  0
 27 30  1  0  0  0  0
 28 26  1  1  0  0  0
 28 29  1  0  0  0  0
 28 31  1  0  0  0  0
 29 32  1  6  0  0  0
 29 27  1  0  0  0  0
 31 30  1  0  0  0  0
 33 32  1  0  0  0  0
 34 36  1  0  0  0  0
 35 36  1  0  0  0  0
 36 33  1  0  0  0  0
 37 36  2  0  0  0  0
M  END
>  <MODEL>
6

>  <REMARK>
 VINA RESULT:      -7.4      1.781      2.800
  Name = 
  13 active torsions:
  status: ('A' for Active; 'I' for Inactive)
    1  A    between atoms: C_2  and  C_4
    2  A    between atoms: O_8  and  C_25
    3  A    between atoms: O_8  and  P_30
    4  A    between atoms: C_9  and  C_28
    5  A    between atoms: N_11  and  C_28
    6  A    between atoms: O_13  and  C_15
    7  A    between atoms: O_13  and  C_36
    8  A    between atoms: C_16  and  C_25
    9  A    between atoms: N_20  and  C_23
   10  A    between atoms: N_20  and  C_37
   11  A    between atoms: C_21  and  N_27
   12  A    between atoms: C_23  and  C_32
   13  A    between atoms: O_24  and  C_36
                            x       y       z     vdW  Elec       q    Type
                         _______ _______ _______ _____ _____    ______ ____

>  <TORSDO>
F 13

$$$$
=
 OpenBabel10232411223D

 37 39  0  0  1  0  0  0  0  0999 V2000
  187.1360  177.7570  143.0940 C   0  0  0  0  0  0  0  0  0  0  0  0
  184.6500  179.0150  142.7570 C   0  0  0  0  0  3  0  0  0  0  0  0
  184.9790  178.4420  143.9960 C   0  0  0  0  0  0  0  0  0  0  0  0
  186.7890  178.3340  141.8600 C   0  0  0  0  0  3  0  0  0  0  0  0
  186.2190  177.8190  144.1550 C   0  0  0  0  0  3  0  0  0  0  0  0
  185.5530  178.9620  141.6880 C   0  0  0  0  0  0  0  0  0  0  0  0
  188.4800  177.0860  143.2720 C   0  0  2  0  0  0  0  0  0  0  0  0
  190.5310  178.1670  143.0030 N   0  0  0  0  0  0  0  0  0  0  0  0
  189.0430  177.3440  144.6670 C   0  0  0  0  0  3  0  0  0  0  0  0
  190.3940  178.0240  144.4400 C   0  0  0  0  0  3  0  0  0  0  0  0
  189.5140  177.6710  142.3830 C   0  0  0  0  0  0  0  0  0  0  0  0
  188.4020  175.7070  143.0540 O   0  0  0  0  0  1  0  0  0  0  0  0
  189.4040  177.6670  140.9560 N   0  0  0  0  0  0  0  0  0  0  0  0
  190.0870  176.8860  140.2190 C   0  0  0  0  0  0  0  0  0  0  0  0
  190.7500  176.1250  139.5020 O   0  0  0  0  0  0  0  0  0  0  0  0
  184.0970  178.4810  145.0810 O   0  0  0  0  0  0  0  0  0  0  0  0
  184.5290  178.4530  146.4360 C   0  0  0  0  0  2  0  0  0  0  0  0
  186.3630  178.8650  147.5930 C   0  0  0  0  0  1  0  0  0  0  0  0
  185.5120  179.4230  146.6390 O   0  0  0  0  0  0  0  0  0  0  0  0
  185.2330  179.5380  140.4190 N   0  0  0  0  0  2  0  0  0  0  0  0
  183.5970  180.2700  138.9380 F   0  0  0  0  0  0  0  0  0  0  0  0
  184.0500  179.1740  139.6520 C   0  0  1  0  0  3  0  0  0  0  0  0
  183.5080  177.1900  138.4440 O   0  0  0  0  0  0  0  0  0  0  0  0
  185.6750  178.0060  138.1230 N   0  0  0  0  0  2  0  0  0  0  0  0
  184.3770  178.0630  138.7160 C   0  0  0  0  0  0  0  0  0  0  0  0
  186.1010  176.9080  137.2670 C   0  0  0  0  0  2  0  0  0  0  0  0
  189.5440  177.4740  136.5650 C   0  0  0  0  0  2  0  0  0  0  0  0
  187.1220  177.3930  136.2490 C   0  0  2  0  0  3  0  0  0  0  0  0
  188.3750  176.5360  136.3440 C   0  0  1  0  0  3  0  0  0  0  0  0
  188.9410  178.7310  137.1470 C   0  0  0  0  0  2  0  0  0  0  0  0
  187.5540  178.8200  136.5500 C   0  0  0  0  0  2  0  0  0  0  0  0
  188.5730  175.6940  135.0880 C   0  0  0  0  0  2  0  0  0  0  0  0
  188.3080  174.3440  135.3440 O   0  0  0  0  0  0  0  0  0  0  0  0
  190.9150  174.4550  135.0200 O   0  0  0  0  0  0  0  0  0  0  0  0
  190.0800  173.5610  137.3360 O   0  0  0  0  0  1  0  0  0  0  0  0
  189.8170  173.6400  135.6660 P   0  0  0  0  0  0  0  0  0  0  0  0
  189.8410  172.0750  135.0290 O   0  0  0  0  0  1  0  0  0  0  0  0
  1  7  1  0  0  0  0
  1  5  1  0  0  0  0
  2  3  1  0  0  0  0
  3  5  2  0  0  0  0
  3 16  1  0  0  0  0
  4  1  2  0  0  0  0
  6  4  1  0  0  0  0
  6  2  2  0  0  0  0
  7 12  1  6  0  0  0
  7  9  1  0  0  0  0
  8 10  1  0  0  0  0
 10  9  2  0  0  0  0
 11  8  2  0  0  0  0
 11  7  1  0  0  0  0
 13 11  1  0  0  0  0
 14 13  2  0  0  0  0
 15 14  2  0  0  0  0
 16 17  1  0  0  0  0
 17 19  1  0  0  0  0
 19 18  1  0  0  0  0
 20  6  1  0  0  0  0
 22 21  1  6  0  0  0
 22 20  1  0  0  0  0
 23 25  2  0  0  0  0
 24 25  1  0  0  0  0
 25 22  1  0  0  0  0
 26 24  1  0  0  0  0
 27 30  1  0  0  0  0
 28 29  1  0  0  0  0
 28 31  1  0  0  0  0
 28 26  1  1  0  0  0
 29 32  1  6  0  0  0
 29 27  1  0  0  0  0
 31 30  1  0  0  0  0
 32 33  1  0  0  0  0
 33 36  1  0  0  0  0
 34 36  2  0  0  0  0
 36 35  1  0  0  0  0
 37 36  1  0  0  0  0
M  END
>  <MODEL>
7

>  <REMARK>
 VINA RESULT:      -7.3      3.349      8.383
  Name = 
  13 active torsions:
  status: ('A' for Active; 'I' for Inactive)
    1  A    between atoms: C_2  and  C_4
    2  A    between atoms: O_8  and  C_25
    3  A    between atoms: O_8  and  P_30
    4  A    between atoms: C_9  and  C_28
    5  A    between atoms: N_11  and  C_28
    6  A    between atoms: O_13  and  C_15
    7  A    between atoms: O_13  and  C_36
    8  A    between atoms: C_16  and  C_25
    9  A    between atoms: N_20  and  C_23
   10  A    between atoms: N_20  and  C_37
   11  A    between atoms: C_21  and  N_27
   12  A    between atoms: C_23  and  C_32
   13  A    between atoms: O_24  and  C_36
                            x       y       z     vdW  Elec       q    Type
                         _______ _______ _______ _____ _____    ______ ____

>  <TORSDO>
F 13

$$$$
=
 OpenBabel10232411223D

 37 39  0  0  1  0  0  0  0  0999 V2000
  188.6740  177.2610  142.8630 C   0  0  0  0  0  0  0  0  0  0  0  0
  186.1560  178.3140  142.2130 C   0  0  0  0  0  3  0  0  0  0  0  0
  186.3870  177.8070  143.5010 C   0  0  0  0  0  0  0  0  0  0  0  0
  188.4240  177.7700  141.5780 C   0  0  0  0  0  3  0  0  0  0  0  0
  187.6440  177.2860  143.8170 C   0  0  0  0  0  3  0  0  0  0  0  0
  187.1720  178.2970  141.2490 C   0  0  0  0  0  0  0  0  0  0  0  0
  190.0350  176.7000  143.2110 C   0  0  2  0  0  0  0  0  0  0  0  0
  191.9680  177.9890  143.4280 N   0  0  0  0  0  0  0  0  0  0  0  0
  190.3220  176.8390  144.7030 C   0  0  0  0  0  3  0  0  0  0  0  0
  191.6070  177.6620  144.7940 C   0  0  0  0  0  3  0  0  0  0  0  0
  191.1320  177.4800  142.5880 C   0  0  0  0  0  0  0  0  0  0  0  0
  190.1500  175.3560  142.8420 O   0  0  0  0  0  1  0  0  0  0  0  0
  191.2650  177.6390  141.1710 N   0  0  0  0  0  0  0  0  0  0  0  0
  192.3700  177.4620  140.5640 C   0  0  0  0  0  0  0  0  0  0  0  0
  193.4440  177.2880  139.9730 O   0  0  0  0  0  0  0  0  0  0  0  0
  185.3900  177.8130  144.4820 O   0  0  0  0  0  0  0  0  0  0  0  0
  184.5240  178.9200  144.7050 C   0  0  0  0  0  2  0  0  0  0  0  0
  185.1500  178.4130  146.7600 C   0  0  0  0  0  1  0  0  0  0  0  0
  184.7970  179.4910  145.9480 O   0  0  0  0  0  0  0  0  0  0  0  0
  186.9530  178.8070  139.9320 N   0  0  0  0  0  2  0  0  0  0  0  0
  185.9700  178.3660  137.8720 F   0  0  0  0  0  0  0  0  0  0  0  0
  186.9760  177.9730  138.7380 C   0  0  1  0  0  3  0  0  0  0  0  0
  188.6090  179.1630  137.4700 O   0  0  0  0  0  0  0  0  0  0  0  0
  189.2070  176.9930  138.1050 N   0  0  0  0  0  2  0  0  0  0  0  0
  188.2970  178.0940  138.0620 C   0  0  0  0  0  0  0  0  0  0  0  0
  190.4800  176.9990  137.3970 C   0  0  0  0  0  2  0  0  0  0  0  0
  191.9160  174.2150  135.7060 C   0  0  0  0  0  2  0  0  0  0  0  0
  191.1720  175.6510  137.5390 C   0  0  2  0  0  3  0  0  0  0  0  0
  192.2170  175.5040  136.4440 C   0  0  1  0  0  3  0  0  0  0  0  0
  190.4560  173.9360  135.9720 C   0  0  0  0  0  2  0  0  0  0  0  0
  190.1850  174.5100  137.3460 C   0  0  0  0  0  2  0  0  0  0  0  0
  193.6300  175.4940  137.0180 C   0  0  0  0  0  2  0  0  0  0  0  0
  193.7390  174.5730  138.0650 O   0  0  0  0  0  0  0  0  0  0  0  0
  195.5290  173.5170  136.4540 O   0  0  0  0  0  0  0  0  0  0  0  0
  196.4660  174.9690  138.4230 O   0  0  0  0  0  1  0  0  0  0  0  0
  195.2790  173.8820  137.9000 P   0  0  0  0  0  0  0  0  0  0  0  0
  195.3580  172.4830  138.8460 O   0  0  0  0  0  1  0  0  0  0  0  0
  1  7  1  0  0  0  0
  1  5  1  0  0  0  0
  2  3  1  0  0  0  0
  3  5  2  0  0  0  0
  3 16  1  0  0  0  0
  4  1  2  0  0  0  0
  6  4  1  0  0  0  0
  6  2  2  0  0  0  0
  7 12  1  6  0  0  0
  7  9  1  0  0  0  0
  8 10  1  0  0  0  0
  9 10  2  0  0  0  0
 11  7  1  0  0  0  0
 11  8  2  0  0  0  0
 13 11  1  0  0  0  0
 14 13  2  0  0  0  0
 15 14  2  0  0  0  0
 16 17  1  0  0  0  0
 17 19  1  0  0  0  0
 19 18  1  0  0  0  0
 20  6  1  0  0  0  0
 22 21  1  6  0  0  0
 22 20  1  0  0  0  0
 23 25  2  0  0  0  0
 25 24  1  0  0  0  0
 25 22  1  0  0  0  0
 26 24  1  0  0  0  0
 27 30  1  0  0  0  0
 27 29  1  0  0  0  0
 28 26  1  6  0  0  0
 29 32  1  1  0  0  0
 29 28  1  0  0  0  0
 30 31  1  0  0  0  0
 31 28  1  0  0  0  0
 32 33  1  0  0  0  0
 34 36  2  0  0  0  0
 36 33  1  0  0  0  0
 36 35  1  0  0  0  0
 36 37  1  0  0  0  0
M  END
>  <MODEL>
8

>  <REMARK>
 VINA RESULT:      -7.3      4.314      8.994
  Name = 
  13 active torsions:
  status: ('A' for Active; 'I' for Inactive)
    1  A    between atoms: C_2  and  C_4
    2  A    between atoms: O_8  and  C_25
    3  A    between atoms: O_8  and  P_30
    4  A    between atoms: C_9  and  C_28
    5  A    between atoms: N_11  and  C_28
    6  A    between atoms: O_13  and  C_15
    7  A    between atoms: O_13  and  C_36
    8  A    between atoms: C_16  and  C_25
    9  A    between atoms: N_20  and  C_23
   10  A    between atoms: N_20  and  C_37
   11  A    between atoms: C_21  and  N_27
   12  A    between atoms: C_23  and  C_32
   13  A    between atoms: O_24  and  C_36
                            x       y       z     vdW  Elec       q    Type
                         _______ _______ _______ _____ _____    ______ ____

>  <TORSDO>
F 13

$$$$
=
 OpenBabel10232411223D

 37 39  0  0  1  0  0  0  0  0999 V2000
  184.4510  177.7060  137.6480 C   0  0  0  0  0  0  0  0  0  0  0  0
  183.1870  179.3130  139.5700 C   0  0  0  0  0  3  0  0  0  0  0  0
  182.4730  178.8880  138.4390 C   0  0  0  0  0  0  0  0  0  0  0  0
  185.1510  178.1430  138.7860 C   0  0  0  0  0  3  0  0  0  0  0  0
  183.1090  178.0870  137.4880 C   0  0  0  0  0  3  0  0  0  0  0  0
  184.5260  178.9420  139.7460 C   0  0  0  0  0  0  0  0  0  0  0  0
  185.1350  176.8350  136.6180 C   0  0  2  0  0  0  0  0  0  0  0  0
  187.3510  176.1210  136.7680 N   0  0  0  0  0  0  0  0  0  0  0  0
  185.1110  175.3680  137.0350 C   0  0  0  0  0  3  0  0  0  0  0  0
  186.5770  174.9380  137.0920 C   0  0  0  0  0  3  0  0  0  0  0  0
  186.5860  177.1280  136.5180 C   0  0  0  0  0  0  0  0  0  0  0  0
  184.5440  176.9660  135.3570 O   0  0  0  0  0  1  0  0  0  0  0  0
  187.0950  178.4160  136.1560 N   0  0  0  0  0  0  0  0  0  0  0  0
  188.0480  178.9770  136.7860 C   0  0  0  0  0  0  0  0  0  0  0  0
  188.9770  179.5220  137.3970 O   0  0  0  0  0  0  0  0  0  0  0  0
  181.1350  179.2430  138.2390 O   0  0  0  0  0  0  0  0  0  0  0  0
  180.6710  179.9030  137.0670 C   0  0  0  0  0  2  0  0  0  0  0  0
  180.5980  181.7670  135.8870 C   0  0  0  0  0  1  0  0  0  0  0  0
  181.1010  181.2310  137.0720 O   0  0  0  0  0  0  0  0  0  0  0  0
  185.2690  179.3690  140.8910 N   0  0  0  0  0  2  0  0  0  0  0  0
  183.6060  178.4890  142.2560 F   0  0  0  0  0  0  0  0  0  0  0  0
  184.8150  179.1620  142.2590 C   0  0  1  0  0  3  0  0  0  0  0  0
  186.8950  178.0090  142.4490 O   0  0  0  0  0  0  0  0  0  0  0  0
  185.5830  178.0490  144.3840 N   0  0  0  0  0  2  0  0  0  0  0  0
  185.8280  178.3730  143.0140 C   0  0  0  0  0  0  0  0  0  0  0  0
  186.4800  177.2090  145.1650 C   0  0  0  0  0  2  0  0  0  0  0  0
  189.2790  177.2420  147.3630 C   0  0  0  0  0  2  0  0  0  0  0  0
  187.5230  178.0610  145.8720 C   0  0  2  0  0  3  0  0  0  0  0  0
  188.8440  177.3070  145.9130 C   0  0  1  0  0  3  0  0  0  0  0  0
  188.0130  177.4250  148.1660 C   0  0  0  0  0  2  0  0  0  0  0  0
  187.1290  178.3140  147.3190 C   0  0  0  0  0  2  0  0  0  0  0  0
  189.9020  177.9870  145.0490 C   0  0  0  0  0  2  0  0  0  0  0  0
  191.1300  177.3230  145.1470 O   0  0  0  0  0  0  0  0  0  0  0  0
  192.0620  175.1480  143.9990 O   0  0  0  0  0  1  0  0  0  0  0  0
  189.7180  175.9730  143.1700 O   0  0  0  0  0  1  0  0  0  0  0  0
  191.2580  176.4000  143.7300 P   0  0  0  0  0  0  0  0  0  0  0  0
  192.0410  177.3170  142.5450 O   0  0  0  0  0  0  0  0  0  0  0  0
  1  4  1  0  0  0  0
  2  6  1  0  0  0  0
  3  2  2  0  0  0  0
  4  6  2  0  0  0  0
  5  1  2  0  0  0  0
  5  3  1  0  0  0  0
  6 20  1  0  0  0  0
  7 12  1  6  0  0  0
  7  9  1  0  0  0  0
  7  1  1  0  0  0  0
  8 10  1  0  0  0  0
  9 10  2  0  0  0  0
 11  7  1  0  0  0  0
 11  8  2  0  0  0  0
 13 11  1  0  0  0  0
 13 14  2  0  0  0  0
 14 15  2  0  0  0  0
 16  3  1  0  0  0  0
 17 19  1  0  0  0  0
 17 16  1  0  0  0  0
 18 19  1  0  0  0  0
 20 22  1  0  0  0  0
 22 21  1  6  0  0  0
 22 25  1  0  0  0  0
 23 25  2  0  0  0  0
 24 26  1  0  0  0  0
 25 24  1  0  0  0  0
 27 30  1  0  0  0  0
 28 26  1  1  0  0  0
 28 29  1  0  0  0  0
 28 31  1  0  0  0  0
 29 32  1  6  0  0  0
 29 27  1  0  0  0  0
 31 30  1  0  0  0  0
 32 33  1  0  0  0  0
 35 36  1  0  0  0  0
 36 34  1  0  0  0  0
 36 33  1  0  0  0  0
 37 36  2  0  0  0  0
M  END
>  <MODEL>
9

>  <REMARK>
 VINA RESULT:      -7.3      2.608      4.772
  Name = 
  13 active torsions:
  status: ('A' for Active; 'I' for Inactive)
    1  A    between atoms: C_2  and  C_4
    2  A    between atoms: O_8  and  C_25
    3  A    between atoms: O_8  and  P_30
    4  A    between atoms: C_9  and  C_28
    5  A    between atoms: N_11  and  C_28
    6  A    between atoms: O_13  and  C_15
    7  A    between atoms: O_13  and  C_36
    8  A    between atoms: C_16  and  C_25
    9  A    between atoms: N_20  and  C_23
   10  A    between atoms: N_20  and  C_37
   11  A    between atoms: C_21  and  N_27
   12  A    between atoms: C_23  and  C_32
   13  A    between atoms: O_24  and  C_36
                            x       y       z     vdW  Elec       q    Type
                         _______ _______ _______ _____ _____    ______ ____

>  <TORSDO>
F 13

$$$$
