=
 OpenBabel10222421533D

 54 57  0  0  1  0  0  0  0  0999 V2000
  186.1830  178.0450  138.5200 N   0  0  0  0  0  0  0  0  0  0  0  0
  186.8290  177.8690  137.2170 C   0  0  1  0  0  3  0  0  0  0  0  0
  187.0270  175.3380  137.1300 N   0  0  0  0  0  0  0  0  0  0  0  0
  189.2640  178.0100  136.8180 N   0  0  0  0  0  0  0  0  0  0  0  0
  188.0500  178.8380  137.0120 C   0  0  0  0  0  3  0  0  0  0  0  0
  189.3940  175.4940  136.7370 C   0  0  0  0  0  0  0  0  0  0  0  0
  188.2380  174.5950  136.8780 C   0  0  0  0  0  0  0  0  0  0  0  0
  187.4740  176.5480  137.1410 C   0  0  1  0  0  3  0  0  0  0  0  0
  188.2890  173.3040  136.8790 N   0  0  0  0  0  1  0  0  0  0  0  0
  188.8350  176.6710  136.9220 C   0  0  0  0  0  0  0  0  0  0  0  0
  191.5650  174.3580  137.2870 N   0  0  0  0  0  2  0  0  0  0  0  0
  190.7890  175.1830  136.4100 C   0  0  0  0  0  0  0  0  0  0  0  0
  191.2940  175.6830  135.3750 O   0  0  0  0  0  0  0  0  0  0  0  0
  195.4650  172.1890  136.9020 C   0  0  0  0  0  0  0  0  0  0  0  0
  194.4480  172.2420  136.0380 C   0  0  0  0  0  3  0  0  0  0  0  0
  193.9350  176.1680  137.6470 O   0  0  0  0  0  1  0  0  0  0  0  0
  193.1500  172.9010  136.3150 C   0  0  0  0  0  3  0  0  0  0  0  0
  195.3230  172.7540  138.2820 C   0  0  0  0  0  2  0  0  0  0  0  0
  194.0470  174.7790  137.6790 C   0  0  0  0  0  0  0  0  0  0  0  0
  195.1460  174.2390  138.2280 C   0  0  0  0  0  0  0  0  0  0  0  0
  192.9300  173.9610  137.1050 C   0  0  0  0  0  0  0  0  0  0  0  0
  197.5460  171.3220  137.6420 F   0  0  0  0  0  0  0  0  0  0  0  0
  196.7230  171.4470  136.5350 C   0  0  0  0  0  0  0  0  0  0  0  0
  197.4130  172.1150  135.5390 F   0  0  0  0  0  0  0  0  0  0  0  0
  196.3950  170.1850  136.0620 F   0  0  0  0  0  0  0  0  0  0  0  0
  196.5280  175.0090  140.1250 C   0  0  0  0  0  1  0  0  0  0  0  0
  196.1090  175.0880  138.7720 O   0  0  0  0  0  0  0  0  0  0  0  0
  184.7570  178.0350  138.6650 C   0  0  0  0  0  0  0  0  0  0  0  0
  184.0920  176.9470  138.2740 C   0  0  0  0  0  2  0  0  0  0  0  0
  183.0980  179.6260  139.7850 C   0  0  2  0  0  3  0  0  0  0  0  0
  182.6380  179.3150  138.4200 N   0  0  0  0  0  2  0  0  0  0  0  0
  184.0860  179.3850  138.7050 C   0  0  2  0  0  3  0  0  0  0  0  0
  182.7590  178.4500  140.7000 C   0  0  0  0  0  2  0  0  0  0  0  0
  181.6410  178.8190  141.6760 C   0  0  0  0  0  2  0  0  0  0  0  0
  182.1540  179.1220  143.0890 C   0  0  0  0  0  2  0  0  0  0  0  0
  183.4290  178.3440  143.4110 C   0  0  0  0  0  2  0  0  0  0  0  0
  184.6610  180.2710  144.0650 O   0  0  0  0  0  1  0  0  0  0  0  0
  183.4530  179.1750  145.6560 O   0  0  0  0  0  1  0  0  0  0  0  0
  184.2350  179.0200  144.5080 C   0  0  0  0  0  3  0  0  0  0  0  0
  187.0290  178.3310  139.6740 C   0  0  0  0  0  2  0  0  0  0  0  0
  186.1690  178.7050  140.8780 C   0  0  0  0  0  2  0  0  0  0  0  0
  186.7980  178.2010  142.1060 C   0  0  0  0  0  0  0  0  0  0  0  0
  187.3030  177.8030  143.1270 C   0  0  0  0  0  0  0  0  0  0  0  0
  187.8670  177.3140  144.3910 C   0  0  0  0  0  2  0  0  0  0  0  0
  189.0630  175.9510  142.8170 O   0  0  0  0  0  1  0  0  0  0  0  0
  189.0960  176.4500  144.1260 C   0  0  1  0  0  3  0  0  0  0  0  0
  190.4110  177.2060  144.3790 C   0  0  1  0  0  0  0  0  0  0  0  0
  191.4390  176.2700  144.4740 O   0  0  0  0  0  1  0  0  0  0  0  0
  190.7320  178.1270  143.2020 C   0  0  0  0  0  1  0  0  0  0  0  0
  190.3290  177.9260  145.7420 C   0  0  0  0  0  2  0  0  0  0  0  0
  189.3710  176.4900  147.3850 O   0  0  0  0  0  0  0  0  0  0  0  0
  190.4140  177.0560  146.9570 C   0  0  0  0  0  0  0  0  0  0  0  0
  192.3520  175.6690  147.5710 C   0  0  0  0  0  1  0  0  0  0  0  0
  191.6390  176.8940  147.6110 O   0  0  0  0  0  0  0  0  0  0  0  0
  1 28  1  0  0  0  0
  1 40  1  0  0  0  0
  2  1  1  1  0  0  0
  3  8  1  0  0  0  0
  4 10  1  0  0  0  0
  4  5  2  0  0  0  0
  5  2  1  0  0  0  0
  6  7  1  0  0  0  0
  6 10  2  0  0  0  0
  7  9  1  0  0  0  0
  7  3  2  0  0  0  0
  8 10  1  6  0  0  0
  8  2  1  0  0  0  0
 12  6  1  0  0  0  0
 12 11  1  0  0  0  0
 13 12  2  0  0  0  0
 14 18  1  0  0  0  0
 15 17  1  0  0  0  0
 15 14  2  0  0  0  0
 16 19  1  0  0  0  0
 17 21  2  0  0  0  0
 19 20  2  0  0  0  0
 20 18  1  0  0  0  0
 20 27  1  0  0  0  0
 21 11  1  0  0  0  0
 21 19  1  0  0  0  0
 23 14  1  0  0  0  0
 23 22  1  0  0  0  0
 24 23  1  0  0  0  0
 25 23  1  0  0  0  0
 27 26  1  0  0  0  0
 29 28  2  0  0  0  0
 30 33  1  1  0  0  0
 31 32  1  0  0  0  0
 31 30  1  0  0  0  0
 32 28  1  1  0  0  0
 32 30  1  0  0  0  0
 33 34  1  0  0  0  0
 34 35  1  0  0  0  0
 35 36  1  0  0  0  0
 36 39  1  0  0  0  0
 37 39  1  0  0  0  0
 39 38  1  0  0  0  0
 40 41  1  0  0  0  0
 41 42  1  0  0  0  0
 42 43  3  0  0  0  0
 43 44  1  0  0  0  0
 46 45  1  6  0  0  0
 46 47  1  0  0  0  0
 46 44  1  0  0  0  0
 47 49  1  6  0  0  0
 47 48  1  0  0  0  0
 47 50  1  0  0  0  0
 50 52  1  0  0  0  0
 52 51  2  0  0  0  0
 52 54  1  0  0  0  0
 53 54  1  0  0  0  0
M  END
>  <MODEL>
1

>  <REMARK>
 VINA RESULT:      -7.2      0.000      0.000
  Name = 
  21 active torsions:
  status: ('A' for Active; 'I' for Inactive)
    1  A    between atoms: C_2  and  N_10
    2  A    between atoms: C_2  and  C_41
    3  A    between atoms: N_3  and  C_52
    4  A    between atoms: C_4  and  N_10
    5  A    between atoms: O_6  and  C_50
    6  A    between atoms: O_7  and  C_49
    7  A    between atoms: C_8  and  C_27
    8  A    between atoms: C_9  and  C_35
    9  A    between atoms: C_9  and  C_39
   10  A    between atoms: N_10  and  C_42
   11  A    between atoms: C_13  and  C_25
   12  A    between atoms: C_17  and  C_28
   13  A    between atoms: C_17  and  C_35
   14  A    between atoms: C_25  and  C_45
   15  A    between atoms: C_28  and  C_49
   16  A    between atoms: C_31  and  C_36
   17  A    between atoms: C_33  and  C_37
   18  A    between atoms: C_33  and  C_43
   19  A    between atoms: C_38  and  C_54
   20  A    between atoms: C_42  and  C_54
   21  A    between atoms: C_43  and  C_45
                            x       y       z     vdW  Elec       q    Type
                         _______ _______ _______ _____ _____    ______ ____

>  <TORSDO>
F 21

$$$$
=
 OpenBabel10222421533D

 54 57  0  0  1  0  0  0  0  0999 V2000
  190.1310  177.2210  141.6050 N   0  0  0  0  0  0  0  0  0  0  0  0
  190.8310  177.7210  140.4190 C   0  0  1  0  0  3  0  0  0  0  0  0
  189.7250  176.3320  138.6020 N   0  0  0  0  0  0  0  0  0  0  0  0
  193.0230  176.9000  139.6250 N   0  0  0  0  0  0  0  0  0  0  0  0
  192.3880  177.7930  140.6230 C   0  0  0  0  0  3  0  0  0  0  0  0
  191.8670  175.5470  137.8390 C   0  0  0  0  0  0  0  0  0  0  0  0
  190.4120  175.5260  137.6220 C   0  0  0  0  0  0  0  0  0  0  0  0
  190.7150  176.7560  139.3130 C   0  0  1  0  0  3  0  0  0  0  0  0
  189.7970  174.8100  136.7390 N   0  0  0  0  0  1  0  0  0  0  0  0
  191.9620  176.3170  138.9020 C   0  0  0  0  0  0  0  0  0  0  0  0
  194.1210  174.4480  137.7030 N   0  0  0  0  0  2  0  0  0  0  0  0
  192.9420  174.9360  137.0520 C   0  0  0  0  0  0  0  0  0  0  0  0
  192.8240  174.8860  135.8030 O   0  0  0  0  0  0  0  0  0  0  0  0
  197.5300  171.8090  136.4870 C   0  0  0  0  0  0  0  0  0  0  0  0
  196.2190  171.6130  136.3200 C   0  0  0  0  0  3  0  0  0  0  0  0
  196.1290  175.8730  135.9840 O   0  0  0  0  0  1  0  0  0  0  0  0
  195.1650  172.5030  136.8650 C   0  0  0  0  0  3  0  0  0  0  0  0
  198.0300  172.9450  137.3250 C   0  0  0  0  0  2  0  0  0  0  0  0
  196.4010  174.6450  136.5830 C   0  0  0  0  0  0  0  0  0  0  0  0
  197.6810  174.2580  136.6970 C   0  0  0  0  0  0  0  0  0  0  0  0
  195.2490  173.8240  137.0780 C   0  0  0  0  0  0  0  0  0  0  0  0
  197.8710  169.9370  135.0700 F   0  0  0  0  0  0  0  0  0  0  0  0
  198.5120  170.8120  135.9330 C   0  0  0  0  0  0  0  0  0  0  0  0
  199.0980  170.0820  136.9530 F   0  0  0  0  0  0  0  0  0  0  0  0
  199.5150  171.4800  135.2480 F   0  0  0  0  0  0  0  0  0  0  0  0
  199.8610  174.6490  135.6040 C   0  0  0  0  0  1  0  0  0  0  0  0
  198.6820  175.1140  136.2420 O   0  0  0  0  0  0  0  0  0  0  0  0
  190.8350  176.6440  142.7120 C   0  0  0  0  0  0  0  0  0  0  0  0
  190.5020  175.4110  143.0970 C   0  0  0  0  0  2  0  0  0  0  0  0
  190.6370  178.0720  144.8240 C   0  0  2  0  0  3  0  0  0  0  0  0
  190.8180  178.9480  143.6530 N   0  0  0  0  0  2  0  0  0  0  0  0
  191.4620  177.6190  143.6790 C   0  0  2  0  0  3  0  0  0  0  0  0
  189.1830  177.6040  144.8700 C   0  0  0  0  0  2  0  0  0  0  0  0
  188.7560  177.2790  146.3020 C   0  0  0  0  0  2  0  0  0  0  0  0
  187.2780  177.5840  146.5710 C   0  0  0  0  0  2  0  0  0  0  0  0
  186.5470  178.0220  145.3030 C   0  0  0  0  0  2  0  0  0  0  0  0
  184.2570  178.6560  145.1840 O   0  0  0  0  0  1  0  0  0  0  0  0
  185.4830  179.3780  146.9640 O   0  0  0  0  0  1  0  0  0  0  0  0
  185.5140  179.0980  145.5960 C   0  0  0  0  0  3  0  0  0  0  0  0
  188.6720  177.2350  141.6000 C   0  0  0  0  0  2  0  0  0  0  0  0
  188.1580  178.6630  141.4410 C   0  0  0  0  0  2  0  0  0  0  0  0
  186.6920  178.6710  141.5390 C   0  0  0  0  0  0  0  0  0  0  0  0
  185.4870  178.6790  141.5960 C   0  0  0  0  0  0  0  0  0  0  0  0
  184.0200  178.6490  141.6270 C   0  0  0  0  0  2  0  0  0  0  0  0
  184.4850  179.6770  139.5070 O   0  0  0  0  0  1  0  0  0  0  0  0
  183.4480  179.2860  140.3640 C   0  0  1  0  0  3  0  0  0  0  0  0
  182.4680  178.3560  139.6300 C   0  0  1  0  0  0  0  0  0  0  0  0
  181.1900  178.5810  140.1390 O   0  0  0  0  0  1  0  0  0  0  0  0
  182.4360  178.6860  138.1370 C   0  0  0  0  0  1  0  0  0  0  0  0
  182.8270  176.8880  139.9450 C   0  0  0  0  0  2  0  0  0  0  0  0
  180.8990  175.4910  139.8410 O   0  0  0  0  0  0  0  0  0  0  0  0
  181.9780  175.8440  139.2900 C   0  0  0  0  0  0  0  0  0  0  0  0
  183.7590  174.9640  137.8380 C   0  0  0  0  0  1  0  0  0  0  0  0
  182.3960  175.2600  138.0910 O   0  0  0  0  0  0  0  0  0  0  0  0
  1 28  1  0  0  0  0
  2  5  1  0  0  0  0
  2  1  1  1  0  0  0
  4  5  2  0  0  0  0
  6 10  2  0  0  0  0
  7  6  1  0  0  0  0
  7  3  2  0  0  0  0
  8  3  1  6  0  0  0
  8  2  1  0  0  0  0
  9  7  1  0  0  0  0
 10  8  1  0  0  0  0
 10  4  1  0  0  0  0
 12 11  1  0  0  0  0
 12  6  1  0  0  0  0
 13 12  2  0  0  0  0
 14 18  1  0  0  0  0
 15 14  2  0  0  0  0
 15 17  1  0  0  0  0
 16 19  1  0  0  0  0
 17 21  2  0  0  0  0
 19 20  2  0  0  0  0
 19 21  1  0  0  0  0
 20 18  1  0  0  0  0
 21 11  1  0  0  0  0
 22 23  1  0  0  0  0
 23 14  1  0  0  0  0
 23 24  1  0  0  0  0
 25 23  1  0  0  0  0
 26 27  1  0  0  0  0
 27 20  1  0  0  0  0
 28 29  2  0  0  0  0
 30 33  1  6  0  0  0
 31 32  1  0  0  0  0
 31 30  1  0  0  0  0
 32 28  1  6  0  0  0
 32 30  1  0  0  0  0
 33 34  1  0  0  0  0
 34 35  1  0  0  0  0
 36 39  1  0  0  0  0
 36 35  1  0  0  0  0
 37 39  1  0  0  0  0
 39 38  1  0  0  0  0
 40  1  1  0  0  0  0
 41 42  1  0  0  0  0
 41 40  1  0  0  0  0
 42 43  3  0  0  0  0
 43 44  1  0  0  0  0
 46 45  1  6  0  0  0
 46 44  1  0  0  0  0
 47 49  1  6  0  0  0
 47 50  1  0  0  0  0
 47 48  1  0  0  0  0
 47 46  1  0  0  0  0
 52 51  2  0  0  0  0
 52 50  1  0  0  0  0
 53 54  1  0  0  0  0
 54 52  1  0  0  0  0
M  END
>  <MODEL>
2

>  <REMARK>
 VINA RESULT:      -7.1      2.918      6.156
  Name = 
  21 active torsions:
  status: ('A' for Active; 'I' for Inactive)
    1  A    between atoms: C_2  and  N_10
    2  A    between atoms: C_2  and  C_41
    3  A    between atoms: N_3  and  C_52
    4  A    between atoms: C_4  and  N_10
    5  A    between atoms: O_6  and  C_50
    6  A    between atoms: O_7  and  C_49
    7  A    between atoms: C_8  and  C_27
    8  A    between atoms: C_9  and  C_35
    9  A    between atoms: C_9  and  C_39
   10  A    between atoms: N_10  and  C_42
   11  A    between atoms: C_13  and  C_25
   12  A    between atoms: C_17  and  C_28
   13  A    between atoms: C_17  and  C_35
   14  A    between atoms: C_25  and  C_45
   15  A    between atoms: C_28  and  C_49
   16  A    between atoms: C_31  and  C_36
   17  A    between atoms: C_33  and  C_37
   18  A    between atoms: C_33  and  C_43
   19  A    between atoms: C_38  and  C_54
   20  A    between atoms: C_42  and  C_54
   21  A    between atoms: C_43  and  C_45
                            x       y       z     vdW  Elec       q    Type
                         _______ _______ _______ _____ _____    ______ ____

>  <TORSDO>
F 21

$$$$
=
 OpenBabel10222421533D

 54 57  0  0  1  0  0  0  0  0999 V2000
  187.9560  176.3330  135.8480 N   0  0  0  0  0  0  0  0  0  0  0  0
  188.2120  177.5470  136.6260 C   0  0  1  0  0  3  0  0  0  0  0  0
  190.4000  176.9270  137.7590 N   0  0  0  0  0  0  0  0  0  0  0  0
  187.2630  178.0200  138.8590 N   0  0  0  0  0  0  0  0  0  0  0  0
  186.9430  178.0410  137.4120 C   0  0  0  0  0  3  0  0  0  0  0  0
  189.4610  177.3960  139.9230 C   0  0  0  0  0  0  0  0  0  0  0  0
  190.6610  176.9850  139.1770 C   0  0  0  0  0  0  0  0  0  0  0  0
  189.1550  177.2640  137.7210 C   0  0  0  0  0  0  0  0  0  0  0  0
  191.7840  176.6240  139.7050 N   0  0  0  0  0  2  0  0  0  0  0  0
  188.5840  177.5360  138.9520 C   0  0  0  0  0  0  0  0  0  0  0  0
  189.6120  176.6310  142.3100 N   0  0  0  0  0  2  0  0  0  0  0  0
  189.2900  177.6500  141.3560 C   0  0  0  0  0  0  0  0  0  0  0  0
  188.8230  178.7570  141.7230 O   0  0  0  0  0  0  0  0  0  0  0  0
  188.7180  177.7540  146.5540 C   0  0  0  0  0  0  0  0  0  0  0  0
  187.9180  177.1720  145.6560 C   0  0  0  0  0  3  0  0  0  0  0  0
  191.5690  175.4480  144.2560 O   0  0  0  0  0  1  0  0  0  0  0  0
  188.2810  176.9470  144.2360 C   0  0  0  0  0  3  0  0  0  0  0  0
  190.0530  178.2950  146.1480 C   0  0  0  0  0  2  0  0  0  0  0  0
  190.6950  176.4730  144.6110 C   0  0  0  0  0  0  0  0  0  0  0  0
  190.9630  177.1880  145.7140 C   0  0  0  0  0  0  0  0  0  0  0  0
  189.5050  176.7280  143.7360 C   0  0  0  0  0  0  0  0  0  0  0  0
  188.0110  176.7650  148.5910 F   0  0  0  0  0  0  0  0  0  0  0  0
  188.2270  177.9790  147.9590 C   0  0  0  0  0  0  0  0  0  0  0  0
  187.0430  178.6960  147.9550 F   0  0  0  0  0  0  0  0  0  0  0  0
  189.1710  178.7050  148.6690 F   0  0  0  0  0  0  0  0  0  0  0  0
  192.2760  175.7030  147.1890 C   0  0  0  0  0  1  0  0  0  0  0  0
  192.1190  176.8970  146.4370 O   0  0  0  0  0  0  0  0  0  0  0  0
  189.0070  175.6350  135.1670 C   0  0  0  0  0  0  0  0  0  0  0  0
  189.8660  176.3480  134.4360 C   0  0  0  0  0  2  0  0  0  0  0  0
  189.4490  173.1740  135.7000 C   0  0  2  0  0  3  0  0  0  0  0  0
  189.9430  173.4810  134.3460 N   0  0  0  0  0  2  0  0  0  0  0  0
  188.7490  174.1800  134.8650 C   0  0  2  0  0  3  0  0  0  0  0  0
  190.4580  173.6920  136.7230 C   0  0  0  0  0  2  0  0  0  0  0  0
  191.8870  173.3240  136.3190 C   0  0  0  0  0  2  0  0  0  0  0  0
  192.9300  174.3280  136.8240 C   0  0  0  0  0  2  0  0  0  0  0  0
  194.2610  173.6500  137.1490 C   0  0  0  0  0  2  0  0  0  0  0  0
  195.8760  173.2490  138.8490 O   0  0  0  0  0  1  0  0  0  0  0  0
  195.0500  175.3600  138.6260 O   0  0  0  0  0  1  0  0  0  0  0  0
  194.7410  174.0000  138.5480 C   0  0  0  0  0  3  0  0  0  0  0  0
  186.5740  175.8900  135.6970 C   0  0  0  0  0  2  0  0  0  0  0  0
  185.7720  176.9250  134.9140 C   0  0  0  0  0  2  0  0  0  0  0  0
  184.4920  177.1710  135.5940 C   0  0  0  0  0  0  0  0  0  0  0  0
  183.4350  177.3500  136.1470 C   0  0  0  0  0  0  0  0  0  0  0  0
  182.1600  177.5240  136.8510 C   0  0  0  0  0  2  0  0  0  0  0  0
  182.7410  179.3230  138.3320 O   0  0  0  0  0  1  0  0  0  0  0  0
  182.4030  177.9630  138.2910 C   0  0  1  0  0  3  0  0  0  0  0  0
  181.1970  177.6830  139.2040 C   0  0  1  0  0  0  0  0  0  0  0  0
  180.0480  177.6740  138.4160 O   0  0  0  0  0  1  0  0  0  0  0  0
  181.3260  176.3040  139.8510 C   0  0  0  0  0  1  0  0  0  0  0  0
  181.0440  178.8430  140.2130 C   0  0  0  0  0  2  0  0  0  0  0  0
  181.1300  178.9930  142.5890 O   0  0  0  0  0  0  0  0  0  0  0  0
  181.7340  178.6710  141.5290 C   0  0  0  0  0  0  0  0  0  0  0  0
  184.1010  178.9060  142.1590 C   0  0  0  0  0  1  0  0  0  0  0  0
  183.0390  178.1740  141.5700 O   0  0  0  0  0  0  0  0  0  0  0  0
  2  1  1  1  0  0  0
  2  5  1  0  0  0  0
  2  8  1  0  0  0  0
  3  7  1  0  0  0  0
  4 10  1  0  0  0  0
  5  4  2  0  0  0  0
  6 12  1  0  0  0  0
  7  9  2  0  0  0  0
  7  6  1  0  0  0  0
  8  3  2  0  0  0  0
  8 10  1  0  0  0  0
 10  6  2  0  0  0  0
 11 21  1  0  0  0  0
 12 13  2  0  0  0  0
 12 11  1  0  0  0  0
 14 23  1  0  0  0  0
 15 14  2  0  0  0  0
 16 19  1  0  0  0  0
 17 15  1  0  0  0  0
 18 14  1  0  0  0  0
 19 20  2  0  0  0  0
 20 18  1  0  0  0  0
 20 27  1  0  0  0  0
 21 17  2  0  0  0  0
 21 19  1  0  0  0  0
 23 22  1  0  0  0  0
 23 25  1  0  0  0  0
 24 23  1  0  0  0  0
 27 26  1  0  0  0  0
 28  1  1  0  0  0  0
 29 28  2  0  0  0  0
 30 33  1  1  0  0  0
 31 32  1  0  0  0  0
 31 30  1  0  0  0  0
 32 28  1  1  0  0  0
 32 30  1  0  0  0  0
 34 33  1  0  0  0  0
 34 35  1  0  0  0  0
 35 36  1  0  0  0  0
 36 39  1  0  0  0  0
 39 38  1  0  0  0  0
 39 37  1  0  0  0  0
 40  1  1  0  0  0  0
 41 42  1  0  0  0  0
 41 40  1  0  0  0  0
 42 43  3  0  0  0  0
 43 44  1  0  0  0  0
 44 46  1  0  0  0  0
 46 45  1  6  0  0  0
 46 47  1  0  0  0  0
 47 49  1  1  0  0  0
 47 50  1  0  0  0  0
 48 47  1  0  0  0  0
 50 52  1  0  0  0  0
 52 54  1  0  0  0  0
 52 51  2  0  0  0  0
 54 53  1  0  0  0  0
M  END
>  <MODEL>
3

>  <REMARK>
 VINA RESULT:      -6.8      4.456      9.762
  Name = 
  21 active torsions:
  status: ('A' for Active; 'I' for Inactive)
    1  A    between atoms: C_2  and  N_10
    2  A    between atoms: C_2  and  C_41
    3  A    between atoms: N_3  and  C_52
    4  A    between atoms: C_4  and  N_10
    5  A    between atoms: O_6  and  C_50
    6  A    between atoms: O_7  and  C_49
    7  A    between atoms: C_8  and  C_27
    8  A    between atoms: C_9  and  C_35
    9  A    between atoms: C_9  and  C_39
   10  A    between atoms: N_10  and  C_42
   11  A    between atoms: C_13  and  C_25
   12  A    between atoms: C_17  and  C_28
   13  A    between atoms: C_17  and  C_35
   14  A    between atoms: C_25  and  C_45
   15  A    between atoms: C_28  and  C_49
   16  A    between atoms: C_31  and  C_36
   17  A    between atoms: C_33  and  C_37
   18  A    between atoms: C_33  and  C_43
   19  A    between atoms: C_38  and  C_54
   20  A    between atoms: C_42  and  C_54
   21  A    between atoms: C_43  and  C_45
                            x       y       z     vdW  Elec       q    Type
                         _______ _______ _______ _____ _____    ______ ____

>  <TORSDO>
F 21

$$$$
=
 OpenBabel10222421533D

 54 57  0  0  1  0  0  0  0  0999 V2000
  185.8510  178.2510  138.6130 N   0  0  0  0  0  0  0  0  0  0  0  0
  186.4960  178.0800  137.3090 C   0  0  1  0  0  3  0  0  0  0  0  0
  186.6740  175.5480  137.2020 N   0  0  0  0  0  0  0  0  0  0  0  0
  188.9330  178.2040  136.9140 N   0  0  0  0  0  0  0  0  0  0  0  0
  187.7260  179.0400  137.1130 C   0  0  0  0  0  3  0  0  0  0  0  0
  189.0430  175.6880  136.8130 C   0  0  0  0  0  0  0  0  0  0  0  0
  187.8790  174.7980  136.9460 C   0  0  0  0  0  0  0  0  0  0  0  0
  187.1310  176.7540  137.2230 C   0  0  1  0  0  3  0  0  0  0  0  0
  187.9200  173.5060  136.9370 N   0  0  0  0  0  1  0  0  0  0  0  0
  188.4940  176.8680  137.0070 C   0  0  0  0  0  0  0  0  0  0  0  0
  191.2120  174.5510  137.3700 N   0  0  0  0  0  2  0  0  0  0  0  0
  190.4350  175.3680  136.4860 C   0  0  0  0  0  0  0  0  0  0  0  0
  190.9390  175.8550  135.4430 O   0  0  0  0  0  0  0  0  0  0  0  0
  195.0920  172.3560  136.9330 C   0  0  0  0  0  0  0  0  0  0  0  0
  194.0890  172.4650  136.0570 C   0  0  0  0  0  3  0  0  0  0  0  0
  193.5960  176.3100  137.8560 O   0  0  0  0  0  1  0  0  0  0  0  0
  192.7940  173.1250  136.3480 C   0  0  0  0  0  3  0  0  0  0  0  0
  194.9350  172.8520  138.3370 C   0  0  0  0  0  2  0  0  0  0  0  0
  193.6920  174.9210  137.8190 C   0  0  0  0  0  0  0  0  0  0  0  0
  194.7760  174.3400  138.3560 C   0  0  0  0  0  0  0  0  0  0  0  0
  192.5750  174.1470  137.1880 C   0  0  0  0  0  0  0  0  0  0  0  0
  196.9070  172.1880  135.4150 F   0  0  0  0  0  0  0  0  0  0  0  0
  196.3460  171.6180  136.5470 C   0  0  0  0  0  0  0  0  0  0  0  0
  196.0710  170.2870  136.2850 F   0  0  0  0  0  0  0  0  0  0  0  0
  197.2580  171.6750  137.5900 F   0  0  0  0  0  0  0  0  0  0  0  0
  196.9870  174.6480  139.4140 C   0  0  0  0  0  1  0  0  0  0  0  0
  195.7410  175.1480  138.9560 O   0  0  0  0  0  0  0  0  0  0  0  0
  184.4310  178.4010  138.7400 C   0  0  0  0  0  0  0  0  0  0  0  0
  183.9410  179.6270  138.9280 C   0  0  0  0  0  2  0  0  0  0  0  0
  182.9360  176.4020  138.1830 C   0  0  2  0  0  3  0  0  0  0  0  0
  182.2110  177.3270  139.0710 N   0  0  0  0  0  2  0  0  0  0  0  0
  183.6750  177.1810  139.2060 C   0  0  2  0  0  3  0  0  0  0  0  0
  182.9090  176.9610  136.7610 C   0  0  0  0  0  2  0  0  0  0  0  0
  183.5770  175.9960  135.7800 C   0  0  0  0  0  2  0  0  0  0  0  0
  183.1710  174.5350  136.0040 C   0  0  0  0  0  2  0  0  0  0  0  0
  184.2820  173.5670  135.6040 C   0  0  0  0  0  2  0  0  0  0  0  0
  183.0460  172.1830  137.0920 O   0  0  0  0  0  1  0  0  0  0  0  0
  184.5790  171.1950  135.7270 O   0  0  0  0  0  1  0  0  0  0  0  0
  184.2940  172.3310  136.4880 C   0  0  0  0  0  3  0  0  0  0  0  0
  186.7010  178.3640  139.7930 C   0  0  0  0  0  2  0  0  0  0  0  0
  185.8920  178.8800  140.9790 C   0  0  0  0  0  2  0  0  0  0  0  0
  186.3670  178.2390  142.2130 C   0  0  0  0  0  0  0  0  0  0  0  0
  186.7480  177.6940  143.2200 C   0  0  0  0  0  0  0  0  0  0  0  0
  187.2340  176.9910  144.4120 C   0  0  0  0  0  2  0  0  0  0  0  0
  187.6800  177.8820  146.5970 O   0  0  0  0  0  1  0  0  0  0  0  0
  188.0990  177.9180  145.2610 C   0  0  1  0  0  3  0  0  0  0  0  0
  189.5960  177.5830  145.1590 C   0  0  1  0  0  0  0  0  0  0  0  0
  190.2790  178.7440  144.8020 O   0  0  0  0  0  1  0  0  0  0  0  0
  190.1350  177.1280  146.5150 C   0  0  0  0  0  1  0  0  0  0  0  0
  189.8120  176.5640  144.0180 C   0  0  0  0  0  2  0  0  0  0  0  0
  191.8930  176.8330  142.8900 O   0  0  0  0  0  0  0  0  0  0  0  0
  190.6470  177.0280  142.8660 C   0  0  0  0  0  0  0  0  0  0  0  0
  190.1110  177.1730  140.4690 C   0  0  0  0  0  1  0  0  0  0  0  0
  190.0430  177.6840  141.7900 O   0  0  0  0  0  0  0  0  0  0  0  0
  1 28  1  0  0  0  0
  1 40  1  0  0  0  0
  2  1  1  1  0  0  0
  3  8  1  0  0  0  0
  4 10  1  0  0  0  0
  4  5  2  0  0  0  0
  5  2  1  0  0  0  0
  6  7  1  0  0  0  0
  6 10  2  0  0  0  0
  7  3  2  0  0  0  0
  8 10  1  6  0  0  0
  8  2  1  0  0  0  0
  9  7  1  0  0  0  0
 12  6  1  0  0  0  0
 12 11  1  0  0  0  0
 13 12  2  0  0  0  0
 14 18  1  0  0  0  0
 15 17  1  0  0  0  0
 15 14  2  0  0  0  0
 17 21  2  0  0  0  0
 18 20  1  0  0  0  0
 19 16  1  0  0  0  0
 19 20  2  0  0  0  0
 20 27  1  0  0  0  0
 21 11  1  0  0  0  0
 21 19  1  0  0  0  0
 22 23  1  0  0  0  0
 23 14  1  0  0  0  0
 23 25  1  0  0  0  0
 24 23  1  0  0  0  0
 27 26  1  0  0  0  0
 28 29  2  0  0  0  0
 30 33  1  6  0  0  0
 30 31  1  0  0  0  0
 30 32  1  0  0  0  0
 31 32  1  0  0  0  0
 32 28  1  6  0  0  0
 34 35  1  0  0  0  0
 34 33  1  0  0  0  0
 36 35  1  0  0  0  0
 36 39  1  0  0  0  0
 38 39  1  0  0  0  0
 39 37  1  0  0  0  0
 40 41  1  0  0  0  0
 41 42  1  0  0  0  0
 42 43  3  0  0  0  0
 43 44  1  0  0  0  0
 44 46  1  0  0  0  0
 46 45  1  1  0  0  0
 47 46  1  0  0  0  0
 47 49  1  1  0  0  0
 48 47  1  0  0  0  0
 50 47  1  0  0  0  0
 52 51  2  0  0  0  0
 52 50  1  0  0  0  0
 53 54  1  0  0  0  0
 54 52  1  0  0  0  0
M  END
>  <MODEL>
4

>  <REMARK>
 VINA RESULT:      -6.7      2.190      3.975
  Name = 
  21 active torsions:
  status: ('A' for Active; 'I' for Inactive)
    1  A    between atoms: C_2  and  N_10
    2  A    between atoms: C_2  and  C_41
    3  A    between atoms: N_3  and  C_52
    4  A    between atoms: C_4  and  N_10
    5  A    between atoms: O_6  and  C_50
    6  A    between atoms: O_7  and  C_49
    7  A    between atoms: C_8  and  C_27
    8  A    between atoms: C_9  and  C_35
    9  A    between atoms: C_9  and  C_39
   10  A    between atoms: N_10  and  C_42
   11  A    between atoms: C_13  and  C_25
   12  A    between atoms: C_17  and  C_28
   13  A    between atoms: C_17  and  C_35
   14  A    between atoms: C_25  and  C_45
   15  A    between atoms: C_28  and  C_49
   16  A    between atoms: C_31  and  C_36
   17  A    between atoms: C_33  and  C_37
   18  A    between atoms: C_33  and  C_43
   19  A    between atoms: C_38  and  C_54
   20  A    between atoms: C_42  and  C_54
   21  A    between atoms: C_43  and  C_45
                            x       y       z     vdW  Elec       q    Type
                         _______ _______ _______ _____ _____    ______ ____

>  <TORSDO>
F 21

$$$$
=
 OpenBabel10222421533D

 54 57  0  0  1  0  0  0  0  0999 V2000
  189.6450  175.5930  135.6980 N   0  0  0  0  0  0  0  0  0  0  0  0
  189.4570  176.8560  136.4160 C   0  0  1  0  0  3  0  0  0  0  0  0
  191.5750  176.9180  137.8180 N   0  0  0  0  0  0  0  0  0  0  0  0
  188.1480  177.1150  138.4970 N   0  0  0  0  0  0  0  0  0  0  0  0
  188.0150  176.9960  137.0260 C   0  0  0  0  0  3  0  0  0  0  0  0
  190.2860  177.1740  139.8320 C   0  0  0  0  0  0  0  0  0  0  0  0
  191.6340  177.0950  139.2490 C   0  0  0  0  0  0  0  0  0  0  0  0
  190.3000  176.8880  137.6230 C   0  0  0  0  0  0  0  0  0  0  0  0
  192.7400  177.0840  139.9180 N   0  0  0  0  0  2  0  0  0  0  0  0
  189.5300  177.0280  138.7650 C   0  0  0  0  0  0  0  0  0  0  0  0
  190.2090  176.4730  142.2420 N   0  0  0  0  0  2  0  0  0  0  0  0
  189.8770  177.4180  141.2180 C   0  0  0  0  0  0  0  0  0  0  0  0
  189.2010  178.4440  141.4780 O   0  0  0  0  0  0  0  0  0  0  0  0
  188.6330  177.5600  146.2920 C   0  0  0  0  0  0  0  0  0  0  0  0
  188.0110  176.9250  145.2940 C   0  0  0  0  0  3  0  0  0  0  0  0
  191.9260  175.4230  144.4700 O   0  0  0  0  0  1  0  0  0  0  0  0
  188.5920  176.7150  143.9470 C   0  0  0  0  0  3  0  0  0  0  0  0
  189.9790  178.1810  146.0780 C   0  0  0  0  0  2  0  0  0  0  0  0
  190.9490  176.3930  144.6790 C   0  0  0  0  0  0  0  0  0  0  0  0
  191.0070  177.1290  145.7990 C   0  0  0  0  0  0  0  0  0  0  0  0
  189.8880  176.5700  143.6350 C   0  0  0  0  0  0  0  0  0  0  0  0
  186.6380  178.2210  147.3910 F   0  0  0  0  0  0  0  0  0  0  0  0
  187.9270  177.7620  147.6060 C   0  0  0  0  0  0  0  0  0  0  0  0
  188.6030  178.6810  148.3890 F   0  0  0  0  0  0  0  0  0  0  0  0
  187.8770  176.5590  148.2950 F   0  0  0  0  0  0  0  0  0  0  0  0
  192.1960  175.7220  147.4450 C   0  0  0  0  0  1  0  0  0  0  0  0
  192.0600  176.9140  146.6880 O   0  0  0  0  0  0  0  0  0  0  0  0
  190.8920  175.2550  135.0770 C   0  0  0  0  0  0  0  0  0  0  0  0
  191.5060  176.1860  134.3460 C   0  0  0  0  0  2  0  0  0  0  0  0
  191.9000  173.0330  135.8430 C   0  0  2  0  0  3  0  0  0  0  0  0
  192.5520  173.4660  134.5940 N   0  0  0  0  0  2  0  0  0  0  0  0
  191.1280  173.7860  134.8240 C   0  0  2  0  0  3  0  0  0  0  0  0
  192.4870  173.8280  137.0070 C   0  0  0  0  0  2  0  0  0  0  0  0
  194.0070  173.9430  136.8830 C   0  0  0  0  0  2  0  0  0  0  0  0
  194.7580  172.9060  137.7260 C   0  0  0  0  0  2  0  0  0  0  0  0
  196.2700  172.9980  137.5270 C   0  0  0  0  0  2  0  0  0  0  0  0
  197.4210  170.9160  137.5080 O   0  0  0  0  0  1  0  0  0  0  0  0
  195.7430  171.2320  136.0000 O   0  0  0  0  0  1  0  0  0  0  0  0
  196.7940  171.8490  136.6820 C   0  0  0  0  0  3  0  0  0  0  0  0
  188.4920  174.7130  135.5400 C   0  0  0  0  0  2  0  0  0  0  0  0
  188.3600  173.7950  136.7520 C   0  0  0  0  0  2  0  0  0  0  0  0
  186.9400  173.6250  137.0860 C   0  0  0  0  0  0  0  0  0  0  0  0
  185.7690  173.5070  137.3550 C   0  0  0  0  0  0  0  0  0  0  0  0
  184.3340  173.3850  137.6330 C   0  0  0  0  0  2  0  0  0  0  0  0
  182.6710  173.3290  135.9010 O   0  0  0  0  0  1  0  0  0  0  0  0
  183.5250  174.1810  136.6130 C   0  0  1  0  0  3  0  0  0  0  0  0
  182.7250  175.3240  137.2590 C   0  0  1  0  0  0  0  0  0  0  0  0
  181.4220  175.2750  136.7690 O   0  0  0  0  0  1  0  0  0  0  0  0
  182.6570  175.1370  138.7750 C   0  0  0  0  0  1  0  0  0  0  0  0
  183.3240  176.6770  136.8150 C   0  0  0  0  0  2  0  0  0  0  0  0
  182.1000  178.6530  137.3410 O   0  0  0  0  0  0  0  0  0  0  0  0
  183.0140  177.8550  137.6850 C   0  0  0  0  0  0  0  0  0  0  0  0
  184.9020  178.8910  138.8740 C   0  0  0  0  0  1  0  0  0  0  0  0
  183.7490  178.0670  138.8550 O   0  0  0  0  0  0  0  0  0  0  0  0
  2  1  1  1  0  0  0
  2  5  1  0  0  0  0
  2  8  1  0  0  0  0
  3  7  1  0  0  0  0
  4 10  1  0  0  0  0
  5  4  2  0  0  0  0
  6 12  1  0  0  0  0
  7  6  1  0  0  0  0
  7  9  2  0  0  0  0
  8  3  2  0  0  0  0
  8 10  1  0  0  0  0
 10  6  2  0  0  0  0
 11 21  1  0  0  0  0
 12 13  2  0  0  0  0
 12 11  1  0  0  0  0
 14 23  1  0  0  0  0
 15 14  2  0  0  0  0
 16 19  1  0  0  0  0
 17 15  1  0  0  0  0
 18 14  1  0  0  0  0
 19 20  2  0  0  0  0
 20 18  1  0  0  0  0
 20 27  1  0  0  0  0
 21 17  2  0  0  0  0
 21 19  1  0  0  0  0
 22 23  1  0  0  0  0
 23 25  1  0  0  0  0
 23 24  1  0  0  0  0
 27 26  1  0  0  0  0
 28  1  1  0  0  0  0
 29 28  2  0  0  0  0
 30 33  1  1  0  0  0
 31 32  1  0  0  0  0
 31 30  1  0  0  0  0
 32 28  1  1  0  0  0
 32 30  1  0  0  0  0
 34 33  1  0  0  0  0
 34 35  1  0  0  0  0
 36 35  1  0  0  0  0
 38 39  1  0  0  0  0
 39 37  1  0  0  0  0
 39 36  1  0  0  0  0
 40  1  1  0  0  0  0
 40 41  1  0  0  0  0
 41 42  1  0  0  0  0
 42 43  3  0  0  0  0
 43 44  1  0  0  0  0
 46 45  1  1  0  0  0
 46 47  1  0  0  0  0
 46 44  1  0  0  0  0
 47 49  1  1  0  0  0
 48 47  1  0  0  0  0
 50 47  1  0  0  0  0
 50 52  1  0  0  0  0
 51 52  2  0  0  0  0
 52 54  1  0  0  0  0
 54 53  1  0  0  0  0
M  END
>  <MODEL>
5

>  <REMARK>
 VINA RESULT:      -6.5      4.816     10.484
  Name = 
  21 active torsions:
  status: ('A' for Active; 'I' for Inactive)
    1  A    between atoms: C_2  and  N_10
    2  A    between atoms: C_2  and  C_41
    3  A    between atoms: N_3  and  C_52
    4  A    between atoms: C_4  and  N_10
    5  A    between atoms: O_6  and  C_50
    6  A    between atoms: O_7  and  C_49
    7  A    between atoms: C_8  and  C_27
    8  A    between atoms: C_9  and  C_35
    9  A    between atoms: C_9  and  C_39
   10  A    between atoms: N_10  and  C_42
   11  A    between atoms: C_13  and  C_25
   12  A    between atoms: C_17  and  C_28
   13  A    between atoms: C_17  and  C_35
   14  A    between atoms: C_25  and  C_45
   15  A    between atoms: C_28  and  C_49
   16  A    between atoms: C_31  and  C_36
   17  A    between atoms: C_33  and  C_37
   18  A    between atoms: C_33  and  C_43
   19  A    between atoms: C_38  and  C_54
   20  A    between atoms: C_42  and  C_54
   21  A    between atoms: C_43  and  C_45
                            x       y       z     vdW  Elec       q    Type
                         _______ _______ _______ _____ _____    ______ ____

>  <TORSDO>
F 21

$$$$
=
 OpenBabel10222421533D

 54 57  0  0  1  0  0  0  0  0999 V2000
  188.0130  177.9340  143.0630 N   0  0  0  0  0  0  0  0  0  0  0  0
  189.3520  178.0240  142.4770 C   0  0  1  0  0  3  0  0  0  0  0  0
  188.7990  178.9730  140.1870 N   0  0  0  0  0  0  0  0  0  0  0  0
  190.5290  176.1630  141.3520 N   0  0  0  0  0  0  0  0  0  0  0  0
  190.1930  176.7120  142.6870 C   0  0  0  0  0  3  0  0  0  0  0  0
  189.9510  177.1580  139.1090 C   0  0  0  0  0  0  0  0  0  0  0  0
  189.2080  178.4140  138.9210 C   0  0  0  0  0  0  0  0  0  0  0  0
  189.2640  178.0950  141.0090 C   0  0  1  0  0  3  0  0  0  0  0  0
  188.8690  178.9200  137.7810 N   0  0  0  0  0  1  0  0  0  0  0  0
  189.9290  177.0340  140.4180 C   0  0  0  0  0  0  0  0  0  0  0  0
  191.9650  175.8900  138.3090 N   0  0  0  0  0  2  0  0  0  0  0  0
  190.6060  176.3000  138.1180 C   0  0  0  0  0  0  0  0  0  0  0  0
  189.9680  175.9670  137.0880 O   0  0  0  0  0  0  0  0  0  0  0  0
  194.0700  172.5330  136.2180 C   0  0  0  0  0  0  0  0  0  0  0  0
  192.7710  172.8450  136.2040 C   0  0  0  0  0  3  0  0  0  0  0  0
  194.2320  176.8420  136.5850 O   0  0  0  0  0  1  0  0  0  0  0  0
  192.1590  173.9150  137.0270 C   0  0  0  0  0  3  0  0  0  0  0  0
  195.0100  173.2290  137.1530 C   0  0  0  0  0  2  0  0  0  0  0  0
  194.0740  175.5020  136.9320 C   0  0  0  0  0  0  0  0  0  0  0  0
  195.1260  174.6800  136.8030 C   0  0  0  0  0  0  0  0  0  0  0  0
  192.7380  175.0520  137.4400 C   0  0  0  0  0  0  0  0  0  0  0  0
  194.9420  170.3270  136.1880 F   0  0  0  0  0  0  0  0  0  0  0  0
  194.5750  171.3910  135.3780 C   0  0  0  0  0  0  0  0  0  0  0  0
  195.6720  171.7800  134.6300 F   0  0  0  0  0  0  0  0  0  0  0  0
  193.5790  170.9810  134.5050 F   0  0  0  0  0  0  0  0  0  0  0  0
  197.5900  174.5990  136.6410 C   0  0  0  0  0  1  0  0  0  0  0  0
  196.3380  175.2070  136.3600 O   0  0  0  0  0  0  0  0  0  0  0  0
  187.8090  177.8930  144.4820 C   0  0  0  0  0  0  0  0  0  0  0  0
  188.8460  178.1670  145.2750 C   0  0  0  0  0  2  0  0  0  0  0  0
  185.4090  177.7180  145.3460 C   0  0  2  0  0  3  0  0  0  0  0  0
  186.3420  177.2550  146.3870 N   0  0  0  0  0  2  0  0  0  0  0  0
  186.6670  177.0330  144.9630 C   0  0  2  0  0  3  0  0  0  0  0  0
  185.4090  179.2460  145.3270 C   0  0  0  0  0  2  0  0  0  0  0  0
  184.2140  179.7850  144.5400 C   0  0  0  0  0  2  0  0  0  0  0  0
  183.0510  178.7900  144.4570 C   0  0  0  0  0  2  0  0  0  0  0  0
  182.3560  178.8370  143.0980 C   0  0  0  0  0  2  0  0  0  0  0  0
  180.4700  180.2810  142.9640 O   0  0  0  0  0  1  0  0  0  0  0  0
  180.2020  178.1010  142.3600 O   0  0  0  0  0  1  0  0  0  0  0  0
  180.8490  178.9680  143.2430 C   0  0  0  0  0  3  0  0  0  0  0  0
  186.8750  177.7870  142.1620 C   0  0  0  0  0  2  0  0  0  0  0  0
  186.1900  179.1350  141.9540 C   0  0  0  0  0  2  0  0  0  0  0  0
  185.2370  179.0350  140.8400 C   0  0  0  0  0  0  0  0  0  0  0  0
  184.4480  178.9320  139.9330 C   0  0  0  0  0  0  0  0  0  0  0  0
  183.4480  178.7970  138.8680 C   0  0  0  0  0  2  0  0  0  0  0  0
  181.0620  178.7830  139.1330 O   0  0  0  0  0  1  0  0  0  0  0  0
  182.2250  178.0420  139.3790 C   0  0  1  0  0  3  0  0  0  0  0  0
  182.1040  176.6360  138.7680 C   0  0  1  0  0  0  0  0  0  0  0  0
  182.0320  175.7130  139.8100 O   0  0  0  0  0  1  0  0  0  0  0  0
  180.8150  176.5160  137.9550 C   0  0  0  0  0  1  0  0  0  0  0  0
  183.3880  176.3160  137.9710 C   0  0  0  0  0  2  0  0  0  0  0  0
  182.7300  174.5260  136.5410 O   0  0  0  0  0  0  0  0  0  0  0  0
  183.5130  174.9180  137.4510 C   0  0  0  0  0  0  0  0  0  0  0  0
  184.7450  172.7890  137.4200 C   0  0  0  0  0  1  0  0  0  0  0  0
  184.4780  174.0610  137.9860 O   0  0  0  0  0  0  0  0  0  0  0  0
  1 28  1  0  0  0  0
  2  5  1  0  0  0  0
  2  1  1  1  0  0  0
  4  5  2  0  0  0  0
  6 10  2  0  0  0  0
  7  6  1  0  0  0  0
  7  3  2  0  0  0  0
  8  3  1  6  0  0  0
  8  2  1  0  0  0  0
  9  7  1  0  0  0  0
 10  8  1  0  0  0  0
 10  4  1  0  0  0  0
 12 11  1  0  0  0  0
 12  6  1  0  0  0  0
 13 12  2  0  0  0  0
 14 18  1  0  0  0  0
 15 14  2  0  0  0  0
 15 17  1  0  0  0  0
 16 19  1  0  0  0  0
 17 21  2  0  0  0  0
 19 21  1  0  0  0  0
 20 19  2  0  0  0  0
 20 18  1  0  0  0  0
 21 11  1  0  0  0  0
 23 22  1  0  0  0  0
 23 14  1  0  0  0  0
 24 23  1  0  0  0  0
 25 23  1  0  0  0  0
 27 26  1  0  0  0  0
 27 20  1  0  0  0  0
 28 29  2  0  0  0  0
 30 33  1  6  0  0  0
 30 31  1  0  0  0  0
 32 28  1  6  0  0  0
 32 30  1  0  0  0  0
 32 31  1  0  0  0  0
 34 33  1  0  0  0  0
 35 34  1  0  0  0  0
 36 39  1  0  0  0  0
 36 35  1  0  0  0  0
 37 39  1  0  0  0  0
 38 39  1  0  0  0  0
 40  1  1  0  0  0  0
 41 40  1  0  0  0  0
 42 41  1  0  0  0  0
 43 42  3  0  0  0  0
 44 46  1  0  0  0  0
 44 43  1  0  0  0  0
 46 45  1  6  0  0  0
 47 49  1  6  0  0  0
 47 46  1  0  0  0  0
 47 48  1  0  0  0  0
 50 47  1  0  0  0  0
 51 52  2  0  0  0  0
 52 50  1  0  0  0  0
 52 54  1  0  0  0  0
 53 54  1  0  0  0  0
M  END
>  <MODEL>
6

>  <REMARK>
 VINA RESULT:      -6.5      3.341      6.146
  Name = 
  21 active torsions:
  status: ('A' for Active; 'I' for Inactive)
    1  A    between atoms: C_2  and  N_10
    2  A    between atoms: C_2  and  C_41
    3  A    between atoms: N_3  and  C_52
    4  A    between atoms: C_4  and  N_10
    5  A    between atoms: O_6  and  C_50
    6  A    between atoms: O_7  and  C_49
    7  A    between atoms: C_8  and  C_27
    8  A    between atoms: C_9  and  C_35
    9  A    between atoms: C_9  and  C_39
   10  A    between atoms: N_10  and  C_42
   11  A    between atoms: C_13  and  C_25
   12  A    between atoms: C_17  and  C_28
   13  A    between atoms: C_17  and  C_35
   14  A    between atoms: C_25  and  C_45
   15  A    between atoms: C_28  and  C_49
   16  A    between atoms: C_31  and  C_36
   17  A    between atoms: C_33  and  C_37
   18  A    between atoms: C_33  and  C_43
   19  A    between atoms: C_38  and  C_54
   20  A    between atoms: C_42  and  C_54
   21  A    between atoms: C_43  and  C_45
                            x       y       z     vdW  Elec       q    Type
                         _______ _______ _______ _____ _____    ______ ____

>  <TORSDO>
F 21

$$$$
=
 OpenBabel10222421533D

 54 57  0  0  1  0  0  0  0  0999 V2000
  184.2580  178.4920  141.4610 N   0  0  0  0  0  0  0  0  0  0  0  0
  185.1930  179.1820  140.5700 C   0  0  1  0  0  3  0  0  0  0  0  0
  184.5960  178.1150  138.3440 N   0  0  0  0  0  0  0  0  0  0  0  0
  187.5410  178.5090  140.1920 N   0  0  0  0  0  0  0  0  0  0  0  0
  186.6570  179.2220  141.1430 C   0  0  0  0  0  3  0  0  0  0  0  0
  186.8860  177.4710  137.9900 C   0  0  0  0  0  0  0  0  0  0  0  0
  185.5230  177.4840  137.4360 C   0  0  0  0  0  0  0  0  0  0  0  0
  185.3760  178.4150  139.3260 C   0  0  1  0  0  3  0  0  0  0  0  0
  185.1590  176.9240  136.3290 N   0  0  0  0  0  1  0  0  0  0  0  0
  186.7010  178.0530  139.1550 C   0  0  0  0  0  0  0  0  0  0  0  0
  188.9260  176.0090  138.0570 N   0  0  0  0  0  2  0  0  0  0  0  0
  188.1380  177.0010  137.3890 C   0  0  0  0  0  0  0  0  0  0  0  0
  188.5190  177.5110  136.3070 O   0  0  0  0  0  0  0  0  0  0  0  0
  193.0120  175.2140  136.4000 C   0  0  0  0  0  0  0  0  0  0  0  0
  192.6750  175.7390  137.5820 C   0  0  0  0  0  3  0  0  0  0  0  0
  189.2950  173.1510  137.2100 O   0  0  0  0  0  1  0  0  0  0  0  0
  191.2870  176.0650  137.9860 C   0  0  0  0  0  3  0  0  0  0  0  0
  191.9730  174.9790  135.3470 C   0  0  0  0  0  2  0  0  0  0  0  0
  190.1790  174.1590  136.8310 C   0  0  0  0  0  0  0  0  0  0  0  0
  190.9980  173.9340  135.7920 C   0  0  0  0  0  0  0  0  0  0  0  0
  190.1620  175.4460  137.5990 C   0  0  0  0  0  0  0  0  0  0  0  0
  194.6940  173.6150  135.9110 F   0  0  0  0  0  0  0  0  0  0  0  0
  194.4610  174.9710  136.0740 C   0  0  0  0  0  0  0  0  0  0  0  0
  195.2770  175.4450  137.0860 F   0  0  0  0  0  0  0  0  0  0  0  0
  194.7920  175.6370  134.9040 F   0  0  0  0  0  0  0  0  0  0  0  0
  191.9810  171.7960  135.0430 C   0  0  0  0  0  1  0  0  0  0  0  0
  190.9050  172.7180  135.1170 O   0  0  0  0  0  0  0  0  0  0  0  0
  182.8410  178.6790  141.3620 C   0  0  0  0  0  0  0  0  0  0  0  0
  182.1920  179.1600  142.4240 C   0  0  0  0  0  2  0  0  0  0  0  0
  181.4620  178.5350  139.2130 C   0  0  2  0  0  3  0  0  0  0  0  0
  180.6660  178.0270  140.3440 N   0  0  0  0  0  2  0  0  0  0  0  0
  182.1300  177.8320  140.3350 C   0  0  2  0  0  3  0  0  0  0  0  0
  181.4530  180.0620  139.2490 C   0  0  0  0  0  2  0  0  0  0  0  0
  180.8350  180.6370  137.9730 C   0  0  0  0  0  2  0  0  0  0  0  0
  180.6870  182.1620  138.0130 C   0  0  0  0  0  2  0  0  0  0  0  0
  180.6400  182.7660  136.6100 C   0  0  0  0  0  2  0  0  0  0  0  0
  180.9100  184.8100  135.4240 O   0  0  0  0  0  1  0  0  0  0  0  0
  181.0180  184.8640  137.6990 O   0  0  0  0  0  1  0  0  0  0  0  0
  181.3310  184.1190  136.5590 C   0  0  0  0  0  3  0  0  0  0  0  0
  184.8080  177.6680  142.5320 C   0  0  0  0  0  2  0  0  0  0  0  0
  185.0100  178.5060  143.7910 C   0  0  0  0  0  2  0  0  0  0  0  0
  186.0740  177.9120  144.6110 C   0  0  0  0  0  0  0  0  0  0  0  0
  186.9550  177.4450  145.2910 C   0  0  0  0  0  0  0  0  0  0  0  0
  188.0090  176.9080  146.1590 C   0  0  0  0  0  2  0  0  0  0  0  0
  189.3680  178.2950  147.5730 O   0  0  0  0  0  1  0  0  0  0  0  0
  189.1760  177.8870  146.2460 C   0  0  1  0  0  3  0  0  0  0  0  0
  190.4770  177.3030  145.6710 C   0  0  1  0  0  0  0  0  0  0  0  0
  191.2690  178.3600  145.2260 O   0  0  0  0  0  1  0  0  0  0  0  0
  191.2590  176.5670  146.7600 C   0  0  0  0  0  1  0  0  0  0  0  0
  190.1440  176.4380  144.4370 C   0  0  0  0  0  2  0  0  0  0  0  0
  189.5090  177.8040  142.5900 O   0  0  0  0  0  0  0  0  0  0  0  0
  190.3950  177.0640  143.1010 C   0  0  0  0  0  0  0  0  0  0  0  0
  191.9380  177.4890  141.2330 C   0  0  0  0  0  1  0  0  0  0  0  0
  191.5940  176.8120  142.4290 O   0  0  0  0  0  0  0  0  0  0  0  0
  1 40  1  0  0  0  0
  2  5  1  0  0  0  0
  2  1  1  1  0  0  0
  4  5  2  0  0  0  0
  6 10  2  0  0  0  0
  7  6  1  0  0  0  0
  7  3  2  0  0  0  0
  8  3  1  6  0  0  0
  8  2  1  0  0  0  0
  9  7  1  0  0  0  0
 10  8  1  0  0  0  0
 10  4  1  0  0  0  0
 12  6  1  0  0  0  0
 12 11  1  0  0  0  0
 13 12  2  0  0  0  0
 14 15  2  0  0  0  0
 15 17  1  0  0  0  0
 18 20  1  0  0  0  0
 18 14  1  0  0  0  0
 19 16  1  0  0  0  0
 19 21  1  0  0  0  0
 20 19  2  0  0  0  0
 21 17  2  0  0  0  0
 21 11  1  0  0  0  0
 22 23  1  0  0  0  0
 23 14  1  0  0  0  0
 23 24  1  0  0  0  0
 25 23  1  0  0  0  0
 26 27  1  0  0  0  0
 27 20  1  0  0  0  0
 28  1  1  0  0  0  0
 28 29  2  0  0  0  0
 30 33  1  1  0  0  0
 30 32  1  0  0  0  0
 30 31  1  0  0  0  0
 32 31  1  0  0  0  0
 32 28  1  1  0  0  0
 34 35  1  0  0  0  0
 34 33  1  0  0  0  0
 36 35  1  0  0  0  0
 37 39  1  0  0  0  0
 39 36  1  0  0  0  0
 39 38  1  0  0  0  0
 40 41  1  0  0  0  0
 41 42  1  0  0  0  0
 42 43  3  0  0  0  0
 43 44  1  0  0  0  0
 44 46  1  0  0  0  0
 46 45  1  1  0  0  0
 47 46  1  0  0  0  0
 47 49  1  1  0  0  0
 48 47  1  0  0  0  0
 50 47  1  0  0  0  0
 51 52  2  0  0  0  0
 52 50  1  0  0  0  0
 53 54  1  0  0  0  0
 54 52  1  0  0  0  0
M  END
>  <MODEL>
7

>  <REMARK>
 VINA RESULT:      -6.3      2.951      4.794
  Name = 
  21 active torsions:
  status: ('A' for Active; 'I' for Inactive)
    1  A    between atoms: C_2  and  N_10
    2  A    between atoms: C_2  and  C_41
    3  A    between atoms: N_3  and  C_52
    4  A    between atoms: C_4  and  N_10
    5  A    between atoms: O_6  and  C_50
    6  A    between atoms: O_7  and  C_49
    7  A    between atoms: C_8  and  C_27
    8  A    between atoms: C_9  and  C_35
    9  A    between atoms: C_9  and  C_39
   10  A    between atoms: N_10  and  C_42
   11  A    between atoms: C_13  and  C_25
   12  A    between atoms: C_17  and  C_28
   13  A    between atoms: C_17  and  C_35
   14  A    between atoms: C_25  and  C_45
   15  A    between atoms: C_28  and  C_49
   16  A    between atoms: C_31  and  C_36
   17  A    between atoms: C_33  and  C_37
   18  A    between atoms: C_33  and  C_43
   19  A    between atoms: C_38  and  C_54
   20  A    between atoms: C_42  and  C_54
   21  A    between atoms: C_43  and  C_45
                            x       y       z     vdW  Elec       q    Type
                         _______ _______ _______ _____ _____    ______ ____

>  <TORSDO>
F 21

$$$$
=
 OpenBabel10222421533D

 54 57  0  0  1  0  0  0  0  0999 V2000
  190.9660  175.5400  135.5510 N   0  0  0  0  0  0  0  0  0  0  0  0
  190.5010  176.8460  136.0260 C   0  0  1  0  0  3  0  0  0  0  0  0
  191.5500  176.9040  138.3390 N   0  0  0  0  0  0  0  0  0  0  0  0
  188.3040  177.2640  137.0810 N   0  0  0  0  0  0  0  0  0  0  0  0
  188.9660  177.0710  135.7690 C   0  0  0  0  0  3  0  0  0  0  0  0
  189.4060  177.3150  139.3480 C   0  0  0  0  0  0  0  0  0  0  0  0
  190.8500  177.1550  139.5760 C   0  0  0  0  0  0  0  0  0  0  0  0
  190.5740  176.9110  137.4950 C   0  0  0  0  0  0  0  0  0  0  0  0
  191.4290  177.1390  140.7320 N   0  0  0  0  0  2  0  0  0  0  0  0
  189.3250  177.1400  138.0460 C   0  0  0  0  0  0  0  0  0  0  0  0
  187.1840  178.3700  139.8520 N   0  0  0  0  0  2  0  0  0  0  0  0
  188.3380  177.6470  140.2960 C   0  0  0  0  0  0  0  0  0  0  0  0
  188.4760  177.3230  141.5010 O   0  0  0  0  0  0  0  0  0  0  0  0
  183.9770  178.8350  142.9460 C   0  0  0  0  0  0  0  0  0  0  0  0
  185.2630  179.1900  143.0130 C   0  0  0  0  0  3  0  0  0  0  0  0
  184.7870  179.8560  138.8190 O   0  0  0  0  0  1  0  0  0  0  0  0
  186.2700  178.8860  141.9690 C   0  0  0  0  0  3  0  0  0  0  0  0
  183.4720  178.0180  141.7980 C   0  0  0  0  0  2  0  0  0  0  0  0
  184.7570  179.1310  140.0080 C   0  0  0  0  0  0  0  0  0  0  0  0
  183.5640  178.7890  140.5190 C   0  0  0  0  0  0  0  0  0  0  0  0
  186.0600  178.7620  140.6500 C   0  0  0  0  0  0  0  0  0  0  0  0
  181.8550  178.4680  143.9410 F   0  0  0  0  0  0  0  0  0  0  0  0
  183.0520  179.1510  144.0900 C   0  0  0  0  0  0  0  0  0  0  0  0
  182.7870  180.5080  144.1460 F   0  0  0  0  0  0  0  0  0  0  0  0
  183.6480  178.7780  145.2850 F   0  0  0  0  0  0  0  0  0  0  0  0
  181.5800  180.2280  140.2100 C   0  0  0  0  0  1  0  0  0  0  0  0
  182.4100  179.1450  139.8210 O   0  0  0  0  0  0  0  0  0  0  0  0
  192.3460  175.2900  135.2580 C   0  0  0  0  0  0  0  0  0  0  0  0
  193.0240  176.2150  134.5760 C   0  0  0  0  0  2  0  0  0  0  0  0
  193.6350  173.3600  136.3330 C   0  0  2  0  0  3  0  0  0  0  0  0
  194.2170  173.6680  135.0140 N   0  0  0  0  0  2  0  0  0  0  0  0
  192.7660  173.8410  135.2310 C   0  0  2  0  0  3  0  0  0  0  0  0
  194.1250  174.3970  137.3420 C   0  0  0  0  0  2  0  0  0  0  0  0
  194.9450  173.7380  138.4520 C   0  0  0  0  0  2  0  0  0  0  0  0
  196.3640  174.3070  138.5680 C   0  0  0  0  0  2  0  0  0  0  0  0
  197.3590  173.5390  137.6990 C   0  0  0  0  0  2  0  0  0  0  0  0
  197.9010  174.0580  135.4420 O   0  0  0  0  0  1  0  0  0  0  0  0
  197.6690  175.7790  136.9160 O   0  0  0  0  0  1  0  0  0  0  0  0
  198.1130  174.4640  136.7590 C   0  0  0  0  0  3  0  0  0  0  0  0
  189.9680  174.5090  135.2850 C   0  0  0  0  0  2  0  0  0  0  0  0
  189.6650  173.7280  136.5600 C   0  0  0  0  0  2  0  0  0  0  0  0
  188.2240  173.7820  136.8390 C   0  0  0  0  0  0  0  0  0  0  0  0
  187.0360  173.8200  137.0450 C   0  0  0  0  0  0  0  0  0  0  0  0
  185.5870  173.8150  137.2780 C   0  0  0  0  0  2  0  0  0  0  0  0
  185.5990  175.9510  136.1820 O   0  0  0  0  0  1  0  0  0  0  0  0
  185.0380  175.2380  137.2490 C   0  0  1  0  0  3  0  0  0  0  0  0
  183.5030  175.2750  137.1700 C   0  0  1  0  0  0  0  0  0  0  0  0
  182.9930  174.7820  138.3700 O   0  0  0  0  0  1  0  0  0  0  0  0
  183.0110  176.7140  137.0150 C   0  0  0  0  0  1  0  0  0  0  0  0
  183.0280  174.3200  136.0530 C   0  0  0  0  0  2  0  0  0  0  0  0
  180.6820  173.9060  136.1120 O   0  0  0  0  0  0  0  0  0  0  0  0
  181.8380  173.4700  136.3690 C   0  0  0  0  0  0  0  0  0  0  0  0
  182.9510  171.2770  136.4530 C   0  0  0  0  0  1  0  0  0  0  0  0
  182.0170  172.2160  136.9600 O   0  0  0  0  0  0  0  0  0  0  0  0
  2  1  1  1  0  0  0
  2  8  1  0  0  0  0
  3  7  1  0  0  0  0
  4 10  1  0  0  0  0
  5  2  1  0  0  0  0
  5  4  2  0  0  0  0
  6  7  1  0  0  0  0
  6 12  1  0  0  0  0
  7  9  2  0  0  0  0
  8 10  1  0  0  0  0
  8  3  2  0  0  0  0
 10  6  2  0  0  0  0
 11 12  1  0  0  0  0
 11 21  1  0  0  0  0
 12 13  2  0  0  0  0
 14 15  2  0  0  0  0
 14 23  1  0  0  0  0
 16 19  1  0  0  0  0
 17 15  1  0  0  0  0
 18 14  1  0  0  0  0
 19 20  2  0  0  0  0
 19 21  1  0  0  0  0
 20 18  1  0  0  0  0
 21 17  2  0  0  0  0
 22 23  1  0  0  0  0
 23 24  1  0  0  0  0
 23 25  1  0  0  0  0
 27 26  1  0  0  0  0
 27 20  1  0  0  0  0
 28  1  1  0  0  0  0
 29 28  2  0  0  0  0
 30 33  1  1  0  0  0
 31 32  1  0  0  0  0
 31 30  1  0  0  0  0
 32 28  1  1  0  0  0
 32 30  1  0  0  0  0
 33 34  1  0  0  0  0
 34 35  1  0  0  0  0
 36 35  1  0  0  0  0
 37 39  1  0  0  0  0
 39 38  1  0  0  0  0
 39 36  1  0  0  0  0
 40  1  1  0  0  0  0
 40 41  1  0  0  0  0
 41 42  1  0  0  0  0
 42 43  3  0  0  0  0
 43 44  1  0  0  0  0
 46 45  1  6  0  0  0
 46 44  1  0  0  0  0
 47 49  1  6  0  0  0
 47 46  1  0  0  0  0
 47 48  1  0  0  0  0
 50 52  1  0  0  0  0
 50 47  1  0  0  0  0
 51 52  2  0  0  0  0
 52 54  1  0  0  0  0
 53 54  1  0  0  0  0
M  END
>  <MODEL>
8

>  <REMARK>
 VINA RESULT:      -6.0      5.439     11.610
  Name = 
  21 active torsions:
  status: ('A' for Active; 'I' for Inactive)
    1  A    between atoms: C_2  and  N_10
    2  A    between atoms: C_2  and  C_41
    3  A    between atoms: N_3  and  C_52
    4  A    between atoms: C_4  and  N_10
    5  A    between atoms: O_6  and  C_50
    6  A    between atoms: O_7  and  C_49
    7  A    between atoms: C_8  and  C_27
    8  A    between atoms: C_9  and  C_35
    9  A    between atoms: C_9  and  C_39
   10  A    between atoms: N_10  and  C_42
   11  A    between atoms: C_13  and  C_25
   12  A    between atoms: C_17  and  C_28
   13  A    between atoms: C_17  and  C_35
   14  A    between atoms: C_25  and  C_45
   15  A    between atoms: C_28  and  C_49
   16  A    between atoms: C_31  and  C_36
   17  A    between atoms: C_33  and  C_37
   18  A    between atoms: C_33  and  C_43
   19  A    between atoms: C_38  and  C_54
   20  A    between atoms: C_42  and  C_54
   21  A    between atoms: C_43  and  C_45
                            x       y       z     vdW  Elec       q    Type
                         _______ _______ _______ _____ _____    ______ ____

>  <TORSDO>
F 21

$$$$
=
 OpenBabel10222421533D

 54 57  0  0  1  0  0  0  0  0999 V2000
  189.6360  175.1460  135.4240 N   0  0  0  0  0  0  0  0  0  0  0  0
  189.5750  176.5420  135.8660 C   0  0  1  0  0  3  0  0  0  0  0  0
  191.2430  176.5000  137.7810 N   0  0  0  0  0  0  0  0  0  0  0  0
  187.8950  177.4550  137.4320 N   0  0  0  0  0  0  0  0  0  0  0  0
  188.1000  177.0640  136.0170 C   0  0  0  0  0  3  0  0  0  0  0  0
  189.5970  177.3940  139.2900 C   0  0  0  0  0  0  0  0  0  0  0  0
  190.9910  176.9520  139.1280 C   0  0  0  0  0  0  0  0  0  0  0  0
  190.0830  176.6640  137.2430 C   0  0  0  0  0  0  0  0  0  0  0  0
  191.8680  176.8760  140.0750 N   0  0  0  0  0  2  0  0  0  0  0  0
  189.1110  177.1730  138.0870 C   0  0  0  0  0  0  0  0  0  0  0  0
  188.6470  177.1830  141.6050 N   0  0  0  0  0  2  0  0  0  0  0  0
  188.9310  177.9860  140.4530 C   0  0  0  0  0  0  0  0  0  0  0  0
  188.5820  179.1920  140.4020 O   0  0  0  0  0  0  0  0  0  0  0  0
  187.1230  177.7190  145.7830 C   0  0  0  0  0  0  0  0  0  0  0  0
  188.3410  177.9760  145.2970 C   0  0  0  0  0  3  0  0  0  0  0  0
  186.1800  178.8910  141.7250 O   0  0  0  0  0  1  0  0  0  0  0  0
  188.7740  177.6530  143.9160 C   0  0  0  0  0  3  0  0  0  0  0  0
  186.1060  177.0010  144.9510 C   0  0  0  0  0  2  0  0  0  0  0  0
  186.5960  178.1090  142.8000 C   0  0  0  0  0  0  0  0  0  0  0  0
  185.7110  177.8290  143.7690 C   0  0  0  0  0  0  0  0  0  0  0  0
  188.0110  177.6140  142.8150 C   0  0  0  0  0  0  0  0  0  0  0  0
  185.4800  177.7520  147.4940 F   0  0  0  0  0  0  0  0  0  0  0  0
  186.8070  178.0420  147.2190 C   0  0  0  0  0  0  0  0  0  0  0  0
  187.0340  179.3810  147.4810 F   0  0  0  0  0  0  0  0  0  0  0  0
  187.6230  177.2930  148.0530 F   0  0  0  0  0  0  0  0  0  0  0  0
  183.8020  179.1600  144.5970 C   0  0  0  0  0  1  0  0  0  0  0  0
  184.4060  178.3040  143.6410 O   0  0  0  0  0  0  0  0  0  0  0  0
  190.8740  174.5180  135.0710 C   0  0  0  0  0  0  0  0  0  0  0  0
  191.7570  175.2200  134.3580 C   0  0  0  0  0  2  0  0  0  0  0  0
  191.9020  172.2950  135.8090 C   0  0  2  0  0  3  0  0  0  0  0  0
  192.0500  172.4460  134.3500 N   0  0  0  0  0  2  0  0  0  0  0  0
  190.8630  173.0090  135.0270 C   0  0  2  0  0  3  0  0  0  0  0  0
  192.9640  173.1450  136.5030 C   0  0  0  0  0  2  0  0  0  0  0  0
  194.2380  172.3360  136.7530 C   0  0  0  0  0  2  0  0  0  0  0  0
  195.5020  173.0290  136.2310 C   0  0  0  0  0  2  0  0  0  0  0  0
  195.5640  174.4950  136.6560 C   0  0  0  0  0  2  0  0  0  0  0  0
  196.7900  176.4530  136.0860 O   0  0  0  0  0  1  0  0  0  0  0  0
  197.7510  174.9570  137.5100 O   0  0  0  0  0  1  0  0  0  0  0  0
  196.9320  175.0990  136.3880 C   0  0  0  0  0  3  0  0  0  0  0  0
  188.3800  174.4220  135.2560 C   0  0  0  0  0  2  0  0  0  0  0  0
  188.0360  173.6600  136.5320 C   0  0  0  0  0  2  0  0  0  0  0  0
  186.6540  173.9640  136.9280 C   0  0  0  0  0  0  0  0  0  0  0  0
  185.5120  174.2080  137.2320 C   0  0  0  0  0  0  0  0  0  0  0  0
  184.1090  174.4550  137.5820 C   0  0  0  0  0  2  0  0  0  0  0  0
  184.5160  176.4910  136.3750 O   0  0  0  0  0  1  0  0  0  0  0  0
  183.7760  175.9360  137.4270 C   0  0  1  0  0  3  0  0  0  0  0  0
  182.2730  176.1820  137.2130 C   0  0  1  0  0  0  0  0  0  0  0  0
  182.0980  176.7310  135.9450 O   0  0  0  0  0  1  0  0  0  0  0  0
  181.5050  174.8600  137.2550 C   0  0  0  0  0  1  0  0  0  0  0  0
  181.7800  177.2320  138.2320 C   0  0  0  0  0  2  0  0  0  0  0  0
  182.6330  176.5910  140.3630 O   0  0  0  0  0  0  0  0  0  0  0  0
  182.6460  177.4460  139.4340 C   0  0  0  0  0  0  0  0  0  0  0  0
  183.1750  179.7490  138.7500 C   0  0  0  0  0  1  0  0  0  0  0  0
  183.4410  178.5910  139.5230 O   0  0  0  0  0  0  0  0  0  0  0  0
  2  1  1  1  0  0  0
  2  5  1  0  0  0  0
  2  8  1  0  0  0  0
  3  7  1  0  0  0  0
  4 10  1  0  0  0  0
  5  4  2  0  0  0  0
  6 12  1  0  0  0  0
  7  6  1  0  0  0  0
  7  9  2  0  0  0  0
  8  3  2  0  0  0  0
  8 10  1  0  0  0  0
 10  6  2  0  0  0  0
 11 21  1  0  0  0  0
 12 11  1  0  0  0  0
 13 12  2  0  0  0  0
 14 23  1  0  0  0  0
 15 14  2  0  0  0  0
 16 19  1  0  0  0  0
 17 15  1  0  0  0  0
 18 14  1  0  0  0  0
 19 21  1  0  0  0  0
 19 20  2  0  0  0  0
 20 18  1  0  0  0  0
 21 17  2  0  0  0  0
 23 24  1  0  0  0  0
 23 22  1  0  0  0  0
 23 25  1  0  0  0  0
 27 20  1  0  0  0  0
 27 26  1  0  0  0  0
 28  1  1  0  0  0  0
 29 28  2  0  0  0  0
 30 33  1  1  0  0  0
 31 32  1  0  0  0  0
 31 30  1  0  0  0  0
 32 28  1  1  0  0  0
 32 30  1  0  0  0  0
 33 34  1  0  0  0  0
 35 36  1  0  0  0  0
 35 34  1  0  0  0  0
 37 39  1  0  0  0  0
 39 36  1  0  0  0  0
 39 38  1  0  0  0  0
 40  1  1  0  0  0  0
 40 41  1  0  0  0  0
 41 42  1  0  0  0  0
 42 43  3  0  0  0  0
 43 44  1  0  0  0  0
 46 45  1  6  0  0  0
 46 44  1  0  0  0  0
 47 49  1  1  0  0  0
 47 46  1  0  0  0  0
 47 50  1  0  0  0  0
 48 47  1  0  0  0  0
 50 52  1  0  0  0  0
 52 54  1  0  0  0  0
 52 51  2  0  0  0  0
 53 54  1  0  0  0  0
M  END
>  <MODEL>
9

>  <REMARK>
 VINA RESULT:      -6.0      4.747     10.789
  Name = 
  21 active torsions:
  status: ('A' for Active; 'I' for Inactive)
    1  A    between atoms: C_2  and  N_10
    2  A    between atoms: C_2  and  C_41
    3  A    between atoms: N_3  and  C_52
    4  A    between atoms: C_4  and  N_10
    5  A    between atoms: O_6  and  C_50
    6  A    between atoms: O_7  and  C_49
    7  A    between atoms: C_8  and  C_27
    8  A    between atoms: C_9  and  C_35
    9  A    between atoms: C_9  and  C_39
   10  A    between atoms: N_10  and  C_42
   11  A    between atoms: C_13  and  C_25
   12  A    between atoms: C_17  and  C_28
   13  A    between atoms: C_17  and  C_35
   14  A    between atoms: C_25  and  C_45
   15  A    between atoms: C_28  and  C_49
   16  A    between atoms: C_31  and  C_36
   17  A    between atoms: C_33  and  C_37
   18  A    between atoms: C_33  and  C_43
   19  A    between atoms: C_38  and  C_54
   20  A    between atoms: C_42  and  C_54
   21  A    between atoms: C_43  and  C_45
                            x       y       z     vdW  Elec       q    Type
                         _______ _______ _______ _____ _____    ______ ____

>  <TORSDO>
F 21

$$$$
