=
 OpenBabel10232412163D

 48 51  0  0  1  0  0  0  0  0999 V2000
  186.7810  175.9580  136.8970 C   0  0  0  0  0  0  0  0  0  0  0  0
  188.1300  176.3180  136.3590 C   0  0  0  0  0  2  0  0  0  0  0  0
  189.2470  175.7210  137.1480 C   0  0  0  0  0  0  0  0  0  0  0  0
  189.4090  174.3900  137.2400 C   0  0  0  0  0  3  0  0  0  0  0  0
  187.1550  173.4950  136.5980 C   0  0  0  0  0  3  0  0  0  0  0  0
  188.4760  173.3590  136.7550 C   0  0  0  0  0  3  0  0  0  0  0  0
  186.3470  174.6940  136.8820 C   0  0  0  0  0  3  0  0  0  0  0  0
  190.2820  176.6490  137.7070 C   0  0  2  0  0  3  0  0  0  0  0  0
  192.5720  176.7820  138.6740 C   0  0  0  0  0  2  0  0  0  0  0  0
  192.6600  176.0940  137.3680 N   0  0  0  0  0  0  0  0  0  0  0  0
  191.4960  175.8840  138.2590 C   0  0  2  0  0  3  0  0  0  0  0  0
  193.4710  174.8830  137.4890 C   0  0  0  0  0  2  0  0  0  0  0  0
  194.7070  174.9090  136.5700 C   0  0  0  0  0  2  0  0  0  0  0  0
  195.9360  175.1700  137.3090 N   0  0  0  0  0  0  0  0  0  0  0  0
  195.6310  174.9360  138.6080 O   0  0  0  0  0  1  0  0  0  0  0  0
  198.0130  174.3490  137.8560 C   0  0  0  0  0  1  0  0  0  0  0  0
  196.8870  174.1970  136.9510 N   0  0  0  0  0  2  0  0  0  0  0  0
  189.6800  177.5820  138.7210 C   0  0  0  0  0  0  0  0  0  0  0  0
  189.4640  178.7910  138.4280 O   0  0  0  0  0  0  0  0  0  0  0  0
  189.3030  177.0650  140.0010 N   0  0  0  0  0  2  0  0  0  0  0  0
  188.4610  177.7950  140.9370 C   0  0  0  0  0  2  0  0  0  0  0  0
  189.2060  178.0560  142.2020 C   0  0  0  0  0  3  0  0  0  0  0  0
  188.3740  176.0710  143.1930 O   0  0  0  0  0  1  0  0  0  0  0  0
  189.1450  177.2330  143.2560 C   0  0  0  0  0  0  0  0  0  0  0  0
  189.9660  177.5020  144.5010 C   0  0  2  0  0  3  0  0  0  0  0  0
  191.6970  175.9150  143.9540 C   0  0  0  0  0  1  0  0  0  0  0  0
  190.7200  176.3330  144.9630 N   0  0  0  0  0  2  0  0  0  0  0  0
  189.2990  178.2570  145.6670 C   0  0  0  0  0  2  0  0  0  0  0  0
  188.4640  177.4120  146.6270 C   0  0  0  0  0  3  0  0  0  0  0  0
  187.3060  177.0120  145.9910 F   0  0  0  0  0  0  0  0  0  0  0  0
  188.1260  178.1310  147.7600 F   0  0  0  0  0  0  0  0  0  0  0  0
  185.8330  177.0030  137.1440 N   0  0  0  0  0  0  0  0  0  0  0  0
  186.3020  178.2590  137.7130 C   0  0  0  0  0  2  0  0  0  0  0  0
  185.2740  178.8480  138.5610 N   0  0  0  0  0  2  0  0  0  0  0  0
  182.9200  178.7000  144.0860 C   0  0  0  0  0  3  0  0  0  0  0  0
  185.3270  178.9160  144.4060 C   0  0  0  0  0  3  0  0  0  0  0  0
  185.5170  178.9560  143.0190 C   0  0  0  0  0  3  0  0  0  0  0  0
  183.8570  178.7250  146.2770 F   0  0  0  0  0  0  0  0  0  0  0  0
  185.3490  178.8370  139.9680 N   0  0  0  0  0  2  0  0  0  0  0  0
  183.1280  178.7560  142.7080 C   0  0  0  0  0  0  0  0  0  0  0  0
  184.3140  178.8890  140.7570 C   0  0  0  0  0  0  0  0  0  0  0  0
  182.0870  178.6950  141.6420 C   0  0  0  0  0  3  0  0  0  0  0  0
  184.3920  178.8680  142.1950 C   0  0  0  0  0  0  0  0  0  0  0  0
  182.8780  178.8190  140.3290 C   0  0  0  0  0  3  0  0  0  0  0  0
  184.0300  178.7810  144.9350 C   0  0  2  0  0  3  0  0  0  0  0  0
  184.4310  176.6590  137.3650 C   0  0  0  0  0  2  0  0  0  0  0  0
  183.6050  177.0510  136.1860 C   0  0  0  0  0  3  0  0  0  0  0  0
  182.4250  177.6330  136.3690 C   0  0  0  0  0  2  0  0  0  0  0  0
  1 32  1  0  0  0  0
  2  1  1  0  0  0  0
  2  3  1  0  0  0  0
  3  4  2  0  0  0  0
  3  8  1  0  0  0  0
  5  6  2  0  0  0  0
  5  7  1  0  0  0  0
  6  4  1  0  0  0  0
  7  1  2  0  0  0  0
  8 18  1  1  0  0  0
 10 12  1  0  0  0  0
 10 11  1  0  0  0  0
 10  9  1  0  0  0  0
 11  8  1  6  0  0  0
 11  9  1  0  0  0  0
 13 14  1  0  0  0  0
 13 12  1  0  0  0  0
 14 15  1  0  0  0  0
 17 14  1  0  0  0  0
 17 16  1  0  0  0  0
 18 20  1  0  0  0  0
 19 18  2  0  0  0  0
 20 21  1  0  0  0  0
 21 22  1  0  0  0  0
 22 24  2  0  0  0  0
 23 24  1  0  0  0  0
 24 25  1  0  0  0  0
 25 27  1  0  0  0  0
 25 28  1  1  0  0  0
 26 27  1  0  0  0  0
 28 29  1  0  0  0  0
 29 31  1  0  0  0  0
 30 29  1  0  0  0  0
 32 46  1  0  0  0  0
 32 33  1  0  0  0  0
 33 34  1  0  0  0  0
 34 39  1  0  0  0  0
 35 45  1  0  0  0  0
 36 45  1  0  0  0  0
 37 36  2  0  0  0  0
 39 41  1  0  0  0  0
 40 35  2  0  0  0  0
 41 43  2  0  0  0  0
 42 40  1  0  0  0  0
 43 40  1  0  0  0  0
 43 37  1  0  0  0  0
 44 41  1  0  0  0  0
 44 42  2  0  0  0  0
 45 38  1  6  0  0  0
 47 48  2  0  0  0  0
 47 46  1  0  0  0  0
M  END
>  <MODEL>
1

>  <REMARK>
 VINA RESULT:      -7.7      0.000      0.000
  Name = 
  19 active torsions:
  status: ('A' for Active; 'I' for Inactive)
    1  A    between atoms: N_2  and  N_16
    2  A    between atoms: N_2  and  C_31
    3  A    between atoms: C_3  and  C_43
    4  A    between atoms: C_4  and  C_29
    5  A    between atoms: C_6  and  C_29
    6  A    between atoms: C_6  and  N_37
    7  A    between atoms: C_6  and  C_46
    8  A    between atoms: C_7  and  N_25
    9  A    between atoms: C_9  and  C_42
   10  A    between atoms: C_13  and  C_28
   11  A    between atoms: N_17  and  C_19
   12  A    between atoms: N_17  and  N_30
   13  A    between atoms: C_19  and  C_35
   14  A    between atoms: N_25  and  C_28
   15  A    between atoms: N_25  and  C_31
   16  A    between atoms: N_32  and  C_35
   17  A    between atoms: C_34  and  C_43
   18  A    between atoms: C_39  and  C_43
   19  A    between atoms: N_41  and  C_42
                            x       y       z     vdW  Elec       q    Type
                         _______ _______ _______ _____ _____    ______ ____

>  <TORSDO>
F 19

$$$$
=
 OpenBabel10232412163D

 48 51  0  0  1  0  0  0  0  0999 V2000
  185.1270  176.0330  137.0660 C   0  0  0  0  0  0  0  0  0  0  0  0
  186.3750  176.2120  136.2600 C   0  0  0  0  0  2  0  0  0  0  0  0
  187.5870  175.6700  136.9410 C   0  0  0  0  0  0  0  0  0  0  0  0
  187.7100  174.3620  137.2220 C   0  0  0  0  0  3  0  0  0  0  0  0
  185.3440  173.5330  137.1200 C   0  0  0  0  0  3  0  0  0  0  0  0
  186.6650  173.3340  137.0750 C   0  0  0  0  0  3  0  0  0  0  0  0
  184.6470  174.8140  137.3320 C   0  0  0  0  0  3  0  0  0  0  0  0
  188.7410  176.6010  137.1590 C   0  0  2  0  0  3  0  0  0  0  0  0
  191.1380  176.7440  137.8150 C   0  0  0  0  0  2  0  0  0  0  0  0
  191.0590  176.1140  136.4790 N   0  0  0  0  0  0  0  0  0  0  0  0
  190.0310  175.8410  137.5080 C   0  0  2  0  0  3  0  0  0  0  0  0
  191.8990  174.9170  136.4350 C   0  0  0  0  0  2  0  0  0  0  0  0
  193.3830  175.2480  136.1900 C   0  0  0  0  0  2  0  0  0  0  0  0
  194.2420  174.0840  136.3600 N   0  0  0  0  0  0  0  0  0  0  0  0
  195.5090  174.5560  136.2870 O   0  0  0  0  0  1  0  0  0  0  0  0
  195.3160  173.8810  138.3830 C   0  0  0  0  0  1  0  0  0  0  0  0
  194.0820  173.5980  137.6700 N   0  0  0  0  0  2  0  0  0  0  0  0
  188.4000  177.6540  138.1770 C   0  0  0  0  0  0  0  0  0  0  0  0
  188.1310  178.8330  137.8130 O   0  0  0  0  0  0  0  0  0  0  0  0
  188.3270  177.2850  139.5580 N   0  0  0  0  0  2  0  0  0  0  0  0
  187.7330  178.1350  140.5780 C   0  0  0  0  0  2  0  0  0  0  0  0
  188.7290  178.4240  141.6500 C   0  0  0  0  0  3  0  0  0  0  0  0
  188.0570  176.5230  142.8940 O   0  0  0  0  0  1  0  0  0  0  0  0
  188.8590  177.6530  142.7380 C   0  0  0  0  0  0  0  0  0  0  0  0
  189.9260  177.9460  143.7740 C   0  0  2  0  0  3  0  0  0  0  0  0
  191.7550  179.3620  144.4540 C   0  0  0  0  0  1  0  0  0  0  0  0
  190.8990  178.9530  143.3380 N   0  0  0  0  0  2  0  0  0  0  0  0
  190.6030  176.7560  144.4800 C   0  0  0  0  0  2  0  0  0  0  0  0
  191.3980  175.8050  143.5870 C   0  0  0  0  0  3  0  0  0  0  0  0
  190.5280  174.9310  142.9660 F   0  0  0  0  0  0  0  0  0  0  0  0
  192.3130  175.0760  144.3240 F   0  0  0  0  0  0  0  0  0  0  0  0
  184.2800  177.1650  137.2910 N   0  0  0  0  0  0  0  0  0  0  0  0
  184.7500  178.2350  138.1600 C   0  0  0  0  0  2  0  0  0  0  0  0
  183.8810  178.3660  139.3210 N   0  0  0  0  0  0  0  0  0  0  0  0
  183.3130  178.8120  145.2850 C   0  0  0  0  0  3  0  0  0  0  0  0
  185.6890  178.4520  144.8790 C   0  0  0  0  0  3  0  0  0  0  0  0
  185.4610  178.4380  143.4980 C   0  0  0  0  0  3  0  0  0  0  0  0
  184.8420  178.6250  147.1040 F   0  0  0  0  0  0  0  0  0  0  0  0
  184.3680  178.3450  140.6440 N   0  0  0  0  0  0  0  0  0  0  0  0
  183.1070  178.8080  143.9060 C   0  0  0  0  0  0  0  0  0  0  0  0
  183.6550  178.6460  141.6910 C   0  0  0  0  0  0  0  0  0  0  0  0
  181.8090  178.9900  143.1930 C   0  0  0  0  0  3  0  0  0  0  0  0
  184.1520  178.6150  143.0430 C   0  0  0  0  0  0  0  0  0  0  0  0
  182.1800  178.9160  141.7030 C   0  0  0  0  0  3  0  0  0  0  0  0
  184.6140  178.6310  145.7690 C   0  0  2  0  0  3  0  0  0  0  0  0
  182.8340  177.0160  137.1480 C   0  0  0  0  0  2  0  0  0  0  0  0
  182.3410  177.7960  135.9760 C   0  0  0  0  0  3  0  0  0  0  0  0
  182.1660  177.1920  134.8060 C   0  0  0  0  0  2  0  0  0  0  0  0
  1 32  1  0  0  0  0
  1  7  2  0  0  0  0
  2  3  1  0  0  0  0
  2  1  1  0  0  0  0
  3  8  1  0  0  0  0
  3  4  2  0  0  0  0
  5  7  1  0  0  0  0
  6  5  2  0  0  0  0
  6  4  1  0  0  0  0
  8 18  1  1  0  0  0
 10 11  1  0  0  0  0
 10  9  1  0  0  0  0
 11  8  1  6  0  0  0
 11  9  1  0  0  0  0
 12 10  1  0  0  0  0
 13 14  1  0  0  0  0
 13 12  1  0  0  0  0
 14 17  1  0  0  0  0
 15 14  1  0  0  0  0
 17 16  1  0  0  0  0
 18 20  1  0  0  0  0
 19 18  2  0  0  0  0
 20 21  1  0  0  0  0
 21 22  1  0  0  0  0
 22 24  2  0  0  0  0
 24 23  1  0  0  0  0
 24 25  1  0  0  0  0
 25 28  1  6  0  0  0
 27 25  1  0  0  0  0
 27 26  1  0  0  0  0
 29 31  1  0  0  0  0
 29 28  1  0  0  0  0
 30 29  1  0  0  0  0
 32 33  1  0  0  0  0
 33 34  1  0  0  0  0
 34 39  2  0  0  0  0
 35 45  1  0  0  0  0
 36 45  1  0  0  0  0
 37 36  2  0  0  0  0
 39 41  1  0  0  0  0
 40 35  2  0  0  0  0
 41 44  1  0  0  0  0
 41 43  2  0  0  0  0
 42 40  1  0  0  0  0
 43 37  1  0  0  0  0
 43 40  1  0  0  0  0
 44 42  2  0  0  0  0
 45 38  1  1  0  0  0
 46 32  1  0  0  0  0
 47 46  1  0  0  0  0
 48 47  2  0  0  0  0
M  END
>  <MODEL>
2

>  <REMARK>
 VINA RESULT:      -6.9      1.741      2.118
  Name = 
  19 active torsions:
  status: ('A' for Active; 'I' for Inactive)
    1  A    between atoms: N_2  and  N_16
    2  A    between atoms: N_2  and  C_31
    3  A    between atoms: C_3  and  C_43
    4  A    between atoms: C_4  and  C_29
    5  A    between atoms: C_6  and  C_29
    6  A    between atoms: C_6  and  N_37
    7  A    between atoms: C_6  and  C_46
    8  A    between atoms: C_7  and  N_25
    9  A    between atoms: C_9  and  C_42
   10  A    between atoms: C_13  and  C_28
   11  A    between atoms: N_17  and  C_19
   12  A    between atoms: N_17  and  N_30
   13  A    between atoms: C_19  and  C_35
   14  A    between atoms: N_25  and  C_28
   15  A    between atoms: N_25  and  C_31
   16  A    between atoms: N_32  and  C_35
   17  A    between atoms: C_34  and  C_43
   18  A    between atoms: C_39  and  C_43
   19  A    between atoms: N_41  and  C_42
                            x       y       z     vdW  Elec       q    Type
                         _______ _______ _______ _____ _____    ______ ____

>  <TORSDO>
F 19

$$$$
=
 OpenBabel10232412163D

 48 51  0  0  1  0  0  0  0  0999 V2000
  183.7910  175.4350  137.6490 C   0  0  0  0  0  0  0  0  0  0  0  0
  184.7040  175.9060  136.5610 C   0  0  0  0  0  2  0  0  0  0  0  0
  186.1460  175.8160  136.9350 C   0  0  0  0  0  0  0  0  0  0  0  0
  186.7310  174.6360  137.1990 C   0  0  0  0  0  3  0  0  0  0  0  0
  184.7840  173.1300  137.6870 C   0  0  0  0  0  3  0  0  0  0  0  0
  186.0560  173.3340  137.3260 C   0  0  0  0  0  3  0  0  0  0  0  0
  183.7890  174.1570  138.0420 C   0  0  0  0  0  3  0  0  0  0  0  0
  186.9680  177.0660  136.8520 C   0  0  2  0  0  3  0  0  0  0  0  0
  189.1130  177.8390  135.8530 C   0  0  0  0  0  2  0  0  0  0  0  0
  188.6670  176.6340  135.1200 N   0  0  0  0  0  0  0  0  0  0  0  0
  188.4490  176.7580  136.5790 C   0  0  2  0  0  3  0  0  0  0  0  0
  189.7790  175.6960  134.9660 C   0  0  0  0  0  2  0  0  0  0  0  0
  191.0830  176.2220  135.5950 C   0  0  0  0  0  2  0  0  0  0  0  0
  191.6800  175.2580  136.5100 N   0  0  0  0  0  0  0  0  0  0  0  0
  190.9330  174.1360  136.3880 O   0  0  0  0  0  1  0  0  0  0  0  0
  193.5650  174.0430  137.0180 C   0  0  0  0  0  1  0  0  0  0  0  0
  192.9620  174.9260  136.0350 N   0  0  0  0  0  2  0  0  0  0  0  0
  186.7750  177.9230  138.0730 C   0  0  0  0  0  0  0  0  0  0  0  0
  185.7960  178.7160  138.1480 O   0  0  0  0  0  0  0  0  0  0  0  0
  187.6810  177.7800  139.1700 N   0  0  0  0  0  2  0  0  0  0  0  0
  187.4250  178.3340  140.4910 C   0  0  0  0  0  2  0  0  0  0  0  0
  188.7080  178.5110  141.2320 C   0  0  0  0  0  3  0  0  0  0  0  0
  188.4530  176.4260  142.3270 O   0  0  0  0  0  1  0  0  0  0  0  0
  189.1690  177.6010  142.0990 C   0  0  0  0  0  0  0  0  0  0  0  0
  190.5070  177.7900  142.7840 C   0  0  2  0  0  3  0  0  0  0  0  0
  191.3310  176.9910  140.6640 C   0  0  0  0  0  1  0  0  0  0  0  0
  191.6420  177.7840  141.8560 N   0  0  0  0  0  2  0  0  0  0  0  0
  190.7980  176.9710  144.0570 C   0  0  0  0  0  2  0  0  0  0  0  0
  190.0670  177.4120  145.3240 C   0  0  0  0  0  3  0  0  0  0  0  0
  188.9460  176.6250  145.4990 F   0  0  0  0  0  0  0  0  0  0  0  0
  189.6760  178.7360  145.2390 F   0  0  0  0  0  0  0  0  0  0  0  0
  182.7060  176.2760  138.0550 N   0  0  0  0  0  0  0  0  0  0  0  0
  182.5120  176.5390  139.4750 C   0  0  0  0  0  2  0  0  0  0  0  0
  183.2290  177.7440  139.8720 N   0  0  0  0  0  2  0  0  0  0  0  0
  184.0980  178.9260  145.6970 C   0  0  0  0  0  3  0  0  0  0  0  0
  186.2760  178.2530  144.8340 C   0  0  0  0  0  3  0  0  0  0  0  0
  185.7330  178.1080  143.5500 C   0  0  0  0  0  3  0  0  0  0  0  0
  185.9850  178.7730  147.1450 F   0  0  0  0  0  0  0  0  0  0  0  0
  184.0050  177.8180  141.0450 N   0  0  0  0  0  2  0  0  0  0  0  0
  183.5790  178.7900  144.4100 C   0  0  0  0  0  0  0  0  0  0  0  0
  183.5830  178.3160  142.1720 C   0  0  0  0  0  0  0  0  0  0  0  0
  182.1720  179.0370  143.9800 C   0  0  0  0  0  3  0  0  0  0  0  0
  184.3750  178.3810  143.3730 C   0  0  0  0  0  0  0  0  0  0  0  0
  182.1790  178.7530  142.4690 C   0  0  0  0  0  3  0  0  0  0  0  0
  185.4550  178.6540  145.9040 C   0  0  2  0  0  3  0  0  0  0  0  0
  181.5330  176.3970  137.1940 C   0  0  0  0  0  2  0  0  0  0  0  0
  181.1140  177.8250  137.0790 C   0  0  0  0  0  3  0  0  0  0  0  0
  181.9230  178.7070  136.5030 C   0  0  0  0  0  2  0  0  0  0  0  0
  1  7  2  0  0  0  0
  1 32  1  0  0  0  0
  2  3  1  0  0  0  0
  2  1  1  0  0  0  0
  3  4  2  0  0  0  0
  4  6  1  0  0  0  0
  5  7  1  0  0  0  0
  6  5  2  0  0  0  0
  8  3  1  0  0  0  0
  8 18  1  1  0  0  0
  9 11  1  0  0  0  0
 10  9  1  0  0  0  0
 10 11  1  0  0  0  0
 11  8  1  6  0  0  0
 12 10  1  0  0  0  0
 12 13  1  0  0  0  0
 13 14  1  0  0  0  0
 15 14  1  0  0  0  0
 17 14  1  0  0  0  0
 17 16  1  0  0  0  0
 18 19  2  0  0  0  0
 18 20  1  0  0  0  0
 20 21  1  0  0  0  0
 21 22  1  0  0  0  0
 22 24  2  0  0  0  0
 24 23  1  0  0  0  0
 24 25  1  0  0  0  0
 25 28  1  1  0  0  0
 26 27  1  0  0  0  0
 27 25  1  0  0  0  0
 28 29  1  0  0  0  0
 29 30  1  0  0  0  0
 31 29  1  0  0  0  0
 32 33  1  0  0  0  0
 33 34  1  0  0  0  0
 34 39  1  0  0  0  0
 35 45  1  0  0  0  0
 36 45  1  0  0  0  0
 37 36  2  0  0  0  0
 39 41  1  0  0  0  0
 40 35  2  0  0  0  0
 41 44  1  0  0  0  0
 41 43  2  0  0  0  0
 42 40  1  0  0  0  0
 43 37  1  0  0  0  0
 43 40  1  0  0  0  0
 44 42  2  0  0  0  0
 45 38  1  1  0  0  0
 46 32  1  0  0  0  0
 47 46  1  0  0  0  0
 48 47  2  0  0  0  0
M  END
>  <MODEL>
3

>  <REMARK>
 VINA RESULT:      -6.6      2.117      2.970
  Name = 
  19 active torsions:
  status: ('A' for Active; 'I' for Inactive)
    1  A    between atoms: N_2  and  N_16
    2  A    between atoms: N_2  and  C_31
    3  A    between atoms: C_3  and  C_43
    4  A    between atoms: C_4  and  C_29
    5  A    between atoms: C_6  and  C_29
    6  A    between atoms: C_6  and  N_37
    7  A    between atoms: C_6  and  C_46
    8  A    between atoms: C_7  and  N_25
    9  A    between atoms: C_9  and  C_42
   10  A    between atoms: C_13  and  C_28
   11  A    between atoms: N_17  and  C_19
   12  A    between atoms: N_17  and  N_30
   13  A    between atoms: C_19  and  C_35
   14  A    between atoms: N_25  and  C_28
   15  A    between atoms: N_25  and  C_31
   16  A    between atoms: N_32  and  C_35
   17  A    between atoms: C_34  and  C_43
   18  A    between atoms: C_39  and  C_43
   19  A    between atoms: N_41  and  C_42
                            x       y       z     vdW  Elec       q    Type
                         _______ _______ _______ _____ _____    ______ ____

>  <TORSDO>
F 19

$$$$
=
 OpenBabel10232412163D

 48 51  0  0  1  0  0  0  0  0999 V2000
  190.4050  177.1660  139.5300 C   0  0  0  0  0  0  0  0  0  0  0  0
  190.8050  175.8770  138.8840 C   0  0  0  0  0  2  0  0  0  0  0  0
  191.9340  176.0360  137.9220 C   0  0  0  0  0  0  0  0  0  0  0  0
  193.1480  176.4490  138.3250 C   0  0  0  0  0  3  0  0  0  0  0  0
  192.6750  177.5350  140.5370 C   0  0  0  0  0  3  0  0  0  0  0  0
  193.5010  176.9490  139.6640 C   0  0  0  0  0  3  0  0  0  0  0  0
  191.2410  177.8150  140.3490 C   0  0  0  0  0  3  0  0  0  0  0  0
  191.7250  175.5680  136.5140 C   0  0  2  0  0  3  0  0  0  0  0  0
  192.9300  175.2230  134.3640 C   0  0  0  0  0  2  0  0  0  0  0  0
  193.8680  174.9400  135.4720 N   0  0  0  0  0  0  0  0  0  0  0  0
  192.8630  176.0210  135.5850 C   0  0  2  0  0  3  0  0  0  0  0  0
  195.1450  175.6140  135.2360 C   0  0  0  0  0  2  0  0  0  0  0  0
  196.3250  174.8920  135.9130 C   0  0  0  0  0  2  0  0  0  0  0  0
  197.4250  175.7980  136.2130 N   0  0  0  0  0  0  0  0  0  0  0  0
  197.8310  175.4710  137.4630 O   0  0  0  0  0  1  0  0  0  0  0  0
  199.0440  174.2180  135.8010 C   0  0  0  0  0  1  0  0  0  0  0  0
  198.5010  175.4920  135.3610 N   0  0  0  0  0  2  0  0  0  0  0  0
  190.3700  175.9760  136.0050 C   0  0  0  0  0  0  0  0  0  0  0  0
  190.1220  177.1870  135.7450 O   0  0  0  0  0  0  0  0  0  0  0  0
  189.3870  174.9650  135.7630 N   0  0  0  0  0  2  0  0  0  0  0  0
  188.1660  175.2070  135.0090 C   0  0  0  0  0  2  0  0  0  0  0  0
  187.3720  173.9480  134.9000 C   0  0  0  0  0  3  0  0  0  0  0  0
  187.7830  173.4010  137.1680 O   0  0  0  0  0  1  0  0  0  0  0  0
  187.2110  173.1080  135.9300 C   0  0  0  0  0  0  0  0  0  0  0  0
  186.3450  171.8720  135.7950 C   0  0  2  0  0  3  0  0  0  0  0  0
  188.1570  170.5420  134.9220 C   0  0  0  0  0  1  0  0  0  0  0  0
  186.7730  170.9770  134.7150 N   0  0  0  0  0  2  0  0  0  0  0  0
  184.8140  172.0450  135.8280 C   0  0  0  0  0  2  0  0  0  0  0  0
  184.1740  172.1160  137.2130 C   0  0  0  0  0  3  0  0  0  0  0  0
  182.8080  172.2630  137.0760 F   0  0  0  0  0  0  0  0  0  0  0  0
  184.6680  173.1860  137.9370 F   0  0  0  0  0  0  0  0  0  0  0  0
  189.0260  177.5480  139.5200 N   0  0  0  0  0  0  0  0  0  0  0  0
  188.4010  177.9650  140.7670 C   0  0  0  0  0  2  0  0  0  0  0  0
  188.3380  176.8490  141.7020 N   0  0  0  0  0  2  0  0  0  0  0  0
  187.0330  178.1730  147.4140 C   0  0  0  0  0  3  0  0  0  0  0  0
  189.4010  177.6010  147.4000 C   0  0  0  0  0  3  0  0  0  0  0  0
  189.3560  177.4060  146.0140 C   0  0  0  0  0  3  0  0  0  0  0  0
  188.2870  178.1440  149.4410 F   0  0  0  0  0  0  0  0  0  0  0  0
  188.6430  176.9840  143.0710 N   0  0  0  0  0  2  0  0  0  0  0  0
  187.0100  177.9880  146.0330 C   0  0  0  0  0  0  0  0  0  0  0  0
  187.8280  177.4770  143.9580 C   0  0  0  0  0  0  0  0  0  0  0  0
  185.8380  178.1540  145.1250 C   0  0  0  0  0  3  0  0  0  0  0  0
  188.1380  177.6050  145.3590 C   0  0  0  0  0  0  0  0  0  0  0  0
  186.3930  177.8450  143.7250 C   0  0  0  0  0  3  0  0  0  0  0  0
  188.2380  177.9760  148.0970 C   0  0  2  0  0  3  0  0  0  0  0  0
  188.1440  177.0150  138.4840 C   0  0  0  0  0  2  0  0  0  0  0  0
  187.1450  178.0430  138.0690 C   0  0  0  0  0  3  0  0  0  0  0  0
  186.9840  178.3260  136.7810 C   0  0  0  0  0  2  0  0  0  0  0  0
  1  7  2  0  0  0  0
  2  1  1  0  0  0  0
  3  4  2  0  0  0  0
  3  2  1  0  0  0  0
  4  6  1  0  0  0  0
  6  5  2  0  0  0  0
  7  5  1  0  0  0  0
  8 18  1  6  0  0  0
  8  3  1  0  0  0  0
  9 10  1  0  0  0  0
  9 11  1  0  0  0  0
 10 11  1  0  0  0  0
 11  8  1  1  0  0  0
 12 10  1  0  0  0  0
 12 13  1  0  0  0  0
 13 14  1  0  0  0  0
 14 15  1  0  0  0  0
 17 16  1  0  0  0  0
 17 14  1  0  0  0  0
 19 18  2  0  0  0  0
 20 18  1  0  0  0  0
 21 20  1  0  0  0  0
 22 21  1  0  0  0  0
 22 24  2  0  0  0  0
 24 23  1  0  0  0  0
 25 28  1  6  0  0  0
 25 24  1  0  0  0  0
 27 26  1  0  0  0  0
 27 25  1  0  0  0  0
 28 29  1  0  0  0  0
 29 31  1  0  0  0  0
 30 29  1  0  0  0  0
 32  1  1  0  0  0  0
 32 33  1  0  0  0  0
 33 34  1  0  0  0  0
 34 39  1  0  0  0  0
 35 45  1  0  0  0  0
 36 45  1  0  0  0  0
 37 36  2  0  0  0  0
 39 41  1  0  0  0  0
 40 35  2  0  0  0  0
 41 43  2  0  0  0  0
 42 40  1  0  0  0  0
 43 37  1  0  0  0  0
 43 40  1  0  0  0  0
 44 41  1  0  0  0  0
 44 42  2  0  0  0  0
 45 38  1  1  0  0  0
 46 32  1  0  0  0  0
 47 46  1  0  0  0  0
 48 47  2  0  0  0  0
M  END
>  <MODEL>
4

>  <REMARK>
 VINA RESULT:      -6.3      3.090      6.303
  Name = 
  19 active torsions:
  status: ('A' for Active; 'I' for Inactive)
    1  A    between atoms: N_2  and  N_16
    2  A    between atoms: N_2  and  C_31
    3  A    between atoms: C_3  and  C_43
    4  A    between atoms: C_4  and  C_29
    5  A    between atoms: C_6  and  C_29
    6  A    between atoms: C_6  and  N_37
    7  A    between atoms: C_6  and  C_46
    8  A    between atoms: C_7  and  N_25
    9  A    between atoms: C_9  and  C_42
   10  A    between atoms: C_13  and  C_28
   11  A    between atoms: N_17  and  C_19
   12  A    between atoms: N_17  and  N_30
   13  A    between atoms: C_19  and  C_35
   14  A    between atoms: N_25  and  C_28
   15  A    between atoms: N_25  and  C_31
   16  A    between atoms: N_32  and  C_35
   17  A    between atoms: C_34  and  C_43
   18  A    between atoms: C_39  and  C_43
   19  A    between atoms: N_41  and  C_42
                            x       y       z     vdW  Elec       q    Type
                         _______ _______ _______ _____ _____    ______ ____

>  <TORSDO>
F 19

$$$$
=
 OpenBabel10232412163D

 48 51  0  0  1  0  0  0  0  0999 V2000
  181.9350  178.2480  138.7020 C   0  0  0  0  0  0  0  0  0  0  0  0
  183.1890  178.5840  137.9570 C   0  0  0  0  0  2  0  0  0  0  0  0
  183.4390  177.6740  136.8020 C   0  0  0  0  0  0  0  0  0  0  0  0
  182.5910  177.6110  135.7610 C   0  0  0  0  0  3  0  0  0  0  0  0
  180.4740  178.5870  136.6900 C   0  0  0  0  0  3  0  0  0  0  0  0
  181.2710  178.2570  135.6680 C   0  0  0  0  0  3  0  0  0  0  0  0
  180.7370  178.3700  138.1240 C   0  0  0  0  0  3  0  0  0  0  0  0
  184.7470  176.9440  136.7560 C   0  0  2  0  0  3  0  0  0  0  0  0
  185.8220  174.7290  137.1140 C   0  0  0  0  0  2  0  0  0  0  0  0
  184.5880  174.5230  136.3260 N   0  0  0  0  0  0  0  0  0  0  0  0
  184.6460  175.5490  137.3920 C   0  0  2  0  0  3  0  0  0  0  0  0
  183.8110  173.4170  136.8860 C   0  0  0  0  0  2  0  0  0  0  0  0
  182.9000  172.7490  135.8390 C   0  0  0  0  0  2  0  0  0  0  0  0
  181.4870  172.9480  136.1310 N   0  0  0  0  0  0  0  0  0  0  0  0
  181.3520  172.6870  137.4530 O   0  0  0  0  0  1  0  0  0  0  0  0
  180.2570  174.6710  137.0300 C   0  0  0  0  0  1  0  0  0  0  0  0
  181.1870  174.3130  135.9720 N   0  0  0  0  0  2  0  0  0  0  0  0
  185.8490  177.7730  137.3570 C   0  0  0  0  0  0  0  0  0  0  0  0
  185.8930  177.9680  138.6040 O   0  0  0  0  0  0  0  0  0  0  0  0
  186.8760  178.2840  136.5040 N   0  0  0  0  0  2  0  0  0  0  0  0
  188.1240  178.8400  137.0060 C   0  0  0  0  0  2  0  0  0  0  0  0
  189.2350  177.8620  136.8190 C   0  0  0  0  0  3  0  0  0  0  0  0
  189.1710  177.2370  139.1040 O   0  0  0  0  0  1  0  0  0  0  0  0
  189.7170  177.1220  137.8250 C   0  0  0  0  0  0  0  0  0  0  0  0
  190.8050  176.0950  137.5810 C   0  0  2  0  0  3  0  0  0  0  0  0
  189.6560  174.1050  136.8510 C   0  0  0  0  0  1  0  0  0  0  0  0
  190.4070  174.7310  137.9420 N   0  0  0  0  0  2  0  0  0  0  0  0
  192.2360  176.4230  138.0480 C   0  0  0  0  0  2  0  0  0  0  0  0
  193.3320  176.3130  136.9890 C   0  0  0  0  0  3  0  0  0  0  0  0
  192.7650  175.9440  135.7850 F   0  0  0  0  0  0  0  0  0  0  0  0
  194.2780  175.3690  137.3450 F   0  0  0  0  0  0  0  0  0  0  0  0
  181.9950  178.0930  140.1240 N   0  0  0  0  0  0  0  0  0  0  0  0
  183.1720  177.4710  140.7160 C   0  0  0  0  0  2  0  0  0  0  0  0
  183.9670  178.4630  141.4280 N   0  0  0  0  0  2  0  0  0  0  0  0
  186.8060  177.9030  146.6920 C   0  0  0  0  0  3  0  0  0  0  0  0
  188.4240  177.2230  145.0010 C   0  0  0  0  0  3  0  0  0  0  0  0
  187.4970  177.5010  143.9890 C   0  0  0  0  0  3  0  0  0  0  0  0
  188.9700  177.1290  147.3230 F   0  0  0  0  0  0  0  0  0  0  0  0
  185.0630  178.1190  142.2440 N   0  0  0  0  0  2  0  0  0  0  0  0
  185.9000  178.1870  145.6700 C   0  0  0  0  0  0  0  0  0  0  0  0
  185.1200  178.3410  143.5260 C   0  0  0  0  0  0  0  0  0  0  0  0
  184.5140  178.7140  145.8220 C   0  0  0  0  0  3  0  0  0  0  0  0
  186.2370  177.9790  144.3600 C   0  0  0  0  0  0  0  0  0  0  0  0
  183.9980  178.8520  144.3800 C   0  0  0  0  0  3  0  0  0  0  0  0
  188.0730  177.4180  146.3500 C   0  0  2  0  0  3  0  0  0  0  0  0
  180.7530  178.0190  140.8890 C   0  0  0  0  0  2  0  0  0  0  0  0
  180.8350  178.8800  142.1040 C   0  0  0  0  0  3  0  0  0  0  0  0
  180.2580  178.4870  143.2340 C   0  0  0  0  0  2  0  0  0  0  0  0
  1 32  1  0  0  0  0
  2  1  1  0  0  0  0
  3  2  1  0  0  0  0
  4  3  2  0  0  0  0
  5  7  1  0  0  0  0
  6  4  1  0  0  0  0
  6  5  2  0  0  0  0
  7  1  2  0  0  0  0
  8  3  1  0  0  0  0
  8 18  1  1  0  0  0
  9 11  1  0  0  0  0
 10 12  1  0  0  0  0
 10  9  1  0  0  0  0
 10 11  1  0  0  0  0
 11  8  1  6  0  0  0
 13 14  1  0  0  0  0
 13 12  1  0  0  0  0
 14 15  1  0  0  0  0
 17 14  1  0  0  0  0
 17 16  1  0  0  0  0
 18 19  2  0  0  0  0
 20 21  1  0  0  0  0
 20 18  1  0  0  0  0
 22 21  1  0  0  0  0
 22 24  2  0  0  0  0
 24 23  1  0  0  0  0
 25 24  1  0  0  0  0
 25 27  1  0  0  0  0
 25 28  1  1  0  0  0
 26 27  1  0  0  0  0
 29 31  1  0  0  0  0
 29 28  1  0  0  0  0
 30 29  1  0  0  0  0
 32 33  1  0  0  0  0
 32 46  1  0  0  0  0
 33 34  1  0  0  0  0
 34 39  1  0  0  0  0
 36 45  1  0  0  0  0
 37 43  1  0  0  0  0
 37 36  2  0  0  0  0
 39 41  1  0  0  0  0
 40 42  1  0  0  0  0
 40 35  2  0  0  0  0
 41 43  2  0  0  0  0
 41 44  1  0  0  0  0
 43 40  1  0  0  0  0
 44 42  2  0  0  0  0
 45 35  1  0  0  0  0
 45 38  1  1  0  0  0
 46 47  1  0  0  0  0
 47 48  2  0  0  0  0
M  END
>  <MODEL>
5

>  <REMARK>
 VINA RESULT:      -6.3      3.488      7.800
  Name = 
  19 active torsions:
  status: ('A' for Active; 'I' for Inactive)
    1  A    between atoms: N_2  and  N_16
    2  A    between atoms: N_2  and  C_31
    3  A    between atoms: C_3  and  C_43
    4  A    between atoms: C_4  and  C_29
    5  A    between atoms: C_6  and  C_29
    6  A    between atoms: C_6  and  N_37
    7  A    between atoms: C_6  and  C_46
    8  A    between atoms: C_7  and  N_25
    9  A    between atoms: C_9  and  C_42
   10  A    between atoms: C_13  and  C_28
   11  A    between atoms: N_17  and  C_19
   12  A    between atoms: N_17  and  N_30
   13  A    between atoms: C_19  and  C_35
   14  A    between atoms: N_25  and  C_28
   15  A    between atoms: N_25  and  C_31
   16  A    between atoms: N_32  and  C_35
   17  A    between atoms: C_34  and  C_43
   18  A    between atoms: C_39  and  C_43
   19  A    between atoms: N_41  and  C_42
                            x       y       z     vdW  Elec       q    Type
                         _______ _______ _______ _____ _____    ______ ____

>  <TORSDO>
F 19

$$$$
=
 OpenBabel10232412163D

 48 51  0  0  1  0  0  0  0  0999 V2000
  181.1800  178.6320  141.0460 C   0  0  0  0  0  0  0  0  0  0  0  0
  182.4140  177.9370  141.5300 C   0  0  0  0  0  2  0  0  0  0  0  0
  183.0930  178.6650  142.6410 C   0  0  0  0  0  0  0  0  0  0  0  0
  182.4890  178.8600  143.8250 C   0  0  0  0  0  3  0  0  0  0  0  0
  180.0610  178.5210  143.2900 C   0  0  0  0  0  3  0  0  0  0  0  0
  181.0840  178.5610  144.1510 C   0  0  0  0  0  3  0  0  0  0  0  0
  180.1130  178.7720  141.8400 C   0  0  0  0  0  3  0  0  0  0  0  0
  184.5330  179.0360  142.4570 C   0  0  2  0  0  3  0  0  0  0  0  0
  186.4480  178.8900  140.8750 C   0  0  0  0  0  2  0  0  0  0  0  0
  185.2380  179.2500  140.1050 N   0  0  0  0  0  0  0  0  0  0  0  0
  185.1590  178.3160  141.2510 C   0  0  2  0  0  3  0  0  0  0  0  0
  185.1330  178.4140  138.9090 C   0  0  0  0  0  2  0  0  0  0  0  0
  186.4810  178.2590  138.1800 C   0  0  0  0  0  2  0  0  0  0  0  0
  186.4760  177.1400  137.2470 N   0  0  0  0  0  0  0  0  0  0  0  0
  186.0140  177.6460  136.0800 O   0  0  0  0  0  1  0  0  0  0  0  0
  188.6240  177.3780  138.0320 C   0  0  0  0  0  1  0  0  0  0  0  0
  187.8070  176.7540  137.0050 N   0  0  0  0  0  2  0  0  0  0  0  0
  185.3130  178.8200  143.7240 C   0  0  0  0  0  0  0  0  0  0  0  0
  185.0820  179.5260  144.7450 O   0  0  0  0  0  0  0  0  0  0  0  0
  186.2770  177.7640  143.7730 N   0  0  0  0  0  2  0  0  0  0  0  0
  186.8700  177.2850  145.0120 C   0  0  0  0  0  2  0  0  0  0  0  0
  188.3420  177.1060  144.8430 C   0  0  0  0  0  3  0  0  0  0  0  0
  188.7860  178.1530  146.9220 O   0  0  0  0  0  1  0  0  0  0  0  0
  189.2270  177.5300  145.7540 C   0  0  0  0  0  0  0  0  0  0  0  0
  190.7090  177.2740  145.5730 C   0  0  2  0  0  3  0  0  0  0  0  0
  191.7240  175.8360  147.2220 C   0  0  0  0  0  1  0  0  0  0  0  0
  191.4490  177.2230  146.8390 N   0  0  0  0  0  2  0  0  0  0  0  0
  191.4630  178.0760  144.4950 C   0  0  0  0  0  2  0  0  0  0  0  0
  191.4870  177.4670  143.0950 C   0  0  0  0  0  3  0  0  0  0  0  0
  190.3520  177.8560  142.4110 F   0  0  0  0  0  0  0  0  0  0  0  0
  191.5220  176.0850  143.1520 F   0  0  0  0  0  0  0  0  0  0  0  0
  181.0260  178.8740  139.6440 N   0  0  0  0  0  0  0  0  0  0  0  0
  180.5520  177.7930  138.7910 C   0  0  0  0  0  2  0  0  0  0  0  0
  181.6660  176.9530  138.3700 N   0  0  0  0  0  0  0  0  0  0  0  0
  183.6110  171.5620  136.5690 C   0  0  0  0  0  3  0  0  0  0  0  0
  181.1970  171.5330  136.2330 C   0  0  0  0  0  3  0  0  0  0  0  0
  181.1080  172.8550  136.6860 C   0  0  0  0  0  3  0  0  0  0  0  0
  182.5200  169.6030  135.7610 F   0  0  0  0  0  0  0  0  0  0  0  0
  181.4900  175.6430  137.8810 N   0  0  0  0  0  0  0  0  0  0  0  0
  183.5050  172.8830  137.0040 C   0  0  0  0  0  0  0  0  0  0  0  0
  182.4670  174.8440  137.5610 C   0  0  0  0  0  0  0  0  0  0  0  0
  184.6160  173.7720  137.4480 C   0  0  0  0  0  2  0  0  0  0  0  0
  182.2850  173.5020  137.0700 C   0  0  0  0  0  0  0  0  0  0  0  0
  183.9260  175.1030  137.7900 C   0  0  0  0  0  3  0  0  0  0  0  0
  182.4460  170.8880  136.1830 C   0  0  0  0  0  0  0  0  0  0  0  0
  181.8220  179.9200  139.0070 C   0  0  0  0  0  2  0  0  0  0  0  0
  181.0110  181.1600  138.8300 C   0  0  0  0  0  3  0  0  0  0  0  0
  181.4730  182.1500  138.0750 C   0  0  0  0  0  2  0  0  0  0  0  0
  1  2  1  0  0  0  0
  1  7  2  0  0  0  0
  2  3  1  0  0  0  0
  3  4  2  0  0  0  0
  4  6  1  0  0  0  0
  5  6  2  0  0  0  0
  7  5  1  0  0  0  0
  8  3  1  0  0  0  0
  8 18  1  1  0  0  0
  9 11  1  0  0  0  0
 10  9  1  0  0  0  0
 10 11  1  0  0  0  0
 11  8  1  1  0  0  0
 12 10  1  0  0  0  0
 13 12  1  0  0  0  0
 14 13  1  0  0  0  0
 15 14  1  0  0  0  0
 17 14  1  0  0  0  0
 17 16  1  0  0  0  0
 18 20  1  0  0  0  0
 18 19  2  0  0  0  0
 20 21  1  0  0  0  0
 22 21  1  0  0  0  0
 22 24  2  0  0  0  0
 24 23  1  0  0  0  0
 25 28  1  6  0  0  0
 25 24  1  0  0  0  0
 25 27  1  0  0  0  0
 27 26  1  0  0  0  0
 29 31  1  0  0  0  0
 29 28  1  0  0  0  0
 30 29  1  0  0  0  0
 32  1  1  0  0  0  0
 33 32  1  0  0  0  0
 34 33  1  0  0  0  0
 35 40  1  0  0  0  0
 36 37  2  0  0  0  0
 37 43  1  0  0  0  0
 38 45  1  0  0  0  0
 39 34  2  0  0  0  0
 40 43  2  0  0  0  0
 40 42  1  0  0  0  0
 41 44  2  0  0  0  0
 41 39  1  0  0  0  0
 42 44  1  0  0  0  0
 43 41  1  0  0  0  0
 45 36  1  0  0  0  0
 45 35  2  0  0  0  0
 46 32  1  0  0  0  0
 47 46  1  0  0  0  0
 48 47  2  0  0  0  0
M  END
>  <MODEL>
6

>  <REMARK>
 VINA RESULT:      -6.2      3.945      7.653
  Name = 
  19 active torsions:
  status: ('A' for Active; 'I' for Inactive)
    1  A    between atoms: N_2  and  N_16
    2  A    between atoms: N_2  and  C_31
    3  A    between atoms: C_3  and  C_43
    4  A    between atoms: C_4  and  C_29
    5  A    between atoms: C_6  and  C_29
    6  A    between atoms: C_6  and  N_37
    7  A    between atoms: C_6  and  C_46
    8  A    between atoms: C_7  and  N_25
    9  A    between atoms: C_9  and  C_42
   10  A    between atoms: C_13  and  C_28
   11  A    between atoms: N_17  and  C_19
   12  A    between atoms: N_17  and  N_30
   13  A    between atoms: C_19  and  C_35
   14  A    between atoms: N_25  and  C_28
   15  A    between atoms: N_25  and  C_31
   16  A    between atoms: N_32  and  C_35
   17  A    between atoms: C_34  and  C_43
   18  A    between atoms: C_39  and  C_43
   19  A    between atoms: N_41  and  C_42
                            x       y       z     vdW  Elec       q    Type
                         _______ _______ _______ _____ _____    ______ ____

>  <TORSDO>
F 19

$$$$
=
 OpenBabel10232412163D

 48 51  0  0  1  0  0  0  0  0999 V2000
  190.4180  177.1570  139.4850 C   0  0  0  0  0  0  0  0  0  0  0  0
  190.8470  175.8680  138.8560 C   0  0  0  0  0  2  0  0  0  0  0  0
  192.0330  176.0240  137.9640 C   0  0  0  0  0  0  0  0  0  0  0  0
  193.2230  176.4260  138.4410 C   0  0  0  0  0  3  0  0  0  0  0  0
  192.6260  177.5040  140.6270 C   0  0  0  0  0  3  0  0  0  0  0  0
  193.4990  176.9170  139.8020 C   0  0  0  0  0  3  0  0  0  0  0  0
  191.2070  177.7950  140.3550 C   0  0  0  0  0  3  0  0  0  0  0  0
  191.9040  175.5640  136.5430 C   0  0  2  0  0  3  0  0  0  0  0  0
  193.2180  175.1450  134.4710 C   0  0  0  0  0  2  0  0  0  0  0  0
  194.0290  174.7120  135.6300 N   0  0  0  0  0  0  0  0  0  0  0  0
  193.1550  175.9040  135.7180 C   0  0  2  0  0  3  0  0  0  0  0  0
  195.3920  175.2310  135.5130 C   0  0  0  0  0  2  0  0  0  0  0  0
  196.3100  174.7320  136.6450 C   0  0  0  0  0  2  0  0  0  0  0  0
  197.6010  175.4080  136.6430 N   0  0  0  0  0  0  0  0  0  0  0  0
  198.4910  174.4850  137.0790 O   0  0  0  0  0  1  0  0  0  0  0  0
  199.2710  175.1200  135.0890 C   0  0  0  0  0  1  0  0  0  0  0  0
  197.9540  175.6920  135.3120 N   0  0  0  0  0  2  0  0  0  0  0  0
  190.6420  176.0890  135.9180 C   0  0  0  0  0  0  0  0  0  0  0  0
  190.5540  177.3010  135.5740 O   0  0  0  0  0  0  0  0  0  0  0  0
  189.5650  175.1820  135.6630 N   0  0  0  0  0  2  0  0  0  0  0  0
  188.4310  175.5120  134.8130 C   0  0  0  0  0  2  0  0  0  0  0  0
  187.2330  174.7240  135.2260 C   0  0  0  0  0  3  0  0  0  0  0  0
  185.7600  176.3670  134.3640 O   0  0  0  0  0  1  0  0  0  0  0  0
  185.9830  175.1510  135.0100 C   0  0  0  0  0  0  0  0  0  0  0  0
  184.7930  174.2920  135.3890 C   0  0  2  0  0  3  0  0  0  0  0  0
  184.6140  175.9900  137.0910 C   0  0  0  0  0  1  0  0  0  0  0  0
  183.9090  174.9250  136.3740 N   0  0  0  0  0  2  0  0  0  0  0  0
  185.0370  172.8040  135.7040 C   0  0  0  0  0  2  0  0  0  0  0  0
  184.2660  172.2310  136.8910 C   0  0  0  0  0  3  0  0  0  0  0  0
  184.9760  172.4680  138.0520 F   0  0  0  0  0  0  0  0  0  0  0  0
  184.0780  170.8670  136.7540 F   0  0  0  0  0  0  0  0  0  0  0  0
  189.0440  177.5480  139.3940 N   0  0  0  0  0  0  0  0  0  0  0  0
  188.3860  178.0880  140.5750 C   0  0  0  0  0  2  0  0  0  0  0  0
  188.1890  177.0420  141.5700 N   0  0  0  0  0  2  0  0  0  0  0  0
  189.4930  177.6660  147.4010 C   0  0  0  0  0  3  0  0  0  0  0  0
  187.0900  178.0280  147.2260 C   0  0  0  0  0  3  0  0  0  0  0  0
  187.1430  177.7830  145.8480 C   0  0  0  0  0  3  0  0  0  0  0  0
  188.2070  178.2320  149.3260 F   0  0  0  0  0  0  0  0  0  0  0  0
  187.8720  177.3190  142.9150 N   0  0  0  0  0  2  0  0  0  0  0  0
  189.5250  177.4120  146.0300 C   0  0  0  0  0  0  0  0  0  0  0  0
  188.7070  177.1880  143.9060 C   0  0  0  0  0  0  0  0  0  0  0  0
  190.7210  177.0590  145.2120 C   0  0  0  0  0  3  0  0  0  0  0  0
  188.3830  177.4810  145.2790 C   0  0  0  0  0  0  0  0  0  0  0  0
  190.1680  176.8740  143.7890 C   0  0  0  0  0  3  0  0  0  0  0  0
  188.2650  177.9760  147.9970 C   0  0  2  0  0  3  0  0  0  0  0  0
  188.1880  176.9270  138.3860 C   0  0  0  0  0  2  0  0  0  0  0  0
  187.5950  177.9640  137.4920 C   0  0  0  0  0  3  0  0  0  0  0  0
  188.3220  179.0150  137.1260 C   0  0  0  0  0  2  0  0  0  0  0  0
  1  7  2  0  0  0  0
  2  1  1  0  0  0  0
  3  4  2  0  0  0  0
  3  2  1  0  0  0  0
  4  6  1  0  0  0  0
  6  5  2  0  0  0  0
  7  5  1  0  0  0  0
  8 18  1  6  0  0  0
  8  3  1  0  0  0  0
  9 10  1  0  0  0  0
  9 11  1  0  0  0  0
 10 11  1  0  0  0  0
 11  8  1  1  0  0  0
 12 10  1  0  0  0  0
 12 13  1  0  0  0  0
 14 13  1  0  0  0  0
 14 15  1  0  0  0  0
 16 17  1  0  0  0  0
 17 14  1  0  0  0  0
 19 18  2  0  0  0  0
 20 18  1  0  0  0  0
 21 22  1  0  0  0  0
 21 20  1  0  0  0  0
 23 24  1  0  0  0  0
 24 22  2  0  0  0  0
 24 25  1  0  0  0  0
 25 28  1  1  0  0  0
 25 27  1  0  0  0  0
 27 26  1  0  0  0  0
 28 29  1  0  0  0  0
 29 30  1  0  0  0  0
 31 29  1  0  0  0  0
 32  1  1  0  0  0  0
 32 33  1  0  0  0  0
 33 34  1  0  0  0  0
 34 39  1  0  0  0  0
 35 45  1  0  0  0  0
 36 45  1  0  0  0  0
 37 36  2  0  0  0  0
 39 41  1  0  0  0  0
 40 35  2  0  0  0  0
 41 43  2  0  0  0  0
 42 40  1  0  0  0  0
 43 37  1  0  0  0  0
 43 40  1  0  0  0  0
 44 41  1  0  0  0  0
 44 42  2  0  0  0  0
 45 38  1  6  0  0  0
 46 32  1  0  0  0  0
 47 46  1  0  0  0  0
 48 47  2  0  0  0  0
M  END
>  <MODEL>
7

>  <REMARK>
 VINA RESULT:      -6.2      3.018      6.566
  Name = 
  19 active torsions:
  status: ('A' for Active; 'I' for Inactive)
    1  A    between atoms: N_2  and  N_16
    2  A    between atoms: N_2  and  C_31
    3  A    between atoms: C_3  and  C_43
    4  A    between atoms: C_4  and  C_29
    5  A    between atoms: C_6  and  C_29
    6  A    between atoms: C_6  and  N_37
    7  A    between atoms: C_6  and  C_46
    8  A    between atoms: C_7  and  N_25
    9  A    between atoms: C_9  and  C_42
   10  A    between atoms: C_13  and  C_28
   11  A    between atoms: N_17  and  C_19
   12  A    between atoms: N_17  and  N_30
   13  A    between atoms: C_19  and  C_35
   14  A    between atoms: N_25  and  C_28
   15  A    between atoms: N_25  and  C_31
   16  A    between atoms: N_32  and  C_35
   17  A    between atoms: C_34  and  C_43
   18  A    between atoms: C_39  and  C_43
   19  A    between atoms: N_41  and  C_42
                            x       y       z     vdW  Elec       q    Type
                         _______ _______ _______ _____ _____    ______ ____

>  <TORSDO>
F 19

$$$$
=
 OpenBabel10232412163D

 48 51  0  0  1  0  0  0  0  0999 V2000
  183.6900  178.4180  141.4230 C   0  0  0  0  0  0  0  0  0  0  0  0
  184.9520  177.6560  141.6820 C   0  0  0  0  0  2  0  0  0  0  0  0
  186.0140  178.4910  142.3150 C   0  0  0  0  0  0  0  0  0  0  0  0
  185.8490  179.0340  143.5320 C   0  0  0  0  0  3  0  0  0  0  0  0
  183.3600  178.9800  143.8470 C   0  0  0  0  0  3  0  0  0  0  0  0
  184.6070  179.0420  144.3250 C   0  0  0  0  0  3  0  0  0  0  0  0
  182.9560  178.8960  142.4330 C   0  0  0  0  0  3  0  0  0  0  0  0
  187.3410  178.5770  141.6230 C   0  0  2  0  0  3  0  0  0  0  0  0
  188.5670  177.4410  139.7790 C   0  0  0  0  0  2  0  0  0  0  0  0
  188.1610  178.7830  139.3080 N   0  0  0  0  0  0  0  0  0  0  0  0
  187.2830  177.9940  140.2010 C   0  0  2  0  0  3  0  0  0  0  0  0
  187.5560  178.6890  137.9790 C   0  0  0  0  0  2  0  0  0  0  0  0
  188.5660  178.2470  136.9030 C   0  0  0  0  0  2  0  0  0  0  0  0
  188.0740  177.1230  136.1170 N   0  0  0  0  0  0  0  0  0  0  0  0
  188.2450  177.4850  134.8240 O   0  0  0  0  0  1  0  0  0  0  0  0
  190.2690  176.5510  136.4940 C   0  0  0  0  0  1  0  0  0  0  0  0
  188.9250  176.0230  136.3300 N   0  0  0  0  0  2  0  0  0  0  0  0
  188.4270  177.9540  142.4560 C   0  0  0  0  0  0  0  0  0  0  0  0
  188.3370  176.7500  142.8260 O   0  0  0  0  0  0  0  0  0  0  0  0
  189.5880  178.7280  142.7730 N   0  0  0  0  0  2  0  0  0  0  0  0
  190.8070  178.1470  143.3140 C   0  0  0  0  0  2  0  0  0  0  0  0
  190.6440  177.8780  144.7720 C   0  0  0  0  0  3  0  0  0  0  0  0
  191.9190  175.8860  144.6240 O   0  0  0  0  0  1  0  0  0  0  0  0
  191.1720  176.8000  145.3670 C   0  0  0  0  0  0  0  0  0  0  0  0
  191.0360  176.5950  146.8630 C   0  0  2  0  0  3  0  0  0  0  0  0
  192.7290  176.0220  148.4810 C   0  0  0  0  0  1  0  0  0  0  0  0
  191.8960  175.5270  147.3830 N   0  0  0  0  0  2  0  0  0  0  0  0
  189.6200  176.5430  147.4670 C   0  0  0  0  0  2  0  0  0  0  0  0
  188.9460  177.8900  147.7220 C   0  0  0  0  0  3  0  0  0  0  0  0
  188.6290  177.9940  149.0620 F   0  0  0  0  0  0  0  0  0  0  0  0
  187.7870  178.0160  146.9780 F   0  0  0  0  0  0  0  0  0  0  0  0
  183.1070  178.3690  140.1170 N   0  0  0  0  0  0  0  0  0  0  0  0
  182.5020  177.1250  139.6610 C   0  0  0  0  0  2  0  0  0  0  0  0
  183.2620  176.5680  138.5490 N   0  0  0  0  0  2  0  0  0  0  0  0
  185.1070  171.3860  136.1350 C   0  0  0  0  0  3  0  0  0  0  0  0
  182.7000  171.1490  136.4330 C   0  0  0  0  0  3  0  0  0  0  0  0
  182.6240  172.4540  136.9350 C   0  0  0  0  0  3  0  0  0  0  0  0
  184.0090  169.3470  135.5730 F   0  0  0  0  0  0  0  0  0  0  0  0
  183.0730  175.2530  138.0800 N   0  0  0  0  0  2  0  0  0  0  0  0
  185.0100  172.6880  136.6250 C   0  0  0  0  0  0  0  0  0  0  0  0
  183.9950  174.5450  137.4930 C   0  0  0  0  0  0  0  0  0  0  0  0
  186.1220  173.6680  136.7950 C   0  0  0  0  0  3  0  0  0  0  0  0
  183.8030  173.1980  137.0230 C   0  0  1  0  0  3  0  0  0  0  0  0
  185.4370  174.9290  137.3460 C   0  0  0  0  0  3  0  0  0  0  0  0
  183.9420  170.6170  136.0410 C   0  0  0  0  0  0  0  0  0  0  0  0
  183.5810  179.2900  139.0870 C   0  0  0  0  0  2  0  0  0  0  0  0
  182.4300  179.8740  138.3380 C   0  0  0  0  0  3  0  0  0  0  0  0
  181.8320  180.9700  138.7940 C   0  0  0  0  0  2  0  0  0  0  0  0
  1  2  1  0  0  0  0
  1  7  2  0  0  0  0
  2  3  1  0  0  0  0
  3  4  2  0  0  0  0
  4  6  1  0  0  0  0
  5  6  2  0  0  0  0
  7  5  1  0  0  0  0
  8  3  1  0  0  0  0
  8 18  1  1  0  0  0
  9 11  1  0  0  0  0
 10  9  1  0  0  0  0
 10 11  1  0  0  0  0
 11  8  1  1  0  0  0
 12 10  1  0  0  0  0
 13 12  1  0  0  0  0
 14 17  1  0  0  0  0
 14 13  1  0  0  0  0
 15 14  1  0  0  0  0
 17 16  1  0  0  0  0
 18 20  1  0  0  0  0
 18 19  2  0  0  0  0
 20 21  1  0  0  0  0
 21 22  1  0  0  0  0
 22 24  2  0  0  0  0
 23 24  1  0  0  0  0
 24 25  1  0  0  0  0
 25 27  1  0  0  0  0
 25 28  1  6  0  0  0
 27 26  1  0  0  0  0
 28 29  1  0  0  0  0
 29 30  1  0  0  0  0
 31 29  1  0  0  0  0
 32  1  1  0  0  0  0
 33 32  1  0  0  0  0
 34 33  1  0  0  0  0
 35 40  1  0  0  0  0
 36 37  2  0  0  0  0
 38 45  1  0  0  0  0
 39 34  1  0  0  0  0
 40 42  2  0  0  0  0
 40 43  1  0  0  0  0
 41 39  1  0  0  0  0
 42 44  1  0  0  0  0
 43 37  1  6  0  0  0
 43 41  1  0  0  0  0
 44 41  2  0  0  0  0
 45 35  2  0  0  0  0
 45 36  1  0  0  0  0
 46 32  1  0  0  0  0
 47 48  2  0  0  0  0
 47 46  1  0  0  0  0
M  END
>  <MODEL>
8

>  <REMARK>
 VINA RESULT:      -6.1      3.058      6.688
  Name = 
  19 active torsions:
  status: ('A' for Active; 'I' for Inactive)
    1  A    between atoms: N_2  and  N_16
    2  A    between atoms: N_2  and  C_31
    3  A    between atoms: C_3  and  C_43
    4  A    between atoms: C_4  and  C_29
    5  A    between atoms: C_6  and  C_29
    6  A    between atoms: C_6  and  N_37
    7  A    between atoms: C_6  and  C_46
    8  A    between atoms: C_7  and  N_25
    9  A    between atoms: C_9  and  C_42
   10  A    between atoms: C_13  and  C_28
   11  A    between atoms: N_17  and  C_19
   12  A    between atoms: N_17  and  N_30
   13  A    between atoms: C_19  and  C_35
   14  A    between atoms: N_25  and  C_28
   15  A    between atoms: N_25  and  C_31
   16  A    between atoms: N_32  and  C_35
   17  A    between atoms: C_34  and  C_43
   18  A    between atoms: C_39  and  C_43
   19  A    between atoms: N_41  and  C_42
                            x       y       z     vdW  Elec       q    Type
                         _______ _______ _______ _____ _____    ______ ____

>  <TORSDO>
F 19

$$$$
=
 OpenBabel10232412163D

 48 51  0  0  1  0  0  0  0  0999 V2000
  186.0130  178.4240  143.3090 C   0  0  0  0  0  0  0  0  0  0  0  0
  185.3340  179.0600  142.1370 C   0  0  0  0  0  2  0  0  0  0  0  0
  183.9650  178.5160  141.8960 C   0  0  0  0  0  0  0  0  0  0  0  0
  182.9840  178.6560  142.8020 C   0  0  0  0  0  3  0  0  0  0  0  0
  184.2320  179.1510  144.9220 C   0  0  0  0  0  3  0  0  0  0  0  0
  183.1260  179.1800  144.1710 C   0  0  0  0  0  3  0  0  0  0  0  0
  185.5410  178.5850  144.5500 C   0  0  0  0  0  3  0  0  0  0  0  0
  183.6670  177.9490  140.5410 C   0  0  2  0  0  3  0  0  0  0  0  0
  183.5870  178.6100  138.1430 C   0  0  0  0  0  2  0  0  0  0  0  0
  184.8720  177.9200  138.3910 N   0  0  0  0  0  0  0  0  0  0  0  0
  184.2750  178.8040  139.4170 C   0  0  2  0  0  3  0  0  0  0  0  0
  185.9750  178.6830  137.8080 C   0  0  0  0  0  2  0  0  0  0  0  0
  187.3360  177.9850  137.9950 C   0  0  0  0  0  2  0  0  0  0  0  0
  188.4490  178.8350  137.5920 N   0  0  0  0  0  0  0  0  0  0  0  0
  189.0350  179.2310  138.7470 O   0  0  0  0  0  1  0  0  0  0  0  0
  188.9870  177.9600  135.5350 C   0  0  0  0  0  1  0  0  0  0  0  0
  189.3990  178.0400  136.9260 N   0  0  0  0  0  2  0  0  0  0  0  0
  182.1910  177.7270  140.3610 C   0  0  0  0  0  0  0  0  0  0  0  0
  181.3960  178.7080  140.3320 O   0  0  0  0  0  0  0  0  0  0  0  0
  181.7090  176.3940  140.1630 N   0  0  0  0  0  2  0  0  0  0  0  0
  180.3640  176.0960  139.6970 C   0  0  0  0  0  2  0  0  0  0  0  0
  180.3740  174.8670  138.8500 C   0  0  0  0  0  3  0  0  0  0  0  0
  181.0020  176.1030  136.9290 O   0  0  0  0  0  1  0  0  0  0  0  0
  180.6710  174.8960  137.5450 C   0  0  0  0  0  0  0  0  0  0  0  0
  180.7310  173.6170  136.7340 C   0  0  2  0  0  3  0  0  0  0  0  0
  179.9820  171.3330  136.5420 C   0  0  0  0  0  1  0  0  0  0  0  0
  180.2380  172.4440  137.4630 N   0  0  0  0  0  2  0  0  0  0  0  0
  182.0210  173.3100  135.9490 C   0  0  0  0  0  2  0  0  0  0  0  0
  183.2820  173.0950  136.7840 C   0  0  0  0  0  3  0  0  0  0  0  0
  184.3900  173.1800  135.9640 F   0  0  0  0  0  0  0  0  0  0  0  0
  183.2720  171.8540  137.3940 F   0  0  0  0  0  0  0  0  0  0  0  0
  187.3360  177.9020  143.1440 N   0  0  0  0  0  0  0  0  0  0  0  0
  187.9090  177.8470  141.8060 C   0  0  0  0  0  2  0  0  0  0  0  0
  189.0960  177.0020  141.7960 N   0  0  0  0  0  2  0  0  0  0  0  0
  193.5140  176.1710  137.8110 C   0  0  0  0  0  3  0  0  0  0  0  0
  191.5670  175.0420  136.8750 C   0  0  0  0  0  3  0  0  0  0  0  0
  190.7920  175.4520  137.9670 C   0  0  0  0  0  3  0  0  0  0  0  0
  193.6730  174.9810  135.7530 F   0  0  0  0  0  0  0  0  0  0  0  0
  189.6480  176.4780  140.6110 N   0  0  0  0  0  2  0  0  0  0  0  0
  192.7230  176.5810  138.8840 C   0  0  0  0  0  0  0  0  0  0  0  0
  190.8390  176.7640  140.1680 C   0  0  0  0  0  0  0  0  0  0  0  0
  193.1510  177.4110  140.0470 C   0  0  0  0  0  2  0  0  0  0  0  0
  191.4050  176.2190  138.9610 C   0  0  0  0  0  0  0  0  0  0  0  0
  191.8770  177.5650  140.8950 C   0  0  0  0  0  3  0  0  0  0  0  0
  192.9270  175.3970  136.8040 C   0  0  0  0  0  0  0  0  0  0  0  0
  187.8610  176.9590  144.1280 C   0  0  0  0  0  2  0  0  0  0  0  0
  188.6840  177.6720  145.1480 C   0  0  0  0  0  3  0  0  0  0  0  0
  188.7340  177.2170  146.3950 C   0  0  0  0  0  2  0  0  0  0  0  0
  1  7  2  0  0  0  0
  2  1  1  0  0  0  0
  3  2  1  0  0  0  0
  3  4  2  0  0  0  0
  4  6  1  0  0  0  0
  6  5  2  0  0  0  0
  7  5  1  0  0  0  0
  8 18  1  6  0  0  0
  8  3  1  0  0  0  0
  9 10  1  0  0  0  0
  9 11  1  0  0  0  0
 10 11  1  0  0  0  0
 11  8  1  1  0  0  0
 12 13  1  0  0  0  0
 12 10  1  0  0  0  0
 14 13  1  0  0  0  0
 14 15  1  0  0  0  0
 16 17  1  0  0  0  0
 17 14  1  0  0  0  0
 19 18  2  0  0  0  0
 20 18  1  0  0  0  0
 21 20  1  0  0  0  0
 22 21  1  0  0  0  0
 23 24  1  0  0  0  0
 24 22  2  0  0  0  0
 25 28  1  1  0  0  0
 25 27  1  0  0  0  0
 25 24  1  0  0  0  0
 26 27  1  0  0  0  0
 28 29  1  0  0  0  0
 29 31  1  0  0  0  0
 30 29  1  0  0  0  0
 32  1  1  0  0  0  0
 32 46  1  0  0  0  0
 33 32  1  0  0  0  0
 34 33  1  0  0  0  0
 35 40  1  0  0  0  0
 36 37  2  0  0  0  0
 37 43  1  0  0  0  0
 38 45  1  0  0  0  0
 39 34  1  0  0  0  0
 40 43  2  0  0  0  0
 40 42  1  0  0  0  0
 41 39  1  0  0  0  0
 41 44  2  0  0  0  0
 42 44  1  0  0  0  0
 43 41  1  0  0  0  0
 45 36  1  0  0  0  0
 45 35  2  0  0  0  0
 46 47  1  0  0  0  0
 47 48  2  0  0  0  0
M  END
>  <MODEL>
9

>  <REMARK>
 VINA RESULT:      -6.0      4.148      9.721
  Name = 
  19 active torsions:
  status: ('A' for Active; 'I' for Inactive)
    1  A    between atoms: N_2  and  N_16
    2  A    between atoms: N_2  and  C_31
    3  A    between atoms: C_3  and  C_43
    4  A    between atoms: C_4  and  C_29
    5  A    between atoms: C_6  and  C_29
    6  A    between atoms: C_6  and  N_37
    7  A    between atoms: C_6  and  C_46
    8  A    between atoms: C_7  and  N_25
    9  A    between atoms: C_9  and  C_42
   10  A    between atoms: C_13  and  C_28
   11  A    between atoms: N_17  and  C_19
   12  A    between atoms: N_17  and  N_30
   13  A    between atoms: C_19  and  C_35
   14  A    between atoms: N_25  and  C_28
   15  A    between atoms: N_25  and  C_31
   16  A    between atoms: N_32  and  C_35
   17  A    between atoms: C_34  and  C_43
   18  A    between atoms: C_39  and  C_43
   19  A    between atoms: N_41  and  C_42
                            x       y       z     vdW  Elec       q    Type
                         _______ _______ _______ _____ _____    ______ ____

>  <TORSDO>
F 19

$$$$
