=
 OpenBabel10232409463D

 25 27  0  0  0  0  0  0  0  0999 V2000
  188.8840  177.9990  143.4910 C   0  0  0  0  0  0  0  0  0  0  0  0
  188.7040  177.7940  144.7750 C   0  0  0  0  0  0  0  0  0  0  0  0
  189.0550  178.2060  142.2160 C   0  0  0  0  0  3  0  0  0  0  0  0
  185.6390  178.4670  146.8920 C   0  0  0  0  0  3  0  0  0  0  0  0
  183.6250  178.7210  143.8500 C   0  0  0  0  0  0  0  0  0  0  0  0
  187.3760  178.0910  145.3800 C   0  0  0  0  0  0  0  0  0  0  0  0
  183.8950  178.7210  145.2280 C   0  0  0  0  0  3  0  0  0  0  0  0
  185.9730  178.2770  143.3670 C   0  0  0  0  0  3  0  0  0  0  0  0
  182.2400  178.9570  143.3690 C   0  0  0  0  0  1  0  0  0  0  0  0
  185.2070  178.4950  145.6450 C   0  0  0  0  0  0  0  0  0  0  0  0
  187.1150  178.1960  146.8570 C   0  0  0  0  0  2  0  0  0  0  0  0
  184.6610  178.5010  142.9240 C   0  0  0  0  0  3  0  0  0  0  0  0
  186.2210  178.2730  144.7440 C   0  0  0  0  0  0  0  0  0  0  0  0
  192.9900  175.6000  147.8210 N   0  0  0  0  0  1  0  0  0  0  0  0
  189.8090  177.2130  145.5830 C   0  0  0  0  0  0  0  0  0  0  0  0
  189.7660  177.2330  146.9840 C   0  0  0  0  0  3  0  0  0  0  0  0
  190.8160  176.7000  147.7340 C   0  0  0  0  0  3  0  0  0  0  0  0
  191.9130  176.1490  147.0730 C   0  0  0  0  0  0  0  0  0  0  0  0
  190.9420  176.6520  144.9660 C   0  0  0  0  0  3  0  0  0  0  0  0
  191.9540  176.1370  145.7140 N   0  0  0  0  0  0  0  0  0  0  0  0
  188.0020  177.7860  141.2510 C   0  0  0  0  0  2  0  0  0  0  0  0
  188.9230  178.4840  139.0010 C   0  0  0  0  0  0  0  0  0  0  0  0
  189.7760  177.5570  139.0220 O   0  0  0  0  0  1  0  0  0  0  0  0
  188.8700  179.3430  137.9130 O   0  0  0  0  0  0  0  0  0  0  0  0
  188.0140  178.6620  140.0880 N   0  0  0  0  0  2  0  0  0  0  0  0
  1  2  2  0  0  0  0
  2  6  1  0  0  0  0
  2 15  1  0  0  0  0
  3  1  2  0  0  0  0
  5  7  2  0  0  0  0
  6 11  1  0  0  0  0
  7 10  1  0  0  0  0
  8 13  1  0  0  0  0
  9  5  1  0  0  0  0
 10  4  2  0  0  0  0
 11  4  1  0  0  0  0
 12  8  2  0  0  0  0
 12  5  1  0  0  0  0
 13  6  2  0  0  0  0
 13 10  1  0  0  0  0
 15 16  1  0  0  0  0
 16 17  2  0  0  0  0
 18 17  1  0  0  0  0
 18 14  1  0  0  0  0
 19 15  2  0  0  0  0
 19 20  1  0  0  0  0
 20 18  2  0  0  0  0
 21  3  1  0  0  0  0
 22 23  1  0  0  0  0
 22 25  1  0  0  0  0
 24 22  2  0  0  0  0
 25 21  1  0  0  0  0
M  END
>  <MODEL>
1

>  <REMARK>
 VINA RESULT:     -10.8      0.000      0.000
  Name = 
  4 active torsions:
  status: ('A' for Active; 'I' for Inactive)
    1  A    between atoms: C_3  and  N_19
    2  A    between atoms: C_3  and  C_24
    3  A    between atoms: C_7  and  C_12
    4  A    between atoms: C_9  and  C_12
                            x       y       z     vdW  Elec       q    Type
                         _______ _______ _______ _____ _____    ______ ____

>  <TORSDO>
F 4

$$$$
=
 OpenBabel10232409463D

 25 27  0  0  0  0  0  0  0  0999 V2000
  186.7950  177.8590  142.8450 C   0  0  0  0  0  0  0  0  0  0  0  0
  186.0060  178.1020  143.8650 C   0  0  0  0  0  0  0  0  0  0  0  0
  187.5850  177.6160  141.8380 C   0  0  0  0  0  3  0  0  0  0  0  0
  186.8850  178.3930  147.5350 C   0  0  0  0  0  3  0  0  0  0  0  0
  190.1710  176.9490  146.8360 C   0  0  0  0  0  0  0  0  0  0  0  0
  186.5730  178.0960  145.2420 C   0  0  0  0  0  0  0  0  0  0  0  0
  189.1400  177.5070  147.6080 C   0  0  0  0  0  3  0  0  0  0  0  0
  188.7960  177.1250  144.8310 C   0  0  0  0  0  2  0  0  0  0  0  0
  191.4490  176.5560  147.4830 C   0  0  0  0  0  1  0  0  0  0  0  0
  187.9540  177.8650  146.9680 C   0  0  0  0  0  0  0  0  0  0  0  0
  185.8570  178.6060  146.4620 C   0  0  0  0  0  3  0  0  0  0  0  0
  189.9990  176.7570  145.4530 C   0  0  0  0  0  3  0  0  0  0  0  0
  187.7830  177.6860  145.6150 C   0  0  0  0  0  0  0  0  0  0  0  0
  180.5320  179.3310  142.8680 N   0  0  0  0  0  1  0  0  0  0  0  0
  184.5780  178.4380  143.6190 C   0  0  0  0  0  0  0  0  0  0  0  0
  183.7140  178.7420  144.6800 C   0  0  0  0  0  3  0  0  0  0  0  0
  182.3720  179.0400  144.4410 C   0  0  0  0  0  3  0  0  0  0  0  0
  181.8960  179.0280  143.1300 C   0  0  0  0  0  0  0  0  0  0  0  0
  184.0450  178.4320  142.3170 C   0  0  0  0  0  3  0  0  0  0  0  0
  182.7350  178.7260  142.1040 N   0  0  0  0  0  0  0  0  0  0  0  0
  188.9330  178.2460  141.7870 C   0  0  0  0  0  2  0  0  0  0  0  0
  189.6680  178.0110  139.3780 C   0  0  0  0  0  0  0  0  0  0  0  0
  188.8760  178.9190  139.0100 O   0  0  0  0  0  1  0  0  0  0  0  0
  190.4770  177.3830  138.4410 O   0  0  0  0  0  0  0  0  0  0  0  0
  189.7380  177.6180  140.7500 N   0  0  0  0  0  2  0  0  0  0  0  0
  1  2  2  0  0  0  0
  2  6  1  0  0  0  0
  3  1  2  0  0  0  0
  5  9  1  0  0  0  0
  5  7  1  0  0  0  0
  6 13  2  0  0  0  0
  6 11  1  0  0  0  0
  8 12  1  0  0  0  0
  8 13  1  0  0  0  0
 10  4  1  0  0  0  0
 10  7  2  0  0  0  0
 11  4  2  0  0  0  0
 12  5  2  0  0  0  0
 13 10  1  0  0  0  0
 14 18  1  0  0  0  0
 15  2  1  0  0  0  0
 15 16  1  0  0  0  0
 17 16  2  0  0  0  0
 18 17  1  0  0  0  0
 19 15  2  0  0  0  0
 20 19  1  0  0  0  0
 20 18  2  0  0  0  0
 21  3  1  0  0  0  0
 22 25  1  0  0  0  0
 23 22  1  0  0  0  0
 24 22  2  0  0  0  0
 25 21  1  0  0  0  0
M  END
>  <MODEL>
2

>  <REMARK>
 VINA RESULT:     -10.4      2.147      6.135
  Name = 
  4 active torsions:
  status: ('A' for Active; 'I' for Inactive)
    1  A    between atoms: C_3  and  N_19
    2  A    between atoms: C_3  and  C_24
    3  A    between atoms: C_7  and  C_12
    4  A    between atoms: C_9  and  C_12
                            x       y       z     vdW  Elec       q    Type
                         _______ _______ _______ _____ _____    ______ ____

>  <TORSDO>
F 4

$$$$
=
 OpenBabel10232409463D

 25 27  0  0  0  0  0  0  0  0999 V2000
  187.3590  178.4410  141.7580 C   0  0  0  0  0  0  0  0  0  0  0  0
  188.6270  178.1030  141.7500 C   0  0  0  0  0  0  0  0  0  0  0  0
  186.1010  178.7790  141.7740 C   0  0  0  0  0  3  0  0  0  0  0  0
  191.0960  178.2220  144.6160 C   0  0  0  0  0  3  0  0  0  0  0  0
  188.3990  177.3820  146.9390 C   0  0  0  0  0  0  0  0  0  0  0  0
  189.3900  178.1070  143.0280 C   0  0  0  0  0  0  0  0  0  0  0  0
  189.7060  177.6880  146.5300 C   0  0  0  0  0  3  0  0  0  0  0  0
  187.6140  177.5480  144.6370 C   0  0  0  0  0  2  0  0  0  0  0  0
  188.1140  177.1310  148.3750 C   0  0  0  0  0  1  0  0  0  0  0  0
  189.9380  177.9170  145.1740 C   0  0  0  0  0  0  0  0  0  0  0  0
  190.8650  178.3790  143.1420 C   0  0  0  0  0  3  0  0  0  0  0  0
  187.3570  177.3130  145.9960 C   0  0  0  0  0  3  0  0  0  0  0  0
  188.9250  177.8450  144.2470 C   0  0  0  0  0  0  0  0  0  0  0  0
  191.0270  176.3420  136.8900 N   0  0  0  0  0  1  0  0  0  0  0  0
  189.2570  177.6630  140.4760 C   0  0  0  0  0  0  0  0  0  0  0  0
  188.9610  178.3050  139.2650 C   0  0  0  0  0  3  0  0  0  0  0  0
  189.5430  177.8750  138.0720 C   0  0  0  0  0  3  0  0  0  0  0  0
  190.4230  176.7930  138.0960 C   0  0  0  0  0  0  0  0  0  0  0  0
  190.1440  176.5720  140.4430 C   0  0  0  0  0  3  0  0  0  0  0  0
  190.7020  176.1680  139.2710 N   0  0  0  0  0  0  0  0  0  0  0  0
  185.2090  178.2590  142.8470 C   0  0  0  0  0  2  0  0  0  0  0  0
  182.9120  179.0130  143.5880 C   0  0  0  0  0  0  0  0  0  0  0  0
  183.2700  179.0410  144.7950 O   0  0  0  0  0  1  0  0  0  0  0  0
  181.6120  179.3620  143.2490 O   0  0  0  0  0  0  0  0  0  0  0  0
  183.8280  178.6190  142.5650 N   0  0  0  0  0  2  0  0  0  0  0  0
  1  3  2  0  0  0  0
  2  1  2  0  0  0  0
  2  6  1  0  0  0  0
  3 21  1  0  0  0  0
  4 10  1  0  0  0  0
  5  9  1  0  0  0  0
  6 11  1  0  0  0  0
  6 13  2  0  0  0  0
  7  5  1  0  0  0  0
  8 12  1  0  0  0  0
 10  7  2  0  0  0  0
 11  4  2  0  0  0  0
 12  5  2  0  0  0  0
 13  8  1  0  0  0  0
 13 10  1  0  0  0  0
 14 18  1  0  0  0  0
 15  2  1  0  0  0  0
 16 15  2  0  0  0  0
 17 18  2  0  0  0  0
 17 16  1  0  0  0  0
 18 20  1  0  0  0  0
 19 15  1  0  0  0  0
 20 19  2  0  0  0  0
 22 23  1  0  0  0  0
 24 22  2  0  0  0  0
 25 21  1  0  0  0  0
 25 22  1  0  0  0  0
M  END
>  <MODEL>
3

>  <REMARK>
 VINA RESULT:     -10.0      3.643      6.293
  Name = 
  4 active torsions:
  status: ('A' for Active; 'I' for Inactive)
    1  A    between atoms: C_3  and  N_19
    2  A    between atoms: C_3  and  C_24
    3  A    between atoms: C_7  and  C_12
    4  A    between atoms: C_9  and  C_12
                            x       y       z     vdW  Elec       q    Type
                         _______ _______ _______ _____ _____    ______ ____

>  <TORSDO>
F 4

$$$$
=
 OpenBabel10232409463D

 25 27  0  0  0  0  0  0  0  0999 V2000
  187.0290  177.6820  142.2650 C   0  0  0  0  0  0  0  0  0  0  0  0
  185.8580  178.1690  142.6050 C   0  0  0  0  0  0  0  0  0  0  0  0
  188.1920  177.1960  141.9370 C   0  0  0  0  0  3  0  0  0  0  0  0
  184.4440  178.8270  146.0530 C   0  0  0  0  0  3  0  0  0  0  0  0
  187.6820  177.9640  147.5180 C   0  0  0  0  0  0  0  0  0  0  0  0
  185.5340  178.3460  144.0470 C   0  0  0  0  0  0  0  0  0  0  0  0
  186.3390  178.3700  147.4950 C   0  0  0  0  0  3  0  0  0  0  0  0
  187.6890  177.7720  145.0870 C   0  0  0  0  0  2  0  0  0  0  0  0
  188.3970  177.8480  148.8150 C   0  0  0  0  0  1  0  0  0  0  0  0
  185.6980  178.4690  146.2600 C   0  0  0  0  0  0  0  0  0  0  0  0
  184.1970  178.7880  144.5740 C   0  0  0  0  0  3  0  0  0  0  0  0
  188.3540  177.6650  146.3180 C   0  0  0  0  0  3  0  0  0  0  0  0
  186.3520  178.1840  145.0850 C   0  0  0  0  0  0  0  0  0  0  0  0
  182.2670  179.7560  138.4750 N   0  0  0  0  0  1  0  0  0  0  0  0
  184.9080  178.5910  141.5410 C   0  0  0  0  0  0  0  0  0  0  0  0
  183.5270  178.4040  141.6920 C   0  0  0  0  0  3  0  0  0  0  0  0
  182.6440  178.7880  140.6810 C   0  0  0  0  0  3  0  0  0  0  0  0
  183.1520  179.3580  139.5150 C   0  0  0  0  0  0  0  0  0  0  0  0
  185.3680  179.1630  140.3420 C   0  0  0  0  0  3  0  0  0  0  0  0
  184.4930  179.5320  139.3690 N   0  0  0  0  0  0  0  0  0  0  0  0
  189.4180  177.6780  142.6310 C   0  0  0  0  0  2  0  0  0  0  0  0
  191.2250  176.6190  144.0490 C   0  0  0  0  0  0  0  0  0  0  0  0
  191.3960  177.6870  144.6940 O   0  0  0  0  0  1  0  0  0  0  0  0
  191.9840  175.4990  144.3600 O   0  0  0  0  0  0  0  0  0  0  0  0
  190.2600  176.5500  142.9970 N   0  0  0  0  0  2  0  0  0  0  0  0
  1  2  2  0  0  0  0
  2  6  1  0  0  0  0
  3  1  2  0  0  0  0
  3 21  1  0  0  0  0
  4 10  1  0  0  0  0
  5  9  1  0  0  0  0
  6 11  1  0  0  0  0
  6 13  2  0  0  0  0
  7  5  1  0  0  0  0
  8 12  1  0  0  0  0
 10  7  2  0  0  0  0
 11  4  2  0  0  0  0
 12  5  2  0  0  0  0
 13  8  1  0  0  0  0
 13 10  1  0  0  0  0
 14 18  1  0  0  0  0
 15 16  1  0  0  0  0
 15  2  1  0  0  0  0
 17 16  2  0  0  0  0
 18 17  1  0  0  0  0
 19 15  2  0  0  0  0
 20 18  2  0  0  0  0
 20 19  1  0  0  0  0
 21 25  1  0  0  0  0
 22 24  2  0  0  0  0
 22 23  1  0  0  0  0
 25 22  1  0  0  0  0
M  END
>  <MODEL>
4

>  <REMARK>
 VINA RESULT:      -9.9      2.796      6.643
  Name = 
  4 active torsions:
  status: ('A' for Active; 'I' for Inactive)
    1  A    between atoms: C_3  and  N_19
    2  A    between atoms: C_3  and  C_24
    3  A    between atoms: C_7  and  C_12
    4  A    between atoms: C_9  and  C_12
                            x       y       z     vdW  Elec       q    Type
                         _______ _______ _______ _____ _____    ______ ____

>  <TORSDO>
F 4

$$$$
=
 OpenBabel10232409463D

 25 27  0  0  1  0  0  0  0  0999 V2000
  190.3660  177.1500  140.6470 C   0  0  0  0  0  0  0  0  0  0  0  0
  189.7030  177.4080  141.7490 C   0  0  0  0  0  0  0  0  0  0  0  0
  191.0180  176.8970  139.5470 C   0  0  0  0  0  3  0  0  0  0  0  0
  186.2750  178.7600  140.8830 C   0  0  0  0  0  3  0  0  0  0  0  0
  185.2690  178.3750  144.3780 C   0  0  0  0  0  0  0  0  0  0  0  0
  188.2960  177.8880  141.6570 C   0  0  0  0  0  0  0  0  0  0  0  0
  185.1350  178.7120  143.0220 C   0  0  0  0  0  3  0  0  0  0  0  0
  187.5640  177.6470  143.9940 C   0  0  0  0  0  3  0  0  0  0  0  0
  184.1270  178.5790  145.3060 C   0  0  0  0  0  1  0  0  0  0  0  0
  186.2270  178.5080  142.1790 C   0  0  1  0  0  3  0  0  0  0  0  0
  187.6440  178.3820  140.3960 C   0  0  0  0  0  3  0  0  0  0  0  0
  186.4790  177.8430  144.8620 C   0  0  0  0  0  3  0  0  0  0  0  0
  187.4130  177.9950  142.6470 C   0  0  0  0  0  0  0  0  0  0  0  0
  192.2310  176.3960  146.7550 N   0  0  0  0  0  1  0  0  0  0  0  0
  190.3490  177.1570  143.0650 C   0  0  0  0  0  0  0  0  0  0  0  0
  190.6030  178.2080  143.9570 C   0  0  0  0  0  3  0  0  0  0  0  0
  191.2250  177.9650  145.1830 C   0  0  0  0  0  3  0  0  0  0  0  0
  191.5980  176.6620  145.5100 C   0  0  0  0  0  0  0  0  0  0  0  0
  190.7520  175.8630  143.4410 C   0  0  0  0  0  3  0  0  0  0  0  0
  191.3560  175.6460  144.6390 N   0  0  0  0  0  0  0  0  0  0  0  0
  190.3480  176.1560  138.4440 C   0  0  0  0  0  2  0  0  0  0  0  0
  191.0320  174.0620  137.2030 C   0  0  0  0  0  0  0  0  0  0  0  0
  189.9050  173.5340  137.3970 O   0  0  0  0  0  1  0  0  0  0  0  0
  192.0020  173.3670  136.4940 O   0  0  0  0  0  0  0  0  0  0  0  0
  191.3230  175.3650  137.7090 N   0  0  0  0  0  2  0  0  0  0  0  0
  1  2  2  0  0  0  0
  2 15  1  0  0  0  0
  3  1  2  0  0  0  0
  5 12  1  0  0  0  0
  5  9  1  0  0  0  0
  6  2  1  0  0  0  0
  6 13  2  0  0  0  0
  7  5  2  0  0  0  0
  8 12  2  0  0  0  0
 10  4  1  6  0  0  0
 10 13  1  0  0  0  0
 10  7  1  0  0  0  0
 11  4  2  0  0  0  0
 11  6  1  0  0  0  0
 13  8  1  0  0  0  0
 15 19  2  0  0  0  0
 15 16  1  0  0  0  0
 16 17  2  0  0  0  0
 17 18  1  0  0  0  0
 18 14  1  0  0  0  0
 19 20  1  0  0  0  0
 20 18  2  0  0  0  0
 21  3  1  0  0  0  0
 22 23  1  0  0  0  0
 22 25  1  0  0  0  0
 24 22  2  0  0  0  0
 25 21  1  0  0  0  0
M  END
>  <MODEL>
5

>  <REMARK>
 VINA RESULT:      -9.5      2.464      3.725
  Name = 
  4 active torsions:
  status: ('A' for Active; 'I' for Inactive)
    1  A    between atoms: C_3  and  N_19
    2  A    between atoms: C_3  and  C_24
    3  A    between atoms: C_7  and  C_12
    4  A    between atoms: C_9  and  C_12
                            x       y       z     vdW  Elec       q    Type
                         _______ _______ _______ _____ _____    ______ ____

>  <TORSDO>
F 4

$$$$
=
 OpenBabel10232409463D

 25 27  0  0  1  0  0  0  0  0999 V2000
  185.1710  178.5730  144.7020 C   0  0  0  0  0  0  0  0  0  0  0  0
  185.1000  178.5200  143.3920 C   0  0  0  0  0  0  0  0  0  0  0  0
  185.2500  178.6260  146.0010 C   0  0  0  0  0  3  0  0  0  0  0  0
  187.9400  178.4090  140.8920 C   0  0  0  0  0  3  0  0  0  0  0  0
  189.9670  176.5670  143.3160 C   0  0  0  0  0  0  0  0  0  0  0  0
  186.3520  178.3620  142.6010 C   0  0  0  0  0  0  0  0  0  0  0  0
  189.6560  177.1950  142.1000 C   0  0  0  0  0  3  0  0  0  0  0  0
  187.7610  177.1240  144.1930 C   0  0  0  0  0  3  0  0  0  0  0  0
  191.2990  175.9370  143.5040 C   0  0  0  0  0  1  0  0  0  0  0  0
  188.3960  177.7760  141.9580 C   0  0  1  0  0  3  0  0  0  0  0  0
  186.5430  178.8640  141.1970 C   0  0  0  0  0  3  0  0  0  0  0  0
  189.0230  176.5330  144.3590 C   0  0  0  0  0  3  0  0  0  0  0  0
  187.4680  177.7400  142.9710 C   0  0  0  0  0  0  0  0  0  0  0  0
  179.9850  178.7310  140.8900 N   0  0  0  0  0  1  0  0  0  0  0  0
  183.7680  178.5550  142.7320 C   0  0  0  0  0  0  0  0  0  0  0  0
  183.5900  178.0500  141.4360 C   0  0  0  0  0  3  0  0  0  0  0  0
  182.3400  178.1030  140.8180 C   0  0  0  0  0  3  0  0  0  0  0  0
  181.2660  178.6700  141.5030 C   0  0  0  0  0  0  0  0  0  0  0  0
  182.6530  179.1230  143.3750 C   0  0  0  0  0  3  0  0  0  0  0  0
  181.4430  179.1650  142.7580 N   0  0  0  0  0  0  0  0  0  0  0  0
  186.1410  177.6790  146.7270 C   0  0  0  0  0  2  0  0  0  0  0  0
  188.3470  177.7910  147.9580 C   0  0  0  0  0  0  0  0  0  0  0  0
  188.5340  176.5540  147.8100 O   0  0  0  0  0  0  0  0  0  0  0  0
  189.2950  178.5550  148.6240 O   0  0  0  0  0  1  0  0  0  0  0  0
  187.1660  178.4150  147.4510 N   0  0  0  0  0  2  0  0  0  0  0  0
  1  3  2  0  0  0  0
  2  1  2  0  0  0  0
  3 21  1  0  0  0  0
  4 11  2  0  0  0  0
  5  9  1  0  0  0  0
  5 12  1  0  0  0  0
  6 13  2  0  0  0  0
  6  2  1  0  0  0  0
  7  5  2  0  0  0  0
  8 12  2  0  0  0  0
 10  4  1  1  0  0  0
 10  7  1  0  0  0  0
 10 13  1  0  0  0  0
 11  6  1  0  0  0  0
 13  8  1  0  0  0  0
 14 18  1  0  0  0  0
 15 19  1  0  0  0  0
 15  2  1  0  0  0  0
 16 15  2  0  0  0  0
 17 16  1  0  0  0  0
 17 18  2  0  0  0  0
 18 20  1  0  0  0  0
 20 19  2  0  0  0  0
 21 25  1  0  0  0  0
 22 24  1  0  0  0  0
 23 22  2  0  0  0  0
 25 22  1  0  0  0  0
M  END
>  <MODEL>
6

>  <REMARK>
 VINA RESULT:      -9.5      3.795      7.924
  Name = 
  4 active torsions:
  status: ('A' for Active; 'I' for Inactive)
    1  A    between atoms: C_3  and  N_19
    2  A    between atoms: C_3  and  C_24
    3  A    between atoms: C_7  and  C_12
    4  A    between atoms: C_9  and  C_12
                            x       y       z     vdW  Elec       q    Type
                         _______ _______ _______ _____ _____    ______ ____

>  <TORSDO>
F 4

$$$$
=
 OpenBabel10232409463D

 25 27  0  0  1  0  0  0  0  0999 V2000
  190.3920  177.2280  140.6600 C   0  0  0  0  0  0  0  0  0  0  0  0
  189.7190  177.4550  141.7640 C   0  0  0  0  0  0  0  0  0  0  0  0
  191.0530  177.0060  139.5600 C   0  0  0  0  0  3  0  0  0  0  0  0
  186.2750  178.7650  140.9010 C   0  0  0  0  0  3  0  0  0  0  0  0
  185.2780  178.3690  144.3980 C   0  0  0  0  0  0  0  0  0  0  0  0
  188.3070  177.9180  141.6730 C   0  0  0  0  0  0  0  0  0  0  0  0
  185.1380  178.7040  143.0420 C   0  0  0  0  0  3  0  0  0  0  0  0
  187.5810  177.6690  144.0110 C   0  0  0  0  0  3  0  0  0  0  0  0
  184.1350  178.5600  145.3280 C   0  0  0  0  0  1  0  0  0  0  0  0
  186.2310  178.5130  142.1970 C   0  0  1  0  0  3  0  0  0  0  0  0
  187.6470  178.4030  140.4130 C   0  0  0  0  0  3  0  0  0  0  0  0
  186.4940  177.8530  144.8800 C   0  0  0  0  0  3  0  0  0  0  0  0
  187.4240  178.0140  142.6650 C   0  0  0  0  0  0  0  0  0  0  0  0
  192.2320  176.3710  146.7620 N   0  0  0  0  0  1  0  0  0  0  0  0
  190.3620  177.1850  143.0780 C   0  0  0  0  0  0  0  0  0  0  0  0
  190.6250  178.2250  143.9800 C   0  0  0  0  0  3  0  0  0  0  0  0
  191.2430  177.9650  145.2030 C   0  0  0  0  0  3  0  0  0  0  0  0
  191.6020  176.6550  145.5190 C   0  0  0  0  0  0  0  0  0  0  0  0
  190.7510  175.8830  143.4430 C   0  0  0  0  0  3  0  0  0  0  0  0
  191.3510  175.6490  144.6390 N   0  0  0  0  0  0  0  0  0  0  0  0
  190.3990  176.2800  138.4370 C   0  0  0  0  0  2  0  0  0  0  0  0
  188.6300  176.7790  136.7000 C   0  0  0  0  0  0  0  0  0  0  0  0
  188.3790  175.5540  136.5510 O   0  0  0  0  0  1  0  0  0  0  0  0
  187.9260  177.7200  135.9620 O   0  0  0  0  0  0  0  0  0  0  0  0
  189.6370  177.2090  137.6180 N   0  0  0  0  0  2  0  0  0  0  0  0
  1  2  2  0  0  0  0
  2 15  1  0  0  0  0
  3  1  2  0  0  0  0
  5 12  1  0  0  0  0
  5  9  1  0  0  0  0
  6  2  1  0  0  0  0
  6 13  2  0  0  0  0
  7  5  2  0  0  0  0
  8 12  2  0  0  0  0
 10  4  1  6  0  0  0
 10 13  1  0  0  0  0
 10  7  1  0  0  0  0
 11  4  2  0  0  0  0
 11  6  1  0  0  0  0
 13  8  1  0  0  0  0
 15 19  2  0  0  0  0
 15 16  1  0  0  0  0
 16 17  2  0  0  0  0
 17 18  1  0  0  0  0
 18 14  1  0  0  0  0
 19 20  1  0  0  0  0
 20 18  2  0  0  0  0
 21  3  1  0  0  0  0
 22 25  1  0  0  0  0
 23 22  1  0  0  0  0
 24 22  2  0  0  0  0
 25 21  1  0  0  0  0
M  END
>  <MODEL>
7

>  <REMARK>
 VINA RESULT:      -9.3      1.867      3.244
  Name = 
  4 active torsions:
  status: ('A' for Active; 'I' for Inactive)
    1  A    between atoms: C_3  and  N_19
    2  A    between atoms: C_3  and  C_24
    3  A    between atoms: C_7  and  C_12
    4  A    between atoms: C_9  and  C_12
                            x       y       z     vdW  Elec       q    Type
                         _______ _______ _______ _____ _____    ______ ____

>  <TORSDO>
F 4

$$$$
=
 OpenBabel10232409463D

 25 27  0  0  0  0  0  0  0  0999 V2000
  186.2310  177.9630  143.2790 C   0  0  0  0  0  0  0  0  0  0  0  0
  187.3890  177.6110  143.7860 C   0  0  0  0  0  0  0  0  0  0  0  0
  185.0840  178.3090  142.7680 C   0  0  0  0  0  3  0  0  0  0  0  0
  190.3780  176.1110  142.0130 C   0  0  0  0  0  3  0  0  0  0  0  0
  189.3820  177.8240  138.9400 C   0  0  0  0  0  0  0  0  0  0  0  0
  188.4680  177.1360  142.8760 C   0  0  0  0  0  0  0  0  0  0  0  0
  190.1670  177.0110  139.7720 C   0  0  0  0  0  3  0  0  0  0  0  0
  187.8430  178.2620  140.7790 C   0  0  0  0  0  3  0  0  0  0  0  0
  189.7760  178.0280  137.5220 C   0  0  0  0  0  1  0  0  0  0  0  0
  189.7680  176.8420  141.0980 C   0  0  0  0  0  0  0  0  0  0  0  0
  189.5910  176.2250  143.2860 C   0  0  0  0  0  2  0  0  0  0  0  0
  188.2240  178.4470  139.4410 C   0  0  0  0  0  3  0  0  0  0  0  0
  188.6410  177.4520  141.5950 C   0  0  0  0  0  0  0  0  0  0  0  0
  188.2020  178.1150  149.4030 N   0  0  0  0  0  1  0  0  0  0  0  0
  187.6190  177.7530  145.2490 C   0  0  0  0  0  0  0  0  0  0  0  0
  188.8960  177.5800  145.7990 C   0  0  0  0  0  3  0  0  0  0  0  0
  189.0990  177.6980  147.1740 C   0  0  0  0  0  3  0  0  0  0  0  0
  188.0140  177.9890  148.0000 C   0  0  0  0  0  0  0  0  0  0  0  0
  186.5570  178.0380  146.1260 C   0  0  0  0  0  3  0  0  0  0  0  0
  186.7740  178.1500  147.4630 N   0  0  0  0  0  0  0  0  0  0  0  0
  185.0440  179.1370  141.5320 C   0  0  0  0  0  2  0  0  0  0  0  0
  183.8930  179.1190  139.2800 C   0  0  0  0  0  0  0  0  0  0  0  0
  184.3690  180.2480  138.9870 O   0  0  0  0  0  1  0  0  0  0  0  0
  183.0770  178.4610  138.3710 O   0  0  0  0  0  0  0  0  0  0  0  0
  184.1810  178.5130  140.5410 N   0  0  0  0  0  2  0  0  0  0  0  0
  1  2  2  0  0  0  0
  2 15  1  0  0  0  0
  3  1  2  0  0  0  0
  4 11  1  0  0  0  0
  5 12  1  0  0  0  0
  5  7  2  0  0  0  0
  6 11  1  0  0  0  0
  6  2  1  0  0  0  0
  7 10  1  0  0  0  0
  8 13  1  0  0  0  0
  9  5  1  0  0  0  0
 10 13  1  0  0  0  0
 10  4  2  0  0  0  0
 12  8  2  0  0  0  0
 13  6  2  0  0  0  0
 15 16  2  0  0  0  0
 15 19  1  0  0  0  0
 16 17  1  0  0  0  0
 17 18  2  0  0  0  0
 18 14  1  0  0  0  0
 19 20  2  0  0  0  0
 20 18  1  0  0  0  0
 21  3  1  0  0  0  0
 22 25  1  0  0  0  0
 23 22  1  0  0  0  0
 24 22  2  0  0  0  0
 25 21  1  0  0  0  0
M  END
>  <MODEL>
8

>  <REMARK>
 VINA RESULT:      -9.3      2.758      5.170
  Name = 
  4 active torsions:
  status: ('A' for Active; 'I' for Inactive)
    1  A    between atoms: C_3  and  N_19
    2  A    between atoms: C_3  and  C_24
    3  A    between atoms: C_7  and  C_12
    4  A    between atoms: C_9  and  C_12
                            x       y       z     vdW  Elec       q    Type
                         _______ _______ _______ _____ _____    ______ ____

>  <TORSDO>
F 4

$$$$
=
 OpenBabel10232409463D

 25 27  0  0  0  0  0  0  0  0999 V2000
  187.1480  178.4110  142.2420 C   0  0  0  0  0  0  0  0  0  0  0  0
  188.2670  177.9400  142.7400 C   0  0  0  0  0  0  0  0  0  0  0  0
  186.0340  178.8800  141.7560 C   0  0  0  0  0  3  0  0  0  0  0  0
  187.9330  177.6400  146.4980 C   0  0  0  0  0  3  0  0  0  0  0  0
  191.3280  176.2900  146.6660 C   0  0  0  0  0  0  0  0  0  0  0  0
  188.3720  177.7110  144.2080 C   0  0  0  0  0  0  0  0  0  0  0  0
  190.0850  176.7300  147.1460 C   0  0  0  0  0  3  0  0  0  0  0  0
  190.6490  176.7950  144.3790 C   0  0  0  0  0  2  0  0  0  0  0  0
  192.3530  175.7870  147.6170 C   0  0  0  0  0  1  0  0  0  0  0  0
  189.1470  177.1970  146.2250 C   0  0  0  0  0  0  0  0  0  0  0  0
  187.2880  178.0290  145.2000 C   0  0  0  0  0  3  0  0  0  0  0  0
  191.6080  176.3210  145.2870 C   0  0  0  0  0  3  0  0  0  0  0  0
  189.4180  177.2350  144.8780 C   0  0  0  0  0  0  0  0  0  0  0  0
  192.4950  176.6090  139.1580 N   0  0  0  0  0  1  0  0  0  0  0  0
  189.3830  177.5880  141.8210 C   0  0  0  0  0  0  0  0  0  0  0  0
  190.6990  177.9830  142.0990 C   0  0  0  0  0  3  0  0  0  0  0  0
  191.7360  177.6620  141.2230 C   0  0  0  0  0  3  0  0  0  0  0  0
  191.4500  176.9460  140.0620 C   0  0  0  0  0  0  0  0  0  0  0  0
  189.1470  176.8730  140.6330 C   0  0  0  0  0  3  0  0  0  0  0  0
  190.1710  176.5690  139.7920 N   0  0  0  0  0  0  0  0  0  0  0  0
  184.7320  178.3380  142.2330 C   0  0  0  0  0  2  0  0  0  0  0  0
  183.4020  178.9170  144.3050 C   0  0  0  0  0  0  0  0  0  0  0  0
  182.3740  179.1630  143.6200 O   0  0  0  0  0  0  0  0  0  0  0  0
  183.3550  179.0450  145.6860 O   0  0  0  0  0  1  0  0  0  0  0  0
  184.6180  178.5110  143.6730 N   0  0  0  0  0  2  0  0  0  0  0  0
  1  2  2  0  0  0  0
  2  6  1  0  0  0  0
  3 21  1  0  0  0  0
  3  1  2  0  0  0  0
  5  7  1  0  0  0  0
  5  9  1  0  0  0  0
  6 13  2  0  0  0  0
  6 11  1  0  0  0  0
  8 13  1  0  0  0  0
  8 12  1  0  0  0  0
 10  4  1  0  0  0  0
 10  7  2  0  0  0  0
 11  4  2  0  0  0  0
 12  5  2  0  0  0  0
 13 10  1  0  0  0  0
 14 18  1  0  0  0  0
 15 16  1  0  0  0  0
 15  2  1  0  0  0  0
 17 16  2  0  0  0  0
 18 17  1  0  0  0  0
 19 15  2  0  0  0  0
 20 18  2  0  0  0  0
 20 19  1  0  0  0  0
 21 25  1  0  0  0  0
 22 24  1  0  0  0  0
 23 22  2  0  0  0  0
 25 22  1  0  0  0  0
M  END
>  <MODEL>
9

>  <REMARK>
 VINA RESULT:      -9.2      3.501      6.092
  Name = 
  4 active torsions:
  status: ('A' for Active; 'I' for Inactive)
    1  A    between atoms: C_3  and  N_19
    2  A    between atoms: C_3  and  C_24
    3  A    between atoms: C_7  and  C_12
    4  A    between atoms: C_9  and  C_12
                            x       y       z     vdW  Elec       q    Type
                         _______ _______ _______ _____ _____    ______ ____

>  <TORSDO>
F 4

$$$$
