=
 OpenBabel10232410483D

 35 39  0  0  1  0  0  0  0  0999 V2000
  186.2040  178.2340  142.1980 C   0  0  1  0  0  3  0  0  0  0  0  0
  185.5420  178.0330  145.9040 C   0  0  0  0  0  2  0  0  0  0  0  0
  185.0360  179.1490  142.2330 C   0  0  0  0  0  0  0  0  0  0  0  0
  184.4220  179.5550  143.8590 S   0  0  0  0  0  0  0  0  0  0  0  0
  190.0640  178.3810  143.4080 C   0  0  0  0  0  2  0  0  0  0  0  0
  187.4990  177.1470  144.0580 C   0  0  1  0  0  3  0  0  0  0  0  0
  189.3530  177.4560  145.6430 C   0  0  0  0  0  0  0  0  0  0  0  0
  185.1400  177.9820  144.4220 C   0  0  1  0  0  3  0  0  0  0  0  0
  187.0090  178.4250  146.0970 C   0  0  0  0  0  2  0  0  0  0  0  0
  187.4640  179.0490  141.8690 C   0  0  0  0  0  2  0  0  0  0  0  0
  188.6110  178.1710  141.3460 C   0  0  0  0  0  2  0  0  0  0  0  0
  184.4700  179.5180  141.2180 O   0  0  0  0  0  0  0  0  0  0  0  0
  187.9200  177.5650  145.2630 C   0  0  1  0  0  3  0  0  0  0  0  0
  186.2660  177.6540  143.5400 N   0  0  1  0  0  0  0  0  0  0  0  0
  190.3270  177.8080  144.7810 C   0  0  0  0  0  3  0  0  0  0  0  0
  189.3710  177.3960  142.4390 C   0  0  2  0  0  0  0  0  0  0  0  0
  188.4260  176.5510  143.1540 N   0  0  0  0  0  2  0  0  0  0  0  0
  189.7250  176.9700  146.9890 C   0  0  0  0  0  0  0  0  0  0  0  0
  188.8350  176.5850  147.7940 O   0  0  0  0  0  0  0  0  0  0  0  0
  191.0910  176.9220  147.3920 N   0  0  0  0  0  1  0  0  0  0  0  0
  190.4180  176.4850  141.7960 C   0  0  0  0  0  2  0  0  0  0  0  0
  191.5380  177.2440  141.0900 C   0  0  0  0  0  2  0  0  0  0  0  0
  191.4970  176.9950  139.5880 C   0  0  0  0  0  2  0  0  0  0  0  0
  190.5850  175.9030  139.2720 N   0  0  0  0  0  2  0  0  0  0  0  0
  190.5460  175.7560  137.8240 C   0  0  2  0  0  3  0  0  0  0  0  0
  191.9030  175.3000  137.3250 C   0  0  0  0  0  1  0  0  0  0  0  0
  190.1950  177.0900  137.1750 C   0  0  0  0  0  2  0  0  0  0  0  0
  188.0550  178.0570  137.9200 C   0  0  0  0  0  3  0  0  0  0  0  0
  185.8340  178.8130  138.2590 O   0  0  0  0  0  0  0  0  0  0  0  0
  188.7180  177.2770  137.0870 C   0  0  0  0  0  0  0  0  0  0  0  0
  187.7350  176.4350  135.8460 S   0  0  0  0  0  0  0  0  0  0  0  0
  186.6370  178.0770  137.6300 C   0  0  0  0  0  0  0  0  0  0  0  0
  186.2100  177.1990  136.5030 C   0  0  2  0  0  3  0  0  0  0  0  0
  185.9860  174.9100  137.1590 O   0  0  0  0  0  1  0  0  0  0  0  0
  185.2790  176.1020  136.9950 C   0  0  0  0  0  2  0  0  0  0  0  0
  1 10  1  1  0  0  0
  1  3  1  0  0  0  0
  1 14  1  0  0  0  0
  2  9  1  0  0  0  0
  3  4  1  0  0  0  0
  4  8  1  0  0  0  0
  5 15  1  0  0  0  0
  6 17  1  6  0  0  0
  6 13  1  0  0  0  0
  7 18  1  0  0  0  0
  8  2  1  1  0  0  0
 11 10  1  0  0  0  0
 11 16  1  0  0  0  0
 12  3  2  0  0  0  0
 13  7  1  0  0  0  0
 13  9  1  6  0  0  0
 14  6  1  0  0  0  0
 14  8  1  0  0  0  0
 15  7  2  0  0  0  0
 16 17  1  0  0  0  0
 16  5  1  0  0  0  0
 18 20  1  0  0  0  0
 18 19  2  0  0  0  0
 21 16  1  0  0  0  0
 22 21  1  0  0  0  0
 23 22  1  0  0  0  0
 24 23  1  0  0  0  0
 25 24  1  0  0  0  0
 26 25  1  0  0  0  0
 27 25  1  0  0  0  0
 30 27  1  0  0  0  0
 30 28  2  0  0  0  0
 31 33  1  0  0  0  0
 31 30  1  0  0  0  0
 32 28  1  0  0  0  0
 32 29  2  0  0  0  0
 33 35  1  0  0  0  0
 33 32  1  0  0  0  0
 35 34  1  0  0  0  0
M  END
>  <MODEL>
1

>  <REMARK>
 VINA RESULT:      -8.4      0.000      0.000
  Name = 
  9 active torsions:
  status: ('A' for Active; 'I' for Inactive)
    1  A    between atoms: C_2  and  C_4
    2  A    between atoms: C_2  and  N_32
    3  A    between atoms: C_4  and  C_11
    4  A    between atoms: C_12  and  C_13
    5  A    between atoms: C_21  and  C_24
    6  A    between atoms: C_22  and  C_33
    7  A    between atoms: C_22  and  C_34
    8  A    between atoms: C_27  and  N_32
    9  A    between atoms: C_27  and  C_33
                            x       y       z     vdW  Elec       q    Type
                         _______ _______ _______ _____ _____    ______ ____

>  <TORSDO>
F 9

$$$$
=
 OpenBabel10232410483D

 35 39  0  0  1  0  0  0  0  0999 V2000
  186.1940  178.0060  142.9250 C   0  0  1  0  0  3  0  0  0  0  0  0
  187.2000  177.3080  146.4910 C   0  0  0  0  0  2  0  0  0  0  0  0
  185.1180  178.7890  143.5830 C   0  0  0  0  0  0  0  0  0  0  0  0
  185.2470  178.9380  145.3570 S   0  0  0  0  0  0  0  0  0  0  0  0
  190.1900  178.4010  142.4090 C   0  0  0  0  0  2  0  0  0  0  0  0
  188.2080  176.8470  143.8850 C   0  0  1  0  0  3  0  0  0  0  0  0
  190.5490  177.1540  144.5710 C   0  0  0  0  0  0  0  0  0  0  0  0
  186.2020  177.3900  145.3260 C   0  0  1  0  0  3  0  0  0  0  0  0
  188.5890  177.8210  146.1060 C   0  0  0  0  0  2  0  0  0  0  0  0
  187.1560  178.9780  142.2230 C   0  0  0  0  0  2  0  0  0  0  0  0
  188.0020  178.2880  141.1420 C   0  0  0  0  0  2  0  0  0  0  0  0
  184.1560  179.2140  142.9670 O   0  0  0  0  0  0  0  0  0  0  0  0
  189.0880  177.1610  144.8490 C   0  0  1  0  0  3  0  0  0  0  0  0
  186.8510  177.2840  144.0140 N   0  0  1  0  0  0  0  0  0  0  0  0
  191.0420  177.7010  143.4430 C   0  0  0  0  0  3  0  0  0  0  0  0
  189.1900  177.4720  141.6860 C   0  0  2  0  0  0  0  0  0  0  0  0
  188.6800  176.4570  142.5970 N   0  0  0  0  0  2  0  0  0  0  0  0
  191.4830  176.5550  145.5480 C   0  0  0  0  0  0  0  0  0  0  0  0
  192.0600  175.4650  145.2900 O   0  0  0  0  0  0  0  0  0  0  0  0
  191.7500  177.2040  146.7890 N   0  0  0  0  0  1  0  0  0  0  0  0
  189.8950  176.7520  140.5350 C   0  0  0  0  0  2  0  0  0  0  0  0
  189.4840  177.2570  139.1550 C   0  0  0  0  0  2  0  0  0  0  0  0
  189.5240  176.1300  138.1320 C   0  0  0  0  0  2  0  0  0  0  0  0
  188.6670  176.4380  136.9950 N   0  0  0  0  0  2  0  0  0  0  0  0
  187.3460  175.8860  137.2660 C   0  0  2  0  0  3  0  0  0  0  0  0
  187.3200  174.4210  136.8780 C   0  0  0  0  0  1  0  0  0  0  0  0
  186.2930  176.6370  136.4600 C   0  0  0  0  0  2  0  0  0  0  0  0
  185.7500  178.2670  138.2270 C   0  0  0  0  0  3  0  0  0  0  0  0
  184.8030  179.7620  139.8030 O   0  0  0  0  0  0  0  0  0  0  0  0
  185.3450  177.3650  137.3530 C   0  0  0  0  0  0  0  0  0  0  0  0
  183.5810  177.0470  137.3100 S   0  0  0  0  0  0  0  0  0  0  0  0
  184.6450  178.8330  138.9710 C   0  0  0  0  0  0  0  0  0  0  0  0
  183.3060  178.2660  138.6420 C   0  0  2  0  0  3  0  0  0  0  0  0
  182.8210  176.1740  139.6960 O   0  0  0  0  0  1  0  0  0  0  0  0
  182.7080  177.5570  139.8470 C   0  0  0  0  0  2  0  0  0  0  0  0
  1 10  1  1  0  0  0
  1  3  1  0  0  0  0
  1 14  1  0  0  0  0
  3  4  1  0  0  0  0
  5 15  1  0  0  0  0
  6 17  1  6  0  0  0
  6 14  1  0  0  0  0
  6 13  1  0  0  0  0
  7 13  1  0  0  0  0
  7 18  1  0  0  0  0
  8  4  1  0  0  0  0
  8  2  1  1  0  0  0
  9  2  1  0  0  0  0
 11 16  1  0  0  0  0
 11 10  1  0  0  0  0
 12  3  2  0  0  0  0
 13  9  1  6  0  0  0
 14  8  1  0  0  0  0
 15  7  2  0  0  0  0
 16  5  1  0  0  0  0
 16 17  1  0  0  0  0
 18 20  1  0  0  0  0
 19 18  2  0  0  0  0
 21 16  1  0  0  0  0
 22 21  1  0  0  0  0
 23 22  1  0  0  0  0
 24 25  1  0  0  0  0
 24 23  1  0  0  0  0
 26 25  1  0  0  0  0
 27 25  1  0  0  0  0
 27 30  1  0  0  0  0
 28 32  1  0  0  0  0
 30 28  2  0  0  0  0
 31 30  1  0  0  0  0
 31 33  1  0  0  0  0
 32 29  2  0  0  0  0
 33 32  1  0  0  0  0
 33 35  1  0  0  0  0
 34 35  1  0  0  0  0
M  END
>  <MODEL>
2

>  <REMARK>
 VINA RESULT:      -8.1      2.005      2.526
  Name = 
  9 active torsions:
  status: ('A' for Active; 'I' for Inactive)
    1  A    between atoms: C_2  and  C_4
    2  A    between atoms: C_2  and  N_32
    3  A    between atoms: C_4  and  C_11
    4  A    between atoms: C_12  and  C_13
    5  A    between atoms: C_21  and  C_24
    6  A    between atoms: C_22  and  C_33
    7  A    between atoms: C_22  and  C_34
    8  A    between atoms: C_27  and  N_32
    9  A    between atoms: C_27  and  C_33
                            x       y       z     vdW  Elec       q    Type
                         _______ _______ _______ _____ _____    ______ ____

>  <TORSDO>
F 9

$$$$
=
 OpenBabel10232410483D

 35 39  0  0  1  0  0  0  0  0999 V2000
  186.3590  177.8330  143.1930 C   0  0  1  0  0  3  0  0  0  0  0  0
  187.1690  177.4320  146.8530 C   0  0  0  0  0  2  0  0  0  0  0  0
  185.2540  178.6700  143.7250 C   0  0  0  0  0  0  0  0  0  0  0  0
  185.2900  178.9660  145.4850 S   0  0  0  0  0  0  0  0  0  0  0  0
  190.3790  178.1740  142.8600 C   0  0  0  0  0  2  0  0  0  0  0  0
  188.3100  176.7520  144.3520 C   0  0  1  0  0  3  0  0  0  0  0  0
  190.6140  177.1100  145.1340 C   0  0  0  0  0  0  0  0  0  0  0  0
  186.2350  177.4190  145.6330 C   0  0  1  0  0  3  0  0  0  0  0  0
  188.5800  177.9080  146.5020 C   0  0  0  0  0  2  0  0  0  0  0  0
  187.3630  178.7400  142.4640 C   0  0  0  0  0  2  0  0  0  0  0  0
  188.2600  177.9600  141.4910 C   0  0  0  0  0  2  0  0  0  0  0  0
  184.3290  179.0450  143.0250 O   0  0  0  0  0  0  0  0  0  0  0  0
  189.1400  177.1440  145.3320 C   0  0  1  0  0  3  0  0  0  0  0  0
  186.9520  177.2020  144.3720 N   0  0  1  0  0  0  0  0  0  0  0  0
  191.1690  177.5600  143.9930 C   0  0  0  0  0  3  0  0  0  0  0  0
  189.4120  177.1890  142.1640 C   0  0  2  0  0  0  0  0  0  0  0  0
  188.8470  176.2550  143.1280 N   0  0  0  0  0  2  0  0  0  0  0  0
  191.4900  176.5930  146.2060 C   0  0  0  0  0  0  0  0  0  0  0  0
  191.6350  177.2400  147.2770 O   0  0  0  0  0  0  0  0  0  0  0  0
  192.1750  175.3520  146.0480 N   0  0  0  0  0  1  0  0  0  0  0  0
  190.1720  176.3750  141.1170 C   0  0  0  0  0  2  0  0  0  0  0  0
  191.0830  177.2190  140.2300 C   0  0  0  0  0  2  0  0  0  0  0  0
  191.3270  176.5310  138.8940 C   0  0  0  0  0  2  0  0  0  0  0  0
  192.7320  176.6250  138.5150 N   0  0  0  0  0  2  0  0  0  0  0  0
  192.9080  175.9060  137.2610 C   0  0  2  0  0  3  0  0  0  0  0  0
  191.5840  175.8390  136.5260 C   0  0  0  0  0  1  0  0  0  0  0  0
  193.4010  174.4910  137.5370 C   0  0  0  0  0  2  0  0  0  0  0  0
  195.7700  174.4980  138.2170 C   0  0  0  0  0  3  0  0  0  0  0  0
  198.1220  174.3450  138.4590 O   0  0  0  0  0  0  0  0  0  0  0  0
  194.8620  174.3640  137.2670 C   0  0  0  0  0  0  0  0  0  0  0  0
  195.4890  174.0360  135.6200 S   0  0  0  0  0  0  0  0  0  0  0  0
  197.1130  174.3280  137.7070 C   0  0  0  0  0  0  0  0  0  0  0  0
  197.2080  174.0860  136.2390 C   0  0  2  0  0  3  0  0  0  0  0  0
  197.4030  176.4480  135.9230 O   0  0  0  0  0  1  0  0  0  0  0  0
  197.9500  175.2200  135.5500 C   0  0  0  0  0  2  0  0  0  0  0  0
  1 10  1  1  0  0  0
  1  3  1  0  0  0  0
  1 14  1  0  0  0  0
  3  4  1  0  0  0  0
  4  8  1  0  0  0  0
  5 15  1  0  0  0  0
  6 17  1  6  0  0  0
  6 14  1  0  0  0  0
  6 13  1  0  0  0  0
  7 13  1  0  0  0  0
  7 18  1  0  0  0  0
  8  2  1  1  0  0  0
  9  2  1  0  0  0  0
 11 16  1  0  0  0  0
 11 10  1  0  0  0  0
 12  3  2  0  0  0  0
 13  9  1  6  0  0  0
 14  8  1  0  0  0  0
 15  7  2  0  0  0  0
 16  5  1  0  0  0  0
 16 17  1  0  0  0  0
 18 19  2  0  0  0  0
 20 18  1  0  0  0  0
 21 16  1  0  0  0  0
 22 21  1  0  0  0  0
 23 22  1  0  0  0  0
 24 23  1  0  0  0  0
 25 27  1  0  0  0  0
 25 24  1  0  0  0  0
 26 25  1  0  0  0  0
 30 27  1  0  0  0  0
 30 28  2  0  0  0  0
 31 33  1  0  0  0  0
 31 30  1  0  0  0  0
 32 28  1  0  0  0  0
 32 29  2  0  0  0  0
 33 32  1  0  0  0  0
 35 34  1  0  0  0  0
 35 33  1  0  0  0  0
M  END
>  <MODEL>
3

>  <REMARK>
 VINA RESULT:      -7.7      3.871      5.310
  Name = 
  9 active torsions:
  status: ('A' for Active; 'I' for Inactive)
    1  A    between atoms: C_2  and  C_4
    2  A    between atoms: C_2  and  N_32
    3  A    between atoms: C_4  and  C_11
    4  A    between atoms: C_12  and  C_13
    5  A    between atoms: C_21  and  C_24
    6  A    between atoms: C_22  and  C_33
    7  A    between atoms: C_22  and  C_34
    8  A    between atoms: C_27  and  N_32
    9  A    between atoms: C_27  and  C_33
                            x       y       z     vdW  Elec       q    Type
                         _______ _______ _______ _____ _____    ______ ____

>  <TORSDO>
F 9

$$$$
=
 OpenBabel10232410483D

 35 39  0  0  1  0  0  0  0  0999 V2000
  190.8570  176.5990  144.4750 C   0  0  1  0  0  3  0  0  0  0  0  0
  189.4820  177.4900  147.8710 C   0  0  0  0  0  2  0  0  0  0  0  0
  191.6800  175.6520  145.2680 C   0  0  0  0  0  0  0  0  0  0  0  0
  191.2730  175.5420  147.0030 S   0  0  0  0  0  0  0  0  0  0  0  0
  186.9680  176.8840  143.3870 C   0  0  0  0  0  2  0  0  0  0  0  0
  188.9520  178.0920  145.1550 C   0  0  1  0  0  3  0  0  0  0  0  0
  186.5190  178.1930  145.4940 C   0  0  0  0  0  0  0  0  0  0  0  0
  190.6090  177.2290  146.8590 C   0  0  1  0  0  3  0  0  0  0  0  0
  188.0960  177.2160  147.2830 C   0  0  0  0  0  2  0  0  0  0  0  0
  189.8560  175.7990  143.6270 C   0  0  0  0  0  2  0  0  0  0  0  0
  189.3030  176.6120  142.4470 C   0  0  0  0  0  2  0  0  0  0  0  0
  192.6340  175.0640  144.7900 O   0  0  0  0  0  0  0  0  0  0  0  0
  187.9020  177.9400  145.9780 C   0  0  1  0  0  3  0  0  0  0  0  0
  190.1820  177.4330  145.4700 N   0  0  1  0  0  0  0  0  0  0  0  0
  186.1080  177.7270  144.2990 C   0  0  0  0  0  3  0  0  0  0  0  0
  188.2050  177.6230  142.8290 C   0  0  2  0  0  0  0  0  0  0  0  0
  188.7430  178.5450  143.8190 N   0  0  0  0  0  2  0  0  0  0  0  0
  185.5690  178.9500  146.3370 C   0  0  0  0  0  0  0  0  0  0  0  0
  185.9940  179.7070  147.2490 O   0  0  0  0  0  0  0  0  0  0  0  0
  184.1640  178.8430  146.1230 N   0  0  0  0  0  1  0  0  0  0  0  0
  187.8040  178.4410  141.6000 C   0  0  0  0  0  2  0  0  0  0  0  0
  188.8000  178.3430  140.4480 C   0  0  0  0  0  2  0  0  0  0  0  0
  188.1070  177.8920  139.1700 C   0  0  0  0  0  2  0  0  0  0  0  0
  188.4080  178.8030  138.0730 N   0  0  0  0  0  2  0  0  0  0  0  0
  189.2010  178.0770  137.0910 C   0  0  2  0  0  3  0  0  0  0  0  0
  188.4340  177.9870  135.7870 C   0  0  0  0  0  1  0  0  0  0  0  0
  189.4950  176.6700  137.5980 C   0  0  0  0  0  2  0  0  0  0  0  0
  191.8070  176.6040  138.4480 C   0  0  0  0  0  3  0  0  0  0  0  0
  194.1100  176.2840  138.9080 O   0  0  0  0  0  0  0  0  0  0  0  0
  190.9460  176.3440  137.4820 C   0  0  0  0  0  0  0  0  0  0  0  0
  191.6250  175.5890  136.0050 S   0  0  0  0  0  0  0  0  0  0  0  0
  193.1500  176.1930  138.0990 C   0  0  0  0  0  0  0  0  0  0  0  0
  193.3000  175.6130  136.7340 C   0  0  2  0  0  3  0  0  0  0  0  0
  195.5330  176.0900  136.0230 O   0  0  0  0  0  1  0  0  0  0  0  0
  194.2030  176.4820  135.8730 C   0  0  0  0  0  2  0  0  0  0  0  0
  1 10  1  1  0  0  0
  1  3  1  0  0  0  0
  1 14  1  0  0  0  0
  3  4  1  0  0  0  0
  5 15  1  0  0  0  0
  6 17  1  6  0  0  0
  6 14  1  0  0  0  0
  6 13  1  0  0  0  0
  7 13  1  0  0  0  0
  7 18  1  0  0  0  0
  8  4  1  0  0  0  0
  8  2  1  1  0  0  0
  9  2  1  0  0  0  0
 11 16  1  0  0  0  0
 11 10  1  0  0  0  0
 12  3  2  0  0  0  0
 13  9  1  6  0  0  0
 14  8  1  0  0  0  0
 15  7  2  0  0  0  0
 16  5  1  0  0  0  0
 16 17  1  0  0  0  0
 18 19  2  0  0  0  0
 20 18  1  0  0  0  0
 21 16  1  0  0  0  0
 22 21  1  0  0  0  0
 23 22  1  0  0  0  0
 24 23  1  0  0  0  0
 25 27  1  0  0  0  0
 25 24  1  0  0  0  0
 26 25  1  0  0  0  0
 30 27  1  0  0  0  0
 30 28  2  0  0  0  0
 31 33  1  0  0  0  0
 31 30  1  0  0  0  0
 32 28  1  0  0  0  0
 32 29  2  0  0  0  0
 33 32  1  0  0  0  0
 35 34  1  0  0  0  0
 35 33  1  0  0  0  0
M  END
>  <MODEL>
4

>  <REMARK>
 VINA RESULT:      -7.6      3.335      5.284
  Name = 
  9 active torsions:
  status: ('A' for Active; 'I' for Inactive)
    1  A    between atoms: C_2  and  C_4
    2  A    between atoms: C_2  and  N_32
    3  A    between atoms: C_4  and  C_11
    4  A    between atoms: C_12  and  C_13
    5  A    between atoms: C_21  and  C_24
    6  A    between atoms: C_22  and  C_33
    7  A    between atoms: C_22  and  C_34
    8  A    between atoms: C_27  and  N_32
    9  A    between atoms: C_27  and  C_33
                            x       y       z     vdW  Elec       q    Type
                         _______ _______ _______ _____ _____    ______ ____

>  <TORSDO>
F 9

$$$$
=
 OpenBabel10232410483D

 35 39  0  0  1  0  0  0  0  0999 V2000
  185.9660  178.0480  142.5900 C   0  0  1  0  0  3  0  0  0  0  0  0
  186.1210  177.7380  146.3450 C   0  0  0  0  0  2  0  0  0  0  0  0
  184.7790  178.8840  142.8990 C   0  0  0  0  0  0  0  0  0  0  0  0
  184.5020  179.2200  144.6310 S   0  0  0  0  0  0  0  0  0  0  0  0
  189.9790  178.4270  142.9630 C   0  0  0  0  0  2  0  0  0  0  0  0
  187.6900  177.0160  144.1000 C   0  0  1  0  0  3  0  0  0  0  0  0
  189.8170  177.4180  145.2670 C   0  0  0  0  0  0  0  0  0  0  0  0
  185.4160  177.6880  144.9800 C   0  0  1  0  0  3  0  0  0  0  0  0
  187.5680  178.2220  146.2360 C   0  0  0  0  0  2  0  0  0  0  0  0
  187.0760  178.9510  142.0290 C   0  0  0  0  0  2  0  0  0  0  0  0
  188.1370  178.1600  141.2480 C   0  0  0  0  0  2  0  0  0  0  0  0
  183.9890  179.2330  142.0390 O   0  0  0  0  0  0  0  0  0  0  0  0
  188.3310  177.4390  145.2020 C   0  0  1  0  0  3  0  0  0  0  0  0
  186.3470  177.4510  143.8700 N   0  0  1  0  0  0  0  0  0  0  0  0
  190.5620  177.8480  144.2310 C   0  0  0  0  0  3  0  0  0  0  0  0
  189.1570  177.4170  142.1310 C   0  0  2  0  0  0  0  0  0  0  0  0
  188.4380  176.4980  143.0020 N   0  0  0  0  0  2  0  0  0  0  0  0
  190.4940  176.9340  146.4890 C   0  0  0  0  0  0  0  0  0  0  0  0
  189.8190  176.5690  147.4880 O   0  0  0  0  0  0  0  0  0  0  0  0
  191.9170  176.8640  146.5510 N   0  0  0  0  0  1  0  0  0  0  0  0
  190.0960  176.5880  141.2540 C   0  0  0  0  0  2  0  0  0  0  0  0
  190.5970  177.3340  140.0200 C   0  0  0  0  0  2  0  0  0  0  0  0
  191.5080  176.4460  139.1830 C   0  0  0  0  0  2  0  0  0  0  0  0
  190.7280  175.4560  138.4500 N   0  0  0  0  0  2  0  0  0  0  0  0
  191.2890  175.3470  137.1100 C   0  0  2  0  0  3  0  0  0  0  0  0
  190.3770  176.0450  136.1210 C   0  0  0  0  0  1  0  0  0  0  0  0
  191.4230  173.8790  136.7200 C   0  0  0  0  0  2  0  0  0  0  0  0
  193.2210  172.2960  136.1420 C   0  0  0  0  0  3  0  0  0  0  0  0
  195.2200  171.1240  135.6490 O   0  0  0  0  0  0  0  0  0  0  0  0
  192.8550  173.4790  136.5990 C   0  0  0  0  0  0  0  0  0  0  0  0
  194.1830  174.5810  137.0840 S   0  0  0  0  0  0  0  0  0  0  0  0
  194.6600  172.1490  136.1170 C   0  0  0  0  0  0  0  0  0  0  0  0
  195.4250  173.3160  136.6400 C   0  0  2  0  0  3  0  0  0  0  0  0
  195.3680  172.9090  138.9960 O   0  0  0  0  0  1  0  0  0  0  0  0
  196.2110  172.9350  137.8840 C   0  0  0  0  0  2  0  0  0  0  0  0
  1 10  1  1  0  0  0
  1  3  1  0  0  0  0
  1 14  1  0  0  0  0
  3  4  1  0  0  0  0
  4  8  1  0  0  0  0
  5 15  1  0  0  0  0
  6 17  1  6  0  0  0
  6 13  1  0  0  0  0
  7 18  1  0  0  0  0
  8  2  1  1  0  0  0
  9  2  1  0  0  0  0
 11 10  1  0  0  0  0
 11 16  1  0  0  0  0
 12  3  2  0  0  0  0
 13  7  1  0  0  0  0
 13  9  1  6  0  0  0
 14  6  1  0  0  0  0
 14  8  1  0  0  0  0
 15  7  2  0  0  0  0
 16  5  1  0  0  0  0
 16 17  1  0  0  0  0
 18 20  1  0  0  0  0
 18 19  2  0  0  0  0
 21 16  1  0  0  0  0
 22 21  1  0  0  0  0
 23 22  1  0  0  0  0
 24 23  1  0  0  0  0
 25 24  1  0  0  0  0
 26 25  1  0  0  0  0
 27 25  1  0  0  0  0
 28 30  2  0  0  0  0
 29 32  2  0  0  0  0
 30 27  1  0  0  0  0
 30 31  1  0  0  0  0
 32 28  1  0  0  0  0
 32 33  1  0  0  0  0
 33 31  1  0  0  0  0
 33 35  1  0  0  0  0
 35 34  1  0  0  0  0
M  END
>  <MODEL>
5

>  <REMARK>
 VINA RESULT:      -7.4      3.109      4.640
  Name = 
  9 active torsions:
  status: ('A' for Active; 'I' for Inactive)
    1  A    between atoms: C_2  and  C_4
    2  A    between atoms: C_2  and  N_32
    3  A    between atoms: C_4  and  C_11
    4  A    between atoms: C_12  and  C_13
    5  A    between atoms: C_21  and  C_24
    6  A    between atoms: C_22  and  C_33
    7  A    between atoms: C_22  and  C_34
    8  A    between atoms: C_27  and  N_32
    9  A    between atoms: C_27  and  C_33
                            x       y       z     vdW  Elec       q    Type
                         _______ _______ _______ _____ _____    ______ ____

>  <TORSDO>
F 9

$$$$
=
 OpenBabel10232410483D

 35 39  0  0  1  0  0  0  0  0999 V2000
  190.9700  176.5730  144.5610 C   0  0  1  0  0  3  0  0  0  0  0  0
  189.4660  177.4530  147.9050 C   0  0  0  0  0  2  0  0  0  0  0  0
  191.7620  175.6240  145.3820 C   0  0  0  0  0  0  0  0  0  0  0  0
  191.2900  175.5090  147.1000 S   0  0  0  0  0  0  0  0  0  0  0  0
  187.1250  176.8600  143.3260 C   0  0  0  0  0  2  0  0  0  0  0  0
  189.0400  178.0640  145.1720 C   0  0  1  0  0  3  0  0  0  0  0  0
  186.5950  178.1620  145.4180 C   0  0  0  0  0  0  0  0  0  0  0  0
  190.6310  177.1960  146.9360 C   0  0  1  0  0  3  0  0  0  0  0  0
  188.1040  177.1810  147.2640 C   0  0  0  0  0  2  0  0  0  0  0  0
  190.0020  175.7750  143.6730 C   0  0  0  0  0  2  0  0  0  0  0  0
  189.4950  176.5920  142.4750 C   0  0  0  0  0  2  0  0  0  0  0  0
  192.7350  175.0370  144.9390 O   0  0  0  0  0  0  0  0  0  0  0  0
  187.9600  177.9090  145.9540 C   0  0  1  0  0  3  0  0  0  0  0  0
  190.2570  177.4040  145.5320 N   0  0  1  0  0  0  0  0  0  0  0  0
  186.2310  177.7010  144.2070 C   0  0  0  0  0  3  0  0  0  0  0  0
  188.3830  177.6020  142.8180 C   0  0  2  0  0  0  0  0  0  0  0  0
  188.8820  178.5210  143.8310 N   0  0  0  0  0  2  0  0  0  0  0  0
  185.6140  178.9170  146.2260 C   0  0  0  0  0  0  0  0  0  0  0  0
  185.9810  179.5230  147.2690 O   0  0  0  0  0  0  0  0  0  0  0  0
  184.2450  178.9790  145.8340 N   0  0  0  0  0  1  0  0  0  0  0  0
  188.0290  178.4230  141.5770 C   0  0  0  0  0  2  0  0  0  0  0  0
  188.3200  177.7040  140.2640 C   0  0  0  0  0  2  0  0  0  0  0  0
  189.0280  178.6300  139.2840 C   0  0  0  0  0  2  0  0  0  0  0  0
  188.3110  178.6810  138.0160 N   0  0  0  0  0  2  0  0  0  0  0  0
  187.1800  177.7680  138.1020 C   0  0  2  0  0  3  0  0  0  0  0  0
  187.5060  176.4870  137.3590 C   0  0  0  0  0  1  0  0  0  0  0  0
  185.9450  178.4090  137.4800 C   0  0  0  0  0  2  0  0  0  0  0  0
  184.9260  178.6140  139.7150 C   0  0  0  0  0  3  0  0  0  0  0  0
  183.5580  178.7930  141.6420 O   0  0  0  0  0  0  0  0  0  0  0  0
  184.7890  178.3830  138.4220 C   0  0  0  0  0  0  0  0  0  0  0  0
  183.1270  178.0160  137.8610 S   0  0  0  0  0  0  0  0  0  0  0  0
  183.6620  178.5350  140.4140 C   0  0  0  0  0  0  0  0  0  0  0  0
  182.4910  178.1730  139.5660 C   0  0  2  0  0  3  0  0  0  0  0  0
  182.6350  175.7880  139.4530 O   0  0  0  0  0  1  0  0  0  0  0  0
  181.8990  176.8410  139.9990 C   0  0  0  0  0  2  0  0  0  0  0  0
  1 10  1  6  0  0  0
  1  3  1  0  0  0  0
  1 14  1  0  0  0  0
  3  4  1  0  0  0  0
  5 15  1  0  0  0  0
  6 17  1  6  0  0  0
  6 14  1  0  0  0  0
  6 13  1  0  0  0  0
  7 13  1  0  0  0  0
  7 18  1  0  0  0  0
  8  4  1  0  0  0  0
  8  2  1  1  0  0  0
  9  2  1  0  0  0  0
 11 16  1  0  0  0  0
 11 10  1  0  0  0  0
 12  3  2  0  0  0  0
 13  9  1  6  0  0  0
 14  8  1  0  0  0  0
 15  7  2  0  0  0  0
 16  5  1  0  0  0  0
 16 17  1  0  0  0  0
 18 19  2  0  0  0  0
 20 18  1  0  0  0  0
 21 16  1  0  0  0  0
 22 21  1  0  0  0  0
 23 22  1  0  0  0  0
 24 25  1  0  0  0  0
 24 23  1  0  0  0  0
 26 25  1  0  0  0  0
 27 25  1  0  0  0  0
 27 30  1  0  0  0  0
 28 32  1  0  0  0  0
 30 28  2  0  0  0  0
 31 30  1  0  0  0  0
 31 33  1  0  0  0  0
 32 29  2  0  0  0  0
 33 35  1  0  0  0  0
 33 32  1  0  0  0  0
 34 35  1  0  0  0  0
M  END
>  <MODEL>
6

>  <REMARK>
 VINA RESULT:      -7.3      2.840      4.706
  Name = 
  9 active torsions:
  status: ('A' for Active; 'I' for Inactive)
    1  A    between atoms: C_2  and  C_4
    2  A    between atoms: C_2  and  N_32
    3  A    between atoms: C_4  and  C_11
    4  A    between atoms: C_12  and  C_13
    5  A    between atoms: C_21  and  C_24
    6  A    between atoms: C_22  and  C_33
    7  A    between atoms: C_22  and  C_34
    8  A    between atoms: C_27  and  N_32
    9  A    between atoms: C_27  and  C_33
                            x       y       z     vdW  Elec       q    Type
                         _______ _______ _______ _____ _____    ______ ____

>  <TORSDO>
F 9

$$$$
=
 OpenBabel10232410483D

 35 39  0  0  1  0  0  0  0  0999 V2000
  191.2260  177.2030  145.5200 C   0  0  1  0  0  3  0  0  0  0  0  0
  187.7470  178.0490  146.7010 C   0  0  0  0  0  2  0  0  0  0  0  0
  191.3080  176.5390  146.8460 C   0  0  0  0  0  0  0  0  0  0  0  0
  189.7870  176.4910  147.7800 S   0  0  0  0  0  0  0  0  0  0  0  0
  189.3200  176.5010  142.0180 C   0  0  0  0  0  2  0  0  0  0  0  0
  189.2870  178.2780  144.3350 C   0  0  1  0  0  3  0  0  0  0  0  0
  187.3650  177.8520  142.8620 C   0  0  0  0  0  0  0  0  0  0  0  0
  189.2740  177.9640  146.8450 C   0  0  1  0  0  3  0  0  0  0  0  0
  187.2480  177.4180  145.4000 C   0  0  0  0  0  2  0  0  0  0  0  0
  191.2290  176.1260  144.4240 C   0  0  0  0  0  2  0  0  0  0  0  0
  191.6240  176.6870  143.0500 C   0  0  0  0  0  2  0  0  0  0  0  0
  192.3640  176.1440  147.3090 O   0  0  0  0  0  0  0  0  0  0  0  0
  187.9870  177.9630  144.2080 C   0  0  1  0  0  3  0  0  0  0  0  0
  189.9650  177.9440  145.5500 N   0  0  1  0  0  0  0  0  0  0  0  0
  187.9910  177.2040  141.8610 C   0  0  0  0  0  3  0  0  0  0  0  0
  190.4990  177.4520  142.3260 C   0  0  2  0  0  0  0  0  0  0  0  0
  190.0640  178.5540  143.1720 N   0  0  0  0  0  2  0  0  0  0  0  0
  186.0330  178.4440  142.6140 C   0  0  0  0  0  0  0  0  0  0  0  0
  185.0170  177.9970  143.2100 O   0  0  0  0  0  0  0  0  0  0  0  0
  185.8810  179.5340  141.7070 N   0  0  0  0  0  1  0  0  0  0  0  0
  191.0330  178.0480  141.0230 C   0  0  0  0  0  2  0  0  0  0  0  0
  192.0270  177.1440  140.2990 C   0  0  0  0  0  2  0  0  0  0  0  0
  191.5870  176.8950  138.8630 C   0  0  0  0  0  2  0  0  0  0  0  0
  191.1920  175.5050  138.6800 N   0  0  0  0  0  2  0  0  0  0  0  0
  190.1020  175.4720  137.7140 C   0  0  2  0  0  3  0  0  0  0  0  0
  190.4770  174.5650  136.5580 C   0  0  0  0  0  1  0  0  0  0  0  0
  189.8340  176.8760  137.1850 C   0  0  0  0  0  2  0  0  0  0  0  0
  187.7740  177.9180  138.0490 C   0  0  0  0  0  3  0  0  0  0  0  0
  185.6150  178.7880  138.4910 O   0  0  0  0  0  0  0  0  0  0  0  0
  188.3720  177.1680  137.1410 C   0  0  0  0  0  0  0  0  0  0  0  0
  187.3180  176.5020  135.8530 S   0  0  0  0  0  0  0  0  0  0  0  0
  186.3580  178.0560  137.7870 C   0  0  0  0  0  0  0  0  0  0  0  0
  185.8570  177.3070  136.6000 C   0  0  2  0  0  3  0  0  0  0  0  0
  183.5630  176.7480  136.9770 O   0  0  0  0  0  1  0  0  0  0  0  0
  184.8600  176.2360  137.0150 C   0  0  0  0  0  2  0  0  0  0  0  0
  1 10  1  6  0  0  0
  1 14  1  0  0  0  0
  1  3  1  0  0  0  0
  3 12  2  0  0  0  0
  3  4  1  0  0  0  0
  5 16  1  0  0  0  0
  6 17  1  6  0  0  0
  6 14  1  0  0  0  0
  7 13  1  0  0  0  0
  8  2  1  6  0  0  0
  8  4  1  0  0  0  0
  9  2  1  0  0  0  0
 11 10  1  0  0  0  0
 13  6  1  0  0  0  0
 13  9  1  6  0  0  0
 14  8  1  0  0  0  0
 15  5  1  0  0  0  0
 15  7  2  0  0  0  0
 16 11  1  0  0  0  0
 16 17  1  0  0  0  0
 18  7  1  0  0  0  0
 18 19  2  0  0  0  0
 20 18  1  0  0  0  0
 21 16  1  0  0  0  0
 22 21  1  0  0  0  0
 23 22  1  0  0  0  0
 24 23  1  0  0  0  0
 25 24  1  0  0  0  0
 26 25  1  0  0  0  0
 27 25  1  0  0  0  0
 30 27  1  0  0  0  0
 30 28  2  0  0  0  0
 31 33  1  0  0  0  0
 31 30  1  0  0  0  0
 32 28  1  0  0  0  0
 32 29  2  0  0  0  0
 33 35  1  0  0  0  0
 33 32  1  0  0  0  0
 34 35  1  0  0  0  0
M  END
>  <MODEL>
7

>  <REMARK>
 VINA RESULT:      -7.2      1.949      4.017
  Name = 
  9 active torsions:
  status: ('A' for Active; 'I' for Inactive)
    1  A    between atoms: C_2  and  C_4
    2  A    between atoms: C_2  and  N_32
    3  A    between atoms: C_4  and  C_11
    4  A    between atoms: C_12  and  C_13
    5  A    between atoms: C_21  and  C_24
    6  A    between atoms: C_22  and  C_33
    7  A    between atoms: C_22  and  C_34
    8  A    between atoms: C_27  and  N_32
    9  A    between atoms: C_27  and  C_33
                            x       y       z     vdW  Elec       q    Type
                         _______ _______ _______ _____ _____    ______ ____

>  <TORSDO>
F 9

$$$$
=
 OpenBabel10232410483D

 35 39  0  0  1  0  0  0  0  0999 V2000
  191.1040  176.5690  144.9910 C   0  0  1  0  0  3  0  0  0  0  0  0
  189.3150  177.5450  148.1630 C   0  0  0  0  0  2  0  0  0  0  0  0
  191.8290  175.6540  145.9080 C   0  0  0  0  0  0  0  0  0  0  0  0
  191.2120  175.5910  147.5820 S   0  0  0  0  0  0  0  0  0  0  0  0
  187.3770  176.7810  143.4240 C   0  0  0  0  0  2  0  0  0  0  0  0
  189.1200  178.0620  145.3860 C   0  0  1  0  0  3  0  0  0  0  0  0
  186.6630  178.1470  145.4200 C   0  0  0  0  0  0  0  0  0  0  0  0
  190.5600  177.2660  147.3060 C   0  0  1  0  0  3  0  0  0  0  0  0
  188.0140  177.2400  147.4180 C   0  0  0  0  0  2  0  0  0  0  0  0
  190.2200  175.7340  144.0510 C   0  0  0  0  0  2  0  0  0  0  0  0
  189.8120  176.5070  142.7880 C   0  0  0  0  0  2  0  0  0  0  0  0
  192.8390  175.0620  145.5680 O   0  0  0  0  0  0  0  0  0  0  0  0
  187.9770  177.9230  146.0780 C   0  0  1  0  0  3  0  0  0  0  0  0
  190.3060  177.4240  145.8700 N   0  0  1  0  0  0  0  0  0  0  0  0
  186.4050  177.6430  144.1980 C   0  0  0  0  0  3  0  0  0  0  0  0
  188.6680  177.5170  143.0000 C   0  0  2  0  0  0  0  0  0  0  0  0
  189.0740  178.4730  144.0210 N   0  0  0  0  0  2  0  0  0  0  0  0
  185.6120  178.9190  146.1160 C   0  0  0  0  0  0  0  0  0  0  0  0
  185.9020  179.6320  147.1130 O   0  0  0  0  0  0  0  0  0  0  0  0
  184.2600  178.8770  145.6640 N   0  0  0  0  0  1  0  0  0  0  0  0
  188.4160  178.2950  141.7080 C   0  0  0  0  0  2  0  0  0  0  0  0
  188.8300  177.5380  140.4490 C   0  0  0  0  0  2  0  0  0  0  0  0
  188.7140  178.4280  139.2190 C   0  0  0  0  0  2  0  0  0  0  0  0
  187.3870  178.3180  138.6280 N   0  0  0  0  0  2  0  0  0  0  0  0
  187.5350  177.7500  137.2950 C   0  0  2  0  0  3  0  0  0  0  0  0
  187.3030  178.8290  136.2560 C   0  0  0  0  0  1  0  0  0  0  0  0
  186.5210  176.6310  137.0900 C   0  0  0  0  0  2  0  0  0  0  0  0
  188.4990  175.1600  137.1080 C   0  0  0  0  0  3  0  0  0  0  0  0
  190.1020  173.4160  137.1780 O   0  0  0  0  0  0  0  0  0  0  0  0
  187.1860  175.2950  137.0640 C   0  0  0  0  0  0  0  0  0  0  0  0
  186.2410  173.7770  136.9520 S   0  0  0  0  0  0  0  0  0  0  0  0
  188.8990  173.7700  137.0730 C   0  0  0  0  0  0  0  0  0  0  0  0
  187.7800  172.7920  136.9510 C   0  0  2  0  0  3  0  0  0  0  0  0
  188.0840  170.6650  135.9000 O   0  0  0  0  0  1  0  0  0  0  0  0
  187.8750  172.0210  135.6440 C   0  0  0  0  0  2  0  0  0  0  0  0
  1 10  1  6  0  0  0
  1 14  1  0  0  0  0
  1  3  1  0  0  0  0
  3  4  1  0  0  0  0
  5 15  1  0  0  0  0
  6 17  1  6  0  0  0
  6 14  1  0  0  0  0
  6 13  1  0  0  0  0
  7 13  1  0  0  0  0
  7 18  1  0  0  0  0
  8  4  1  0  0  0  0
  8  2  1  1  0  0  0
  9  2  1  0  0  0  0
 11 16  1  0  0  0  0
 11 10  1  0  0  0  0
 12  3  2  0  0  0  0
 13  9  1  6  0  0  0
 14  8  1  0  0  0  0
 15  7  2  0  0  0  0
 16  5  1  0  0  0  0
 16 17  1  0  0  0  0
 18 19  2  0  0  0  0
 20 18  1  0  0  0  0
 21 16  1  0  0  0  0
 22 21  1  0  0  0  0
 23 22  1  0  0  0  0
 24 23  1  0  0  0  0
 25 24  1  0  0  0  0
 26 25  1  0  0  0  0
 27 25  1  0  0  0  0
 30 27  1  0  0  0  0
 30 28  2  0  0  0  0
 31 30  1  0  0  0  0
 32 28  1  0  0  0  0
 32 29  2  0  0  0  0
 33 31  1  0  0  0  0
 33 32  1  0  0  0  0
 35 34  1  0  0  0  0
 35 33  1  0  0  0  0
M  END
>  <MODEL>
8

>  <REMARK>
 VINA RESULT:      -7.1      2.991      4.828
  Name = 
  9 active torsions:
  status: ('A' for Active; 'I' for Inactive)
    1  A    between atoms: C_2  and  C_4
    2  A    between atoms: C_2  and  N_32
    3  A    between atoms: C_4  and  C_11
    4  A    between atoms: C_12  and  C_13
    5  A    between atoms: C_21  and  C_24
    6  A    between atoms: C_22  and  C_33
    7  A    between atoms: C_22  and  C_34
    8  A    between atoms: C_27  and  N_32
    9  A    between atoms: C_27  and  C_33
                            x       y       z     vdW  Elec       q    Type
                         _______ _______ _______ _____ _____    ______ ____

>  <TORSDO>
F 9

$$$$
=
 OpenBabel10232410483D

 35 39  0  0  1  0  0  0  0  0999 V2000
  186.1980  177.9610  142.8710 C   0  0  1  0  0  3  0  0  0  0  0  0
  186.5530  177.6700  146.6130 C   0  0  0  0  0  2  0  0  0  0  0  0
  185.0200  178.7860  143.2390 C   0  0  0  0  0  0  0  0  0  0  0  0
  184.8310  179.1280  144.9810 S   0  0  0  0  0  0  0  0  0  0  0  0
  190.2210  178.3820  143.0310 C   0  0  0  0  0  2  0  0  0  0  0  0
  188.0100  176.9530  144.2930 C   0  0  1  0  0  3  0  0  0  0  0  0
  190.1910  177.3820  145.3450 C   0  0  0  0  0  0  0  0  0  0  0  0
  185.7780  177.6060  145.2880 C   0  0  1  0  0  3  0  0  0  0  0  0
  187.9870  178.1680  146.4270 C   0  0  0  0  0  2  0  0  0  0  0  0
  187.2680  178.8710  142.2480 C   0  0  0  0  0  2  0  0  0  0  0  0
  188.2940  178.0880  141.4160 C   0  0  0  0  0  2  0  0  0  0  0  0
  184.1820  179.1230  142.4200 O   0  0  0  0  0  0  0  0  0  0  0  0
  188.7030  177.3880  145.3580 C   0  0  1  0  0  3  0  0  0  0  0  0
  186.6510  177.3730  144.1320 N   0  0  1  0  0  0  0  0  0  0  0  0
  190.8760  177.8150  144.2690 C   0  0  0  0  0  3  0  0  0  0  0  0
  189.3670  177.3590  142.2480 C   0  0  2  0  0  0  0  0  0  0  0  0
  188.7040  176.4380  143.1600 N   0  0  0  0  0  2  0  0  0  0  0  0
  190.9360  176.9110  146.5310 C   0  0  0  0  0  0  0  0  0  0  0  0
  192.0080  176.2630  146.3930 O   0  0  0  0  0  0  0  0  0  0  0  0
  190.4600  177.1900  147.8460 N   0  0  0  0  0  1  0  0  0  0  0  0
  190.2670  176.5360  141.3260 C   0  0  0  0  0  2  0  0  0  0  0  0
  190.7450  177.3010  140.0950 C   0  0  0  0  0  2  0  0  0  0  0  0
  190.4800  176.5050  138.8250 C   0  0  0  0  0  2  0  0  0  0  0  0
  189.1030  176.6880  138.3820 N   0  0  0  0  0  2  0  0  0  0  0  0
  189.0110  176.2270  137.0030 C   0  0  2  0  0  3  0  0  0  0  0  0
  190.3030  176.5420  136.2760 C   0  0  0  0  0  1  0  0  0  0  0  0
  187.8540  176.9250  136.2980 C   0  0  0  0  0  2  0  0  0  0  0  0
  185.4590  176.4810  135.9250 C   0  0  0  0  0  3  0  0  0  0  0  0
  183.2830  175.6240  135.5450 O   0  0  0  0  0  0  0  0  0  0  0  0
  186.6730  176.0230  136.1690 C   0  0  0  0  0  0  0  0  0  0  0  0
  186.8220  174.2470  136.3570 S   0  0  0  0  0  0  0  0  0  0  0  0
  184.4870  175.4120  135.8420 C   0  0  0  0  0  0  0  0  0  0  0  0
  185.0260  174.0450  136.0880 C   0  0  2  0  0  3  0  0  0  0  0  0
  185.3830  172.7890  138.0920 O   0  0  0  0  0  1  0  0  0  0  0  0
  184.4040  173.4330  137.3330 C   0  0  0  0  0  2  0  0  0  0  0  0
  1 10  1  1  0  0  0
  1  3  1  0  0  0  0
  1 14  1  0  0  0  0
  3  4  1  0  0  0  0
  4  8  1  0  0  0  0
  5 15  1  0  0  0  0
  6 17  1  6  0  0  0
  6 13  1  0  0  0  0
  7 13  1  0  0  0  0
  7 18  1  0  0  0  0
  8  2  1  1  0  0  0
  9  2  1  0  0  0  0
 11 10  1  0  0  0  0
 11 16  1  0  0  0  0
 12  3  2  0  0  0  0
 13  9  1  6  0  0  0
 14  6  1  0  0  0  0
 14  8  1  0  0  0  0
 15  7  2  0  0  0  0
 16  5  1  0  0  0  0
 16 17  1  0  0  0  0
 18 20  1  0  0  0  0
 19 18  2  0  0  0  0
 21 16  1  0  0  0  0
 22 21  1  0  0  0  0
 23 22  1  0  0  0  0
 24 23  1  0  0  0  0
 25 24  1  0  0  0  0
 26 25  1  0  0  0  0
 27 25  1  0  0  0  0
 28 30  2  0  0  0  0
 29 32  2  0  0  0  0
 30 27  1  0  0  0  0
 30 31  1  0  0  0  0
 32 28  1  0  0  0  0
 32 33  1  0  0  0  0
 33 31  1  0  0  0  0
 33 35  1  0  0  0  0
 35 34  1  0  0  0  0
M  END
>  <MODEL>
9

>  <REMARK>
 VINA RESULT:      -7.1      1.550      1.993
  Name = 
  9 active torsions:
  status: ('A' for Active; 'I' for Inactive)
    1  A    between atoms: C_2  and  C_4
    2  A    between atoms: C_2  and  N_32
    3  A    between atoms: C_4  and  C_11
    4  A    between atoms: C_12  and  C_13
    5  A    between atoms: C_21  and  C_24
    6  A    between atoms: C_22  and  C_33
    7  A    between atoms: C_22  and  C_34
    8  A    between atoms: C_27  and  N_32
    9  A    between atoms: C_27  and  C_33
                            x       y       z     vdW  Elec       q    Type
                         _______ _______ _______ _____ _____    ______ ____

>  <TORSDO>
F 9

$$$$
