=
 OpenBabel10232408383D

 28 30  0  0  1  0  0  0  0  0999 V2000
  190.2310  177.2500  141.5540 C   0  0  2  0  0  3  0  0  0  0  0  0
  190.5600  177.5470  139.1990 O   0  0  0  0  0  0  0  0  0  0  0  0
  187.0470  178.4350  139.8690 N   0  0  0  0  0  1  0  0  0  0  0  0
  188.7630  177.6830  141.4210 C   0  0  2  0  0  3  0  0  0  0  0  0
  188.4840  178.3910  140.0900 C   0  0  1  0  0  3  0  0  0  0  0  0
  190.6960  176.6210  140.2440 C   0  0  0  0  0  2  0  0  0  0  0  0
  189.1830  177.6490  138.9340 C   0  0  1  0  0  3  0  0  0  0  0  0
  188.9910  178.3470  137.5900 C   0  0  0  0  0  3  0  0  0  0  0  0
  189.8090  177.7940  136.6200 F   0  0  0  0  0  0  0  0  0  0  0  0
  189.2340  179.7050  137.6980 F   0  0  0  0  0  0  0  0  0  0  0  0
  188.4210  178.5500  142.4970 O   0  0  0  0  0  0  0  0  0  0  0  0
  185.6690  178.1130  142.6150 O   0  0  0  0  0  0  0  0  0  0  0  0
  185.5890  177.7380  144.9800 C   0  0  1  0  0  3  0  0  0  0  0  0
  188.4940  177.8060  144.7670 C   0  0  0  0  0  3  0  0  0  0  0  0
  186.3230  177.9830  143.6850 C   0  0  0  0  0  0  0  0  0  0  0  0
  186.5010  177.2740  146.0890 C   0  0  0  0  0  3  0  0  0  0  0  0
  187.7920  178.1100  143.6670 C   0  0  0  0  0  0  0  0  0  0  0  0
  187.8320  177.3300  145.9940 C   0  0  0  0  0  3  0  0  0  0  0  0
  184.8430  178.9650  145.4000 C   0  0  0  0  0  0  0  0  0  0  0  0
  185.4390  179.8580  146.1160 N   0  0  0  0  0  1  0  0  0  0  0  0
  183.4490  179.0910  145.1340 N   0  0  0  0  0  2  0  0  0  0  0  0
  190.3990  176.2220  142.6680 C   0  0  0  0  0  2  0  0  0  0  0  0
  191.6150  176.5000  143.5440 C   0  0  1  0  0  3  0  0  0  0  0  0
  191.7280  177.9920  143.7650 C   0  0  0  0  0  1  0  0  0  0  0  0
  191.4880  175.8090  144.8910 C   0  0  0  0  0  2  0  0  0  0  0  0
  192.3250  175.7960  147.0790 C   0  0  0  0  0  2  0  0  0  0  0  0
  191.0660  176.5290  147.0800 C   0  0  0  0  0  2  0  0  0  0  0  0
  191.9900  176.6710  145.9460 N   0  0  0  0  0  0  0  0  0  0  0  0
  1 22  1  1  0  0  0
  2  6  1  0  0  0  0
  4  1  1  0  0  0  0
  4 11  1  1  0  0  0
  5  3  1  6  0  0  0
  5  4  1  0  0  0  0
  6  1  1  0  0  0  0
  7  8  1  6  0  0  0
  7  2  1  0  0  0  0
  7  5  1  0  0  0  0
  8 10  1  0  0  0  0
  9  8  1  0  0  0  0
 11 17  1  0  0  0  0
 12 15  2  0  0  0  0
 13 19  1  1  0  0  0
 13 16  1  0  0  0  0
 14 18  1  0  0  0  0
 15 13  1  0  0  0  0
 17 15  1  0  0  0  0
 17 14  2  0  0  0  0
 18 16  2  0  0  0  0
 19 20  1  0  0  0  0
 21 19  2  0  0  0  0
 22 23  1  0  0  0  0
 23 24  1  1  0  0  0
 23 25  1  0  0  0  0
 25 28  1  0  0  0  0
 26 27  1  0  0  0  0
 28 26  1  0  0  0  0
 28 27  1  0  0  0  0
M  END
>  <MODEL>
1

>  <REMARK>
 VINA RESULT:      -8.0      0.000      0.000
  Name = 
  8 active torsions:
  status: ('A' for Active; 'I' for Inactive)
    1  A    between atoms: C_1  and  C_26
    2  A    between atoms: C_3  and  C_7
    3  A    between atoms: C_5  and  C_12
    4  A    between atoms: O_11  and  C_15
    5  A    between atoms: O_11  and  C_20
    6  A    between atoms: C_12  and  C_14
    7  A    between atoms: C_14  and  C_25
    8  A    between atoms: N_17  and  C_25
                            x       y       z     vdW  Elec       q    Type
                         _______ _______ _______ _____ _____    ______ ____

>  <TORSDO>
F 8

$$$$
=
 OpenBabel10232408383D

 28 30  0  0  1  0  0  0  0  0999 V2000
  187.9250  177.9480  142.6280 C   0  0  2  0  0  3  0  0  0  0  0  0
  189.5780  177.7140  140.9080 O   0  0  0  0  0  0  0  0  0  0  0  0
  186.4020  178.4570  139.1930 N   0  0  0  0  0  1  0  0  0  0  0  0
  186.8420  178.2220  141.5750 C   0  0  2  0  0  3  0  0  0  0  0  0
  187.4380  178.5780  140.2070 C   0  0  1  0  0  3  0  0  0  0  0  0
  189.0150  177.0700  142.0210 C   0  0  0  0  0  2  0  0  0  0  0  0
  188.6200  177.6440  139.8810 C   0  0  1  0  0  3  0  0  0  0  0  0
  189.2930  177.9930  138.5570 C   0  0  0  0  0  3  0  0  0  0  0  0
  190.5900  177.5110  138.5140 F   0  0  0  0  0  0  0  0  0  0  0  0
  189.2860  179.3600  138.3430 F   0  0  0  0  0  0  0  0  0  0  0  0
  186.0050  179.2860  142.0150 O   0  0  0  0  0  0  0  0  0  0  0  0
  183.8200  177.9130  140.9570 O   0  0  0  0  0  0  0  0  0  0  0  0
  182.3330  178.3990  142.7720 C   0  0  1  0  0  3  0  0  0  0  0  0
  184.7300  179.4810  144.0270 C   0  0  0  0  0  3  0  0  0  0  0  0
  183.6830  178.4280  142.1010 C   0  0  0  0  0  0  0  0  0  0  0  0
  182.4040  178.7390  144.2400 C   0  0  0  0  0  3  0  0  0  0  0  0
  184.8310  179.0860  142.7510 C   0  0  0  0  0  0  0  0  0  0  0  0
  183.4980  179.2570  144.8050 C   0  0  0  0  0  3  0  0  0  0  0  0
  181.3800  179.3160  142.0720 C   0  0  0  0  0  0  0  0  0  0  0  0
  180.6700  180.1440  142.7620 N   0  0  0  0  0  1  0  0  0  0  0  0
  181.1490  179.1870  140.6720 N   0  0  0  0  0  2  0  0  0  0  0  0
  187.3420  177.2230  143.8370 C   0  0  0  0  0  2  0  0  0  0  0  0
  187.9300  177.7130  145.1550 C   0  0  1  0  0  3  0  0  0  0  0  0
  186.8640  177.6350  146.2250 C   0  0  0  0  0  1  0  0  0  0  0  0
  189.1160  176.8600  145.5750 C   0  0  0  0  0  2  0  0  0  0  0  0
  191.3660  176.7640  144.9320 C   0  0  0  0  0  2  0  0  0  0  0  0
  191.3150  176.9540  146.3740 C   0  0  0  0  0  2  0  0  0  0  0  0
  190.3390  177.6400  145.5150 N   0  0  0  0  0  0  0  0  0  0  0  0
  1 22  1  1  0  0  0
  2  6  1  0  0  0  0
  4 11  1  1  0  0  0
  4  1  1  0  0  0  0
  5  3  1  6  0  0  0
  5  4  1  0  0  0  0
  6  1  1  0  0  0  0
  7  8  1  6  0  0  0
  7  5  1  0  0  0  0
  7  2  1  0  0  0  0
  9  8  1  0  0  0  0
 10  8  1  0  0  0  0
 11 17  1  0  0  0  0
 12 15  2  0  0  0  0
 13 19  1  6  0  0  0
 13 16  1  0  0  0  0
 14 18  1  0  0  0  0
 15 17  1  0  0  0  0
 15 13  1  0  0  0  0
 16 18  2  0  0  0  0
 17 14  2  0  0  0  0
 19 20  1  0  0  0  0
 21 19  2  0  0  0  0
 22 23  1  0  0  0  0
 23 25  1  0  0  0  0
 23 24  1  1  0  0  0
 26 28  1  0  0  0  0
 26 27  1  0  0  0  0
 28 25  1  0  0  0  0
 28 27  1  0  0  0  0
M  END
>  <MODEL>
2

>  <REMARK>
 VINA RESULT:      -7.6      2.212      3.289
  Name = 
  8 active torsions:
  status: ('A' for Active; 'I' for Inactive)
    1  A    between atoms: C_1  and  C_26
    2  A    between atoms: C_3  and  C_7
    3  A    between atoms: C_5  and  C_12
    4  A    between atoms: O_11  and  C_15
    5  A    between atoms: O_11  and  C_20
    6  A    between atoms: C_12  and  C_14
    7  A    between atoms: C_14  and  C_25
    8  A    between atoms: N_17  and  C_25
                            x       y       z     vdW  Elec       q    Type
                         _______ _______ _______ _____ _____    ______ ____

>  <TORSDO>
F 8

$$$$
=
 OpenBabel10232408383D

 28 30  0  0  1  0  0  0  0  0999 V2000
  186.8760  178.1110  144.3610 C   0  0  2  0  0  3  0  0  0  0  0  0
  186.8790  178.0580  146.7570 O   0  0  0  0  0  0  0  0  0  0  0  0
  190.2330  176.9580  145.6980 N   0  0  0  0  0  1  0  0  0  0  0  0
  188.3310  177.6180  144.3310 C   0  0  2  0  0  3  0  0  0  0  0  0
  189.0230  177.7660  145.6910 C   0  0  1  0  0  3  0  0  0  0  0  0
  186.1910  177.5980  145.6240 C   0  0  0  0  0  2  0  0  0  0  0  0
  188.0750  177.3220  146.8230 C   0  0  1  0  0  3  0  0  0  0  0  0
  188.6900  177.5080  148.2070 C   0  0  0  0  0  3  0  0  0  0  0  0
  187.7370  177.3640  149.2000 F   0  0  0  0  0  0  0  0  0  0  0  0
  189.3060  178.7430  148.3150 F   0  0  0  0  0  0  0  0  0  0  0  0
  189.0620  178.3440  143.3490 O   0  0  0  0  0  0  0  0  0  0  0  0
  190.4880  176.1210  142.4500 O   0  0  0  0  0  0  0  0  0  0  0  0
  190.1890  176.5740  140.1170 C   0  0  1  0  0  3  0  0  0  0  0  0
  188.3840  178.6510  141.0780 C   0  0  0  0  0  3  0  0  0  0  0  0
  189.9400  176.8500  141.5790 C   0  0  0  0  0  0  0  0  0  0  0  0
  189.2190  177.2960  139.2140 C   0  0  0  0  0  3  0  0  0  0  0  0
  189.0970  177.9850  141.9960 C   0  0  0  0  0  0  0  0  0  0  0  0
  188.4110  178.2640  139.6560 C   0  0  0  0  0  3  0  0  0  0  0  0
  191.5970  176.9220  139.7500 C   0  0  0  0  0  0  0  0  0  0  0  0
  192.2980  177.6600  140.5440 N   0  0  0  0  0  1  0  0  0  0  0  0
  192.1220  176.5620  138.4750 N   0  0  0  0  0  2  0  0  0  0  0  0
  186.1010  177.5990  143.1510 C   0  0  0  0  0  2  0  0  0  0  0  0
  184.7330  178.2580  143.0100 C   0  0  1  0  0  3  0  0  0  0  0  0
  184.8580  179.7240  143.3590 C   0  0  0  0  0  1  0  0  0  0  0  0
  184.2090  178.1310  141.5900 C   0  0  0  0  0  2  0  0  0  0  0  0
  183.7300  179.4270  139.6990 C   0  0  0  0  0  2  0  0  0  0  0  0
  184.9380  178.6610  139.4280 C   0  0  0  0  0  2  0  0  0  0  0  0
  184.7150  179.2180  140.7700 N   0  0  0  0  0  0  0  0  0  0  0  0
  1 22  1  6  0  0  0
  1  6  1  0  0  0  0
  2  7  1  0  0  0  0
  4 11  1  6  0  0  0
  4  1  1  0  0  0  0
  4  5  1  0  0  0  0
  5  3  1  6  0  0  0
  5  7  1  0  0  0  0
  6  2  1  0  0  0  0
  7  8  1  1  0  0  0
  8 10  1  0  0  0  0
  8  9  1  0  0  0  0
 13 19  1  6  0  0  0
 13 15  1  0  0  0  0
 14 17  2  0  0  0  0
 15 17  1  0  0  0  0
 15 12  2  0  0  0  0
 16 18  2  0  0  0  0
 16 13  1  0  0  0  0
 17 11  1  0  0  0  0
 18 14  1  0  0  0  0
 19 20  1  0  0  0  0
 21 19  2  0  0  0  0
 23 22  1  0  0  0  0
 23 24  1  6  0  0  0
 25 23  1  0  0  0  0
 26 28  1  0  0  0  0
 27 26  1  0  0  0  0
 27 28  1  0  0  0  0
 28 25  1  0  0  0  0
M  END
>  <MODEL>
3

>  <REMARK>
 VINA RESULT:      -7.5      3.874      7.791
  Name = 
  8 active torsions:
  status: ('A' for Active; 'I' for Inactive)
    1  A    between atoms: C_1  and  C_26
    2  A    between atoms: C_3  and  C_7
    3  A    between atoms: C_5  and  C_12
    4  A    between atoms: O_11  and  C_15
    5  A    between atoms: O_11  and  C_20
    6  A    between atoms: C_12  and  C_14
    7  A    between atoms: C_14  and  C_25
    8  A    between atoms: N_17  and  C_25
                            x       y       z     vdW  Elec       q    Type
                         _______ _______ _______ _____ _____    ______ ____

>  <TORSDO>
F 8

$$$$
=
 OpenBabel10232408383D

 28 30  0  0  1  0  0  0  0  0999 V2000
  187.2420  177.6810  145.6060 C   0  0  2  0  0  3  0  0  0  0  0  0
  185.0710  178.4360  146.2860 O   0  0  0  0  0  0  0  0  0  0  0  0
  185.2000  178.8300  142.6250 N   0  0  0  0  0  1  0  0  0  0  0  0
  186.9110  177.9940  144.1400 C   0  0  2  0  0  3  0  0  0  0  0  0
  185.4060  178.1830  143.9110 C   0  0  1  0  0  3  0  0  0  0  0  0
  186.4440  178.6100  146.5170 C   0  0  0  0  0  2  0  0  0  0  0  0
  184.7980  179.0330  145.0440 C   0  0  1  0  0  3  0  0  0  0  0  0
  183.2870  179.2020  144.9010 C   0  0  0  0  0  3  0  0  0  0  0  0
  182.7010  178.0460  144.4140 F   0  0  0  0  0  0  0  0  0  0  0  0
  182.9830  180.2720  144.0790 F   0  0  0  0  0  0  0  0  0  0  0  0
  187.3850  176.9400  143.3070 O   0  0  0  0  0  0  0  0  0  0  0  0
  189.7470  175.5110  142.9110 O   0  0  0  0  0  0  0  0  0  0  0  0
  190.4860  176.7900  141.0250 C   0  0  1  0  0  3  0  0  0  0  0  0
  187.8430  178.0030  141.2160 C   0  0  0  0  0  3  0  0  0  0  0  0
  189.4770  176.4250  142.0860 C   0  0  0  0  0  0  0  0  0  0  0  0
  189.8960  177.6440  139.9290 C   0  0  0  0  0  3  0  0  0  0  0  0
  188.1990  177.1530  142.1890 C   0  0  0  0  0  0  0  0  0  0  0  0
  188.6940  178.2160  140.0330 C   0  0  0  0  0  3  0  0  0  0  0  0
  191.6660  177.4750  141.6380 C   0  0  0  0  0  0  0  0  0  0  0  0
  192.7860  177.5110  140.9980 N   0  0  0  0  0  2  0  0  0  0  0  0
  191.6030  177.9660  142.9750 N   0  0  0  0  0  1  0  0  0  0  0  0
  188.7260  177.8900  145.8880 C   0  0  0  0  0  2  0  0  0  0  0  0
  189.0660  177.7640  147.3690 C   0  0  1  0  0  3  0  0  0  0  0  0
  188.2680  176.6220  147.9580 C   0  0  0  0  0  1  0  0  0  0  0  0
  190.5460  177.4860  147.5690 C   0  0  0  0  0  2  0  0  0  0  0  0
  192.2330  175.8630  147.6580 C   0  0  0  0  0  2  0  0  0  0  0  0
  191.9500  176.1460  146.2580 C   0  0  0  0  0  2  0  0  0  0  0  0
  190.8480  176.1070  147.2300 N   0  0  0  0  0  0  0  0  0  0  0  0
  1 22  1  6  0  0  0
  1  6  1  0  0  0  0
  2  6  1  0  0  0  0
  4 11  1  6  0  0  0
  4  1  1  0  0  0  0
  5  3  1  6  0  0  0
  5  4  1  0  0  0  0
  5  7  1  0  0  0  0
  7  8  1  6  0  0  0
  7  2  1  0  0  0  0
  9  8  1  0  0  0  0
 10  8  1  0  0  0  0
 13 19  1  1  0  0  0
 13 15  1  0  0  0  0
 14 17  2  0  0  0  0
 15 17  1  0  0  0  0
 15 12  2  0  0  0  0
 16 18  2  0  0  0  0
 16 13  1  0  0  0  0
 17 11  1  0  0  0  0
 18 14  1  0  0  0  0
 19 21  1  0  0  0  0
 20 19  2  0  0  0  0
 22 23  1  0  0  0  0
 23 25  1  0  0  0  0
 23 24  1  6  0  0  0
 27 28  1  0  0  0  0
 27 26  1  0  0  0  0
 28 25  1  0  0  0  0
 28 26  1  0  0  0  0
M  END
>  <MODEL>
4

>  <REMARK>
 VINA RESULT:      -7.5      3.183      6.107
  Name = 
  8 active torsions:
  status: ('A' for Active; 'I' for Inactive)
    1  A    between atoms: C_1  and  C_26
    2  A    between atoms: C_3  and  C_7
    3  A    between atoms: C_5  and  C_12
    4  A    between atoms: O_11  and  C_15
    5  A    between atoms: O_11  and  C_20
    6  A    between atoms: C_12  and  C_14
    7  A    between atoms: C_14  and  C_25
    8  A    between atoms: N_17  and  C_25
                            x       y       z     vdW  Elec       q    Type
                         _______ _______ _______ _____ _____    ______ ____

>  <TORSDO>
F 8

$$$$
=
 OpenBabel10232408383D

 28 30  0  0  1  0  0  0  0  0999 V2000
  187.0780  177.6970  145.6460 C   0  0  2  0  0  3  0  0  0  0  0  0
  184.8860  178.4370  146.2730 O   0  0  0  0  0  0  0  0  0  0  0  0
  185.0980  178.8250  142.6150 N   0  0  0  0  0  1  0  0  0  0  0  0
  186.7790  178.0040  144.1710 C   0  0  2  0  0  3  0  0  0  0  0  0
  185.2780  178.1820  143.9070 C   0  0  1  0  0  3  0  0  0  0  0  0
  186.2520  178.6220  146.5360 C   0  0  0  0  0  2  0  0  0  0  0  0
  184.6380  179.0300  145.0240 C   0  0  1  0  0  3  0  0  0  0  0  0
  183.1300  179.1860  144.8450 C   0  0  0  0  0  3  0  0  0  0  0  0
  182.5690  178.0390  144.3120 F   0  0  0  0  0  0  0  0  0  0  0  0
  182.8360  180.2760  144.0450 F   0  0  0  0  0  0  0  0  0  0  0  0
  187.2800  176.9530  143.3520 O   0  0  0  0  0  0  0  0  0  0  0  0
  188.0800  178.7900  141.4120 O   0  0  0  0  0  0  0  0  0  0  0  0
  190.2000  177.7640  140.9720 C   0  0  1  0  0  3  0  0  0  0  0  0
  189.5120  176.1040  143.2660 C   0  0  0  0  0  3  0  0  0  0  0  0
  188.9030  177.8900  141.7320 C   0  0  0  0  0  0  0  0  0  0  0  0
  191.2040  176.8840  141.6750 C   0  0  0  0  0  3  0  0  0  0  0  0
  188.5730  176.9470  142.8170 C   0  0  0  0  0  0  0  0  0  0  0  0
  190.8770  176.1070  142.7110 C   0  0  0  0  0  3  0  0  0  0  0  0
  189.9480  177.2610  139.5860 C   0  0  0  0  0  0  0  0  0  0  0  0
  190.3170  176.0660  139.2660 N   0  0  0  0  0  1  0  0  0  0  0  0
  189.4330  178.1320  138.5830 N   0  0  0  0  0  2  0  0  0  0  0  0
  188.5540  177.9180  145.9610 C   0  0  0  0  0  2  0  0  0  0  0  0
  188.8870  177.6520  147.4250 C   0  0  1  0  0  3  0  0  0  0  0  0
  188.2030  176.3740  147.8570 C   0  0  0  0  0  1  0  0  0  0  0  0
  190.3860  177.5020  147.6270 C   0  0  0  0  0  2  0  0  0  0  0  0
  192.2070  176.0320  147.7020 C   0  0  0  0  0  2  0  0  0  0  0  0
  191.9050  176.3060  146.3050 C   0  0  0  0  0  2  0  0  0  0  0  0
  190.8070  176.1590  147.2710 N   0  0  0  0  0  0  0  0  0  0  0  0
  1 22  1  6  0  0  0
  1  6  1  0  0  0  0
  2  6  1  0  0  0  0
  4 11  1  6  0  0  0
  4  1  1  0  0  0  0
  5  3  1  6  0  0  0
  5  4  1  0  0  0  0
  5  7  1  0  0  0  0
  7  8  1  6  0  0  0
  7  2  1  0  0  0  0
  9  8  1  0  0  0  0
 10  8  1  0  0  0  0
 12 15  2  0  0  0  0
 13 19  1  6  0  0  0
 13 16  1  0  0  0  0
 13 15  1  0  0  0  0
 15 17  1  0  0  0  0
 16 18  2  0  0  0  0
 17 14  2  0  0  0  0
 17 11  1  0  0  0  0
 18 14  1  0  0  0  0
 20 19  1  0  0  0  0
 21 19  2  0  0  0  0
 22 23  1  0  0  0  0
 23 25  1  0  0  0  0
 23 24  1  6  0  0  0
 27 28  1  0  0  0  0
 27 26  1  0  0  0  0
 28 25  1  0  0  0  0
 28 26  1  0  0  0  0
M  END
>  <MODEL>
5

>  <REMARK>
 VINA RESULT:      -7.4      3.125      6.009
  Name = 
  8 active torsions:
  status: ('A' for Active; 'I' for Inactive)
    1  A    between atoms: C_1  and  C_26
    2  A    between atoms: C_3  and  C_7
    3  A    between atoms: C_5  and  C_12
    4  A    between atoms: O_11  and  C_15
    5  A    between atoms: O_11  and  C_20
    6  A    between atoms: C_12  and  C_14
    7  A    between atoms: C_14  and  C_25
    8  A    between atoms: N_17  and  C_25
                            x       y       z     vdW  Elec       q    Type
                         _______ _______ _______ _____ _____    ______ ____

>  <TORSDO>
F 8

$$$$
=
 OpenBabel10232408383D

 28 30  0  0  1  0  0  0  0  0999 V2000
  187.9710  177.9600  143.2370 C   0  0  2  0  0  3  0  0  0  0  0  0
  190.2350  177.5300  142.5800 O   0  0  0  0  0  0  0  0  0  0  0  0
  188.2630  177.6400  139.4690 N   0  0  0  0  0  1  0  0  0  0  0  0
  187.5200  177.9250  141.7690 C   0  0  2  0  0  3  0  0  0  0  0  0
  188.6990  178.0500  140.7960 C   0  0  1  0  0  3  0  0  0  0  0  0
  189.2010  177.0750  143.4130 C   0  0  0  0  0  2  0  0  0  0  0  0
  189.8760  177.1740  141.2690 C   0  0  1  0  0  3  0  0  0  0  0  0
  191.1020  177.3080  140.3690 C   0  0  0  0  0  3  0  0  0  0  0  0
  191.2260  176.2150  139.5300 F   0  0  0  0  0  0  0  0  0  0  0  0
  192.2530  177.4640  141.1210 F   0  0  0  0  0  0  0  0  0  0  0  0
  186.5950  178.9790  141.5270 O   0  0  0  0  0  0  0  0  0  0  0  0
  185.5990  178.6080  138.9480 O   0  0  0  0  0  0  0  0  0  0  0  0
  183.2870  178.6660  139.5760 C   0  0  1  0  0  3  0  0  0  0  0  0
  184.3530  178.6560  142.2880 C   0  0  0  0  0  3  0  0  0  0  0  0
  184.7630  178.6640  139.8910 C   0  0  0  0  0  0  0  0  0  0  0  0
  182.4320  178.3970  140.7890 C   0  0  0  0  0  3  0  0  0  0  0  0
  185.2340  178.7660  141.2840 C   0  0  0  0  0  0  0  0  0  0  0  0
  182.9220  178.4170  142.0320 C   0  0  0  0  0  3  0  0  0  0  0  0
  182.8900  179.9590  138.9370 C   0  0  0  0  0  0  0  0  0  0  0  0
  181.7420  180.0550  138.3540 N   0  0  0  0  0  2  0  0  0  0  0  0
  183.8180  181.0370  138.8460 N   0  0  0  0  0  1  0  0  0  0  0  0
  186.8710  177.4440  144.1590 C   0  0  0  0  0  2  0  0  0  0  0  0
  186.7400  178.2680  145.4340 C   0  0  1  0  0  3  0  0  0  0  0  0
  185.2730  178.4920  145.7240 C   0  0  0  0  0  1  0  0  0  0  0  0
  187.3740  177.5530  146.6160 C   0  0  0  0  0  2  0  0  0  0  0  0
  189.4660  176.9310  147.4660 C   0  0  0  0  0  2  0  0  0  0  0  0
  188.9580  178.0320  148.2720 C   0  0  0  0  0  2  0  0  0  0  0  0
  188.7310  178.0280  146.8200 N   0  0  0  0  0  0  0  0  0  0  0  0
  1  6  1  0  0  0  0
  1 22  1  1  0  0  0
  2  6  1  0  0  0  0
  4 11  1  1  0  0  0
  4  1  1  0  0  0  0
  5  3  1  6  0  0  0
  5  7  1  0  0  0  0
  5  4  1  0  0  0  0
  7  8  1  6  0  0  0
  7  2  1  0  0  0  0
  8 10  1  0  0  0  0
  9  8  1  0  0  0  0
 12 15  2  0  0  0  0
 13 19  1  1  0  0  0
 13 15  1  0  0  0  0
 13 16  1  0  0  0  0
 15 17  1  0  0  0  0
 16 18  2  0  0  0  0
 17 11  1  0  0  0  0
 17 14  2  0  0  0  0
 18 14  1  0  0  0  0
 20 19  2  0  0  0  0
 21 19  1  0  0  0  0
 22 23  1  0  0  0  0
 23 24  1  1  0  0  0
 23 25  1  0  0  0  0
 25 28  1  0  0  0  0
 26 27  1  0  0  0  0
 28 26  1  0  0  0  0
 28 27  1  0  0  0  0
M  END
>  <MODEL>
6

>  <REMARK>
 VINA RESULT:      -7.3      3.125      4.629
  Name = 
  8 active torsions:
  status: ('A' for Active; 'I' for Inactive)
    1  A    between atoms: C_1  and  C_26
    2  A    between atoms: C_3  and  C_7
    3  A    between atoms: C_5  and  C_12
    4  A    between atoms: O_11  and  C_15
    5  A    between atoms: O_11  and  C_20
    6  A    between atoms: C_12  and  C_14
    7  A    between atoms: C_14  and  C_25
    8  A    between atoms: N_17  and  C_25
                            x       y       z     vdW  Elec       q    Type
                         _______ _______ _______ _____ _____    ______ ____

>  <TORSDO>
F 8

$$$$
=
 OpenBabel10232408383D

 28 30  0  0  1  0  0  0  0  0999 V2000
  187.7500  177.8400  141.2370 C   0  0  2  0  0  3  0  0  0  0  0  0
  189.1590  177.4640  139.3350 O   0  0  0  0  0  0  0  0  0  0  0  0
  191.2400  176.8130  142.3050 N   0  0  0  0  0  1  0  0  0  0  0  0
  188.9080  177.4960  142.1850 C   0  0  2  0  0  3  0  0  0  0  0  0
  190.0530  176.7730  141.4650 C   0  0  1  0  0  3  0  0  0  0  0  0
  188.3090  178.4060  139.9350 C   0  0  0  0  0  2  0  0  0  0  0  0
  190.3340  177.4410  140.1050 C   0  0  1  0  0  3  0  0  0  0  0  0
  191.4250  176.7220  139.3160 C   0  0  0  0  0  3  0  0  0  0  0  0
  192.6650  177.2920  139.5460 F   0  0  0  0  0  0  0  0  0  0  0  0
  191.1430  176.7290  137.9610 F   0  0  0  0  0  0  0  0  0  0  0  0
  188.4290  176.6800  143.2480 O   0  0  0  0  0  0  0  0  0  0  0  0
  189.9890  178.3930  144.8010 O   0  0  0  0  0  0  0  0  0  0  0  0
  188.5170  178.4070  146.6910 C   0  0  1  0  0  3  0  0  0  0  0  0
  186.7320  176.9480  144.9090 C   0  0  0  0  0  3  0  0  0  0  0  0
  188.8810  178.0260  145.2780 C   0  0  0  0  0  0  0  0  0  0  0  0
  187.0550  178.1930  146.9950 C   0  0  0  0  0  3  0  0  0  0  0  0
  187.9730  177.1950  144.4670 C   0  0  0  0  0  0  0  0  0  0  0  0
  186.2470  177.5030  146.1860 C   0  0  0  0  0  3  0  0  0  0  0  0
  189.3660  177.6600  147.6710 C   0  0  0  0  0  0  0  0  0  0  0  0
  189.5880  178.1660  148.8370 N   0  0  0  0  0  1  0  0  0  0  0  0
  190.0420  176.4670  147.2810 N   0  0  0  0  0  2  0  0  0  0  0  0
  186.8270  178.8840  141.8570 C   0  0  0  0  0  2  0  0  0  0  0  0
  185.4240  178.3470  142.1150 C   0  0  1  0  0  3  0  0  0  0  0  0
  184.7400  179.2330  143.1330 C   0  0  0  0  0  1  0  0  0  0  0  0
  184.6000  178.3350  140.8380 C   0  0  0  0  0  2  0  0  0  0  0  0
  183.6720  179.7590  139.2260 C   0  0  0  0  0  2  0  0  0  0  0  0
  184.8520  179.1290  138.6500 C   0  0  0  0  0  2  0  0  0  0  0  0
  184.8600  179.5350  140.0620 N   0  0  0  0  0  0  0  0  0  0  0  0
  1 22  1  1  0  0  0
  1  4  1  0  0  0  0
  2  6  1  0  0  0  0
  2  7  1  0  0  0  0
  4 11  1  1  0  0  0
  5  4  1  0  0  0  0
  5  3  1  1  0  0  0
  6  1  1  0  0  0  0
  7  8  1  6  0  0  0
  7  5  1  0  0  0  0
  8  9  1  0  0  0  0
 10  8  1  0  0  0  0
 11 17  1  0  0  0  0
 12 15  2  0  0  0  0
 13 16  1  0  0  0  0
 13 19  1  1  0  0  0
 14 18  1  0  0  0  0
 15 13  1  0  0  0  0
 17 14  2  0  0  0  0
 17 15  1  0  0  0  0
 18 16  2  0  0  0  0
 19 20  1  0  0  0  0
 21 19  2  0  0  0  0
 22 23  1  0  0  0  0
 23 24  1  1  0  0  0
 25 23  1  0  0  0  0
 26 28  1  0  0  0  0
 27 26  1  0  0  0  0
 27 28  1  0  0  0  0
 28 25  1  0  0  0  0
M  END
>  <MODEL>
7

>  <REMARK>
 VINA RESULT:      -7.2      2.474      5.382
  Name = 
  8 active torsions:
  status: ('A' for Active; 'I' for Inactive)
    1  A    between atoms: C_1  and  C_26
    2  A    between atoms: C_3  and  C_7
    3  A    between atoms: C_5  and  C_12
    4  A    between atoms: O_11  and  C_15
    5  A    between atoms: O_11  and  C_20
    6  A    between atoms: C_12  and  C_14
    7  A    between atoms: C_14  and  C_25
    8  A    between atoms: N_17  and  C_25
                            x       y       z     vdW  Elec       q    Type
                         _______ _______ _______ _____ _____    ______ ____

>  <TORSDO>
F 8

$$$$
=
 OpenBabel10232408383D

 28 30  0  0  1  0  0  0  0  0999 V2000
  186.6040  178.0980  142.8750 C   0  0  2  0  0  3  0  0  0  0  0  0
  186.5180  178.3330  140.4920 O   0  0  0  0  0  0  0  0  0  0  0  0
  190.0340  177.6170  141.3310 N   0  0  0  0  0  1  0  0  0  0  0  0
  188.1160  177.8360  142.8120 C   0  0  2  0  0  3  0  0  0  0  0  0
  188.5870  177.4850  141.3950 C   0  0  1  0  0  3  0  0  0  0  0  0
  186.1900  178.9740  141.6960 C   0  0  0  0  0  2  0  0  0  0  0  0
  187.9150  178.4140  140.3650 C   0  0  1  0  0  3  0  0  0  0  0  0
  188.3000  178.0680  138.9290 C   0  0  0  0  0  3  0  0  0  0  0  0
  189.3390  178.8680  138.4850 F   0  0  0  0  0  0  0  0  0  0  0  0
  187.2120  178.1880  138.0820 F   0  0  0  0  0  0  0  0  0  0  0  0
  188.4550  176.7740  143.6980 O   0  0  0  0  0  0  0  0  0  0  0  0
  191.1290  177.4680  144.0770 O   0  0  0  0  0  0  0  0  0  0  0  0
  191.0930  177.2580  146.4640 C   0  0  1  0  0  3  0  0  0  0  0  0
  188.2250  176.9260  146.0720 C   0  0  0  0  0  3  0  0  0  0  0  0
  190.4330  177.2590  145.1080 C   0  0  0  0  0  0  0  0  0  0  0  0
  190.0990  177.3330  147.5970 C   0  0  0  0  0  3  0  0  0  0  0  0
  188.9910  176.9800  144.9740 C   0  0  0  0  0  0  0  0  0  0  0  0
  188.7880  177.1570  147.4140 C   0  0  0  0  0  3  0  0  0  0  0  0
  191.9680  176.0550  146.6200 C   0  0  0  0  0  0  0  0  0  0  0  0
  192.0090  175.1710  145.6800 N   0  0  0  0  0  2  0  0  0  0  0  0
  192.6480  175.8080  147.8480 N   0  0  0  0  0  1  0  0  0  0  0  0
  186.2280  178.8190  144.1660 C   0  0  0  0  0  2  0  0  0  0  0  0
  184.8770  178.3730  144.7140 C   0  0  1  0  0  3  0  0  0  0  0  0
  184.9000  178.4900  146.2220 C   0  0  0  0  0  1  0  0  0  0  0  0
  183.7520  179.2370  144.1690 C   0  0  0  0  0  2  0  0  0  0  0  0
  182.4510  178.7960  142.2720 C   0  0  0  0  0  2  0  0  0  0  0  0
  181.5730  179.3050  143.3160 C   0  0  0  0  0  2  0  0  0  0  0  0
  182.6760  178.4000  143.6700 N   0  0  0  0  0  0  0  0  0  0  0  0
  1 22  1  1  0  0  0
  2  6  1  0  0  0  0
  4  1  1  0  0  0  0
  4 11  1  1  0  0  0
  5  3  1  1  0  0  0
  5  4  1  0  0  0  0
  6  1  1  0  0  0  0
  7  8  1  6  0  0  0
  7  2  1  0  0  0  0
  7  5  1  0  0  0  0
  9  8  1  0  0  0  0
 10  8  1  0  0  0  0
 11 17  1  0  0  0  0
 12 15  2  0  0  0  0
 13 19  1  1  0  0  0
 13 16  1  0  0  0  0
 14 18  1  0  0  0  0
 15 13  1  0  0  0  0
 17 15  1  0  0  0  0
 17 14  2  0  0  0  0
 18 16  2  0  0  0  0
 19 21  1  0  0  0  0
 20 19  2  0  0  0  0
 22 23  1  0  0  0  0
 23 24  1  1  0  0  0
 25 23  1  0  0  0  0
 26 27  1  0  0  0  0
 26 28  1  0  0  0  0
 27 28  1  0  0  0  0
 28 25  1  0  0  0  0
M  END
>  <MODEL>
8

>  <REMARK>
 VINA RESULT:      -7.2      1.965      5.910
  Name = 
  8 active torsions:
  status: ('A' for Active; 'I' for Inactive)
    1  A    between atoms: C_1  and  C_26
    2  A    between atoms: C_3  and  C_7
    3  A    between atoms: C_5  and  C_12
    4  A    between atoms: O_11  and  C_15
    5  A    between atoms: O_11  and  C_20
    6  A    between atoms: C_12  and  C_14
    7  A    between atoms: C_14  and  C_25
    8  A    between atoms: N_17  and  C_25
                            x       y       z     vdW  Elec       q    Type
                         _______ _______ _______ _____ _____    ______ ____

>  <TORSDO>
F 8

$$$$
=
 OpenBabel10232408383D

 28 30  0  0  1  0  0  0  0  0999 V2000
  187.0580  178.1750  144.1100 C   0  0  2  0  0  3  0  0  0  0  0  0
  187.0050  178.0760  146.5040 O   0  0  0  0  0  0  0  0  0  0  0  0
  190.3390  176.8740  145.4950 N   0  0  0  0  0  1  0  0  0  0  0  0
  188.4930  177.6290  144.1010 C   0  0  2  0  0  3  0  0  0  0  0  0
  189.1600  177.7250  145.4800 C   0  0  1  0  0  3  0  0  0  0  0  0
  186.3260  177.6630  145.3480 C   0  0  0  0  0  2  0  0  0  0  0  0
  188.1710  177.2950  146.5810 C   0  0  1  0  0  3  0  0  0  0  0  0
  188.7620  177.4300  147.9820 C   0  0  0  0  0  3  0  0  0  0  0  0
  187.8120  177.1600  148.9520 F   0  0  0  0  0  0  0  0  0  0  0  0
  189.2930  178.6930  148.1760 F   0  0  0  0  0  0  0  0  0  0  0  0
  189.2720  178.3480  143.1510 O   0  0  0  0  0  0  0  0  0  0  0  0
  190.5850  176.0560  142.2540 O   0  0  0  0  0  0  0  0  0  0  0  0
  190.3910  176.5680  139.9210 C   0  0  1  0  0  3  0  0  0  0  0  0
  188.6890  178.7360  140.8660 C   0  0  0  0  0  3  0  0  0  0  0  0
  190.1120  176.8330  141.3800 C   0  0  0  0  0  0  0  0  0  0  0  0
  189.4970  177.3650  139.0030 C   0  0  0  0  0  3  0  0  0  0  0  0
  189.3280  178.0110  141.7930 C   0  0  0  0  0  0  0  0  0  0  0  0
  188.7370  178.3730  139.4390 C   0  0  0  0  0  3  0  0  0  0  0  0
  191.8290  176.8330  139.6060 C   0  0  0  0  0  0  0  0  0  0  0  0
  192.5270  177.5800  140.3930 N   0  0  0  0  0  1  0  0  0  0  0  0
  192.3950  176.3820  138.3780 N   0  0  0  0  0  2  0  0  0  0  0  0
  186.2910  177.7160  142.8740 C   0  0  0  0  0  2  0  0  0  0  0  0
  185.2880  178.7550  142.3870 C   0  0  1  0  0  3  0  0  0  0  0  0
  185.3750  178.8510  140.8800 C   0  0  0  0  0  1  0  0  0  0  0  0
  183.8700  178.3720  142.7760 C   0  0  0  0  0  2  0  0  0  0  0  0
  182.7360  178.7300  144.7940 C   0  0  0  0  0  2  0  0  0  0  0  0
  181.8470  179.1030  143.7030 C   0  0  0  0  0  2  0  0  0  0  0  0
  183.2820  179.4070  143.6080 N   0  0  0  0  0  0  0  0  0  0  0  0
  1 22  1  6  0  0  0
  1  6  1  0  0  0  0
  2  7  1  0  0  0  0
  4 11  1  6  0  0  0
  4  1  1  0  0  0  0
  4  5  1  0  0  0  0
  5  3  1  6  0  0  0
  5  7  1  0  0  0  0
  6  2  1  0  0  0  0
  7  8  1  1  0  0  0
  8 10  1  0  0  0  0
  8  9  1  0  0  0  0
 13 19  1  6  0  0  0
 13 15  1  0  0  0  0
 14 17  2  0  0  0  0
 15 17  1  0  0  0  0
 15 12  2  0  0  0  0
 16 18  2  0  0  0  0
 16 13  1  0  0  0  0
 17 11  1  0  0  0  0
 18 14  1  0  0  0  0
 19 20  1  0  0  0  0
 21 19  2  0  0  0  0
 23 24  1  6  0  0  0
 23 25  1  0  0  0  0
 23 22  1  0  0  0  0
 25 28  1  0  0  0  0
 27 26  1  0  0  0  0
 28 27  1  0  0  0  0
 28 26  1  0  0  0  0
M  END
>  <MODEL>
9

>  <REMARK>
 VINA RESULT:      -7.2      3.761      7.710
  Name = 
  8 active torsions:
  status: ('A' for Active; 'I' for Inactive)
    1  A    between atoms: C_1  and  C_26
    2  A    between atoms: C_3  and  C_7
    3  A    between atoms: C_5  and  C_12
    4  A    between atoms: O_11  and  C_15
    5  A    between atoms: O_11  and  C_20
    6  A    between atoms: C_12  and  C_14
    7  A    between atoms: C_14  and  C_25
    8  A    between atoms: N_17  and  C_25
                            x       y       z     vdW  Elec       q    Type
                         _______ _______ _______ _____ _____    ______ ____

>  <TORSDO>
F 8

$$$$
