=
 OpenBabel10232412143D

 48 53  0  0  1  0  0  0  0  0999 V2000
  191.6910  177.5960  141.3060 N   0  0  0  0  0  2  0  0  0  0  0  0
  189.9000  176.8450  137.5800 N   0  0  0  0  0  0  0  0  0  0  0  0
  188.6790  176.7940  136.9820 C   0  0  0  0  0  0  0  0  0  0  0  0
  192.1890  176.0710  137.8410 N   0  0  0  0  0  2  0  0  0  0  0  0
  187.5240  178.3720  140.8300 C   0  0  0  0  0  0  0  0  0  0  0  0
  188.9110  178.2150  140.9690 O   0  0  0  0  0  0  0  0  0  0  0  0
  187.0940  177.9510  143.2430 N   0  0  0  0  0  1  0  0  0  0  0  0
  189.4430  174.9620  135.6480 N   0  0  0  0  0  0  0  0  0  0  0  0
  185.6430  178.7920  139.3720 N   0  0  0  0  0  0  0  0  0  0  0  0
  190.5700  175.8660  140.2130 O   0  0  0  0  0  0  0  0  0  0  0  0
  190.7570  177.6360  142.4220 C   0  0  2  0  0  3  0  0  0  0  0  0
  183.9780  178.3790  142.7480 S   0  0  0  0  0  0  0  0  0  0  0  0
  187.6640  177.7030  137.3290 C   0  0  0  0  0  0  0  0  0  0  0  0
  186.1950  176.6740  135.6910 C   0  0  0  0  0  3  0  0  0  0  0  0
  187.1900  175.7540  135.3510 C   0  0  0  0  0  0  0  0  0  0  0  0
  185.2780  178.4400  141.6910 C   0  0  0  0  0  0  0  0  0  0  0  0
  189.6260  178.6070  142.1340 C   0  0  0  0  0  2  0  0  0  0  0  0
  193.5870  177.2860  139.2370 O   0  0  0  0  0  0  0  0  0  0  0  0
  182.8410  178.6960  141.5310 C   0  0  0  0  0  3  0  0  0  0  0  0
  183.4540  178.8450  140.3280 N   0  0  0  0  0  0  0  0  0  0  0  0
  186.9900  178.6230  139.5420 C   0  0  0  0  0  0  0  0  0  0  0  0
  186.6380  178.2670  141.9320 C   0  0  0  0  0  0  0  0  0  0  0  0
  190.6610  175.0250  136.2480 C   0  0  0  0  0  3  0  0  0  0  0  0
  186.4330  177.6450  136.6630 C   0  0  0  0  0  3  0  0  0  0  0  0
  191.5160  176.7010  140.2040 C   0  0  0  0  0  0  0  0  0  0  0  0
  187.8980  178.7710  138.3570 C   0  0  0  0  0  2  0  0  0  0  0  0
  192.4700  176.7240  139.0840 C   0  0  0  0  0  0  0  0  0  0  0  0
  184.7990  178.6990  140.4280 C   0  0  0  0  0  0  0  0  0  0  0  0
  188.4430  175.8200  135.9850 C   0  0  0  0  0  0  0  0  0  0  0  0
  190.8930  175.9770  137.2420 C   0  0  0  0  0  0  0  0  0  0  0  0
  191.4780  178.0920  143.6750 C   0  0  0  0  0  2  0  0  0  0  0  0
  191.5350  176.7470  144.8970 S   0  0  0  0  0  0  0  0  0  0  0  0
  189.7260  178.5560  145.4350 F   0  0  0  0  0  0  0  0  0  0  0  0
  189.9140  177.1950  145.5800 C   0  0  2  0  0  3  0  0  0  0  0  0
  189.8630  176.8290  147.0520 C   0  0  0  0  0  2  0  0  0  0  0  0
  188.4400  176.9040  147.5940 C   0  0  0  0  0  2  0  0  0  0  0  0
  187.1390  178.8950  147.8140 F   0  0  0  0  0  0  0  0  0  0  0  0
  187.8070  177.8300  149.6770 F   0  0  0  0  0  0  0  0  0  0  0  0
  189.3100  178.9620  148.4420 F   0  0  0  0  0  0  0  0  0  0  0  0
  188.1720  178.1770  148.3900 C   0  0  0  0  0  0  0  0  0  0  0  0
  186.8730  174.6910  134.3460 C   0  0  0  0  0  2  0  0  0  0  0  0
  185.5400  174.0140  134.6500 C   0  0  0  0  0  2  0  0  0  0  0  0
  185.5130  173.5160  136.0210 N   0  0  0  0  0  2  0  0  0  0  0  0
  184.3100  173.3840  136.7910 C   0  0  0  0  0  0  0  0  0  0  0  0
  183.7230  172.2000  136.9440 C   0  0  0  0  0  2  0  0  0  0  0  0
  182.9400  175.4490  136.6840 C   0  0  0  0  0  2  0  0  0  0  0  0
  183.7940  174.5540  137.5680 C   0  0  0  0  0  3  0  0  0  0  0  0
  182.2780  174.4910  137.6480 C   0  0  0  0  0  2  0  0  0  0  0  0
  1 11  1  0  0  0  0
  3 13  1  0  0  0  0
  3  2  1  0  0  0  0
  4 27  1  0  0  0  0
  5  6  1  0  0  0  0
  5 22  1  0  0  0  0
  6 17  1  0  0  0  0
  8 29  1  0  0  0  0
  8 23  2  0  0  0  0
  9 21  1  0  0  0  0
  9 28  2  0  0  0  0
 11 31  1  1  0  0  0
 13 26  1  0  0  0  0
 14 24  1  0  0  0  0
 15 14  2  0  0  0  0
 15 29  1  0  0  0  0
 16 22  2  0  0  0  0
 16 12  1  0  0  0  0
 17 11  1  0  0  0  0
 19 12  1  0  0  0  0
 20 28  1  0  0  0  0
 20 19  2  0  0  0  0
 21  5  2  0  0  0  0
 22  7  1  0  0  0  0
 23 30  1  0  0  0  0
 24 13  2  0  0  0  0
 25 10  2  0  0  0  0
 25  1  1  0  0  0  0
 26 21  1  0  0  0  0
 27 18  2  0  0  0  0
 27 25  1  0  0  0  0
 28 16  1  0  0  0  0
 29  3  2  0  0  0  0
 30  2  2  0  0  0  0
 30  4  1  0  0  0  0
 31 32  1  0  0  0  0
 32 34  1  0  0  0  0
 34 33  1  1  0  0  0
 34 35  1  0  0  0  0
 35 36  1  0  0  0  0
 36 40  1  0  0  0  0
 37 40  1  0  0  0  0
 40 39  1  0  0  0  0
 40 38  1  0  0  0  0
 41 42  1  0  0  0  0
 41 15  1  0  0  0  0
 42 43  1  0  0  0  0
 43 44  1  0  0  0  0
 44 45  2  0  0  0  0
 44 47  1  0  0  0  0
 46 47  1  0  0  0  0
 46 48  1  0  0  0  0
 47 48  1  0  0  0  0
M  END
>  <MODEL>
1

>  <REMARK>
 VINA RESULT:      -8.0      0.000      0.000
  Name = 
  11 active torsions:
  status: ('A' for Active; 'I' for Inactive)
    1  A    between atoms: C_3  and  C_16
    2  A    between atoms: C_3  and  S_39
    3  A    between atoms: N_4  and  C_14
    4  A    between atoms: N_4  and  C_41
    5  A    between atoms: C_14  and  C_29
    6  A    between atoms: C_18  and  C_24
    7  A    between atoms: C_18  and  C_38
    8  A    between atoms: C_22  and  C_24
    9  A    between atoms: C_22  and  S_39
   10  A    between atoms: C_23  and  C_32
   11  A    between atoms: C_32  and  C_41
                            x       y       z     vdW  Elec       q    Type
                         _______ _______ _______ _____ _____    ______ ____

>  <TORSDO>
F 11

$$$$
=
 OpenBabel10232412143D

 48 53  0  0  1  0  0  0  0  0999 V2000
  183.1010  177.6140  136.7730 N   0  0  0  0  0  2  0  0  0  0  0  0
  186.0890  178.6850  139.5250 N   0  0  0  0  0  0  0  0  0  0  0  0
  187.3560  178.3550  139.8960 C   0  0  0  0  0  0  0  0  0  0  0  0
  183.8410  179.4500  140.0370 N   0  0  0  0  0  2  0  0  0  0  0  0
  186.9910  175.9140  136.3550 C   0  0  0  0  0  0  0  0  0  0  0  0
  185.7380  176.5420  136.4230 O   0  0  0  0  0  0  0  0  0  0  0  0
  186.0640  173.8700  135.2850 N   0  0  0  0  0  1  0  0  0  0  0  0
  186.7680  178.7870  142.1740 N   0  0  0  0  0  0  0  0  0  0  0  0
  189.3580  176.0020  136.8340 N   0  0  0  0  0  0  0  0  0  0  0  0
  183.9770  176.8550  138.7980 O   0  0  0  0  0  0  0  0  0  0  0  0
  183.3500  176.3600  136.0750 C   0  0  2  0  0  3  0  0  0  0  0  0
  188.9900  172.6170  135.1780 S   0  0  0  0  0  0  0  0  0  0  0  0
  188.3180  177.9840  138.9400 C   0  0  0  0  0  0  0  0  0  0  0  0
  189.9630  177.7250  140.7070 C   0  0  0  0  0  3  0  0  0  0  0  0
  189.0110  178.0750  141.6690 C   0  0  0  0  0  0  0  0  0  0  0  0
  188.4450  174.0910  135.7630 C   0  0  0  0  0  0  0  0  0  0  0  0
  184.7290  176.3720  135.4370 C   0  0  0  0  0  2  0  0  0  0  0  0
  182.4280  179.9180  138.2580 O   0  0  0  0  0  0  0  0  0  0  0  0
  190.6000  172.9230  135.6110 C   0  0  0  0  0  3  0  0  0  0  0  0
  190.7160  174.1410  136.2010 N   0  0  0  0  0  0  0  0  0  0  0  0
  188.1200  176.5810  136.8940 C   0  0  0  0  0  0  0  0  0  0  0  0
  187.1620  174.6280  135.7850 C   0  0  0  0  0  0  0  0  0  0  0  0
  185.5080  179.1200  141.7920 C   0  0  0  0  0  3  0  0  0  0  0  0
  189.6230  177.6890  139.3560 C   0  0  0  0  0  3  0  0  0  0  0  0
  183.4760  177.8080  138.1390 C   0  0  0  0  0  0  0  0  0  0  0  0
  187.9850  177.9560  137.4760 C   0  0  0  0  0  2  0  0  0  0  0  0
  183.2330  179.1070  138.7870 C   0  0  0  0  0  0  0  0  0  0  0  0
  189.5200  174.7760  136.2820 C   0  0  0  0  0  0  0  0  0  0  0  0
  187.7060  178.4070  141.2650 C   0  0  0  0  0  0  0  0  0  0  0  0
  185.1550  179.0570  140.4430 C   0  0  0  0  0  0  0  0  0  0  0  0
  182.3140  176.1670  134.9860 C   0  0  0  0  0  2  0  0  0  0  0  0
  180.8440  175.3310  135.6530 S   0  0  0  0  0  0  0  0  0  0  0  0
  180.2120  173.0080  134.6320 F   0  0  0  0  0  0  0  0  0  0  0  0
  181.3440  173.7300  134.9580 C   0  0  2  0  0  3  0  0  0  0  0  0
  182.1590  172.9630  135.9840 C   0  0  0  0  0  2  0  0  0  0  0  0
  183.1170  171.9850  135.3120 C   0  0  0  0  0  2  0  0  0  0  0  0
  185.1080  170.7630  135.8080 F   0  0  0  0  0  0  0  0  0  0  0  0
  184.0370  171.8070  137.4840 F   0  0  0  0  0  0  0  0  0  0  0  0
  183.1400  169.9550  136.5720 F   0  0  0  0  0  0  0  0  0  0  0  0
  183.8640  171.1040  136.3070 C   0  0  0  0  0  0  0  0  0  0  0  0
  189.4030  178.0420  143.1130 C   0  0  0  0  0  2  0  0  0  0  0  0
  188.8940  176.7800  143.8020 C   0  0  0  0  0  2  0  0  0  0  0  0
  189.2080  176.8060  145.2270 N   0  0  0  0  0  0  0  0  0  0  0  0
  188.2790  177.2260  146.2340 C   0  0  0  0  0  0  0  0  0  0  0  0
  187.0710  177.6770  145.9040 C   0  0  0  0  0  1  0  0  0  0  0  0
  189.2620  178.2390  148.2730 C   0  0  0  0  0  2  0  0  0  0  0  0
  188.6000  177.0070  147.6790 C   0  0  0  0  0  3  0  0  0  0  0  0
  187.7980  177.9710  148.5370 C   0  0  0  0  0  2  0  0  0  0  0  0
  1 25  1  0  0  0  0
  2  3  1  0  0  0  0
  2 30  2  0  0  0  0
  3 29  1  0  0  0  0
  4 30  1  0  0  0  0
  5  6  1  0  0  0  0
  5 21  2  0  0  0  0
  7 22  1  0  0  0  0
  9 21  1  0  0  0  0
 11 31  1  6  0  0  0
 11  1  1  0  0  0  0
 12 19  1  0  0  0  0
 12 16  1  0  0  0  0
 13 24  1  0  0  0  0
 13  3  2  0  0  0  0
 14 15  1  0  0  0  0
 15 41  1  0  0  0  0
 16 22  2  0  0  0  0
 16 28  1  0  0  0  0
 17 11  1  0  0  0  0
 17  6  1  0  0  0  0
 18 27  2  0  0  0  0
 19 20  2  0  0  0  0
 20 28  1  0  0  0  0
 21 26  1  0  0  0  0
 22  5  1  0  0  0  0
 23  8  2  0  0  0  0
 24 14  2  0  0  0  0
 25 27  1  0  0  0  0
 25 10  2  0  0  0  0
 26 13  1  0  0  0  0
 27  4  1  0  0  0  0
 28  9  2  0  0  0  0
 29 15  2  0  0  0  0
 29  8  1  0  0  0  0
 30 23  1  0  0  0  0
 31 32  1  0  0  0  0
 34 33  1  1  0  0  0
 34 32  1  0  0  0  0
 34 35  1  0  0  0  0
 36 35  1  0  0  0  0
 36 40  1  0  0  0  0
 37 40  1  0  0  0  0
 40 39  1  0  0  0  0
 40 38  1  0  0  0  0
 41 42  1  0  0  0  0
 42 43  1  0  0  0  0
 43 44  2  0  0  0  0
 44 47  1  0  0  0  0
 45 44  1  0  0  0  0
 46 48  1  0  0  0  0
 47 46  1  0  0  0  0
 47 48  1  0  0  0  0
M  END
>  <MODEL>
2

>  <REMARK>
 VINA RESULT:      -7.5      4.915     10.065
  Name = 
  11 active torsions:
  status: ('A' for Active; 'I' for Inactive)
    1  A    between atoms: C_3  and  C_16
    2  A    between atoms: C_3  and  S_39
    3  A    between atoms: N_4  and  C_14
    4  A    between atoms: N_4  and  C_41
    5  A    between atoms: C_14  and  C_29
    6  A    between atoms: C_18  and  C_24
    7  A    between atoms: C_18  and  C_38
    8  A    between atoms: C_22  and  C_24
    9  A    between atoms: C_22  and  S_39
   10  A    between atoms: C_23  and  C_32
   11  A    between atoms: C_32  and  C_41
                            x       y       z     vdW  Elec       q    Type
                         _______ _______ _______ _____ _____    ______ ____

>  <TORSDO>
F 11

$$$$
=
 OpenBabel10232412143D

 48 53  0  0  1  0  0  0  0  0999 V2000
  190.2370  177.2450  139.2950 N   0  0  0  0  0  2  0  0  0  0  0  0
  186.5680  177.3100  137.2490 N   0  0  0  0  0  0  0  0  0  0  0  0
  185.2320  177.4420  137.4710 C   0  0  0  0  0  0  0  0  0  0  0  0
  188.4520  176.3720  136.0340 N   0  0  0  0  0  2  0  0  0  0  0  0
  186.7080  178.3320  141.4280 C   0  0  0  0  0  0  0  0  0  0  0  0
  187.8870  178.0730  140.7140 O   0  0  0  0  0  0  0  0  0  0  0  0
  187.6530  177.4910  143.5700 N   0  0  0  0  0  1  0  0  0  0  0  0
  184.8170  175.8510  135.7330 N   0  0  0  0  0  0  0  0  0  0  0  0
  184.4250  179.1250  141.4000 N   0  0  0  0  0  0  0  0  0  0  0  0
  188.4440  175.8170  138.8590 O   0  0  0  0  0  0  0  0  0  0  0  0
  190.1150  177.1270  140.7410 C   0  0  2  0  0  3  0  0  0  0  0  0
  184.9120  178.1810  145.0340 S   0  0  0  0  0  0  0  0  0  0  0  0
  184.7450  178.3260  138.4500 C   0  0  0  0  0  0  0  0  0  0  0  0
  182.4710  177.7080  137.8630 C   0  0  0  0  0  3  0  0  0  0  0  0
  182.9440  176.8130  136.9000 C   0  0  0  0  0  0  0  0  0  0  0  0
  185.3810  178.3660  143.4360 C   0  0  0  0  0  0  0  0  0  0  0  0
  189.1840  178.1980  141.2830 C   0  0  0  0  0  2  0  0  0  0  0  0
  190.5620  177.2220  136.4910 O   0  0  0  0  0  0  0  0  0  0  0  0
  183.3520  178.7850  144.7550 C   0  0  0  0  0  3  0  0  0  0  0  0
  183.1940  179.1220  143.4480 N   0  0  0  0  0  0  0  0  0  0  0  0
  185.5870  178.8500  140.7330 C   0  0  0  0  0  0  0  0  0  0  0  0
  186.5930  178.0730  142.8180 C   0  0  0  0  0  0  0  0  0  0  0  0
  186.1530  175.7320  135.5150 C   0  0  0  0  0  3  0  0  0  0  0  0
  183.3620  178.4630  138.6230 C   0  0  0  0  0  3  0  0  0  0  0  0
  189.3360  176.5840  138.4020 C   0  0  0  0  0  0  0  0  0  0  0  0
  185.6790  179.1670  139.2700 C   0  0  0  0  0  2  0  0  0  0  0  0
  189.4830  176.7630  136.9490 C   0  0  0  0  0  0  0  0  0  0  0  0
  184.3200  178.8840  142.7290 C   0  0  0  0  0  0  0  0  0  0  0  0
  184.3280  176.6870  136.6890 C   0  0  0  0  0  0  0  0  0  0  0  0
  187.0490  176.4650  136.2940 C   0  0  0  0  0  0  0  0  0  0  0  0
  191.4760  177.2980  141.3840 C   0  0  0  0  0  2  0  0  0  0  0  0
  191.3090  178.0670  143.0230 S   0  0  0  0  0  0  0  0  0  0  0  0
  190.4110  175.6680  143.5480 F   0  0  0  0  0  0  0  0  0  0  0  0
  191.4860  176.4730  143.8740 C   0  0  2  0  0  3  0  0  0  0  0  0
  191.5160  176.6980  145.3750 C   0  0  0  0  0  2  0  0  0  0  0  0
  190.3890  177.6250  145.8200 C   0  0  0  0  0  2  0  0  0  0  0  0
  190.1980  175.9200  147.4820 F   0  0  0  0  0  0  0  0  0  0  0  0
  189.7370  178.0440  148.0550 F   0  0  0  0  0  0  0  0  0  0  0  0
  188.3040  176.9090  146.7420 F   0  0  0  0  0  0  0  0  0  0  0  0
  189.6400  177.1070  147.0430 C   0  0  0  0  0  0  0  0  0  0  0  0
  181.9560  175.9770  136.1480 C   0  0  0  0  0  2  0  0  0  0  0  0
  181.0170  175.2330  137.0930 C   0  0  0  0  0  2  0  0  0  0  0  0
  180.5980  173.9630  136.5120 N   0  0  0  0  0  2  0  0  0  0  0  0
  181.1260  172.6930  136.9190 C   0  0  0  0  0  0  0  0  0  0  0  0
  180.6070  172.0370  137.9530 C   0  0  0  0  0  2  0  0  0  0  0  0
  183.5430  172.5840  136.3730 C   0  0  0  0  0  2  0  0  0  0  0  0
  182.1640  172.0170  136.0800 C   0  0  0  0  0  3  0  0  0  0  0  0
  183.1330  171.2580  136.9700 C   0  0  0  0  0  2  0  0  0  0  0  0
  1 11  1  0  0  0  0
  2  3  1  0  0  0  0
  3 13  1  0  0  0  0
  4 30  1  0  0  0  0
  4 27  1  0  0  0  0
  5 22  1  0  0  0  0
  6 17  1  0  0  0  0
  6  5  1  0  0  0  0
  8 29  1  0  0  0  0
  9 28  2  0  0  0  0
 11 17  1  0  0  0  0
 11 31  1  1  0  0  0
 13 24  2  0  0  0  0
 13 26  1  0  0  0  0
 14 24  1  0  0  0  0
 15 14  2  0  0  0  0
 16 12  1  0  0  0  0
 18 27  2  0  0  0  0
 19 12  1  0  0  0  0
 20 19  2  0  0  0  0
 21  9  1  0  0  0  0
 21  5  2  0  0  0  0
 22 16  2  0  0  0  0
 22  7  1  0  0  0  0
 23  8  2  0  0  0  0
 23 30  1  0  0  0  0
 25 10  2  0  0  0  0
 25  1  1  0  0  0  0
 26 21  1  0  0  0  0
 27 25  1  0  0  0  0
 28 16  1  0  0  0  0
 28 20  1  0  0  0  0
 29 15  1  0  0  0  0
 29  3  2  0  0  0  0
 30  2  2  0  0  0  0
 31 32  1  0  0  0  0
 32 34  1  0  0  0  0
 34 33  1  1  0  0  0
 34 35  1  0  0  0  0
 35 36  1  0  0  0  0
 36 40  1  0  0  0  0
 39 40  1  0  0  0  0
 40 37  1  0  0  0  0
 40 38  1  0  0  0  0
 41 15  1  0  0  0  0
 41 42  1  0  0  0  0
 43 44  1  0  0  0  0
 43 42  1  0  0  0  0
 44 45  2  0  0  0  0
 46 48  1  0  0  0  0
 47 46  1  0  0  0  0
 47 44  1  0  0  0  0
 47 48  1  0  0  0  0
M  END
>  <MODEL>
3

>  <REMARK>
 VINA RESULT:      -7.5      2.070      3.255
  Name = 
  11 active torsions:
  status: ('A' for Active; 'I' for Inactive)
    1  A    between atoms: C_3  and  C_16
    2  A    between atoms: C_3  and  S_39
    3  A    between atoms: N_4  and  C_14
    4  A    between atoms: N_4  and  C_41
    5  A    between atoms: C_14  and  C_29
    6  A    between atoms: C_18  and  C_24
    7  A    between atoms: C_18  and  C_38
    8  A    between atoms: C_22  and  C_24
    9  A    between atoms: C_22  and  S_39
   10  A    between atoms: C_23  and  C_32
   11  A    between atoms: C_32  and  C_41
                            x       y       z     vdW  Elec       q    Type
                         _______ _______ _______ _____ _____    ______ ____

>  <TORSDO>
F 11

$$$$
=
 OpenBabel10232412143D

 48 53  0  0  1  0  0  0  0  0999 V2000
  191.3360  177.7060  141.7160 N   0  0  0  0  0  2  0  0  0  0  0  0
  189.9670  176.8490  137.8370 N   0  0  0  0  0  0  0  0  0  0  0  0
  188.8190  176.7710  137.1110 C   0  0  0  0  0  0  0  0  0  0  0  0
  192.2210  176.1080  138.3630 N   0  0  0  0  0  2  0  0  0  0  0  0
  187.2390  178.4230  140.7730 C   0  0  0  0  0  0  0  0  0  0  0  0
  188.6040  178.2850  141.0640 O   0  0  0  0  0  0  0  0  0  0  0  0
  186.5520  178.0520  143.1340 N   0  0  0  0  0  1  0  0  0  0  0  0
  189.7410  174.9170  135.9130 N   0  0  0  0  0  0  0  0  0  0  0  0
  185.5230  178.7870  139.1090 N   0  0  0  0  0  0  0  0  0  0  0  0
  190.3560  175.9390  140.5500 O   0  0  0  0  0  0  0  0  0  0  0  0
  190.2860  177.7610  142.7240 C   0  0  2  0  0  3  0  0  0  0  0  0
  183.5050  178.4330  142.2930 S   0  0  0  0  0  0  0  0  0  0  0  0
  187.7640  177.6760  137.3240 C   0  0  0  0  0  0  0  0  0  0  0  0
  186.4920  176.5930  135.5620 C   0  0  0  0  0  3  0  0  0  0  0  0
  187.5260  175.6760  135.3540 C   0  0  0  0  0  0  0  0  0  0  0  0
  184.9120  178.4850  141.3830 C   0  0  0  0  0  0  0  0  0  0  0  0
  189.1830  178.7120  142.2900 C   0  0  0  0  0  2  0  0  0  0  0  0
  193.4480  177.3720  139.8740 O   0  0  0  0  0  0  0  0  0  0  0  0
  182.5040  178.7090  140.9530 C   0  0  0  0  0  3  0  0  0  0  0  0
  183.2420  178.8370  139.8200 N   0  0  0  0  0  0  0  0  0  0  0  0
  186.8450  178.6380  139.4280 C   0  0  0  0  0  0  0  0  0  0  0  0
  186.2380  178.3330  141.7730 C   0  0  0  0  0  0  0  0  0  0  0  0
  190.8850  175.0090  136.6390 C   0  0  0  0  0  3  0  0  0  0  0  0
  186.6130  177.5880  136.5300 C   0  0  0  0  0  3  0  0  0  0  0  0
  191.2900  176.7840  140.6240 C   0  0  0  0  0  0  0  0  0  0  0  0
  187.8750  178.7700  138.3460 C   0  0  0  0  0  2  0  0  0  0  0  0
  192.3600  176.7930  139.6140 C   0  0  0  0  0  0  0  0  0  0  0  0
  184.5700  178.7090  140.0690 C   0  0  0  0  0  0  0  0  0  0  0  0
  188.7020  175.7720  136.1180 C   0  0  0  0  0  0  0  0  0  0  0  0
  191.0000  175.9850  137.6300 C   0  0  0  0  0  0  0  0  0  0  0  0
  190.8620  178.2540  144.0360 C   0  0  0  0  0  2  0  0  0  0  0  0
  191.3470  176.8480  145.0810 S   0  0  0  0  0  0  0  0  0  0  0  0
  190.1280  176.3830  147.3470 F   0  0  0  0  0  0  0  0  0  0  0  0
  190.3320  177.4300  146.4690 C   0  0  2  0  0  3  0  0  0  0  0  0
  188.9950  177.9260  145.9480 C   0  0  0  0  0  2  0  0  0  0  0  0
  187.8350  177.2840  146.7010 C   0  0  0  0  0  2  0  0  0  0  0  0
  186.5040  178.7350  148.0520 F   0  0  0  0  0  0  0  0  0  0  0  0
  186.7410  179.2090  145.8680 F   0  0  0  0  0  0  0  0  0  0  0  0
  185.4610  177.4680  146.4970 F   0  0  0  0  0  0  0  0  0  0  0  0
  186.6080  178.1850  146.7870 C   0  0  0  0  0  0  0  0  0  0  0  0
  187.3300  174.5870  134.3460 C   0  0  0  0  0  2  0  0  0  0  0  0
  185.9330  173.9800  134.4430 C   0  0  0  0  0  2  0  0  0  0  0  0
  185.9150  172.8720  135.3900 N   0  0  0  0  0  2  0  0  0  0  0  0
  184.8630  172.6610  136.3410 C   0  0  0  0  0  0  0  0  0  0  0  0
  184.9360  173.1740  137.5670 C   0  0  0  0  0  2  0  0  0  0  0  0
  183.6850  170.4920  136.1010 C   0  0  0  0  0  2  0  0  0  0  0  0
  183.5940  171.9960  135.9100 C   0  0  0  0  0  3  0  0  0  0  0  0
  182.9280  171.3320  137.1020 C   0  0  0  0  0  2  0  0  0  0  0  0
  1 11  1  0  0  0  0
  3 13  1  0  0  0  0
  3  2  1  0  0  0  0
  4 27  1  0  0  0  0
  5  6  1  0  0  0  0
  5 22  1  0  0  0  0
  6 17  1  0  0  0  0
  8 29  1  0  0  0  0
  8 23  2  0  0  0  0
  9 21  1  0  0  0  0
  9 28  2  0  0  0  0
 10 25  2  0  0  0  0
 11 31  1  1  0  0  0
 13 26  1  0  0  0  0
 14 24  1  0  0  0  0
 15 14  2  0  0  0  0
 15 29  1  0  0  0  0
 16 22  2  0  0  0  0
 16 12  1  0  0  0  0
 17 11  1  0  0  0  0
 19 12  1  0  0  0  0
 20 28  1  0  0  0  0
 20 19  2  0  0  0  0
 21  5  2  0  0  0  0
 22  7  1  0  0  0  0
 23 30  1  0  0  0  0
 24 13  2  0  0  0  0
 25  1  1  0  0  0  0
 26 21  1  0  0  0  0
 27 18  2  0  0  0  0
 27 25  1  0  0  0  0
 28 16  1  0  0  0  0
 29  3  2  0  0  0  0
 30  2  2  0  0  0  0
 30  4  1  0  0  0  0
 31 32  1  0  0  0  0
 32 34  1  0  0  0  0
 34 33  1  1  0  0  0
 35 34  1  0  0  0  0
 35 36  1  0  0  0  0
 36 40  1  0  0  0  0
 38 40  1  0  0  0  0
 39 40  1  0  0  0  0
 40 37  1  0  0  0  0
 41 42  1  0  0  0  0
 41 15  1  0  0  0  0
 42 43  1  0  0  0  0
 43 44  1  0  0  0  0
 44 45  2  0  0  0  0
 46 48  1  0  0  0  0
 47 46  1  0  0  0  0
 47 44  1  0  0  0  0
 47 48  1  0  0  0  0
M  END
>  <MODEL>
4

>  <REMARK>
 VINA RESULT:      -7.5      1.128      1.548
  Name = 
  11 active torsions:
  status: ('A' for Active; 'I' for Inactive)
    1  A    between atoms: C_3  and  C_16
    2  A    between atoms: C_3  and  S_39
    3  A    between atoms: N_4  and  C_14
    4  A    between atoms: N_4  and  C_41
    5  A    between atoms: C_14  and  C_29
    6  A    between atoms: C_18  and  C_24
    7  A    between atoms: C_18  and  C_38
    8  A    between atoms: C_22  and  C_24
    9  A    between atoms: C_22  and  S_39
   10  A    between atoms: C_23  and  C_32
   11  A    between atoms: C_32  and  C_41
                            x       y       z     vdW  Elec       q    Type
                         _______ _______ _______ _____ _____    ______ ____

>  <TORSDO>
F 11

$$$$
=
 OpenBabel10232412143D

 48 53  0  0  1  0  0  0  0  0999 V2000
  186.9820  179.0250  142.5360 N   0  0  0  0  0  2  0  0  0  0  0  0
  189.0130  177.4380  139.2190 N   0  0  0  0  0  0  0  0  0  0  0  0
  188.7790  176.8790  138.0000 C   0  0  0  0  0  0  0  0  0  0  0  0
  190.3070  177.6430  141.2650 N   0  0  0  0  0  2  0  0  0  0  0  0
  184.7590  178.0710  139.0240 C   0  0  0  0  0  0  0  0  0  0  0  0
  185.4930  178.4810  140.1470 O   0  0  0  0  0  0  0  0  0  0  0  0
  182.7010  177.6400  140.3530 N   0  0  0  0  0  1  0  0  0  0  0  0
  190.6510  175.4300  138.3400 N   0  0  0  0  0  0  0  0  0  0  0  0
  184.7150  177.6400  136.6460 N   0  0  0  0  0  0  0  0  0  0  0  0
  187.5420  176.9390  141.6530 O   0  0  0  0  0  0  0  0  0  0  0  0
  185.5520  178.7520  142.5510 C   0  0  2  0  0  3  0  0  0  0  0  0
  181.1800  176.7800  137.6920 S   0  0  0  0  0  0  0  0  0  0  0  0
  187.7250  177.3310  137.1860 C   0  0  0  0  0  0  0  0  0  0  0  0
  188.3640  175.7240  135.4810 C   0  0  0  0  0  3  0  0  0  0  0  0
  189.4030  175.2530  136.2890 C   0  0  0  0  0  0  0  0  0  0  0  0
  182.7560  177.2930  137.9400 C   0  0  0  0  0  0  0  0  0  0  0  0
  184.9160  179.1820  141.2400 C   0  0  0  0  0  2  0  0  0  0  0  0
  189.7770  179.3810  142.7070 O   0  0  0  0  0  0  0  0  0  0  0  0
  181.4040  176.5600  136.0260 C   0  0  0  0  0  3  0  0  0  0  0  0
  182.6750  176.8750  135.6660 N   0  0  0  0  0  0  0  0  0  0  0  0
  185.4050  178.0240  137.7630 C   0  0  0  0  0  0  0  0  0  0  0  0
  183.3980  177.6830  139.1110 C   0  0  0  0  0  0  0  0  0  0  0  0
  190.8790  175.9990  139.5520 C   0  0  0  0  0  3  0  0  0  0  0  0
  187.5400  176.7580  135.9210 C   0  0  0  0  0  3  0  0  0  0  0  0
  187.9290  178.0780  142.0350 C   0  0  0  0  0  0  0  0  0  0  0  0
  186.8340  178.4570  137.6250 C   0  0  0  0  0  2  0  0  0  0  0  0
  189.3610  178.4180  142.0110 C   0  0  0  0  0  0  0  0  0  0  0  0
  183.4130  177.2770  136.7310 C   0  0  0  0  0  0  0  0  0  0  0  0
  189.6240  175.8410  137.5470 C   0  0  0  0  0  0  0  0  0  0  0  0
  190.0390  177.0150  140.0080 C   0  0  0  0  0  0  0  0  0  0  0  0
  184.8970  179.5190  143.6820 C   0  0  0  0  0  2  0  0  0  0  0  0
  184.0230  178.3790  144.7960 S   0  0  0  0  0  0  0  0  0  0  0  0
  185.8200  179.7750  146.0840 F   0  0  0  0  0  0  0  0  0  0  0  0
  185.3290  178.4840  146.0520 C   0  0  2  0  0  3  0  0  0  0  0  0
  186.4500  177.5220  145.7020 C   0  0  0  0  0  2  0  0  0  0  0  0
  187.6550  177.7190  146.6170 C   0  0  0  0  0  2  0  0  0  0  0  0
  188.7250  176.5120  144.8550 F   0  0  0  0  0  0  0  0  0  0  0  0
  189.6630  178.4210  145.5810 F   0  0  0  0  0  0  0  0  0  0  0  0
  189.7400  176.5800  146.8740 F   0  0  0  0  0  0  0  0  0  0  0  0
  188.9690  177.2910  145.9720 C   0  0  0  0  0  0  0  0  0  0  0  0
  190.2250  174.1010  135.8040 C   0  0  0  0  0  2  0  0  0  0  0  0
  189.3490  172.9290  135.3730 C   0  0  0  0  0  2  0  0  0  0  0  0
  188.5470  172.4440  136.4910 N   0  0  0  0  0  2  0  0  0  0  0  0
  187.1160  172.3620  136.4620 C   0  0  0  0  0  0  0  0  0  0  0  0
  186.4870  171.7510  135.4610 C   0  0  0  0  0  2  0  0  0  0  0  0
  185.6120  174.1290  137.3370 C   0  0  0  0  0  2  0  0  0  0  0  0
  186.3210  172.8200  137.6440 C   0  0  0  0  0  3  0  0  0  0  0  0
  184.8420  172.8300  137.2980 C   0  0  0  0  0  2  0  0  0  0  0  0
  1 11  1  0  0  0  0
  2 30  2  0  0  0  0
  3  2  1  0  0  0  0
  4 27  1  0  0  0  0
  5 22  1  0  0  0  0
  5  6  1  0  0  0  0
  6 17  1  0  0  0  0
  8 23  2  0  0  0  0
  9 28  2  0  0  0  0
  9 21  1  0  0  0  0
 10 25  2  0  0  0  0
 11 31  1  1  0  0  0
 12 16  1  0  0  0  0
 13 26  1  0  0  0  0
 13  3  2  0  0  0  0
 14 24  2  0  0  0  0
 14 15  1  0  0  0  0
 15 29  2  0  0  0  0
 16 22  2  0  0  0  0
 17 11  1  0  0  0  0
 19 12  1  0  0  0  0
 20 19  2  0  0  0  0
 20 28  1  0  0  0  0
 21  5  2  0  0  0  0
 22  7  1  0  0  0  0
 23 30  1  0  0  0  0
 24 13  1  0  0  0  0
 25  1  1  0  0  0  0
 26 21  1  0  0  0  0
 27 25  1  0  0  0  0
 27 18  2  0  0  0  0
 28 16  1  0  0  0  0
 29  3  1  0  0  0  0
 29  8  1  0  0  0  0
 30  4  1  0  0  0  0
 31 32  1  0  0  0  0
 32 34  1  0  0  0  0
 34 33  1  6  0  0  0
 35 34  1  0  0  0  0
 35 36  1  0  0  0  0
 37 40  1  0  0  0  0
 38 40  1  0  0  0  0
 40 36  1  0  0  0  0
 40 39  1  0  0  0  0
 41 15  1  0  0  0  0
 42 41  1  0  0  0  0
 42 43  1  0  0  0  0
 44 43  1  0  0  0  0
 44 47  1  0  0  0  0
 45 44  2  0  0  0  0
 46 47  1  0  0  0  0
 48 46  1  0  0  0  0
 48 47  1  0  0  0  0
M  END
>  <MODEL>
5

>  <REMARK>
 VINA RESULT:      -7.0      2.304      3.975
  Name = 
  11 active torsions:
  status: ('A' for Active; 'I' for Inactive)
    1  A    between atoms: C_3  and  C_16
    2  A    between atoms: C_3  and  S_39
    3  A    between atoms: N_4  and  C_14
    4  A    between atoms: N_4  and  C_41
    5  A    between atoms: C_14  and  C_29
    6  A    between atoms: C_18  and  C_24
    7  A    between atoms: C_18  and  C_38
    8  A    between atoms: C_22  and  C_24
    9  A    between atoms: C_22  and  S_39
   10  A    between atoms: C_23  and  C_32
   11  A    between atoms: C_32  and  C_41
                            x       y       z     vdW  Elec       q    Type
                         _______ _______ _______ _____ _____    ______ ____

>  <TORSDO>
F 11

$$$$
=
 OpenBabel10232412143D

 48 53  0  0  1  0  0  0  0  0999 V2000
  189.7630  177.7520  142.5050 N   0  0  0  0  0  2  0  0  0  0  0  0
  188.8960  176.9250  138.4780 N   0  0  0  0  0  0  0  0  0  0  0  0
  187.8490  176.8500  137.6130 C   0  0  0  0  0  0  0  0  0  0  0  0
  191.0690  176.1860  139.2770 N   0  0  0  0  0  2  0  0  0  0  0  0
  185.8140  178.4660  141.0600 C   0  0  0  0  0  0  0  0  0  0  0  0
  187.1320  178.3290  141.5200 O   0  0  0  0  0  0  0  0  0  0  0  0
  184.8380  178.0730  143.3130 N   0  0  0  0  0  1  0  0  0  0  0  0
  188.9210  175.0090  136.5250 N   0  0  0  0  0  0  0  0  0  0  0  0
  184.3200  178.8400  139.1970 N   0  0  0  0  0  0  0  0  0  0  0  0
  188.9440  175.9920  141.2100 O   0  0  0  0  0  0  0  0  0  0  0  0
  188.5950  177.7960  143.3730 C   0  0  2  0  0  3  0  0  0  0  0  0
  181.9190  178.4530  142.0990 S   0  0  0  0  0  0  0  0  0  0  0  0
  186.7720  177.7500  137.6990 C   0  0  0  0  0  0  0  0  0  0  0  0
  185.7350  176.6780  135.7820 C   0  0  0  0  0  3  0  0  0  0  0  0
  186.7900  175.7660  135.6980 C   0  0  0  0  0  0  0  0  0  0  0  0
  183.4290  178.5170  141.3730 C   0  0  0  0  0  0  0  0  0  0  0  0
  187.5520  178.7480  142.8120 C   0  0  0  0  0  2  0  0  0  0  0  0
  192.0910  177.4390  140.9400 O   0  0  0  0  0  0  0  0  0  0  0  0
  181.0940  178.7370  140.6460 C   0  0  0  0  0  3  0  0  0  0  0  0
  181.9680  178.8770  139.6160 N   0  0  0  0  0  0  0  0  0  0  0  0
  185.5920  178.6910  139.6780 C   0  0  0  0  0  0  0  0  0  0  0  0
  184.6970  178.3650  141.9260 C   0  0  0  0  0  0  0  0  0  0  0  0
  189.9640  175.0970  137.3900 C   0  0  0  0  0  3  0  0  0  0  0  0
  185.7300  177.6650  136.7660 C   0  0  0  0  0  3  0  0  0  0  0  0
  189.8580  176.8390  141.4080 C   0  0  0  0  0  0  0  0  0  0  0  0
  186.7490  178.8350  138.7350 C   0  0  0  0  0  2  0  0  0  0  0  0
  191.0470  176.8600  140.5400 C   0  0  0  0  0  0  0  0  0  0  0  0
  183.2550  178.7510  140.0280 C   0  0  0  0  0  0  0  0  0  0  0  0
  187.8610  175.8580  136.6050 C   0  0  0  0  0  0  0  0  0  0  0  0
  189.9490  176.0650  138.3950 C   0  0  0  0  0  0  0  0  0  0  0  0
  189.0000  178.2790  144.7510 C   0  0  0  0  0  2  0  0  0  0  0  0
  187.6670  177.9660  145.9470 S   0  0  0  0  0  0  0  0  0  0  0  0
  189.0480  178.3180  148.1400 F   0  0  0  0  0  0  0  0  0  0  0  0
  188.8290  177.3370  147.1920 C   0  0  2  0  0  3  0  0  0  0  0  0
  190.1430  176.9720  146.5250 C   0  0  0  0  0  2  0  0  0  0  0  0
  191.2940  176.9820  147.5240 C   0  0  0  0  0  2  0  0  0  0  0  0
  193.1630  175.7760  148.3940 F   0  0  0  0  0  0  0  0  0  0  0  0
  191.2450  174.6690  148.0160 F   0  0  0  0  0  0  0  0  0  0  0  0
  192.5030  175.3420  146.2760 F   0  0  0  0  0  0  0  0  0  0  0  0
  192.0730  175.6720  147.5490 C   0  0  0  0  0  0  0  0  0  0  0  0
  186.7270  174.6860  134.6650 C   0  0  0  0  0  2  0  0  0  0  0  0
  186.2540  173.3650  135.2650 C   0  0  0  0  0  2  0  0  0  0  0  0
  184.8000  173.2660  135.2170 N   0  0  0  0  0  2  0  0  0  0  0  0
  183.9800  173.0820  136.3790 C   0  0  0  0  0  0  0  0  0  0  0  0
  183.9290  171.9060  137.0000 C   0  0  0  0  0  2  0  0  0  0  0  0
  182.3970  174.9520  135.9930 C   0  0  0  0  0  2  0  0  0  0  0  0
  183.2990  174.2590  137.0020 C   0  0  0  0  0  3  0  0  0  0  0  0
  181.7970  174.0310  137.0300 C   0  0  0  0  0  2  0  0  0  0  0  0
  1 11  1  0  0  0  0
  3 13  1  0  0  0  0
  3  2  1  0  0  0  0
  4 27  1  0  0  0  0
  5  6  1  0  0  0  0
  5 22  1  0  0  0  0
  6 17  1  0  0  0  0
  8 29  1  0  0  0  0
  8 23  2  0  0  0  0
  9 21  1  0  0  0  0
  9 28  2  0  0  0  0
 10 25  2  0  0  0  0
 11 31  1  1  0  0  0
 13 26  1  0  0  0  0
 14 24  1  0  0  0  0
 15 14  2  0  0  0  0
 15 29  1  0  0  0  0
 16 22  2  0  0  0  0
 16 12  1  0  0  0  0
 17 11  1  0  0  0  0
 19 12  1  0  0  0  0
 20 28  1  0  0  0  0
 20 19  2  0  0  0  0
 21  5  2  0  0  0  0
 22  7  1  0  0  0  0
 23 30  1  0  0  0  0
 24 13  2  0  0  0  0
 25  1  1  0  0  0  0
 26 21  1  0  0  0  0
 27 18  2  0  0  0  0
 27 25  1  0  0  0  0
 28 16  1  0  0  0  0
 29  3  2  0  0  0  0
 30  2  2  0  0  0  0
 30  4  1  0  0  0  0
 31 32  1  0  0  0  0
 32 34  1  0  0  0  0
 34 33  1  1  0  0  0
 35 34  1  0  0  0  0
 35 36  1  0  0  0  0
 36 40  1  0  0  0  0
 39 40  1  0  0  0  0
 40 38  1  0  0  0  0
 40 37  1  0  0  0  0
 41 42  1  0  0  0  0
 41 15  1  0  0  0  0
 43 42  1  0  0  0  0
 43 44  1  0  0  0  0
 44 45  2  0  0  0  0
 44 47  1  0  0  0  0
 46 47  1  0  0  0  0
 46 48  1  0  0  0  0
 47 48  1  0  0  0  0
M  END
>  <MODEL>
6

>  <REMARK>
 VINA RESULT:      -6.8      1.855      2.311
  Name = 
  11 active torsions:
  status: ('A' for Active; 'I' for Inactive)
    1  A    between atoms: C_3  and  C_16
    2  A    between atoms: C_3  and  S_39
    3  A    between atoms: N_4  and  C_14
    4  A    between atoms: N_4  and  C_41
    5  A    between atoms: C_14  and  C_29
    6  A    between atoms: C_18  and  C_24
    7  A    between atoms: C_18  and  C_38
    8  A    between atoms: C_22  and  C_24
    9  A    between atoms: C_22  and  S_39
   10  A    between atoms: C_23  and  C_32
   11  A    between atoms: C_32  and  C_41
                            x       y       z     vdW  Elec       q    Type
                         _______ _______ _______ _____ _____    ______ ____

>  <TORSDO>
F 11

$$$$
=
 OpenBabel10232412143D

 48 53  0  0  1  0  0  0  0  0999 V2000
  184.1090  178.3400  136.9580 N   0  0  0  0  0  2  0  0  0  0  0  0
  186.9680  178.5610  140.0290 N   0  0  0  0  0  0  0  0  0  0  0  0
  188.1850  178.0650  140.3820 C   0  0  0  0  0  0  0  0  0  0  0  0
  184.7420  179.3640  140.5810 N   0  0  0  0  0  2  0  0  0  0  0  0
  187.9050  176.4840  136.3760 C   0  0  0  0  0  0  0  0  0  0  0  0
  186.6920  177.1740  136.5160 O   0  0  0  0  0  0  0  0  0  0  0  0
  186.9270  174.7950  134.8350 N   0  0  0  0  0  1  0  0  0  0  0  0
  187.4740  178.0360  142.6660 N   0  0  0  0  0  0  0  0  0  0  0  0
  190.2370  176.2880  136.9830 N   0  0  0  0  0  0  0  0  0  0  0  0
  184.7990  177.0970  138.8080 O   0  0  0  0  0  0  0  0  0  0  0  0
  184.3260  177.2510  136.0150 C   0  0  2  0  0  3  0  0  0  0  0  0
  189.7700  173.3800  134.6040 S   0  0  0  0  0  0  0  0  0  0  0  0
  189.1830  177.8390  139.4180 C   0  0  0  0  0  0  0  0  0  0  0  0
  190.6880  177.0810  141.1670 C   0  0  0  0  0  3  0  0  0  0  0  0
  189.6980  177.2840  142.1320 C   0  0  0  0  0  0  0  0  0  0  0  0
  189.2800  174.7280  135.4720 C   0  0  0  0  0  0  0  0  0  0  0  0
  185.7420  177.2980  135.4660 C   0  0  0  0  0  2  0  0  0  0  0  0
  183.4830  180.3110  138.8790 O   0  0  0  0  0  0  0  0  0  0  0  0
  191.3640  173.4630  135.1760 C   0  0  0  0  0  3  0  0  0  0  0  0
  191.5160  174.5120  136.0250 N   0  0  0  0  0  0  0  0  0  0  0  0
  189.0350  176.9310  137.1050 C   0  0  0  0  0  0  0  0  0  0  0  0
  188.0340  175.3420  135.5450 C   0  0  0  0  0  0  0  0  0  0  0  0
  186.2650  178.5380  142.3030 C   0  0  0  0  0  3  0  0  0  0  0  0
  190.4360  177.3640  139.8260 C   0  0  0  0  0  3  0  0  0  0  0  0
  184.4040  178.2040  138.3510 C   0  0  0  0  0  0  0  0  0  0  0  0
  188.9470  178.1540  137.9700 C   0  0  0  0  0  2  0  0  0  0  0  0
  184.1990  179.3460  139.2560 C   0  0  0  0  0  0  0  0  0  0  0  0
  190.3580  175.2020  136.1830 C   0  0  0  0  0  0  0  0  0  0  0  0
  188.4450  177.7930  141.7450 C   0  0  0  0  0  0  0  0  0  0  0  0
  185.9990  178.7950  140.9570 C   0  0  0  0  0  0  0  0  0  0  0  0
  183.3550  177.3770  134.8580 C   0  0  0  0  0  2  0  0  0  0  0  0
  182.3010  175.8990  134.7540 S   0  0  0  0  0  0  0  0  0  0  0  0
  181.2180  177.9500  135.9620 F   0  0  0  0  0  0  0  0  0  0  0  0
  181.1070  176.5730  135.9440 C   0  0  2  0  0  3  0  0  0  0  0  0
  181.4000  176.0200  137.3270 C   0  0  0  0  0  2  0  0  0  0  0  0
  180.9520  176.9880  138.4170 C   0  0  0  0  0  2  0  0  0  0  0  0
  181.6240  177.5690  140.6340 F   0  0  0  0  0  0  0  0  0  0  0  0
  180.1800  175.8700  140.3540 F   0  0  0  0  0  0  0  0  0  0  0  0
  182.3400  175.6010  139.7820 F   0  0  0  0  0  0  0  0  0  0  0  0
  181.2890  176.5010  139.8220 C   0  0  0  0  0  0  0  0  0  0  0  0
  189.9890  176.9100  143.5510 C   0  0  0  0  0  2  0  0  0  0  0  0
  189.0910  177.6670  144.5250 C   0  0  0  0  0  2  0  0  0  0  0  0
  189.8240  178.0220  145.7360 N   0  0  0  0  0  2  0  0  0  0  0  0
  189.8310  177.2160  146.9210 C   0  0  0  0  0  0  0  0  0  0  0  0
  190.9720  176.7530  147.4260 C   0  0  0  0  0  2  0  0  0  0  0  0
  188.4740  178.0310  148.8310 C   0  0  0  0  0  2  0  0  0  0  0  0
  188.5660  177.0240  147.6970 C   0  0  0  0  0  3  0  0  0  0  0  0
  187.6860  178.2550  147.5620 C   0  0  0  0  0  2  0  0  0  0  0  0
  1 25  1  0  0  0  0
  2  3  1  0  0  0  0
  2 30  2  0  0  0  0
  3 29  1  0  0  0  0
  4 30  1  0  0  0  0
  5  6  1  0  0  0  0
  5 21  2  0  0  0  0
  7 22  1  0  0  0  0
  9 21  1  0  0  0  0
 11 31  1  6  0  0  0
 11  1  1  0  0  0  0
 12 19  1  0  0  0  0
 12 16  1  0  0  0  0
 13 24  1  0  0  0  0
 13  3  2  0  0  0  0
 14 15  1  0  0  0  0
 15 41  1  0  0  0  0
 16 22  2  0  0  0  0
 16 28  1  0  0  0  0
 17 11  1  0  0  0  0
 17  6  1  0  0  0  0
 18 27  2  0  0  0  0
 19 20  2  0  0  0  0
 20 28  1  0  0  0  0
 21 26  1  0  0  0  0
 22  5  1  0  0  0  0
 23  8  2  0  0  0  0
 24 14  2  0  0  0  0
 25 10  2  0  0  0  0
 25 27  1  0  0  0  0
 26 13  1  0  0  0  0
 27  4  1  0  0  0  0
 28  9  2  0  0  0  0
 29 15  2  0  0  0  0
 29  8  1  0  0  0  0
 30 23  1  0  0  0  0
 32 31  1  0  0  0  0
 32 34  1  0  0  0  0
 34 33  1  1  0  0  0
 34 35  1  0  0  0  0
 35 36  1  0  0  0  0
 36 40  1  0  0  0  0
 39 40  1  0  0  0  0
 40 38  1  0  0  0  0
 40 37  1  0  0  0  0
 41 42  1  0  0  0  0
 42 43  1  0  0  0  0
 43 44  1  0  0  0  0
 44 45  2  0  0  0  0
 44 47  1  0  0  0  0
 47 46  1  0  0  0  0
 48 47  1  0  0  0  0
 48 46  1  0  0  0  0
M  END
>  <MODEL>
7

>  <REMARK>
 VINA RESULT:      -6.8      4.228      9.457
  Name = 
  11 active torsions:
  status: ('A' for Active; 'I' for Inactive)
    1  A    between atoms: C_3  and  C_16
    2  A    between atoms: C_3  and  S_39
    3  A    between atoms: N_4  and  C_14
    4  A    between atoms: N_4  and  C_41
    5  A    between atoms: C_14  and  C_29
    6  A    between atoms: C_18  and  C_24
    7  A    between atoms: C_18  and  C_38
    8  A    between atoms: C_22  and  C_24
    9  A    between atoms: C_22  and  S_39
   10  A    between atoms: C_23  and  C_32
   11  A    between atoms: C_32  and  C_41
                            x       y       z     vdW  Elec       q    Type
                         _______ _______ _______ _____ _____    ______ ____

>  <TORSDO>
F 11

$$$$
=
 OpenBabel10232412143D

 48 53  0  0  1  0  0  0  0  0999 V2000
  182.5380  175.8830  136.0200 N   0  0  0  0  0  2  0  0  0  0  0  0
  182.6210  178.0930  139.5920 N   0  0  0  0  0  0  0  0  0  0  0  0
  183.4860  178.5380  140.5440 C   0  0  0  0  0  0  0  0  0  0  0  0
  180.4450  177.2650  138.8980 N   0  0  0  0  0  2  0  0  0  0  0  0
  186.3130  176.9490  137.6950 C   0  0  0  0  0  0  0  0  0  0  0  0
  185.0800  176.6800  137.0830 O   0  0  0  0  0  0  0  0  0  0  0  0
  187.4060  174.9530  136.6920 N   0  0  0  0  0  1  0  0  0  0  0  0
  181.8010  178.1730  142.2020 N   0  0  0  0  0  0  0  0  0  0  0  0
  187.6080  178.3660  139.1640 N   0  0  0  0  0  0  0  0  0  0  0  0
  182.6450  175.5010  138.3190 O   0  0  0  0  0  0  0  0  0  0  0  0
  183.7680  175.1560  135.7360 C   0  0  2  0  0  3  0  0  0  0  0  0
  190.1350  175.7440  138.1290 S   0  0  0  0  0  0  0  0  0  0  0  0
  184.7790  178.9710  140.2020 C   0  0  0  0  0  0  0  0  0  0  0  0
  185.2150  179.4840  142.5350 C   0  0  0  0  0  3  0  0  0  0  0  0
  183.9390  179.0390  142.8900 C   0  0  0  0  0  0  0  0  0  0  0  0
  188.6310  176.4830  138.1440 C   0  0  0  0  0  0  0  0  0  0  0  0
  184.9630  176.0920  135.7940 C   0  0  0  0  0  2  0  0  0  0  0  0
  180.0430  177.0580  136.6230 O   0  0  0  0  0  0  0  0  0  0  0  0
  190.8210  176.8840  139.1800 C   0  0  0  0  0  3  0  0  0  0  0  0
  189.9030  177.8180  139.5400 N   0  0  0  0  0  0  0  0  0  0  0  0
  186.4180  178.0670  138.5600 C   0  0  0  0  0  0  0  0  0  0  0  0
  187.4520  176.1300  137.4930 C   0  0  0  0  0  0  0  0  0  0  0  0
  180.9440  177.7360  141.2430 C   0  0  0  0  0  3  0  0  0  0  0  0
  185.6280  179.4600  141.2040 C   0  0  0  0  0  3  0  0  0  0  0  0
  182.0470  176.0500  137.3530 C   0  0  0  0  0  0  0  0  0  0  0  0
  185.2440  178.9760  138.7740 C   0  0  0  0  0  2  0  0  0  0  0  0
  180.8180  176.8230  137.5880 C   0  0  0  0  0  0  0  0  0  0  0  0
  188.6970  177.5860  138.9630 C   0  0  0  0  0  0  0  0  0  0  0  0
  183.0630  178.5780  141.8920 C   0  0  0  0  0  0  0  0  0  0  0  0
  181.3630  177.6830  139.9130 C   0  0  0  0  0  0  0  0  0  0  0  0
  183.6950  174.5510  134.3490 C   0  0  0  0  0  2  0  0  0  0  0  0
  184.0400  172.7670  134.4190 S   0  0  0  0  0  0  0  0  0  0  0  0
  185.4280  172.7980  136.6340 F   0  0  0  0  0  0  0  0  0  0  0  0
  184.1070  172.7730  136.2320 C   0  0  2  0  0  3  0  0  0  0  0  0
  183.4350  171.5220  136.7710 C   0  0  0  0  0  2  0  0  0  0  0  0
  182.9170  170.6410  135.6400 C   0  0  0  0  0  2  0  0  0  0  0  0
  182.7610  168.3730  134.9070 F   0  0  0  0  0  0  0  0  0  0  0  0
  184.7900  169.3310  135.0300 F   0  0  0  0  0  0  0  0  0  0  0  0
  183.7000  168.7830  136.9210 F   0  0  0  0  0  0  0  0  0  0  0  0
  183.5470  169.2520  135.6290 C   0  0  0  0  0  0  0  0  0  0  0  0
  183.5590  179.0250  144.3370 C   0  0  0  0  0  2  0  0  0  0  0  0
  184.7290  179.4310  145.2270 C   0  0  0  0  0  2  0  0  0  0  0  0
  185.3990  178.2540  145.7690 N   0  0  0  0  0  2  0  0  0  0  0  0
  186.7440  177.8860  145.4350 C   0  0  0  0  0  0  0  0  0  0  0  0
  187.7310  178.0280  146.3170 C   0  0  0  0  0  2  0  0  0  0  0  0
  188.2050  177.8190  143.4320 C   0  0  0  0  0  2  0  0  0  0  0  0
  187.0230  177.1830  144.1440 C   0  0  0  0  0  3  0  0  0  0  0  0
  188.3940  176.5310  144.1980 C   0  0  0  0  0  2  0  0  0  0  0  0
  1 25  1  0  0  0  0
  2 30  2  0  0  0  0
  2  3  1  0  0  0  0
  3 29  1  0  0  0  0
  4 30  1  0  0  0  0
  5 21  2  0  0  0  0
  6  5  1  0  0  0  0
  7 22  1  0  0  0  0
 11 31  1  6  0  0  0
 11 17  1  0  0  0  0
 11  1  1  0  0  0  0
 12 16  1  0  0  0  0
 12 19  1  0  0  0  0
 13  3  2  0  0  0  0
 13 24  1  0  0  0  0
 14 15  1  0  0  0  0
 15 41  1  0  0  0  0
 16 28  1  0  0  0  0
 17  6  1  0  0  0  0
 18 27  2  0  0  0  0
 19 20  2  0  0  0  0
 21 26  1  0  0  0  0
 21  9  1  0  0  0  0
 22  5  1  0  0  0  0
 22 16  2  0  0  0  0
 23  8  2  0  0  0  0
 24 14  2  0  0  0  0
 25 27  1  0  0  0  0
 25 10  2  0  0  0  0
 26 13  1  0  0  0  0
 27  4  1  0  0  0  0
 28  9  2  0  0  0  0
 28 20  1  0  0  0  0
 29  8  1  0  0  0  0
 29 15  2  0  0  0  0
 30 23  1  0  0  0  0
 31 32  1  0  0  0  0
 32 34  1  0  0  0  0
 34 33  1  6  0  0  0
 34 35  1  0  0  0  0
 36 35  1  0  0  0  0
 37 40  1  0  0  0  0
 38 40  1  0  0  0  0
 40 36  1  0  0  0  0
 40 39  1  0  0  0  0
 41 42  1  0  0  0  0
 42 43  1  0  0  0  0
 44 43  1  0  0  0  0
 44 45  2  0  0  0  0
 46 47  1  0  0  0  0
 46 48  1  0  0  0  0
 47 48  1  0  0  0  0
 47 44  1  0  0  0  0
M  END
>  <MODEL>
8

>  <REMARK>
 VINA RESULT:      -6.7      5.250     10.148
  Name = 
  11 active torsions:
  status: ('A' for Active; 'I' for Inactive)
    1  A    between atoms: C_3  and  C_16
    2  A    between atoms: C_3  and  S_39
    3  A    between atoms: N_4  and  C_14
    4  A    between atoms: N_4  and  C_41
    5  A    between atoms: C_14  and  C_29
    6  A    between atoms: C_18  and  C_24
    7  A    between atoms: C_18  and  C_38
    8  A    between atoms: C_22  and  C_24
    9  A    between atoms: C_22  and  S_39
   10  A    between atoms: C_23  and  C_32
   11  A    between atoms: C_32  and  C_41
                            x       y       z     vdW  Elec       q    Type
                         _______ _______ _______ _____ _____    ______ ____

>  <TORSDO>
F 11

$$$$
=
 OpenBabel10232412143D

 48 53  0  0  1  0  0  0  0  0999 V2000
  188.2790  178.0930  143.9560 N   0  0  0  0  0  2  0  0  0  0  0  0
  189.0940  177.5190  139.8750 N   0  0  0  0  0  0  0  0  0  0  0  0
  188.4640  177.3990  138.6750 C   0  0  0  0  0  0  0  0  0  0  0  0
  190.8920  176.9650  141.4120 N   0  0  0  0  0  2  0  0  0  0  0  0
  185.0930  178.4740  141.1470 C   0  0  0  0  0  0  0  0  0  0  0  0
  186.1500  178.4500  142.0680 O   0  0  0  0  0  0  0  0  0  0  0  0
  183.4120  177.7830  142.8450 N   0  0  0  0  0  1  0  0  0  0  0  0
  190.1050  175.7910  138.0100 N   0  0  0  0  0  0  0  0  0  0  0  0
  184.3620  178.8340  138.8710 N   0  0  0  0  0  0  0  0  0  0  0  0
  188.2500  176.3680  142.3860 O   0  0  0  0  0  0  0  0  0  0  0  0
  186.8770  177.9290  144.3170 C   0  0  2  0  0  3  0  0  0  0  0  0
  181.1320  177.9310  140.6280 S   0  0  0  0  0  0  0  0  0  0  0  0
  187.3200  178.1600  138.3780 C   0  0  0  0  0  0  0  0  0  0  0  0
  187.2280  177.1450  136.1730 C   0  0  0  0  0  3  0  0  0  0  0  0
  188.3530  176.3700  136.4640 C   0  0  0  0  0  0  0  0  0  0  0  0
  182.7790  178.2270  140.5320 C   0  0  0  0  0  0  0  0  0  0  0  0
  185.9980  178.8010  143.4370 C   0  0  0  0  0  2  0  0  0  0  0  0
  191.0410  178.1810  143.3830 O   0  0  0  0  0  0  0  0  0  0  0  0
  180.8750  178.2420  138.9810 C   0  0  0  0  0  3  0  0  0  0  0  0
  182.0420  178.5680  138.3660 N   0  0  0  0  0  0  0  0  0  0  0  0
  185.3710  178.7900  139.7930 C   0  0  0  0  0  0  0  0  0  0  0  0
  183.7580  178.1740  141.5190 C   0  0  0  0  0  0  0  0  0  0  0  0
  190.7300  175.9230  139.2090 C   0  0  0  0  0  3  0  0  0  0  0  0
  186.7220  178.0380  137.1170 C   0  0  0  0  0  3  0  0  0  0  0  0
  188.8990  177.2940  142.9460 C   0  0  0  0  0  0  0  0  0  0  0  0
  186.7650  179.1440  139.3660 C   0  0  0  0  0  2  0  0  0  0  0  0
  190.3100  177.5230  142.5960 C   0  0  0  0  0  0  0  0  0  0  0  0
  183.0870  178.5540  139.2320 C   0  0  0  0  0  0  0  0  0  0  0  0
  188.9860  176.5050  137.7120 C   0  0  0  0  0  0  0  0  0  0  0  0
  190.2100  176.7950  140.1670 C   0  0  0  0  0  0  0  0  0  0  0  0
  186.6700  178.3360  145.7620 C   0  0  0  0  0  2  0  0  0  0  0  0
  187.0740  176.9550  146.8720 S   0  0  0  0  0  0  0  0  0  0  0  0
  187.5150  179.3720  147.7670 F   0  0  0  0  0  0  0  0  0  0  0  0
  187.7910  178.0640  148.1170 C   0  0  2  0  0  3  0  0  0  0  0  0
  189.2950  177.8600  148.1750 C   0  0  0  0  0  2  0  0  0  0  0  0
  189.7700  176.9210  147.0720 C   0  0  0  0  0  2  0  0  0  0  0  0
  191.9160  176.8070  146.0300 F   0  0  0  0  0  0  0  0  0  0  0  0
  191.8040  177.2870  148.2220 F   0  0  0  0  0  0  0  0  0  0  0  0
  191.3630  175.1970  147.5160 F   0  0  0  0  0  0  0  0  0  0  0  0
  191.2400  176.5390  147.2060 C   0  0  0  0  0  0  0  0  0  0  0  0
  188.8270  175.3810  135.4460 C   0  0  0  0  0  2  0  0  0  0  0  0
  187.6680  174.5770  134.8640 C   0  0  0  0  0  2  0  0  0  0  0  0
  187.6280  173.2370  135.4370 N   0  0  0  0  0  2  0  0  0  0  0  0
  186.4570  172.6680  136.0380 C   0  0  0  0  0  0  0  0  0  0  0  0
  185.8090  171.6630  135.4540 C   0  0  0  0  0  2  0  0  0  0  0  0
  185.0240  174.2120  137.3460 C   0  0  0  0  0  2  0  0  0  0  0  0
  186.0480  173.0910  137.4140 C   0  0  0  0  0  3  0  0  0  0  0  0
  184.5720  172.7970  137.6260 C   0  0  0  0  0  2  0  0  0  0  0  0
  1 11  1  0  0  0  0
  2 30  2  0  0  0  0
  3  2  1  0  0  0  0
  4 27  1  0  0  0  0
  5 22  1  0  0  0  0
  5  6  1  0  0  0  0
  6 17  1  0  0  0  0
  8 23  2  0  0  0  0
  9 28  2  0  0  0  0
  9 21  1  0  0  0  0
 10 25  2  0  0  0  0
 11 31  1  1  0  0  0
 13  3  1  0  0  0  0
 13 26  1  0  0  0  0
 14 15  2  0  0  0  0
 14 24  1  0  0  0  0
 15 29  1  0  0  0  0
 16 12  1  0  0  0  0
 16 22  2  0  0  0  0
 17 11  1  0  0  0  0
 19 12  1  0  0  0  0
 20 19  2  0  0  0  0
 20 28  1  0  0  0  0
 21  5  2  0  0  0  0
 22  7  1  0  0  0  0
 23 30  1  0  0  0  0
 24 13  2  0  0  0  0
 25  1  1  0  0  0  0
 26 21  1  0  0  0  0
 27 25  1  0  0  0  0
 27 18  2  0  0  0  0
 28 16  1  0  0  0  0
 29  8  1  0  0  0  0
 29  3  2  0  0  0  0
 30  4  1  0  0  0  0
 31 32  1  0  0  0  0
 32 34  1  0  0  0  0
 34 33  1  6  0  0  0
 34 35  1  0  0  0  0
 36 40  1  0  0  0  0
 36 35  1  0  0  0  0
 37 40  1  0  0  0  0
 40 39  1  0  0  0  0
 40 38  1  0  0  0  0
 41 15  1  0  0  0  0
 42 43  1  0  0  0  0
 42 41  1  0  0  0  0
 43 44  1  0  0  0  0
 44 47  1  0  0  0  0
 45 44  2  0  0  0  0
 46 47  1  0  0  0  0
 46 48  1  0  0  0  0
 47 48  1  0  0  0  0
M  END
>  <MODEL>
9

>  <REMARK>
 VINA RESULT:      -6.6      2.040      3.149
  Name = 
  11 active torsions:
  status: ('A' for Active; 'I' for Inactive)
    1  A    between atoms: C_3  and  C_16
    2  A    between atoms: C_3  and  S_39
    3  A    between atoms: N_4  and  C_14
    4  A    between atoms: N_4  and  C_41
    5  A    between atoms: C_14  and  C_29
    6  A    between atoms: C_18  and  C_24
    7  A    between atoms: C_18  and  C_38
    8  A    between atoms: C_22  and  C_24
    9  A    between atoms: C_22  and  S_39
   10  A    between atoms: C_23  and  C_32
   11  A    between atoms: C_32  and  C_41
                            x       y       z     vdW  Elec       q    Type
                         _______ _______ _______ _____ _____    ______ ____

>  <TORSDO>
F 11

$$$$
