=
 OpenBabel10232410163D

 41 46  0  0  1  0  0  0  0  0999 V2000
  187.4010  176.0720  135.9860 C   0  0  0  0  0  3  0  0  0  0  0  0
  188.6360  177.7630  140.7800 C   0  0  0  0  0  0  0  0  0  0  0  0
  189.5480  176.6060  138.8460 C   0  0  0  0  0  0  0  0  0  0  0  0
  188.4980  177.1080  138.0360 C   0  0  0  0  0  0  0  0  0  0  0  0
  188.4990  176.6990  136.6510 N   0  0  0  0  0  2  0  0  0  0  0  0
  185.4610  178.2830  137.3060 N   0  0  0  0  0  0  0  0  0  0  0  0
  186.2250  176.3270  136.4380 C   0  0  0  0  0  0  0  0  0  0  0  0
  188.7110  178.2130  142.1980 C   0  0  0  0  0  1  0  0  0  0  0  0
  187.4970  177.9510  138.6330 C   0  0  0  0  0  0  0  0  0  0  0  0
  189.6190  176.9370  140.2150 C   0  0  0  0  0  0  0  0  0  0  0  0
  186.4910  178.7200  137.9310 N   0  0  0  0  0  0  0  0  0  0  0  0
  185.2220  176.9110  136.9940 C   0  0  0  0  0  0  0  0  0  0  0  0
  187.6130  178.2650  139.9870 C   0  0  0  0  0  3  0  0  0  0  0  0
  182.8930  176.9680  137.7740 C   0  0  0  0  0  2  0  0  0  0  0  0
  183.8320  176.4530  136.6990 C   0  0  0  0  0  3  0  0  0  0  0  0
  183.3400  175.5230  137.7950 C   0  0  0  0  0  2  0  0  0  0  0  0
  191.7940  176.5590  137.8300 C   0  0  1  0  0  3  0  0  0  0  0  0
  190.8560  176.1080  136.8910 O   0  0  0  0  0  0  0  0  0  0  0  0
  190.6250  175.7400  138.2340 C   0  0  2  0  0  3  0  0  0  0  0  0
  193.0080  175.6990  137.7620 C   0  0  0  0  0  3  0  0  0  0  0  0
  193.8750  175.8480  136.7650 C   0  0  0  0  0  3  0  0  0  0  0  0
  197.5360  175.6390  136.5600 O   0  0  0  0  0  0  0  0  0  0  0  0
  197.7590  175.2340  137.8670 N   0  0  0  0  0  2  0  0  0  0  0  0
  195.4620  174.5060  138.0790 C   0  0  0  0  0  2  0  0  0  0  0  0
  196.2490  175.7200  136.0180 C   0  0  0  0  0  0  0  0  0  0  0  0
  195.1000  174.9930  136.6770 C   0  0  2  0  0  3  0  0  0  0  0  0
  196.9190  174.0750  138.1520 C   0  0  0  0  0  2  0  0  0  0  0  0
  196.0810  176.3000  134.9130 O   0  0  0  0  0  0  0  0  0  0  0  0
  190.6960  176.4700  140.9820 O   0  0  0  0  0  0  0  0  0  0  0  0
  191.7260  177.2890  141.4550 C   0  0  0  0  0  0  0  0  0  0  0  0
  192.5330  177.8430  140.6600 O   0  0  0  0  0  0  0  0  0  0  0  0
  191.8680  177.5130  142.9170 C   0  0  0  0  0  2  0  0  0  0  0  0
  191.5530  176.2280  143.6630 C   0  0  0  0  0  2  0  0  0  0  0  0
  191.1490  176.5260  145.0660 C   0  0  0  0  0  0  0  0  0  0  0  0
  191.8950  176.2920  146.1320 C   0  0  0  0  0  2  0  0  0  0  0  0
  189.8270  177.0710  145.4700 C   0  0  0  0  0  3  0  0  0  0  0  0
  191.1880  176.6570  147.3090 N   0  0  0  0  0  0  0  0  0  0  0  0
  190.0270  177.0960  146.9470 C   0  0  0  0  0  0  0  0  0  0  0  0
  189.1440  178.6940  148.4540 O   0  0  0  0  0  1  0  0  0  0  0  0
  189.0240  177.5660  147.9060 C   0  0  0  0  0  0  0  0  0  0  0  0
  187.9310  176.7670  148.2170 O   0  0  0  0  0  0  0  0  0  0  0  0
  1  7  2  0  0  0  0
  1  5  1  0  0  0  0
  2  8  1  0  0  0  0
  3 10  2  0  0  0  0
  4  9  2  0  0  0  0
  4  3  1  0  0  0  0
  5  4  1  0  0  0  0
  6 11  2  0  0  0  0
  7 12  2  0  0  0  0
  9 13  1  0  0  0  0
 10  2  1  0  0  0  0
 10 29  1  0  0  0  0
 11  9  1  0  0  0  0
 12  6  1  0  0  0  0
 13  2  2  0  0  0  0
 14 16  1  0  0  0  0
 15 12  1  0  0  0  0
 15 14  1  0  0  0  0
 15 16  1  0  0  0  0
 17 20  1  6  0  0  0
 17 19  1  0  0  0  0
 18 17  1  0  0  0  0
 18 19  1  0  0  0  0
 19  3  1  1  0  0  0
 21 20  2  0  0  0  0
 22 23  1  0  0  0  0
 23 27  1  0  0  0  0
 24 27  1  0  0  0  0
 25 22  1  0  0  0  0
 25 26  1  0  0  0  0
 26 21  1  1  0  0  0
 26 24  1  0  0  0  0
 28 25  2  0  0  0  0
 29 30  1  0  0  0  0
 30 32  1  0  0  0  0
 31 30  2  0  0  0  0
 32 33  1  0  0  0  0
 33 34  1  0  0  0  0
 34 36  2  0  0  0  0
 34 35  1  0  0  0  0
 35 37  1  0  0  0  0
 36 38  1  0  0  0  0
 38 37  2  0  0  0  0
 38 40  1  0  0  0  0
 40 41  2  0  0  0  0
 40 39  1  0  0  0  0
M  END
>  <MODEL>
1

>  <REMARK>
 VINA RESULT:      -8.5      0.000      0.000
  Name = 
  10 active torsions:
  status: ('A' for Active; 'I' for Inactive)
    1  A    between atoms: C_3  and  C_4
    2  A    between atoms: C_3  and  C_28
    3  A    between atoms: C_7  and  C_28
    4  A    between atoms: C_7  and  O_40
    5  A    between atoms: C_10  and  C_39
    6  A    between atoms: C_20  and  C_33
    7  A    between atoms: CA_21  and  C_36
    8  A    between atoms: C_22  and  C_30
    9  A    between atoms: C_25  and  C_35
   10  A    between atoms: C_27  and  O_40
                            x       y       z     vdW  Elec       q    Type
                         _______ _______ _______ _____ _____    ______ ____

>  <TORSDO>
F 10

$$$$
=
 OpenBabel10232410163D

 41 46  0  0  1  0  0  0  0  0999 V2000
  181.6410  179.2630  139.5240 C   0  0  0  0  0  3  0  0  0  0  0  0
  186.2370  177.8700  137.4490 C   0  0  0  0  0  0  0  0  0  0  0  0
  185.1970  178.6020  139.5210 C   0  0  0  0  0  0  0  0  0  0  0  0
  183.9190  178.2450  139.0190 C   0  0  0  0  0  0  0  0  0  0  0  0
  182.7910  178.4970  139.8860 N   0  0  0  0  0  2  0  0  0  0  0  0
  181.5620  177.6550  136.7320 N   0  0  0  0  0  0  0  0  0  0  0  0
  181.3400  179.3070  138.2760 C   0  0  0  0  0  0  0  0  0  0  0  0
  187.4340  177.5660  136.6150 C   0  0  0  0  0  1  0  0  0  0  0  0
  183.8180  177.6960  137.6940 C   0  0  0  0  0  0  0  0  0  0  0  0
  186.3540  178.4100  138.7390 C   0  0  0  0  0  0  0  0  0  0  0  0
  182.6460  177.0820  137.1050 N   0  0  0  0  0  0  0  0  0  0  0  0
  181.2120  179.0050  137.0310 C   0  0  0  0  0  0  0  0  0  0  0  0
  184.9890  177.5100  136.9600 C   0  0  0  0  0  3  0  0  0  0  0  0
  180.7370  179.8780  134.7850 C   0  0  0  0  0  2  0  0  0  0  0  0
  180.1960  179.7080  136.1920 C   0  0  0  0  0  3  0  0  0  0  0  0
  180.7300  181.0540  135.7350 C   0  0  0  0  0  2  0  0  0  0  0  0
  185.5520  178.0660  141.9010 C   0  0  1  0  0  3  0  0  0  0  0  0
  184.2960  178.6690  141.7490 O   0  0  0  0  0  0  0  0  0  0  0  0
  185.3290  179.1570  140.9210 C   0  0  2  0  0  3  0  0  0  0  0  0
  186.2150  178.6140  143.1170 C   0  0  0  0  0  3  0  0  0  0  0  0
  186.2800  177.8830  144.2270 C   0  0  0  0  0  3  0  0  0  0  0  0
  186.4560  177.9630  147.8950 O   0  0  0  0  0  0  0  0  0  0  0  0
  187.5960  177.1860  148.0300 N   0  0  0  0  0  2  0  0  0  0  0  0
  188.2090  177.6080  145.7270 C   0  0  0  0  0  2  0  0  0  0  0  0
  186.0060  178.4090  146.6470 C   0  0  0  0  0  0  0  0  0  0  0  0
  186.9390  178.4160  145.4600 C   0  0  2  0  0  3  0  0  0  0  0  0
  188.6460  177.7370  147.1790 C   0  0  0  0  0  2  0  0  0  0  0  0
  184.8570  178.9160  146.5520 O   0  0  0  0  0  0  0  0  0  0  0  0
  187.6100  178.7220  139.2780 O   0  0  0  0  0  0  0  0  0  0  0  0
  188.4750  177.7730  139.8330 C   0  0  0  0  0  0  0  0  0  0  0  0
  188.7340  176.6980  139.2270 O   0  0  0  0  0  0  0  0  0  0  0  0
  189.1020  178.0400  141.1530 C   0  0  0  0  0  2  0  0  0  0  0  0
  190.2130  177.0370  141.4030 C   0  0  0  0  0  2  0  0  0  0  0  0
  190.7430  177.1820  142.7890 C   0  0  0  0  0  0  0  0  0  0  0  0
  191.1040  178.3260  143.3430 C   0  0  0  0  0  3  0  0  0  0  0  0
  191.0000  176.0530  143.7210 C   0  0  0  0  0  2  0  0  0  0  0  0
  191.6000  178.0960  144.6550 N   0  0  0  0  0  0  0  0  0  0  0  0
  191.5440  176.8230  144.8750 C   0  0  0  0  0  0  0  0  0  0  0  0
  192.0100  176.9030  147.1950 O   0  0  0  0  0  1  0  0  0  0  0  0
  191.9780  176.2180  146.1370 C   0  0  0  0  0  0  0  0  0  0  0  0
  192.3560  174.8820  146.1750 O   0  0  0  0  0  0  0  0  0  0  0  0
  1  5  1  0  0  0  0
  2 10  1  0  0  0  0
  4  3  1  0  0  0  0
  4  5  1  0  0  0  0
  6 12  1  0  0  0  0
  6 11  2  0  0  0  0
  7  1  2  0  0  0  0
  8  2  1  0  0  0  0
  9  4  2  0  0  0  0
 10 29  1  0  0  0  0
 10  3  2  0  0  0  0
 11  9  1  0  0  0  0
 12  7  2  0  0  0  0
 13  2  2  0  0  0  0
 13  9  1  0  0  0  0
 14 16  1  0  0  0  0
 14 15  1  0  0  0  0
 15 12  1  0  0  0  0
 16 15  1  0  0  0  0
 17 20  1  1  0  0  0
 18 17  1  0  0  0  0
 19  3  1  6  0  0  0
 19 18  1  0  0  0  0
 19 17  1  0  0  0  0
 20 21  2  0  0  0  0
 22 23  1  0  0  0  0
 24 27  1  0  0  0  0
 25 22  1  0  0  0  0
 26 21  1  6  0  0  0
 26 24  1  0  0  0  0
 26 25  1  0  0  0  0
 27 23  1  0  0  0  0
 28 25  2  0  0  0  0
 29 30  1  0  0  0  0
 30 32  1  0  0  0  0
 31 30  2  0  0  0  0
 32 33  1  0  0  0  0
 33 34  1  0  0  0  0
 34 35  2  0  0  0  0
 34 36  1  0  0  0  0
 35 37  1  0  0  0  0
 36 38  1  0  0  0  0
 37 38  2  0  0  0  0
 38 40  1  0  0  0  0
 40 41  2  0  0  0  0
 40 39  1  0  0  0  0
M  END
>  <MODEL>
2

>  <REMARK>
 VINA RESULT:      -8.5      4.189      7.592
  Name = 
  10 active torsions:
  status: ('A' for Active; 'I' for Inactive)
    1  A    between atoms: C_3  and  C_4
    2  A    between atoms: C_3  and  C_28
    3  A    between atoms: C_7  and  C_28
    4  A    between atoms: C_7  and  O_40
    5  A    between atoms: C_10  and  C_39
    6  A    between atoms: C_20  and  C_33
    7  A    between atoms: CA_21  and  C_36
    8  A    between atoms: C_22  and  C_30
    9  A    between atoms: C_25  and  C_35
   10  A    between atoms: C_27  and  O_40
                            x       y       z     vdW  Elec       q    Type
                         _______ _______ _______ _____ _____    ______ ____

>  <TORSDO>
F 10

$$$$
=
 OpenBabel10232410163D

 41 46  0  0  1  0  0  0  0  0999 V2000
  185.8870  177.8910  136.9770 C   0  0  0  0  0  3  0  0  0  0  0  0
  185.0180  178.4000  142.1110 C   0  0  0  0  0  0  0  0  0  0  0  0
  186.7820  178.4330  140.4390 C   0  0  0  0  0  0  0  0  0  0  0  0
  185.8220  178.6280  139.4130 C   0  0  0  0  0  0  0  0  0  0  0  0
  186.3280  178.7090  138.0620 N   0  0  0  0  0  2  0  0  0  0  0  0
  182.8520  178.4640  137.9000 N   0  0  0  0  0  0  0  0  0  0  0  0
  184.6870  177.4350  137.0420 C   0  0  0  0  0  0  0  0  0  0  0  0
  184.5460  178.3770  143.5240 C   0  0  0  0  0  1  0  0  0  0  0  0
  184.4290  178.6990  139.7640 C   0  0  0  0  0  0  0  0  0  0  0  0
  186.3800  178.3240  141.7860 C   0  0  0  0  0  0  0  0  0  0  0  0
  183.3440  179.1040  138.8960 N   0  0  0  0  0  0  0  0  0  0  0  0
  183.4360  177.3020  137.3140 C   0  0  0  0  0  0  0  0  0  0  0  0
  184.0770  178.6010  141.1100 C   0  0  0  0  0  3  0  0  0  0  0  0
  181.6590  177.1950  135.6220 C   0  0  0  0  0  2  0  0  0  0  0  0
  182.5880  176.3800  136.5010 C   0  0  0  0  0  3  0  0  0  0  0  0
  181.1250  176.5400  136.8760 C   0  0  0  0  0  2  0  0  0  0  0  0
  188.5780  177.1320  139.3610 C   0  0  1  0  0  3  0  0  0  0  0  0
  188.8730  177.2810  140.7240 O   0  0  0  0  0  0  0  0  0  0  0  0
  188.2530  178.3810  140.0950 C   0  0  2  0  0  3  0  0  0  0  0  0
  189.8220  177.3290  138.5670 C   0  0  0  0  0  3  0  0  0  0  0  0
  190.7770  176.4020  138.5830 C   0  0  0  0  0  3  0  0  0  0  0  0
  194.3780  175.7640  138.2510 O   0  0  0  0  0  0  0  0  0  0  0  0
  194.2920  174.8010  137.2580 N   0  0  0  0  0  2  0  0  0  0  0  0
  192.0640  175.5410  136.6730 C   0  0  0  0  0  2  0  0  0  0  0  0
  193.2640  176.5020  138.6670 C   0  0  0  0  0  0  0  0  0  0  0  0
  192.0350  176.5800  137.7940 C   0  0  2  0  0  3  0  0  0  0  0  0
  193.4810  175.3240  136.1630 C   0  0  0  0  0  2  0  0  0  0  0  0
  193.3420  177.1980  139.7140 O   0  0  0  0  0  0  0  0  0  0  0  0
  187.3530  178.1850  142.7860 O   0  0  0  0  0  0  0  0  0  0  0  0
  187.4750  177.0540  143.6000 C   0  0  0  0  0  0  0  0  0  0  0  0
  187.8800  175.9560  143.1290 O   0  0  0  0  0  0  0  0  0  0  0  0
  187.1270  177.1500  145.0410 C   0  0  0  0  0  2  0  0  0  0  0  0
  187.9150  178.2780  145.6820 C   0  0  0  0  0  2  0  0  0  0  0  0
  189.0220  177.7310  146.5160 C   0  0  0  0  0  0  0  0  0  0  0  0
  189.1590  177.9320  147.8160 C   0  0  0  0  0  2  0  0  0  0  0  0
  190.1630  176.9340  145.9950 C   0  0  0  0  0  3  0  0  0  0  0  0
  190.3430  177.3030  148.2830 N   0  0  0  0  0  0  0  0  0  0  0  0
  190.9120  176.7400  147.2680 C   0  0  0  0  0  0  0  0  0  0  0  0
  192.4920  175.1550  146.4940 O   0  0  0  0  0  0  0  0  0  0  0  0
  192.1670  175.9910  147.3790 C   0  0  0  0  0  0  0  0  0  0  0  0
  193.0080  176.1990  148.4650 O   0  0  0  0  0  1  0  0  0  0  0  0
  1  7  2  0  0  0  0
  1  5  1  0  0  0  0
  2  8  1  0  0  0  0
  3 10  2  0  0  0  0
  4  9  2  0  0  0  0
  4  3  1  0  0  0  0
  5  4  1  0  0  0  0
  6 11  2  0  0  0  0
  7 12  2  0  0  0  0
  9 13  1  0  0  0  0
 10  2  1  0  0  0  0
 10 29  1  0  0  0  0
 11  9  1  0  0  0  0
 12  6  1  0  0  0  0
 13  2  2  0  0  0  0
 14 15  1  0  0  0  0
 14 16  1  0  0  0  0
 15 16  1  0  0  0  0
 15 12  1  0  0  0  0
 17 20  1  6  0  0  0
 17 19  1  0  0  0  0
 17 18  1  0  0  0  0
 19  3  1  1  0  0  0
 19 18  1  0  0  0  0
 20 21  2  0  0  0  0
 22 25  1  0  0  0  0
 23 22  1  0  0  0  0
 24 26  1  0  0  0  0
 25 28  2  0  0  0  0
 26 21  1  1  0  0  0
 26 25  1  0  0  0  0
 27 24  1  0  0  0  0
 27 23  1  0  0  0  0
 29 30  1  0  0  0  0
 30 32  1  0  0  0  0
 31 30  2  0  0  0  0
 32 33  1  0  0  0  0
 33 34  1  0  0  0  0
 34 35  1  0  0  0  0
 35 37  1  0  0  0  0
 36 34  2  0  0  0  0
 36 38  1  0  0  0  0
 38 40  1  0  0  0  0
 38 37  2  0  0  0  0
 39 40  2  0  0  0  0
 40 41  1  0  0  0  0
M  END
>  <MODEL>
3

>  <REMARK>
 VINA RESULT:      -8.2      2.387      3.702
  Name = 
  10 active torsions:
  status: ('A' for Active; 'I' for Inactive)
    1  A    between atoms: C_3  and  C_4
    2  A    between atoms: C_3  and  C_28
    3  A    between atoms: C_7  and  C_28
    4  A    between atoms: C_7  and  O_40
    5  A    between atoms: C_10  and  C_39
    6  A    between atoms: C_20  and  C_33
    7  A    between atoms: CA_21  and  C_36
    8  A    between atoms: C_22  and  C_30
    9  A    between atoms: C_25  and  C_35
   10  A    between atoms: C_27  and  O_40
                            x       y       z     vdW  Elec       q    Type
                         _______ _______ _______ _____ _____    ______ ____

>  <TORSDO>
F 10

$$$$
=
 OpenBabel10232410163D

 41 46  0  0  1  0  0  0  0  0999 V2000
  188.3670  177.3180  145.5430 C   0  0  0  0  0  3  0  0  0  0  0  0
  191.1350  177.3670  141.1040 C   0  0  0  0  0  0  0  0  0  0  0  0
  188.8700  177.5410  141.9690 C   0  0  0  0  0  0  0  0  0  0  0  0
  189.3740  177.8320  143.2620 C   0  0  0  0  0  0  0  0  0  0  0  0
  188.3960  178.0320  144.3070 N   0  0  0  0  0  2  0  0  0  0  0  0
  191.5410  177.8220  145.8000 N   0  0  0  0  0  0  0  0  0  0  0  0
  189.4880  176.8640  145.9790 C   0  0  0  0  0  0  0  0  0  0  0  0
  192.1070  177.2190  139.9850 C   0  0  0  0  0  1  0  0  0  0  0  0
  190.7970  177.8800  143.4630 C   0  0  0  0  0  0  0  0  0  0  0  0
  189.7500  177.3130  140.8910 C   0  0  0  0  0  0  0  0  0  0  0  0
  191.4830  178.3670  144.6410 N   0  0  0  0  0  0  0  0  0  0  0  0
  190.7440  176.7150  146.2170 C   0  0  0  0  0  0  0  0  0  0  0  0
  191.6310  177.6630  142.3670 C   0  0  0  0  0  3  0  0  0  0  0  0
  192.3900  176.5280  148.0310 C   0  0  0  0  0  2  0  0  0  0  0  0
  191.1930  175.8740  147.3670 C   0  0  0  0  0  3  0  0  0  0  0  0
  192.5920  175.3410  147.1160 C   0  0  0  0  0  2  0  0  0  0  0  0
  186.9030  178.8150  141.2020 C   0  0  1  0  0  3  0  0  0  0  0  0
  186.7240  178.4590  142.5470 O   0  0  0  0  0  0  0  0  0  0  0  0
  187.3780  177.5120  141.7300 C   0  0  2  0  0  3  0  0  0  0  0  0
  185.6210  178.6200  140.4700 C   0  0  0  0  0  3  0  0  0  0  0  0
  184.4750  179.0250  141.0120 C   0  0  0  0  0  3  0  0  0  0  0  0
  182.6530  178.8950  137.8260 O   0  0  0  0  0  0  0  0  0  0  0  0
  182.4910  177.5190  137.7760 N   0  0  0  0  0  2  0  0  0  0  0  0
  182.9030  177.3410  140.1530 C   0  0  0  0  0  2  0  0  0  0  0  0
  183.1650  179.5410  138.9570 C   0  0  0  0  0  0  0  0  0  0  0  0
  183.1760  178.8380  140.2940 C   0  0  2  0  0  3  0  0  0  0  0  0
  181.9090  177.0670  139.0350 C   0  0  0  0  0  2  0  0  0  0  0  0
  183.5000  180.7520  138.8760 O   0  0  0  0  0  0  0  0  0  0  0  0
  189.2260  177.0790  139.6110 O   0  0  0  0  0  0  0  0  0  0  0  0
  189.2490  178.0200  138.5780 C   0  0  0  0  0  0  0  0  0  0  0  0
  189.1040  179.2500  138.8160 O   0  0  0  0  0  0  0  0  0  0  0  0
  189.4520  177.5640  137.1790 C   0  0  0  0  0  2  0  0  0  0  0  0
  188.1690  177.7510  136.3890 C   0  0  0  0  0  2  0  0  0  0  0  0
  187.2380  176.6140  136.6310 C   0  0  0  0  0  0  0  0  0  0  0  0
  185.9210  176.7170  136.6980 C   0  0  0  0  0  3  0  0  0  0  0  0
  187.6590  175.2130  136.8940 C   0  0  0  0  0  2  0  0  0  0  0  0
  185.3480  175.4480  136.9800 N   0  0  0  0  0  0  0  0  0  0  0  0
  186.3160  174.5990  137.0910 C   0  0  0  0  0  0  0  0  0  0  0  0
  186.9730  172.3240  137.0940 O   0  0  0  0  0  0  0  0  0  0  0  0
  186.0940  173.1790  137.3820 C   0  0  0  0  0  0  0  0  0  0  0  0
  184.9090  172.7690  137.9800 O   0  0  0  0  0  1  0  0  0  0  0  0
  1  7  2  0  0  0  0
  2 13  1  0  0  0  0
  3  4  2  0  0  0  0
  4  9  1  0  0  0  0
  4  5  1  0  0  0  0
  5  1  1  0  0  0  0
  6 12  1  0  0  0  0
  7 12  2  0  0  0  0
  8  2  1  0  0  0  0
  9 11  1  0  0  0  0
 10  2  2  0  0  0  0
 10  3  1  0  0  0  0
 11  6  2  0  0  0  0
 12 15  1  0  0  0  0
 13  9  2  0  0  0  0
 15 14  1  0  0  0  0
 16 15  1  0  0  0  0
 16 14  1  0  0  0  0
 17 20  1  6  0  0  0
 17 19  1  0  0  0  0
 17 18  1  0  0  0  0
 19  3  1  1  0  0  0
 19 18  1  0  0  0  0
 20 21  2  0  0  0  0
 22 25  1  0  0  0  0
 23 22  1  0  0  0  0
 23 27  1  0  0  0  0
 24 26  1  0  0  0  0
 25 26  1  0  0  0  0
 26 21  1  6  0  0  0
 27 24  1  0  0  0  0
 28 25  2  0  0  0  0
 29 10  1  0  0  0  0
 30 31  2  0  0  0  0
 30 29  1  0  0  0  0
 32 30  1  0  0  0  0
 33 34  1  0  0  0  0
 33 32  1  0  0  0  0
 34 35  2  0  0  0  0
 34 36  1  0  0  0  0
 35 37  1  0  0  0  0
 36 38  1  0  0  0  0
 37 38  2  0  0  0  0
 38 40  1  0  0  0  0
 39 40  2  0  0  0  0
 40 41  1  0  0  0  0
M  END
>  <MODEL>
4

>  <REMARK>
 VINA RESULT:      -8.2      3.760      9.986
  Name = 
  10 active torsions:
  status: ('A' for Active; 'I' for Inactive)
    1  A    between atoms: C_3  and  C_4
    2  A    between atoms: C_3  and  C_28
    3  A    between atoms: C_7  and  C_28
    4  A    between atoms: C_7  and  O_40
    5  A    between atoms: C_10  and  C_39
    6  A    between atoms: C_20  and  C_33
    7  A    between atoms: CA_21  and  C_36
    8  A    between atoms: C_22  and  C_30
    9  A    between atoms: C_25  and  C_35
   10  A    between atoms: C_27  and  O_40
                            x       y       z     vdW  Elec       q    Type
                         _______ _______ _______ _____ _____    ______ ____

>  <TORSDO>
F 10

$$$$
=
 OpenBabel10232410163D

 41 46  0  0  1  0  0  0  0  0999 V2000
  189.8320  176.4630  143.2310 C   0  0  0  0  0  3  0  0  0  0  0  0
  185.3240  179.0990  143.5430 C   0  0  0  0  0  0  0  0  0  0  0  0
  186.8240  178.0210  141.9630 C   0  0  0  0  0  0  0  0  0  0  0  0
  187.4370  177.3000  143.0200 C   0  0  0  0  0  0  0  0  0  0  0  0
  188.5250  176.4210  142.6570 N   0  0  0  0  0  2  0  0  0  0  0  0
  188.4490  176.6630  146.1360 N   0  0  0  0  0  0  0  0  0  0  0  0
  189.9270  176.9180  144.4290 C   0  0  0  0  0  0  0  0  0  0  0  0
  184.1550  179.9660  143.8640 C   0  0  0  0  0  1  0  0  0  0  0  0
  186.9730  177.5030  144.3660 C   0  0  0  0  0  0  0  0  0  0  0  0
  185.7660  178.9160  142.2250 C   0  0  0  0  0  0  0  0  0  0  0  0
  187.3230  176.7090  145.5250 N   0  0  0  0  0  0  0  0  0  0  0  0
  189.6610  177.2340  145.6480 C   0  0  0  0  0  0  0  0  0  0  0  0
  185.9150  178.3860  144.5780 C   0  0  0  0  0  3  0  0  0  0  0  0
  191.8990  176.5460  146.3900 C   0  0  0  0  0  2  0  0  0  0  0  0
  190.7700  177.5370  146.6010 C   0  0  0  0  0  3  0  0  0  0  0  0
  190.9650  176.3810  147.5670 C   0  0  0  0  0  2  0  0  0  0  0  0
  188.6980  178.2060  140.3710 C   0  0  1  0  0  3  0  0  0  0  0  0
  187.6450  179.0270  139.9400 O   0  0  0  0  0  0  0  0  0  0  0  0
  187.2800  177.8020  140.5390 C   0  0  2  0  0  3  0  0  0  0  0  0
  189.2830  177.5020  139.1970 C   0  0  0  0  0  3  0  0  0  0  0  0
  190.5900  177.2550  139.1520 C   0  0  0  0  0  3  0  0  0  0  0  0
  193.1480  174.9530  137.8700 O   0  0  0  0  0  0  0  0  0  0  0  0
  192.3130  173.8670  137.6590 N   0  0  0  0  0  2  0  0  0  0  0  0
  190.3680  175.3060  137.6690 C   0  0  0  0  0  2  0  0  0  0  0  0
  192.6510  176.2140  138.2180 C   0  0  0  0  0  0  0  0  0  0  0  0
  191.1980  176.5500  137.9800 C   0  0  2  0  0  3  0  0  0  0  0  0
  191.1710  174.2980  136.8600 C   0  0  0  0  0  2  0  0  0  0  0  0
  193.4500  177.1030  138.6140 O   0  0  0  0  0  0  0  0  0  0  0  0
  185.1430  179.5760  141.1560 O   0  0  0  0  0  0  0  0  0  0  0  0
  184.1430  179.0030  140.3650 C   0  0  0  0  0  0  0  0  0  0  0  0
  183.1530  178.4240  140.8890 O   0  0  0  0  0  0  0  0  0  0  0  0
  184.2490  179.0810  138.8850 C   0  0  0  0  0  2  0  0  0  0  0  0
  183.7970  177.7690  138.2700 C   0  0  0  0  0  2  0  0  0  0  0  0
  184.8930  177.1720  137.4550 C   0  0  0  0  0  0  0  0  0  0  0  0
  184.9770  175.8950  137.1230 C   0  0  0  0  0  2  0  0  0  0  0  0
  186.0770  177.9150  136.9510 C   0  0  0  0  0  3  0  0  0  0  0  0
  186.1640  175.6630  136.3790 N   0  0  0  0  0  0  0  0  0  0  0  0
  186.7880  176.7910  136.2780 C   0  0  0  0  0  0  0  0  0  0  0  0
  188.4490  176.0360  134.7700 O   0  0  0  0  0  0  0  0  0  0  0  0
  188.0620  176.9310  135.5680 C   0  0  0  0  0  0  0  0  0  0  0  0
  188.8520  178.0550  135.7720 O   0  0  0  0  0  1  0  0  0  0  0  0
  1  7  2  0  0  0  0
  2  8  1  0  0  0  0
  2 13  1  0  0  0  0
  3 10  1  0  0  0  0
  3  4  2  0  0  0  0
  4  9  1  0  0  0  0
  5  4  1  0  0  0  0
  5  1  1  0  0  0  0
  7 12  2  0  0  0  0
  9 13  2  0  0  0  0
  9 11  1  0  0  0  0
 10  2  2  0  0  0  0
 11  6  2  0  0  0  0
 12  6  1  0  0  0  0
 12 15  1  0  0  0  0
 14 15  1  0  0  0  0
 14 16  1  0  0  0  0
 15 16  1  0  0  0  0
 17 20  1  6  0  0  0
 17 19  1  0  0  0  0
 18 17  1  0  0  0  0
 18 19  1  0  0  0  0
 19  3  1  1  0  0  0
 21 20  2  0  0  0  0
 22 25  1  0  0  0  0
 23 22  1  0  0  0  0
 24 26  1  0  0  0  0
 25 28  2  0  0  0  0
 26 25  1  0  0  0  0
 26 21  1  1  0  0  0
 27 23  1  0  0  0  0
 27 24  1  0  0  0  0
 29 10  1  0  0  0  0
 30 31  2  0  0  0  0
 30 29  1  0  0  0  0
 32 30  1  0  0  0  0
 33 32  1  0  0  0  0
 34 33  1  0  0  0  0
 35 34  1  0  0  0  0
 36 34  2  0  0  0  0
 37 35  1  0  0  0  0
 38 37  2  0  0  0  0
 38 36  1  0  0  0  0
 39 40  2  0  0  0  0
 40 41  1  0  0  0  0
 40 38  1  0  0  0  0
M  END
>  <MODEL>
5

>  <REMARK>
 VINA RESULT:      -8.1      3.048      8.228
  Name = 
  10 active torsions:
  status: ('A' for Active; 'I' for Inactive)
    1  A    between atoms: C_3  and  C_4
    2  A    between atoms: C_3  and  C_28
    3  A    between atoms: C_7  and  C_28
    4  A    between atoms: C_7  and  O_40
    5  A    between atoms: C_10  and  C_39
    6  A    between atoms: C_20  and  C_33
    7  A    between atoms: CA_21  and  C_36
    8  A    between atoms: C_22  and  C_30
    9  A    between atoms: C_25  and  C_35
   10  A    between atoms: C_27  and  O_40
                            x       y       z     vdW  Elec       q    Type
                         _______ _______ _______ _____ _____    ______ ____

>  <TORSDO>
F 10

$$$$
=
 OpenBabel10232410163D

 41 46  0  0  1  0  0  0  0  0999 V2000
  190.1130  177.1020  144.7680 C   0  0  0  0  0  3  0  0  0  0  0  0
  186.5970  178.5250  141.1650 C   0  0  0  0  0  0  0  0  0  0  0  0
  188.8960  177.7820  141.4310 C   0  0  0  0  0  0  0  0  0  0  0  0
  188.6000  177.2940  142.7300 C   0  0  0  0  0  0  0  0  0  0  0  0
  189.6960  176.7010  143.4620 N   0  0  0  0  0  2  0  0  0  0  0  0
  187.0150  177.0940  145.6590 N   0  0  0  0  0  0  0  0  0  0  0  0
  189.2200  177.6270  145.5290 C   0  0  0  0  0  0  0  0  0  0  0  0
  185.4820  179.0830  140.3500 C   0  0  0  0  0  1  0  0  0  0  0  0
  187.2660  177.4420  143.2440 C   0  0  0  0  0  0  0  0  0  0  0  0
  187.8950  178.3920  140.6490 C   0  0  0  0  0  0  0  0  0  0  0  0
  186.7320  176.8230  144.4390 N   0  0  0  0  0  0  0  0  0  0  0  0
  188.0950  177.9270  146.0760 C   0  0  0  0  0  0  0  0  0  0  0  0
  186.3020  178.0390  142.4320 C   0  0  0  0  0  3  0  0  0  0  0  0
  189.2410  178.0380  148.2460 C   0  0  0  0  0  2  0  0  0  0  0  0
  188.0660  178.5490  147.4340 C   0  0  0  0  0  3  0  0  0  0  0  0
  187.8570  177.4840  148.4960 C   0  0  0  0  0  2  0  0  0  0  0  0
  190.2910  176.6020  139.7740 C   0  0  1  0  0  3  0  0  0  0  0  0
  190.7510  176.2960  141.0630 O   0  0  0  0  0  0  0  0  0  0  0  0
  190.2860  177.6130  140.8610 C   0  0  2  0  0  3  0  0  0  0  0  0
  191.4580  176.8360  138.8800 C   0  0  0  0  0  3  0  0  0  0  0  0
  191.8300  175.8990  138.0110 C   0  0  0  0  0  3  0  0  0  0  0  0
  194.9860  174.6300  136.6270 O   0  0  0  0  0  0  0  0  0  0  0  0
  194.5040  174.3010  135.3700 N   0  0  0  0  0  2  0  0  0  0  0  0
  192.5910  175.7500  135.6770 C   0  0  0  0  0  2  0  0  0  0  0  0
  194.2130  175.3340  137.5570 C   0  0  0  0  0  0  0  0  0  0  0  0
  193.0010  176.1120  137.1040 C   0  0  2  0  0  3  0  0  0  0  0  0
  193.8090  175.4580  134.8140 C   0  0  0  0  0  2  0  0  0  0  0  0
  194.6070  175.4130  138.7510 O   0  0  0  0  0  0  0  0  0  0  0  0
  188.2000  178.8180  139.3480 O   0  0  0  0  0  0  0  0  0  0  0  0
  187.5660  178.3310  138.2010 C   0  0  0  0  0  0  0  0  0  0  0  0
  187.0680  179.1170  137.3500 O   0  0  0  0  0  0  0  0  0  0  0  0
  187.4820  176.8640  137.9820 C   0  0  0  0  0  2  0  0  0  0  0  0
  186.5580  176.5740  136.8130 C   0  0  0  0  0  2  0  0  0  0  0  0
  185.3000  175.9320  137.2890 C   0  0  0  0  0  0  0  0  0  0  0  0
  185.0380  174.6380  137.2130 C   0  0  0  0  0  3  0  0  0  0  0  0
  184.1380  176.6620  137.8600 C   0  0  0  0  0  2  0  0  0  0  0  0
  183.7370  174.3760  137.7210 N   0  0  0  0  0  0  0  0  0  0  0  0
  183.2260  175.5050  138.0860 C   0  0  0  0  0  0  0  0  0  0  0  0
  180.9860  174.7870  138.3560 O   0  0  0  0  0  0  0  0  0  0  0  0
  181.8830  175.6170  138.6630 C   0  0  0  0  0  0  0  0  0  0  0  0
  181.5920  176.6420  139.5530 O   0  0  0  0  0  1  0  0  0  0  0  0
  1  7  2  0  0  0  0
  2 13  1  0  0  0  0
  3  4  2  0  0  0  0
  4  9  1  0  0  0  0
  4  5  1  0  0  0  0
  5  1  1  0  0  0  0
  6 12  1  0  0  0  0
  7 12  2  0  0  0  0
  8  2  1  0  0  0  0
  9 11  1  0  0  0  0
 10  2  2  0  0  0  0
 10  3  1  0  0  0  0
 11  6  2  0  0  0  0
 12 15  1  0  0  0  0
 13  9  2  0  0  0  0
 14 16  1  0  0  0  0
 15 14  1  0  0  0  0
 15 16  1  0  0  0  0
 17 20  1  6  0  0  0
 17 19  1  0  0  0  0
 17 18  1  0  0  0  0
 19 18  1  0  0  0  0
 19  3  1  1  0  0  0
 21 20  2  0  0  0  0
 22 25  1  0  0  0  0
 23 22  1  0  0  0  0
 24 26  1  0  0  0  0
 25 28  2  0  0  0  0
 26 25  1  0  0  0  0
 26 21  1  1  0  0  0
 27 23  1  0  0  0  0
 27 24  1  0  0  0  0
 29 10  1  0  0  0  0
 30 29  1  0  0  0  0
 31 30  2  0  0  0  0
 32 30  1  0  0  0  0
 33 34  1  0  0  0  0
 33 32  1  0  0  0  0
 34 36  1  0  0  0  0
 35 34  2  0  0  0  0
 35 37  1  0  0  0  0
 36 38  1  0  0  0  0
 37 38  2  0  0  0  0
 38 40  1  0  0  0  0
 39 40  2  0  0  0  0
 40 41  1  0  0  0  0
M  END
>  <MODEL>
6

>  <REMARK>
 VINA RESULT:      -8.0      3.120      7.530
  Name = 
  10 active torsions:
  status: ('A' for Active; 'I' for Inactive)
    1  A    between atoms: C_3  and  C_4
    2  A    between atoms: C_3  and  C_28
    3  A    between atoms: C_7  and  C_28
    4  A    between atoms: C_7  and  O_40
    5  A    between atoms: C_10  and  C_39
    6  A    between atoms: C_20  and  C_33
    7  A    between atoms: CA_21  and  C_36
    8  A    between atoms: C_22  and  C_30
    9  A    between atoms: C_25  and  C_35
   10  A    between atoms: C_27  and  O_40
                            x       y       z     vdW  Elec       q    Type
                         _______ _______ _______ _____ _____    ______ ____

>  <TORSDO>
F 10

$$$$
=
 OpenBabel10232410163D

 41 46  0  0  1  0  0  0  0  0999 V2000
  190.3540  176.5690  139.2970 C   0  0  0  0  0  3  0  0  0  0  0  0
  185.5910  178.6740  138.7900 C   0  0  0  0  0  0  0  0  0  0  0  0
  187.4280  178.4100  140.3610 C   0  0  0  0  0  0  0  0  0  0  0  0
  188.3060  178.0820  139.2960 C   0  0  0  0  0  0  0  0  0  0  0  0
  189.6700  177.7710  139.6570 N   0  0  0  0  0  2  0  0  0  0  0  0
  189.2230  176.9330  136.3000 N   0  0  0  0  0  0  0  0  0  0  0  0
  189.9660  175.9780  138.2240 C   0  0  0  0  0  0  0  0  0  0  0  0
  184.1930  179.0660  138.4570 C   0  0  0  0  0  1  0  0  0  0  0  0
  187.7930  178.0470  137.9540 C   0  0  0  0  0  0  0  0  0  0  0  0
  186.0740  178.7100  140.1070 C   0  0  0  0  0  0  0  0  0  0  0  0
  188.5740  177.9480  136.7380 N   0  0  0  0  0  0  0  0  0  0  0  0
  189.4830  175.7500  137.0530 C   0  0  0  0  0  0  0  0  0  0  0  0
  186.4510  178.3640  137.7450 C   0  0  0  0  0  3  0  0  0  0  0  0
  191.0850  173.8910  136.9310 C   0  0  0  0  0  2  0  0  0  0  0  0
  189.8180  174.4800  136.3410 C   0  0  0  0  0  3  0  0  0  0  0  0
  191.1410  174.6200  135.6080 C   0  0  0  0  0  2  0  0  0  0  0  0
  188.5910  177.1940  142.1640 C   0  0  1  0  0  3  0  0  0  0  0  0
  187.2990  177.5300  142.5950 O   0  0  0  0  0  0  0  0  0  0  0  0
  187.9520  178.4770  141.7770 C   0  0  2  0  0  3  0  0  0  0  0  0
  189.5550  177.4310  143.2730 C   0  0  0  0  0  3  0  0  0  0  0  0
  190.4120  176.4760  143.6270 C   0  0  0  0  0  3  0  0  0  0  0  0
  191.0020  176.9650  147.2180 O   0  0  0  0  0  0  0  0  0  0  0  0
  191.4940  175.6970  147.4870 N   0  0  0  0  0  2  0  0  0  0  0  0
  191.9820  175.3430  145.1430 C   0  0  0  0  0  2  0  0  0  0  0  0
  190.7560  177.4040  145.9130 C   0  0  0  0  0  0  0  0  0  0  0  0
  191.3880  176.6930  144.7400 C   0  0  2  0  0  3  0  0  0  0  0  0
  192.5690  175.4000  146.5450 C   0  0  0  0  0  2  0  0  0  0  0  0
  190.1070  178.4680  145.7330 O   0  0  0  0  0  0  0  0  0  0  0  0
  185.2390  179.0820  141.1710 O   0  0  0  0  0  0  0  0  0  0  0  0
  184.2620  178.2460  141.7220 C   0  0  0  0  0  0  0  0  0  0  0  0
  183.7070  177.3510  141.0270 O   0  0  0  0  0  0  0  0  0  0  0  0
  183.8780  178.4130  143.1470 C   0  0  0  0  0  2  0  0  0  0  0  0
  184.7870  179.4350  143.8040 C   0  0  0  0  0  2  0  0  0  0  0  0
  185.2410  178.9470  145.1380 C   0  0  0  0  0  0  0  0  0  0  0  0
  184.4570  178.7890  146.1900 C   0  0  0  0  0  2  0  0  0  0  0  0
  186.6490  178.6290  145.4900 C   0  0  0  0  0  3  0  0  0  0  0  0
  185.2220  178.3480  147.3040 N   0  0  0  0  0  0  0  0  0  0  0  0
  186.4520  178.2550  146.9200 C   0  0  0  0  0  0  0  0  0  0  0  0
  187.8580  176.6100  147.8790 O   0  0  0  0  0  0  0  0  0  0  0  0
  187.5310  177.8240  147.8140 C   0  0  0  0  0  0  0  0  0  0  0  0
  188.2000  178.7570  148.5960 O   0  0  0  0  0  1  0  0  0  0  0  0
  1  5  1  0  0  0  0
  2 10  1  0  0  0  0
  4  5  1  0  0  0  0
  4  3  1  0  0  0  0
  6 11  2  0  0  0  0
  6 12  1  0  0  0  0
  7  1  2  0  0  0  0
  8  2  1  0  0  0  0
  9  4  2  0  0  0  0
 10  3  2  0  0  0  0
 10 29  1  0  0  0  0
 11  9  1  0  0  0  0
 12  7  2  0  0  0  0
 13  9  1  0  0  0  0
 13  2  2  0  0  0  0
 15 14  1  0  0  0  0
 15 12  1  0  0  0  0
 16 15  1  0  0  0  0
 16 14  1  0  0  0  0
 17 18  1  0  0  0  0
 17 20  1  1  0  0  0
 19  3  1  6  0  0  0
 19 17  1  0  0  0  0
 19 18  1  0  0  0  0
 20 21  2  0  0  0  0
 22 23  1  0  0  0  0
 24 27  1  0  0  0  0
 25 22  1  0  0  0  0
 26 21  1  6  0  0  0
 26 24  1  0  0  0  0
 26 25  1  0  0  0  0
 27 23  1  0  0  0  0
 28 25  2  0  0  0  0
 29 30  1  0  0  0  0
 30 32  1  0  0  0  0
 31 30  2  0  0  0  0
 32 33  1  0  0  0  0
 33 34  1  0  0  0  0
 34 36  2  0  0  0  0
 34 35  1  0  0  0  0
 35 37  1  0  0  0  0
 36 38  1  0  0  0  0
 38 37  2  0  0  0  0
 38 40  1  0  0  0  0
 40 39  2  0  0  0  0
 40 41  1  0  0  0  0
M  END
>  <MODEL>
7

>  <REMARK>
 VINA RESULT:      -7.9      4.030      6.726
  Name = 
  10 active torsions:
  status: ('A' for Active; 'I' for Inactive)
    1  A    between atoms: C_3  and  C_4
    2  A    between atoms: C_3  and  C_28
    3  A    between atoms: C_7  and  C_28
    4  A    between atoms: C_7  and  O_40
    5  A    between atoms: C_10  and  C_39
    6  A    between atoms: C_20  and  C_33
    7  A    between atoms: CA_21  and  C_36
    8  A    between atoms: C_22  and  C_30
    9  A    between atoms: C_25  and  C_35
   10  A    between atoms: C_27  and  O_40
                            x       y       z     vdW  Elec       q    Type
                         _______ _______ _______ _____ _____    ______ ____

>  <TORSDO>
F 10

$$$$
=
 OpenBabel10232410163D

 41 46  0  0  1  0  0  0  0  0999 V2000
  193.3480  175.9850  138.4440 C   0  0  0  0  0  3  0  0  0  0  0  0
  188.5780  176.0380  136.2970 C   0  0  0  0  0  0  0  0  0  0  0  0
  189.8610  176.9040  138.1710 C   0  0  0  0  0  0  0  0  0  0  0  0
  191.0710  176.6110  137.4920 C   0  0  0  0  0  0  0  0  0  0  0  0
  192.2960  176.9190  138.1940 N   0  0  0  0  0  2  0  0  0  0  0  0
  193.1130  175.0400  135.3710 N   0  0  0  0  0  0  0  0  0  0  0  0
  193.4710  175.0110  137.6150 C   0  0  0  0  0  0  0  0  0  0  0  0
  187.2920  175.7980  135.5830 C   0  0  0  0  0  1  0  0  0  0  0  0
  191.0130  176.0100  136.1880 C   0  0  0  0  0  0  0  0  0  0  0  0
  188.6160  176.6210  137.5720 C   0  0  0  0  0  0  0  0  0  0  0  0
  192.1190  175.8420  135.2680 N   0  0  0  0  0  0  0  0  0  0  0  0
  193.4390  174.2970  136.5450 C   0  0  0  0  0  0  0  0  0  0  0  0
  189.7610  175.7600  135.6260 C   0  0  0  0  0  3  0  0  0  0  0  0
  194.1280  172.4720  135.0520 C   0  0  0  0  0  2  0  0  0  0  0  0
  194.2940  173.0790  136.4330 C   0  0  0  0  0  3  0  0  0  0  0  0
  193.4310  171.8440  136.2380 C   0  0  0  0  0  2  0  0  0  0  0  0
  189.8980  176.5390  140.6100 C   0  0  1  0  0  3  0  0  0  0  0  0
  188.7370  177.2480  140.2690 O   0  0  0  0  0  0  0  0  0  0  0  0
  189.8990  177.5600  139.5320 C   0  0  2  0  0  3  0  0  0  0  0  0
  190.4800  177.1200  141.8500 C   0  0  0  0  0  3  0  0  0  0  0  0
  190.0850  176.6800  143.0420 C   0  0  0  0  0  3  0  0  0  0  0  0
  189.6990  177.3420  146.6340 O   0  0  0  0  0  0  0  0  0  0  0  0
  190.5690  176.3610  147.0850 N   0  0  0  0  0  2  0  0  0  0  0  0
  191.6210  176.2350  144.9090 C   0  0  0  0  0  2  0  0  0  0  0  0
  189.5770  177.6580  145.2760 C   0  0  0  0  0  0  0  0  0  0  0  0
  190.6560  177.2520  144.3010 C   0  0  2  0  0  3  0  0  0  0  0  0
  191.8440  176.5070  146.3900 C   0  0  0  0  0  2  0  0  0  0  0  0
  188.6240  178.3890  144.8970 O   0  0  0  0  0  0  0  0  0  0  0  0
  187.4340  176.9690  138.2420 O   0  0  0  0  0  0  0  0  0  0  0  0
  186.6160  178.0400  137.8700 C   0  0  0  0  0  0  0  0  0  0  0  0
  187.1040  179.0770  137.3430 O   0  0  0  0  0  0  0  0  0  0  0  0
  185.1500  177.9520  138.0960 C   0  0  0  0  0  2  0  0  0  0  0  0
  184.6590  179.2240  138.7620 C   0  0  0  0  0  2  0  0  0  0  0  0
  184.2530  178.9520  140.1700 C   0  0  0  0  0  0  0  0  0  0  0  0
  183.0510  178.5460  140.5440 C   0  0  0  0  0  3  0  0  0  0  0  0
  185.1210  179.1570  141.3580 C   0  0  0  0  0  2  0  0  0  0  0  0
  182.9980  178.4240  141.9580 N   0  0  0  0  0  0  0  0  0  0  0  0
  184.1550  178.7640  142.4230 C   0  0  0  0  0  0  0  0  0  0  0  0
  185.3830  178.0190  144.3050 O   0  0  0  0  0  0  0  0  0  0  0  0
  184.4660  178.7570  143.8550 C   0  0  0  0  0  0  0  0  0  0  0  0
  183.7490  179.5680  144.7260 O   0  0  0  0  0  1  0  0  0  0  0  0
  2 10  1  0  0  0  0
  4  3  1  0  0  0  0
  4  5  1  0  0  0  0
  5  1  1  0  0  0  0
  6 12  1  0  0  0  0
  7  1  2  0  0  0  0
  8  2  1  0  0  0  0
  9  4  2  0  0  0  0
 10  3  2  0  0  0  0
 10 29  1  0  0  0  0
 11  6  2  0  0  0  0
 11  9  1  0  0  0  0
 12  7  2  0  0  0  0
 13  9  1  0  0  0  0
 13  2  2  0  0  0  0
 14 16  1  0  0  0  0
 14 15  1  0  0  0  0
 15 12  1  0  0  0  0
 16 15  1  0  0  0  0
 17 20  1  1  0  0  0
 18 17  1  0  0  0  0
 19  3  1  6  0  0  0
 19 18  1  0  0  0  0
 19 17  1  0  0  0  0
 20 21  2  0  0  0  0
 22 23  1  0  0  0  0
 24 27  1  0  0  0  0
 25 22  1  0  0  0  0
 26 21  1  6  0  0  0
 26 24  1  0  0  0  0
 26 25  1  0  0  0  0
 27 23  1  0  0  0  0
 28 25  2  0  0  0  0
 30 32  1  0  0  0  0
 30 29  1  0  0  0  0
 31 30  2  0  0  0  0
 32 33  1  0  0  0  0
 33 34  1  0  0  0  0
 34 35  2  0  0  0  0
 34 36  1  0  0  0  0
 35 37  1  0  0  0  0
 36 38  1  0  0  0  0
 37 38  2  0  0  0  0
 38 40  1  0  0  0  0
 40 39  2  0  0  0  0
 40 41  1  0  0  0  0
M  END
>  <MODEL>
8

>  <REMARK>
 VINA RESULT:      -7.9      3.187      7.887
  Name = 
  10 active torsions:
  status: ('A' for Active; 'I' for Inactive)
    1  A    between atoms: C_3  and  C_4
    2  A    between atoms: C_3  and  C_28
    3  A    between atoms: C_7  and  C_28
    4  A    between atoms: C_7  and  O_40
    5  A    between atoms: C_10  and  C_39
    6  A    between atoms: C_20  and  C_33
    7  A    between atoms: CA_21  and  C_36
    8  A    between atoms: C_22  and  C_30
    9  A    between atoms: C_25  and  C_35
   10  A    between atoms: C_27  and  O_40
                            x       y       z     vdW  Elec       q    Type
                         _______ _______ _______ _____ _____    ______ ____

>  <TORSDO>
F 10

$$$$
=
 OpenBabel10232410163D

 41 46  0  0  1  0  0  0  0  0999 V2000
  188.1670  177.5440  145.7490 C   0  0  0  0  0  3  0  0  0  0  0  0
  190.5380  177.2820  141.0920 C   0  0  0  0  0  0  0  0  0  0  0  0
  188.3710  177.6290  142.1390 C   0  0  0  0  0  0  0  0  0  0  0  0
  189.0030  177.9250  143.3750 C   0  0  0  0  0  0  0  0  0  0  0  0
  188.1330  178.2180  144.4900 N   0  0  0  0  0  2  0  0  0  0  0  0
  191.3770  177.8460  145.7190 N   0  0  0  0  0  0  0  0  0  0  0  0
  189.2910  177.0310  146.1040 C   0  0  0  0  0  0  0  0  0  0  0  0
  191.3980  177.0390  139.9010 C   0  0  0  0  0  1  0  0  0  0  0  0
  190.4380  177.8850  143.4530 C   0  0  0  0  0  0  0  0  0  0  0  0
  189.1390  177.3130  140.9990 C   0  0  0  0  0  0  0  0  0  0  0  0
  191.2520  178.3610  144.5510 N   0  0  0  0  0  0  0  0  0  0  0  0
  190.5510  176.8060  146.2390 C   0  0  0  0  0  0  0  0  0  0  0  0
  191.1590  177.5820  142.2980 C   0  0  0  0  0  3  0  0  0  0  0  0
  192.3560  176.5380  147.8840 C   0  0  0  0  0  2  0  0  0  0  0  0
  191.0440  175.9720  147.3760 C   0  0  0  0  0  3  0  0  0  0  0  0
  192.3580  175.3050  147.0100 C   0  0  0  0  0  2  0  0  0  0  0  0
  186.4340  178.9620  141.3960 C   0  0  1  0  0  3  0  0  0  0  0  0
  186.3540  178.7680  142.7830 O   0  0  0  0  0  0  0  0  0  0  0  0
  186.8650  177.6910  142.0290 C   0  0  2  0  0  3  0  0  0  0  0  0
  185.0820  178.7900  140.7980 C   0  0  0  0  0  3  0  0  0  0  0  0
  184.8580  179.1590  139.5390 C   0  0  0  0  0  3  0  0  0  0  0  0
  182.2200  176.9060  138.3340 O   0  0  0  0  0  0  0  0  0  0  0  0
  181.3410  177.0880  139.3900 N   0  0  0  0  0  2  0  0  0  0  0  0
  182.4440  179.1520  140.0080 C   0  0  0  0  0  2  0  0  0  0  0  0
  183.3760  177.6810  138.1880 C   0  0  0  0  0  0  0  0  0  0  0  0
  183.5060  178.9960  138.9190 C   0  0  2  0  0  3  0  0  0  0  0  0
  181.1270  178.5190  139.5830 C   0  0  0  0  0  2  0  0  0  0  0  0
  184.2490  177.3340  137.3490 O   0  0  0  0  0  0  0  0  0  0  0  0
  188.4920  177.0770  139.7770 O   0  0  0  0  0  0  0  0  0  0  0  0
  188.4190  178.0150  138.7430 C   0  0  0  0  0  0  0  0  0  0  0  0
  188.9260  179.1630  138.8700 O   0  0  0  0  0  0  0  0  0  0  0  0
  187.7360  177.6500  137.4740 C   0  0  0  0  0  2  0  0  0  0  0  0
  187.8830  176.1600  137.2260 C   0  0  0  0  0  2  0  0  0  0  0  0
  189.2740  175.8380  136.7980 C   0  0  0  0  0  0  0  0  0  0  0  0
  189.9210  176.4430  135.8170 C   0  0  0  0  0  3  0  0  0  0  0  0
  190.1070  174.7490  137.3710 C   0  0  0  0  0  2  0  0  0  0  0  0
  191.2060  175.8620  135.6510 N   0  0  0  0  0  0  0  0  0  0  0  0
  191.3190  174.9110  136.5200 C   0  0  0  0  0  0  0  0  0  0  0  0
  192.7920  173.2170  135.7680 O   0  0  0  0  0  0  0  0  0  0  0  0
  192.5250  174.0870  136.6390 C   0  0  0  0  0  0  0  0  0  0  0  0
  193.3830  174.2620  137.7180 O   0  0  0  0  0  1  0  0  0  0  0  0
  1  7  2  0  0  0  0
  2 13  1  0  0  0  0
  3  4  2  0  0  0  0
  4  9  1  0  0  0  0
  4  5  1  0  0  0  0
  5  1  1  0  0  0  0
  6 12  1  0  0  0  0
  7 12  2  0  0  0  0
  8  2  1  0  0  0  0
  9 11  1  0  0  0  0
 10  2  2  0  0  0  0
 10  3  1  0  0  0  0
 11  6  2  0  0  0  0
 12 15  1  0  0  0  0
 13  9  2  0  0  0  0
 15 14  1  0  0  0  0
 16 15  1  0  0  0  0
 16 14  1  0  0  0  0
 17 20  1  6  0  0  0
 17 19  1  0  0  0  0
 17 18  1  0  0  0  0
 19  3  1  1  0  0  0
 19 18  1  0  0  0  0
 21 20  2  0  0  0  0
 22 23  1  0  0  0  0
 23 27  1  0  0  0  0
 25 22  1  0  0  0  0
 25 26  1  0  0  0  0
 26 21  1  1  0  0  0
 26 24  1  0  0  0  0
 27 24  1  0  0  0  0
 28 25  2  0  0  0  0
 29 10  1  0  0  0  0
 30 31  2  0  0  0  0
 30 29  1  0  0  0  0
 32 30  1  0  0  0  0
 33 32  1  0  0  0  0
 34 33  1  0  0  0  0
 34 36  1  0  0  0  0
 35 34  2  0  0  0  0
 37 35  1  0  0  0  0
 37 38  2  0  0  0  0
 38 40  1  0  0  0  0
 38 36  1  0  0  0  0
 39 40  2  0  0  0  0
 40 41  1  0  0  0  0
M  END
>  <MODEL>
9

>  <REMARK>
 VINA RESULT:      -7.8      3.056     10.025
  Name = 
  10 active torsions:
  status: ('A' for Active; 'I' for Inactive)
    1  A    between atoms: C_3  and  C_4
    2  A    between atoms: C_3  and  C_28
    3  A    between atoms: C_7  and  C_28
    4  A    between atoms: C_7  and  O_40
    5  A    between atoms: C_10  and  C_39
    6  A    between atoms: C_20  and  C_33
    7  A    between atoms: CA_21  and  C_36
    8  A    between atoms: C_22  and  C_30
    9  A    between atoms: C_25  and  C_35
   10  A    between atoms: C_27  and  O_40
                            x       y       z     vdW  Elec       q    Type
                         _______ _______ _______ _____ _____    ______ ____

>  <TORSDO>
F 10

$$$$
