=
 OpenBabel10232409053D

 57 64  0  0  1  0  0  0  0  0999 V2000
  191.9320  176.9090  136.9490 O   0  0  0  0  0  0  0  0  0  0  0  0
  188.2670  177.3450  134.3460 C   0  0  0  0  0  1  0  0  0  0  0  0
  188.0140  175.4630  135.9640 C   0  0  1  0  0  3  0  0  0  0  0  0
  188.8620  174.8020  137.0480 C   0  0  0  0  0  2  0  0  0  0  0  0
  190.6930  173.8940  134.7690 O   0  0  0  0  0  0  0  0  0  0  0  0
  193.6080  174.6420  135.3080 C   0  0  2  0  0  0  0  0  0  0  0  0
  190.6480  175.1410  138.6270 O   0  0  0  0  0  0  0  0  0  0  0  0
  191.7340  174.6140  137.9150 C   0  0  0  0  0  2  0  0  0  0  0  0
  192.6140  175.7760  137.4690 C   0  0  1  0  0  3  0  0  0  0  0  0
  188.8680  176.0370  134.8250 C   0  0  2  0  0  3  0  0  0  0  0  0
  193.8410  175.3840  136.6370 C   0  0  0  0  0  2  0  0  0  0  0  0
  190.3540  176.2380  135.1750 C   0  0  1  0  0  3  0  0  0  0  0  0
  192.5490  175.2460  134.5490 O   0  0  0  0  0  0  0  0  0  0  0  0
  190.5720  176.6430  136.6480 C   0  0  1  0  0  3  0  0  0  0  0  0
  189.7780  175.8260  137.7390 C   0  0  1  0  0  0  0  0  0  0  0  0
  191.1900  175.0530  134.8000 C   0  0  0  0  0  0  0  0  0  0  0  0
  193.3200  173.1750  135.6000 C   0  0  0  0  0  1  0  0  0  0  0  0
  187.5990  177.2620  137.9830 C   0  0  2  0  0  3  0  0  0  0  0  0
  188.4290  178.0020  140.6730 C   0  0  0  0  0  3  0  0  0  0  0  0
  189.2670  177.1180  139.8490 C   0  0  0  0  0  0  0  0  0  0  0  0
  186.7980  178.2440  138.8360 C   0  0  1  0  0  0  0  0  0  0  0  0
  188.9060  176.7660  138.5850 C   0  0  0  0  0  0  0  0  0  0  0  0
  190.5320  176.6440  140.4840 C   0  0  0  0  0  1  0  0  0  0  0  0
  187.2960  178.5260  140.2200 C   0  0  0  0  0  3  0  0  0  0  0  0
  187.6870  178.7670  137.7230 C   0  0  0  0  0  2  0  0  0  0  0  0
  185.3190  178.3310  138.5540 C   0  0  0  0  0  0  0  0  0  0  0  0
  184.7690  179.4190  138.5370 O   0  0  0  0  0  0  0  0  0  0  0  0
  184.4950  177.1070  138.3170 C   0  0  0  0  0  1  0  0  0  0  0  0
  187.0990  174.5370  135.4510 O   0  0  0  0  0  0  0  0  0  0  0  0
  184.9750  175.5690  135.0870 C   0  0  0  0  0  1  0  0  0  0  0  0
  185.8780  174.8370  136.0700 C   0  0  1  0  0  3  0  0  0  0  0  0
  185.2210  173.5620  136.6050 C   0  0  1  0  0  3  0  0  0  0  0  0
  185.6490  173.3060  137.9090 O   0  0  0  0  0  1  0  0  0  0  0  0
  183.7630  173.6590  136.5690 N   0  0  0  0  0  2  0  0  0  0  0  0
  184.3450  171.4180  135.7140 C   0  0  2  0  0  3  0  0  0  0  0  0
  183.9430  169.9490  135.9650 C   0  0  0  0  0  2  0  0  0  0  0  0
  181.5520  169.9140  135.2010 C   0  0  0  0  0  3  0  0  0  0  0  0
  182.0110  171.8080  136.7830 C   0  0  0  0  0  2  0  0  0  0  0  0
  183.2300  172.4020  136.0530 C   0  0  1  0  0  0  0  0  0  0  0  0
  181.1280  170.9560  135.9210 C   0  0  0  0  0  3  0  0  0  0  0  0
  182.8840  169.4780  135.1300 O   0  0  0  0  0  0  0  0  0  0  0  0
  183.5510  172.0970  134.5980 C   0  0  0  0  0  2  0  0  0  0  0  0
  194.8570  174.6820  134.5370 N   0  0  0  0  0  2  0  0  0  0  0  0
  196.5860  176.1790  134.5730 C   0  0  0  0  0  1  0  0  0  0  0  0
  195.9130  175.1450  135.3430 N   0  0  0  0  0  0  0  0  0  0  0  0
  196.8560  174.0420  135.4980 C   0  0  0  0  0  2  0  0  0  0  0  0
  197.4800  173.9990  136.9130 C   0  0  2  0  0  0  0  0  0  0  0  0
  198.9830  174.2920  136.8480 C   0  0  0  0  0  1  0  0  0  0  0  0
  198.0970  171.4630  136.6950 C   0  0  2  0  0  0  0  0  0  0  0  0
  195.9060  170.6560  137.2860 O   0  0  0  0  0  1  0  0  0  0  0  0
  196.5900  171.6010  136.5230 C   0  0  1  0  0  3  0  0  0  0  0  0
  198.5080  170.3830  137.4810 O   0  0  0  0  0  1  0  0  0  0  0  0
  197.3520  172.5540  137.4560 C   0  0  2  0  0  3  0  0  0  0  0  0
  198.9160  171.7720  135.4820 C   0  0  0  0  0  3  0  0  0  0  0  0
  199.6060  170.9070  134.9720 O   0  0  0  0  0  0  0  0  0  0  0  0
  196.4330  174.2850  138.9680 C   0  0  0  0  0  1  0  0  0  0  0  0
  196.8360  174.9250  137.7800 O   0  0  0  0  0  0  0  0  0  0  0  0
  1  9  1  0  0  0  0
  3 29  1  6  0  0  0
  3  4  1  0  0  0  0
  4 15  1  0  0  0  0
  5 16  2  0  0  0  0
  6 17  1  1  0  0  0
  6 11  1  0  0  0  0
  8  7  1  0  0  0  0
  9 11  1  6  0  0  0
  9  8  1  0  0  0  0
 10  2  1  1  0  0  0
 10 12  1  0  0  0  0
 10  3  1  0  0  0  0
 12 16  1  1  0  0  0
 12 14  1  0  0  0  0
 13 16  1  0  0  0  0
 13  6  1  0  0  0  0
 14  1  1  1  0  0  0
 14 15  1  0  0  0  0
 15 22  1  1  0  0  0
 15  7  1  0  0  0  0
 18 25  1  6  0  0  0
 18 22  1  0  0  0  0
 18 21  1  0  0  0  0
 20 23  1  0  0  0  0
 20 19  1  0  0  0  0
 21 26  1  6  0  0  0
 21 24  1  0  0  0  0
 22 20  2  0  0  0  0
 24 19  2  0  0  0  0
 25 21  1  0  0  0  0
 27 26  2  0  0  0  0
 28 26  1  0  0  0  0
 29 31  1  0  0  0  0
 31 30  1  6  0  0  0
 31 32  1  0  0  0  0
 32 33  1  1  0  0  0
 34 32  1  0  0  0  0
 35 42  1  6  0  0  0
 35 36  1  0  0  0  0
 35 39  1  0  0  0  0
 37 40  2  0  0  0  0
 39 34  1  1  0  0  0
 39 38  1  0  0  0  0
 40 38  1  0  0  0  0
 41 37  1  0  0  0  0
 41 36  1  0  0  0  0
 42 39  1  0  0  0  0
 43  6  1  0  0  0  0
 43 45  1  0  0  0  0
 44 45  1  0  0  0  0
 45 46  1  0  0  0  0
 46 47  1  0  0  0  0
 47 48  1  6  0  0  0
 47 57  1  0  0  0  0
 49 53  1  0  0  0  0
 49 52  1  1  0  0  0
 51 49  1  0  0  0  0
 51 50  1  1  0  0  0
 51 53  1  0  0  0  0
 53 47  1  6  0  0  0
 54 49  1  0  0  0  0
 55 54  2  0  0  0  0
 57 56  1  0  0  0  0
M  END
>  <MODEL>
1

>  <REMARK>
 VINA RESULT:      -5.7      0.000      0.000
  Name = 
  14 active torsions:
  status: ('A' for Active; 'I' for Inactive)
    1  A    between atoms: C_1  and  C_10
    2  A    between atoms: C_8  and  O_46
    3  A    between atoms: N_9  and  C_16
    4  A    between atoms: N_9  and  C_33
    5  A    between atoms: C_16  and  C_43
    6  A    between atoms: C_18  and  N_35
    7  A    between atoms: C_18  and  C_54
    8  A    between atoms: C_19  and  N_49
    9  A    between atoms: C_25  and  C_42
   10  A    between atoms: O_28  and  C_54
   11  A    between atoms: C_29  and  C_54
   12  A    between atoms: N_35  and  N_49
   13  A    between atoms: C_37  and  C_45
   14  A    between atoms: C_43  and  O_46
                            x       y       z     vdW  Elec       q    Type
                         _______ _______ _______ _____ _____    ______ ____

>  <TORSDO>
F 14

$$$$
=
 OpenBabel10232409053D

 57 64  0  0  1  0  0  0  0  0999 V2000
  191.4820  177.1980  136.8540 O   0  0  0  0  0  0  0  0  0  0  0  0
  187.7330  177.4430  134.3470 C   0  0  0  0  0  1  0  0  0  0  0  0
  187.6260  175.5420  135.9590 C   0  0  1  0  0  3  0  0  0  0  0  0
  188.5360  174.9240  137.0170 C   0  0  0  0  0  2  0  0  0  0  0  0
  190.3560  174.1290  134.6870 O   0  0  0  0  0  0  0  0  0  0  0  0
  193.2390  175.0350  135.1570 C   0  0  2  0  0  0  0  0  0  0  0  0
  190.3420  175.3540  138.5520 O   0  0  0  0  0  0  0  0  0  0  0  0
  191.4360  174.8910  137.8100 C   0  0  0  0  0  2  0  0  0  0  0  0
  192.2390  176.1020  137.3480 C   0  0  1  0  0  3  0  0  0  0  0  0
  188.4180  176.1680  134.8020 C   0  0  2  0  0  3  0  0  0  0  0  0
  193.4640  175.7830  136.4840 C   0  0  0  0  0  2  0  0  0  0  0  0
  189.8990  176.4490  135.1160 C   0  0  1  0  0  3  0  0  0  0  0  0
  192.1290  175.5830  134.4290 O   0  0  0  0  0  0  0  0  0  0  0  0
  190.1320  176.8590  136.5850 C   0  0  1  0  0  3  0  0  0  0  0  0
  189.4130  175.9940  137.6910 C   0  0  1  0  0  0  0  0  0  0  0  0
  190.7890  175.3140  134.7130 C   0  0  0  0  0  0  0  0  0  0  0  0
  193.0390  173.5530  135.4470 C   0  0  0  0  0  1  0  0  0  0  0  0
  187.0920  177.1460  138.0860 C   0  0  2  0  0  3  0  0  0  0  0  0
  188.0910  178.2180  140.6020 C   0  0  0  0  0  3  0  0  0  0  0  0
  188.9520  177.3840  139.7500 C   0  0  0  0  0  0  0  0  0  0  0  0
  186.2560  178.0850  138.9550 C   0  0  1  0  0  0  0  0  0  0  0  0
  188.5120  176.8800  138.5640 C   0  0  0  0  0  0  0  0  0  0  0  0
  190.3310  177.1370  140.2640 C   0  0  0  0  0  1  0  0  0  0  0  0
  186.8530  178.5470  140.2480 C   0  0  0  0  0  3  0  0  0  0  0  0
  186.9390  178.6220  137.7120 C   0  0  0  0  0  2  0  0  0  0  0  0
  184.7580  177.9520  138.8430 C   0  0  0  0  0  0  0  0  0  0  0  0
  184.2470  177.7580  137.7520 O   0  0  0  0  0  0  0  0  0  0  0  0
  183.8700  178.0770  140.0380 C   0  0  0  0  0  1  0  0  0  0  0  0
  186.7510  174.5690  135.4640 O   0  0  0  0  0  0  0  0  0  0  0  0
  184.7620  175.7960  134.9620 C   0  0  0  0  0  1  0  0  0  0  0  0
  185.4890  174.9130  135.9670 C   0  0  1  0  0  3  0  0  0  0  0  0
  184.6850  173.6530  136.3020 C   0  0  1  0  0  3  0  0  0  0  0  0
  185.0290  173.1810  137.5700 O   0  0  0  0  0  1  0  0  0  0  0  0
  183.2480  173.9060  136.2370 N   0  0  0  0  0  2  0  0  0  0  0  0
  181.0650  172.7800  135.9880 C   0  0  2  0  0  3  0  0  0  0  0  0
  180.3000  171.9760  134.9170 C   0  0  0  0  0  2  0  0  0  0  0  0
  181.6950  169.8990  134.7140 C   0  0  0  0  0  3  0  0  0  0  0  0
  183.0790  171.9880  134.5530 C   0  0  0  0  0  2  0  0  0  0  0  0
  182.5790  172.6700  135.8400 C   0  0  1  0  0  0  0  0  0  0  0  0
  182.8700  170.5030  134.5200 C   0  0  0  0  0  3  0  0  0  0  0  0
  180.4900  170.5630  134.9940 O   0  0  0  0  0  0  0  0  0  0  0  0
  181.8730  171.9150  136.9550 C   0  0  0  0  0  2  0  0  0  0  0  0
  194.4630  175.1480  134.3540 N   0  0  0  0  0  2  0  0  0  0  0  0
  195.3480  177.2220  134.7320 C   0  0  0  0  0  1  0  0  0  0  0  0
  195.4640  175.8160  135.0840 N   0  0  0  0  0  0  0  0  0  0  0  0
  196.7520  175.3510  134.5770 C   0  0  0  0  0  2  0  0  0  0  0  0
  197.6490  174.7770  135.6990 C   0  0  2  0  0  0  0  0  0  0  0  0
  197.9330  173.2910  135.4540 C   0  0  0  0  0  1  0  0  0  0  0  0
  197.6630  174.6370  138.3150 C   0  0  2  0  0  0  0  0  0  0  0  0
  195.5830  173.4320  138.4760 O   0  0  0  0  0  1  0  0  0  0  0  0
  196.7910  173.5070  137.7830 C   0  0  1  0  0  3  0  0  0  0  0  0
  197.1530  175.3040  139.4310 O   0  0  0  0  0  1  0  0  0  0  0  0
  196.8640  174.8450  137.0330 C   0  0  2  0  0  3  0  0  0  0  0  0
  199.1360  174.3820  138.2880 C   0  0  0  0  0  3  0  0  0  0  0  0
  199.8920  175.0870  138.9340 O   0  0  0  0  0  0  0  0  0  0  0  0
  199.9190  174.7720  135.1970 C   0  0  0  0  0  1  0  0  0  0  0  0
  198.8700  175.5010  135.7930 O   0  0  0  0  0  0  0  0  0  0  0  0
  1  9  1  0  0  0  0
  3 29  1  6  0  0  0
  3  4  1  0  0  0  0
  4 15  1  0  0  0  0
  5 16  2  0  0  0  0
  6 17  1  1  0  0  0
  6 11  1  0  0  0  0
  8  7  1  0  0  0  0
  9 11  1  6  0  0  0
  9  8  1  0  0  0  0
 10  2  1  1  0  0  0
 10 12  1  0  0  0  0
 10  3  1  0  0  0  0
 12 16  1  1  0  0  0
 12 14  1  0  0  0  0
 13 16  1  0  0  0  0
 13  6  1  0  0  0  0
 14  1  1  1  0  0  0
 14 15  1  0  0  0  0
 15  7  1  0  0  0  0
 15 22  1  1  0  0  0
 18 25  1  6  0  0  0
 18 22  1  0  0  0  0
 18 21  1  0  0  0  0
 20 23  1  0  0  0  0
 20 19  1  0  0  0  0
 21 26  1  6  0  0  0
 21 24  1  0  0  0  0
 22 20  2  0  0  0  0
 24 19  2  0  0  0  0
 25 21  1  0  0  0  0
 26 28  1  0  0  0  0
 27 26  2  0  0  0  0
 29 31  1  0  0  0  0
 31 30  1  6  0  0  0
 31 32  1  0  0  0  0
 32 33  1  1  0  0  0
 34 32  1  0  0  0  0
 35 36  1  6  0  0  0
 35 42  1  0  0  0  0
 36 41  1  0  0  0  0
 37 41  1  0  0  0  0
 38 39  1  0  0  0  0
 39 35  1  0  0  0  0
 39 34  1  1  0  0  0
 39 42  1  0  0  0  0
 40 38  1  0  0  0  0
 40 37  2  0  0  0  0
 43 45  1  0  0  0  0
 43  6  1  0  0  0  0
 44 45  1  0  0  0  0
 46 45  1  0  0  0  0
 46 47  1  0  0  0  0
 47 48  1  6  0  0  0
 47 57  1  0  0  0  0
 49 52  1  1  0  0  0
 51 49  1  0  0  0  0
 51 50  1  1  0  0  0
 53 47  1  6  0  0  0
 53 51  1  0  0  0  0
 53 49  1  0  0  0  0
 54 49  1  0  0  0  0
 54 55  2  0  0  0  0
 56 57  1  0  0  0  0
M  END
>  <MODEL>
2

>  <REMARK>
 VINA RESULT:      -5.6      1.370      2.024
  Name = 
  14 active torsions:
  status: ('A' for Active; 'I' for Inactive)
    1  A    between atoms: C_1  and  C_10
    2  A    between atoms: C_8  and  O_46
    3  A    between atoms: N_9  and  C_16
    4  A    between atoms: N_9  and  C_33
    5  A    between atoms: C_16  and  C_43
    6  A    between atoms: C_18  and  N_35
    7  A    between atoms: C_18  and  C_54
    8  A    between atoms: C_19  and  N_49
    9  A    between atoms: C_25  and  C_42
   10  A    between atoms: O_28  and  C_54
   11  A    between atoms: C_29  and  C_54
   12  A    between atoms: N_35  and  N_49
   13  A    between atoms: C_37  and  C_45
   14  A    between atoms: C_43  and  O_46
                            x       y       z     vdW  Elec       q    Type
                         _______ _______ _______ _____ _____    ______ ____

>  <TORSDO>
F 14

$$$$
=
 OpenBabel10232409053D

 57 64  0  0  1  0  0  0  0  0999 V2000
  188.2140  176.2230  138.5000 O   0  0  0  0  0  0  0  0  0  0  0  0
  188.6540  175.6900  142.9640 C   0  0  0  0  0  1  0  0  0  0  0  0
  189.0000  178.0680  142.2940 C   0  0  1  0  0  3  0  0  0  0  0  0
  189.0180  178.8700  140.9950 C   0  0  0  0  0  2  0  0  0  0  0  0
  191.5380  177.2790  140.2940 O   0  0  0  0  0  0  0  0  0  0  0  0
  191.3200  175.9970  137.5270 C   0  0  2  0  0  0  0  0  0  0  0  0
  188.1990  178.9680  138.7330 O   0  0  0  0  0  0  0  0  0  0  0  0
  189.2870  178.4300  138.0330 C   0  0  0  0  0  2  0  0  0  0  0  0
  188.8980  177.0350  137.5560 C   0  0  1  0  0  3  0  0  0  0  0  0
  189.4750  176.6220  142.0930 C   0  0  2  0  0  3  0  0  0  0  0  0
  189.9930  176.2760  136.7970 C   0  0  0  0  0  2  0  0  0  0  0  0
  189.4520  176.1360  140.6330 C   0  0  1  0  0  3  0  0  0  0  0  0
  191.0930  175.5240  138.8640 O   0  0  0  0  0  0  0  0  0  0  0  0
  188.2850  176.7340  139.8210 C   0  0  1  0  0  3  0  0  0  0  0  0
  188.0350  178.2850  139.9660 C   0  0  1  0  0  0  0  0  0  0  0  0
  190.7670  176.3450  139.9450 C   0  0  0  0  0  0  0  0  0  0  0  0
  192.1700  177.2600  137.5170 C   0  0  0  0  0  1  0  0  0  0  0  0
  186.3810  178.7380  141.9480 C   0  0  2  0  0  3  0  0  0  0  0  0
  184.1970  178.9430  140.0340 C   0  0  0  0  0  3  0  0  0  0  0  0
  185.5670  178.6660  139.5790 C   0  0  0  0  0  0  0  0  0  0  0  0
  184.9330  178.9400  142.3910 C   0  0  1  0  0  0  0  0  0  0  0  0
  186.6040  178.5550  140.4540 C   0  0  0  0  0  0  0  0  0  0  0  0
  185.7430  178.5090  138.1050 C   0  0  0  0  0  1  0  0  0  0  0  0
  183.8930  179.0700  141.3210 C   0  0  0  0  0  3  0  0  0  0  0  0
  185.5660  177.5660  142.4980 C   0  0  0  0  0  2  0  0  0  0  0  0
  184.7220  179.6410  143.7100 C   0  0  0  0  0  0  0  0  0  0  0  0
  185.1990  180.7490  143.8890 O   0  0  0  0  0  0  0  0  0  0  0  0
  183.9600  179.0000  144.8240 C   0  0  0  0  0  1  0  0  0  0  0  0
  189.7990  178.7030  143.2510 O   0  0  0  0  0  0  0  0  0  0  0  0
  192.1710  178.8020  143.5210 C   0  0  0  0  0  1  0  0  0  0  0  0
  190.9490  177.9100  143.3630 C   0  0  1  0  0  3  0  0  0  0  0  0
  190.8090  176.9250  144.5270 C   0  0  1  0  0  3  0  0  0  0  0  0
  191.7900  175.9360  144.4460 O   0  0  0  0  0  1  0  0  0  0  0  0
  190.8940  177.6080  145.8150 N   0  0  0  0  0  2  0  0  0  0  0  0
  189.7000  177.7670  147.9700 C   0  0  2  0  0  3  0  0  0  0  0  0
  188.4680  178.4910  148.5530 C   0  0  0  0  0  2  0  0  0  0  0  0
  186.5800  177.4360  147.2790 C   0  0  0  0  0  3  0  0  0  0  0  0
  188.4150  178.2340  145.7620 C   0  0  0  0  0  2  0  0  0  0  0  0
  189.5900  177.5310  146.4670 C   0  0  1  0  0  0  0  0  0  0  0  0
  187.0720  177.6330  146.0530 C   0  0  0  0  0  3  0  0  0  0  0  0
  187.2540  177.7440  148.4710 O   0  0  0  0  0  0  0  0  0  0  0  0
  189.4010  176.3690  147.4290 C   0  0  0  0  0  2  0  0  0  0  0  0
  192.0590  174.9850  136.7620 N   0  0  0  0  0  2  0  0  0  0  0  0
  192.2140  175.9200  134.6800 C   0  0  0  0  0  1  0  0  0  0  0  0
  192.9670  175.6040  135.8830 N   0  0  0  0  0  0  0  0  0  0  0  0
  193.9650  174.6050  135.5160 C   0  0  0  0  0  2  0  0  0  0  0  0
  195.3140  174.8310  136.2380 C   0  0  2  0  0  0  0  0  0  0  0  0
  196.4260  174.0140  135.5690 C   0  0  0  0  0  1  0  0  0  0  0  0
  196.4700  174.2320  138.5100 C   0  0  2  0  0  0  0  0  0  0  0  0
  195.2270  172.1970  138.8540 O   0  0  0  0  0  1  0  0  0  0  0  0
  195.9200  172.9480  137.9040 C   0  0  1  0  0  3  0  0  0  0  0  0
  196.2750  174.3700  139.8870 O   0  0  0  0  0  1  0  0  0  0  0  0
  195.1920  174.2810  137.6800 C   0  0  2  0  0  3  0  0  0  0  0  0
  197.7810  174.6950  137.9600 C   0  0  0  0  0  3  0  0  0  0  0  0
  198.3980  175.5880  138.5130 O   0  0  0  0  0  0  0  0  0  0  0  0
  196.3600  176.5510  135.0750 C   0  0  0  0  0  1  0  0  0  0  0  0
  195.6590  176.2110  136.2490 O   0  0  0  0  0  0  0  0  0  0  0  0
  3 29  1  1  0  0  0
  4  3  1  0  0  0  0
  6 17  1  1  0  0  0
  6 13  1  0  0  0  0
  7 15  1  0  0  0  0
  8  7  1  0  0  0  0
  9 11  1  1  0  0  0
  9  8  1  0  0  0  0
  9  1  1  0  0  0  0
 10  3  1  0  0  0  0
 10  2  1  1  0  0  0
 11  6  1  0  0  0  0
 12 16  1  6  0  0  0
 12 10  1  0  0  0  0
 13 16  1  0  0  0  0
 14  1  1  6  0  0  0
 14 15  1  0  0  0  0
 14 12  1  0  0  0  0
 15 22  1  1  0  0  0
 15  4  1  0  0  0  0
 16  5  2  0  0  0  0
 18 21  1  0  0  0  0
 18 25  1  1  0  0  0
 19 24  2  0  0  0  0
 20 19  1  0  0  0  0
 20 22  2  0  0  0  0
 21 25  1  0  0  0  0
 21 26  1  1  0  0  0
 22 18  1  0  0  0  0
 23 20  1  0  0  0  0
 24 21  1  0  0  0  0
 26 27  2  0  0  0  0
 26 28  1  0  0  0  0
 29 31  1  0  0  0  0
 31 30  1  1  0  0  0
 31 32  1  0  0  0  0
 32 33  1  1  0  0  0
 32 34  1  0  0  0  0
 35 42  1  1  0  0  0
 35 36  1  0  0  0  0
 37 41  1  0  0  0  0
 38 40  1  0  0  0  0
 38 39  1  0  0  0  0
 39 34  1  6  0  0  0
 39 42  1  0  0  0  0
 39 35  1  0  0  0  0
 40 37  2  0  0  0  0
 41 36  1  0  0  0  0
 43  6  1  0  0  0  0
 44 45  1  0  0  0  0
 45 43  1  0  0  0  0
 46 45  1  0  0  0  0
 46 47  1  0  0  0  0
 47 48  1  6  0  0  0
 47 57  1  0  0  0  0
 49 52  1  1  0  0  0
 51 49  1  0  0  0  0
 51 50  1  1  0  0  0
 53 47  1  6  0  0  0
 53 51  1  0  0  0  0
 53 49  1  0  0  0  0
 54 49  1  0  0  0  0
 54 55  2  0  0  0  0
 56 57  1  0  0  0  0
M  END
>  <MODEL>
3

>  <REMARK>
 VINA RESULT:      -5.5      4.062      7.610
  Name = 
  14 active torsions:
  status: ('A' for Active; 'I' for Inactive)
    1  A    between atoms: C_1  and  C_10
    2  A    between atoms: C_8  and  O_46
    3  A    between atoms: N_9  and  C_16
    4  A    between atoms: N_9  and  C_33
    5  A    between atoms: C_16  and  C_43
    6  A    between atoms: C_18  and  N_35
    7  A    between atoms: C_18  and  C_54
    8  A    between atoms: C_19  and  N_49
    9  A    between atoms: C_25  and  C_42
   10  A    between atoms: O_28  and  C_54
   11  A    between atoms: C_29  and  C_54
   12  A    between atoms: N_35  and  N_49
   13  A    between atoms: C_37  and  C_45
   14  A    between atoms: C_43  and  O_46
                            x       y       z     vdW  Elec       q    Type
                         _______ _______ _______ _____ _____    ______ ____

>  <TORSDO>
F 14

$$$$
=
 OpenBabel10232409053D

 57 64  0  0  1  0  0  0  0  0999 V2000
  189.3860  174.7930  137.9110 O   0  0  0  0  0  0  0  0  0  0  0  0
  185.1740  173.2500  137.3840 C   0  0  0  0  0  1  0  0  0  0  0  0
  186.1150  174.0750  135.2270 C   0  0  1  0  0  3  0  0  0  0  0  0
  187.4150  174.7190  134.7510 C   0  0  0  0  0  2  0  0  0  0  0  0
  186.5980  177.1320  136.4480 O   0  0  0  0  0  0  0  0  0  0  0  0
  188.8430  177.9810  138.3430 C   0  0  2  0  0  0  0  0  0  0  0  0
  189.7730  174.9470  135.1880 O   0  0  0  0  0  0  0  0  0  0  0  0
  189.7980  176.1710  135.8690 C   0  0  0  0  0  2  0  0  0  0  0  0
  190.0880  175.8870  137.3390 C   0  0  1  0  0  3  0  0  0  0  0  0
  185.7780  174.4490  136.6770 C   0  0  2  0  0  3  0  0  0  0  0  0
  190.1170  177.1210  138.2480 C   0  0  0  0  0  2  0  0  0  0  0  0
  186.9630  174.9990  137.4910 C   0  0  1  0  0  3  0  0  0  0  0  0
  187.6700  177.1650  138.4910 O   0  0  0  0  0  0  0  0  0  0  0  0
  188.3080  174.3480  137.1050 C   0  0  1  0  0  3  0  0  0  0  0  0
  188.6190  174.2110  135.5640 C   0  0  1  0  0  0  0  0  0  0  0  0
  187.0390  176.4940  137.4420 C   0  0  0  0  0  0  0  0  0  0  0  0
  188.7510  178.8730  137.1120 C   0  0  0  0  0  1  0  0  0  0  0  0
  187.7130  171.7620  135.3370 C   0  0  2  0  0  3  0  0  0  0  0  0
  190.3200  170.9270  134.3460 C   0  0  0  0  0  3  0  0  0  0  0  0
  190.0760  172.3280  134.7200 C   0  0  0  0  0  0  0  0  0  0  0  0
  188.0290  170.3020  135.0200 C   0  0  1  0  0  0  0  0  0  0  0  0
  188.8700  172.7420  135.1960 C   0  0  0  0  0  0  0  0  0  0  0  0
  191.2320  173.2570  134.5510 C   0  0  0  0  0  1  0  0  0  0  0  0
  189.3900  169.9880  134.4800 C   0  0  0  0  0  3  0  0  0  0  0  0
  188.0100  170.7700  136.4630 C   0  0  0  0  0  2  0  0  0  0  0  0
  186.8630  169.4300  134.6250 C   0  0  0  0  0  0  0  0  0  0  0  0
  187.0370  168.2410  134.4210 O   0  0  0  0  0  0  0  0  0  0  0  0
  185.4890  169.9930  134.4510 C   0  0  0  0  0  1  0  0  0  0  0  0
  185.0660  174.4530  134.3820 O   0  0  0  0  0  0  0  0  0  0  0  0
  184.5700  176.7900  134.3460 C   0  0  0  0  0  1  0  0  0  0  0  0
  184.3800  175.4630  135.0680 C   0  0  1  0  0  3  0  0  0  0  0  0
  182.8990  175.1020  135.2120 C   0  0  1  0  0  3  0  0  0  0  0  0
  182.5920  173.9880  134.4280 O   0  0  0  0  0  1  0  0  0  0  0  0
  182.5470  174.8430  136.6060 N   0  0  0  0  0  2  0  0  0  0  0  0
  180.8620  176.0510  137.9450 C   0  0  2  0  0  3  0  0  0  0  0  0
  180.8100  176.9170  139.2200 C   0  0  0  0  0  2  0  0  0  0  0  0
  182.1160  178.9490  138.5370 C   0  0  0  0  0  3  0  0  0  0  0  0
  183.3410  176.8210  138.0190 C   0  0  0  0  0  2  0  0  0  0  0  0
  182.2150  176.1130  137.2420 C   0  0  1  0  0  0  0  0  0  0  0  0
  183.2010  178.3120  138.0910 C   0  0  0  0  0  3  0  0  0  0  0  0
  180.9450  178.3200  138.9860 O   0  0  0  0  0  0  0  0  0  0  0  0
  181.0250  176.8550  136.6550 C   0  0  0  0  0  2  0  0  0  0  0  0
  188.9770  178.8720  139.5020 N   0  0  0  0  0  2  0  0  0  0  0  0
  187.2440  178.5930  140.9680 C   0  0  0  0  0  1  0  0  0  0  0  0
  188.6130  178.1960  140.6810 N   0  0  0  0  0  0  0  0  0  0  0  0
  189.4470  178.7220  141.7580 C   0  0  0  0  0  2  0  0  0  0  0  0
  189.7990  177.6420  142.8080 C   0  0  2  0  0  0  0  0  0  0  0  0
  189.2410  176.2780  142.3850 C   0  0  0  0  0  1  0  0  0  0  0  0
  189.7400  177.5210  145.4230 C   0  0  2  0  0  0  0  0  0  0  0  0
  187.3610  177.1680  145.5690 O   0  0  0  0  0  1  0  0  0  0  0  0
  188.5170  176.7890  144.8860 C   0  0  1  0  0  3  0  0  0  0  0  0
  189.5040  178.3350  146.5340 O   0  0  0  0  0  1  0  0  0  0  0  0
  189.0840  178.0020  144.1340 C   0  0  2  0  0  3  0  0  0  0  0  0
  191.0150  176.7400  145.4110 C   0  0  0  0  0  3  0  0  0  0  0  0
  191.3820  176.1480  146.4100 O   0  0  0  0  0  0  0  0  0  0  0  0
  191.8620  177.4420  141.7550 C   0  0  0  0  0  1  0  0  0  0  0  0
  191.2070  177.5580  142.9970 O   0  0  0  0  0  0  0  0  0  0  0  0
  3 29  1  6  0  0  0
  3 10  1  0  0  0  0
  4  3  1  0  0  0  0
  4 15  1  0  0  0  0
  5 16  2  0  0  0  0
  6 17  1  6  0  0  0
  6 13  1  0  0  0  0
  6 43  1  0  0  0  0
  7 15  1  0  0  0  0
  7  8  1  0  0  0  0
  9  8  1  6  0  0  0
  9  1  1  0  0  0  0
  9 11  1  0  0  0  0
 10  2  1  1  0  0  0
 10 12  1  0  0  0  0
 11  6  1  0  0  0  0
 12 16  1  6  0  0  0
 14 12  1  0  0  0  0
 14  1  1  1  0  0  0
 15 22  1  6  0  0  0
 15 14  1  0  0  0  0
 16 13  1  0  0  0  0
 18 25  1  1  0  0  0
 19 24  2  0  0  0  0
 19 20  1  0  0  0  0
 20 22  2  0  0  0  0
 21 26  1  6  0  0  0
 21 18  1  0  0  0  0
 21 25  1  0  0  0  0
 22 18  1  0  0  0  0
 23 20  1  0  0  0  0
 24 21  1  0  0  0  0
 27 26  2  0  0  0  0
 28 26  1  0  0  0  0
 29 31  1  0  0  0  0
 31 30  1  6  0  0  0
 31 32  1  0  0  0  0
 32 33  1  6  0  0  0
 32 34  1  0  0  0  0
 35 42  1  6  0  0  0
 35 36  1  0  0  0  0
 37 41  1  0  0  0  0
 38 40  1  0  0  0  0
 39 34  1  6  0  0  0
 39 35  1  0  0  0  0
 39 38  1  0  0  0  0
 40 37  2  0  0  0  0
 41 36  1  0  0  0  0
 42 39  1  0  0  0  0
 43 45  1  0  0  0  0
 45 44  1  0  0  0  0
 45 46  1  0  0  0  0
 46 47  1  0  0  0  0
 47 48  1  6  0  0  0
 47 57  1  0  0  0  0
 49 52  1  1  0  0  0
 51 49  1  0  0  0  0
 51 50  1  1  0  0  0
 53 47  1  6  0  0  0
 53 51  1  0  0  0  0
 53 49  1  0  0  0  0
 54 49  1  0  0  0  0
 54 55  2  0  0  0  0
 56 57  1  0  0  0  0
M  END
>  <MODEL>
4

>  <REMARK>
 VINA RESULT:      -5.1      4.473      8.094
  Name = 
  14 active torsions:
  status: ('A' for Active; 'I' for Inactive)
    1  A    between atoms: C_1  and  C_10
    2  A    between atoms: C_8  and  O_46
    3  A    between atoms: N_9  and  C_16
    4  A    between atoms: N_9  and  C_33
    5  A    between atoms: C_16  and  C_43
    6  A    between atoms: C_18  and  N_35
    7  A    between atoms: C_18  and  C_54
    8  A    between atoms: C_19  and  N_49
    9  A    between atoms: C_25  and  C_42
   10  A    between atoms: O_28  and  C_54
   11  A    between atoms: C_29  and  C_54
   12  A    between atoms: N_35  and  N_49
   13  A    between atoms: C_37  and  C_45
   14  A    between atoms: C_43  and  O_46
                            x       y       z     vdW  Elec       q    Type
                         _______ _______ _______ _____ _____    ______ ____

>  <TORSDO>
F 14

$$$$
=
 OpenBabel10232409053D

 57 64  0  0  1  0  0  0  0  0999 V2000
  191.0930  174.0630  135.3230 O   0  0  0  0  0  0  0  0  0  0  0  0
  189.6290  175.0400  139.4830 C   0  0  0  0  0  1  0  0  0  0  0  0
  189.6600  177.0680  138.0300 C   0  0  1  0  0  3  0  0  0  0  0  0
  190.0590  177.4070  136.5960 C   0  0  0  0  0  2  0  0  0  0  0  0
  192.9270  176.7860  137.4690 O   0  0  0  0  0  0  0  0  0  0  0  0
  194.2640  174.7860  135.5820 C   0  0  2  0  0  0  0  0  0  0  0  0
  190.3250  176.5300  134.3690 O   0  0  0  0  0  0  0  0  0  0  0  0
  191.7040  176.2790  134.3470 C   0  0  0  0  0  2  0  0  0  0  0  0
  191.9090  174.7690  134.4000 C   0  0  1  0  0  3  0  0  0  0  0  0
  190.5030  175.9260  138.6150 C   0  0  2  0  0  3  0  0  0  0  0  0
  193.3710  174.3100  134.4210 C   0  0  0  0  0  2  0  0  0  0  0  0
  191.2430  175.0740  137.5690 C   0  0  1  0  0  3  0  0  0  0  0  0
  193.5890  174.6660  136.8440 O   0  0  0  0  0  0  0  0  0  0  0  0
  190.4500  174.9160  136.2550 C   0  0  1  0  0  3  0  0  0  0  0  0
  189.8010  176.2210  135.6510 C   0  0  1  0  0  0  0  0  0  0  0  0
  192.6340  175.5690  137.3170 C   0  0  0  0  0  0  0  0  0  0  0  0
  194.7040  176.2200  135.3170 C   0  0  0  0  0  1  0  0  0  0  0  0
  187.6580  174.7550  136.0130 C   0  0  2  0  0  3  0  0  0  0  0  0
  186.0530  176.8670  134.8140 C   0  0  0  0  0  3  0  0  0  0  0  0
  187.5090  177.0200  134.9490 C   0  0  0  0  0  0  0  0  0  0  0  0
  186.1570  174.5970  135.7790 C   0  0  1  0  0  0  0  0  0  0  0  0
  188.2830  176.0430  135.4960 C   0  0  0  0  0  0  0  0  0  0  0  0
  188.0780  178.3040  134.4430 C   0  0  0  0  0  1  0  0  0  0  0  0
  185.4210  175.7610  135.1900 C   0  0  0  0  0  3  0  0  0  0  0  0
  187.1380  173.9240  134.8390 C   0  0  0  0  0  2  0  0  0  0  0  0
  185.4260  173.6580  136.7040 C   0  0  0  0  0  0  0  0  0  0  0  0
  184.2070  173.6070  136.6770 O   0  0  0  0  0  0  0  0  0  0  0  0
  186.1570  172.7960  137.6820 C   0  0  0  0  0  1  0  0  0  0  0  0
  189.7780  178.2070  138.8340 O   0  0  0  0  0  0  0  0  0  0  0  0
  187.5010  177.5070  138.6410 C   0  0  0  0  0  1  0  0  0  0  0  0
  188.4710  178.5250  139.2250 C   0  0  1  0  0  3  0  0  0  0  0  0
  188.3710  178.5940  140.7520 C   0  0  1  0  0  3  0  0  0  0  0  0
  187.2480  179.3320  141.1320 O   0  0  0  0  0  1  0  0  0  0  0  0
  188.3140  177.2590  141.3430 N   0  0  0  0  0  2  0  0  0  0  0  0
  190.4240  177.9030  142.4500 C   0  0  2  0  0  3  0  0  0  0  0  0
  190.8760  178.6860  143.7000 C   0  0  0  0  0  2  0  0  0  0  0  0
  190.0220  177.2450  145.5690 C   0  0  0  0  0  3  0  0  0  0  0  0
  188.2490  177.7210  143.8570 C   0  0  0  0  0  2  0  0  0  0  0  0
  189.0380  177.2840  142.6100 C   0  0  1  0  0  0  0  0  0  0  0  0
  188.7600  177.1470  145.1450 C   0  0  0  0  0  3  0  0  0  0  0  0
  191.0560  177.8820  144.8660 O   0  0  0  0  0  0  0  0  0  0  0  0
  190.2730  176.3990  142.6810 C   0  0  0  0  0  2  0  0  0  0  0  0
  195.4810  173.9650  135.5900 N   0  0  0  0  0  2  0  0  0  0  0  0
  196.0490  173.2720  137.6940 C   0  0  0  0  0  1  0  0  0  0  0  0
  195.3380  172.8890  136.4850 N   0  0  0  0  0  0  0  0  0  0  0  0
  196.0480  171.7510  135.9110 C   0  0  0  0  0  2  0  0  0  0  0  0
  195.1100  170.5490  135.6460 C   0  0  2  0  0  0  0  0  0  0  0  0
  193.9170  170.9760  134.7840 C   0  0  0  0  0  1  0  0  0  0  0  0
  195.4130  169.2530  137.9020 C   0  0  2  0  0  0  0  0  0  0  0  0
  193.1940  168.3160  137.9120 O   0  0  0  0  0  1  0  0  0  0  0  0
  194.3050  168.5730  137.1090 C   0  0  1  0  0  3  0  0  0  0  0  0
  195.1620  169.3970  139.2690 O   0  0  0  0  0  1  0  0  0  0  0  0
  194.5130  170.0900  137.0000 C   0  0  2  0  0  3  0  0  0  0  0  0
  196.8070  168.8920  137.5010 C   0  0  0  0  0  3  0  0  0  0  0  0
  197.7580  169.4630  138.0060 O   0  0  0  0  0  0  0  0  0  0  0  0
  196.9510  169.9790  134.3470 C   0  0  0  0  0  1  0  0  0  0  0  0
  195.8140  169.4850  135.0170 O   0  0  0  0  0  0  0  0  0  0  0  0
  3 10  1  0  0  0  0
  3 29  1  1  0  0  0
  4  3  1  0  0  0  0
  6 17  1  6  0  0  0
  6 43  1  0  0  0  0
  6 13  1  0  0  0  0
  7 15  1  0  0  0  0
  8  7  1  0  0  0  0
  9  8  1  1  0  0  0
  9 11  1  0  0  0  0
  9  1  1  0  0  0  0
 10  2  1  6  0  0  0
 11  6  1  0  0  0  0
 12 16  1  6  0  0  0
 12 10  1  0  0  0  0
 13 16  1  0  0  0  0
 14  1  1  6  0  0  0
 14 12  1  0  0  0  0
 15 22  1  6  0  0  0
 15 14  1  0  0  0  0
 15  4  1  0  0  0  0
 16  5  2  0  0  0  0
 18 25  1  6  0  0  0
 19 20  1  0  0  0  0
 19 24  2  0  0  0  0
 20 22  2  0  0  0  0
 21 18  1  0  0  0  0
 21 26  1  1  0  0  0
 22 18  1  0  0  0  0
 23 20  1  0  0  0  0
 24 21  1  0  0  0  0
 25 21  1  0  0  0  0
 26 28  1  0  0  0  0
 27 26  2  0  0  0  0
 29 31  1  0  0  0  0
 31 30  1  1  0  0  0
 31 32  1  0  0  0  0
 32 33  1  6  0  0  0
 32 34  1  0  0  0  0
 35 39  1  0  0  0  0
 35 42  1  1  0  0  0
 35 36  1  0  0  0  0
 36 41  1  0  0  0  0
 38 40  1  0  0  0  0
 39 34  1  6  0  0  0
 39 42  1  0  0  0  0
 39 38  1  0  0  0  0
 40 37  2  0  0  0  0
 41 37  1  0  0  0  0
 43 45  1  0  0  0  0
 45 44  1  0  0  0  0
 46 45  1  0  0  0  0
 47 48  1  6  0  0  0
 47 46  1  0  0  0  0
 49 52  1  1  0  0  0
 51 49  1  0  0  0  0
 51 50  1  1  0  0  0
 53 47  1  6  0  0  0
 53 51  1  0  0  0  0
 53 49  1  0  0  0  0
 54 49  1  0  0  0  0
 54 55  2  0  0  0  0
 56 57  1  0  0  0  0
 57 47  1  0  0  0  0
M  END
>  <MODEL>
5

>  <REMARK>
 VINA RESULT:      -4.5      2.518      6.398
  Name = 
  14 active torsions:
  status: ('A' for Active; 'I' for Inactive)
    1  A    between atoms: C_1  and  C_10
    2  A    between atoms: C_8  and  O_46
    3  A    between atoms: N_9  and  C_16
    4  A    between atoms: N_9  and  C_33
    5  A    between atoms: C_16  and  C_43
    6  A    between atoms: C_18  and  N_35
    7  A    between atoms: C_18  and  C_54
    8  A    between atoms: C_19  and  N_49
    9  A    between atoms: C_25  and  C_42
   10  A    between atoms: O_28  and  C_54
   11  A    between atoms: C_29  and  C_54
   12  A    between atoms: N_35  and  N_49
   13  A    between atoms: C_37  and  C_45
   14  A    between atoms: C_43  and  O_46
                            x       y       z     vdW  Elec       q    Type
                         _______ _______ _______ _____ _____    ______ ____

>  <TORSDO>
F 14

$$$$
=
 OpenBabel10232409053D

 57 64  0  0  1  0  0  0  0  0999 V2000
  184.5460  179.5630  139.4400 O   0  0  0  0  0  0  0  0  0  0  0  0
  186.0430  178.6210  135.2850 C   0  0  0  0  0  1  0  0  0  0  0  0
  184.8780  176.6620  136.2960 C   0  0  1  0  0  3  0  0  0  0  0  0
  184.2020  176.3290  137.6240 C   0  0  0  0  0  2  0  0  0  0  0  0
  186.9930  176.5530  138.8620 O   0  0  0  0  0  0  0  0  0  0  0  0
  187.0030  178.4390  141.2690 C   0  0  2  0  0  0  0  0  0  0  0  0
  183.0550  177.2490  139.5320 O   0  0  0  0  0  0  0  0  0  0  0  0
  184.1030  177.3260  140.4590 C   0  0  0  0  0  2  0  0  0  0  0  0
  184.4710  178.7950  140.6330 C   0  0  1  0  0  3  0  0  0  0  0  0
  186.0270  177.6660  136.4630 C   0  0  2  0  0  3  0  0  0  0  0  0
  185.6350  179.0660  141.5930 C   0  0  0  0  0  2  0  0  0  0  0  0
  186.0010  178.4570  137.7830 C   0  0  1  0  0  3  0  0  0  0  0  0
  187.3350  178.5950  139.8800 O   0  0  0  0  0  0  0  0  0  0  0  0
  184.5700  178.7630  138.2700 C   0  0  1  0  0  3  0  0  0  0  0  0
  183.5340  177.5730  138.2360 C   0  0  1  0  0  0  0  0  0  0  0  0
  186.8200  177.8020  138.8530 C   0  0  0  0  0  0  0  0  0  0  0  0
  186.9890  176.9720  141.6790 C   0  0  0  0  0  1  0  0  0  0  0  0
  182.0710  179.4190  137.0850 C   0  0  2  0  0  3  0  0  0  0  0  0
  180.3460  177.3340  136.0120 C   0  0  0  0  0  3  0  0  0  0  0  0
  181.5020  176.9890  136.8520 C   0  0  0  0  0  0  0  0  0  0  0  0
  180.8150  179.7430  136.2800 C   0  0  1  0  0  0  0  0  0  0  0  0
  182.3180  177.9450  137.3760 C   0  0  0  0  0  0  0  0  0  0  0  0
  181.7150  175.5320  137.0990 C   0  0  0  0  0  1  0  0  0  0  0  0
  180.0200  178.5930  135.7430 C   0  0  0  0  0  3  0  0  0  0  0  0
  180.7940  179.8790  137.7910 C   0  0  0  0  0  2  0  0  0  0  0  0
  180.8140  181.0520  135.5300 C   0  0  0  0  0  0  0  0  0  0  0  0
  181.1050  181.0710  134.3460 O   0  0  0  0  0  0  0  0  0  0  0  0
  180.4860  182.3420  136.2090 C   0  0  0  0  0  1  0  0  0  0  0  0
  185.3540  175.4870  135.7040 O   0  0  0  0  0  0  0  0  0  0  0  0
  185.0990  173.6910  137.2590 C   0  0  0  0  0  1  0  0  0  0  0  0
  186.0080  174.7910  136.7290 C   0  0  1  0  0  3  0  0  0  0  0  0
  187.3430  174.2320  136.2300 C   0  0  1  0  0  3  0  0  0  0  0  0
  187.1270  173.1950  135.3200 O   0  0  0  0  0  1  0  0  0  0  0  0
  188.1590  175.2750  135.6110 N   0  0  0  0  0  2  0  0  0  0  0  0
  190.4950  174.5990  136.0290 C   0  0  2  0  0  3  0  0  0  0  0  0
  191.8710  175.2690  136.2240 C   0  0  0  0  0  2  0  0  0  0  0  0
  191.5600  176.5030  138.3870 C   0  0  0  0  0  3  0  0  0  0  0  0
  189.7010  176.9590  136.7630 C   0  0  0  0  0  2  0  0  0  0  0  0
  189.3350  175.4970  136.4460 C   0  0  1  0  0  0  0  0  0  0  0  0
  190.4370  177.1460  138.0560 C   0  0  0  0  0  3  0  0  0  0  0  0
  192.2030  175.5480  137.5840 O   0  0  0  0  0  0  0  0  0  0  0  0
  189.7440  174.3320  137.3330 C   0  0  0  0  0  2  0  0  0  0  0  0
  188.0180  179.1000  142.0990 N   0  0  0  0  0  2  0  0  0  0  0  0
  187.5040  178.4900  144.2420 C   0  0  0  0  0  1  0  0  0  0  0  0
  188.4240  178.2480  143.1430 N   0  0  0  0  0  0  0  0  0  0  0  0
  189.7430  178.6970  143.5800 C   0  0  0  0  0  2  0  0  0  0  0  0
  190.5370  177.5750  144.2900 C   0  0  2  0  0  0  0  0  0  0  0  0
  189.8910  176.2100  144.0300 C   0  0  0  0  0  1  0  0  0  0  0  0
  191.1940  176.8240  146.7110 C   0  0  2  0  0  0  0  0  0  0  0  0
  189.0270  177.2620  147.6680 O   0  0  0  0  0  1  0  0  0  0  0  0
  189.6830  176.7040  146.5700 C   0  0  1  0  0  3  0  0  0  0  0  0
  191.6360  177.3620  147.9220 O   0  0  0  0  0  1  0  0  0  0  0  0
  190.4430  177.8060  145.8180 C   0  0  2  0  0  3  0  0  0  0  0  0
  191.9870  175.6930  146.1400 C   0  0  0  0  0  3  0  0  0  0  0  0
  192.7230  175.0360  146.8550 O   0  0  0  0  0  0  0  0  0  0  0  0
  191.9650  177.3970  142.4640 C   0  0  0  0  0  1  0  0  0  0  0  0
  191.8940  177.5650  143.8610 O   0  0  0  0  0  0  0  0  0  0  0  0
  1  9  1  0  0  0  0
  3 29  1  1  0  0  0
  3 10  1  0  0  0  0
  3  4  1  0  0  0  0
  4 15  1  0  0  0  0
  6 11  1  0  0  0  0
  6 17  1  1  0  0  0
  6 43  1  0  0  0  0
  7  8  1  0  0  0  0
  9  8  1  6  0  0  0
  9 11  1  0  0  0  0
 10  2  1  6  0  0  0
 10 12  1  0  0  0  0
 12 14  1  0  0  0  0
 12 16  1  1  0  0  0
 13  6  1  0  0  0  0
 14  1  1  1  0  0  0
 15 22  1  6  0  0  0
 15 14  1  0  0  0  0
 15  7  1  0  0  0  0
 16  5  2  0  0  0  0
 16 13  1  0  0  0  0
 18 22  1  0  0  0  0
 18 25  1  1  0  0  0
 19 20  1  0  0  0  0
 20 23  1  0  0  0  0
 20 22  2  0  0  0  0
 21 26  1  6  0  0  0
 21 18  1  0  0  0  0
 21 25  1  0  0  0  0
 24 19  2  0  0  0  0
 24 21  1  0  0  0  0
 26 28  1  0  0  0  0
 27 26  2  0  0  0  0
 29 31  1  0  0  0  0
 31 30  1  6  0  0  0
 32 33  1  6  0  0  0
 32 31  1  0  0  0  0
 34 32  1  0  0  0  0
 35 36  1  1  0  0  0
 35 39  1  0  0  0  0
 35 42  1  0  0  0  0
 36 41  1  0  0  0  0
 38 40  1  0  0  0  0
 39 34  1  6  0  0  0
 39 38  1  0  0  0  0
 39 42  1  0  0  0  0
 40 37  2  0  0  0  0
 41 37  1  0  0  0  0
 43 45  1  0  0  0  0
 45 46  1  0  0  0  0
 45 44  1  0  0  0  0
 46 47  1  0  0  0  0
 47 48  1  6  0  0  0
 49 52  1  1  0  0  0
 51 49  1  0  0  0  0
 51 50  1  1  0  0  0
 53 47  1  6  0  0  0
 53 51  1  0  0  0  0
 53 49  1  0  0  0  0
 54 49  1  0  0  0  0
 54 55  2  0  0  0  0
 56 57  1  0  0  0  0
 57 47  1  0  0  0  0
M  END
>  <MODEL>
6

>  <REMARK>
 VINA RESULT:      -3.6      4.244      8.899
  Name = 
  14 active torsions:
  status: ('A' for Active; 'I' for Inactive)
    1  A    between atoms: C_1  and  C_10
    2  A    between atoms: C_8  and  O_46
    3  A    between atoms: N_9  and  C_16
    4  A    between atoms: N_9  and  C_33
    5  A    between atoms: C_16  and  C_43
    6  A    between atoms: C_18  and  N_35
    7  A    between atoms: C_18  and  C_54
    8  A    between atoms: C_19  and  N_49
    9  A    between atoms: C_25  and  C_42
   10  A    between atoms: O_28  and  C_54
   11  A    between atoms: C_29  and  C_54
   12  A    between atoms: N_35  and  N_49
   13  A    between atoms: C_37  and  C_45
   14  A    between atoms: C_43  and  O_46
                            x       y       z     vdW  Elec       q    Type
                         _______ _______ _______ _____ _____    ______ ____

>  <TORSDO>
F 14

$$$$
=
 OpenBabel10232409053D

 57 64  0  0  1  0  0  0  0  0999 V2000
  184.6870  177.4380  145.4030 O   0  0  0  0  0  0  0  0  0  0  0  0
  188.2180  175.6730  143.2080 C   0  0  0  0  0  1  0  0  0  0  0  0
  188.5240  178.1170  143.6060 C   0  0  1  0  0  3  0  0  0  0  0  0
  187.7240  179.2530  144.2360 C   0  0  0  0  0  2  0  0  0  0  0  0
  185.7610  178.8780  141.9160 O   0  0  0  0  0  0  0  0  0  0  0  0
  182.8910  178.5540  142.9180 C   0  0  2  0  0  0  0  0  0  0  0  0
  186.0270  179.8010  145.8560 O   0  0  0  0  0  0  0  0  0  0  0  0
  184.8970  179.8990  145.0330 C   0  0  0  0  0  2  0  0  0  0  0  0
  184.0150  178.6850  145.2980 C   0  0  1  0  0  3  0  0  0  0  0  0
  187.6210  177.0480  142.9740 C   0  0  2  0  0  3  0  0  0  0  0  0
  182.7400  178.6080  144.4500 C   0  0  0  0  0  2  0  0  0  0  0  0
  186.1590  177.0770  143.4560 C   0  0  1  0  0  3  0  0  0  0  0  0
  183.9190  177.6310  142.5250 O   0  0  0  0  0  0  0  0  0  0  0  0
  186.0250  177.4920  144.9360 C   0  0  1  0  0  3  0  0  0  0  0  0
  186.8610  178.7450  145.4050 C   0  0  1  0  0  0  0  0  0  0  0  0
  185.2860  177.9090  142.5680 C   0  0  0  0  0  0  0  0  0  0  0  0
  183.1700  179.9570  142.3960 C   0  0  0  0  0  1  0  0  0  0  0  0
  189.0490  177.5710  146.2440 C   0  0  2  0  0  3  0  0  0  0  0  0
  188.4190  178.4150  148.9580 C   0  0  0  0  0  3  0  0  0  0  0  0
  187.5250  178.7570  147.8420 C   0  0  0  0  0  0  0  0  0  0  0  0
  189.9080  177.1620  147.4390 C   0  0  1  0  0  0  0  0  0  0  0  0
  187.7910  178.3650  146.5660 C   0  0  0  0  0  0  0  0  0  0  0  0
  186.3120  179.5490  148.2010 C   0  0  0  0  0  1  0  0  0  0  0  0
  189.5140  177.6830  148.7870 C   0  0  0  0  0  3  0  0  0  0  0  0
  188.9380  176.1640  146.8350 C   0  0  0  0  0  2  0  0  0  0  0  0
  191.3620  176.8760  147.1570 C   0  0  0  0  0  0  0  0  0  0  0  0
  192.1690  176.8840  148.0710 O   0  0  0  0  0  0  0  0  0  0  0  0
  191.8520  176.6050  145.7720 C   0  0  0  0  0  1  0  0  0  0  0  0
  189.3960  178.6340  142.6410 O   0  0  0  0  0  0  0  0  0  0  0  0
  188.2580  178.8040  140.5470 C   0  0  0  0  0  1  0  0  0  0  0  0
  189.1070  177.9330  141.4630 C   0  0  1  0  0  3  0  0  0  0  0  0
  190.3990  177.4790  140.7790 C   0  0  1  0  0  3  0  0  0  0  0  0
  191.4530  177.4640  141.6930 O   0  0  0  0  0  1  0  0  0  0  0  0
  190.2450  176.1580  140.1740 N   0  0  0  0  0  2  0  0  0  0  0  0
  191.1790  175.2200  138.0900 C   0  0  2  0  0  3  0  0  0  0  0  0
  190.6800  174.7940  136.6940 C   0  0  0  0  0  2  0  0  0  0  0  0
  189.9520  176.9800  135.6990 C   0  0  0  0  0  3  0  0  0  0  0  0
  188.9940  176.6190  137.9910 C   0  0  0  0  0  2  0  0  0  0  0  0
  190.3120  176.3040  138.7230 C   0  0  1  0  0  0  0  0  0  0  0  0
  189.1650  177.3710  136.7050 C   0  0  0  0  0  3  0  0  0  0  0  0
  190.7450  175.8230  135.7060 O   0  0  0  0  0  0  0  0  0  0  0  0
  191.6770  176.6640  138.1580 C   0  0  0  0  0  2  0  0  0  0  0  0
  181.6040  178.1380  142.3460 N   0  0  0  0  0  2  0  0  0  0  0  0
  180.3940  179.7150  141.2160 C   0  0  0  0  0  1  0  0  0  0  0  0
  181.4310  178.7070  141.0710 N   0  0  0  0  0  0  0  0  0  0  0  0
  180.8980  177.6640  140.2000 C   0  0  0  0  0  2  0  0  0  0  0  0
  181.9580  177.1320  139.2060 C   0  0  2  0  0  0  0  0  0  0  0  0
  182.3460  175.6910  139.5530 C   0  0  0  0  0  1  0  0  0  0  0  0
  183.3170  179.2910  138.6120 C   0  0  2  0  0  0  0  0  0  0  0  0
  185.4410  178.1680  138.4410 O   0  0  0  0  0  1  0  0  0  0  0  0
  184.0920  178.0850  138.0980 C   0  0  1  0  0  3  0  0  0  0  0  0
  184.0930  180.2770  139.2260 O   0  0  0  0  0  1  0  0  0  0  0  0
  183.2480  177.9720  139.3750 C   0  0  2  0  0  3  0  0  0  0  0  0
  182.1920  179.7540  137.7430 C   0  0  0  0  0  3  0  0  0  0  0  0
  181.5640  180.7570  138.0340 O   0  0  0  0  0  0  0  0  0  0  0  0
  181.3060  175.9070  137.3410 C   0  0  0  0  0  1  0  0  0  0  0  0
  181.4790  177.2020  137.8680 O   0  0  0  0  0  0  0  0  0  0  0  0
  3 29  1  6  0  0  0
  3  4  1  0  0  0  0
  4 15  1  0  0  0  0
  5 16  2  0  0  0  0
  6 17  1  6  0  0  0
  6 11  1  0  0  0  0
  8  9  1  0  0  0  0
  8  7  1  0  0  0  0
  9 11  1  6  0  0  0
  9  1  1  0  0  0  0
 10  2  1  1  0  0  0
 10 12  1  0  0  0  0
 10  3  1  0  0  0  0
 12 16  1  6  0  0  0
 12 14  1  0  0  0  0
 13 16  1  0  0  0  0
 13  6  1  0  0  0  0
 14  1  1  6  0  0  0
 14 15  1  0  0  0  0
 15  7  1  0  0  0  0
 15 22  1  1  0  0  0
 18 22  1  0  0  0  0
 18 25  1  1  0  0  0
 18 21  1  0  0  0  0
 20 23  1  0  0  0  0
 20 19  1  0  0  0  0
 21 26  1  6  0  0  0
 21 24  1  0  0  0  0
 22 20  2  0  0  0  0
 24 19  2  0  0  0  0
 25 21  1  0  0  0  0
 26 27  2  0  0  0  0
 28 26  1  0  0  0  0
 31 30  1  6  0  0  0
 31 29  1  0  0  0  0
 32 31  1  0  0  0  0
 32 33  1  1  0  0  0
 34 32  1  0  0  0  0
 35 36  1  6  0  0  0
 35 42  1  0  0  0  0
 35 39  1  0  0  0  0
 37 41  1  0  0  0  0
 37 40  2  0  0  0  0
 38 39  1  0  0  0  0
 39 34  1  1  0  0  0
 40 38  1  0  0  0  0
 41 36  1  0  0  0  0
 42 39  1  0  0  0  0
 43  6  1  0  0  0  0
 45 44  1  0  0  0  0
 45 43  1  0  0  0  0
 46 45  1  0  0  0  0
 47 48  1  1  0  0  0
 47 46  1  0  0  0  0
 49 52  1  1  0  0  0
 49 53  1  0  0  0  0
 51 50  1  1  0  0  0
 51 49  1  0  0  0  0
 51 53  1  0  0  0  0
 53 47  1  6  0  0  0
 54 55  2  0  0  0  0
 54 49  1  0  0  0  0
 56 57  1  0  0  0  0
 57 47  1  0  0  0  0
M  END
>  <MODEL>
7

>  <REMARK>
 VINA RESULT:      -3.3      4.902     11.936
  Name = 
  14 active torsions:
  status: ('A' for Active; 'I' for Inactive)
    1  A    between atoms: C_1  and  C_10
    2  A    between atoms: C_8  and  O_46
    3  A    between atoms: N_9  and  C_16
    4  A    between atoms: N_9  and  C_33
    5  A    between atoms: C_16  and  C_43
    6  A    between atoms: C_18  and  N_35
    7  A    between atoms: C_18  and  C_54
    8  A    between atoms: C_19  and  N_49
    9  A    between atoms: C_25  and  C_42
   10  A    between atoms: O_28  and  C_54
   11  A    between atoms: C_29  and  C_54
   12  A    between atoms: N_35  and  N_49
   13  A    between atoms: C_37  and  C_45
   14  A    between atoms: C_43  and  O_46
                            x       y       z     vdW  Elec       q    Type
                         _______ _______ _______ _____ _____    ______ ____

>  <TORSDO>
F 14

$$$$
=
 OpenBabel10232409053D

 57 64  0  0  1  0  0  0  0  0999 V2000
  182.9530  179.6380  140.5770 O   0  0  0  0  0  0  0  0  0  0  0  0
  185.9500  180.1410  137.2360 C   0  0  0  0  0  1  0  0  0  0  0  0
  185.2270  177.7640  137.4580 C   0  0  1  0  0  3  0  0  0  0  0  0
  184.3010  176.9600  138.3670 C   0  0  0  0  0  2  0  0  0  0  0  0
  186.2960  177.5880  140.6030 O   0  0  0  0  0  0  0  0  0  0  0  0
  184.9000  178.7770  143.0500 C   0  0  2  0  0  0  0  0  0  0  0  0
  182.3580  177.0680  139.7870 O   0  0  0  0  0  0  0  0  0  0  0  0
  182.9580  177.1860  141.0480 C   0  0  0  0  0  2  0  0  0  0  0  0
  182.7470  178.6130  141.5390 C   0  0  1  0  0  3  0  0  0  0  0  0
  185.8620  178.9590  138.1830 C   0  0  2  0  0  3  0  0  0  0  0  0
  183.3750  178.9350  142.9000 C   0  0  0  0  0  2  0  0  0  0  0  0
  185.1480  179.3760  139.4810 C   0  0  1  0  0  3  0  0  0  0  0  0
  185.5970  179.3420  141.9290 O   0  0  0  0  0  0  0  0  0  0  0  0
  183.6190  179.1770  139.4140 C   0  0  1  0  0  3  0  0  0  0  0  0
  183.1020  177.8060  138.8300 C   0  0  1  0  0  0  0  0  0  0  0  0
  185.7370  178.7150  140.6890 C   0  0  0  0  0  0  0  0  0  0  0  0
  185.2320  177.3010  143.2290 C   0  0  0  0  0  1  0  0  0  0  0  0
  181.7330  179.4760  137.3440 C   0  0  2  0  0  3  0  0  0  0  0  0
  180.9490  177.2560  135.6320 C   0  0  0  0  0  3  0  0  0  0  0  0
  181.8120  177.0300  136.8010 C   0  0  0  0  0  0  0  0  0  0  0  0
  180.7710  179.6580  136.1720 C   0  0  1  0  0  0  0  0  0  0  0  0
  182.1840  178.0490  137.6230 C   0  0  0  0  0  0  0  0  0  0  0  0
  182.2420  175.6190  137.0280 C   0  0  0  0  0  1  0  0  0  0  0  0
  180.4640  178.4560  135.3330 C   0  0  0  0  0  3  0  0  0  0  0  0
  180.2280  179.6010  137.5870 C   0  0  0  0  0  2  0  0  0  0  0  0
  180.7320  181.0260  135.5380 C   0  0  0  0  0  0  0  0  0  0  0  0
  180.9760  181.1500  134.3490 O   0  0  0  0  0  0  0  0  0  0  0  0
  180.4250  182.2510  136.3370 C   0  0  0  0  0  1  0  0  0  0  0  0
  186.2270  176.9300  136.9480 O   0  0  0  0  0  0  0  0  0  0  0  0
  185.2830  177.1840  134.7680 C   0  0  0  0  0  1  0  0  0  0  0  0
  185.6250  176.2240  135.8980 C   0  0  1  0  0  3  0  0  0  0  0  0
  186.5370  175.0900  135.4230 C   0  0  1  0  0  3  0  0  0  0  0  0
  185.8900  174.3180  134.4570 O   0  0  0  0  0  1  0  0  0  0  0  0
  187.7950  175.6060  134.8880 N   0  0  0  0  0  2  0  0  0  0  0  0
  189.2440  173.8100  135.7650 C   0  0  2  0  0  3  0  0  0  0  0  0
  190.7440  173.5670  136.0290 C   0  0  0  0  0  2  0  0  0  0  0  0
  191.2380  175.2210  137.8510 C   0  0  0  0  0  3  0  0  0  0  0  0
  190.0390  176.2770  135.9150 C   0  0  0  0  0  2  0  0  0  0  0  0
  188.8630  175.2860  135.8290 C   0  0  1  0  0  0  0  0  0  0  0  0
  190.7340  176.2990  137.2430 C   0  0  0  0  0  3  0  0  0  0  0  0
  191.1730  173.9130  137.3470 O   0  0  0  0  0  0  0  0  0  0  0  0
  188.4810  174.3580  136.9710 C   0  0  0  0  0  2  0  0  0  0  0  0
  185.3110  179.4560  144.2840 N   0  0  0  0  0  2  0  0  0  0  0  0
  184.5720  178.5830  146.2650 C   0  0  0  0  0  1  0  0  0  0  0  0
  185.6350  178.5120  145.2760 N   0  0  0  0  0  0  0  0  0  0  0  0
  186.8590  178.9690  145.9270 C   0  0  0  0  0  2  0  0  0  0  0  0
  187.9220  177.8500  146.0300 C   0  0  2  0  0  0  0  0  0  0  0  0
  189.2520  178.4160  146.5390 C   0  0  0  0  0  1  0  0  0  0  0  0
  189.6260  176.8430  144.3150 C   0  0  2  0  0  0  0  0  0  0  0  0
  188.8230  178.1220  142.4380 O   0  0  0  0  0  1  0  0  0  0  0  0
  189.1650  178.1950  143.7880 C   0  0  1  0  0  3  0  0  0  0  0  0
  189.7170  175.8320  143.3550 O   0  0  0  0  0  1  0  0  0  0  0  0
  188.2060  177.3170  144.6040 C   0  0  2  0  0  3  0  0  0  0  0  0
  190.6950  176.8870  145.3590 C   0  0  0  0  0  3  0  0  0  0  0  0
  191.6740  176.1680  145.2660 O   0  0  0  0  0  0  0  0  0  0  0  0
  187.8840  177.0440  148.2100 C   0  0  0  0  0  1  0  0  0  0  0  0
  187.4750  176.8030  146.8830 O   0  0  0  0  0  0  0  0  0  0  0  0
  1  9  1  0  0  0  0
  3 29  1  1  0  0  0
  3 10  1  0  0  0  0
  3  4  1  0  0  0  0
  4 15  1  0  0  0  0
  5 16  2  0  0  0  0
  6 17  1  1  0  0  0
  6 43  1  0  0  0  0
  7  8  1  0  0  0  0
  9  8  1  6  0  0  0
  9 11  1  0  0  0  0
 10  2  1  6  0  0  0
 10 12  1  0  0  0  0
 11  6  1  0  0  0  0
 12 16  1  1  0  0  0
 13  6  1  0  0  0  0
 14 12  1  0  0  0  0
 14  1  1  1  0  0  0
 15 22  1  6  0  0  0
 15 14  1  0  0  0  0
 15  7  1  0  0  0  0
 16 13  1  0  0  0  0
 18 25  1  1  0  0  0
 18 22  1  0  0  0  0
 19 20  1  0  0  0  0
 20 23  1  0  0  0  0
 20 22  2  0  0  0  0
 21 26  1  6  0  0  0
 21 18  1  0  0  0  0
 21 25  1  0  0  0  0
 24 19  2  0  0  0  0
 24 21  1  0  0  0  0
 26 28  1  0  0  0  0
 27 26  2  0  0  0  0
 31 30  1  6  0  0  0
 31 29  1  0  0  0  0
 32 33  1  6  0  0  0
 32 31  1  0  0  0  0
 34 32  1  0  0  0  0
 35 39  1  0  0  0  0
 35 36  1  1  0  0  0
 35 42  1  0  0  0  0
 36 41  1  0  0  0  0
 38 40  1  0  0  0  0
 39 34  1  6  0  0  0
 39 38  1  0  0  0  0
 39 42  1  0  0  0  0
 40 37  2  0  0  0  0
 41 37  1  0  0  0  0
 43 45  1  0  0  0  0
 45 46  1  0  0  0  0
 45 44  1  0  0  0  0
 46 47  1  0  0  0  0
 47 48  1  1  0  0  0
 47 57  1  0  0  0  0
 49 52  1  6  0  0  0
 49 53  1  0  0  0  0
 49 54  1  0  0  0  0
 51 50  1  6  0  0  0
 51 49  1  0  0  0  0
 51 53  1  0  0  0  0
 53 47  1  1  0  0  0
 55 54  2  0  0  0  0
 57 56  1  0  0  0  0
M  END
>  <MODEL>
8

>  <REMARK>
 VINA RESULT:      -3.3      4.443      9.765
  Name = 
  14 active torsions:
  status: ('A' for Active; 'I' for Inactive)
    1  A    between atoms: C_1  and  C_10
    2  A    between atoms: C_8  and  O_46
    3  A    between atoms: N_9  and  C_16
    4  A    between atoms: N_9  and  C_33
    5  A    between atoms: C_16  and  C_43
    6  A    between atoms: C_18  and  N_35
    7  A    between atoms: C_18  and  C_54
    8  A    between atoms: C_19  and  N_49
    9  A    between atoms: C_25  and  C_42
   10  A    between atoms: O_28  and  C_54
   11  A    between atoms: C_29  and  C_54
   12  A    between atoms: N_35  and  N_49
   13  A    between atoms: C_37  and  C_45
   14  A    between atoms: C_43  and  O_46
                            x       y       z     vdW  Elec       q    Type
                         _______ _______ _______ _____ _____    ______ ____

>  <TORSDO>
F 14

$$$$
=
 OpenBabel10232409053D

 57 64  0  0  1  0  0  0  0  0999 V2000
  184.6070  179.6670  140.0680 O   0  0  0  0  0  0  0  0  0  0  0  0
  186.3550  179.1880  135.9310 C   0  0  0  0  0  1  0  0  0  0  0  0
  185.2080  177.1030  136.6800 C   0  0  1  0  0  3  0  0  0  0  0  0
  184.4750  176.6210  137.9290 C   0  0  0  0  0  2  0  0  0  0  0  0
  187.1870  176.8050  139.3380 O   0  0  0  0  0  0  0  0  0  0  0  0
  187.0030  178.4430  141.9130 C   0  0  2  0  0  0  0  0  0  0  0  0
  183.1960  177.3120  139.8500 O   0  0  0  0  0  0  0  0  0  0  0  0
  184.1900  177.3290  140.8380 C   0  0  0  0  0  2  0  0  0  0  0  0
  184.4970  178.7840  141.1740 C   0  0  1  0  0  3  0  0  0  0  0  0
  186.3100  178.1200  137.0080 C   0  0  2  0  0  3  0  0  0  0  0  0
  185.5980  178.9940  142.2200 C   0  0  0  0  0  2  0  0  0  0  0  0
  186.1870  178.7760  138.3950 C   0  0  1  0  0  3  0  0  0  0  0  0
  187.4010  178.7450  140.5670 O   0  0  0  0  0  0  0  0  0  0  0  0
  184.7210  178.9890  138.8290 C   0  0  1  0  0  3  0  0  0  0  0  0
  183.7320  177.7770  138.6210 C   0  0  1  0  0  0  0  0  0  0  0  0
  186.9700  178.0430  139.4400 C   0  0  0  0  0  0  0  0  0  0  0  0
  187.0190  176.9430  142.1770 C   0  0  0  0  0  1  0  0  0  0  0  0
  182.1780  179.6710  137.6880 C   0  0  2  0  0  3  0  0  0  0  0  0
  180.7560  177.6800  136.1110 C   0  0  0  0  0  3  0  0  0  0  0  0
  181.8760  177.2860  136.9780 C   0  0  0  0  0  0  0  0  0  0  0  0
  180.9570  180.0290  136.8430 C   0  0  1  0  0  0  0  0  0  0  0  0
  182.5500  178.1960  137.7340 C   0  0  0  0  0  0  0  0  0  0  0  0
  182.2170  175.8330  136.9810 C   0  0  0  0  0  1  0  0  0  0  0  0
  180.3250  178.9340  136.0410 C   0  0  0  0  0  3  0  0  0  0  0  0
  180.8130  179.8810  138.3460 C   0  0  0  0  0  2  0  0  0  0  0  0
  180.8790  181.4490  136.3400 C   0  0  0  0  0  0  0  0  0  0  0  0
  180.9370  181.6710  135.1420 O   0  0  0  0  0  0  0  0  0  0  0  0
  180.7550  182.6060  137.2770 C   0  0  0  0  0  1  0  0  0  0  0  0
  185.7560  176.0080  136.0040 O   0  0  0  0  0  0  0  0  0  0  0  0
  185.2100  173.8890  136.9620 C   0  0  0  0  0  1  0  0  0  0  0  0
  186.1290  175.1010  137.0040 C   0  0  1  0  0  3  0  0  0  0  0  0
  187.6000  174.7040  136.8460 C   0  0  1  0  0  3  0  0  0  0  0  0
  187.7460  173.3220  136.9750 O   0  0  0  0  0  1  0  0  0  0  0  0
  188.1350  175.1440  135.5600 N   0  0  0  0  0  2  0  0  0  0  0  0
  189.7930  176.1630  137.0770 C   0  0  2  0  0  3  0  0  0  0  0  0
  191.1700  175.8140  137.6800 C   0  0  0  0  0  2  0  0  0  0  0  0
  192.6470  175.7890  135.6500 C   0  0  0  0  0  3  0  0  0  0  0  0
  190.5740  174.4100  135.3280 C   0  0  0  0  0  2  0  0  0  0  0  0
  189.5440  175.4800  135.7360 C   0  0  1  0  0  0  0  0  0  0  0  0
  191.9050  174.9600  134.9100 C   0  0  0  0  0  3  0  0  0  0  0  0
  192.2820  176.2790  136.9130 O   0  0  0  0  0  0  0  0  0  0  0  0
  189.8680  176.9650  135.7790 C   0  0  0  0  0  2  0  0  0  0  0  0
  187.9480  179.0490  142.8590 N   0  0  0  0  0  2  0  0  0  0  0  0
  187.4980  177.6630  144.6220 C   0  0  0  0  0  1  0  0  0  0  0  0
  188.5260  178.0570  143.6730 N   0  0  0  0  0  0  0  0  0  0  0  0
  189.5950  178.6920  144.4380 C   0  0  0  0  0  2  0  0  0  0  0  0
  190.9990  178.2860  143.9310 C   0  0  2  0  0  0  0  0  0  0  0  0
  191.9940  179.4370  144.1200 C   0  0  0  0  0  1  0  0  0  0  0  0
  190.7090  176.6070  141.9420 C   0  0  2  0  0  0  0  0  0  0  0  0
  192.3470  177.6640  140.5270 O   0  0  0  0  0  1  0  0  0  0  0  0
  192.0890  177.2410  141.8300 C   0  0  1  0  0  3  0  0  0  0  0  0
  190.0170  176.4770  140.7350 O   0  0  0  0  0  1  0  0  0  0  0  0
  190.9140  178.0460  142.4030 C   0  0  2  0  0  3  0  0  0  0  0  0
  190.5930  175.4800  142.9170 C   0  0  0  0  0  3  0  0  0  0  0  0
  189.5570  174.8450  143.0000 O   0  0  0  0  0  0  0  0  0  0  0  0
  191.2220  177.2240  145.9860 C   0  0  0  0  0  1  0  0  0  0  0  0
  191.4640  177.1210  144.6020 O   0  0  0  0  0  0  0  0  0  0  0  0
  1  9  1  0  0  0  0
  3 29  1  1  0  0  0
  3 10  1  0  0  0  0
  3  4  1  0  0  0  0
  4 15  1  0  0  0  0
  5 16  2  0  0  0  0
  6 17  1  1  0  0  0
  6 11  1  0  0  0  0
  6 43  1  0  0  0  0
  7  8  1  0  0  0  0
  9  8  1  6  0  0  0
  9 11  1  0  0  0  0
 10  2  1  6  0  0  0
 10 12  1  0  0  0  0
 12 14  1  0  0  0  0
 12 16  1  1  0  0  0
 13  6  1  0  0  0  0
 14  1  1  1  0  0  0
 15 22  1  6  0  0  0
 15 14  1  0  0  0  0
 15  7  1  0  0  0  0
 16 13  1  0  0  0  0
 18 22  1  0  0  0  0
 18 25  1  1  0  0  0
 19 20  1  0  0  0  0
 20 23  1  0  0  0  0
 20 22  2  0  0  0  0
 21 26  1  6  0  0  0
 21 18  1  0  0  0  0
 21 25  1  0  0  0  0
 24 19  2  0  0  0  0
 24 21  1  0  0  0  0
 26 28  1  0  0  0  0
 27 26  2  0  0  0  0
 29 31  1  0  0  0  0
 31 30  1  6  0  0  0
 32 33  1  6  0  0  0
 32 31  1  0  0  0  0
 34 32  1  0  0  0  0
 35 42  1  6  0  0  0
 35 36  1  0  0  0  0
 37 41  1  0  0  0  0
 38 39  1  0  0  0  0
 39 34  1  6  0  0  0
 39 42  1  0  0  0  0
 39 35  1  0  0  0  0
 40 38  1  0  0  0  0
 40 37  2  0  0  0  0
 41 36  1  0  0  0  0
 43 45  1  0  0  0  0
 45 46  1  0  0  0  0
 45 44  1  0  0  0  0
 47 48  1  1  0  0  0
 47 46  1  0  0  0  0
 47 57  1  0  0  0  0
 49 52  1  6  0  0  0
 49 53  1  0  0  0  0
 49 54  1  0  0  0  0
 51 50  1  6  0  0  0
 51 49  1  0  0  0  0
 51 53  1  0  0  0  0
 53 47  1  1  0  0  0
 54 55  2  0  0  0  0
 57 56  1  0  0  0  0
M  END
>  <MODEL>
9

>  <REMARK>
 VINA RESULT:      -3.2      4.029      8.526
  Name = 
  14 active torsions:
  status: ('A' for Active; 'I' for Inactive)
    1  A    between atoms: C_1  and  C_10
    2  A    between atoms: C_8  and  O_46
    3  A    between atoms: N_9  and  C_16
    4  A    between atoms: N_9  and  C_33
    5  A    between atoms: C_16  and  C_43
    6  A    between atoms: C_18  and  N_35
    7  A    between atoms: C_18  and  C_54
    8  A    between atoms: C_19  and  N_49
    9  A    between atoms: C_25  and  C_42
   10  A    between atoms: O_28  and  C_54
   11  A    between atoms: C_29  and  C_54
   12  A    between atoms: N_35  and  N_49
   13  A    between atoms: C_37  and  C_45
   14  A    between atoms: C_43  and  O_46
                            x       y       z     vdW  Elec       q    Type
                         _______ _______ _______ _____ _____    ______ ____

>  <TORSDO>
F 14

$$$$
