=
 OpenBabel10232410313D

 43 48  0  0  1  0  0  0  0  0999 V2000
  187.7490  176.9440  136.8810 C   0  0  0  0  0  3  0  0  0  0  0  0
  186.6160  177.8480  138.7750 N   0  0  0  0  0  0  0  0  0  0  0  0
  185.3930  177.5040  136.7490 C   0  0  0  0  0  0  0  0  0  0  0  0
  186.5600  177.0110  136.1520 C   0  0  0  0  0  3  0  0  0  0  0  0
  185.4430  177.9240  138.0860 C   0  0  0  0  0  0  0  0  0  0  0  0
  187.7610  177.3700  138.2120 C   0  0  0  0  0  0  0  0  0  0  0  0
  183.6680  178.9360  141.0570 C   0  0  2  0  0  3  0  0  0  0  0  0
  183.3350  177.4840  140.7860 C   0  0  0  0  0  2  0  0  0  0  0  0
  183.3120  177.3660  139.2740 C   0  0  0  0  0  2  0  0  0  0  0  0
  184.5890  179.3500  139.9290 C   0  0  0  0  0  2  0  0  0  0  0  0
  184.2130  178.4750  138.7460 C   0  0  1  0  0  3  0  0  0  0  0  0
  184.3620  179.0920  142.3660 C   0  0  0  0  0  3  0  0  0  0  0  0
  184.7370  178.0490  143.0360 N   0  0  0  0  0  0  0  0  0  0  0  0
  185.3910  178.1250  144.3060 C   0  0  0  0  0  0  0  0  0  0  0  0
  186.7280  178.2580  146.7710 C   0  0  0  0  0  0  0  0  0  0  0  0
  187.4110  178.2700  148.1060 C   0  0  0  0  0  2  0  0  0  0  0  0
  184.7760  178.7280  145.4180 C   0  0  0  0  0  3  0  0  0  0  0  0
  188.8640  178.2190  147.9430 N   0  0  0  0  0  2  0  0  0  0  0  0
  186.6770  177.5870  144.4390 C   0  0  0  0  0  3  0  0  0  0  0  0
  188.7480  177.1060  145.7670 C   0  0  0  0  0  2  0  0  0  0  0  0
  189.2000  176.9950  147.2210 C   0  0  0  0  0  2  0  0  0  0  0  0
  187.3430  177.6330  145.6680 C   0  0  0  0  0  0  0  0  0  0  0  0
  185.4410  178.7890  146.6470 C   0  0  0  0  0  3  0  0  0  0  0  0
  191.0380  177.2520  139.5670 C   0  0  0  0  0  3  0  0  0  0  0  0
  190.2930  177.0770  140.6700 N   0  0  0  0  0  0  0  0  0  0  0  0
  189.0140  177.0780  140.3430 N   0  0  0  0  0  0  0  0  0  0  0  0
  188.9940  177.2810  139.0110 C   0  0  0  0  0  0  0  0  0  0  0  0
  190.2370  177.3930  138.4860 N   0  0  0  0  0  0  0  0  0  0  0  0
  190.7750  176.8020  141.9550 C   0  0  0  0  0  0  0  0  0  0  0  0
  191.7240  176.2640  144.3870 C   0  0  0  0  0  1  0  0  0  0  0  0
  191.2010  176.5610  143.0560 C   0  0  0  0  0  0  0  0  0  0  0  0
  184.1970  177.5910  136.0320 O   0  0  0  0  0  0  0  0  0  0  0  0
  183.5590  176.4650  135.5550 N   0  0  0  0  0  2  0  0  0  0  0  0
  182.2980  176.8720  135.0990 N   0  0  0  0  0  2  0  0  0  0  0  0
  180.7440  182.3910  137.1650 C   0  0  0  0  0  2  0  0  0  0  0  0
  181.8250  177.8090  136.0290 N   0  0  0  0  0  2  0  0  0  0  0  0
  181.1280  180.8060  138.8890 C   0  0  0  0  0  2  0  0  0  0  0  0
  181.2820  179.3680  134.3870 O   0  0  0  0  0  0  0  0  0  0  0  0
  180.8640  180.0250  136.5900 N   0  0  0  0  0  0  0  0  0  0  0  0
  181.3180  179.0770  135.6140 C   0  0  0  0  0  0  0  0  0  0  0  0
  180.3100  181.3130  136.1740 C   0  0  0  0  0  2  0  0  0  0  0  0
  180.7410  179.6310  137.9890 C   0  0  0  0  0  2  0  0  0  0  0  0
  180.3620  181.9970  138.5190 N   0  0  0  0  0  2  0  0  0  0  0  0
  1  6  1  0  0  0  0
  3  5  2  0  0  0  0
  4  3  1  0  0  0  0
  4  1  2  0  0  0  0
  5  2  1  0  0  0  0
  6  2  2  0  0  0  0
  6 27  1  0  0  0  0
  7 12  1  1  0  0  0
  8  7  1  0  0  0  0
  9  8  1  0  0  0  0
 10  7  1  0  0  0  0
 11  5  1  1  0  0  0
 11  9  1  0  0  0  0
 11 10  1  0  0  0  0
 12 13  2  0  0  0  0
 13 14  1  0  0  0  0
 14 19  2  0  0  0  0
 14 17  1  0  0  0  0
 15 16  1  0  0  0  0
 17 23  2  0  0  0  0
 18 16  1  0  0  0  0
 19 22  1  0  0  0  0
 20 21  1  0  0  0  0
 21 18  1  0  0  0  0
 22 20  1  0  0  0  0
 22 15  2  0  0  0  0
 23 15  1  0  0  0  0
 24 25  1  0  0  0  0
 25 29  1  0  0  0  0
 26 25  1  0  0  0  0
 27 26  2  0  0  0  0
 28 27  1  0  0  0  0
 28 24  2  0  0  0  0
 29 31  3  0  0  0  0
 31 30  1  0  0  0  0
 32  3  1  0  0  0  0
 33 32  1  0  0  0  0
 34 33  1  0  0  0  0
 34 36  1  0  0  0  0
 35 43  1  0  0  0  0
 38 40  2  0  0  0  0
 39 42  1  0  0  0  0
 40 36  1  0  0  0  0
 40 39  1  0  0  0  0
 41 39  1  0  0  0  0
 41 35  1  0  0  0  0
 42 37  1  0  0  0  0
 43 37  1  0  0  0  0
M  END
>  <MODEL>
1

>  <REMARK>
 VINA RESULT:      -9.0      0.000      0.000
  Name = 
  9 active torsions:
  status: ('A' for Active; 'I' for Inactive)
    1  A    between atoms: C_3  and  C_21
    2  A    between atoms: C_4  and  O_32
    3  A    between atoms: N_7  and  C_8
    4  A    between atoms: N_9  and  N_12
    5  A    between atoms: N_9  and  N_18
    6  A    between atoms: C_10  and  N_37
    7  A    between atoms: C_16  and  C_25
    8  A    between atoms: N_18  and  O_32
    9  A    between atoms: C_27  and  C_30
                            x       y       z     vdW  Elec       q    Type
                         _______ _______ _______ _____ _____    ______ ____

>  <TORSDO>
F 9

$$$$
=
 OpenBabel10232410313D

 43 48  0  0  1  0  0  0  0  0999 V2000
  185.7220  175.3110  136.5270 C   0  0  0  0  0  3  0  0  0  0  0  0
  183.9220  176.1610  137.8410 N   0  0  0  0  0  0  0  0  0  0  0  0
  185.8130  177.5640  137.4210 C   0  0  0  0  0  0  0  0  0  0  0  0
  186.3910  176.5270  136.6780 C   0  0  0  0  0  3  0  0  0  0  0  0
  184.5540  177.3570  138.0040 C   0  0  0  0  0  0  0  0  0  0  0  0
  184.4680  175.1420  137.1210 C   0  0  0  0  0  0  0  0  0  0  0  0
  184.1020  179.0470  141.1570 C   0  0  2  0  0  3  0  0  0  0  0  0
  183.0300  177.9840  141.0380 C   0  0  0  0  0  2  0  0  0  0  0  0
  182.6850  177.9420  139.5620 C   0  0  0  0  0  2  0  0  0  0  0  0
  184.8910  178.9610  139.8680 C   0  0  0  0  0  2  0  0  0  0  0  0
  183.9190  178.4430  138.8210 C   0  0  1  0  0  3  0  0  0  0  0  0
  184.9950  178.7810  142.3190 C   0  0  0  0  0  3  0  0  0  0  0  0
  184.5110  178.7340  143.5190 N   0  0  0  0  0  0  0  0  0  0  0  0
  185.3120  178.5030  144.6810 C   0  0  0  0  0  0  0  0  0  0  0  0
  186.9360  178.0440  146.9240 C   0  0  0  0  0  0  0  0  0  0  0  0
  187.7770  177.7360  148.1270 C   0  0  0  0  0  2  0  0  0  0  0  0
  184.8160  178.7310  145.9780 C   0  0  0  0  0  3  0  0  0  0  0  0
  189.2000  177.8340  147.8010 N   0  0  0  0  0  2  0  0  0  0  0  0
  186.6240  178.0410  144.5180 C   0  0  0  0  0  3  0  0  0  0  0  0
  188.8600  177.3590  145.4260 C   0  0  0  0  0  2  0  0  0  0  0  0
  189.4900  176.8830  146.7310 C   0  0  0  0  0  2  0  0  0  0  0  0
  187.4340  177.7920  145.6310 C   0  0  0  0  0  0  0  0  0  0  0  0
  185.6250  178.4970  147.0950 C   0  0  0  0  0  3  0  0  0  0  0  0
  182.1700  172.4460  136.9200 C   0  0  0  0  0  3  0  0  0  0  0  0
  183.2990  171.8590  136.4910 N   0  0  0  0  0  0  0  0  0  0  0  0
  184.2870  172.7340  136.5170 N   0  0  0  0  0  0  0  0  0  0  0  0
  183.7290  173.8800  136.9510 C   0  0  0  0  0  0  0  0  0  0  0  0
  182.4080  173.7440  137.2170 N   0  0  0  0  0  0  0  0  0  0  0  0
  183.4580  170.5020  136.1860 C   0  0  0  0  0  0  0  0  0  0  0  0
  183.7250  167.9140  135.6090 C   0  0  0  0  0  1  0  0  0  0  0  0
  183.5830  169.3330  135.9240 C   0  0  0  0  0  0  0  0  0  0  0  0
  186.4730  178.7830  137.5940 O   0  0  0  0  0  0  0  0  0  0  0  0
  187.4010  179.2370  136.6800 N   0  0  0  0  0  2  0  0  0  0  0  0
  188.6260  179.3310  137.3540 N   0  0  0  0  0  2  0  0  0  0  0  0
  192.5020  174.6310  137.5070 C   0  0  0  0  0  2  0  0  0  0  0  0
  189.4480  178.3260  136.8230 N   0  0  0  0  0  2  0  0  0  0  0  0
  192.4730  175.7700  135.4250 C   0  0  0  0  0  2  0  0  0  0  0  0
  189.4100  177.0710  138.7830 O   0  0  0  0  0  0  0  0  0  0  0  0
  190.6870  176.1900  137.0370 N   0  0  0  0  0  0  0  0  0  0  0  0
  189.8250  177.1890  137.5980 C   0  0  0  0  0  0  0  0  0  0  0  0
  191.0520  175.0040  137.8100 C   0  0  0  0  0  2  0  0  0  0  0  0
  191.0270  176.2320  135.6190 C   0  0  0  0  0  2  0  0  0  0  0  0
  192.6770  174.4700  136.0660 N   0  0  0  0  0  2  0  0  0  0  0  0
  1  4  2  0  0  0  0
  1  6  1  0  0  0  0
  2  5  1  0  0  0  0
  3 32  1  0  0  0  0
  3  5  2  0  0  0  0
  4  3  1  0  0  0  0
  6  2  2  0  0  0  0
  7 12  1  1  0  0  0
  8  7  1  0  0  0  0
  9  8  1  0  0  0  0
 10  7  1  0  0  0  0
 11  5  1  1  0  0  0
 11  9  1  0  0  0  0
 11 10  1  0  0  0  0
 12 13  2  0  0  0  0
 13 14  1  0  0  0  0
 14 17  1  0  0  0  0
 15 23  1  0  0  0  0
 15 16  1  0  0  0  0
 17 23  2  0  0  0  0
 18 16  1  0  0  0  0
 19 14  2  0  0  0  0
 19 22  1  0  0  0  0
 20 22  1  0  0  0  0
 20 21  1  0  0  0  0
 21 18  1  0  0  0  0
 22 15  2  0  0  0  0
 24 28  2  0  0  0  0
 25 26  1  0  0  0  0
 25 24  1  0  0  0  0
 26 27  2  0  0  0  0
 27  6  1  0  0  0  0
 27 28  1  0  0  0  0
 29 25  1  0  0  0  0
 30 31  1  0  0  0  0
 31 29  3  0  0  0  0
 33 34  1  0  0  0  0
 33 32  1  0  0  0  0
 35 41  1  0  0  0  0
 36 34  1  0  0  0  0
 36 40  1  0  0  0  0
 37 42  1  0  0  0  0
 37 43  1  0  0  0  0
 39 40  1  0  0  0  0
 39 41  1  0  0  0  0
 40 38  2  0  0  0  0
 42 39  1  0  0  0  0
 43 35  1  0  0  0  0
M  END
>  <MODEL>
2

>  <REMARK>
 VINA RESULT:      -8.7      3.327      7.159
  Name = 
  9 active torsions:
  status: ('A' for Active; 'I' for Inactive)
    1  A    between atoms: C_3  and  C_21
    2  A    between atoms: C_4  and  O_32
    3  A    between atoms: N_7  and  C_8
    4  A    between atoms: N_9  and  N_12
    5  A    between atoms: N_9  and  N_18
    6  A    between atoms: C_10  and  N_37
    7  A    between atoms: C_16  and  C_25
    8  A    between atoms: N_18  and  O_32
    9  A    between atoms: C_27  and  C_30
                            x       y       z     vdW  Elec       q    Type
                         _______ _______ _______ _____ _____    ______ ____

>  <TORSDO>
F 9

$$$$
=
 OpenBabel10232410313D

 43 48  0  0  1  0  0  0  0  0999 V2000
  183.5870  177.5370  137.6910 C   0  0  0  0  0  3  0  0  0  0  0  0
  185.7720  177.7430  138.6260 N   0  0  0  0  0  0  0  0  0  0  0  0
  185.5480  177.1120  136.3290 C   0  0  0  0  0  0  0  0  0  0  0  0
  184.1560  177.1850  136.4660 C   0  0  0  0  0  3  0  0  0  0  0  0
  186.3530  177.4020  137.4410 C   0  0  0  0  0  0  0  0  0  0  0  0
  184.4200  177.8190  138.7770 C   0  0  0  0  0  0  0  0  0  0  0  0
  189.6150  177.3980  138.9780 C   0  0  2  0  0  3  0  0  0  0  0  0
  189.2880  178.8220  138.5800 C   0  0  0  0  0  2  0  0  0  0  0  0
  188.4920  178.6940  137.2960 C   0  0  0  0  0  2  0  0  0  0  0  0
  188.4280  176.5750  138.5230 C   0  0  0  0  0  2  0  0  0  0  0  0
  187.8460  177.3140  137.3290 C   0  0  1  0  0  3  0  0  0  0  0  0
  189.7810  177.2780  140.4530 C   0  0  0  0  0  3  0  0  0  0  0  0
  188.7510  177.3360  141.2350 N   0  0  0  0  0  0  0  0  0  0  0  0
  188.8400  177.2470  142.6610 C   0  0  0  0  0  0  0  0  0  0  0  0
  189.0780  177.0800  145.4530 C   0  0  0  0  0  0  0  0  0  0  0  0
  189.1930  176.9230  146.9400 C   0  0  0  0  0  2  0  0  0  0  0  0
  187.6980  177.3320  143.4790 C   0  0  0  0  0  3  0  0  0  0  0  0
  190.5210  177.3270  147.4000 N   0  0  0  0  0  2  0  0  0  0  0  0
  190.0980  177.0750  143.2510 C   0  0  0  0  0  3  0  0  0  0  0  0
  191.5920  176.8540  145.2520 C   0  0  0  0  0  2  0  0  0  0  0  0
  191.5110  176.4860  146.7310 C   0  0  0  0  0  2  0  0  0  0  0  0
  190.2230  176.9720  144.6400 C   0  0  0  0  0  0  0  0  0  0  0  0
  187.8180  177.2430  144.8690 C   0  0  0  0  0  3  0  0  0  0  0  0
  182.5270  178.9970  141.5370 C   0  0  0  0  0  3  0  0  0  0  0  0
  183.6200  178.5220  142.1550 N   0  0  0  0  0  0  0  0  0  0  0  0
  184.4620  178.0470  141.2560 N   0  0  0  0  0  0  0  0  0  0  0  0
  183.8450  178.2230  140.0710 C   0  0  0  0  0  0  0  0  0  0  0  0
  182.6350  178.8160  140.2010 N   0  0  0  0  0  0  0  0  0  0  0  0
  183.9050  178.6230  143.5210 C   0  0  0  0  0  0  0  0  0  0  0  0
  184.4780  178.7970  146.1180 C   0  0  0  0  0  1  0  0  0  0  0  0
  184.1610  178.7050  144.6960 C   0  0  0  0  0  0  0  0  0  0  0  0
  186.1370  176.7490  135.1140 O   0  0  0  0  0  0  0  0  0  0  0  0
  185.6340  175.7180  134.3500 N   0  0  0  0  0  2  0  0  0  0  0  0
  186.2810  174.5480  134.7660 N   0  0  0  0  0  2  0  0  0  0  0  0
  191.9100  174.0230  137.0450 C   0  0  0  0  0  2  0  0  0  0  0  0
  187.6310  174.8850  134.9460 N   0  0  0  0  0  2  0  0  0  0  0  0
  191.4470  176.1700  136.1440 C   0  0  0  0  0  2  0  0  0  0  0  0
  188.2020  172.7590  135.7030 O   0  0  0  0  0  0  0  0  0  0  0  0
  189.9440  174.3140  135.6320 N   0  0  0  0  0  0  0  0  0  0  0  0
  188.5760  173.9330  135.4340 C   0  0  0  0  0  0  0  0  0  0  0  0
  190.9280  173.3370  136.0980 C   0  0  0  0  0  2  0  0  0  0  0  0
  190.4170  175.6110  135.1600 C   0  0  0  0  0  2  0  0  0  0  0  0
  192.5020  175.1840  136.3840 N   0  0  0  0  0  2  0  0  0  0  0  0
  1  6  1  0  0  0  0
  2  6  2  0  0  0  0
  3  4  1  0  0  0  0
  3  5  2  0  0  0  0
  4  1  2  0  0  0  0
  5  2  1  0  0  0  0
  6 27  1  0  0  0  0
  7 12  1  1  0  0  0
  8  7  1  0  0  0  0
  9 11  1  0  0  0  0
  9  8  1  0  0  0  0
 10  7  1  0  0  0  0
 11  5  1  1  0  0  0
 11 10  1  0  0  0  0
 12 13  2  0  0  0  0
 13 14  1  0  0  0  0
 14 19  2  0  0  0  0
 14 17  1  0  0  0  0
 15 16  1  0  0  0  0
 16 18  1  0  0  0  0
 17 23  2  0  0  0  0
 19 22  1  0  0  0  0
 20 21  1  0  0  0  0
 21 18  1  0  0  0  0
 22 20  1  0  0  0  0
 22 15  2  0  0  0  0
 23 15  1  0  0  0  0
 24 25  1  0  0  0  0
 25 29  1  0  0  0  0
 26 25  1  0  0  0  0
 27 28  1  0  0  0  0
 27 26  2  0  0  0  0
 28 24  2  0  0  0  0
 29 31  3  0  0  0  0
 31 30  1  0  0  0  0
 32  3  1  0  0  0  0
 33 34  1  0  0  0  0
 33 32  1  0  0  0  0
 34 36  1  0  0  0  0
 36 40  1  0  0  0  0
 37 43  1  0  0  0  0
 39 41  1  0  0  0  0
 40 39  1  0  0  0  0
 40 38  2  0  0  0  0
 41 35  1  0  0  0  0
 42 39  1  0  0  0  0
 42 37  1  0  0  0  0
 43 35  1  0  0  0  0
M  END
>  <MODEL>
3

>  <REMARK>
 VINA RESULT:      -8.6      2.486      6.735
  Name = 
  9 active torsions:
  status: ('A' for Active; 'I' for Inactive)
    1  A    between atoms: C_3  and  C_21
    2  A    between atoms: C_4  and  O_32
    3  A    between atoms: N_7  and  C_8
    4  A    between atoms: N_9  and  N_12
    5  A    between atoms: N_9  and  N_18
    6  A    between atoms: C_10  and  N_37
    7  A    between atoms: C_16  and  C_25
    8  A    between atoms: N_18  and  O_32
    9  A    between atoms: C_27  and  C_30
                            x       y       z     vdW  Elec       q    Type
                         _______ _______ _______ _____ _____    ______ ____

>  <TORSDO>
F 9

$$$$
=
 OpenBabel10232410313D

 43 48  0  0  1  0  0  0  0  0999 V2000
  191.0420  177.0680  141.9010 C   0  0  0  0  0  3  0  0  0  0  0  0
  189.1820  177.4500  140.4580 N   0  0  0  0  0  0  0  0  0  0  0  0
  191.3410  177.0820  139.4950 C   0  0  0  0  0  0  0  0  0  0  0  0
  191.8700  176.9470  140.7840 C   0  0  0  0  0  3  0  0  0  0  0  0
  189.9680  177.3360  139.3500 C   0  0  0  0  0  0  0  0  0  0  0  0
  189.6800  177.3210  141.7190 C   0  0  0  0  0  0  0  0  0  0  0  0
  187.0950  177.7190  137.2060 C   0  0  2  0  0  3  0  0  0  0  0  0
  187.4120  176.2410  137.3030 C   0  0  0  0  0  2  0  0  0  0  0  0
  188.9240  176.1730  137.3960 C   0  0  0  0  0  2  0  0  0  0  0  0
  188.1560  178.4090  138.0370 C   0  0  0  0  0  2  0  0  0  0  0  0
  189.3770  177.5050  137.9830 C   0  0  1  0  0  3  0  0  0  0  0  0
  185.7440  178.0150  137.7580 C   0  0  0  0  0  3  0  0  0  0  0  0
  185.6040  178.3490  139.0010 N   0  0  0  0  0  0  0  0  0  0  0  0
  184.3350  178.6280  139.6020 C   0  0  0  0  0  0  0  0  0  0  0  0
  181.8750  179.1800  140.8360 C   0  0  0  0  0  0  0  0  0  0  0  0
  180.5440  179.4090  141.4870 C   0  0  0  0  0  2  0  0  0  0  0  0
  183.2030  178.9380  138.8260 C   0  0  0  0  0  3  0  0  0  0  0  0
  180.7160  179.8960  142.8560 N   0  0  0  0  0  2  0  0  0  0  0  0
  184.2240  178.5930  140.9970 C   0  0  0  0  0  3  0  0  0  0  0  0
  182.9210  178.8700  143.1210 C   0  0  0  0  0  2  0  0  0  0  0  0
  181.4740  178.8960  143.6040 C   0  0  0  0  0  2  0  0  0  0  0  0
  182.9980  178.8490  141.6190 C   0  0  0  0  0  0  0  0  0  0  0  0
  181.9770  179.2090  139.4410 C   0  0  0  0  0  3  0  0  0  0  0  0
  187.0360  177.5880  144.0700 C   0  0  0  0  0  3  0  0  0  0  0  0
  188.1010  177.5160  144.8840 N   0  0  0  0  0  0  0  0  0  0  0  0
  189.2020  177.4270  144.1600 N   0  0  0  0  0  0  0  0  0  0  0  0
  188.7810  177.4230  142.8810 C   0  0  0  0  0  0  0  0  0  0  0  0
  187.4340  177.5250  142.7790 N   0  0  0  0  0  0  0  0  0  0  0  0
  188.0860  177.6480  146.2770 C   0  0  0  0  0  0  0  0  0  0  0  0
  188.0550  177.9350  148.9270 C   0  0  0  0  0  1  0  0  0  0  0  0
  188.0710  177.7730  147.4750 C   0  0  0  0  0  0  0  0  0  0  0  0
  192.1560  176.9770  138.3640 O   0  0  0  0  0  0  0  0  0  0  0  0
  193.5260  176.8690  138.4710 N   0  0  0  0  0  2  0  0  0  0  0  0
  193.9950  176.3920  137.2400 N   0  0  0  0  0  2  0  0  0  0  0  0
  197.6870  171.6200  136.3810 C   0  0  0  0  0  2  0  0  0  0  0  0
  194.5240  175.1160  137.4860 N   0  0  0  0  0  2  0  0  0  0  0  0
  195.7280  171.0940  137.6120 C   0  0  0  0  0  2  0  0  0  0  0  0
  196.5380  175.5980  136.4220 O   0  0  0  0  0  0  0  0  0  0  0  0
  196.3370  173.4370  137.2860 N   0  0  0  0  0  0  0  0  0  0  0  0
  195.8320  174.7570  137.0420 C   0  0  0  0  0  0  0  0  0  0  0  0
  197.6880  173.0680  136.8660 C   0  0  0  0  0  2  0  0  0  0  0  0
  195.5990  172.5210  138.1500 C   0  0  0  0  0  2  0  0  0  0  0  0
  197.1380  170.7530  137.4210 N   0  0  0  0  0  2  0  0  0  0  0  0
  2  6  2  0  0  0  0
  3  4  1  0  0  0  0
  4  1  2  0  0  0  0
  5  3  2  0  0  0  0
  5  2  1  0  0  0  0
  6  1  1  0  0  0  0
  6 27  1  0  0  0  0
  7  8  1  0  0  0  0
  7 12  1  1  0  0  0
  7 10  1  0  0  0  0
  8  9  1  0  0  0  0
  9 11  1  0  0  0  0
 11 10  1  0  0  0  0
 11  5  1  1  0  0  0
 12 13  2  0  0  0  0
 13 14  1  0  0  0  0
 14 19  1  0  0  0  0
 15 16  1  0  0  0  0
 15 22  1  0  0  0  0
 16 18  1  0  0  0  0
 17 23  1  0  0  0  0
 17 14  2  0  0  0  0
 18 21  1  0  0  0  0
 19 22  2  0  0  0  0
 20 21  1  0  0  0  0
 22 20  1  0  0  0  0
 23 15  2  0  0  0  0
 24 25  1  0  0  0  0
 25 29  1  0  0  0  0
 26 25  1  0  0  0  0
 27 26  2  0  0  0  0
 28 27  1  0  0  0  0
 28 24  2  0  0  0  0
 29 31  3  0  0  0  0
 31 30  1  0  0  0  0
 32 33  1  0  0  0  0
 32  3  1  0  0  0  0
 34 36  1  0  0  0  0
 34 33  1  0  0  0  0
 35 41  1  0  0  0  0
 35 43  1  0  0  0  0
 37 42  1  0  0  0  0
 38 40  2  0  0  0  0
 39 42  1  0  0  0  0
 40 39  1  0  0  0  0
 40 36  1  0  0  0  0
 41 39  1  0  0  0  0
 43 37  1  0  0  0  0
M  END
>  <MODEL>
4

>  <REMARK>
 VINA RESULT:      -8.5      4.393      9.816
  Name = 
  9 active torsions:
  status: ('A' for Active; 'I' for Inactive)
    1  A    between atoms: C_3  and  C_21
    2  A    between atoms: C_4  and  O_32
    3  A    between atoms: N_7  and  C_8
    4  A    between atoms: N_9  and  N_12
    5  A    between atoms: N_9  and  N_18
    6  A    between atoms: C_10  and  N_37
    7  A    between atoms: C_16  and  C_25
    8  A    between atoms: N_18  and  O_32
    9  A    between atoms: C_27  and  C_30
                            x       y       z     vdW  Elec       q    Type
                         _______ _______ _______ _____ _____    ______ ____

>  <TORSDO>
F 9

$$$$
=
 OpenBabel10232410313D

 43 48  0  0  1  0  0  0  0  0999 V2000
  188.5040  176.9240  137.4850 C   0  0  0  0  0  3  0  0  0  0  0  0
  187.2500  177.9440  139.2390 N   0  0  0  0  0  0  0  0  0  0  0  0
  186.1810  177.5260  137.1400 C   0  0  0  0  0  0  0  0  0  0  0  0
  187.3780  176.9800  136.6630 C   0  0  0  0  0  3  0  0  0  0  0  0
  186.1360  178.0100  138.4560 C   0  0  0  0  0  0  0  0  0  0  0  0
  188.4230  177.4150  138.7910 C   0  0  0  0  0  0  0  0  0  0  0  0
  183.9050  178.6930  141.2060 C   0  0  2  0  0  3  0  0  0  0  0  0
  183.4580  177.4030  140.5500 C   0  0  0  0  0  2  0  0  0  0  0  0
  183.7460  177.5970  139.0740 C   0  0  0  0  0  2  0  0  0  0  0  0
  185.0920  179.1620  140.3920 C   0  0  0  0  0  2  0  0  0  0  0  0
  184.8730  178.6190  138.9890 C   0  0  1  0  0  3  0  0  0  0  0  0
  184.3150  178.4630  142.6190 C   0  0  0  0  0  3  0  0  0  0  0  0
  185.5430  178.6520  142.9830 N   0  0  0  0  0  0  0  0  0  0  0  0
  186.0100  178.4320  144.3170 C   0  0  0  0  0  0  0  0  0  0  0  0
  186.9850  177.9980  146.9130 C   0  0  0  0  0  0  0  0  0  0  0  0
  187.4810  177.7010  148.2980 C   0  0  0  0  0  2  0  0  0  0  0  0
  185.1770  178.6320  145.4330 C   0  0  0  0  0  3  0  0  0  0  0  0
  188.9350  177.8450  148.3660 N   0  0  0  0  0  2  0  0  0  0  0  0
  187.3310  178.0100  144.5120 C   0  0  0  0  0  3  0  0  0  0  0  0
  189.2600  177.3850  145.9850 C   0  0  0  0  0  2  0  0  0  0  0  0
  189.5310  176.9140  147.4120 C   0  0  0  0  0  2  0  0  0  0  0  0
  187.8190  177.7740  145.8010 C   0  0  0  0  0  0  0  0  0  0  0  0
  185.6620  178.4100  146.7260 C   0  0  0  0  0  3  0  0  0  0  0  0
  191.5590  177.4890  140.4500 C   0  0  0  0  0  3  0  0  0  0  0  0
  190.7680  176.9830  141.4090 N   0  0  0  0  0  0  0  0  0  0  0  0
  189.5360  176.8680  140.9500 N   0  0  0  0  0  0  0  0  0  0  0  0
  189.5870  177.3400  139.6890 C   0  0  0  0  0  0  0  0  0  0  0  0
  190.8330  177.7360  139.3350 N   0  0  0  0  0  0  0  0  0  0  0  0
  191.1860  176.5180  142.6620 C   0  0  0  0  0  0  0  0  0  0  0  0
  191.9820  175.5970  145.0330 C   0  0  0  0  0  1  0  0  0  0  0  0
  191.5460  176.1060  143.7350 C   0  0  0  0  0  0  0  0  0  0  0  0
  185.0460  177.6030  136.3280 O   0  0  0  0  0  0  0  0  0  0  0  0
  184.5260  176.4860  135.7090 N   0  0  0  0  0  2  0  0  0  0  0  0
  183.1510  176.7060  135.5590 N   0  0  0  0  0  2  0  0  0  0  0  0
  180.3420  171.6530  137.4900 C   0  0  0  0  0  2  0  0  0  0  0  0
  182.5590  175.4390  135.4400 N   0  0  0  0  0  2  0  0  0  0  0  0
  181.4210  171.3960  135.3920 C   0  0  0  0  0  2  0  0  0  0  0  0
  181.3500  175.6690  137.4160 O   0  0  0  0  0  0  0  0  0  0  0  0
  181.0750  173.6420  136.2860 N   0  0  0  0  0  0  0  0  0  0  0  0
  181.6450  174.9520  136.4210 C   0  0  0  0  0  0  0  0  0  0  0  0
  180.1110  173.1470  137.2670 C   0  0  0  0  0  2  0  0  0  0  0  0
  181.2750  172.8820  135.0570 C   0  0  0  0  0  2  0  0  0  0  0  0
  180.2910  170.9510  136.2100 N   0  0  0  0  0  2  0  0  0  0  0  0
  1  6  1  0  0  0  0
  3  5  2  0  0  0  0
  4  3  1  0  0  0  0
  4  1  2  0  0  0  0
  5  2  1  0  0  0  0
  6  2  2  0  0  0  0
  6 27  1  0  0  0  0
  7 12  1  1  0  0  0
  8  7  1  0  0  0  0
  9  8  1  0  0  0  0
 10  7  1  0  0  0  0
 11  5  1  1  0  0  0
 11  9  1  0  0  0  0
 11 10  1  0  0  0  0
 12 13  2  0  0  0  0
 13 14  1  0  0  0  0
 14 19  2  0  0  0  0
 14 17  1  0  0  0  0
 15 16  1  0  0  0  0
 16 18  1  0  0  0  0
 17 23  2  0  0  0  0
 19 22  1  0  0  0  0
 20 21  1  0  0  0  0
 21 18  1  0  0  0  0
 22 20  1  0  0  0  0
 22 15  2  0  0  0  0
 23 15  1  0  0  0  0
 24 25  1  0  0  0  0
 25 29  1  0  0  0  0
 26 25  1  0  0  0  0
 27 26  2  0  0  0  0
 28 27  1  0  0  0  0
 28 24  2  0  0  0  0
 29 31  3  0  0  0  0
 31 30  1  0  0  0  0
 32  3  1  0  0  0  0
 33 32  1  0  0  0  0
 34 33  1  0  0  0  0
 36 34  1  0  0  0  0
 36 40  1  0  0  0  0
 37 43  1  0  0  0  0
 39 40  1  0  0  0  0
 39 41  1  0  0  0  0
 40 38  2  0  0  0  0
 41 35  1  0  0  0  0
 42 37  1  0  0  0  0
 42 39  1  0  0  0  0
 43 35  1  0  0  0  0
M  END
>  <MODEL>
5

>  <REMARK>
 VINA RESULT:      -8.3      2.523      3.656
  Name = 
  9 active torsions:
  status: ('A' for Active; 'I' for Inactive)
    1  A    between atoms: C_3  and  C_21
    2  A    between atoms: C_4  and  O_32
    3  A    between atoms: N_7  and  C_8
    4  A    between atoms: N_9  and  N_12
    5  A    between atoms: N_9  and  N_18
    6  A    between atoms: C_10  and  N_37
    7  A    between atoms: C_16  and  C_25
    8  A    between atoms: N_18  and  O_32
    9  A    between atoms: C_27  and  C_30
                            x       y       z     vdW  Elec       q    Type
                         _______ _______ _______ _____ _____    ______ ____

>  <TORSDO>
F 9

$$$$
=
 OpenBabel10232410313D

 43 48  0  0  1  0  0  0  0  0999 V2000
  183.3930  176.2560  137.4660 C   0  0  0  0  0  3  0  0  0  0  0  0
  181.4410  176.5840  138.7970 N   0  0  0  0  0  0  0  0  0  0  0  0
  183.0500  178.3470  138.6450 C   0  0  0  0  0  0  0  0  0  0  0  0
  183.8240  177.5410  137.8020 C   0  0  0  0  0  3  0  0  0  0  0  0
  181.8390  177.8420  139.1400 C   0  0  0  0  0  0  0  0  0  0  0  0
  182.1800  175.7860  137.9780 C   0  0  0  0  0  0  0  0  0  0  0  0
  181.1710  179.1800  142.4210 C   0  0  2  0  0  3  0  0  0  0  0  0
  180.4070  177.8800  142.2820 C   0  0  0  0  0  2  0  0  0  0  0  0
  179.9890  177.8280  140.8260 C   0  0  0  0  0  2  0  0  0  0  0  0
  181.8690  179.3750  141.0910 C   0  0  0  0  0  2  0  0  0  0  0  0
  180.9980  178.6750  140.0610 C   0  0  1  0  0  3  0  0  0  0  0  0
  182.1770  179.0980  143.5160 C   0  0  0  0  0  3  0  0  0  0  0  0
  183.3380  178.5660  143.3000 N   0  0  0  0  0  0  0  0  0  0  0  0
  184.3430  178.4370  144.3100 C   0  0  0  0  0  0  0  0  0  0  0  0
  186.3590  178.1760  146.2460 C   0  0  0  0  0  0  0  0  0  0  0  0
  187.4110  177.9730  147.2950 C   0  0  0  0  0  2  0  0  0  0  0  0
  184.0920  178.7810  145.6510 C   0  0  0  0  0  3  0  0  0  0  0  0
  188.7480  178.0380  146.7040 N   0  0  0  0  0  2  0  0  0  0  0  0
  185.6080  177.9580  143.9490 C   0  0  0  0  0  3  0  0  0  0  0  0
  187.9820  177.3540  144.4840 C   0  0  0  0  0  2  0  0  0  0  0  0
  188.8490  176.9940  145.6880 C   0  0  0  0  0  2  0  0  0  0  0  0
  186.6130  177.8070  144.9100 C   0  0  0  0  0  0  0  0  0  0  0  0
  185.0950  178.6460  146.6150 C   0  0  0  0  0  3  0  0  0  0  0  0
  180.4680  172.7230  137.4490 C   0  0  0  0  0  3  0  0  0  0  0  0
  181.5980  172.5130  136.7550 N   0  0  0  0  0  0  0  0  0  0  0  0
  182.3810  173.5710  136.8580 N   0  0  0  0  0  0  0  0  0  0  0  0
  181.6890  174.4460  137.6140 C   0  0  0  0  0  0  0  0  0  0  0  0
  180.4900  173.9550  138.0070 N   0  0  0  0  0  0  0  0  0  0  0  0
  181.9690  171.3190  136.1260 C   0  0  0  0  0  0  0  0  0  0  0  0
  182.6480  169.0500  134.9030 C   0  0  0  0  0  1  0  0  0  0  0  0
  182.2800  170.2940  135.5760 C   0  0  0  0  0  0  0  0  0  0  0  0
  183.4710  179.6310  139.0030 O   0  0  0  0  0  0  0  0  0  0  0  0
  184.8030  179.9840  138.9860 N   0  0  0  0  0  2  0  0  0  0  0  0
  185.3910  179.4120  140.1220 N   0  0  0  0  0  2  0  0  0  0  0  0
  191.0940  177.2810  139.8540 C   0  0  0  0  0  2  0  0  0  0  0  0
  186.4400  178.6030  139.6600 N   0  0  0  0  0  2  0  0  0  0  0  0
  189.8090  176.7970  137.9180 C   0  0  0  0  0  2  0  0  0  0  0  0
  187.7050  178.9060  141.5900 O   0  0  0  0  0  0  0  0  0  0  0  0
  188.6750  177.5670  139.9400 N   0  0  0  0  0  0  0  0  0  0  0  0
  187.6070  178.3780  140.4490 C   0  0  0  0  0  0  0  0  0  0  0  0
  189.8600  177.3020  140.7540 C   0  0  0  0  0  2  0  0  0  0  0  0
  188.4950  176.8160  138.7020 C   0  0  0  0  0  2  0  0  0  0  0  0
  190.8980  176.3190  138.7720 N   0  0  0  0  0  2  0  0  0  0  0  0
  1  4  2  0  0  0  0
  1  6  1  0  0  0  0
  2  5  1  0  0  0  0
  3 32  1  0  0  0  0
  3  5  2  0  0  0  0
  4  3  1  0  0  0  0
  6  2  2  0  0  0  0
  7 12  1  1  0  0  0
  8  7  1  0  0  0  0
  9  8  1  0  0  0  0
 10  7  1  0  0  0  0
 11  5  1  6  0  0  0
 11  9  1  0  0  0  0
 11 10  1  0  0  0  0
 13 12  2  0  0  0  0
 13 14  1  0  0  0  0
 14 17  1  0  0  0  0
 15 23  1  0  0  0  0
 15 16  1  0  0  0  0
 17 23  2  0  0  0  0
 18 16  1  0  0  0  0
 19 14  2  0  0  0  0
 19 22  1  0  0  0  0
 20 22  1  0  0  0  0
 20 21  1  0  0  0  0
 21 18  1  0  0  0  0
 22 15  2  0  0  0  0
 24 28  2  0  0  0  0
 25 26  1  0  0  0  0
 25 24  1  0  0  0  0
 26 27  2  0  0  0  0
 27  6  1  0  0  0  0
 27 28  1  0  0  0  0
 29 25  1  0  0  0  0
 30 31  1  0  0  0  0
 31 29  3  0  0  0  0
 33 32  1  0  0  0  0
 33 34  1  0  0  0  0
 35 41  1  0  0  0  0
 36 34  1  0  0  0  0
 36 40  1  0  0  0  0
 37 42  1  0  0  0  0
 37 43  1  0  0  0  0
 39 40  1  0  0  0  0
 39 41  1  0  0  0  0
 40 38  2  0  0  0  0
 42 39  1  0  0  0  0
 43 35  1  0  0  0  0
M  END
>  <MODEL>
6

>  <REMARK>
 VINA RESULT:      -8.3      3.259      7.058
  Name = 
  9 active torsions:
  status: ('A' for Active; 'I' for Inactive)
    1  A    between atoms: C_3  and  C_21
    2  A    between atoms: C_4  and  O_32
    3  A    between atoms: N_7  and  C_8
    4  A    between atoms: N_9  and  N_12
    5  A    between atoms: N_9  and  N_18
    6  A    between atoms: C_10  and  N_37
    7  A    between atoms: C_16  and  C_25
    8  A    between atoms: N_18  and  O_32
    9  A    between atoms: C_27  and  C_30
                            x       y       z     vdW  Elec       q    Type
                         _______ _______ _______ _____ _____    ______ ____

>  <TORSDO>
F 9

$$$$
=
 OpenBabel10232410313D

 43 48  0  0  1  0  0  0  0  0999 V2000
  192.2770  176.3610  138.7270 C   0  0  0  0  0  3  0  0  0  0  0  0
  191.0990  176.8990  136.7230 N   0  0  0  0  0  0  0  0  0  0  0  0
  190.0550  177.3260  138.8330 C   0  0  0  0  0  0  0  0  0  0  0  0
  191.1930  176.8240  139.4750 C   0  0  0  0  0  3  0  0  0  0  0  0
  190.0270  177.3570  137.4300 C   0  0  0  0  0  0  0  0  0  0  0  0
  192.2150  176.4080  137.3310 C   0  0  0  0  0  0  0  0  0  0  0  0
  186.4850  178.0250  137.3530 C   0  0  2  0  0  3  0  0  0  0  0  0
  186.7130  176.6460  136.7710 C   0  0  0  0  0  2  0  0  0  0  0  0
  188.0380  176.7470  136.0400 C   0  0  0  0  0  2  0  0  0  0  0  0
  187.8650  178.5480  137.6910 C   0  0  0  0  0  2  0  0  0  0  0  0
  188.8140  177.8720  136.7150 C   0  0  1  0  0  3  0  0  0  0  0  0
  185.6510  177.9560  138.5850 C   0  0  0  0  0  3  0  0  0  0  0  0
  185.8490  178.7890  139.5570 N   0  0  0  0  0  0  0  0  0  0  0  0
  185.0990  178.7670  140.7750 C   0  0  0  0  0  0  0  0  0  0  0  0
  183.6810  178.7360  143.1980 C   0  0  0  0  0  0  0  0  0  0  0  0
  182.9180  178.6510  144.4860 C   0  0  0  0  0  2  0  0  0  0  0  0
  183.6930  178.8090  140.7770 C   0  0  0  0  0  3  0  0  0  0  0  0
  183.7220  179.1630  145.5960 N   0  0  0  0  0  2  0  0  0  0  0  0
  185.7880  178.7060  141.9930 C   0  0  0  0  0  3  0  0  0  0  0  0
  185.8530  178.6730  144.4990 C   0  0  0  0  0  2  0  0  0  0  0  0
  184.9410  178.3640  145.6840 C   0  0  0  0  0  2  0  0  0  0  0  0
  185.0880  178.6720  143.2040 C   0  0  0  0  0  0  0  0  0  0  0  0
  182.9870  178.7880  141.9850 C   0  0  0  0  0  3  0  0  0  0  0  0
  194.5340  175.2970  134.8860 C   0  0  0  0  0  3  0  0  0  0  0  0
  195.3210  175.3900  135.9690 N   0  0  0  0  0  0  0  0  0  0  0  0
  194.6020  175.7850  137.0040 N   0  0  0  0  0  0  0  0  0  0  0  0
  193.3560  175.9540  136.5200 C   0  0  0  0  0  0  0  0  0  0  0  0
  193.2690  175.6570  135.2020 N   0  0  0  0  0  0  0  0  0  0  0  0
  196.6650  175.0060  136.0470 C   0  0  0  0  0  0  0  0  0  0  0  0
  199.2250  174.2880  136.2300 C   0  0  0  0  0  1  0  0  0  0  0  0
  197.8220  174.6790  136.1250 C   0  0  0  0  0  0  0  0  0  0  0  0
  188.9550  177.7830  139.5640 O   0  0  0  0  0  0  0  0  0  0  0  0
  189.0500  178.0610  140.9110 N   0  0  0  0  0  2  0  0  0  0  0  0
  188.7620  176.8730  141.5950 N   0  0  0  0  0  2  0  0  0  0  0  0
  191.3380  176.3570  147.0940 C   0  0  0  0  0  2  0  0  0  0  0  0
  188.9460  177.1470  142.9590 N   0  0  0  0  0  2  0  0  0  0  0  0
  189.1630  177.3060  147.1500 C   0  0  0  0  0  2  0  0  0  0  0  0
  191.1400  176.3690  142.9590 O   0  0  0  0  0  0  0  0  0  0  0  0
  190.3330  177.1330  145.0130 N   0  0  0  0  0  0  0  0  0  0  0  0
  190.1820  176.8660  143.6120 C   0  0  0  0  0  0  0  0  0  0  0  0
  191.6070  176.8820  145.6860 C   0  0  0  0  0  2  0  0  0  0  0  0
  189.2960  177.8650  145.7320 C   0  0  0  0  0  2  0  0  0  0  0  0
  190.4700  177.2890  147.8100 N   0  0  0  0  0  2  0  0  0  0  0  0
  1  4  1  0  0  0  0
  2  6  1  0  0  0  0
  2  5  2  0  0  0  0
  3  4  2  0  0  0  0
  3 32  1  0  0  0  0
  5  3  1  0  0  0  0
  6  1  2  0  0  0  0
  7 10  1  0  0  0  0
  7 12  1  1  0  0  0
  8  7  1  0  0  0  0
  9 11  1  0  0  0  0
  9  8  1  0  0  0  0
 11  5  1  1  0  0  0
 11 10  1  0  0  0  0
 12 13  2  0  0  0  0
 13 14  1  0  0  0  0
 14 17  2  0  0  0  0
 14 19  1  0  0  0  0
 15 22  1  0  0  0  0
 15 16  1  0  0  0  0
 16 18  1  0  0  0  0
 17 23  1  0  0  0  0
 18 21  1  0  0  0  0
 19 22  2  0  0  0  0
 20 21  1  0  0  0  0
 22 20  1  0  0  0  0
 23 15  2  0  0  0  0
 24 28  2  0  0  0  0
 24 25  1  0  0  0  0
 25 29  1  0  0  0  0
 25 26  1  0  0  0  0
 27 26  2  0  0  0  0
 27  6  1  0  0  0  0
 28 27  1  0  0  0  0
 29 31  3  0  0  0  0
 31 30  1  0  0  0  0
 32 33  1  0  0  0  0
 33 34  1  0  0  0  0
 34 36  1  0  0  0  0
 35 43  1  0  0  0  0
 36 40  1  0  0  0  0
 37 43  1  0  0  0  0
 38 40  2  0  0  0  0
 39 41  1  0  0  0  0
 39 42  1  0  0  0  0
 40 39  1  0  0  0  0
 41 35  1  0  0  0  0
 42 37  1  0  0  0  0
M  END
>  <MODEL>
7

>  <REMARK>
 VINA RESULT:      -8.2      3.594      7.990
  Name = 
  9 active torsions:
  status: ('A' for Active; 'I' for Inactive)
    1  A    between atoms: C_3  and  C_21
    2  A    between atoms: C_4  and  O_32
    3  A    between atoms: N_7  and  C_8
    4  A    between atoms: N_9  and  N_12
    5  A    between atoms: N_9  and  N_18
    6  A    between atoms: C_10  and  N_37
    7  A    between atoms: C_16  and  C_25
    8  A    between atoms: N_18  and  O_32
    9  A    between atoms: C_27  and  C_30
                            x       y       z     vdW  Elec       q    Type
                         _______ _______ _______ _____ _____    ______ ____

>  <TORSDO>
F 9

$$$$
=
 OpenBabel10232410313D

 43 48  0  0  1  0  0  0  0  0999 V2000
  190.7730  177.4090  142.5750 C   0  0  0  0  0  3  0  0  0  0  0  0
  189.4040  177.4190  140.6220 N   0  0  0  0  0  0  0  0  0  0  0  0
  191.7790  177.2910  140.3720 C   0  0  0  0  0  0  0  0  0  0  0  0
  191.9070  177.3260  141.7660 C   0  0  0  0  0  3  0  0  0  0  0  0
  190.4950  177.3370  139.8090 C   0  0  0  0  0  0  0  0  0  0  0  0
  189.5090  177.4530  141.9790 C   0  0  0  0  0  0  0  0  0  0  0  0
  188.3720  177.3460  136.8950 C   0  0  2  0  0  3  0  0  0  0  0  0
  188.6580  175.9050  137.2600 C   0  0  0  0  0  2  0  0  0  0  0  0
  190.0770  175.9130  137.7950 C   0  0  0  0  0  2  0  0  0  0  0  0
  189.1390  178.1720  137.9050 C   0  0  0  0  0  2  0  0  0  0  0  0
  190.3280  177.3210  138.3190 C   0  0  1  0  0  3  0  0  0  0  0  0
  186.9170  177.6470  136.9910 C   0  0  0  0  0  3  0  0  0  0  0  0
  186.3660  177.8530  138.1440 N   0  0  0  0  0  0  0  0  0  0  0  0
  184.9720  178.1270  138.3110 C   0  0  0  0  0  0  0  0  0  0  0  0
  182.2230  178.6050  138.6230 C   0  0  0  0  0  0  0  0  0  0  0  0
  180.7560  178.8970  138.7310 C   0  0  0  0  0  2  0  0  0  0  0  0
  184.5210  179.3000  138.9450 C   0  0  0  0  0  3  0  0  0  0  0  0
  179.9820  177.6560  138.7300 N   0  0  0  0  0  2  0  0  0  0  0  0
  184.0380  177.2010  137.8330 C   0  0  0  0  0  3  0  0  0  0  0  0
  181.6850  176.3980  137.5040 C   0  0  0  0  0  2  0  0  0  0  0  0
  180.2600  176.9450  137.4850 C   0  0  0  0  0  2  0  0  0  0  0  0
  182.6660  177.4400  137.9670 C   0  0  0  0  0  0  0  0  0  0  0  0
  183.1510  179.5390  139.0950 C   0  0  0  0  0  3  0  0  0  0  0  0
  186.9420  177.2580  144.4220 C   0  0  0  0  0  3  0  0  0  0  0  0
  186.3250  177.9490  143.4490 N   0  0  0  0  0  0  0  0  0  0  0  0
  187.1490  178.1040  142.4290 N   0  0  0  0  0  0  0  0  0  0  0  0
  188.2960  177.5100  142.8120 C   0  0  0  0  0  0  0  0  0  0  0  0
  188.2090  176.9660  144.0480 N   0  0  0  0  0  0  0  0  0  0  0  0
  184.9810  178.3370  143.4400 C   0  0  0  0  0  0  0  0  0  0  0  0
  182.4280  179.1030  143.3960 C   0  0  0  0  0  1  0  0  0  0  0  0
  183.8260  178.6800  143.4230 C   0  0  0  0  0  0  0  0  0  0  0  0
  192.9040  177.2210  139.5450 O   0  0  0  0  0  0  0  0  0  0  0  0
  194.1790  177.3580  140.0500 N   0  0  0  0  0  2  0  0  0  0  0  0
  194.8020  176.1080  139.9330 N   0  0  0  0  0  2  0  0  0  0  0  0
  195.0610  172.3790  135.1200 C   0  0  0  0  0  2  0  0  0  0  0  0
  194.4190  175.5910  138.6860 N   0  0  0  0  0  2  0  0  0  0  0  0
  193.8820  174.3940  134.6960 C   0  0  0  0  0  2  0  0  0  0  0  0
  195.4260  173.5300  139.0810 O   0  0  0  0  0  0  0  0  0  0  0  0
  194.3850  173.7710  137.0030 N   0  0  0  0  0  0  0  0  0  0  0  0
  194.7680  174.2640  138.2940 C   0  0  0  0  0  0  0  0  0  0  0  0
  194.7070  172.4010  136.6060 C   0  0  0  0  0  2  0  0  0  0  0  0
  193.4790  174.5480  136.1640 C   0  0  0  0  0  2  0  0  0  0  0  0
  193.9760  172.9760  134.3460 N   0  0  0  0  0  2  0  0  0  0  0  0
  2  6  2  0  0  0  0
  3  4  1  0  0  0  0
  4  1  2  0  0  0  0
  5  3  2  0  0  0  0
  5  2  1  0  0  0  0
  6  1  1  0  0  0  0
  6 27  1  0  0  0  0
  7 12  1  1  0  0  0
  7  8  1  0  0  0  0
  7 10  1  0  0  0  0
  8  9  1  0  0  0  0
  9 11  1  0  0  0  0
 10 11  1  0  0  0  0
 11  5  1  1  0  0  0
 12 13  2  0  0  0  0
 13 14  1  0  0  0  0
 14 17  1  0  0  0  0
 15 16  1  0  0  0  0
 15 23  1  0  0  0  0
 17 23  2  0  0  0  0
 18 16  1  0  0  0  0
 19 22  1  0  0  0  0
 19 14  2  0  0  0  0
 20 22  1  0  0  0  0
 21 20  1  0  0  0  0
 21 18  1  0  0  0  0
 22 15  2  0  0  0  0
 25 24  1  0  0  0  0
 26 27  2  0  0  0  0
 26 25  1  0  0  0  0
 27 28  1  0  0  0  0
 28 24  2  0  0  0  0
 29 25  1  0  0  0  0
 30 31  1  0  0  0  0
 31 29  3  0  0  0  0
 32 33  1  0  0  0  0
 32  3  1  0  0  0  0
 34 33  1  0  0  0  0
 35 41  1  0  0  0  0
 36 34  1  0  0  0  0
 37 42  1  0  0  0  0
 39 40  1  0  0  0  0
 40 36  1  0  0  0  0
 40 38  2  0  0  0  0
 41 39  1  0  0  0  0
 42 39  1  0  0  0  0
 43 37  1  0  0  0  0
 43 35  1  0  0  0  0
M  END
>  <MODEL>
8

>  <REMARK>
 VINA RESULT:      -7.9      3.944     10.000
  Name = 
  9 active torsions:
  status: ('A' for Active; 'I' for Inactive)
    1  A    between atoms: C_3  and  C_21
    2  A    between atoms: C_4  and  O_32
    3  A    between atoms: N_7  and  C_8
    4  A    between atoms: N_9  and  N_12
    5  A    between atoms: N_9  and  N_18
    6  A    between atoms: C_10  and  N_37
    7  A    between atoms: C_16  and  C_25
    8  A    between atoms: N_18  and  O_32
    9  A    between atoms: C_27  and  C_30
                            x       y       z     vdW  Elec       q    Type
                         _______ _______ _______ _____ _____    ______ ____

>  <TORSDO>
F 9

$$$$
=
 OpenBabel10232410313D

 43 48  0  0  1  0  0  0  0  0999 V2000
  182.6770  178.7700  142.6000 C   0  0  0  0  0  3  0  0  0  0  0  0
  184.8680  178.1270  141.9110 N   0  0  0  0  0  0  0  0  0  0  0  0
  184.5570  179.0060  144.1140 C   0  0  0  0  0  0  0  0  0  0  0  0
  183.1900  179.1430  143.8440 C   0  0  0  0  0  3  0  0  0  0  0  0
  185.3950  178.4840  143.1170 C   0  0  0  0  0  0  0  0  0  0  0  0
  183.5410  178.2530  141.6310 C   0  0  0  0  0  0  0  0  0  0  0  0
  188.6910  177.5440  141.9970 C   0  0  2  0  0  3  0  0  0  0  0  0
  188.0700  176.3450  142.6830 C   0  0  0  0  0  2  0  0  0  0  0  0
  187.2310  176.9280  143.8030 C   0  0  0  0  0  2  0  0  0  0  0  0
  187.6570  178.6450  142.1090 C   0  0  0  0  0  2  0  0  0  0  0  0
  186.8660  178.3430  143.3710 C   0  0  1  0  0  3  0  0  0  0  0  0
  188.9750  177.2550  140.5640 C   0  0  0  0  0  3  0  0  0  0  0  0
  190.1660  176.9110  140.1900 N   0  0  0  0  0  0  0  0  0  0  0  0
  190.5130  176.6380  138.8290 C   0  0  0  0  0  0  0  0  0  0  0  0
  191.2540  176.0890  136.1770 C   0  0  0  0  0  0  0  0  0  0  0  0
  191.6480  175.8630  134.7480 C   0  0  0  0  0  2  0  0  0  0  0  0
  189.5320  176.4940  137.8310 C   0  0  0  0  0  3  0  0  0  0  0  0
  192.9520  175.2030  134.6700 N   0  0  0  0  0  2  0  0  0  0  0  0
  191.8650  176.5090  138.4880 C   0  0  0  0  0  3  0  0  0  0  0  0
  193.6980  176.0540  136.8390 C   0  0  0  0  0  2  0  0  0  0  0  0
  193.9360  176.0570  135.3310 C   0  0  0  0  0  2  0  0  0  0  0  0
  192.2440  176.2540  137.1660 C   0  0  0  0  0  0  0  0  0  0  0  0
  189.9020  176.2250  136.5090 C   0  0  0  0  0  3  0  0  0  0  0  0
  181.7210  177.1300  138.7990 C   0  0  0  0  0  3  0  0  0  0  0  0
  182.9280  177.3640  138.2580 N   0  0  0  0  0  0  0  0  0  0  0  0
  183.7570  177.7840  139.1960 N   0  0  0  0  0  0  0  0  0  0  0  0
  183.0200  177.8230  140.3230 C   0  0  0  0  0  0  0  0  0  0  0  0
  181.7440  177.4210  140.1200 N   0  0  0  0  0  0  0  0  0  0  0  0
  183.3070  177.0870  136.9400 C   0  0  0  0  0  0  0  0  0  0  0  0
  184.0610  176.5820  134.4340 C   0  0  0  0  0  1  0  0  0  0  0  0
  183.6450  176.8550  135.8070 C   0  0  0  0  0  0  0  0  0  0  0  0
  185.0920  179.3860  145.3480 O   0  0  0  0  0  0  0  0  0  0  0  0
  184.9220  178.6120  146.4760 N   0  0  0  0  0  2  0  0  0  0  0  0
  185.9260  178.9830  147.3800 N   0  0  0  0  0  2  0  0  0  0  0  0
  191.5990  176.7590  147.4830 C   0  0  0  0  0  2  0  0  0  0  0  0
  187.1350  178.5230  146.8390 N   0  0  0  0  0  2  0  0  0  0  0  0
  191.0280  177.8080  145.4320 C   0  0  0  0  0  2  0  0  0  0  0  0
  187.7060  177.3440  148.7640 O   0  0  0  0  0  0  0  0  0  0  0  0
  189.2570  177.2530  147.0200 N   0  0  0  0  0  0  0  0  0  0  0  0
  188.0150  177.6880  147.5900 C   0  0  0  0  0  0  0  0  0  0  0  0
  190.1500  176.3700  147.7680 C   0  0  0  0  0  2  0  0  0  0  0  0
  189.5400  177.5010  145.6100 C   0  0  0  0  0  2  0  0  0  0  0  0
  191.8360  176.7510  146.0420 N   0  0  0  0  0  2  0  0  0  0  0  0
  1  4  1  0  0  0  0
  2  5  2  0  0  0  0
  3 32  1  0  0  0  0
  4  3  2  0  0  0  0
  5  3  1  0  0  0  0
  6  2  1  0  0  0  0
  6  1  2  0  0  0  0
  7 12  1  6  0  0  0
  7 10  1  0  0  0  0
  7  8  1  0  0  0  0
  8  9  1  0  0  0  0
 10 11  1  0  0  0  0
 11  5  1  6  0  0  0
 11  9  1  0  0  0  0
 13 12  2  0  0  0  0
 14 13  1  0  0  0  0
 15 23  2  0  0  0  0
 15 22  1  0  0  0  0
 16 15  1  0  0  0  0
 17 14  2  0  0  0  0
 18 16  1  0  0  0  0
 18 21  1  0  0  0  0
 19 14  1  0  0  0  0
 20 22  1  0  0  0  0
 21 20  1  0  0  0  0
 22 19  2  0  0  0  0
 23 17  1  0  0  0  0
 24 28  2  0  0  0  0
 25 24  1  0  0  0  0
 25 26  1  0  0  0  0
 26 27  2  0  0  0  0
 27  6  1  0  0  0  0
 28 27  1  0  0  0  0
 29 25  1  0  0  0  0
 30 31  1  0  0  0  0
 31 29  3  0  0  0  0
 32 33  1  0  0  0  0
 33 34  1  0  0  0  0
 35 41  1  0  0  0  0
 36 34  1  0  0  0  0
 36 40  1  0  0  0  0
 37 42  1  0  0  0  0
 37 43  1  0  0  0  0
 39 40  1  0  0  0  0
 39 41  1  0  0  0  0
 40 38  2  0  0  0  0
 42 39  1  0  0  0  0
 43 35  1  0  0  0  0
M  END
>  <MODEL>
9

>  <REMARK>
 VINA RESULT:      -7.9      3.520     10.259
  Name = 
  9 active torsions:
  status: ('A' for Active; 'I' for Inactive)
    1  A    between atoms: C_3  and  C_21
    2  A    between atoms: C_4  and  O_32
    3  A    between atoms: N_7  and  C_8
    4  A    between atoms: N_9  and  N_12
    5  A    between atoms: N_9  and  N_18
    6  A    between atoms: C_10  and  N_37
    7  A    between atoms: C_16  and  C_25
    8  A    between atoms: N_18  and  O_32
    9  A    between atoms: C_27  and  C_30
                            x       y       z     vdW  Elec       q    Type
                         _______ _______ _______ _____ _____    ______ ____

>  <TORSDO>
F 9

$$$$
