=
 OpenBabel10232408503D

 25 27  0  0  1  0  0  0  0  0999 V2000
  186.7400  177.4290  145.0940 C   0  0  0  0  0  3  0  0  0  0  0  0
  185.9580  179.2660  147.0880 N   0  0  0  0  0  0  0  0  0  0  0  0
  187.2260  178.1270  148.6720 O   0  0  0  0  0  0  0  0  0  0  0  0
  186.8760  178.2360  147.4670 C   0  0  0  0  0  0  0  0  0  0  0  0
  187.3940  177.2550  146.4400 C   0  0  2  0  0  3  0  0  0  0  0  0
  185.8700  178.4110  144.8220 C   0  0  0  0  0  0  0  0  0  0  0  0
  185.4870  179.3650  145.8820 C   0  0  0  0  0  3  0  0  0  0  0  0
  190.4250  177.1750  144.3250 C   0  0  0  0  0  3  0  0  0  0  0  0
  191.0690  176.4990  147.2730 C   0  0  0  0  0  3  0  0  0  0  0  0
  191.4890  176.5240  144.7960 C   0  0  0  0  0  3  0  0  0  0  0  0
  188.8890  177.2710  146.2960 C   0  0  0  0  0  0  0  0  0  0  0  0
  189.5410  178.0280  145.1730 C   0  0  0  0  0  2  0  0  0  0  0  0
  189.6030  176.6580  147.2460 C   0  0  0  0  0  3  0  0  0  0  0  0
  191.8850  176.4430  146.2130 C   0  0  0  0  0  3  0  0  0  0  0  0
  183.3400  178.6410  142.0210 C   0  0  0  0  0  0  0  0  0  0  0  0
  186.0810  178.5700  142.3700 N   0  0  0  0  0  0  0  0  0  0  0  0
  183.8880  178.5480  143.3060 C   0  0  0  0  0  3  0  0  0  0  0  0
  185.2780  178.5130  143.4710 C   0  0  0  0  0  0  0  0  0  0  0  0
  184.1920  178.6950  140.9170 C   0  0  0  0  0  3  0  0  0  0  0  0
  185.5740  178.6560  141.1070 C   0  0  0  0  0  0  0  0  0  0  0  0
  181.0350  179.0510  142.7550 C   0  0  0  0  0  2  0  0  0  0  0  0
  181.8890  178.6990  141.8000 C   0  0  0  0  0  3  0  0  0  0  0  0
  186.4180  178.7080  139.9930 O   0  0  0  0  0  0  0  0  0  0  0  0
  187.7920  178.3450  140.0470 C   0  0  0  0  0  2  0  0  0  0  0  0
  188.2770  177.9290  138.6710 C   0  0  0  0  0  1  0  0  0  0  0  0
  1  5  1  0  0  0  0
  2  4  1  0  0  0  0
  4  3  2  0  0  0  0
  5 11  1  6  0  0  0
  5  4  1  0  0  0  0
  6  1  2  0  0  0  0
  6  7  1  0  0  0  0
  7  2  2  0  0  0  0
  8 10  2  0  0  0  0
  8 12  1  0  0  0  0
 10 14  1  0  0  0  0
 11 13  2  0  0  0  0
 12 11  1  0  0  0  0
 13  9  1  0  0  0  0
 14  9  2  0  0  0  0
 15 17  1  0  0  0  0
 16 18  1  0  0  0  0
 17 18  2  0  0  0  0
 18  6  1  0  0  0  0
 19 20  1  0  0  0  0
 19 15  2  0  0  0  0
 20 16  2  0  0  0  0
 22 15  1  0  0  0  0
 22 21  2  0  0  0  0
 23 24  1  0  0  0  0
 23 20  1  0  0  0  0
 25 24  1  0  0  0  0
M  END
>  <MODEL>
1

>  <REMARK>
 VINA RESULT:      -9.3      0.000      0.000
  Name = 
  5 active torsions:
  status: ('A' for Active; 'I' for Inactive)
    1  A    between atoms: C_1  and  O_21
    2  A    between atoms: C_4  and  C_19
    3  A    between atoms: C_9  and  C_16
    4  A    between atoms: C_13  and  C_20
    5  A    between atoms: O_21  and  C_24
                            x       y       z     vdW  Elec       q    Type
                         _______ _______ _______ _____ _____    ______ ____

>  <TORSDO>
F 5

$$$$
=
 OpenBabel10232408503D

 25 27  0  0  1  0  0  0  0  0999 V2000
  187.2730  177.4880  142.9900 C   0  0  0  0  0  3  0  0  0  0  0  0
  185.1040  179.2930  143.0260 N   0  0  0  0  0  0  0  0  0  0  0  0
  184.4710  178.5310  145.1320 O   0  0  0  0  0  0  0  0  0  0  0  0
  185.3040  178.4820  144.1880 C   0  0  0  0  0  0  0  0  0  0  0  0
  186.4830  177.5400  144.2720 C   0  0  2  0  0  3  0  0  0  0  0  0
  187.0090  178.2680  141.9340 C   0  0  0  0  0  0  0  0  0  0  0  0
  185.8750  179.2110  141.9840 C   0  0  0  0  0  3  0  0  0  0  0  0
  189.7140  177.0880  146.0110 C   0  0  0  0  0  3  0  0  0  0  0  0
  187.5340  178.1800  147.9130 C   0  0  0  0  0  3  0  0  0  0  0  0
  189.6960  177.0330  147.3440 C   0  0  0  0  0  3  0  0  0  0  0  0
  187.3950  177.8220  145.4320 C   0  0  0  0  0  0  0  0  0  0  0  0
  188.8680  178.0250  145.2150 C   0  0  0  0  0  2  0  0  0  0  0  0
  186.8300  177.9630  146.6360 C   0  0  0  0  0  3  0  0  0  0  0  0
  188.7750  177.7800  148.2180 C   0  0  0  0  0  3  0  0  0  0  0  0
  189.9140  177.5400  139.6240 C   0  0  0  0  0  0  0  0  0  0  0  0
  187.3500  178.5660  139.5100 N   0  0  0  0  0  0  0  0  0  0  0  0
  189.1380  177.6360  140.7860 C   0  0  0  0  0  3  0  0  0  0  0  0
  187.8390  178.1560  140.7150 C   0  0  0  0  0  0  0  0  0  0  0  0
  189.3820  177.9700  138.4080 C   0  0  0  0  0  3  0  0  0  0  0  0
  188.0870  178.4880  138.3640 C   0  0  0  0  0  0  0  0  0  0  0  0
  191.8640  176.4980  138.5600 C   0  0  0  0  0  2  0  0  0  0  0  0
  191.2740  176.9830  139.6460 C   0  0  0  0  0  3  0  0  0  0  0  0
  187.5640  178.9190  137.1410 O   0  0  0  0  0  0  0  0  0  0  0  0
  187.2510  178.0280  136.0770 C   0  0  0  0  0  2  0  0  0  0  0  0
  185.9320  177.3300  136.3510 C   0  0  0  0  0  1  0  0  0  0  0  0
  1  5  1  0  0  0  0
  2  4  1  0  0  0  0
  4  5  1  0  0  0  0
  4  3  2  0  0  0  0
  5 11  1  1  0  0  0
  6  7  1  0  0  0  0
  6  1  2  0  0  0  0
  7  2  2  0  0  0  0
  8 10  2  0  0  0  0
  9 14  2  0  0  0  0
 10 14  1  0  0  0  0
 11 13  2  0  0  0  0
 12 11  1  0  0  0  0
 12  8  1  0  0  0  0
 13  9  1  0  0  0  0
 15 22  1  0  0  0  0
 15 17  1  0  0  0  0
 16 18  1  0  0  0  0
 18 17  2  0  0  0  0
 18  6  1  0  0  0  0
 19 15  2  0  0  0  0
 20 19  1  0  0  0  0
 20 16  2  0  0  0  0
 21 22  2  0  0  0  0
 23 20  1  0  0  0  0
 24 25  1  0  0  0  0
 24 23  1  0  0  0  0
M  END
>  <MODEL>
2

>  <REMARK>
 VINA RESULT:      -8.9      2.243      4.795
  Name = 
  5 active torsions:
  status: ('A' for Active; 'I' for Inactive)
    1  A    between atoms: C_1  and  O_21
    2  A    between atoms: C_4  and  C_19
    3  A    between atoms: C_9  and  C_16
    4  A    between atoms: C_13  and  C_20
    5  A    between atoms: O_21  and  C_24
                            x       y       z     vdW  Elec       q    Type
                         _______ _______ _______ _____ _____    ______ ____

>  <TORSDO>
F 5

$$$$
=
 OpenBabel10232408503D

 25 27  0  0  1  0  0  0  0  0999 V2000
  189.7480  178.0390  143.3730 C   0  0  0  0  0  3  0  0  0  0  0  0
  191.5840  176.0660  144.2070 N   0  0  0  0  0  0  0  0  0  0  0  0
  191.4920  176.8660  146.3910 O   0  0  0  0  0  0  0  0  0  0  0  0
  191.0590  176.9410  145.2100 C   0  0  0  0  0  0  0  0  0  0  0  0
  190.0190  177.9790  144.8530 C   0  0  2  0  0  3  0  0  0  0  0  0
  190.2980  177.1950  142.4910 C   0  0  0  0  0  0  0  0  0  0  0  0
  191.2480  176.1650  142.9570 C   0  0  0  0  0  3  0  0  0  0  0  0
  186.3270  178.1040  144.9860 C   0  0  0  0  0  3  0  0  0  0  0  0
  187.5750  178.1590  147.8140 C   0  0  0  0  0  3  0  0  0  0  0  0
  185.7640  178.5370  146.1150 C   0  0  0  0  0  3  0  0  0  0  0  0
  188.7320  177.8230  145.6110 C   0  0  0  0  0  0  0  0  0  0  0  0
  187.5260  177.2150  144.9520 C   0  0  0  0  0  2  0  0  0  0  0  0
  188.7340  178.1710  146.9030 C   0  0  0  0  0  3  0  0  0  0  0  0
  186.2900  178.3150  147.4730 C   0  0  0  0  0  3  0  0  0  0  0  0
  190.5650  177.0240  138.7230 C   0  0  0  0  0  0  0  0  0  0  0  0
  188.7810  177.8550  140.6620 N   0  0  0  0  0  0  0  0  0  0  0  0
  190.8850  176.8960  140.0800 C   0  0  0  0  0  3  0  0  0  0  0  0
  189.9720  177.3200  141.0540 C   0  0  0  0  0  0  0  0  0  0  0  0
  189.3380  177.5780  138.3580 C   0  0  0  0  0  3  0  0  0  0  0  0
  188.4460  177.9960  139.3470 C   0  0  0  0  0  0  0  0  0  0  0  0
  192.7850  176.4120  137.8740 C   0  0  0  0  0  2  0  0  0  0  0  0
  191.4830  176.5750  137.6660 C   0  0  0  0  0  3  0  0  0  0  0  0
  187.2200  178.5520  138.9710 O   0  0  0  0  0  0  0  0  0  0  0  0
  186.4700  178.0880  137.8550 C   0  0  0  0  0  2  0  0  0  0  0  0
  184.9890  178.0880  138.1830 C   0  0  0  0  0  1  0  0  0  0  0  0
  1  5  1  0  0  0  0
  2  4  1  0  0  0  0
  4  3  2  0  0  0  0
  5  4  1  0  0  0  0
  5 11  1  1  0  0  0
  6  7  1  0  0  0  0
  6  1  2  0  0  0  0
  7  2  2  0  0  0  0
  8 10  2  0  0  0  0
 10 14  1  0  0  0  0
 11 13  2  0  0  0  0
 12  8  1  0  0  0  0
 12 11  1  0  0  0  0
 13  9  1  0  0  0  0
 14  9  2  0  0  0  0
 15 17  1  0  0  0  0
 16 18  1  0  0  0  0
 17 18  2  0  0  0  0
 18  6  1  0  0  0  0
 19 15  2  0  0  0  0
 19 20  1  0  0  0  0
 20 16  2  0  0  0  0
 22 21  2  0  0  0  0
 22 15  1  0  0  0  0
 23 20  1  0  0  0  0
 24 25  1  0  0  0  0
 24 23  1  0  0  0  0
M  END
>  <MODEL>
3

>  <REMARK>
 VINA RESULT:      -8.8      2.903      5.773
  Name = 
  5 active torsions:
  status: ('A' for Active; 'I' for Inactive)
    1  A    between atoms: C_1  and  O_21
    2  A    between atoms: C_4  and  C_19
    3  A    between atoms: C_9  and  C_16
    4  A    between atoms: C_13  and  C_20
    5  A    between atoms: O_21  and  C_24
                            x       y       z     vdW  Elec       q    Type
                         _______ _______ _______ _____ _____    ______ ____

>  <TORSDO>
F 5

$$$$
=
 OpenBabel10232408503D

 25 27  0  0  1  0  0  0  0  0999 V2000
  188.7170  178.4530  143.0800 C   0  0  0  0  0  3  0  0  0  0  0  0
  189.9980  177.0330  141.0050 N   0  0  0  0  0  0  0  0  0  0  0  0
  192.0300  177.1680  142.1320 O   0  0  0  0  0  0  0  0  0  0  0  0
  190.7920  177.4020  142.1370 C   0  0  0  0  0  0  0  0  0  0  0  0
  190.1630  178.1040  143.3190 C   0  0  2  0  0  3  0  0  0  0  0  0
  188.0460  178.0880  141.9800 C   0  0  0  0  0  0  0  0  0  0  0  0
  188.7380  177.3360  140.9150 C   0  0  0  0  0  3  0  0  0  0  0  0
  189.1660  177.5130  146.8290 C   0  0  0  0  0  3  0  0  0  0  0  0
  191.9190  176.2560  146.1950 C   0  0  0  0  0  3  0  0  0  0  0  0
  190.1230  177.1710  147.6940 C   0  0  0  0  0  3  0  0  0  0  0  0
  190.3090  177.3520  144.6110 C   0  0  0  0  0  0  0  0  0  0  0  0
  189.1000  176.9970  145.4300 C   0  0  0  0  0  2  0  0  0  0  0  0
  191.5380  176.9490  144.9500 C   0  0  0  0  0  3  0  0  0  0  0  0
  191.3050  176.3500  147.3800 C   0  0  0  0  0  3  0  0  0  0  0  0
  184.4030  178.7420  142.7580 C   0  0  0  0  0  0  0  0  0  0  0  0
  186.1520  178.8970  140.6240 N   0  0  0  0  0  0  0  0  0  0  0  0
  185.7480  178.3830  142.9170 C   0  0  0  0  0  3  0  0  0  0  0  0
  186.6250  178.4670  141.8280 C   0  0  0  0  0  0  0  0  0  0  0  0
  183.9540  179.1750  141.5110 C   0  0  0  0  0  3  0  0  0  0  0  0
  184.8460  179.2470  140.4400 C   0  0  0  0  0  0  0  0  0  0  0  0
  182.1440  178.8500  143.7080 C   0  0  0  0  0  2  0  0  0  0  0  0
  183.4510  178.6880  143.8760 C   0  0  0  0  0  3  0  0  0  0  0  0
  184.3840  179.6800  139.1940 O   0  0  0  0  0  0  0  0  0  0  0  0
  183.0870  179.3710  138.6990 C   0  0  0  0  0  2  0  0  0  0  0  0
  182.2560  180.6340  138.5850 C   0  0  0  0  0  1  0  0  0  0  0  0
  1  5  1  0  0  0  0
  2  4  1  0  0  0  0
  3  4  2  0  0  0  0
  4  5  1  0  0  0  0
  5 11  1  1  0  0  0
  6  1  2  0  0  0  0
  7  2  2  0  0  0  0
  7  6  1  0  0  0  0
  8 10  2  0  0  0  0
  9 14  2  0  0  0  0
 11 13  2  0  0  0  0
 11 12  1  0  0  0  0
 12  8  1  0  0  0  0
 13  9  1  0  0  0  0
 14 10  1  0  0  0  0
 15 17  1  0  0  0  0
 15 22  1  0  0  0  0
 16 18  1  0  0  0  0
 18  6  1  0  0  0  0
 18 17  2  0  0  0  0
 19 15  2  0  0  0  0
 20 16  2  0  0  0  0
 20 19  1  0  0  0  0
 21 22  2  0  0  0  0
 23 20  1  0  0  0  0
 24 23  1  0  0  0  0
 25 24  1  0  0  0  0
M  END
>  <MODEL>
4

>  <REMARK>
 VINA RESULT:      -8.6      2.580      3.923
  Name = 
  5 active torsions:
  status: ('A' for Active; 'I' for Inactive)
    1  A    between atoms: C_1  and  O_21
    2  A    between atoms: C_4  and  C_19
    3  A    between atoms: C_9  and  C_16
    4  A    between atoms: C_13  and  C_20
    5  A    between atoms: O_21  and  C_24
                            x       y       z     vdW  Elec       q    Type
                         _______ _______ _______ _____ _____    ______ ____

>  <TORSDO>
F 5

$$$$
=
 OpenBabel10232408503D

 25 27  0  0  1  0  0  0  0  0999 V2000
  189.7740  178.0030  143.3780 C   0  0  0  0  0  3  0  0  0  0  0  0
  191.5400  176.1100  144.5010 N   0  0  0  0  0  0  0  0  0  0  0  0
  191.1600  176.9780  146.6270 O   0  0  0  0  0  0  0  0  0  0  0  0
  190.8740  177.0020  145.4000 C   0  0  0  0  0  0  0  0  0  0  0  0
  189.8630  177.9990  144.8820 C   0  0  2  0  0  3  0  0  0  0  0  0
  190.4480  177.1450  142.6010 C   0  0  0  0  0  0  0  0  0  0  0  0
  191.3580  176.1580  143.2160 C   0  0  0  0  0  3  0  0  0  0  0  0
  186.1800  178.0390  144.5590 C   0  0  0  0  0  3  0  0  0  0  0  0
  187.0720  178.2000  147.5160 C   0  0  0  0  0  3  0  0  0  0  0  0
  185.4740  178.4880  145.5980 C   0  0  0  0  0  3  0  0  0  0  0  0
  188.4960  177.8330  145.4810 C   0  0  0  0  0  0  0  0  0  0  0  0
  187.3920  177.1790  144.6980 C   0  0  0  0  0  2  0  0  0  0  0  0
  188.3330  178.2140  146.7530 C   0  0  0  0  0  3  0  0  0  0  0  0
  185.8350  178.3150  147.0170 C   0  0  0  0  0  3  0  0  0  0  0  0
  188.9390  177.6080  139.1650 C   0  0  0  0  0  0  0  0  0  0  0  0
  191.3600  176.9420  140.3180 N   0  0  0  0  0  0  0  0  0  0  0  0
  189.0670  177.5510  140.5580 C   0  0  0  0  0  3  0  0  0  0  0  0
  190.2990  177.2130  141.1310 C   0  0  0  0  0  0  0  0  0  0  0  0
  190.0450  177.3220  138.3640 C   0  0  0  0  0  3  0  0  0  0  0  0
  191.2610  176.9850  138.9580 C   0  0  0  0  0  0  0  0  0  0  0  0
  187.6030  178.3640  137.2500 C   0  0  0  0  0  2  0  0  0  0  0  0
  187.6710  177.9770  138.5190 C   0  0  0  0  0  3  0  0  0  0  0  0
  192.3620  176.6980  138.1460 O   0  0  0  0  0  0  0  0  0  0  0  0
  192.2760  175.8780  136.9880 C   0  0  0  0  0  2  0  0  0  0  0  0
  192.2220  174.4150  137.3850 C   0  0  0  0  0  1  0  0  0  0  0  0
  1  5  1  0  0  0  0
  2  4  1  0  0  0  0
  4  3  2  0  0  0  0
  5  4  1  0  0  0  0
  5 11  1  1  0  0  0
  6  7  1  0  0  0  0
  6  1  2  0  0  0  0
  7  2  2  0  0  0  0
  8 12  1  0  0  0  0
  8 10  2  0  0  0  0
 10 14  1  0  0  0  0
 11 13  2  0  0  0  0
 12 11  1  0  0  0  0
 13  9  1  0  0  0  0
 14  9  2  0  0  0  0
 15 17  1  0  0  0  0
 16 18  1  0  0  0  0
 17 18  2  0  0  0  0
 18  6  1  0  0  0  0
 19 20  1  0  0  0  0
 19 15  2  0  0  0  0
 20 16  2  0  0  0  0
 21 22  2  0  0  0  0
 22 15  1  0  0  0  0
 23 20  1  0  0  0  0
 24 25  1  0  0  0  0
 24 23  1  0  0  0  0
M  END
>  <MODEL>
5

>  <REMARK>
 VINA RESULT:      -8.5      3.314      5.563
  Name = 
  5 active torsions:
  status: ('A' for Active; 'I' for Inactive)
    1  A    between atoms: C_1  and  O_21
    2  A    between atoms: C_4  and  C_19
    3  A    between atoms: C_9  and  C_16
    4  A    between atoms: C_13  and  C_20
    5  A    between atoms: O_21  and  C_24
                            x       y       z     vdW  Elec       q    Type
                         _______ _______ _______ _____ _____    ______ ____

>  <TORSDO>
F 5

$$$$
=
 OpenBabel10232408503D

 25 27  0  0  1  0  0  0  0  0999 V2000
  189.8440  178.0630  143.7520 C   0  0  0  0  0  3  0  0  0  0  0  0
  191.7410  176.0180  144.1710 N   0  0  0  0  0  0  0  0  0  0  0  0
  192.0360  176.7060  146.3750 O   0  0  0  0  0  0  0  0  0  0  0  0
  191.4140  176.8490  145.2880 C   0  0  0  0  0  0  0  0  0  0  0  0
  190.3580  177.9230  145.1610 C   0  0  2  0  0  3  0  0  0  0  0  0
  190.2160  177.2550  142.7510 C   0  0  0  0  0  0  0  0  0  0  0  0
  191.2030  176.1860  143.0010 C   0  0  0  0  0  3  0  0  0  0  0  0
  186.7490  178.1500  145.9320 C   0  0  0  0  0  3  0  0  0  0  0  0
  188.4580  177.9640  148.5020 C   0  0  0  0  0  3  0  0  0  0  0  0
  186.4030  178.5180  147.1670 C   0  0  0  0  0  3  0  0  0  0  0  0
  189.2110  177.7520  146.1170 C   0  0  0  0  0  0  0  0  0  0  0  0
  187.8860  177.2300  145.6360 C   0  0  0  0  0  2  0  0  0  0  0  0
  189.4460  178.0060  147.4080 C   0  0  0  0  0  3  0  0  0  0  0  0
  187.1420  178.1830  148.3980 C   0  0  0  0  0  3  0  0  0  0  0  0
  187.8290  178.1060  139.9450 C   0  0  0  0  0  0  0  0  0  0  0  0
  190.4130  177.1920  140.2940 N   0  0  0  0  0  0  0  0  0  0  0  0
  188.3460  177.9220  141.2320 C   0  0  0  0  0  3  0  0  0  0  0  0
  189.6580  177.4590  141.3970 C   0  0  0  0  0  0  0  0  0  0  0  0
  188.6300  177.8210  138.8380 C   0  0  0  0  0  3  0  0  0  0  0  0
  189.9320  177.3580  139.0280 C   0  0  0  0  0  0  0  0  0  0  0  0
  185.6300  178.8680  140.7220 C   0  0  0  0  0  2  0  0  0  0  0  0
  186.4660  178.6080  139.7230 C   0  0  0  0  0  3  0  0  0  0  0  0
  190.7250  177.0730  137.9130 O   0  0  0  0  0  0  0  0  0  0  0  0
  191.6140  175.9630  137.8580 C   0  0  0  0  0  2  0  0  0  0  0  0
  193.0420  176.4450  137.6850 C   0  0  0  0  0  1  0  0  0  0  0  0
  1  5  1  0  0  0  0
  2  4  1  0  0  0  0
  4  3  2  0  0  0  0
  5  4  1  0  0  0  0
  5 11  1  1  0  0  0
  6  7  1  0  0  0  0
  6  1  2  0  0  0  0
  7  2  2  0  0  0  0
  8 10  2  0  0  0  0
 10 14  1  0  0  0  0
 11 13  2  0  0  0  0
 12  8  1  0  0  0  0
 12 11  1  0  0  0  0
 13  9  1  0  0  0  0
 14  9  2  0  0  0  0
 15 17  1  0  0  0  0
 16 18  1  0  0  0  0
 17 18  2  0  0  0  0
 18  6  1  0  0  0  0
 19 20  1  0  0  0  0
 19 15  2  0  0  0  0
 20 16  2  0  0  0  0
 22 15  1  0  0  0  0
 22 21  2  0  0  0  0
 23 20  1  0  0  0  0
 24 23  1  0  0  0  0
 25 24  1  0  0  0  0
M  END
>  <MODEL>
6

>  <REMARK>
 VINA RESULT:      -8.5      2.958      4.830
  Name = 
  5 active torsions:
  status: ('A' for Active; 'I' for Inactive)
    1  A    between atoms: C_1  and  O_21
    2  A    between atoms: C_4  and  C_19
    3  A    between atoms: C_9  and  C_16
    4  A    between atoms: C_13  and  C_20
    5  A    between atoms: O_21  and  C_24
                            x       y       z     vdW  Elec       q    Type
                         _______ _______ _______ _____ _____    ______ ____

>  <TORSDO>
F 5

$$$$
=
 OpenBabel10232408503D

 25 27  0  0  1  0  0  0  0  0999 V2000
  189.2150  176.9220  142.1460 C   0  0  0  0  0  3  0  0  0  0  0  0
  191.6420  178.2300  142.7480 N   0  0  0  0  0  0  0  0  0  0  0  0
  192.6430  177.2910  140.8680 O   0  0  0  0  0  0  0  0  0  0  0  0
  191.5960  177.4460  141.5510 C   0  0  0  0  0  0  0  0  0  0  0  0
  190.3130  176.7700  141.1260 C   0  0  2  0  0  3  0  0  0  0  0  0
  189.3420  177.6600  143.2570 C   0  0  0  0  0  0  0  0  0  0  0  0
  190.6200  178.3420  143.5410 C   0  0  0  0  0  3  0  0  0  0  0  0
  187.6280  178.0420  138.9250 C   0  0  0  0  0  3  0  0  0  0  0  0
  189.9340  176.7760  137.3010 C   0  0  0  0  0  3  0  0  0  0  0  0
  187.5840  177.5800  137.6750 C   0  0  0  0  0  3  0  0  0  0  0  0
  189.8270  177.2050  139.7720 C   0  0  0  0  0  0  0  0  0  0  0  0
  188.8980  178.3780  139.6340 C   0  0  0  0  0  2  0  0  0  0  0  0
  190.3160  176.5590  138.7090 C   0  0  0  0  0  3  0  0  0  0  0  0
  188.7540  177.2200  136.8540 C   0  0  0  0  0  3  0  0  0  0  0  0
  187.3510  177.7600  146.4700 C   0  0  0  0  0  0  0  0  0  0  0  0
  186.9410  177.9400  143.7430 N   0  0  0  0  0  0  0  0  0  0  0  0
  188.4310  177.6670  145.5840 C   0  0  0  0  0  3  0  0  0  0  0  0
  188.2110  177.7610  144.2040 C   0  0  0  0  0  0  0  0  0  0  0  0
  186.0640  177.9420  145.9630 C   0  0  0  0  0  3  0  0  0  0  0  0
  185.8700  178.0290  144.5840 C   0  0  0  0  0  0  0  0  0  0  0  0
  188.6750  178.0250  148.5190 C   0  0  0  0  0  2  0  0  0  0  0  0
  187.5360  177.6870  147.9260 C   0  0  0  0  0  3  0  0  0  0  0  0
  184.5760  178.2090  144.0860 O   0  0  0  0  0  0  0  0  0  0  0  0
  183.5480  178.8630  144.8200 C   0  0  0  0  0  2  0  0  0  0  0  0
  182.2360  178.7880  144.0640 C   0  0  0  0  0  1  0  0  0  0  0  0
  1  6  2  0  0  0  0
  2  7  2  0  0  0  0
  3  4  2  0  0  0  0
  4  2  1  0  0  0  0
  5 11  1  6  0  0  0
  5  4  1  0  0  0  0
  5  1  1  0  0  0  0
  6  7  1  0  0  0  0
  6 18  1  0  0  0  0
  8 12  1  0  0  0  0
  9 13  1  0  0  0  0
 10  8  2  0  0  0  0
 12 11  1  0  0  0  0
 13 11  2  0  0  0  0
 14  9  2  0  0  0  0
 14 10  1  0  0  0  0
 15 22  1  0  0  0  0
 16 18  1  0  0  0  0
 16 20  2  0  0  0  0
 17 15  1  0  0  0  0
 18 17  2  0  0  0  0
 19 15  2  0  0  0  0
 20 19  1  0  0  0  0
 22 21  2  0  0  0  0
 23 20  1  0  0  0  0
 23 24  1  0  0  0  0
 25 24  1  0  0  0  0
M  END
>  <MODEL>
7

>  <REMARK>
 VINA RESULT:      -8.5      2.580      6.817
  Name = 
  5 active torsions:
  status: ('A' for Active; 'I' for Inactive)
    1  A    between atoms: C_1  and  O_21
    2  A    between atoms: C_4  and  C_19
    3  A    between atoms: C_9  and  C_16
    4  A    between atoms: C_13  and  C_20
    5  A    between atoms: O_21  and  C_24
                            x       y       z     vdW  Elec       q    Type
                         _______ _______ _______ _____ _____    ______ ____

>  <TORSDO>
F 5

$$$$
=
 OpenBabel10232408503D

 25 27  0  0  1  0  0  0  0  0999 V2000
  189.0810  176.9790  141.9590 C   0  0  0  0  0  3  0  0  0  0  0  0
  191.4930  178.1750  142.8060 N   0  0  0  0  0  0  0  0  0  0  0  0
  192.6320  177.2000  141.0260 O   0  0  0  0  0  0  0  0  0  0  0  0
  191.5310  177.3990  141.6050 C   0  0  0  0  0  0  0  0  0  0  0  0
  190.2660  176.7820  141.0500 C   0  0  2  0  0  3  0  0  0  0  0  0
  189.1320  177.7050  143.0830 C   0  0  0  0  0  0  0  0  0  0  0  0
  190.4040  178.3290  143.4970 C   0  0  0  0  0  3  0  0  0  0  0  0
  187.8470  178.1100  138.5900 C   0  0  0  0  0  3  0  0  0  0  0  0
  190.3130  176.8560  137.2080 C   0  0  0  0  0  3  0  0  0  0  0  0
  187.9390  177.6700  137.3340 C   0  0  0  0  0  3  0  0  0  0  0  0
  189.9350  177.2430  139.6590 C   0  0  0  0  0  0  0  0  0  0  0  0
  189.0330  178.4250  139.4400 C   0  0  0  0  0  2  0  0  0  0  0  0
  190.5360  176.6130  138.6450 C   0  0  0  0  0  3  0  0  0  0  0  0
  189.1910  177.3160  136.6410 C   0  0  0  0  0  3  0  0  0  0  0  0
  185.5270  178.1920  144.1190 C   0  0  0  0  0  0  0  0  0  0  0  0
  188.0070  177.8040  145.2760 N   0  0  0  0  0  0  0  0  0  0  0  0
  186.6670  178.0500  143.3190 C   0  0  0  0  0  3  0  0  0  0  0  0
  187.9190  177.8530  143.9160 C   0  0  0  0  0  0  0  0  0  0  0  0
  185.6560  178.1390  145.5080 C   0  0  0  0  0  3  0  0  0  0  0  0
  186.9140  177.9450  146.0800 C   0  0  0  0  0  0  0  0  0  0  0  0
  183.2030  178.9750  144.1970 C   0  0  0  0  0  2  0  0  0  0  0  0
  184.1910  178.3810  143.5370 C   0  0  0  0  0  3  0  0  0  0  0  0
  187.0310  177.8960  147.4720 O   0  0  0  0  0  0  0  0  0  0  0  0
  188.1250  177.2730  148.1340 C   0  0  0  0  0  2  0  0  0  0  0  0
  189.1260  178.3190  148.5880 C   0  0  0  0  0  1  0  0  0  0  0  0
  1  6  2  0  0  0  0
  2  7  2  0  0  0  0
  3  4  2  0  0  0  0
  4  2  1  0  0  0  0
  5 11  1  6  0  0  0
  5  4  1  0  0  0  0
  5  1  1  0  0  0  0
  6  7  1  0  0  0  0
  6 18  1  0  0  0  0
  8 12  1  0  0  0  0
  9 13  1  0  0  0  0
 10  8  2  0  0  0  0
 12 11  1  0  0  0  0
 13 11  2  0  0  0  0
 14  9  2  0  0  0  0
 14 10  1  0  0  0  0
 15 19  2  0  0  0  0
 16 20  2  0  0  0  0
 17 18  2  0  0  0  0
 17 15  1  0  0  0  0
 18 16  1  0  0  0  0
 19 20  1  0  0  0  0
 20 23  1  0  0  0  0
 22 15  1  0  0  0  0
 22 21  2  0  0  0  0
 23 24  1  0  0  0  0
 24 25  1  0  0  0  0
M  END
>  <MODEL>
8

>  <REMARK>
 VINA RESULT:      -8.4      2.511      6.587
  Name = 
  5 active torsions:
  status: ('A' for Active; 'I' for Inactive)
    1  A    between atoms: C_1  and  O_21
    2  A    between atoms: C_4  and  C_19
    3  A    between atoms: C_9  and  C_16
    4  A    between atoms: C_13  and  C_20
    5  A    between atoms: O_21  and  C_24
                            x       y       z     vdW  Elec       q    Type
                         _______ _______ _______ _____ _____    ______ ____

>  <TORSDO>
F 5

$$$$
=
 OpenBabel10232408503D

 25 27  0  0  1  0  0  0  0  0999 V2000
  186.4240  177.7290  143.7280 C   0  0  0  0  0  3  0  0  0  0  0  0
  184.4480  179.6320  144.3890 N   0  0  0  0  0  0  0  0  0  0  0  0
  184.3750  178.8350  146.5750 O   0  0  0  0  0  0  0  0  0  0  0  0
  184.9140  178.7770  145.4380 C   0  0  0  0  0  0  0  0  0  0  0  0
  186.0190  177.7780  145.1780 C   0  0  2  0  0  3  0  0  0  0  0  0
  185.9240  178.5530  142.7990 C   0  0  0  0  0  0  0  0  0  0  0  0
  184.8990  179.5460  143.1740 C   0  0  0  0  0  3  0  0  0  0  0  0
  189.5260  176.9970  146.0490 C   0  0  0  0  0  3  0  0  0  0  0  0
  188.0480  178.3810  148.3860 C   0  0  0  0  0  3  0  0  0  0  0  0
  189.8510  176.9760  147.3430 C   0  0  0  0  0  3  0  0  0  0  0  0
  187.2270  177.9810  146.0480 C   0  0  0  0  0  0  0  0  0  0  0  0
  188.6050  178.0060  145.4480 C   0  0  0  0  0  2  0  0  0  0  0  0
  187.0150  178.2160  147.3470 C   0  0  0  0  0  3  0  0  0  0  0  0
  189.2750  177.8470  148.3830 C   0  0  0  0  0  3  0  0  0  0  0  0
  188.1630  178.1910  139.7730 C   0  0  0  0  0  0  0  0  0  0  0  0
  185.4820  178.4870  140.3730 N   0  0  0  0  0  0  0  0  0  0  0  0
  187.7430  178.2920  141.1040 C   0  0  0  0  0  3  0  0  0  0  0  0
  186.3820  178.4410  141.3970 C   0  0  0  0  0  0  0  0  0  0  0  0
  187.2150  178.2440  138.7500 C   0  0  0  0  0  3  0  0  0  0  0  0
  185.8640  178.3960  139.0670 C   0  0  0  0  0  0  0  0  0  0  0  0
  190.1310  176.8180  139.2590 C   0  0  0  0  0  2  0  0  0  0  0  0
  189.5780  178.0150  139.4190 C   0  0  0  0  0  3  0  0  0  0  0  0
  184.9230  178.4510  138.0350 O   0  0  0  0  0  0  0  0  0  0  0  0
  184.6830  177.3650  137.1470 C   0  0  0  0  0  2  0  0  0  0  0  0
  183.6810  176.4030  137.7560 C   0  0  0  0  0  1  0  0  0  0  0  0
  1  5  1  0  0  0  0
  2  4  1  0  0  0  0
  4  3  2  0  0  0  0
  5  4  1  0  0  0  0
  5 11  1  1  0  0  0
  6  7  1  0  0  0  0
  6  1  2  0  0  0  0
  7  2  2  0  0  0  0
  8 10  2  0  0  0  0
 10 14  1  0  0  0  0
 11 13  2  0  0  0  0
 12 11  1  0  0  0  0
 12  8  1  0  0  0  0
 13  9  1  0  0  0  0
 14  9  2  0  0  0  0
 15 17  1  0  0  0  0
 16 18  1  0  0  0  0
 17 18  2  0  0  0  0
 18  6  1  0  0  0  0
 19 20  1  0  0  0  0
 19 15  2  0  0  0  0
 20 16  2  0  0  0  0
 21 22  2  0  0  0  0
 22 15  1  0  0  0  0
 23 20  1  0  0  0  0
 24 25  1  0  0  0  0
 24 23  1  0  0  0  0
M  END
>  <MODEL>
9

>  <REMARK>
 VINA RESULT:      -8.4      1.964      3.969
  Name = 
  5 active torsions:
  status: ('A' for Active; 'I' for Inactive)
    1  A    between atoms: C_1  and  O_21
    2  A    between atoms: C_4  and  C_19
    3  A    between atoms: C_9  and  C_16
    4  A    between atoms: C_13  and  C_20
    5  A    between atoms: O_21  and  C_24
                            x       y       z     vdW  Elec       q    Type
                         _______ _______ _______ _____ _____    ______ ____

>  <TORSDO>
F 5

$$$$
