=
 OpenBabel10232407493D

 32 34  0  0  1  0  0  0  0  0999 V2000
  184.3130  178.5050  143.9560 C   0  0  0  0  0  3  0  0  0  0  0  0
  187.1550  178.8350  139.9050 N   0  0  0  0  0  2  0  0  0  0  0  0
  183.4830  178.9500  140.3890 C   0  0  0  0  0  0  0  0  0  0  0  0
  179.9830  179.3610  139.1880 N   0  0  0  0  0  1  0  0  0  0  0  0
  185.8820  178.7410  140.5500 C   0  0  0  0  0  0  0  0  0  0  0  0
  184.4540  178.5190  142.6260 C   0  0  0  0  0  0  0  0  0  0  0  0
  185.7990  178.2750  141.9860 C   0  0  0  0  0  2  0  0  0  0  0  0
  183.2750  178.7270  141.7590 C   0  0  0  0  0  0  0  0  0  0  0  0
  180.8770  178.9310  141.4160 C   0  0  0  0  0  3  0  0  0  0  0  0
  181.9650  178.7230  142.2680 C   0  0  0  0  0  3  0  0  0  0  0  0
  182.3910  179.1630  139.5410 C   0  0  0  0  0  3  0  0  0  0  0  0
  181.0910  179.1490  140.0530 C   0  0  0  0  0  0  0  0  0  0  0  0
  184.8120  179.0000  139.8550 N   0  0  0  0  0  0  0  0  0  0  0  0
  186.3330  178.1440  145.6270 C   0  0  0  0  0  0  0  0  0  0  0  0
  185.4060  178.3030  144.8730 C   0  0  0  0  0  0  0  0  0  0  0  0
  189.7530  177.2910  146.8770 C   0  0  0  0  0  0  0  0  0  0  0  0
  187.4470  177.9650  146.5140 C   0  0  0  0  0  0  0  0  0  0  0  0
  189.6170  177.6000  148.2400 C   0  0  0  0  0  3  0  0  0  0  0  0
  188.6620  177.4770  146.0200 C   0  0  0  0  0  3  0  0  0  0  0  0
  187.3190  178.2730  147.8720 C   0  0  0  0  0  3  0  0  0  0  0  0
  188.4040  178.0910  148.7350 C   0  0  0  0  0  3  0  0  0  0  0  0
  191.8830  176.0520  147.1190 C   0  0  0  0  0  1  0  0  0  0  0  0
  190.9530  176.8020  146.3490 O   0  0  0  0  0  0  0  0  0  0  0  0
  188.3560  178.4960  140.5470 N   0  0  0  0  0  2  0  0  0  0  0  0
  188.9200  177.3490  139.8530 C   0  0  0  0  0  2  0  0  0  0  0  0
  190.0770  176.8070  140.6330 C   0  0  0  0  0  0  0  0  0  0  0  0
  190.9350  176.1530  140.0590 O   0  0  0  0  0  0  0  0  0  0  0  0
  190.1940  177.0350  142.1110 C   0  0  1  0  0  3  0  0  0  0  0  0
  188.3270  175.8600  143.0340 O   0  0  0  0  0  1  0  0  0  0  0  0
  189.7160  175.8270  142.9060 C   0  0  0  0  0  2  0  0  0  0  0  0
  191.8390  178.0880  143.4320 O   0  0  0  0  0  0  0  0  0  0  0  0
  191.6050  177.3720  142.4700 C   0  0  0  0  0  3  0  0  0  0  0  0
  1 15  1  0  0  0  0
  2 24  1  0  0  0  0
  2  5  1  0  0  0  0
  3  8  1  0  0  0  0
  4 12  1  0  0  0  0
  5  7  1  0  0  0  0
  6  1  2  0  0  0  0
  7  6  1  0  0  0  0
  8 10  2  0  0  0  0
  8  6  1  0  0  0  0
  9 10  1  0  0  0  0
 11 12  1  0  0  0  0
 11  3  2  0  0  0  0
 12  9  2  0  0  0  0
 13  3  1  0  0  0  0
 13  5  2  0  0  0  0
 14 17  1  0  0  0  0
 15 14  3  0  0  0  0
 16 18  1  0  0  0  0
 17 20  2  0  0  0  0
 18 21  2  0  0  0  0
 19 17  1  0  0  0  0
 19 16  2  0  0  0  0
 20 21  1  0  0  0  0
 23 16  1  0  0  0  0
 23 22  1  0  0  0  0
 25 24  1  0  0  0  0
 25 26  1  0  0  0  0
 26 28  1  0  0  0  0
 27 26  2  0  0  0  0
 28 32  1  6  0  0  0
 28 30  1  0  0  0  0
 30 29  1  0  0  0  0
 32 31  2  0  0  0  0
M  END
>  <MODEL>
1

>  <REMARK>
 VINA RESULT:      -9.2      0.000      0.000
  Name = 
  9 active torsions:
  status: ('A' for Active; 'I' for Inactive)
    1  A    between atoms: C_1  and  C_17
    2  A    between atoms: C_1  and  C_20
    3  A    between atoms: C_3  and  C_19
    4  A    between atoms: N_5  and  N_22
    5  A    between atoms: C_7  and  C_16
    6  A    between atoms: C_11  and  O_15
    7  A    between atoms: C_12  and  C_20
    8  A    between atoms: C_17  and  N_22
    9  A    between atoms: C_20  and  C_27
                            x       y       z     vdW  Elec       q    Type
                         _______ _______ _______ _____ _____    ______ ____

>  <TORSDO>
F 9

$$$$
=
 OpenBabel10232407493D

 32 34  0  0  1  0  0  0  0  0999 V2000
  186.9560  177.7040  145.2710 C   0  0  0  0  0  3  0  0  0  0  0  0
  189.8050  176.9460  141.2820 N   0  0  0  0  0  2  0  0  0  0  0  0
  190.5210  176.8200  144.9160 C   0  0  0  0  0  0  0  0  0  0  0  0
  192.7280  176.2020  147.8510 N   0  0  0  0  0  1  0  0  0  0  0  0
  189.6210  177.0920  142.6930 C   0  0  0  0  0  0  0  0  0  0  0  0
  188.1580  177.5340  144.7090 C   0  0  0  0  0  0  0  0  0  0  0  0
  188.3550  177.7250  143.2250 C   0  0  0  0  0  2  0  0  0  0  0  0
  189.3280  177.2010  145.5500 C   0  0  0  0  0  0  0  0  0  0  0  0
  190.3980  176.9120  147.7130 C   0  0  0  0  0  3  0  0  0  0  0  0
  189.2720  177.2410  146.9540 C   0  0  0  0  0  3  0  0  0  0  0  0
  191.6440  176.4860  145.6810 C   0  0  0  0  0  3  0  0  0  0  0  0
  191.5830  176.5370  147.0770 C   0  0  0  0  0  0  0  0  0  0  0  0
  190.5880  176.7310  143.4870 N   0  0  0  0  0  0  0  0  0  0  0  0
  184.7720  178.2920  143.8970 C   0  0  0  0  0  0  0  0  0  0  0  0
  185.7670  178.0350  144.5280 C   0  0  0  0  0  0  0  0  0  0  0  0
  182.4670  178.7890  140.9940 C   0  0  0  0  0  0  0  0  0  0  0  0
  183.5880  178.5820  143.1410 C   0  0  0  0  0  0  0  0  0  0  0  0
  181.2870  179.1600  141.6590 C   0  0  0  0  0  3  0  0  0  0  0  0
  183.6150  178.5010  141.7430 C   0  0  0  0  0  3  0  0  0  0  0  0
  182.4090  178.9500  143.7960 C   0  0  0  0  0  3  0  0  0  0  0  0
  181.2590  179.2400  143.0560 C   0  0  0  0  0  3  0  0  0  0  0  0
  182.5300  179.8380  138.7530 C   0  0  0  0  0  1  0  0  0  0  0  0
  182.5280  178.6970  139.6000 O   0  0  0  0  0  0  0  0  0  0  0  0
  188.8560  177.3810  140.3460 N   0  0  0  0  0  2  0  0  0  0  0  0
  189.5670  178.0860  139.2900 C   0  0  0  0  0  2  0  0  0  0  0  0
  188.6280  178.3880  138.1640 C   0  0  0  0  0  0  0  0  0  0  0  0
  188.7930  179.3990  137.4990 O   0  0  0  0  0  0  0  0  0  0  0  0
  187.4750  177.4820  137.8480 C   0  0  1  0  0  3  0  0  0  0  0  0
  185.9280  178.7880  139.1200 O   0  0  0  0  0  1  0  0  0  0  0  0
  186.1500  178.2330  137.8590 C   0  0  0  0  0  2  0  0  0  0  0  0
  188.7300  176.2220  136.2990 O   0  0  0  0  0  0  0  0  0  0  0  0
  187.6890  176.8170  136.5270 C   0  0  0  0  0  3  0  0  0  0  0  0
  2  5  1  0  0  0  0
  3  8  2  0  0  0  0
  3 11  1  0  0  0  0
  5  7  1  0  0  0  0
  5 13  2  0  0  0  0
  6  1  2  0  0  0  0
  6  8  1  0  0  0  0
  7  6  1  0  0  0  0
  8 10  1  0  0  0  0
 10  9  2  0  0  0  0
 11 12  2  0  0  0  0
 12  9  1  0  0  0  0
 12  4  1  0  0  0  0
 13  3  1  0  0  0  0
 14 15  3  0  0  0  0
 15  1  1  0  0  0  0
 16 18  2  0  0  0  0
 16 19  1  0  0  0  0
 17 20  1  0  0  0  0
 17 14  1  0  0  0  0
 18 21  1  0  0  0  0
 19 17  2  0  0  0  0
 21 20  2  0  0  0  0
 22 23  1  0  0  0  0
 23 16  1  0  0  0  0
 24  2  1  0  0  0  0
 25 24  1  0  0  0  0
 26 25  1  0  0  0  0
 27 26  2  0  0  0  0
 28 32  1  6  0  0  0
 28 30  1  0  0  0  0
 28 26  1  0  0  0  0
 30 29  1  0  0  0  0
 31 32  2  0  0  0  0
M  END
>  <MODEL>
2

>  <REMARK>
 VINA RESULT:      -9.1      3.225      7.818
  Name = 
  9 active torsions:
  status: ('A' for Active; 'I' for Inactive)
    1  A    between atoms: C_1  and  C_17
    2  A    between atoms: C_1  and  C_20
    3  A    between atoms: C_3  and  C_19
    4  A    between atoms: N_5  and  N_22
    5  A    between atoms: C_7  and  C_16
    6  A    between atoms: C_11  and  O_15
    7  A    between atoms: C_12  and  C_20
    8  A    between atoms: C_17  and  N_22
    9  A    between atoms: C_20  and  C_27
                            x       y       z     vdW  Elec       q    Type
                         _______ _______ _______ _____ _____    ______ ____

>  <TORSDO>
F 9

$$$$
=
 OpenBabel10232407493D

 32 34  0  0  1  0  0  0  0  0999 V2000
  190.1350  176.7990  140.9520 C   0  0  0  0  0  3  0  0  0  0  0  0
  185.8540  179.0290  139.8090 N   0  0  0  0  0  2  0  0  0  0  0  0
  188.5310  177.5520  137.7150 C   0  0  0  0  0  0  0  0  0  0  0  0
  190.0300  176.5400  134.4600 N   0  0  0  0  0  1  0  0  0  0  0  0
  187.1090  178.4440  139.4480 C   0  0  0  0  0  0  0  0  0  0  0  0
  189.3100  177.3570  140.0580 C   0  0  0  0  0  0  0  0  0  0  0  0
  188.1790  178.2530  140.4990 C   0  0  0  0  0  2  0  0  0  0  0  0
  189.5280  177.1380  138.6120 C   0  0  0  0  0  0  0  0  0  0  0  0
  190.8540  176.3220  136.7450 C   0  0  0  0  0  3  0  0  0  0  0  0
  190.6890  176.5170  138.1190 C   0  0  0  0  0  3  0  0  0  0  0  0
  188.6990  177.3500  136.3410 C   0  0  0  0  0  3  0  0  0  0  0  0
  189.8600  176.7400  135.8570 C   0  0  0  0  0  0  0  0  0  0  0  0
  187.3220  178.1490  138.1990 N   0  0  0  0  0  0  0  0  0  0  0  0
  189.8900  177.0840  143.5710 C   0  0  0  0  0  0  0  0  0  0  0  0
  189.9990  176.9650  142.3760 C   0  0  0  0  0  0  0  0  0  0  0  0
  190.7710  177.1050  147.2050 C   0  0  0  0  0  0  0  0  0  0  0  0
  189.7670  177.2090  144.9950 C   0  0  0  0  0  0  0  0  0  0  0  0
  189.5300  177.4370  147.7730 C   0  0  0  0  0  3  0  0  0  0  0  0
  190.8810  176.9930  145.8140 C   0  0  0  0  0  3  0  0  0  0  0  0
  188.5350  177.5420  145.5660 C   0  0  0  0  0  3  0  0  0  0  0  0
  188.4160  177.6550  146.9550 C   0  0  0  0  0  3  0  0  0  0  0  0
  192.6490  175.6730  147.9490 C   0  0  0  0  0  1  0  0  0  0  0  0
  191.9050  176.8830  147.9940 O   0  0  0  0  0  0  0  0  0  0  0  0
  185.5650  179.4550  141.1140 N   0  0  0  0  0  2  0  0  0  0  0  0
  184.6770  178.4710  141.7140 C   0  0  0  0  0  2  0  0  0  0  0  0
  185.1690  178.1150  143.0810 C   0  0  0  0  0  0  0  0  0  0  0  0
  186.2490  177.5590  143.2060 O   0  0  0  0  0  0  0  0  0  0  0  0
  184.3520  178.4120  144.3040 C   0  0  1  0  0  3  0  0  0  0  0  0
  184.6560  178.8500  146.6350 O   0  0  0  0  0  1  0  0  0  0  0  0
  185.1740  179.1260  145.3690 C   0  0  0  0  0  2  0  0  0  0  0  0
  182.0310  178.7630  144.0830 O   0  0  0  0  0  0  0  0  0  0  0  0
  183.1520  179.2240  143.9380 C   0  0  0  0  0  3  0  0  0  0  0  0
  1 15  1  0  0  0  0
  2 24  1  0  0  0  0
  3 13  1  0  0  0  0
  3  8  1  0  0  0  0
  4 12  1  0  0  0  0
  5  2  1  0  0  0  0
  5  7  1  0  0  0  0
  6  7  1  0  0  0  0
  6  1  2  0  0  0  0
  8  6  1  0  0  0  0
  9 10  1  0  0  0  0
 10  8  2  0  0  0  0
 11  3  2  0  0  0  0
 12 11  1  0  0  0  0
 12  9  2  0  0  0  0
 13  5  2  0  0  0  0
 14 17  1  0  0  0  0
 15 14  3  0  0  0  0
 16 18  1  0  0  0  0
 16 23  1  0  0  0  0
 17 20  2  0  0  0  0
 17 19  1  0  0  0  0
 19 16  2  0  0  0  0
 20 21  1  0  0  0  0
 21 18  2  0  0  0  0
 22 23  1  0  0  0  0
 24 25  1  0  0  0  0
 25 26  1  0  0  0  0
 26 27  2  0  0  0  0
 26 28  1  0  0  0  0
 28 32  1  6  0  0  0
 28 30  1  0  0  0  0
 30 29  1  0  0  0  0
 32 31  2  0  0  0  0
M  END
>  <MODEL>
3

>  <REMARK>
 VINA RESULT:      -8.9      2.644      6.021
  Name = 
  9 active torsions:
  status: ('A' for Active; 'I' for Inactive)
    1  A    between atoms: C_1  and  C_17
    2  A    between atoms: C_1  and  C_20
    3  A    between atoms: C_3  and  C_19
    4  A    between atoms: N_5  and  N_22
    5  A    between atoms: C_7  and  C_16
    6  A    between atoms: C_11  and  O_15
    7  A    between atoms: C_12  and  C_20
    8  A    between atoms: C_17  and  N_22
    9  A    between atoms: C_20  and  C_27
                            x       y       z     vdW  Elec       q    Type
                         _______ _______ _______ _____ _____    ______ ____

>  <TORSDO>
F 9

$$$$
=
 OpenBabel10232407493D

 32 34  0  0  1  0  0  0  0  0999 V2000
  190.4040  176.7260  140.7730 C   0  0  0  0  0  3  0  0  0  0  0  0
  186.0030  178.9790  140.3680 N   0  0  0  0  0  2  0  0  0  0  0  0
  188.4080  177.7360  137.8380 C   0  0  0  0  0  0  0  0  0  0  0  0
  189.4980  177.0390  134.3460 N   0  0  0  0  0  1  0  0  0  0  0  0
  187.2070  178.4480  139.8050 C   0  0  0  0  0  0  0  0  0  0  0  0
  189.4720  177.3470  140.0400 C   0  0  0  0  0  0  0  0  0  0  0  0
  188.4000  178.1830  140.6960 C   0  0  0  0  0  2  0  0  0  0  0  0
  189.5100  177.2600  138.5650 C   0  0  0  0  0  0  0  0  0  0  0  0
  190.5990  176.6330  136.4840 C   0  0  0  0  0  3  0  0  0  0  0  0
  190.6050  176.7040  137.8790 C   0  0  0  0  0  3  0  0  0  0  0  0
  188.4060  177.6580  136.4410 C   0  0  0  0  0  3  0  0  0  0  0  0
  189.5010  177.1120  135.7660 C   0  0  0  0  0  0  0  0  0  0  0  0
  187.2650  178.2680  138.5180 N   0  0  0  0  0  0  0  0  0  0  0  0
  190.4950  176.8070  143.4160 C   0  0  0  0  0  0  0  0  0  0  0  0
  190.4440  176.7640  142.2120 C   0  0  0  0  0  0  0  0  0  0  0  0
  189.6170  177.5760  146.9690 C   0  0  0  0  0  0  0  0  0  0  0  0
  190.5690  176.8690  144.8480 C   0  0  0  0  0  0  0  0  0  0  0  0
  190.7140  177.0080  147.6370 C   0  0  0  0  0  3  0  0  0  0  0  0
  189.5520  177.5020  145.5720 C   0  0  0  0  0  3  0  0  0  0  0  0
  191.6570  176.3040  145.5200 C   0  0  0  0  0  3  0  0  0  0  0  0
  191.7300  176.3730  146.9140 C   0  0  0  0  0  3  0  0  0  0  0  0
  188.0430  177.7090  148.8750 C   0  0  0  0  0  1  0  0  0  0  0  0
  188.5830  178.2150  147.6620 O   0  0  0  0  0  0  0  0  0  0  0  0
  185.8760  179.2840  141.7310 N   0  0  0  0  0  2  0  0  0  0  0  0
  185.2590  178.1380  142.3850 C   0  0  0  0  0  2  0  0  0  0  0  0
  185.6230  178.1300  143.8360 C   0  0  0  0  0  0  0  0  0  0  0  0
  186.5220  177.3990  144.2260 O   0  0  0  0  0  0  0  0  0  0  0  0
  184.8940  178.9890  144.8260 C   0  0  1  0  0  3  0  0  0  0  0  0
  182.9500  180.0880  143.9710 O   0  0  0  0  0  1  0  0  0  0  0  0
  183.3860  178.9310  144.6170 C   0  0  0  0  0  2  0  0  0  0  0  0
  185.5220  179.4260  147.0570 O   0  0  0  0  0  0  0  0  0  0  0  0
  185.2440  178.5800  146.2200 C   0  0  0  0  0  3  0  0  0  0  0  0
  1 15  1  0  0  0  0
  2 24  1  0  0  0  0
  3 13  1  0  0  0  0
  3  8  1  0  0  0  0
  4 12  1  0  0  0  0
  5  2  1  0  0  0  0
  5  7  1  0  0  0  0
  6  7  1  0  0  0  0
  6  1  2  0  0  0  0
  8  6  1  0  0  0  0
  9 10  1  0  0  0  0
 10  8  2  0  0  0  0
 11  3  2  0  0  0  0
 12 11  1  0  0  0  0
 12  9  2  0  0  0  0
 13  5  2  0  0  0  0
 14 17  1  0  0  0  0
 15 14  3  0  0  0  0
 16 18  1  0  0  0  0
 16 23  1  0  0  0  0
 17 20  2  0  0  0  0
 17 19  1  0  0  0  0
 19 16  2  0  0  0  0
 20 21  1  0  0  0  0
 21 18  2  0  0  0  0
 23 22  1  0  0  0  0
 24 25  1  0  0  0  0
 25 26  1  0  0  0  0
 26 27  2  0  0  0  0
 26 28  1  0  0  0  0
 28 30  1  1  0  0  0
 28 32  1  0  0  0  0
 29 30  1  0  0  0  0
 32 31  2  0  0  0  0
M  END
>  <MODEL>
4

>  <REMARK>
 VINA RESULT:      -8.5      2.677      6.049
  Name = 
  9 active torsions:
  status: ('A' for Active; 'I' for Inactive)
    1  A    between atoms: C_1  and  C_17
    2  A    between atoms: C_1  and  C_20
    3  A    between atoms: C_3  and  C_19
    4  A    between atoms: N_5  and  N_22
    5  A    between atoms: C_7  and  C_16
    6  A    between atoms: C_11  and  O_15
    7  A    between atoms: C_12  and  C_20
    8  A    between atoms: C_17  and  N_22
    9  A    between atoms: C_20  and  C_27
                            x       y       z     vdW  Elec       q    Type
                         _______ _______ _______ _____ _____    ______ ____

>  <TORSDO>
F 9

$$$$
=
 OpenBabel10232407493D

 32 34  0  0  1  0  0  0  0  0999 V2000
  186.7390  177.7340  144.9200 C   0  0  0  0  0  3  0  0  0  0  0  0
  189.8490  176.9410  141.1390 N   0  0  0  0  0  2  0  0  0  0  0  0
  190.3380  176.9270  144.8120 C   0  0  0  0  0  0  0  0  0  0  0  0
  192.3690  176.4400  147.8950 N   0  0  0  0  0  1  0  0  0  0  0  0
  189.5740  177.1200  142.5320 C   0  0  0  0  0  0  0  0  0  0  0  0
  187.9770  177.5780  144.4400 C   0  0  0  0  0  0  0  0  0  0  0  0
  188.2630  177.7350  142.9660 C   0  0  0  0  0  2  0  0  0  0  0  0
  189.0990  177.2960  145.3600 C   0  0  0  0  0  0  0  0  0  0  0  0
  190.0370  177.0900  147.5930 C   0  0  0  0  0  3  0  0  0  0  0  0
  188.9540  177.3720  146.7570 C   0  0  0  0  0  3  0  0  0  0  0  0
  191.4170  176.6410  145.6550 C   0  0  0  0  0  3  0  0  0  0  0  0
  191.2680  176.7260  147.0420 C   0  0  0  0  0  0  0  0  0  0  0  0
  190.4960  176.8030  143.3940 N   0  0  0  0  0  0  0  0  0  0  0  0
  184.6420  178.2680  143.3960 C   0  0  0  0  0  0  0  0  0  0  0  0
  185.5910  178.0170  144.0960 C   0  0  0  0  0  0  0  0  0  0  0  0
  182.5940  178.8910  140.3300 C   0  0  0  0  0  0  0  0  0  0  0  0
  183.5230  178.5780  142.5530 C   0  0  0  0  0  0  0  0  0  0  0  0
  181.3490  179.1950  140.9060 C   0  0  0  0  0  3  0  0  0  0  0  0
  183.6770  178.5830  141.1620 C   0  0  0  0  0  3  0  0  0  0  0  0
  182.2810  178.8790  143.1190 C   0  0  0  0  0  3  0  0  0  0  0  0
  181.1940  179.1880  142.2960 C   0  0  0  0  0  3  0  0  0  0  0  0
  183.8620  178.2100  138.3160 C   0  0  0  0  0  1  0  0  0  0  0  0
  182.7820  178.8870  138.9440 O   0  0  0  0  0  0  0  0  0  0  0  0
  188.9510  177.3290  140.1340 N   0  0  0  0  0  2  0  0  0  0  0  0
  189.7230  177.9430  139.0640 C   0  0  0  0  0  2  0  0  0  0  0  0
  189.7750  177.0200  137.8870 C   0  0  0  0  0  0  0  0  0  0  0  0
  188.7400  176.7190  137.3130 O   0  0  0  0  0  0  0  0  0  0  0  0
  191.0750  176.4420  137.4090 C   0  0  1  0  0  3  0  0  0  0  0  0
  193.3900  176.8320  137.8640 O   0  0  0  0  0  1  0  0  0  0  0  0
  192.1630  176.5540  138.4680 C   0  0  0  0  0  2  0  0  0  0  0  0
  191.3020  174.1150  137.7110 O   0  0  0  0  0  0  0  0  0  0  0  0
  190.8860  175.0170  137.0010 C   0  0  0  0  0  3  0  0  0  0  0  0
  2  5  1  0  0  0  0
  3  8  2  0  0  0  0
  3 11  1  0  0  0  0
  5  7  1  0  0  0  0
  5 13  2  0  0  0  0
  6  1  2  0  0  0  0
  6  8  1  0  0  0  0
  7  6  1  0  0  0  0
  8 10  1  0  0  0  0
 10  9  2  0  0  0  0
 11 12  2  0  0  0  0
 12  9  1  0  0  0  0
 12  4  1  0  0  0  0
 13  3  1  0  0  0  0
 14 15  3  0  0  0  0
 15  1  1  0  0  0  0
 16 18  2  0  0  0  0
 16 19  1  0  0  0  0
 17 20  1  0  0  0  0
 17 14  1  0  0  0  0
 18 21  1  0  0  0  0
 19 17  2  0  0  0  0
 21 20  2  0  0  0  0
 22 23  1  0  0  0  0
 23 16  1  0  0  0  0
 24  2  1  0  0  0  0
 25 24  1  0  0  0  0
 26 25  1  0  0  0  0
 27 26  2  0  0  0  0
 28 32  1  1  0  0  0
 28 26  1  0  0  0  0
 28 30  1  0  0  0  0
 29 30  1  0  0  0  0
 32 31  2  0  0  0  0
M  END
>  <MODEL>
5

>  <REMARK>
 VINA RESULT:      -8.5      3.122      7.682
  Name = 
  9 active torsions:
  status: ('A' for Active; 'I' for Inactive)
    1  A    between atoms: C_1  and  C_17
    2  A    between atoms: C_1  and  C_20
    3  A    between atoms: C_3  and  C_19
    4  A    between atoms: N_5  and  N_22
    5  A    between atoms: C_7  and  C_16
    6  A    between atoms: C_11  and  O_15
    7  A    between atoms: C_12  and  C_20
    8  A    between atoms: C_17  and  N_22
    9  A    between atoms: C_20  and  C_27
                            x       y       z     vdW  Elec       q    Type
                         _______ _______ _______ _____ _____    ______ ____

>  <TORSDO>
F 9

$$$$
=
 OpenBabel10232407493D

 32 34  0  0  1  0  0  0  0  0999 V2000
  184.5110  178.5590  144.0480 C   0  0  0  0  0  3  0  0  0  0  0  0
  187.2840  178.7890  139.9430 N   0  0  0  0  0  2  0  0  0  0  0  0
  183.6240  178.9660  140.4890 C   0  0  0  0  0  0  0  0  0  0  0  0
  180.1090  179.4120  139.3450 N   0  0  0  0  0  1  0  0  0  0  0  0
  186.0210  178.7230  140.6110 C   0  0  0  0  0  0  0  0  0  0  0  0
  184.6280  178.5520  142.7150 C   0  0  0  0  0  0  0  0  0  0  0  0
  185.9570  178.2790  142.0550 C   0  0  0  0  0  2  0  0  0  0  0  0
  183.4370  178.7660  141.8660 C   0  0  0  0  0  0  0  0  0  0  0  0
  181.0360  179.0000  141.5640 C   0  0  0  0  0  3  0  0  0  0  0  0
  182.1360  178.7880  142.3990 C   0  0  0  0  0  3  0  0  0  0  0  0
  182.5200  179.1830  139.6580 C   0  0  0  0  0  3  0  0  0  0  0  0
  181.2290  179.1960  140.1940 C   0  0  0  0  0  0  0  0  0  0  0  0
  184.9430  178.9890  139.9320 N   0  0  0  0  0  0  0  0  0  0  0  0
  186.5560  178.1860  145.6860 C   0  0  0  0  0  0  0  0  0  0  0  0
  185.6170  178.3530  144.9480 C   0  0  0  0  0  0  0  0  0  0  0  0
  189.9700  177.2360  146.8790 C   0  0  0  0  0  0  0  0  0  0  0  0
  187.6840  177.9910  146.5510 C   0  0  0  0  0  0  0  0  0  0  0  0
  189.8820  177.5960  148.2340 C   0  0  0  0  0  3  0  0  0  0  0  0
  188.8650  177.4370  146.0430 C   0  0  0  0  0  3  0  0  0  0  0  0
  187.6040  178.3500  147.8990 C   0  0  0  0  0  3  0  0  0  0  0  0
  188.7030  178.1520  148.7420 C   0  0  0  0  0  3  0  0  0  0  0  0
  191.9790  175.8020  147.0710 C   0  0  0  0  0  1  0  0  0  0  0  0
  191.1350  176.6810  146.3400 O   0  0  0  0  0  0  0  0  0  0  0  0
  188.4910  178.4420  140.5680 N   0  0  0  0  0  2  0  0  0  0  0  0
  188.9080  177.1510  140.0390 C   0  0  0  0  0  2  0  0  0  0  0  0
  190.3120  177.2460  139.5290 C   0  0  0  0  0  0  0  0  0  0  0  0
  191.2310  177.3810  140.3220 O   0  0  0  0  0  0  0  0  0  0  0  0
  190.6110  177.1950  138.0600 C   0  0  1  0  0  3  0  0  0  0  0  0
  190.7920  174.8110  138.1030 O   0  0  0  0  0  1  0  0  0  0  0  0
  191.4480  175.9750  137.6980 C   0  0  0  0  0  2  0  0  0  0  0  0
  189.3680  177.3810  136.0650 O   0  0  0  0  0  0  0  0  0  0  0  0
  189.3410  177.2100  137.2740 C   0  0  0  0  0  3  0  0  0  0  0  0
  1 15  1  0  0  0  0
  2 24  1  0  0  0  0
  2  5  1  0  0  0  0
  3  8  1  0  0  0  0
  4 12  1  0  0  0  0
  5  7  1  0  0  0  0
  6  1  2  0  0  0  0
  7  6  1  0  0  0  0
  8 10  2  0  0  0  0
  8  6  1  0  0  0  0
  9 10  1  0  0  0  0
 11 12  1  0  0  0  0
 11  3  2  0  0  0  0
 12  9  2  0  0  0  0
 13  3  1  0  0  0  0
 13  5  2  0  0  0  0
 14 17  1  0  0  0  0
 15 14  3  0  0  0  0
 16 18  1  0  0  0  0
 17 20  2  0  0  0  0
 18 21  2  0  0  0  0
 19 17  1  0  0  0  0
 19 16  2  0  0  0  0
 20 21  1  0  0  0  0
 23 16  1  0  0  0  0
 23 22  1  0  0  0  0
 25 24  1  0  0  0  0
 26 25  1  0  0  0  0
 26 27  2  0  0  0  0
 28 32  1  6  0  0  0
 28 26  1  0  0  0  0
 30 28  1  0  0  0  0
 30 29  1  0  0  0  0
 31 32  2  0  0  0  0
M  END
>  <MODEL>
6

>  <REMARK>
 VINA RESULT:      -8.4      1.368      2.343
  Name = 
  9 active torsions:
  status: ('A' for Active; 'I' for Inactive)
    1  A    between atoms: C_1  and  C_17
    2  A    between atoms: C_1  and  C_20
    3  A    between atoms: C_3  and  C_19
    4  A    between atoms: N_5  and  N_22
    5  A    between atoms: C_7  and  C_16
    6  A    between atoms: C_11  and  O_15
    7  A    between atoms: C_12  and  C_20
    8  A    between atoms: C_17  and  N_22
    9  A    between atoms: C_20  and  C_27
                            x       y       z     vdW  Elec       q    Type
                         _______ _______ _______ _____ _____    ______ ____

>  <TORSDO>
F 9

$$$$
=
 OpenBabel10232407493D

 32 34  0  0  1  0  0  0  0  0999 V2000
  189.8930  176.9830  141.2140 C   0  0  0  0  0  3  0  0  0  0  0  0
  185.5510  179.1430  140.1720 N   0  0  0  0  0  2  0  0  0  0  0  0
  188.2660  177.8380  138.0140 C   0  0  0  0  0  0  0  0  0  0  0  0
  189.7890  177.0180  134.7170 N   0  0  0  0  0  1  0  0  0  0  0  0
  186.8210  178.6100  139.7860 C   0  0  0  0  0  0  0  0  0  0  0  0
  189.0520  177.5570  140.3460 C   0  0  0  0  0  0  0  0  0  0  0  0
  187.8970  178.4010  140.8270 C   0  0  0  0  0  2  0  0  0  0  0  0
  189.2750  177.4110  138.8920 C   0  0  0  0  0  0  0  0  0  0  0  0
  190.6220  176.7180  136.9900 C   0  0  0  0  0  3  0  0  0  0  0  0
  190.4520  176.8460  138.3710 C   0  0  0  0  0  3  0  0  0  0  0  0
  188.4380  177.7030  136.6320 C   0  0  0  0  0  3  0  0  0  0  0  0
  189.6160  177.1490  136.1220 C   0  0  0  0  0  0  0  0  0  0  0  0
  187.0410  178.3780  138.5240 N   0  0  0  0  0  0  0  0  0  0  0  0
  189.6570  177.1600  143.8440 C   0  0  0  0  0  0  0  0  0  0  0  0
  189.7530  177.0790  142.6440 C   0  0  0  0  0  0  0  0  0  0  0  0
  190.5810  177.0190  147.4650 C   0  0  0  0  0  0  0  0  0  0  0  0
  189.5600  177.2570  145.2720 C   0  0  0  0  0  0  0  0  0  0  0  0
  189.3750  177.4290  148.0570 C   0  0  0  0  0  3  0  0  0  0  0  0
  190.6650  176.9350  146.0700 C   0  0  0  0  0  3  0  0  0  0  0  0
  188.3650  177.6670  145.8680 C   0  0  0  0  0  3  0  0  0  0  0  0
  188.2710  177.7530  147.2610 C   0  0  0  0  0  3  0  0  0  0  0  0
  192.7040  175.7860  147.7850 C   0  0  0  0  0  1  0  0  0  0  0  0
  191.7030  176.6910  148.2320 O   0  0  0  0  0  0  0  0  0  0  0  0
  185.2510  179.5010  141.4950 N   0  0  0  0  0  2  0  0  0  0  0  0
  184.5990  178.3620  142.1240 C   0  0  0  0  0  2  0  0  0  0  0  0
  183.1220  178.5960  142.1840 C   0  0  0  0  0  0  0  0  0  0  0  0
  182.4150  178.2100  141.2660 O   0  0  0  0  0  0  0  0  0  0  0  0
  182.4940  179.3130  143.3420 C   0  0  1  0  0  3  0  0  0  0  0  0
  180.4140  180.4130  142.9160 O   0  0  0  0  0  1  0  0  0  0  0  0
  180.9750  179.2000  143.3170 C   0  0  0  0  0  2  0  0  0  0  0  0
  184.0040  179.3170  145.1530 O   0  0  0  0  0  0  0  0  0  0  0  0
  183.0360  178.7860  144.6310 C   0  0  0  0  0  3  0  0  0  0  0  0
  1 15  1  0  0  0  0
  2 24  1  0  0  0  0
  3 13  1  0  0  0  0
  3  8  1  0  0  0  0
  4 12  1  0  0  0  0
  5  2  1  0  0  0  0
  5  7  1  0  0  0  0
  6  7  1  0  0  0  0
  6  1  2  0  0  0  0
  8  6  1  0  0  0  0
  9 10  1  0  0  0  0
 10  8  2  0  0  0  0
 11  3  2  0  0  0  0
 12 11  1  0  0  0  0
 12  9  2  0  0  0  0
 13  5  2  0  0  0  0
 14 17  1  0  0  0  0
 15 14  3  0  0  0  0
 16 18  1  0  0  0  0
 16 23  1  0  0  0  0
 17 20  2  0  0  0  0
 17 19  1  0  0  0  0
 19 16  2  0  0  0  0
 20 21  1  0  0  0  0
 21 18  2  0  0  0  0
 22 23  1  0  0  0  0
 24 25  1  0  0  0  0
 25 26  1  0  0  0  0
 26 28  1  0  0  0  0
 27 26  2  0  0  0  0
 28 30  1  1  0  0  0
 28 32  1  0  0  0  0
 29 30  1  0  0  0  0
 32 31  2  0  0  0  0
M  END
>  <MODEL>
7

>  <REMARK>
 VINA RESULT:      -8.0      2.947      6.249
  Name = 
  9 active torsions:
  status: ('A' for Active; 'I' for Inactive)
    1  A    between atoms: C_1  and  C_17
    2  A    between atoms: C_1  and  C_20
    3  A    between atoms: C_3  and  C_19
    4  A    between atoms: N_5  and  N_22
    5  A    between atoms: C_7  and  C_16
    6  A    between atoms: C_11  and  O_15
    7  A    between atoms: C_12  and  C_20
    8  A    between atoms: C_17  and  N_22
    9  A    between atoms: C_20  and  C_27
                            x       y       z     vdW  Elec       q    Type
                         _______ _______ _______ _____ _____    ______ ____

>  <TORSDO>
F 9

$$$$
=
 OpenBabel10232407493D

 32 34  0  0  1  0  0  0  0  0999 V2000
  190.0790  176.8070  141.8710 C   0  0  0  0  0  3  0  0  0  0  0  0
  186.2180  178.7010  139.4000 N   0  0  0  0  0  2  0  0  0  0  0  0
  189.4160  177.2140  138.2640 C   0  0  0  0  0  0  0  0  0  0  0  0
  191.7910  176.0330  135.6500 N   0  0  0  0  0  1  0  0  0  0  0  0
  187.5420  178.1600  139.4520 C   0  0  0  0  0  0  0  0  0  0  0  0
  189.5190  177.2460  140.7380 C   0  0  0  0  0  0  0  0  0  0  0  0
  188.2820  178.1110  140.7690 C   0  0  0  0  0  2  0  0  0  0  0  0
  190.1370  176.9260  139.4330 C   0  0  0  0  0  0  0  0  0  0  0  0
  191.9540  176.0410  138.0840 C   0  0  0  0  0  3  0  0  0  0  0  0
  191.4080  176.3340  139.3360 C   0  0  0  0  0  3  0  0  0  0  0  0
  189.9660  176.9140  137.0130 C   0  0  0  0  0  3  0  0  0  0  0  0
  191.2340  176.3320  136.9230 C   0  0  0  0  0  0  0  0  0  0  0  0
  188.1020  177.7790  138.3410 N   0  0  0  0  0  0  0  0  0  0  0  0
  189.0880  177.3150  144.2710 C   0  0  0  0  0  0  0  0  0  0  0  0
  189.5470  177.0760  143.1820 C   0  0  0  0  0  0  0  0  0  0  0  0
  186.6410  178.3180  146.9150 C   0  0  0  0  0  0  0  0  0  0  0  0
  188.5290  177.6090  145.5600 C   0  0  0  0  0  0  0  0  0  0  0  0
  187.4370  178.1980  148.0660 C   0  0  0  0  0  3  0  0  0  0  0  0
  187.1950  178.0220  145.6640 C   0  0  0  0  0  3  0  0  0  0  0  0
  189.3150  177.4890  146.7090 C   0  0  0  0  0  3  0  0  0  0  0  0
  188.7700  177.7830  147.9630 C   0  0  0  0  0  3  0  0  0  0  0  0
  184.4520  178.7640  145.8480 C   0  0  0  0  0  1  0  0  0  0  0  0
  185.3050  178.7270  146.9840 O   0  0  0  0  0  0  0  0  0  0  0  0
  185.5650  179.2120  140.5310 N   0  0  0  0  0  2  0  0  0  0  0  0
  184.1450  178.9230  140.3900 C   0  0  0  0  0  2  0  0  0  0  0  0
  183.6060  179.6230  139.1820 C   0  0  0  0  0  0  0  0  0  0  0  0
  183.9660  180.7650  138.9380 O   0  0  0  0  0  0  0  0  0  0  0  0
  182.6170  178.9560  138.2720 C   0  0  1  0  0  3  0  0  0  0  0  0
  184.1110  177.5800  137.0110 O   0  0  0  0  0  1  0  0  0  0  0  0
  183.0490  177.5390  137.9150 C   0  0  0  0  0  2  0  0  0  0  0  0
  180.4830  179.8640  138.6990 O   0  0  0  0  0  0  0  0  0  0  0  0
  181.2620  178.9450  138.9020 C   0  0  0  0  0  3  0  0  0  0  0  0
  1 15  1  0  0  0  0
  2  5  1  0  0  0  0
  2 24  1  0  0  0  0
  3 13  1  0  0  0  0
  3  8  1  0  0  0  0
  4 12  1  0  0  0  0
  5  7  1  0  0  0  0
  6  7  1  0  0  0  0
  6  1  2  0  0  0  0
  8  6  1  0  0  0  0
  9 10  1  0  0  0  0
 10  8  2  0  0  0  0
 11  3  2  0  0  0  0
 12 11  1  0  0  0  0
 12  9  2  0  0  0  0
 13  5  2  0  0  0  0
 14 17  1  0  0  0  0
 15 14  3  0  0  0  0
 16 23  1  0  0  0  0
 16 18  1  0  0  0  0
 17 19  1  0  0  0  0
 17 20  2  0  0  0  0
 19 16  2  0  0  0  0
 20 21  1  0  0  0  0
 21 18  2  0  0  0  0
 22 23  1  0  0  0  0
 25 24  1  0  0  0  0
 26 25  1  0  0  0  0
 27 26  2  0  0  0  0
 28 30  1  1  0  0  0
 28 32  1  0  0  0  0
 28 26  1  0  0  0  0
 29 30  1  0  0  0  0
 31 32  2  0  0  0  0
M  END
>  <MODEL>
8

>  <REMARK>
 VINA RESULT:      -8.0      3.372      7.057
  Name = 
  9 active torsions:
  status: ('A' for Active; 'I' for Inactive)
    1  A    between atoms: C_1  and  C_17
    2  A    between atoms: C_1  and  C_20
    3  A    between atoms: C_3  and  C_19
    4  A    between atoms: N_5  and  N_22
    5  A    between atoms: C_7  and  C_16
    6  A    between atoms: C_11  and  O_15
    7  A    between atoms: C_12  and  C_20
    8  A    between atoms: C_17  and  N_22
    9  A    between atoms: C_20  and  C_27
                            x       y       z     vdW  Elec       q    Type
                         _______ _______ _______ _____ _____    ______ ____

>  <TORSDO>
F 9

$$$$
=
 OpenBabel10232407493D

 32 34  0  0  1  0  0  0  0  0999 V2000
  187.0550  177.7130  144.1620 C   0  0  0  0  0  3  0  0  0  0  0  0
  190.7100  177.2800  140.8380 N   0  0  0  0  0  2  0  0  0  0  0  0
  190.6530  176.9810  144.5310 C   0  0  0  0  0  0  0  0  0  0  0  0
  192.2210  176.2840  147.8350 N   0  0  0  0  0  1  0  0  0  0  0  0
  190.2280  177.3410  142.1830 C   0  0  0  0  0  0  0  0  0  0  0  0
  188.3550  177.6180  143.8610 C   0  0  0  0  0  0  0  0  0  0  0  0
  188.8500  177.8970  142.4630 C   0  0  0  0  0  2  0  0  0  0  0  0
  189.3370  177.2820  144.9140 C   0  0  0  0  0  0  0  0  0  0  0  0
  189.9410  176.9150  147.2400 C   0  0  0  0  0  3  0  0  0  0  0  0
  188.9860  177.2440  146.2750 C   0  0  0  0  0  3  0  0  0  0  0  0
  191.6040  176.6470  145.5000 C   0  0  0  0  0  3  0  0  0  0  0  0
  191.2500  176.6190  146.8530 C   0  0  0  0  0  0  0  0  0  0  0  0
  191.0220  176.9730  143.1470 N   0  0  0  0  0  0  0  0  0  0  0  0
  185.1840  178.3350  142.3980 C   0  0  0  0  0  0  0  0  0  0  0  0
  186.0340  178.0400  143.2000 C   0  0  0  0  0  0  0  0  0  0  0  0
  181.8320  179.0020  140.8790 C   0  0  0  0  0  0  0  0  0  0  0  0
  184.1760  178.7020  141.4440 C   0  0  0  0  0  0  0  0  0  0  0  0
  182.2070  179.4020  139.5860 C   0  0  0  0  0  3  0  0  0  0  0  0
  182.8240  178.6530  141.8030 C   0  0  0  0  0  3  0  0  0  0  0  0
  184.5420  179.1030  140.1560 C   0  0  0  0  0  3  0  0  0  0  0  0
  183.5580  179.4530  139.2270 C   0  0  0  0  0  3  0  0  0  0  0  0
  180.0190  178.0500  142.2710 C   0  0  0  0  0  1  0  0  0  0  0  0
  180.4900  178.9430  141.2710 O   0  0  0  0  0  0  0  0  0  0  0  0
  189.9590  177.7310  139.7430 N   0  0  0  0  0  2  0  0  0  0  0  0
  189.7410  176.5960  138.8580 C   0  0  0  0  0  2  0  0  0  0  0  0
  188.4810  176.7990  138.0780 C   0  0  0  0  0  0  0  0  0  0  0  0
  187.6810  177.6500  138.4380 O   0  0  0  0  0  0  0  0  0  0  0  0
  188.1700  175.9640  136.8710 C   0  0  1  0  0  3  0  0  0  0  0  0
  186.7020  174.1370  137.3450 O   0  0  0  0  0  1  0  0  0  0  0  0
  186.7340  175.4560  136.8930 C   0  0  0  0  0  2  0  0  0  0  0  0
  189.3200  177.5800  135.5950 O   0  0  0  0  0  0  0  0  0  0  0  0
  188.4290  176.7450  135.6230 C   0  0  0  0  0  3  0  0  0  0  0  0
  2  5  1  0  0  0  0
  3  8  2  0  0  0  0
  3 11  1  0  0  0  0
  5  7  1  0  0  0  0
  5 13  2  0  0  0  0
  6  1  2  0  0  0  0
  6  8  1  0  0  0  0
  7  6  1  0  0  0  0
  8 10  1  0  0  0  0
 10  9  2  0  0  0  0
 11 12  2  0  0  0  0
 12  9  1  0  0  0  0
 12  4  1  0  0  0  0
 13  3  1  0  0  0  0
 14 15  3  0  0  0  0
 15  1  1  0  0  0  0
 16 23  1  0  0  0  0
 16 19  1  0  0  0  0
 17 19  2  0  0  0  0
 17 14  1  0  0  0  0
 18 16  2  0  0  0  0
 20 17  1  0  0  0  0
 21 18  1  0  0  0  0
 21 20  2  0  0  0  0
 23 22  1  0  0  0  0
 24  2  1  0  0  0  0
 25 24  1  0  0  0  0
 26 27  2  0  0  0  0
 26 25  1  0  0  0  0
 28 32  1  6  0  0  0
 28 30  1  0  0  0  0
 28 26  1  0  0  0  0
 30 29  1  0  0  0  0
 31 32  2  0  0  0  0
M  END
>  <MODEL>
9

>  <REMARK>
 VINA RESULT:      -8.0      3.288      8.018
  Name = 
  9 active torsions:
  status: ('A' for Active; 'I' for Inactive)
    1  A    between atoms: C_1  and  C_17
    2  A    between atoms: C_1  and  C_20
    3  A    between atoms: C_3  and  C_19
    4  A    between atoms: N_5  and  N_22
    5  A    between atoms: C_7  and  C_16
    6  A    between atoms: C_11  and  O_15
    7  A    between atoms: C_12  and  C_20
    8  A    between atoms: C_17  and  N_22
    9  A    between atoms: C_20  and  C_27
                            x       y       z     vdW  Elec       q    Type
                         _______ _______ _______ _____ _____    ______ ____

>  <TORSDO>
F 9

$$$$
