=
 OpenBabel10232411043D

 39 41  0  0  1  0  0  0  0  0999 V2000
  186.2560  178.0280  144.0140 C   0  0  0  0  0  0  0  0  0  0  0  0
  187.1500  177.9040  145.0830 C   0  0  0  0  0  3  0  0  0  0  0  0
  188.9600  177.4910  143.5320 C   0  0  0  0  0  3  0  0  0  0  0  0
  188.0700  177.6080  142.4580 C   0  0  0  0  0  0  0  0  0  0  0  0
  186.7200  177.8670  142.7010 C   0  0  0  0  0  3  0  0  0  0  0  0
  188.5070  177.6200  144.8550 C   0  0  0  0  0  0  0  0  0  0  0  0
  184.5880  178.6680  145.7600 C   0  0  0  0  0  1  0  0  0  0  0  0
  184.8120  178.2960  144.2990 C   0  0  1  0  0  3  0  0  0  0  0  0
  184.3200  179.3520  143.4290 N   0  0  0  0  0  2  0  0  0  0  0  0
  183.3950  178.7330  142.4930 C   0  0  0  0  0  2  0  0  0  0  0  0
  183.7670  179.0780  141.1290 N   0  0  0  0  0  2  0  0  0  0  0  0
  183.2630  176.9710  140.2480 O   0  0  0  0  0  0  0  0  0  0  0  0
  183.6800  178.1440  140.0480 C   0  0  0  0  0  0  0  0  0  0  0  0
  185.4990  178.7900  138.6420 O   0  0  0  0  0  0  0  0  0  0  0  0
  184.1110  178.5410  138.6760 C   0  0  1  0  0  3  0  0  0  0  0  0
  183.7750  177.4680  137.6800 C   0  0  0  0  0  2  0  0  0  0  0  0
  185.0770  177.2910  136.9830 C   0  0  0  0  0  2  0  0  0  0  0  0
  186.0710  177.7780  137.9190 N   0  0  0  0  0  0  0  0  0  0  0  0
  187.1420  178.3670  137.1300 C   0  0  0  0  0  2  0  0  0  0  0  0
  187.8690  177.2820  136.3600 C   0  0  0  0  0  1  0  0  0  0  0  0
  190.7660  177.1480  145.7890 C   0  0  0  0  0  0  0  0  0  0  0  0
  189.4740  177.5230  145.9830 C   0  0  0  0  0  0  0  0  0  0  0  0
  191.7050  177.0140  146.8730 N   0  0  0  0  0  2  0  0  0  0  0  0
  193.0280  175.7810  148.3800 N   0  0  0  0  0  2  0  0  0  0  0  0
  192.2350  175.7810  147.3620 C   0  0  0  0  0  3  0  0  0  0  0  0
  188.3490  176.7840  148.0670 C   0  0  0  0  0  1  0  0  0  0  0  0
  188.9890  177.9530  147.3390 C   0  0  0  0  0  2  0  0  0  0  0  0
  191.7180  175.6810  143.9620 C   0  0  0  0  0  1  0  0  0  0  0  0
  191.2550  176.9680  144.4560 N   0  0  0  0  0  2  0  0  0  0  0  0
  188.5720  177.5510  141.0550 C   0  0  0  0  0  2  0  0  0  0  0  0
  193.1580  176.1310  138.0670 C   0  0  0  0  0  0  0  0  0  0  0  0
  190.0300  177.6210  141.0430 N   0  0  0  0  0  2  0  0  0  0  0  0
  192.1850  177.3460  140.0350 C   0  0  0  0  0  3  0  0  0  0  0  0
  194.2350  175.9420  137.4430 O   0  0  0  0  0  0  0  0  0  0  0  0
  192.0240  175.5030  137.5780 C   0  0  0  0  0  3  0  0  0  0  0  0
  190.2400  176.1960  139.1250 N   0  0  0  0  0  0  0  0  0  0  0  0
  190.8360  177.0230  140.0230 C   0  0  0  0  0  0  0  0  0  0  0  0
  190.7210  175.5250  138.0520 C   0  0  0  0  0  3  0  0  0  0  0  0
  193.2060  176.9550  139.1820 C   0  0  0  0  0  3  0  0  0  0  0  0
  1  8  1  0  0  0  0
  1  2  1  0  0  0  0
  3  6  1  0  0  0  0
  4  5  1  0  0  0  0
  4  3  2  0  0  0  0
  5  1  2  0  0  0  0
  6  2  2  0  0  0  0
  6 22  1  0  0  0  0
  8  7  1  1  0  0  0
  9  8  1  0  0  0  0
 10  9  1  0  0  0  0
 11 10  1  0  0  0  0
 13 12  2  0  0  0  0
 13 11  1  0  0  0  0
 14 15  1  0  0  0  0
 15 13  1  1  0  0  0
 16 15  1  0  0  0  0
 17 16  1  0  0  0  0
 17 18  1  0  0  0  0
 18 14  1  0  0  0  0
 19 18  1  0  0  0  0
 20 19  1  0  0  0  0
 21 22  2  0  0  0  0
 21 23  1  0  0  0  0
 22 27  1  0  0  0  0
 23 25  1  0  0  0  0
 25 24  2  0  0  0  0
 27 26  1  0  0  0  0
 28 29  1  0  0  0  0
 29 21  1  0  0  0  0
 30  4  1  0  0  0  0
 31 39  1  0  0  0  0
 32 30  1  0  0  0  0
 34 31  2  0  0  0  0
 35 38  2  0  0  0  0
 35 31  1  0  0  0  0
 36 37  2  0  0  0  0
 37 33  1  0  0  0  0
 37 32  1  0  0  0  0
 38 36  1  0  0  0  0
 39 33  2  0  0  0  0
M  END
>  <MODEL>
1

>  <REMARK>
 VINA RESULT:      -9.2      0.000      0.000
  Name = 
  12 active torsions:
  status: ('A' for Active; 'I' for Inactive)
    1  A    between atoms: N_2  and  C_27
    2  A    between atoms: N_3  and  C_9
    3  A    between atoms: N_6  and  C_9
    4  A    between atoms: N_6  and  C_11
    5  A    between atoms: C_7  and  C_11
    6  A    between atoms: C_10  and  N_17
    7  A    between atoms: C_10  and  N_34
    8  A    between atoms: C_15  and  N_36
    9  A    between atoms: C_19  and  C_30
   10  A    between atoms: C_21  and  C_32
   11  A    between atoms: C_27  and  C_29
   12  A    between atoms: C_30  and  C_39
                            x       y       z     vdW  Elec       q    Type
                         _______ _______ _______ _____ _____    ______ ____

>  <TORSDO>
F 12

$$$$
=
 OpenBabel10232411043D

 39 41  0  0  1  0  0  0  0  0999 V2000
  185.9880  178.0340  144.4610 C   0  0  0  0  0  0  0  0  0  0  0  0
  186.9840  177.7550  145.4030 C   0  0  0  0  0  3  0  0  0  0  0  0
  188.6100  177.5170  143.6280 C   0  0  0  0  0  3  0  0  0  0  0  0
  187.6180  177.7890  142.6790 C   0  0  0  0  0  0  0  0  0  0  0  0
  186.3090  178.0380  143.0960 C   0  0  0  0  0  3  0  0  0  0  0  0
  188.3010  177.4800  144.9980 C   0  0  0  0  0  0  0  0  0  0  0  0
  184.5460  178.5860  146.4240 C   0  0  0  0  0  1  0  0  0  0  0  0
  184.5910  178.2870  144.9300 C   0  0  1  0  0  3  0  0  0  0  0  0
  184.0040  179.3860  144.1790 N   0  0  0  0  0  2  0  0  0  0  0  0
  182.5680  179.1620  144.1520 C   0  0  0  0  0  2  0  0  0  0  0  0
  182.1350  178.8920  142.7890 N   0  0  0  0  0  2  0  0  0  0  0  0
  180.3220  180.3680  142.8620 O   0  0  0  0  0  0  0  0  0  0  0  0
  180.9950  179.5300  142.2040 C   0  0  0  0  0  0  0  0  0  0  0  0
  180.6810  180.3110  139.9690 O   0  0  0  0  0  0  0  0  0  0  0  0
  180.5740  179.1870  140.8150 C   0  0  1  0  0  3  0  0  0  0  0  0
  181.4130  178.0690  140.2630 C   0  0  0  0  0  2  0  0  0  0  0  0
  181.8360  178.6340  138.9540 C   0  0  0  0  0  2  0  0  0  0  0  0
  181.7200  180.0710  139.1110 N   0  0  0  0  0  0  0  0  0  0  0  0
  181.3390  180.6090  137.8150 C   0  0  0  0  0  2  0  0  0  0  0  0
  181.1300  182.1070  137.9210 C   0  0  0  0  0  1  0  0  0  0  0  0
  190.6920  177.3150  145.6700 C   0  0  0  0  0  0  0  0  0  0  0  0
  189.3750  177.2180  145.9940 C   0  0  0  0  0  0  0  0  0  0  0  0
  191.7450  177.0310  146.6110 N   0  0  0  0  0  2  0  0  0  0  0  0
  193.0810  175.5970  147.9140 N   0  0  0  0  0  2  0  0  0  0  0  0
  192.1630  175.7270  147.0170 C   0  0  0  0  0  3  0  0  0  0  0  0
  188.9740  178.2090  148.2330 C   0  0  0  0  0  1  0  0  0  0  0  0
  188.9460  176.9360  147.4060 C   0  0  0  0  0  2  0  0  0  0  0  0
  191.7130  179.0980  144.1960 C   0  0  0  0  0  1  0  0  0  0  0  0
  191.0650  177.8100  144.3800 N   0  0  0  0  0  2  0  0  0  0  0  0
  187.9700  177.9080  141.2350 C   0  0  0  0  0  2  0  0  0  0  0  0
  191.6440  176.3450  137.2300 C   0  0  0  0  0  0  0  0  0  0  0  0
  189.3380  177.4510  141.0150 N   0  0  0  0  0  2  0  0  0  0  0  0
  191.2170  176.8760  139.6450 C   0  0  0  0  0  3  0  0  0  0  0  0
  192.5620  176.0650  136.4160 O   0  0  0  0  0  0  0  0  0  0  0  0
  190.3550  176.4320  136.7260 C   0  0  0  0  0  3  0  0  0  0  0  0
  188.9810  176.9960  138.6870 N   0  0  0  0  0  0  0  0  0  0  0  0
  189.8490  177.0940  139.7270 C   0  0  0  0  0  0  0  0  0  0  0  0
  189.1640  176.7170  137.3760 C   0  0  0  0  0  3  0  0  0  0  0  0
  192.0060  176.5440  138.5540 C   0  0  0  0  0  3  0  0  0  0  0  0
  1  8  1  0  0  0  0
  1  2  1  0  0  0  0
  3  6  1  0  0  0  0
  4  5  1  0  0  0  0
  4  3  2  0  0  0  0
  5  1  2  0  0  0  0
  6  2  2  0  0  0  0
  6 22  1  0  0  0  0
  8  7  1  1  0  0  0
  9  8  1  0  0  0  0
 10  9  1  0  0  0  0
 11 10  1  0  0  0  0
 13 11  1  0  0  0  0
 13 12  2  0  0  0  0
 14 15  1  0  0  0  0
 15 13  1  1  0  0  0
 16 15  1  0  0  0  0
 17 18  1  0  0  0  0
 17 16  1  0  0  0  0
 18 14  1  0  0  0  0
 19 20  1  0  0  0  0
 19 18  1  0  0  0  0
 21 22  2  0  0  0  0
 21 23  1  0  0  0  0
 22 27  1  0  0  0  0
 23 25  1  0  0  0  0
 25 24  2  0  0  0  0
 27 26  1  0  0  0  0
 28 29  1  0  0  0  0
 29 21  1  0  0  0  0
 30  4  1  0  0  0  0
 31 39  1  0  0  0  0
 32 30  1  0  0  0  0
 33 37  1  0  0  0  0
 34 31  2  0  0  0  0
 35 31  1  0  0  0  0
 35 38  2  0  0  0  0
 36 37  2  0  0  0  0
 37 32  1  0  0  0  0
 38 36  1  0  0  0  0
 39 33  2  0  0  0  0
M  END
>  <MODEL>
2

>  <REMARK>
 VINA RESULT:      -9.1      1.999      2.784
  Name = 
  12 active torsions:
  status: ('A' for Active; 'I' for Inactive)
    1  A    between atoms: N_2  and  C_27
    2  A    between atoms: N_3  and  C_9
    3  A    between atoms: N_6  and  C_9
    4  A    between atoms: N_6  and  C_11
    5  A    between atoms: C_7  and  C_11
    6  A    between atoms: C_10  and  N_17
    7  A    between atoms: C_10  and  N_34
    8  A    between atoms: C_15  and  N_36
    9  A    between atoms: C_19  and  C_30
   10  A    between atoms: C_21  and  C_32
   11  A    between atoms: C_27  and  C_29
   12  A    between atoms: C_30  and  C_39
                            x       y       z     vdW  Elec       q    Type
                         _______ _______ _______ _____ _____    ______ ____

>  <TORSDO>
F 12

$$$$
=
 OpenBabel10232411043D

 39 41  0  0  1  0  0  0  0  0999 V2000
  188.8870  177.7090  138.2810 C   0  0  0  0  0  0  0  0  0  0  0  0
  189.5480  176.8910  137.3600 C   0  0  0  0  0  3  0  0  0  0  0  0
  191.1960  176.3190  139.0370 C   0  0  0  0  0  3  0  0  0  0  0  0
  190.5430  177.1400  139.9620 C   0  0  0  0  0  0  0  0  0  0  0  0
  189.3960  177.8400  139.5810 C   0  0  0  0  0  3  0  0  0  0  0  0
  190.7160  176.1990  137.7210 C   0  0  0  0  0  0  0  0  0  0  0  0
  187.7150  178.7990  136.3630 C   0  0  0  0  0  1  0  0  0  0  0  0
  187.6660  178.4560  137.8480 C   0  0  1  0  0  3  0  0  0  0  0  0
  186.4730  177.6790  138.1470 N   0  0  0  0  0  2  0  0  0  0  0  0
  185.4190  178.6280  138.4660 C   0  0  0  0  0  2  0  0  0  0  0  0
  184.6560  178.1520  139.6110 N   0  0  0  0  0  2  0  0  0  0  0  0
  185.6990  179.5720  141.1480 O   0  0  0  0  0  0  0  0  0  0  0  0
  184.8500  178.6660  140.9320 C   0  0  0  0  0  0  0  0  0  0  0  0
  184.8180  178.1660  143.2670 O   0  0  0  0  0  0  0  0  0  0  0  0
  184.0660  178.1140  142.0750 C   0  0  1  0  0  3  0  0  0  0  0  0
  182.7860  178.8790  142.2630 C   0  0  0  0  0  2  0  0  0  0  0  0
  182.8380  179.1920  143.7160 C   0  0  0  0  0  2  0  0  0  0  0  0
  184.2440  179.1180  144.0640 N   0  0  0  0  0  0  0  0  0  0  0  0
  184.3150  178.6320  145.4340 C   0  0  0  0  0  2  0  0  0  0  0  0
  185.5530  179.1860  146.1120 C   0  0  0  0  0  1  0  0  0  0  0  0
  191.0720  173.9850  136.6400 C   0  0  0  0  0  0  0  0  0  0  0  0
  191.4070  175.2970  136.7600 C   0  0  0  0  0  0  0  0  0  0  0  0
  191.7540  173.0900  135.7410 N   0  0  0  0  0  2  0  0  0  0  0  0
  193.4820  171.6050  135.1480 N   0  0  0  0  0  2  0  0  0  0  0  0
  192.9220  172.3310  136.0560 C   0  0  0  0  0  3  0  0  0  0  0  0
  193.6700  176.3080  136.6390 C   0  0  0  0  0  1  0  0  0  0  0  0
  192.4310  175.9190  135.8520 C   0  0  0  0  0  2  0  0  0  0  0  0
  188.6360  173.3130  136.7320 C   0  0  0  0  0  1  0  0  0  0  0  0
  189.9400  173.4800  137.3540 N   0  0  0  0  0  2  0  0  0  0  0  0
  191.0090  177.1980  141.3770 C   0  0  0  0  0  2  0  0  0  0  0  0
  189.5370  177.1180  146.8370 C   0  0  0  0  0  0  0  0  0  0  0  0
  189.8640  177.2010  142.2810 N   0  0  0  0  0  2  0  0  0  0  0  0
  188.8300  177.3270  144.4380 C   0  0  0  0  0  3  0  0  0  0  0  0
  189.1030  177.1910  148.0160 O   0  0  0  0  0  0  0  0  0  0  0  0
  190.8850  176.8380  146.6730 C   0  0  0  0  0  3  0  0  0  0  0  0
  191.2030  176.8160  144.2340 N   0  0  0  0  0  0  0  0  0  0  0  0
  189.9870  177.1060  143.7040 C   0  0  0  0  0  0  0  0  0  0  0  0
  191.6290  176.6960  145.5120 C   0  0  0  0  0  3  0  0  0  0  0  0
  188.6280  177.3290  145.8100 C   0  0  0  0  0  3  0  0  0  0  0  0
  1  5  1  0  0  0  0
  2  6  1  0  0  0  0
  2  1  2  0  0  0  0
  3  4  1  0  0  0  0
  4 30  1  0  0  0  0
  5  4  2  0  0  0  0
  6  3  2  0  0  0  0
  8  7  1  6  0  0  0
  8  9  1  0  0  0  0
  8  1  1  0  0  0  0
  9 10  1  0  0  0  0
 10 11  1  0  0  0  0
 11 13  1  0  0  0  0
 13 12  2  0  0  0  0
 14 18  1  0  0  0  0
 15 13  1  6  0  0  0
 15 16  1  0  0  0  0
 15 14  1  0  0  0  0
 16 17  1  0  0  0  0
 17 18  1  0  0  0  0
 18 19  1  0  0  0  0
 19 20  1  0  0  0  0
 21 22  2  0  0  0  0
 21 29  1  0  0  0  0
 22  6  1  0  0  0  0
 23 25  1  0  0  0  0
 23 21  1  0  0  0  0
 24 25  2  0  0  0  0
 27 26  1  0  0  0  0
 27 22  1  0  0  0  0
 28 29  1  0  0  0  0
 30 32  1  0  0  0  0
 31 34  2  0  0  0  0
 32 37  1  0  0  0  0
 33 39  2  0  0  0  0
 35 31  1  0  0  0  0
 36 38  1  0  0  0  0
 37 36  2  0  0  0  0
 37 33  1  0  0  0  0
 38 35  2  0  0  0  0
 39 31  1  0  0  0  0
M  END
>  <MODEL>
3

>  <REMARK>
 VINA RESULT:      -8.6      2.627      7.841
  Name = 
  12 active torsions:
  status: ('A' for Active; 'I' for Inactive)
    1  A    between atoms: N_2  and  C_27
    2  A    between atoms: N_3  and  C_9
    3  A    between atoms: N_6  and  C_9
    4  A    between atoms: N_6  and  C_11
    5  A    between atoms: C_7  and  C_11
    6  A    between atoms: C_10  and  N_17
    7  A    between atoms: C_10  and  N_34
    8  A    between atoms: C_15  and  N_36
    9  A    between atoms: C_19  and  C_30
   10  A    between atoms: C_21  and  C_32
   11  A    between atoms: C_27  and  C_29
   12  A    between atoms: C_30  and  C_39
                            x       y       z     vdW  Elec       q    Type
                         _______ _______ _______ _____ _____    ______ ____

>  <TORSDO>
F 12

$$$$
=
 OpenBabel10232411043D

 39 41  0  0  1  0  0  0  0  0999 V2000
  187.2120  177.3830  137.3430 C   0  0  0  0  0  0  0  0  0  0  0  0
  186.5500  176.4570  136.5300 C   0  0  0  0  0  3  0  0  0  0  0  0
  184.4230  177.1620  137.4430 C   0  0  0  0  0  3  0  0  0  0  0  0
  185.0790  178.0850  138.2640 C   0  0  0  0  0  0  0  0  0  0  0  0
  186.4710  178.1890  138.2190 C   0  0  0  0  0  3  0  0  0  0  0  0
  185.1520  176.3250  136.5810 C   0  0  0  0  0  0  0  0  0  0  0  0
  189.1970  178.8780  137.5870 C   0  0  0  0  0  1  0  0  0  0  0  0
  188.7040  177.4680  137.2860 C   0  0  1  0  0  3  0  0  0  0  0  0
  189.2940  176.5180  138.2150 N   0  0  0  0  0  2  0  0  0  0  0  0
  190.0700  177.2880  139.1730 C   0  0  0  0  0  2  0  0  0  0  0  0
  189.9990  176.6610  140.4850 N   0  0  0  0  0  2  0  0  0  0  0  0
  188.2360  177.9960  141.2460 O   0  0  0  0  0  0  0  0  0  0  0  0
  189.0570  177.0680  141.4820 C   0  0  0  0  0  0  0  0  0  0  0  0
  190.0900  176.9300  143.6310 O   0  0  0  0  0  0  0  0  0  0  0  0
  189.0540  176.4150  142.8240 C   0  0  1  0  0  3  0  0  0  0  0  0
  187.7360  176.6230  143.5150 C   0  0  0  0  0  2  0  0  0  0  0  0
  188.1740  177.1320  144.8420 C   0  0  0  0  0  2  0  0  0  0  0  0
  189.4990  177.6750  144.6150 N   0  0  0  0  0  0  0  0  0  0  0  0
  190.2610  177.4550  145.8350 C   0  0  0  0  0  2  0  0  0  0  0  0
  189.3390  177.5270  147.0360 C   0  0  0  0  0  1  0  0  0  0  0  0
  184.1030  174.1180  136.1060 C   0  0  0  0  0  0  0  0  0  0  0  0
  184.4350  175.3700  135.6930 C   0  0  0  0  0  0  0  0  0  0  0  0
  183.4420  173.1680  135.2490 N   0  0  0  0  0  2  0  0  0  0  0  0
  181.8320  171.5170  134.7740 N   0  0  0  0  0  2  0  0  0  0  0  0
  182.3060  172.3800  135.6080 C   0  0  0  0  0  3  0  0  0  0  0  0
  183.8510  177.3890  134.3740 C   0  0  0  0  0  1  0  0  0  0  0  0
  184.0040  175.8780  134.3460 C   0  0  0  0  0  2  0  0  0  0  0  0
  185.4200  172.8780  137.8730 C   0  0  0  0  0  1  0  0  0  0  0  0
  184.3250  173.7450  137.4700 N   0  0  0  0  0  2  0  0  0  0  0  0
  184.2940  179.0250  139.1150 C   0  0  0  0  0  2  0  0  0  0  0  0
  183.8100  178.9710  144.7490 C   0  0  0  0  0  0  0  0  0  0  0  0
  185.0140  179.2970  140.3550 N   0  0  0  0  0  2  0  0  0  0  0  0
  185.2760  179.2760  142.7360 C   0  0  0  0  0  3  0  0  0  0  0  0
  183.8400  178.9130  146.0060 O   0  0  0  0  0  0  0  0  0  0  0  0
  182.5780  178.8110  144.1350 C   0  0  0  0  0  3  0  0  0  0  0  0
  183.0740  179.0000  141.7330 N   0  0  0  0  0  0  0  0  0  0  0  0
  184.4160  179.1860  141.6510 C   0  0  0  0  0  0  0  0  0  0  0  0
  182.2450  178.8290  142.7900 C   0  0  0  0  0  3  0  0  0  0  0  0
  185.0140  179.1860  144.0950 C   0  0  0  0  0  3  0  0  0  0  0  0
  1  5  1  0  0  0  0
  2  6  1  0  0  0  0
  2  1  2  0  0  0  0
  3  4  1  0  0  0  0
  4 30  1  0  0  0  0
  5  4  2  0  0  0  0
  6  3  2  0  0  0  0
  8  1  1  0  0  0  0
  8  7  1  1  0  0  0
  8  9  1  0  0  0  0
  9 10  1  0  0  0  0
 10 11  1  0  0  0  0
 11 13  1  0  0  0  0
 12 13  2  0  0  0  0
 14 18  1  0  0  0  0
 15 13  1  6  0  0  0
 15 16  1  0  0  0  0
 15 14  1  0  0  0  0
 16 17  1  0  0  0  0
 18 17  1  0  0  0  0
 18 19  1  0  0  0  0
 19 20  1  0  0  0  0
 21 29  1  0  0  0  0
 22 21  2  0  0  0  0
 22  6  1  0  0  0  0
 23 25  1  0  0  0  0
 23 21  1  0  0  0  0
 24 25  2  0  0  0  0
 27 26  1  0  0  0  0
 27 22  1  0  0  0  0
 29 28  1  0  0  0  0
 30 32  1  0  0  0  0
 31 34  2  0  0  0  0
 32 37  1  0  0  0  0
 33 39  2  0  0  0  0
 35 31  1  0  0  0  0
 36 38  1  0  0  0  0
 37 36  2  0  0  0  0
 37 33  1  0  0  0  0
 38 35  2  0  0  0  0
 39 31  1  0  0  0  0
M  END
>  <MODEL>
4

>  <REMARK>
 VINA RESULT:      -8.5      3.024      9.788
  Name = 
  12 active torsions:
  status: ('A' for Active; 'I' for Inactive)
    1  A    between atoms: N_2  and  C_27
    2  A    between atoms: N_3  and  C_9
    3  A    between atoms: N_6  and  C_9
    4  A    between atoms: N_6  and  C_11
    5  A    between atoms: C_7  and  C_11
    6  A    between atoms: C_10  and  N_17
    7  A    between atoms: C_10  and  N_34
    8  A    between atoms: C_15  and  N_36
    9  A    between atoms: C_19  and  C_30
   10  A    between atoms: C_21  and  C_32
   11  A    between atoms: C_27  and  C_29
   12  A    between atoms: C_30  and  C_39
                            x       y       z     vdW  Elec       q    Type
                         _______ _______ _______ _____ _____    ______ ____

>  <TORSDO>
F 12

$$$$
=
 OpenBabel10232411043D

 39 41  0  0  1  0  0  0  0  0999 V2000
  186.3050  178.1910  144.0440 C   0  0  0  0  0  0  0  0  0  0  0  0
  187.4460  177.9580  144.8180 C   0  0  0  0  0  3  0  0  0  0  0  0
  188.8030  177.8990  142.8150 C   0  0  0  0  0  3  0  0  0  0  0  0
  187.6640  178.1260  142.0340 C   0  0  0  0  0  0  0  0  0  0  0  0
  186.4180  178.2630  142.6480 C   0  0  0  0  0  3  0  0  0  0  0  0
  188.7040  177.7950  144.2130 C   0  0  0  0  0  0  0  0  0  0  0  0
  185.1300  178.4170  146.2360 C   0  0  0  0  0  1  0  0  0  0  0  0
  184.9790  178.3240  144.7230 C   0  0  1  0  0  3  0  0  0  0  0  0
  184.2740  179.4910  144.2140 N   0  0  0  0  0  2  0  0  0  0  0  0
  182.9230  179.0620  143.8910 C   0  0  0  0  0  2  0  0  0  0  0  0
  182.8280  178.7550  142.4710 N   0  0  0  0  0  2  0  0  0  0  0  0
  180.5110  179.0500  142.3600 O   0  0  0  0  0  0  0  0  0  0  0  0
  181.5840  178.7630  141.7640 C   0  0  0  0  0  0  0  0  0  0  0  0
  182.0290  177.0960  140.1130 O   0  0  0  0  0  0  0  0  0  0  0  0
  181.5410  178.4030  140.3170 C   0  0  1  0  0  3  0  0  0  0  0  0
  180.1390  178.4980  139.7850 C   0  0  0  0  0  2  0  0  0  0  0  0
  179.9840  177.1780  139.1180 C   0  0  0  0  0  2  0  0  0  0  0  0
  180.9590  176.3180  139.7600 N   0  0  0  0  0  0  0  0  0  0  0  0
  181.4250  175.3800  138.7510 C   0  0  0  0  0  2  0  0  0  0  0  0
  180.8760  175.7710  137.3930 C   0  0  0  0  0  1  0  0  0  0  0  0
  189.8680  177.2900  146.3550 C   0  0  0  0  0  0  0  0  0  0  0  0
  189.9310  177.5830  145.0290 C   0  0  0  0  0  0  0  0  0  0  0  0
  191.0450  177.1180  147.1670 N   0  0  0  0  0  2  0  0  0  0  0  0
  192.7780  175.8490  148.1300 N   0  0  0  0  0  2  0  0  0  0  0  0
  191.7690  175.8970  147.3270 C   0  0  0  0  0  3  0  0  0  0  0  0
  191.7470  179.0400  144.1680 C   0  0  0  0  0  1  0  0  0  0  0  0
  191.2480  177.6110  144.3060 C   0  0  0  0  0  2  0  0  0  0  0  0
  188.2810  177.4770  148.3140 C   0  0  0  0  0  1  0  0  0  0  0  0
  188.5960  177.0450  146.9620 N   0  0  0  0  0  2  0  0  0  0  0  0
  187.7890  178.3170  140.5610 C   0  0  0  0  0  2  0  0  0  0  0  0
  184.4440  177.1180  136.1620 C   0  0  0  0  0  0  0  0  0  0  0  0
  186.4780  178.5850  139.9790 N   0  0  0  0  0  2  0  0  0  0  0  0
  184.7180  178.2320  138.3930 C   0  0  0  0  0  3  0  0  0  0  0  0
  183.5890  176.8520  135.2760 O   0  0  0  0  0  0  0  0  0  0  0  0
  185.7390  176.6750  135.9460 C   0  0  0  0  0  3  0  0  0  0  0  0
  186.9730  177.4350  137.9340 N   0  0  0  0  0  0  0  0  0  0  0  0
  186.0560  178.0590  138.7170 C   0  0  0  0  0  0  0  0  0  0  0  0
  186.8720  176.8210  136.7320 C   0  0  0  0  0  3  0  0  0  0  0  0
  184.0090  177.8240  137.2730 C   0  0  0  0  0  3  0  0  0  0  0  0
  1  8  1  0  0  0  0
  1  2  1  0  0  0  0
  3  6  1  0  0  0  0
  4  5  1  0  0  0  0
  4  3  2  0  0  0  0
  5  1  2  0  0  0  0
  6  2  2  0  0  0  0
  6 22  1  0  0  0  0
  8  7  1  1  0  0  0
  9  8  1  0  0  0  0
 10  9  1  0  0  0  0
 11 10  1  0  0  0  0
 13 12  2  0  0  0  0
 13 11  1  0  0  0  0
 14 15  1  0  0  0  0
 15 13  1  1  0  0  0
 16 15  1  0  0  0  0
 17 18  1  0  0  0  0
 17 16  1  0  0  0  0
 18 14  1  0  0  0  0
 19 18  1  0  0  0  0
 20 19  1  0  0  0  0
 21 29  1  0  0  0  0
 21 23  1  0  0  0  0
 22 21  2  0  0  0  0
 23 25  1  0  0  0  0
 25 24  2  0  0  0  0
 26 27  1  0  0  0  0
 27 22  1  0  0  0  0
 29 28  1  0  0  0  0
 30  4  1  0  0  0  0
 31 39  1  0  0  0  0
 32 30  1  0  0  0  0
 33 37  1  0  0  0  0
 34 31  2  0  0  0  0
 35 31  1  0  0  0  0
 35 38  2  0  0  0  0
 36 37  2  0  0  0  0
 37 32  1  0  0  0  0
 38 36  1  0  0  0  0
 39 33  2  0  0  0  0
M  END
>  <MODEL>
5

>  <REMARK>
 VINA RESULT:      -8.5      2.999      4.524
  Name = 
  12 active torsions:
  status: ('A' for Active; 'I' for Inactive)
    1  A    between atoms: N_2  and  C_27
    2  A    between atoms: N_3  and  C_9
    3  A    between atoms: N_6  and  C_9
    4  A    between atoms: N_6  and  C_11
    5  A    between atoms: C_7  and  C_11
    6  A    between atoms: C_10  and  N_17
    7  A    between atoms: C_10  and  N_34
    8  A    between atoms: C_15  and  N_36
    9  A    between atoms: C_19  and  C_30
   10  A    between atoms: C_21  and  C_32
   11  A    between atoms: C_27  and  C_29
   12  A    between atoms: C_30  and  C_39
                            x       y       z     vdW  Elec       q    Type
                         _______ _______ _______ _____ _____    ______ ____

>  <TORSDO>
F 12

$$$$
=
 OpenBabel10232411043D

 39 41  0  0  1  0  0  0  0  0999 V2000
  188.0960  177.7880  138.3570 C   0  0  0  0  0  0  0  0  0  0  0  0
  189.1440  177.0530  137.7950 C   0  0  0  0  0  3  0  0  0  0  0  0
  190.1290  176.7650  139.9860 C   0  0  0  0  0  3  0  0  0  0  0  0
  189.0860  177.5040  140.5540 C   0  0  0  0  0  0  0  0  0  0  0  0
  188.0770  178.0210  139.7400 C   0  0  0  0  0  3  0  0  0  0  0  0
  190.1790  176.5460  138.5990 C   0  0  0  0  0  0  0  0  0  0  0  0
  187.4200  178.2310  135.9930 C   0  0  0  0  0  1  0  0  0  0  0  0
  187.0320  178.3410  137.4630 C   0  0  1  0  0  3  0  0  0  0  0  0
  185.7720  177.6540  137.7040 N   0  0  0  0  0  2  0  0  0  0  0  0
  184.8340  178.6490  138.1950 C   0  0  0  0  0  2  0  0  0  0  0  0
  184.1910  178.1660  139.4090 N   0  0  0  0  0  2  0  0  0  0  0  0
  185.4180  179.5450  140.8440 O   0  0  0  0  0  0  0  0  0  0  0  0
  184.5350  178.6560  140.7090 C   0  0  0  0  0  0  0  0  0  0  0  0
  184.6820  178.2740  143.0620 O   0  0  0  0  0  0  0  0  0  0  0  0
  183.8700  178.0970  141.9220 C   0  0  1  0  0  3  0  0  0  0  0  0
  182.5410  178.7570  142.1530 C   0  0  0  0  0  2  0  0  0  0  0  0
  182.6480  179.1470  143.5840 C   0  0  0  0  0  2  0  0  0  0  0  0
  184.0720  179.2120  143.8480 N   0  0  0  0  0  0  0  0  0  0  0  0
  184.2640  178.8040  145.2310 C   0  0  0  0  0  2  0  0  0  0  0  0
  185.6940  178.3420  145.4360 C   0  0  0  0  0  1  0  0  0  0  0  0
  192.5760  176.1390  138.0620 C   0  0  0  0  0  0  0  0  0  0  0  0
  191.2800  175.7310  138.0160 C   0  0  0  0  0  0  0  0  0  0  0  0
  193.6490  175.3810  137.4720 N   0  0  0  0  0  2  0  0  0  0  0  0
  195.2810  174.9600  135.8290 N   0  0  0  0  0  2  0  0  0  0  0  0
  194.3760  175.7500  136.3000 C   0  0  0  0  0  3  0  0  0  0  0  0
  190.8350  174.4460  135.9400 C   0  0  0  0  0  1  0  0  0  0  0  0
  190.9130  174.3860  137.4560 C   0  0  0  0  0  2  0  0  0  0  0  0
  193.5830  177.2540  140.0960 C   0  0  0  0  0  1  0  0  0  0  0  0
  192.9180  177.3140  138.8050 N   0  0  0  0  0  2  0  0  0  0  0  0
  188.9960  177.6620  142.0350 C   0  0  0  0  0  2  0  0  0  0  0  0
  191.3650  176.4160  147.0160 C   0  0  0  0  0  0  0  0  0  0  0  0
  190.2320  177.2070  142.6620 N   0  0  0  0  0  2  0  0  0  0  0  0
  191.5480  176.4480  144.5140 C   0  0  0  0  0  3  0  0  0  0  0  0
  191.9600  176.0310  148.0560 O   0  0  0  0  0  0  0  0  0  0  0  0
  190.1490  177.0600  147.1830 C   0  0  0  0  0  3  0  0  0  0  0  0
  189.4270  177.5830  144.8900 N   0  0  0  0  0  0  0  0  0  0  0  0
  190.3940  177.0830  144.0790 C   0  0  0  0  0  0  0  0  0  0  0  0
  189.2850  177.5870  146.2350 C   0  0  0  0  0  3  0  0  0  0  0  0
  191.9790  176.1570  145.7990 C   0  0  0  0  0  3  0  0  0  0  0  0
  1  5  1  0  0  0  0
  2  1  2  0  0  0  0
  2  6  1  0  0  0  0
  3  4  1  0  0  0  0
  4 30  1  0  0  0  0
  5  4  2  0  0  0  0
  6  3  2  0  0  0  0
  8  7  1  6  0  0  0
  8  9  1  0  0  0  0
  8  1  1  0  0  0  0
  9 10  1  0  0  0  0
 10 11  1  0  0  0  0
 11 13  1  0  0  0  0
 13 12  2  0  0  0  0
 14 18  1  0  0  0  0
 15 13  1  6  0  0  0
 15 16  1  0  0  0  0
 15 14  1  0  0  0  0
 16 17  1  0  0  0  0
 17 18  1  0  0  0  0
 18 19  1  0  0  0  0
 19 20  1  0  0  0  0
 21 29  1  0  0  0  0
 22 21  2  0  0  0  0
 22  6  1  0  0  0  0
 23 21  1  0  0  0  0
 24 25  2  0  0  0  0
 25 23  1  0  0  0  0
 26 27  1  0  0  0  0
 27 22  1  0  0  0  0
 29 28  1  0  0  0  0
 30 32  1  0  0  0  0
 31 35  1  0  0  0  0
 31 34  2  0  0  0  0
 32 37  1  0  0  0  0
 33 39  2  0  0  0  0
 36 38  1  0  0  0  0
 37 33  1  0  0  0  0
 37 36  2  0  0  0  0
 38 35  2  0  0  0  0
 39 31  1  0  0  0  0
M  END
>  <MODEL>
6

>  <REMARK>
 VINA RESULT:      -8.3      2.540      7.253
  Name = 
  12 active torsions:
  status: ('A' for Active; 'I' for Inactive)
    1  A    between atoms: N_2  and  C_27
    2  A    between atoms: N_3  and  C_9
    3  A    between atoms: N_6  and  C_9
    4  A    between atoms: N_6  and  C_11
    5  A    between atoms: C_7  and  C_11
    6  A    between atoms: C_10  and  N_17
    7  A    between atoms: C_10  and  N_34
    8  A    between atoms: C_15  and  N_36
    9  A    between atoms: C_19  and  C_30
   10  A    between atoms: C_21  and  C_32
   11  A    between atoms: C_27  and  C_29
   12  A    between atoms: C_30  and  C_39
                            x       y       z     vdW  Elec       q    Type
                         _______ _______ _______ _____ _____    ______ ____

>  <TORSDO>
F 12

$$$$
=
 OpenBabel10232411043D

 39 41  0  0  1  0  0  0  0  0999 V2000
  186.4740  178.0660  144.3390 C   0  0  0  0  0  0  0  0  0  0  0  0
  187.6370  177.8050  145.0710 C   0  0  0  0  0  3  0  0  0  0  0  0
  188.9290  177.7870  143.0250 C   0  0  0  0  0  3  0  0  0  0  0  0
  187.7680  178.0400  142.2870 C   0  0  0  0  0  0  0  0  0  0  0  0
  186.5430  178.1710  142.9430 C   0  0  0  0  0  3  0  0  0  0  0  0
  188.8740  177.6490  144.4220 C   0  0  0  0  0  0  0  0  0  0  0  0
  185.3770  178.4610  146.5480 C   0  0  0  0  0  1  0  0  0  0  0  0
  185.1710  178.1910  145.0630 C   0  0  1  0  0  3  0  0  0  0  0  0
  184.3690  179.2480  144.4650 N   0  0  0  0  0  2  0  0  0  0  0  0
  182.9900  178.7880  144.4710 C   0  0  0  0  0  2  0  0  0  0  0  0
  182.3080  179.2540  143.2730 N   0  0  0  0  0  2  0  0  0  0  0  0
  183.4810  177.8480  141.8190 O   0  0  0  0  0  0  0  0  0  0  0  0
  182.6060  178.7430  141.9700 C   0  0  0  0  0  0  0  0  0  0  0  0
  182.6360  179.0140  139.5980 O   0  0  0  0  0  0  0  0  0  0  0  0
  181.9020  179.2850  140.7710 C   0  0  1  0  0  3  0  0  0  0  0  0
  180.5280  178.6900  140.6450 C   0  0  0  0  0  2  0  0  0  0  0  0
  180.5310  178.2330  139.2300 C   0  0  0  0  0  2  0  0  0  0  0  0
  181.9320  178.0780  138.8900 N   0  0  0  0  0  0  0  0  0  0  0  0
  182.0650  178.4150  137.4810 C   0  0  0  0  0  2  0  0  0  0  0  0
  181.1060  179.5360  137.1280 C   0  0  0  0  0  1  0  0  0  0  0  0
  190.1120  177.2300  146.5420 C   0  0  0  0  0  0  0  0  0  0  0  0
  190.1240  177.4090  145.1940 C   0  0  0  0  0  0  0  0  0  0  0  0
  191.3150  177.0330  147.3080 N   0  0  0  0  0  2  0  0  0  0  0  0
  193.0380  175.7220  148.2330 N   0  0  0  0  0  2  0  0  0  0  0  0
  191.9980  175.7890  147.4720 C   0  0  0  0  0  3  0  0  0  0  0  0
  191.5570  175.8560  143.8920 C   0  0  0  0  0  1  0  0  0  0  0  0
  191.3990  177.2760  144.4080 C   0  0  0  0  0  2  0  0  0  0  0  0
  188.6020  177.8260  148.4800 C   0  0  0  0  0  1  0  0  0  0  0  0
  188.8600  177.1340  147.2270 N   0  0  0  0  0  2  0  0  0  0  0  0
  187.8480  178.2660  140.8150 C   0  0  0  0  0  2  0  0  0  0  0  0
  190.2820  176.5170  136.0190 C   0  0  0  0  0  0  0  0  0  0  0  0
  189.0410  177.6230  140.2740 N   0  0  0  0  0  2  0  0  0  0  0  0
  190.4660  176.8890  138.4940 C   0  0  0  0  0  3  0  0  0  0  0  0
  190.9490  176.1730  135.0090 O   0  0  0  0  0  0  0  0  0  0  0  0
  188.9510  176.8490  135.8180 C   0  0  0  0  0  3  0  0  0  0  0  0
  188.1330  177.4410  138.0610 N   0  0  0  0  0  0  0  0  0  0  0  0
  189.2030  177.3090  138.8870 C   0  0  0  0  0  0  0  0  0  0  0  0
  187.9880  177.2550  136.7290 C   0  0  0  0  0  3  0  0  0  0  0  0
  190.9410  176.5380  137.2390 C   0  0  0  0  0  3  0  0  0  0  0  0
  1  8  1  0  0  0  0
  1  2  1  0  0  0  0
  3  6  1  0  0  0  0
  4  5  1  0  0  0  0
  4  3  2  0  0  0  0
  5  1  2  0  0  0  0
  6  2  2  0  0  0  0
  6 22  1  0  0  0  0
  8  7  1  1  0  0  0
  9 10  1  0  0  0  0
  9  8  1  0  0  0  0
 11 10  1  0  0  0  0
 12 13  2  0  0  0  0
 13 11  1  0  0  0  0
 14 15  1  0  0  0  0
 15 13  1  1  0  0  0
 16 15  1  0  0  0  0
 17 16  1  0  0  0  0
 18 17  1  0  0  0  0
 18 14  1  0  0  0  0
 19 18  1  0  0  0  0
 20 19  1  0  0  0  0
 21 29  1  0  0  0  0
 21 23  1  0  0  0  0
 22 21  2  0  0  0  0
 23 25  1  0  0  0  0
 25 24  2  0  0  0  0
 26 27  1  0  0  0  0
 27 22  1  0  0  0  0
 29 28  1  0  0  0  0
 30  4  1  0  0  0  0
 31 39  1  0  0  0  0
 32 30  1  0  0  0  0
 33 37  1  0  0  0  0
 34 31  2  0  0  0  0
 35 31  1  0  0  0  0
 35 38  2  0  0  0  0
 36 37  2  0  0  0  0
 37 32  1  0  0  0  0
 38 36  1  0  0  0  0
 39 33  2  0  0  0  0
M  END
>  <MODEL>
7

>  <REMARK>
 VINA RESULT:      -8.3      1.794      3.057
  Name = 
  12 active torsions:
  status: ('A' for Active; 'I' for Inactive)
    1  A    between atoms: N_2  and  C_27
    2  A    between atoms: N_3  and  C_9
    3  A    between atoms: N_6  and  C_9
    4  A    between atoms: N_6  and  C_11
    5  A    between atoms: C_7  and  C_11
    6  A    between atoms: C_10  and  N_17
    7  A    between atoms: C_10  and  N_34
    8  A    between atoms: C_15  and  N_36
    9  A    between atoms: C_19  and  C_30
   10  A    between atoms: C_21  and  C_32
   11  A    between atoms: C_27  and  C_29
   12  A    between atoms: C_30  and  C_39
                            x       y       z     vdW  Elec       q    Type
                         _______ _______ _______ _____ _____    ______ ____

>  <TORSDO>
F 12

$$$$
=
 OpenBabel10232411043D

 39 41  0  0  1  0  0  0  0  0999 V2000
  186.1960  178.0020  144.1500 C   0  0  0  0  0  0  0  0  0  0  0  0
  187.0560  177.7270  145.2190 C   0  0  0  0  0  3  0  0  0  0  0  0
  188.9020  177.4660  143.6780 C   0  0  0  0  0  3  0  0  0  0  0  0
  188.0470  177.7340  142.6030 C   0  0  0  0  0  0  0  0  0  0  0  0
  186.6960  177.9930  142.8400 C   0  0  0  0  0  3  0  0  0  0  0  0
  188.4130  177.4420  144.9940 C   0  0  0  0  0  0  0  0  0  0  0  0
  184.5360  178.7880  145.8430 C   0  0  0  0  0  1  0  0  0  0  0  0
  184.7510  178.2670  144.4270 C   0  0  1  0  0  3  0  0  0  0  0  0
  184.2220  179.2120  143.4560 N   0  0  0  0  0  2  0  0  0  0  0  0
  182.7840  179.2730  143.6630 C   0  0  0  0  0  2  0  0  0  0  0  0
  182.0930  178.7880  142.4770 N   0  0  0  0  0  2  0  0  0  0  0  0
  183.8960  179.1550  141.0340 O   0  0  0  0  0  0  0  0  0  0  0  0
  182.7090  178.7600  141.1850 C   0  0  0  0  0  0  0  0  0  0  0  0
  181.1220  179.3190  139.4910 O   0  0  0  0  0  0  0  0  0  0  0  0
  181.9400  178.2880  139.9970 C   0  0  1  0  0  3  0  0  0  0  0  0
  182.8680  177.8140  138.9150 C   0  0  0  0  0  2  0  0  0  0  0  0
  182.3530  178.5580  137.7350 C   0  0  0  0  0  2  0  0  0  0  0  0
  181.6540  179.7020  138.2900 N   0  0  0  0  0  0  0  0  0  0  0  0
  180.5410  179.9910  137.3990 C   0  0  0  0  0  2  0  0  0  0  0  0
  180.7300  181.3550  136.7670 C   0  0  0  0  0  1  0  0  0  0  0  0
  190.6940  177.1930  145.9620 C   0  0  0  0  0  0  0  0  0  0  0  0
  189.3440  177.1850  146.1270 C   0  0  0  0  0  0  0  0  0  0  0  0
  191.6080  176.9110  147.0380 N   0  0  0  0  0  2  0  0  0  0  0  0
  193.1020  175.5410  148.2340 N   0  0  0  0  0  2  0  0  0  0  0  0
  192.3560  175.7050  147.1940 C   0  0  0  0  0  3  0  0  0  0  0  0
  188.7930  178.3130  148.2680 C   0  0  0  0  0  1  0  0  0  0  0  0
  188.7340  177.0100  147.4890 C   0  0  0  0  0  2  0  0  0  0  0  0
  191.7620  178.9280  144.4640 C   0  0  0  0  0  1  0  0  0  0  0  0
  191.2460  177.5900  144.7030 N   0  0  0  0  0  2  0  0  0  0  0  0
  188.5890  177.8380  141.2180 C   0  0  0  0  0  2  0  0  0  0  0  0
  187.3140  177.9490  135.7100 C   0  0  0  0  0  0  0  0  0  0  0  0
  187.5030  178.0700  140.2720 N   0  0  0  0  0  2  0  0  0  0  0  0
  186.5210  178.0760  138.0870 C   0  0  0  0  0  3  0  0  0  0  0  0
  186.9030  177.9150  134.5200 O   0  0  0  0  0  0  0  0  0  0  0  0
  188.6850  177.8880  135.9090 C   0  0  0  0  0  3  0  0  0  0  0  0
  188.9400  177.9800  138.3540 N   0  0  0  0  0  0  0  0  0  0  0  0
  187.6790  178.0410  138.8520 C   0  0  0  0  0  0  0  0  0  0  0  0
  189.4130  177.9080  137.0880 C   0  0  0  0  0  3  0  0  0  0  0  0
  186.3580  178.0390  136.7100 C   0  0  0  0  0  3  0  0  0  0  0  0
  1  8  1  0  0  0  0
  1  2  1  0  0  0  0
  3  6  1  0  0  0  0
  4  5  1  0  0  0  0
  4  3  2  0  0  0  0
  5  1  2  0  0  0  0
  6  2  2  0  0  0  0
  6 22  1  0  0  0  0
  8  7  1  1  0  0  0
  9 10  1  0  0  0  0
  9  8  1  0  0  0  0
 11 10  1  0  0  0  0
 12 13  2  0  0  0  0
 13 11  1  0  0  0  0
 14 15  1  0  0  0  0
 15 13  1  1  0  0  0
 16 15  1  0  0  0  0
 17 18  1  0  0  0  0
 17 16  1  0  0  0  0
 18 14  1  0  0  0  0
 19 18  1  0  0  0  0
 20 19  1  0  0  0  0
 21 22  2  0  0  0  0
 21 23  1  0  0  0  0
 22 27  1  0  0  0  0
 23 25  1  0  0  0  0
 25 24  2  0  0  0  0
 27 26  1  0  0  0  0
 28 29  1  0  0  0  0
 29 21  1  0  0  0  0
 30  4  1  0  0  0  0
 31 35  1  0  0  0  0
 31 39  1  0  0  0  0
 32 30  1  0  0  0  0
 33 37  1  0  0  0  0
 34 31  2  0  0  0  0
 35 38  2  0  0  0  0
 36 37  2  0  0  0  0
 37 32  1  0  0  0  0
 38 36  1  0  0  0  0
 39 33  2  0  0  0  0
M  END
>  <MODEL>
8

>  <REMARK>
 VINA RESULT:      -8.3      2.316      3.433
  Name = 
  12 active torsions:
  status: ('A' for Active; 'I' for Inactive)
    1  A    between atoms: N_2  and  C_27
    2  A    between atoms: N_3  and  C_9
    3  A    between atoms: N_6  and  C_9
    4  A    between atoms: N_6  and  C_11
    5  A    between atoms: C_7  and  C_11
    6  A    between atoms: C_10  and  N_17
    7  A    between atoms: C_10  and  N_34
    8  A    between atoms: C_15  and  N_36
    9  A    between atoms: C_19  and  C_30
   10  A    between atoms: C_21  and  C_32
   11  A    between atoms: C_27  and  C_29
   12  A    between atoms: C_30  and  C_39
                            x       y       z     vdW  Elec       q    Type
                         _______ _______ _______ _____ _____    ______ ____

>  <TORSDO>
F 12

$$$$
=
 OpenBabel10232411043D

 39 41  0  0  1  0  0  0  0  0999 V2000
  189.4950  177.1860  139.9770 C   0  0  0  0  0  0  0  0  0  0  0  0
  190.0240  177.1250  141.2710 C   0  0  0  0  0  3  0  0  0  0  0  0
  188.0470  178.2190  142.1390 C   0  0  0  0  0  3  0  0  0  0  0  0
  187.5160  178.2890  140.8460 C   0  0  0  0  0  0  0  0  0  0  0  0
  188.2430  177.7810  139.7680 C   0  0  0  0  0  3  0  0  0  0  0  0
  189.3140  177.6530  142.3630 C   0  0  0  0  0  0  0  0  0  0  0  0
  189.9450  177.3360  137.5250 C   0  0  0  0  0  1  0  0  0  0  0  0
  190.2970  176.6440  138.8370 C   0  0  1  0  0  3  0  0  0  0  0  0
  191.7180  176.7840  139.1150 N   0  0  0  0  0  2  0  0  0  0  0  0
  192.4210  176.5390  137.8670 C   0  0  0  0  0  2  0  0  0  0  0  0
  193.6670  175.8360  138.1310 N   0  0  0  0  0  2  0  0  0  0  0  0
  193.1770  174.0300  136.7290 O   0  0  0  0  0  0  0  0  0  0  0  0
  193.9830  174.5760  137.5300 C   0  0  0  0  0  0  0  0  0  0  0  0
  196.2500  174.1630  136.9020 O   0  0  0  0  0  0  0  0  0  0  0  0
  195.2600  173.8820  137.8660 C   0  0  1  0  0  3  0  0  0  0  0  0
  195.7540  174.3020  139.2210 C   0  0  0  0  0  2  0  0  0  0  0  0
  197.1650  174.6670  138.9230 C   0  0  0  0  0  2  0  0  0  0  0  0
  197.1810  174.9640  137.5040 N   0  0  0  0  0  0  0  0  0  0  0  0
  198.4850  174.5580  137.0020 C   0  0  0  0  0  2  0  0  0  0  0  0
  199.4040  174.2340  138.1640 C   0  0  0  0  0  1  0  0  0  0  0  0
  189.0760  177.1550  144.7910 C   0  0  0  0  0  0  0  0  0  0  0  0
  189.8490  177.5600  143.7480 C   0  0  0  0  0  0  0  0  0  0  0  0
  189.5680  177.0940  146.1430 N   0  0  0  0  0  2  0  0  0  0  0  0
  189.7730  177.8800  148.3520 N   0  0  0  0  0  2  0  0  0  0  0  0
  189.2220  178.0000  147.1910 C   0  0  0  0  0  3  0  0  0  0  0  0
  191.5520  179.3330  144.0890 C   0  0  0  0  0  1  0  0  0  0  0  0
  191.3140  177.8410  143.9360 C   0  0  0  0  0  2  0  0  0  0  0  0
  186.5750  177.2880  145.1370 C   0  0  0  0  0  1  0  0  0  0  0  0
  187.7510  176.6760  144.5400 N   0  0  0  0  0  2  0  0  0  0  0  0
  186.1380  178.8160  140.6270 C   0  0  0  0  0  2  0  0  0  0  0  0
  181.1730  178.7810  143.3330 C   0  0  0  0  0  0  0  0  0  0  0  0
  185.5010  179.0990  141.9090 N   0  0  0  0  0  2  0  0  0  0  0  0
  183.6600  179.0890  143.4420 C   0  0  0  0  0  3  0  0  0  0  0  0
  180.1400  178.7280  144.0510 O   0  0  0  0  0  0  0  0  0  0  0  0
  181.0050  178.6090  141.9680 C   0  0  0  0  0  3  0  0  0  0  0  0
  183.2820  178.7920  141.0540 N   0  0  0  0  0  0  0  0  0  0  0  0
  184.0910  178.9880  142.1270 C   0  0  0  0  0  0  0  0  0  0  0  0
  181.9440  178.6200  140.9480 C   0  0  0  0  0  3  0  0  0  0  0  0
  182.3830  179.0030  143.9740 C   0  0  0  0  0  3  0  0  0  0  0  0
  1  2  1  0  0  0  0
  2  6  2  0  0  0  0
  3  6  1  0  0  0  0
  4  3  2  0  0  0  0
  5  1  2  0  0  0  0
  5  4  1  0  0  0  0
  6 22  1  0  0  0  0
  8  7  1  6  0  0  0
  8  9  1  0  0  0  0
  8  1  1  0  0  0  0
 10 11  1  0  0  0  0
 10  9  1  0  0  0  0
 12 13  2  0  0  0  0
 13 11  1  0  0  0  0
 14 18  1  0  0  0  0
 14 15  1  0  0  0  0
 15 13  1  6  0  0  0
 15 16  1  0  0  0  0
 17 16  1  0  0  0  0
 18 17  1  0  0  0  0
 19 18  1  0  0  0  0
 19 20  1  0  0  0  0
 21 23  1  0  0  0  0
 22 27  1  0  0  0  0
 22 21  2  0  0  0  0
 23 25  1  0  0  0  0
 25 24  2  0  0  0  0
 27 26  1  0  0  0  0
 29 21  1  0  0  0  0
 29 28  1  0  0  0  0
 30  4  1  0  0  0  0
 30 32  1  0  0  0  0
 31 39  1  0  0  0  0
 31 34  2  0  0  0  0
 32 37  1  0  0  0  0
 33 39  2  0  0  0  0
 35 31  1  0  0  0  0
 36 37  2  0  0  0  0
 37 33  1  0  0  0  0
 38 36  1  0  0  0  0
 38 35  2  0  0  0  0
M  END
>  <MODEL>
9

>  <REMARK>
 VINA RESULT:      -8.1      2.824      8.757
  Name = 
  12 active torsions:
  status: ('A' for Active; 'I' for Inactive)
    1  A    between atoms: N_2  and  C_27
    2  A    between atoms: N_3  and  C_9
    3  A    between atoms: N_6  and  C_9
    4  A    between atoms: N_6  and  C_11
    5  A    between atoms: C_7  and  C_11
    6  A    between atoms: C_10  and  N_17
    7  A    between atoms: C_10  and  N_34
    8  A    between atoms: C_15  and  N_36
    9  A    between atoms: C_19  and  C_30
   10  A    between atoms: C_21  and  C_32
   11  A    between atoms: C_27  and  C_29
   12  A    between atoms: C_30  and  C_39
                            x       y       z     vdW  Elec       q    Type
                         _______ _______ _______ _____ _____    ______ ____

>  <TORSDO>
F 12

$$$$
