=
 OpenBabel10232408463D

 55 59  0  0  1  0  0  0  0  0999 V2000
  191.4010  174.8060  137.6660 C   0  0  0  0  0  0  0  0  0  0  0  0
  193.6760  175.6190  137.4540 C   0  0  0  0  0  0  0  0  0  0  0  0
  193.3640  176.6810  138.2420 N   0  0  0  0  0  0  0  0  0  0  0  0
  192.7020  174.6640  137.1590 C   0  0  0  0  0  3  0  0  0  0  0  0
  192.1090  176.8610  138.7320 C   0  0  0  0  0  3  0  0  0  0  0  0
  191.0950  175.9460  138.4420 C   0  0  0  0  0  0  0  0  0  0  0  0
  190.7890  178.1500  140.0630 O   0  0  0  0  0  1  0  0  0  0  0  0
  187.1520  178.1260  137.4450 C   0  0  0  0  0  2  0  0  0  0  0  0
  188.0710  177.6310  138.2560 C   0  0  0  0  0  0  0  0  0  0  0  0
  188.8000  176.5010  137.9700 O   0  0  0  0  0  0  0  0  0  0  0  0
  188.4590  178.2550  139.5370 C   0  0  0  0  0  2  0  0  0  0  0  0
  189.7220  176.2150  139.0050 C   0  0  2  0  0  3  0  0  0  0  0  0
  189.6190  177.3810  140.0320 C   0  0  1  0  0  0  0  0  0  0  0  0
  190.5330  176.4540  142.1810 C   0  0  0  0  0  3  0  0  0  0  0  0
  189.2980  176.8610  141.4460 C   0  0  1  0  0  3  0  0  0  0  0  0
  188.7130  177.9820  142.3100 C   0  0  2  0  0  3  0  0  0  0  0  0
  190.6990  177.1330  143.3060 C   0  0  0  0  0  3  0  0  0  0  0  0
  189.6040  178.1130  143.5410 C   0  0  0  0  0  2  0  0  0  0  0  0
  186.2270  178.5250  142.1070 C   0  0  0  0  0  0  0  0  0  0  0  0
  186.4640  179.5870  141.4730 O   0  0  0  0  0  0  0  0  0  0  0  0
  187.3090  177.7420  142.6510 N   0  0  0  0  0  0  0  0  0  0  0  0
  187.0310  176.7310  143.6680 C   0  0  0  0  0  2  0  0  0  0  0  0
  186.6950  177.3920  144.9970 C   0  0  0  0  0  1  0  0  0  0  0  0
  184.8090  178.0790  142.2730 C   0  0  0  0  0  2  0  0  0  0  0  0
  183.8970  179.1070  141.7780 N   0  0  0  0  0  2  0  0  0  0  0  0
  183.6180  177.3500  140.2520 O   0  0  0  0  0  1  0  0  0  0  0  0
  183.1250  178.6010  140.6330 C   0  0  1  0  0  0  0  0  0  0  0  0
  181.6870  178.4220  141.0380 C   0  0  0  0  0  3  0  0  0  0  0  0
  181.0900  179.2040  141.9380 C   0  0  0  0  0  2  0  0  0  0  0  0
  184.2500  180.0640  139.2370 O   0  0  0  0  0  0  0  0  0  0  0  0
  183.2240  179.5060  139.5030 N   0  0  0  0  0  0  0  0  0  0  0  0
  195.8500  174.7190  137.4900 N   0  0  0  0  0  0  0  0  0  0  0  0
  194.9930  175.4670  136.9240 N   0  0  0  0  0  0  0  0  0  0  0  0
  197.1980  174.5850  136.9490 C   0  0  1  0  0  3  0  0  0  0  0  0
  198.2360  174.7130  138.0220 C   0  0  0  0  0  0  0  0  0  0  0  0
  198.0950  175.5420  138.9610 O   0  0  0  0  0  1  0  0  0  0  0  0
  199.3130  173.8330  138.0370 O   0  0  0  0  0  0  0  0  0  0  0  0
  197.3620  173.2900  136.1400 C   0  0  0  0  0  2  0  0  0  0  0  0
  194.2610  171.1060  135.8860 C   0  0  0  0  0  3  0  0  0  0  0  0
  194.4350  170.2590  136.9860 C   0  0  0  0  0  3  0  0  0  0  0  0
  195.5530  170.4070  137.8150 C   0  0  0  0  0  3  0  0  0  0  0  0
  195.2000  172.1060  135.6170 C   0  0  0  0  0  3  0  0  0  0  0  0
  196.3170  172.2590  136.4470 C   0  0  0  0  0  0  0  0  0  0  0  0
  196.4930  171.4050  137.5450 C   0  0  0  0  0  3  0  0  0  0  0  0
  190.4000  173.8550  137.3940 O   0  0  0  0  0  0  0  0  0  0  0  0
  188.9440  172.7190  135.7700 N   0  0  0  0  0  2  0  0  0  0  0  0
  191.2400  172.8290  135.4910 O   0  0  0  0  0  0  0  0  0  0  0  0
  190.2430  173.1490  136.1890 C   0  0  0  0  0  0  0  0  0  0  0  0
  187.2680  174.4560  135.8350 N   0  0  0  0  0  0  0  0  0  0  0  0
  184.1150  174.8970  137.6040 N   0  0  0  0  0  1  0  0  0  0  0  0
  186.1200  174.9800  136.2730 N   0  0  0  0  0  0  0  0  0  0  0  0
  185.7470  173.0850  137.6540 C   0  0  0  0  0  3  0  0  0  0  0  0
  187.7000  173.2360  136.2560 C   0  0  0  0  0  0  0  0  0  0  0  0
  185.3390  174.3220  137.1650 C   0  0  0  0  0  0  0  0  0  0  0  0
  186.9430  172.5380  137.1970 C   0  0  0  0  0  3  0  0  0  0  0  0
  1  6  1  0  0  0  0
  2  3  2  0  0  0  0
  3  5  1  0  0  0  0
  4  2  1  0  0  0  0
  4  1  2  0  0  0  0
  6  5  2  0  0  0  0
  8  9  2  0  0  0  0
  9 11  1  0  0  0  0
 10  9  1  0  0  0  0
 10 12  1  0  0  0  0
 11 13  1  0  0  0  0
 12  6  1  6  0  0  0
 12 13  1  0  0  0  0
 13  7  1  1  0  0  0
 13 15  1  0  0  0  0
 14 17  2  0  0  0  0
 15 14  1  1  0  0  0
 15 16  1  0  0  0  0
 16 21  1  1  0  0  0
 16 18  1  0  0  0  0
 17 18  1  0  0  0  0
 19 24  1  0  0  0  0
 19 21  1  0  0  0  0
 20 19  2  0  0  0  0
 21 22  1  0  0  0  0
 22 23  1  0  0  0  0
 25 24  1  0  0  0  0
 27 26  1  6  0  0  0
 27 28  1  0  0  0  0
 27 25  1  0  0  0  0
 28 29  2  0  0  0  0
 30 31  2  0  0  0  0
 31 27  1  0  0  0  0
 33  2  1  0  0  0  0
 33 32  2  0  0  0  0
 34 38  1  1  0  0  0
 34 32  1  0  0  0  0
 34 35  1  0  0  0  0
 35 37  2  0  0  0  0
 35 36  1  0  0  0  0
 38 43  1  0  0  0  0
 39 40  1  0  0  0  0
 40 41  2  0  0  0  0
 42 39  2  0  0  0  0
 42 43  1  0  0  0  0
 43 44  2  0  0  0  0
 44 41  1  0  0  0  0
 45  1  1  0  0  0  0
 46 48  1  0  0  0  0
 46 53  1  0  0  0  0
 47 48  2  0  0  0  0
 48 45  1  0  0  0  0
 49 53  2  0  0  0  0
 49 51  1  0  0  0  0
 51 54  2  0  0  0  0
 53 55  1  0  0  0  0
 54 50  1  0  0  0  0
 54 52  1  0  0  0  0
 55 52  2  0  0  0  0
M  END
>  <MODEL>
1

>  <REMARK>
 VINA RESULT:      -7.7      0.000      0.000
  Name = 
  17 active torsions:
  status: ('A' for Active; 'I' for Inactive)
    1  A    between atoms: C_1  and  C_31
    2  A    between atoms: C_2  and  C_8
    3  A    between atoms: C_7  and  O_9
    4  A    between atoms: C_8  and  N_13
    5  A    between atoms: C_8  and  C_30
    6  A    between atoms: O_9  and  C_51
    7  A    between atoms: C_10  and  C_23
    8  A    between atoms: C_12  and  C_50
    9  A    between atoms: C_14  and  N_40
   10  A    between atoms: C_17  and  N_52
   11  A    between atoms: N_18  and  C_42
   12  A    between atoms: C_23  and  N_33
   13  A    between atoms: C_30  and  C_37
   14  A    between atoms: C_31  and  N_33
   15  A    between atoms: C_31  and  N_43
   16  A    between atoms: C_34  and  N_52
   17  A    between atoms: C_45  and  C_47
                            x       y       z     vdW  Elec       q    Type
                         _______ _______ _______ _____ _____    ______ ____

>  <TORSDO>
F 17

$$$$
=
 OpenBabel10232408463D

 55 59  0  0  1  0  0  0  0  0999 V2000
  183.3300  178.0280  139.6770 C   0  0  0  0  0  0  0  0  0  0  0  0
  184.9230  178.6880  141.3830 C   0  0  0  0  0  0  0  0  0  0  0  0
  185.9430  178.4300  140.5230 N   0  0  0  0  0  0  0  0  0  0  0  0
  183.6030  178.4970  140.9710 C   0  0  0  0  0  3  0  0  0  0  0  0
  185.7160  177.9550  139.2700 C   0  0  0  0  0  3  0  0  0  0  0  0
  184.4140  177.7230  138.8230 C   0  0  0  0  0  0  0  0  0  0  0  0
  183.4080  175.1740  138.5640 O   0  0  0  0  0  1  0  0  0  0  0  0
  181.3410  177.5610  135.3840 C   0  0  0  0  0  2  0  0  0  0  0  0
  182.3560  177.1100  136.1010 C   0  0  0  0  0  0  0  0  0  0  0  0
  183.2710  177.9330  136.7140 O   0  0  0  0  0  0  0  0  0  0  0  0
  182.6010  175.6790  136.3710 C   0  0  0  0  0  2  0  0  0  0  0  0
  184.2350  177.1810  137.4280 C   0  0  2  0  0  3  0  0  0  0  0  0
  183.8040  175.6880  137.3230 C   0  0  1  0  0  0  0  0  0  0  0  0
  184.3930  173.5690  136.1070 C   0  0  0  0  0  3  0  0  0  0  0  0
  184.9280  174.8160  136.7310 C   0  0  1  0  0  3  0  0  0  0  0  0
  185.6130  175.5410  135.5680 C   0  0  2  0  0  3  0  0  0  0  0  0
  184.6970  173.4770  134.8210 C   0  0  0  0  0  3  0  0  0  0  0  0
  185.5010  174.6360  134.3460 C   0  0  0  0  0  2  0  0  0  0  0  0
  187.9370  174.9700  136.4570 C   0  0  0  0  0  0  0  0  0  0  0  0
  187.5420  173.8640  136.9100 O   0  0  0  0  0  0  0  0  0  0  0  0
  186.9980  175.9010  135.8800 N   0  0  0  0  0  0  0  0  0  0  0  0
  187.3860  177.2950  135.6870 C   0  0  0  0  0  2  0  0  0  0  0  0
  186.4330  177.9850  134.7220 C   0  0  0  0  0  1  0  0  0  0  0  0
  189.3950  175.2990  136.5110 C   0  0  0  0  0  2  0  0  0  0  0  0
  189.8850  175.1890  137.8820 N   0  0  0  0  0  2  0  0  0  0  0  0
  190.5970  177.3280  137.2380 O   0  0  0  0  0  1  0  0  0  0  0  0
  190.4430  176.4730  138.3340 C   0  0  1  0  0  0  0  0  0  0  0  0
  189.4830  177.1260  139.2920 C   0  0  0  0  0  3  0  0  0  0  0  0
  189.2670  178.4420  139.3060 C   0  0  0  0  0  2  0  0  0  0  0  0
  192.7520  176.5980  138.4120 O   0  0  0  0  0  0  0  0  0  0  0  0
  191.7360  176.2820  138.9630 N   0  0  0  0  0  0  0  0  0  0  0  0
  185.4530  178.3510  143.6510 N   0  0  0  0  0  0  0  0  0  0  0  0
  185.1860  179.1570  142.7060 N   0  0  0  0  0  0  0  0  0  0  0  0
  185.7050  178.8420  145.0020 C   0  0  1  0  0  3  0  0  0  0  0  0
  184.4510  178.8550  145.8240 C   0  0  0  0  0  0  0  0  0  0  0  0
  183.3520  179.2110  145.3190 O   0  0  0  0  0  0  0  0  0  0  0  0
  184.4850  178.3690  147.1260 O   0  0  0  0  0  1  0  0  0  0  0  0
  186.8370  178.0650  145.6900 C   0  0  0  0  0  2  0  0  0  0  0  0
  190.1940  177.7370  143.9380 C   0  0  0  0  0  3  0  0  0  0  0  0
  189.9310  176.6950  143.0410 C   0  0  0  0  0  3  0  0  0  0  0  0
  188.6610  176.1090  142.9990 C   0  0  0  0  0  3  0  0  0  0  0  0
  189.1860  178.1990  144.7880 C   0  0  0  0  0  3  0  0  0  0  0  0
  187.9120  177.6180  144.7450 C   0  0  0  0  0  0  0  0  0  0  0  0
  187.6530  176.5690  143.8510 C   0  0  0  0  0  3  0  0  0  0  0  0
  182.0110  177.8340  139.2300 O   0  0  0  0  0  0  0  0  0  0  0  0
  180.1780  179.3440  139.8700 N   0  0  0  0  0  2  0  0  0  0  0  0
  180.4040  177.2300  140.7900 O   0  0  0  0  0  0  0  0  0  0  0  0
  180.8460  178.0820  139.9750 C   0  0  0  0  0  0  0  0  0  0  0  0
  180.8250  181.5320  139.0820 N   0  0  0  0  0  0  0  0  0  0  0  0
  180.8680  183.1640  135.8270 N   0  0  0  0  0  1  0  0  0  0  0  0
  180.9870  182.4470  138.1220 N   0  0  0  0  0  0  0  0  0  0  0  0
  180.1500  180.9310  136.4970 C   0  0  0  0  0  3  0  0  0  0  0  0
  180.3470  180.2880  138.8070 C   0  0  0  0  0  0  0  0  0  0  0  0
  180.6720  182.1770  136.8310 C   0  0  0  0  0  0  0  0  0  0  0  0
  179.9830  179.9770  137.4970 C   0  0  0  0  0  3  0  0  0  0  0  0
  1  4  2  0  0  0  0
  2 33  1  0  0  0  0
  3  2  2  0  0  0  0
  4  2  1  0  0  0  0
  5  3  1  0  0  0  0
  6  5  2  0  0  0  0
  6  1  1  0  0  0  0
  8  9  2  0  0  0  0
  9 11  1  0  0  0  0
  9 10  1  0  0  0  0
 10 12  1  0  0  0  0
 11 13  1  0  0  0  0
 12  6  1  1  0  0  0
 13 12  1  0  0  0  0
 13  7  1  1  0  0  0
 15 14  1  6  0  0  0
 15 13  1  0  0  0  0
 16 21  1  1  0  0  0
 16 15  1  0  0  0  0
 17 14  2  0  0  0  0
 18 17  1  0  0  0  0
 18 16  1  0  0  0  0
 19 24  1  0  0  0  0
 19 20  2  0  0  0  0
 21 19  1  0  0  0  0
 22 21  1  0  0  0  0
 23 22  1  0  0  0  0
 24 25  1  0  0  0  0
 25 27  1  0  0  0  0
 27 26  1  6  0  0  0
 27 31  1  0  0  0  0
 27 28  1  0  0  0  0
 28 29  2  0  0  0  0
 30 31  2  0  0  0  0
 32 34  1  0  0  0  0
 33 32  2  0  0  0  0
 34 38  1  1  0  0  0
 34 35  1  0  0  0  0
 35 37  1  0  0  0  0
 36 35  2  0  0  0  0
 39 42  1  0  0  0  0
 40 39  2  0  0  0  0
 41 40  1  0  0  0  0
 41 44  2  0  0  0  0
 43 42  2  0  0  0  0
 43 38  1  0  0  0  0
 44 43  1  0  0  0  0
 45  1  1  0  0  0  0
 45 48  1  0  0  0  0
 46 48  1  0  0  0  0
 48 47  2  0  0  0  0
 50 54  1  0  0  0  0
 51 49  1  0  0  0  0
 52 54  1  0  0  0  0
 52 55  2  0  0  0  0
 53 49  2  0  0  0  0
 53 46  1  0  0  0  0
 54 51  2  0  0  0  0
 55 53  1  0  0  0  0
M  END
>  <MODEL>
2

>  <REMARK>
 VINA RESULT:      -7.7      3.864     10.127
  Name = 
  17 active torsions:
  status: ('A' for Active; 'I' for Inactive)
    1  A    between atoms: C_1  and  C_31
    2  A    between atoms: C_2  and  C_8
    3  A    between atoms: C_7  and  O_9
    4  A    between atoms: C_8  and  N_13
    5  A    between atoms: C_8  and  C_30
    6  A    between atoms: O_9  and  C_51
    7  A    between atoms: C_10  and  C_23
    8  A    between atoms: C_12  and  C_50
    9  A    between atoms: C_14  and  N_40
   10  A    between atoms: C_17  and  N_52
   11  A    between atoms: N_18  and  C_42
   12  A    between atoms: C_23  and  N_33
   13  A    between atoms: C_30  and  C_37
   14  A    between atoms: C_31  and  N_33
   15  A    between atoms: C_31  and  N_43
   16  A    between atoms: C_34  and  N_52
   17  A    between atoms: C_45  and  C_47
                            x       y       z     vdW  Elec       q    Type
                         _______ _______ _______ _____ _____    ______ ____

>  <TORSDO>
F 17

$$$$
=
 OpenBabel10232408463D

 55 59  0  0  1  0  0  0  0  0999 V2000
  191.3540  174.7620  137.5450 C   0  0  0  0  0  0  0  0  0  0  0  0
  193.6000  175.6060  137.1930 C   0  0  0  0  0  0  0  0  0  0  0  0
  193.3400  176.6370  138.0380 N   0  0  0  0  0  0  0  0  0  0  0  0
  192.6150  174.6520  136.9390 C   0  0  0  0  0  3  0  0  0  0  0  0
  192.1230  176.7870  138.6260 C   0  0  0  0  0  3  0  0  0  0  0  0
  191.0980  175.8730  138.3810 C   0  0  0  0  0  0  0  0  0  0  0  0
  190.8040  178.1790  139.8550 O   0  0  0  0  0  1  0  0  0  0  0  0
  186.9490  177.7410  137.6120 C   0  0  0  0  0  2  0  0  0  0  0  0
  187.9680  177.3650  138.3650 C   0  0  0  0  0  0  0  0  0  0  0  0
  188.7380  176.2580  138.0940 O   0  0  0  0  0  0  0  0  0  0  0  0
  188.4330  178.1100  139.5520 C   0  0  0  0  0  2  0  0  0  0  0  0
  189.7690  176.1080  139.0530 C   0  0  2  0  0  3  0  0  0  0  0  0
  189.6880  177.3450  139.9950 C   0  0  1  0  0  0  0  0  0  0  0  0
  190.8570  176.7170  142.1290 C   0  0  0  0  0  3  0  0  0  0  0  0
  189.5330  176.9230  141.4690 C   0  0  1  0  0  3  0  0  0  0  0  0
  188.8900  178.0490  142.2850 C   0  0  2  0  0  3  0  0  0  0  0  0
  191.0270  177.5090  143.1770 C   0  0  0  0  0  3  0  0  0  0  0  0
  189.8480  178.3840  143.4220 C   0  0  0  0  0  2  0  0  0  0  0  0
  186.3610  178.3940  142.3450 C   0  0  0  0  0  0  0  0  0  0  0  0
  186.4490  179.4800  141.7130 O   0  0  0  0  0  0  0  0  0  0  0  0
  187.5510  177.6920  142.7600 N   0  0  0  0  0  0  0  0  0  0  0  0
  187.4580  176.6480  143.7770 C   0  0  0  0  0  2  0  0  0  0  0  0
  187.3620  177.2640  145.1650 C   0  0  0  0  0  1  0  0  0  0  0  0
  185.0070  177.8330  142.6430 C   0  0  0  0  0  2  0  0  0  0  0  0
  183.9890  178.8690  142.4880 N   0  0  0  0  0  2  0  0  0  0  0  0
  183.5260  180.5310  144.0750 O   0  0  0  0  0  1  0  0  0  0  0  0
  183.3620  179.1730  143.7840 C   0  0  1  0  0  0  0  0  0  0  0  0
  181.8850  178.8990  143.7020 C   0  0  0  0  0  3  0  0  0  0  0  0
  181.2100  178.9290  142.5520 C   0  0  0  0  0  2  0  0  0  0  0  0
  184.1520  178.8530  145.9350 O   0  0  0  0  0  0  0  0  0  0  0  0
  183.9650  178.3900  144.8450 N   0  0  0  0  0  0  0  0  0  0  0  0
  195.8060  174.7910  137.0800 N   0  0  0  0  0  0  0  0  0  0  0  0
  194.8760  175.4850  136.5620 N   0  0  0  0  0  0  0  0  0  0  0  0
  197.1100  174.6890  136.4340 C   0  0  1  0  0  3  0  0  0  0  0  0
  198.2250  174.9060  137.4120 C   0  0  0  0  0  0  0  0  0  0  0  0
  199.4260  174.7520  137.0650 O   0  0  0  0  0  0  0  0  0  0  0  0
  197.9320  175.3830  138.6850 O   0  0  0  0  0  1  0  0  0  0  0  0
  197.2650  173.3690  135.6660 C   0  0  0  0  0  2  0  0  0  0  0  0
  195.7330  170.6240  137.8030 C   0  0  0  0  0  3  0  0  0  0  0  0
  194.5650  170.3420  137.0860 C   0  0  0  0  0  3  0  0  0  0  0  0
  194.2830  171.0350  135.9020 C   0  0  0  0  0  3  0  0  0  0  0  0
  196.6240  171.5940  137.3360 C   0  0  0  0  0  3  0  0  0  0  0  0
  196.3460  172.2860  136.1500 C   0  0  0  0  0  0  0  0  0  0  0  0
  195.1720  172.0070  135.4370 C   0  0  0  0  0  3  0  0  0  0  0  0
  190.3430  173.8120  137.3160 O   0  0  0  0  0  0  0  0  0  0  0  0
  188.8720  172.6170  135.7480 N   0  0  0  0  0  2  0  0  0  0  0  0
  191.1670  172.7030  135.4520 O   0  0  0  0  0  0  0  0  0  0  0  0
  190.1750  173.0570  136.1420 C   0  0  0  0  0  0  0  0  0  0  0  0
  187.1460  174.3030  135.6660 N   0  0  0  0  0  0  0  0  0  0  0  0
  184.0560  174.8860  137.5030 N   0  0  0  0  0  1  0  0  0  0  0  0
  186.0010  174.8490  136.0850 N   0  0  0  0  0  0  0  0  0  0  0  0
  185.7460  173.1390  137.7120 C   0  0  0  0  0  3  0  0  0  0  0  0
  187.6330  173.1590  136.2200 C   0  0  0  0  0  0  0  0  0  0  0  0
  185.2790  174.2910  137.0880 C   0  0  0  0  0  0  0  0  0  0  0  0
  186.9380  172.5690  137.2750 C   0  0  0  0  0  3  0  0  0  0  0  0
  1  6  1  0  0  0  0
  2  3  2  0  0  0  0
  3  5  1  0  0  0  0
  4  2  1  0  0  0  0
  4  1  2  0  0  0  0
  6  5  2  0  0  0  0
  8  9  2  0  0  0  0
  9 11  1  0  0  0  0
 10  9  1  0  0  0  0
 10 12  1  0  0  0  0
 11 13  1  0  0  0  0
 12  6  1  6  0  0  0
 12 13  1  0  0  0  0
 13  7  1  6  0  0  0
 13 15  1  0  0  0  0
 14 17  2  0  0  0  0
 15 14  1  1  0  0  0
 15 16  1  0  0  0  0
 16 21  1  1  0  0  0
 16 18  1  0  0  0  0
 17 18  1  0  0  0  0
 19 24  1  0  0  0  0
 19 21  1  0  0  0  0
 20 19  2  0  0  0  0
 21 22  1  0  0  0  0
 22 23  1  0  0  0  0
 25 24  1  0  0  0  0
 25 27  1  0  0  0  0
 27 26  1  1  0  0  0
 27 31  1  0  0  0  0
 28 27  1  0  0  0  0
 29 28  2  0  0  0  0
 31 30  2  0  0  0  0
 33 32  2  0  0  0  0
 33  2  1  0  0  0  0
 34 38  1  1  0  0  0
 34 32  1  0  0  0  0
 34 35  1  0  0  0  0
 35 37  1  0  0  0  0
 36 35  2  0  0  0  0
 38 43  1  0  0  0  0
 40 39  2  0  0  0  0
 41 40  1  0  0  0  0
 42 39  1  0  0  0  0
 43 42  2  0  0  0  0
 44 41  2  0  0  0  0
 44 43  1  0  0  0  0
 45  1  1  0  0  0  0
 46 48  1  0  0  0  0
 46 53  1  0  0  0  0
 47 48  2  0  0  0  0
 48 45  1  0  0  0  0
 49 51  1  0  0  0  0
 49 53  2  0  0  0  0
 51 54  2  0  0  0  0
 53 55  1  0  0  0  0
 54 50  1  0  0  0  0
 54 52  1  0  0  0  0
 55 52  2  0  0  0  0
M  END
>  <MODEL>
3

>  <REMARK>
 VINA RESULT:      -7.5      1.118      1.698
  Name = 
  17 active torsions:
  status: ('A' for Active; 'I' for Inactive)
    1  A    between atoms: C_1  and  C_31
    2  A    between atoms: C_2  and  C_8
    3  A    between atoms: C_7  and  O_9
    4  A    between atoms: C_8  and  N_13
    5  A    between atoms: C_8  and  C_30
    6  A    between atoms: O_9  and  C_51
    7  A    between atoms: C_10  and  C_23
    8  A    between atoms: C_12  and  C_50
    9  A    between atoms: C_14  and  N_40
   10  A    between atoms: C_17  and  N_52
   11  A    between atoms: N_18  and  C_42
   12  A    between atoms: C_23  and  N_33
   13  A    between atoms: C_30  and  C_37
   14  A    between atoms: C_31  and  N_33
   15  A    between atoms: C_31  and  N_43
   16  A    between atoms: C_34  and  N_52
   17  A    between atoms: C_45  and  C_47
                            x       y       z     vdW  Elec       q    Type
                         _______ _______ _______ _____ _____    ______ ____

>  <TORSDO>
F 17

$$$$
=
 OpenBabel10232408463D

 55 59  0  0  1  0  0  0  0  0999 V2000
  189.3510  175.3120  137.5600 C   0  0  0  0  0  0  0  0  0  0  0  0
  191.4410  174.1710  137.0990 C   0  0  0  0  0  0  0  0  0  0  0  0
  190.7540  173.1690  136.4910 N   0  0  0  0  0  0  0  0  0  0  0  0
  190.7520  175.2580  137.6370 C   0  0  0  0  0  3  0  0  0  0  0  0
  189.3970  173.1780  136.4180 C   0  0  0  0  0  3  0  0  0  0  0  0
  188.6630  174.2310  136.9640 C   0  0  0  0  0  0  0  0  0  0  0  0
  187.5070  175.1170  134.6280 O   0  0  0  0  0  1  0  0  0  0  0  0
  185.2470  171.3970  135.6980 C   0  0  0  0  0  2  0  0  0  0  0  0
  185.8100  172.5780  135.8930 C   0  0  0  0  0  0  0  0  0  0  0  0
  186.7050  172.8300  136.9050 O   0  0  0  0  0  0  0  0  0  0  0  0
  185.5850  173.7490  135.0210 C   0  0  0  0  0  2  0  0  0  0  0  0
  187.1600  174.1700  136.8610 C   0  0  2  0  0  3  0  0  0  0  0  0
  186.5340  174.8130  135.5890 C   0  0  1  0  0  0  0  0  0  0  0  0
  185.9610  177.1740  134.9440 C   0  0  0  0  0  3  0  0  0  0  0  0
  185.7290  176.0800  135.9350 C   0  0  1  0  0  3  0  0  0  0  0  0
  184.2250  175.8070  135.8280 C   0  0  2  0  0  3  0  0  0  0  0  0
  184.8440  177.5610  134.3470 C   0  0  0  0  0  3  0  0  0  0  0  0
  183.6550  176.8100  134.8330 C   0  0  0  0  0  2  0  0  0  0  0  0
  183.4400  177.0800  137.8970 C   0  0  0  0  0  0  0  0  0  0  0  0
  184.0900  178.1070  137.5680 O   0  0  0  0  0  0  0  0  0  0  0  0
  183.5590  175.8630  137.1320 N   0  0  0  0  0  0  0  0  0  0  0  0
  183.1010  174.6000  137.7040 C   0  0  0  0  0  2  0  0  0  0  0  0
  182.0950  173.9300  136.7790 C   0  0  0  0  0  1  0  0  0  0  0  0
  182.5310  177.1440  139.0830 C   0  0  0  0  0  2  0  0  0  0  0  0
  183.3130  177.2770  140.3100 N   0  0  0  0  0  2  0  0  0  0  0  0
  182.2720  179.3650  140.0860 O   0  0  0  0  0  1  0  0  0  0  0  0
  183.1120  178.6060  140.9070 C   0  0  1  0  0  0  0  0  0  0  0  0
  182.4340  178.4580  142.2420 C   0  0  0  0  0  3  0  0  0  0  0  0
  182.8820  179.0570  143.3460 C   0  0  0  0  0  2  0  0  0  0  0  0
  185.0070  179.6620  140.1010 O   0  0  0  0  0  0  0  0  0  0  0  0
  184.3760  179.3030  141.0550 N   0  0  0  0  0  0  0  0  0  0  0  0
  193.5580  173.4210  136.3920 N   0  0  0  0  0  0  0  0  0  0  0  0
  192.8660  174.1250  137.1920 N   0  0  0  0  0  0  0  0  0  0  0  0
  195.0110  173.3700  136.5080 C   0  0  1  0  0  3  0  0  0  0  0  0
  195.6010  174.7430  136.6260 C   0  0  0  0  0  0  0  0  0  0  0  0
  195.8500  175.2430  137.7550 O   0  0  0  0  0  1  0  0  0  0  0  0
  195.9740  175.4260  135.4730 O   0  0  0  0  0  0  0  0  0  0  0  0
  195.4600  172.4490  137.6510 C   0  0  0  0  0  2  0  0  0  0  0  0
  195.1660  168.6600  137.7380 C   0  0  0  0  0  3  0  0  0  0  0  0
  195.6120  168.3240  136.4550 C   0  0  0  0  0  3  0  0  0  0  0  0
  196.0200  169.3280  135.5690 C   0  0  0  0  0  3  0  0  0  0  0  0
  195.1320  169.9980  138.1390 C   0  0  0  0  0  3  0  0  0  0  0  0
  195.5430  171.0040  137.2550 C   0  0  0  0  0  0  0  0  0  0  0  0
  195.9840  170.6660  135.9690 C   0  0  0  0  0  3  0  0  0  0  0  0
  188.6290  176.3980  138.0840 O   0  0  0  0  0  0  0  0  0  0  0  0
  188.9630  178.5860  139.1570 N   0  0  0  0  0  2  0  0  0  0  0  0
  189.3070  178.2670  136.8890 O   0  0  0  0  0  0  0  0  0  0  0  0
  188.9990  177.7510  137.9950 C   0  0  0  0  0  0  0  0  0  0  0  0
  187.8270  178.3320  141.2720 N   0  0  0  0  0  0  0  0  0  0  0  0
  188.7120  176.8690  144.4870 N   0  0  0  0  0  1  0  0  0  0  0  0
  187.7650  177.9290  142.5440 N   0  0  0  0  0  0  0  0  0  0  0  0
  189.9830  177.0890  142.4160 C   0  0  0  0  0  3  0  0  0  0  0  0
  188.9370  178.1240  140.5130 C   0  0  0  0  0  0  0  0  0  0  0  0
  188.8110  177.3010  143.1360 C   0  0  0  0  0  0  0  0  0  0  0  0
  190.0470  177.5090  141.0900 C   0  0  0  0  0  3  0  0  0  0  0  0
  1  4  2  0  0  0  0
  1 45  1  0  0  0  0
  2 33  1  0  0  0  0
  2  4  1  0  0  0  0
  3  2  2  0  0  0  0
  5  3  1  0  0  0  0
  5  6  2  0  0  0  0
  6  1  1  0  0  0  0
  8  9  2  0  0  0  0
  9 10  1  0  0  0  0
 11 13  1  0  0  0  0
 11  9  1  0  0  0  0
 12 10  1  0  0  0  0
 12  6  1  6  0  0  0
 13  7  1  6  0  0  0
 13 15  1  0  0  0  0
 13 12  1  0  0  0  0
 15 14  1  6  0  0  0
 16 15  1  0  0  0  0
 16 21  1  1  0  0  0
 17 18  1  0  0  0  0
 17 14  2  0  0  0  0
 18 16  1  0  0  0  0
 19 24  1  0  0  0  0
 20 19  2  0  0  0  0
 21 22  1  0  0  0  0
 21 19  1  0  0  0  0
 23 22  1  0  0  0  0
 24 25  1  0  0  0  0
 25 27  1  0  0  0  0
 27 26  1  6  0  0  0
 27 31  1  0  0  0  0
 27 28  1  0  0  0  0
 28 29  2  0  0  0  0
 30 31  2  0  0  0  0
 32 34  1  0  0  0  0
 32 33  2  0  0  0  0
 34 35  1  0  0  0  0
 34 38  1  1  0  0  0
 35 36  1  0  0  0  0
 37 35  2  0  0  0  0
 39 42  1  0  0  0  0
 40 39  2  0  0  0  0
 41 44  2  0  0  0  0
 41 40  1  0  0  0  0
 43 38  1  0  0  0  0
 43 42  2  0  0  0  0
 44 43  1  0  0  0  0
 46 53  1  0  0  0  0
 47 48  2  0  0  0  0
 48 45  1  0  0  0  0
 48 46  1  0  0  0  0
 49 51  1  0  0  0  0
 51 54  2  0  0  0  0
 52 54  1  0  0  0  0
 53 55  1  0  0  0  0
 53 49  2  0  0  0  0
 54 50  1  0  0  0  0
 55 52  2  0  0  0  0
M  END
>  <MODEL>
4

>  <REMARK>
 VINA RESULT:      -7.4      2.194      5.450
  Name = 
  17 active torsions:
  status: ('A' for Active; 'I' for Inactive)
    1  A    between atoms: C_1  and  C_31
    2  A    between atoms: C_2  and  C_8
    3  A    between atoms: C_7  and  O_9
    4  A    between atoms: C_8  and  N_13
    5  A    between atoms: C_8  and  C_30
    6  A    between atoms: O_9  and  C_51
    7  A    between atoms: C_10  and  C_23
    8  A    between atoms: C_12  and  C_50
    9  A    between atoms: C_14  and  N_40
   10  A    between atoms: C_17  and  N_52
   11  A    between atoms: N_18  and  C_42
   12  A    between atoms: C_23  and  N_33
   13  A    between atoms: C_30  and  C_37
   14  A    between atoms: C_31  and  N_33
   15  A    between atoms: C_31  and  N_43
   16  A    between atoms: C_34  and  N_52
   17  A    between atoms: C_45  and  C_47
                            x       y       z     vdW  Elec       q    Type
                         _______ _______ _______ _____ _____    ______ ____

>  <TORSDO>
F 17

$$$$
=
 OpenBabel10232408463D

 55 59  0  0  1  0  0  0  0  0999 V2000
  190.7120  175.8800  137.5770 C   0  0  0  0  0  0  0  0  0  0  0  0
  190.6150  176.9120  139.7690 C   0  0  0  0  0  0  0  0  0  0  0  0
  189.3730  177.3850  139.4850 N   0  0  0  0  0  0  0  0  0  0  0  0
  191.2990  176.1490  138.8230 C   0  0  0  0  0  3  0  0  0  0  0  0
  188.7830  177.1620  138.2820 C   0  0  0  0  0  3  0  0  0  0  0  0
  189.4400  176.4260  137.2940 C   0  0  0  0  0  0  0  0  0  0  0  0
  186.9360  175.2830  137.3450 O   0  0  0  0  0  1  0  0  0  0  0  0
  186.6310  178.6000  134.3470 C   0  0  0  0  0  2  0  0  0  0  0  0
  187.1520  177.5390  134.9390 C   0  0  0  0  0  0  0  0  0  0  0  0
  188.4590  177.4740  135.3610 O   0  0  0  0  0  0  0  0  0  0  0  0
  186.3830  176.3190  135.2630 C   0  0  0  0  0  2  0  0  0  0  0  0
  188.7340  176.2290  135.9760 C   0  0  2  0  0  3  0  0  0  0  0  0
  187.3880  175.4490  136.0300 C   0  0  1  0  0  0  0  0  0  0  0  0
  188.9120  173.7670  134.9510 C   0  0  0  0  0  3  0  0  0  0  0  0
  187.5030  174.0760  135.3410 C   0  0  1  0  0  3  0  0  0  0  0  0
  187.1410  172.9530  136.3180 C   0  0  2  0  0  3  0  0  0  0  0  0
  189.3620  172.6580  135.5190 C   0  0  0  0  0  3  0  0  0  0  0  0
  188.3380  172.0110  136.3840 C   0  0  0  0  0  2  0  0  0  0  0  0
  184.7230  172.2700  136.7680 C   0  0  0  0  0  0  0  0  0  0  0  0
  184.7770  172.6910  137.9540 O   0  0  0  0  0  0  0  0  0  0  0  0
  185.9030  172.2680  135.9390 N   0  0  0  0  0  0  0  0  0  0  0  0
  185.9270  171.4700  134.7160 C   0  0  0  0  0  2  0  0  0  0  0  0
  186.2280  170.0130  135.0380 C   0  0  0  0  0  1  0  0  0  0  0  0
  183.4140  171.7900  136.2270 C   0  0  0  0  0  2  0  0  0  0  0  0
  182.7200  172.8810  135.5480 N   0  0  0  0  0  2  0  0  0  0  0  0
  181.5160  173.7190  137.3760 O   0  0  0  0  0  1  0  0  0  0  0  0
  181.3870  173.0880  136.1350 C   0  0  1  0  0  0  0  0  0  0  0  0
  180.5810  173.9930  135.2430 C   0  0  0  0  0  3  0  0  0  0  0  0
  181.0860  175.1000  134.6980 C   0  0  0  0  0  2  0  0  0  0  0  0
  180.2340  171.5160  137.3830 O   0  0  0  0  0  0  0  0  0  0  0  0
  180.7040  171.8220  136.3240 N   0  0  0  0  0  0  0  0  0  0  0  0
  190.6290  176.9410  142.1230 N   0  0  0  0  0  0  0  0  0  0  0  0
  191.2280  177.1860  141.0290 N   0  0  0  0  0  0  0  0  0  0  0  0
  191.2600  177.2400  143.4030 C   0  0  1  0  0  3  0  0  0  0  0  0
  191.2300  178.7090  143.7000 C   0  0  0  0  0  0  0  0  0  0  0  0
  192.2020  179.2720  144.2720 O   0  0  0  0  0  1  0  0  0  0  0  0
  190.1630  179.4750  143.2430 O   0  0  0  0  0  0  0  0  0  0  0  0
  190.6560  176.4090  144.5450 C   0  0  0  0  0  2  0  0  0  0  0  0
  186.9360  177.1870  144.5860 C   0  0  0  0  0  3  0  0  0  0  0  0
  186.7830  177.7140  145.8730 C   0  0  0  0  0  3  0  0  0  0  0  0
  187.8910  177.8280  146.7210 C   0  0  0  0  0  3  0  0  0  0  0  0
  188.1960  176.7790  144.1420 C   0  0  0  0  0  3  0  0  0  0  0  0
  189.3070  176.8950  144.9870 C   0  0  0  0  0  0  0  0  0  0  0  0
  189.1510  177.4170  146.2780 C   0  0  0  0  0  3  0  0  0  0  0  0
  191.3730  175.1060  136.6060 O   0  0  0  0  0  0  0  0  0  0  0  0
  193.6870  175.1660  135.7760 N   0  0  0  0  0  2  0  0  0  0  0  0
  192.0000  176.4180  134.7990 O   0  0  0  0  0  0  0  0  0  0  0  0
  192.3200  175.5790  135.6830 C   0  0  0  0  0  0  0  0  0  0  0  0
  193.9900  172.7790  135.9720 N   0  0  0  0  0  0  0  0  0  0  0  0
  195.4630  170.5900  138.4810 N   0  0  0  0  0  1  0  0  0  0  0  0
  194.4080  171.6850  136.6160 N   0  0  0  0  0  0  0  0  0  0  0  0
  195.1900  173.0130  138.4220 C   0  0  0  0  0  3  0  0  0  0  0  0
  194.1630  174.0230  136.4950 C   0  0  0  0  0  0  0  0  0  0  0  0
  195.0160  171.7690  137.8250 C   0  0  0  0  0  0  0  0  0  0  0  0
  194.7560  174.1530  137.7510 C   0  0  0  0  0  3  0  0  0  0  0  0
  1  4  2  0  0  0  0
  2 33  1  0  0  0  0
  3  2  2  0  0  0  0
  4  2  1  0  0  0  0
  5  3  1  0  0  0  0
  6  1  1  0  0  0  0
  6  5  2  0  0  0  0
  8  9  2  0  0  0  0
  9 11  1  0  0  0  0
  9 10  1  0  0  0  0
 10 12  1  0  0  0  0
 11 13  1  0  0  0  0
 12 13  1  0  0  0  0
 12  6  1  1  0  0  0
 13  7  1  1  0  0  0
 14 17  2  0  0  0  0
 15 14  1  1  0  0  0
 15 13  1  0  0  0  0
 15 16  1  0  0  0  0
 16 21  1  6  0  0  0
 16 18  1  0  0  0  0
 17 18  1  0  0  0  0
 19 20  2  0  0  0  0
 21 19  1  0  0  0  0
 22 23  1  0  0  0  0
 22 21  1  0  0  0  0
 24 19  1  0  0  0  0
 25 27  1  0  0  0  0
 25 24  1  0  0  0  0
 27 31  1  0  0  0  0
 27 26  1  1  0  0  0
 28 27  1  0  0  0  0
 29 28  2  0  0  0  0
 31 30  2  0  0  0  0
 32 34  1  0  0  0  0
 33 32  2  0  0  0  0
 34 35  1  0  0  0  0
 34 38  1  1  0  0  0
 35 36  1  0  0  0  0
 37 35  2  0  0  0  0
 38 43  1  0  0  0  0
 39 40  1  0  0  0  0
 40 41  2  0  0  0  0
 42 39  2  0  0  0  0
 42 43  1  0  0  0  0
 43 44  2  0  0  0  0
 44 41  1  0  0  0  0
 45  1  1  0  0  0  0
 46 53  1  0  0  0  0
 47 48  2  0  0  0  0
 48 46  1  0  0  0  0
 48 45  1  0  0  0  0
 49 53  2  0  0  0  0
 49 51  1  0  0  0  0
 51 54  2  0  0  0  0
 53 55  1  0  0  0  0
 54 52  1  0  0  0  0
 54 50  1  0  0  0  0
 55 52  2  0  0  0  0
M  END
>  <MODEL>
5

>  <REMARK>
 VINA RESULT:      -7.3      3.306      8.286
  Name = 
  17 active torsions:
  status: ('A' for Active; 'I' for Inactive)
    1  A    between atoms: C_1  and  C_31
    2  A    between atoms: C_2  and  C_8
    3  A    between atoms: C_7  and  O_9
    4  A    between atoms: C_8  and  N_13
    5  A    between atoms: C_8  and  C_30
    6  A    between atoms: O_9  and  C_51
    7  A    between atoms: C_10  and  C_23
    8  A    between atoms: C_12  and  C_50
    9  A    between atoms: C_14  and  N_40
   10  A    between atoms: C_17  and  N_52
   11  A    between atoms: N_18  and  C_42
   12  A    between atoms: C_23  and  N_33
   13  A    between atoms: C_30  and  C_37
   14  A    between atoms: C_31  and  N_33
   15  A    between atoms: C_31  and  N_43
   16  A    between atoms: C_34  and  N_52
   17  A    between atoms: C_45  and  C_47
                            x       y       z     vdW  Elec       q    Type
                         _______ _______ _______ _____ _____    ______ ____

>  <TORSDO>
F 17

$$$$
=
 OpenBabel10232408463D

 55 59  0  0  1  0  0  0  0  0999 V2000
  184.7310  178.3130  140.2710 C   0  0  0  0  0  0  0  0  0  0  0  0
  186.7350  178.5160  138.9220 C   0  0  0  0  0  0  0  0  0  0  0  0
  187.4930  178.4610  140.0490 N   0  0  0  0  0  0  0  0  0  0  0  0
  185.3460  178.4370  139.0160 C   0  0  0  0  0  3  0  0  0  0  0  0
  186.9300  178.3630  141.2820 C   0  0  0  0  0  3  0  0  0  0  0  0
  185.5430  178.3070  141.4270 C   0  0  0  0  0  0  0  0  0  0  0  0
  185.6350  180.5710  142.9910 O   0  0  0  0  0  1  0  0  0  0  0  0
  181.5980  178.7870  143.7750 C   0  0  0  0  0  2  0  0  0  0  0  0
  182.9120  178.8080  143.6290 C   0  0  0  0  0  0  0  0  0  0  0  0
  183.5940  177.9530  142.7960 O   0  0  0  0  0  0  0  0  0  0  0  0
  183.7980  179.7800  144.3020 C   0  0  0  0  0  2  0  0  0  0  0  0
  184.9850  178.2140  142.8250 C   0  0  2  0  0  3  0  0  0  0  0  0
  185.1860  179.4670  143.7280 C   0  0  1  0  0  0  0  0  0  0  0  0
  185.5760  179.5390  146.2090 C   0  0  0  0  0  3  0  0  0  0  0  0
  186.1630  179.1790  144.8830 C   0  0  1  0  0  3  0  0  0  0  0  0
  186.4290  177.6740  144.9990 C   0  0  2  0  0  3  0  0  0  0  0  0
  185.5090  178.5020  147.0300 C   0  0  0  0  0  3  0  0  0  0  0  0
  186.0480  177.2580  146.4160 C   0  0  0  0  0  2  0  0  0  0  0  0
  188.1500  176.2720  143.7400 C   0  0  0  0  0  0  0  0  0  0  0  0
  187.2690  175.4620  143.3460 O   0  0  0  0  0  0  0  0  0  0  0  0
  187.8110  177.3290  144.6610 N   0  0  0  0  0  0  0  0  0  0  0  0
  188.8710  178.0290  145.3810 C   0  0  0  0  0  2  0  0  0  0  0  0
  189.3650  177.1900  146.5500 C   0  0  0  0  0  1  0  0  0  0  0  0
  189.5470  176.1320  143.2260 C   0  0  0  0  0  2  0  0  0  0  0  0
  189.8360  177.1890  142.2600 N   0  0  0  0  0  2  0  0  0  0  0  0
  191.9800  176.5480  142.9580 O   0  0  0  0  0  1  0  0  0  0  0  0
  191.2600  177.5550  142.3060 C   0  0  1  0  0  0  0  0  0  0  0  0
  191.7950  177.6650  140.9050 C   0  0  0  0  0  3  0  0  0  0  0  0
  191.2860  176.9740  139.8840 C   0  0  0  0  0  2  0  0  0  0  0  0
  191.9820  178.8340  144.0950 O   0  0  0  0  0  0  0  0  0  0  0  0
  191.4500  178.8030  143.0220 N   0  0  0  0  0  0  0  0  0  0  0  0
  187.7560  177.6370  136.9910 N   0  0  0  0  0  0  0  0  0  0  0  0
  187.3470  178.6510  137.6390 N   0  0  0  0  0  0  0  0  0  0  0  0
  188.3940  177.7890  135.6890 C   0  0  1  0  0  3  0  0  0  0  0  0
  189.5870  176.8900  135.5530 C   0  0  0  0  0  0  0  0  0  0  0  0
  190.0920  176.6550  134.4230 O   0  0  0  0  0  0  0  0  0  0  0  0
  190.2020  176.3980  136.6990 O   0  0  0  0  0  1  0  0  0  0  0  0
  187.3960  177.5990  134.5380 C   0  0  0  0  0  2  0  0  0  0  0  0
  183.8920  176.4510  135.4610 C   0  0  0  0  0  3  0  0  0  0  0  0
  184.0540  175.0610  135.4640 C   0  0  0  0  0  3  0  0  0  0  0  0
  185.3040  174.5000  135.1780 C   0  0  0  0  0  3  0  0  0  0  0  0
  184.9790  177.2820  135.1790 C   0  0  0  0  0  3  0  0  0  0  0  0
  186.2320  176.7230  134.8970 C   0  0  0  0  0  0  0  0  0  0  0  0
  186.3910  175.3300  134.8940 C   0  0  0  0  0  3  0  0  0  0  0  0
  183.3330  178.2230  140.3980 O   0  0  0  0  0  0  0  0  0  0  0  0
  181.3080  177.8600  139.0500 N   0  0  0  0  0  2  0  0  0  0  0  0
  182.7390  176.1250  139.6050 O   0  0  0  0  0  0  0  0  0  0  0  0
  182.4960  177.3590  139.6720 C   0  0  0  0  0  0  0  0  0  0  0  0
  180.4830  180.0250  139.7260 N   0  0  0  0  0  0  0  0  0  0  0  0
  180.1520  183.2590  138.0850 N   0  0  0  0  0  1  0  0  0  0  0  0
  180.2010  181.3110  139.4990 N   0  0  0  0  0  0  0  0  0  0  0  0
  180.9830  181.1170  137.2650 C   0  0  0  0  0  3  0  0  0  0  0  0
  181.0360  179.2360  138.7650 C   0  0  0  0  0  0  0  0  0  0  0  0
  180.4470  181.8840  138.2950 C   0  0  0  0  0  0  0  0  0  0  0  0
  181.2770  179.7770  137.5030 C   0  0  0  0  0  3  0  0  0  0  0  0
  1 45  1  0  0  0  0
  1  6  1  0  0  0  0
  2  4  1  0  0  0  0
  2  3  2  0  0  0  0
  3  5  1  0  0  0  0
  4  1  2  0  0  0  0
  5  6  2  0  0  0  0
  9  8  2  0  0  0  0
  9 11  1  0  0  0  0
 10 12  1  0  0  0  0
 10  9  1  0  0  0  0
 12  6  1  6  0  0  0
 12 13  1  0  0  0  0
 13  7  1  6  0  0  0
 13 11  1  0  0  0  0
 13 15  1  0  0  0  0
 14 17  2  0  0  0  0
 15 16  1  0  0  0  0
 15 14  1  1  0  0  0
 16 21  1  1  0  0  0
 16 18  1  0  0  0  0
 18 17  1  0  0  0  0
 19 21  1  0  0  0  0
 20 19  2  0  0  0  0
 21 22  1  0  0  0  0
 22 23  1  0  0  0  0
 24 19  1  0  0  0  0
 25 27  1  0  0  0  0
 25 24  1  0  0  0  0
 27 26  1  1  0  0  0
 27 31  1  0  0  0  0
 28 27  1  0  0  0  0
 29 28  2  0  0  0  0
 31 30  2  0  0  0  0
 32 33  2  0  0  0  0
 33  2  1  0  0  0  0
 34 38  1  6  0  0  0
 34 32  1  0  0  0  0
 35 34  1  0  0  0  0
 35 37  1  0  0  0  0
 36 35  2  0  0  0  0
 38 43  1  0  0  0  0
 39 40  1  0  0  0  0
 41 40  2  0  0  0  0
 42 39  2  0  0  0  0
 43 42  1  0  0  0  0
 44 43  2  0  0  0  0
 44 41  1  0  0  0  0
 46 48  1  0  0  0  0
 47 48  2  0  0  0  0
 48 45  1  0  0  0  0
 50 54  1  0  0  0  0
 51 49  1  0  0  0  0
 52 55  2  0  0  0  0
 52 54  1  0  0  0  0
 53 46  1  0  0  0  0
 53 49  2  0  0  0  0
 54 51  2  0  0  0  0
 55 53  1  0  0  0  0
M  END
>  <MODEL>
6

>  <REMARK>
 VINA RESULT:      -7.2      4.471      8.345
  Name = 
  17 active torsions:
  status: ('A' for Active; 'I' for Inactive)
    1  A    between atoms: C_1  and  C_31
    2  A    between atoms: C_2  and  C_8
    3  A    between atoms: C_7  and  O_9
    4  A    between atoms: C_8  and  N_13
    5  A    between atoms: C_8  and  C_30
    6  A    between atoms: O_9  and  C_51
    7  A    between atoms: C_10  and  C_23
    8  A    between atoms: C_12  and  C_50
    9  A    between atoms: C_14  and  N_40
   10  A    between atoms: C_17  and  N_52
   11  A    between atoms: N_18  and  C_42
   12  A    between atoms: C_23  and  N_33
   13  A    between atoms: C_30  and  C_37
   14  A    between atoms: C_31  and  N_33
   15  A    between atoms: C_31  and  N_43
   16  A    between atoms: C_34  and  N_52
   17  A    between atoms: C_45  and  C_47
                            x       y       z     vdW  Elec       q    Type
                         _______ _______ _______ _____ _____    ______ ____

>  <TORSDO>
F 17

$$$$
=
 OpenBabel10232408463D

 55 59  0  0  1  0  0  0  0  0999 V2000
  184.3710  177.9070  138.9120 C   0  0  0  0  0  0  0  0  0  0  0  0
  185.1940  178.3790  141.1450 C   0  0  0  0  0  0  0  0  0  0  0  0
  186.4680  178.3650  140.6720 N   0  0  0  0  0  0  0  0  0  0  0  0
  184.1280  178.1560  140.2720 C   0  0  0  0  0  3  0  0  0  0  0  0
  186.7410  178.1050  139.3660 C   0  0  0  0  0  3  0  0  0  0  0  0
  185.7090  177.8510  138.4610 C   0  0  0  0  0  0  0  0  0  0  0  0
  186.1770  175.2240  137.7820 O   0  0  0  0  0  1  0  0  0  0  0  0
  183.8170  176.9020  134.3600 C   0  0  0  0  0  2  0  0  0  0  0  0
  184.7700  176.8570  135.2750 C   0  0  0  0  0  0  0  0  0  0  0  0
  185.0230  177.8840  136.1540 O   0  0  0  0  0  0  0  0  0  0  0  0
  185.6420  175.6850  135.4970 C   0  0  0  0  0  2  0  0  0  0  0  0
  186.0840  177.5550  137.0310 C   0  0  2  0  0  3  0  0  0  0  0  0
  186.4830  176.0830  136.7180 C   0  0  1  0  0  0  0  0  0  0  0  0
  188.1950  175.8550  134.8930 C   0  0  0  0  0  3  0  0  0  0  0  0
  187.9780  175.9660  136.3670 C   0  0  1  0  0  3  0  0  0  0  0  0
  188.7210  177.2500  136.7480 C   0  0  2  0  0  3  0  0  0  0  0  0
  188.9510  176.8330  134.4190 C   0  0  0  0  0  3  0  0  0  0  0  0
  189.3920  177.7740  135.4840 C   0  0  0  0  0  2  0  0  0  0  0  0
  189.8790  177.9990  138.8970 C   0  0  0  0  0  0  0  0  0  0  0  0
  189.4030  179.1610  138.8020 O   0  0  0  0  0  0  0  0  0  0  0  0
  189.6700  177.0360  137.8440 N   0  0  0  0  0  0  0  0  0  0  0  0
  190.5000  175.8360  137.7840 C   0  0  0  0  0  2  0  0  0  0  0  0
  191.5580  175.9740  136.6990 C   0  0  0  0  0  1  0  0  0  0  0  0
  190.6510  177.6270  140.1230 C   0  0  0  0  0  2  0  0  0  0  0  0
  189.7630  177.5850  141.2820 N   0  0  0  0  0  2  0  0  0  0  0  0
  191.9060  177.4470  142.2220 O   0  0  0  0  0  1  0  0  0  0  0  0
  190.5400  177.4200  142.5200 C   0  0  1  0  0  0  0  0  0  0  0  0
  190.2520  178.5680  143.4490 C   0  0  0  0  0  3  0  0  0  0  0  0
  191.0490  179.6320  143.5450 C   0  0  0  0  0  2  0  0  0  0  0  0
  190.2290  175.1270  142.5490 O   0  0  0  0  0  0  0  0  0  0  0  0
  190.2270  176.1570  143.1620 N   0  0  0  0  0  0  0  0  0  0  0  0
  185.8090  178.3880  143.4170 N   0  0  0  0  0  0  0  0  0  0  0  0
  184.9330  178.6230  142.5270 N   0  0  0  0  0  0  0  0  0  0  0  0
  185.5240  178.6260  144.8270 C   0  0  1  0  0  3  0  0  0  0  0  0
  184.0980  179.0390  145.0370 C   0  0  0  0  0  0  0  0  0  0  0  0
  183.5270  178.8480  146.1440 O   0  0  0  0  0  1  0  0  0  0  0  0
  183.4360  179.7360  144.0320 O   0  0  0  0  0  0  0  0  0  0  0  0
  185.9090  177.4210  145.6980 C   0  0  0  0  0  2  0  0  0  0  0  0
  188.1930  178.5180  148.5310 C   0  0  0  0  0  3  0  0  0  0  0  0
  189.4190  177.9890  148.1120 C   0  0  0  0  0  3  0  0  0  0  0  0
  189.5040  177.2880  146.9030 C   0  0  0  0  0  3  0  0  0  0  0  0
  187.0520  178.3530  147.7410 C   0  0  0  0  0  3  0  0  0  0  0  0
  187.1350  177.6550  146.5300 C   0  0  0  0  0  0  0  0  0  0  0  0
  188.3630  177.1200  146.1150 C   0  0  0  0  0  3  0  0  0  0  0  0
  183.3180  177.6880  138.0070 O   0  0  0  0  0  0  0  0  0  0  0  0
  180.8930  177.7150  137.5960 N   0  0  0  0  0  2  0  0  0  0  0  0
  182.0500  179.6180  138.2320 O   0  0  0  0  0  0  0  0  0  0  0  0
  182.0980  178.3850  137.9810 C   0  0  0  0  0  0  0  0  0  0  0  0
  180.1660  175.6720  138.6580 N   0  0  0  0  0  0  0  0  0  0  0  0
  180.1090  172.1650  137.6790 N   0  0  0  0  0  1  0  0  0  0  0  0
  179.9820  174.3490  138.6840 N   0  0  0  0  0  0  0  0  0  0  0  0
  180.9110  174.1490  136.5070 C   0  0  0  0  0  3  0  0  0  0  0  0
  180.7020  176.2960  137.5740 C   0  0  0  0  0  0  0  0  0  0  0  0
  180.3300  173.5690  137.6310 C   0  0  0  0  0  0  0  0  0  0  0  0
  181.1020  175.5280  136.4800 C   0  0  0  0  0  3  0  0  0  0  0  0
  1  4  2  0  0  0  0
  2 33  1  0  0  0  0
  3  2  2  0  0  0  0
  4  2  1  0  0  0  0
  5  3  1  0  0  0  0
  6  1  1  0  0  0  0
  6  5  2  0  0  0  0
  8  9  2  0  0  0  0
  9 11  1  0  0  0  0
  9 10  1  0  0  0  0
 10 12  1  0  0  0  0
 11 13  1  0  0  0  0
 12  6  1  1  0  0  0
 13 12  1  0  0  0  0
 13  7  1  1  0  0  0
 15 14  1  6  0  0  0
 15 13  1  0  0  0  0
 15 16  1  0  0  0  0
 16 21  1  1  0  0  0
 17 14  2  0  0  0  0
 17 18  1  0  0  0  0
 18 16  1  0  0  0  0
 19 24  1  0  0  0  0
 20 19  2  0  0  0  0
 21 19  1  0  0  0  0
 22 21  1  0  0  0  0
 23 22  1  0  0  0  0
 24 25  1  0  0  0  0
 25 27  1  0  0  0  0
 27 26  1  6  0  0  0
 27 31  1  0  0  0  0
 27 28  1  0  0  0  0
 28 29  2  0  0  0  0
 30 31  2  0  0  0  0
 32 34  1  0  0  0  0
 33 32  2  0  0  0  0
 34 35  1  0  0  0  0
 34 38  1  1  0  0  0
 35 36  1  0  0  0  0
 37 35  2  0  0  0  0
 38 43  1  0  0  0  0
 40 39  1  0  0  0  0
 41 40  2  0  0  0  0
 42 39  2  0  0  0  0
 43 42  1  0  0  0  0
 44 43  2  0  0  0  0
 44 41  1  0  0  0  0
 45  1  1  0  0  0  0
 46 48  1  0  0  0  0
 48 45  1  0  0  0  0
 48 47  2  0  0  0  0
 49 51  1  0  0  0  0
 52 54  1  0  0  0  0
 53 46  1  0  0  0  0
 53 49  2  0  0  0  0
 54 50  1  0  0  0  0
 54 51  2  0  0  0  0
 55 52  2  0  0  0  0
 55 53  1  0  0  0  0
M  END
>  <MODEL>
7

>  <REMARK>
 VINA RESULT:      -7.2      4.012      9.633
  Name = 
  17 active torsions:
  status: ('A' for Active; 'I' for Inactive)
    1  A    between atoms: C_1  and  C_31
    2  A    between atoms: C_2  and  C_8
    3  A    between atoms: C_7  and  O_9
    4  A    between atoms: C_8  and  N_13
    5  A    between atoms: C_8  and  C_30
    6  A    between atoms: O_9  and  C_51
    7  A    between atoms: C_10  and  C_23
    8  A    between atoms: C_12  and  C_50
    9  A    between atoms: C_14  and  N_40
   10  A    between atoms: C_17  and  N_52
   11  A    between atoms: N_18  and  C_42
   12  A    between atoms: C_23  and  N_33
   13  A    between atoms: C_30  and  C_37
   14  A    between atoms: C_31  and  N_33
   15  A    between atoms: C_31  and  N_43
   16  A    between atoms: C_34  and  N_52
   17  A    between atoms: C_45  and  C_47
                            x       y       z     vdW  Elec       q    Type
                         _______ _______ _______ _____ _____    ______ ____

>  <TORSDO>
F 17

$$$$
=
 OpenBabel10232408463D

 55 59  0  0  1  0  0  0  0  0999 V2000
  191.9080  175.0300  137.7070 C   0  0  0  0  0  0  0  0  0  0  0  0
  193.5690  174.0970  136.2060 C   0  0  0  0  0  0  0  0  0  0  0  0
  192.5810  173.4840  135.5030 N   0  0  0  0  0  0  0  0  0  0  0  0
  193.2470  174.8820  137.3140 C   0  0  0  0  0  3  0  0  0  0  0  0
  191.2760  173.5870  135.8680 C   0  0  0  0  0  3  0  0  0  0  0  0
  190.9080  174.3400  136.9840 C   0  0  0  0  0  0  0  0  0  0  0  0
  189.2640  175.8620  135.3850 O   0  0  0  0  0  1  0  0  0  0  0  0
  186.9210  172.1380  136.2410 C   0  0  0  0  0  2  0  0  0  0  0  0
  187.6710  173.1930  136.5100 C   0  0  0  0  0  0  0  0  0  0  0  0
  188.8440  173.1230  137.2240 O   0  0  0  0  0  0  0  0  0  0  0  0
  187.3680  174.5590  136.0370 C   0  0  0  0  0  2  0  0  0  0  0  0
  189.4450  174.4000  137.3430 C   0  0  2  0  0  3  0  0  0  0  0  0
  188.5750  175.3830  136.5060 C   0  0  1  0  0  0  0  0  0  0  0  0
  189.1940  177.5040  137.7040 C   0  0  0  0  0  3  0  0  0  0  0  0
  188.0820  176.5670  137.3600 C   0  0  1  0  0  3  0  0  0  0  0  0
  187.1070  177.4370  136.5610 C   0  0  2  0  0  3  0  0  0  0  0  0
  188.9750  178.7320  137.2610 C   0  0  0  0  0  3  0  0  0  0  0  0
  187.6740  178.8520  136.5490 C   0  0  0  0  0  2  0  0  0  0  0  0
  185.3390  178.0960  138.2800 C   0  0  0  0  0  0  0  0  0  0  0  0
  186.1980  178.6430  139.0220 O   0  0  0  0  0  0  0  0  0  0  0  0
  185.7450  177.3780  137.0970 N   0  0  0  0  0  0  0  0  0  0  0  0
  184.8110  176.4620  136.4490 C   0  0  0  0  0  2  0  0  0  0  0  0
  184.5380  176.9030  135.0190 C   0  0  0  0  0  1  0  0  0  0  0  0
  183.8910  178.2170  138.6350 C   0  0  0  0  0  2  0  0  0  0  0  0
  183.7330  179.0360  139.8340 N   0  0  0  0  0  2  0  0  0  0  0  0
  183.1550  176.9180  140.6570 O   0  0  0  0  0  1  0  0  0  0  0  0
  183.0050  178.2920  140.8730 C   0  0  1  0  0  0  0  0  0  0  0  0
  183.5930  178.6090  142.2210 C   0  0  0  0  0  3  0  0  0  0  0  0
  184.8580  178.3280  142.5380 C   0  0  0  0  0  2  0  0  0  0  0  0
  181.1990  179.6650  140.4190 O   0  0  0  0  0  0  0  0  0  0  0  0
  181.5910  178.6170  140.8470 N   0  0  0  0  0  0  0  0  0  0  0  0
  195.8280  173.6220  136.6660 N   0  0  0  0  0  0  0  0  0  0  0  0
  194.9360  173.9490  135.8220 N   0  0  0  0  0  0  0  0  0  0  0  0
  197.2240  173.4900  136.2650 C   0  0  1  0  0  3  0  0  0  0  0  0
  197.9240  174.8160  136.2680 C   0  0  0  0  0  0  0  0  0  0  0  0
  197.4760  175.7800  136.9430 O   0  0  0  0  0  1  0  0  0  0  0  0
  199.1390  174.9460  135.6030 O   0  0  0  0  0  0  0  0  0  0  0  0
  197.9650  172.4440  137.1110 C   0  0  0  0  0  2  0  0  0  0  0  0
  197.0140  169.4730  134.9380 C   0  0  0  0  0  3  0  0  0  0  0  0
  197.4880  168.4090  135.7130 C   0  0  0  0  0  3  0  0  0  0  0  0
  198.1030  168.6570  136.9460 C   0  0  0  0  0  3  0  0  0  0  0  0
  197.1500  170.7870  135.3970 C   0  0  0  0  0  3  0  0  0  0  0  0
  197.7620  171.0380  136.6310 C   0  0  0  0  0  0  0  0  0  0  0  0
  198.2410  169.9700  137.4030 C   0  0  0  0  0  3  0  0  0  0  0  0
  191.5510  175.8220  138.8130 O   0  0  0  0  0  0  0  0  0  0  0  0
  191.7970  177.6640  140.4240 N   0  0  0  0  0  2  0  0  0  0  0  0
  193.4660  177.1280  138.9100 O   0  0  0  0  0  0  0  0  0  0  0  0
  192.3250  176.8550  139.3680 C   0  0  0  0  0  0  0  0  0  0  0  0
  190.7620  176.2400  142.0770 N   0  0  0  0  0  0  0  0  0  0  0  0
  187.5100  176.1730  143.7140 N   0  0  0  0  0  1  0  0  0  0  0  0
  189.7410  175.8790  142.8600 N   0  0  0  0  0  0  0  0  0  0  0  0
  188.4260  177.6670  142.0160 C   0  0  0  0  0  3  0  0  0  0  0  0
  190.6820  177.3220  141.2550 C   0  0  0  0  0  0  0  0  0  0  0  0
  188.5750  176.5710  142.8610 C   0  0  0  0  0  0  0  0  0  0  0  0
  189.4900  178.0440  141.2020 C   0  0  0  0  0  3  0  0  0  0  0  0
  1 45  1  0  0  0  0
  2  4  1  0  0  0  0
  3  5  1  0  0  0  0
  3  2  2  0  0  0  0
  4  1  2  0  0  0  0
  5  6  2  0  0  0  0
  6  1  1  0  0  0  0
  8  9  2  0  0  0  0
  9 10  1  0  0  0  0
 10 12  1  0  0  0  0
 11 13  1  0  0  0  0
 11  9  1  0  0  0  0
 12  6  1  6  0  0  0
 13  7  1  6  0  0  0
 13 12  1  0  0  0  0
 13 15  1  0  0  0  0
 15 14  1  6  0  0  0
 16 21  1  1  0  0  0
 16 15  1  0  0  0  0
 17 14  2  0  0  0  0
 18 16  1  0  0  0  0
 18 17  1  0  0  0  0
 19 24  1  0  0  0  0
 19 20  2  0  0  0  0
 21 19  1  0  0  0  0
 22 21  1  0  0  0  0
 23 22  1  0  0  0  0
 24 25  1  0  0  0  0
 25 27  1  0  0  0  0
 27 26  1  6  0  0  0
 27 28  1  0  0  0  0
 28 29  2  0  0  0  0
 30 31  2  0  0  0  0
 31 27  1  0  0  0  0
 33  2  1  0  0  0  0
 33 32  2  0  0  0  0
 34 35  1  0  0  0  0
 34 32  1  0  0  0  0
 34 38  1  1  0  0  0
 35 36  1  0  0  0  0
 37 35  2  0  0  0  0
 39 42  2  0  0  0  0
 39 40  1  0  0  0  0
 40 41  2  0  0  0  0
 41 44  1  0  0  0  0
 42 43  1  0  0  0  0
 43 38  1  0  0  0  0
 43 44  2  0  0  0  0
 45 48  1  0  0  0  0
 46 53  1  0  0  0  0
 47 48  2  0  0  0  0
 48 46  1  0  0  0  0
 49 51  1  0  0  0  0
 51 54  2  0  0  0  0
 52 54  1  0  0  0  0
 53 49  2  0  0  0  0
 54 50  1  0  0  0  0
 55 53  1  0  0  0  0
 55 52  2  0  0  0  0
M  END
>  <MODEL>
8

>  <REMARK>
 VINA RESULT:      -7.1      2.044      4.680
  Name = 
  17 active torsions:
  status: ('A' for Active; 'I' for Inactive)
    1  A    between atoms: C_1  and  C_31
    2  A    between atoms: C_2  and  C_8
    3  A    between atoms: C_7  and  O_9
    4  A    between atoms: C_8  and  N_13
    5  A    between atoms: C_8  and  C_30
    6  A    between atoms: O_9  and  C_51
    7  A    between atoms: C_10  and  C_23
    8  A    between atoms: C_12  and  C_50
    9  A    between atoms: C_14  and  N_40
   10  A    between atoms: C_17  and  N_52
   11  A    between atoms: N_18  and  C_42
   12  A    between atoms: C_23  and  N_33
   13  A    between atoms: C_30  and  C_37
   14  A    between atoms: C_31  and  N_33
   15  A    between atoms: C_31  and  N_43
   16  A    between atoms: C_34  and  N_52
   17  A    between atoms: C_45  and  C_47
                            x       y       z     vdW  Elec       q    Type
                         _______ _______ _______ _____ _____    ______ ____

>  <TORSDO>
F 17

$$$$
=
 OpenBabel10232408463D

 55 59  0  0  1  0  0  0  0  0999 V2000
  184.8230  177.9980  138.9530 C   0  0  0  0  0  0  0  0  0  0  0  0
  185.9390  178.6670  140.9990 C   0  0  0  0  0  0  0  0  0  0  0  0
  187.1400  178.3760  140.4330 N   0  0  0  0  0  0  0  0  0  0  0  0
  184.7650  178.4880  140.2670 C   0  0  0  0  0  3  0  0  0  0  0  0
  187.2310  177.8790  139.1720 C   0  0  0  0  0  3  0  0  0  0  0  0
  186.0820  177.6580  138.4100 C   0  0  0  0  0  0  0  0  0  0  0  0
  185.2480  175.0710  137.9780 O   0  0  0  0  0  1  0  0  0  0  0  0
  183.9130  177.3370  134.3490 C   0  0  0  0  0  2  0  0  0  0  0  0
  184.7450  176.9340  135.2940 C   0  0  0  0  0  0  0  0  0  0  0  0
  185.4630  177.7980  136.0870 O   0  0  0  0  0  0  0  0  0  0  0  0
  184.9640  175.5160  135.6460 C   0  0  0  0  0  2  0  0  0  0  0  0
  186.2550  177.0900  137.0240 C   0  0  2  0  0  3  0  0  0  0  0  0
  185.9090  175.5820  136.8540 C   0  0  1  0  0  0  0  0  0  0  0  0
  186.8790  173.6150  135.6270 C   0  0  0  0  0  3  0  0  0  0  0  0
  187.1680  174.7430  136.5620 C   0  0  1  0  0  3  0  0  0  0  0  0
  188.2090  175.5810  135.8130 C   0  0  2  0  0  3  0  0  0  0  0  0
  187.6050  173.6780  134.5210 C   0  0  0  0  0  3  0  0  0  0  0  0
  188.5220  174.8500  134.5120 C   0  0  0  0  0  2  0  0  0  0  0  0
  190.1750  174.7730  137.2270 C   0  0  0  0  0  0  0  0  0  0  0  0
  189.7300  173.5950  137.2540 O   0  0  0  0  0  0  0  0  0  0  0  0
  189.4040  175.8320  136.6220 N   0  0  0  0  0  0  0  0  0  0  0  0
  189.7430  177.2240  136.9000 C   0  0  0  0  0  2  0  0  0  0  0  0
  189.7320  178.0410  135.6170 C   0  0  0  0  0  1  0  0  0  0  0  0
  191.5210  175.0550  137.8140 C   0  0  0  0  0  2  0  0  0  0  0  0
  192.5650  174.4520  136.9910 N   0  0  0  0  0  2  0  0  0  0  0  0
  193.6950  176.1840  138.0930 O   0  0  0  0  0  1  0  0  0  0  0  0
  193.8750  175.0440  137.3040 C   0  0  1  0  0  0  0  0  0  0  0  0
  194.6910  174.0620  138.1000 C   0  0  0  0  0  3  0  0  0  0  0  0
  195.7580  173.4390  137.5970 C   0  0  0  0  0  2  0  0  0  0  0  0
  195.4030  176.2870  136.0900 O   0  0  0  0  0  0  0  0  0  0  0  0
  194.5750  175.4210  136.0910 N   0  0  0  0  0  0  0  0  0  0  0  0
  185.7730  178.3680  143.3280 N   0  0  0  0  0  0  0  0  0  0  0  0
  185.8660  179.1590  142.3380 N   0  0  0  0  0  0  0  0  0  0  0  0
  185.6820  178.8840  144.6900 C   0  0  1  0  0  3  0  0  0  0  0  0
  184.2600  179.1500  145.0820 C   0  0  0  0  0  0  0  0  0  0  0  0
  183.8140  178.7630  146.1950 O   0  0  0  0  0  1  0  0  0  0  0  0
  183.4570  179.9250  144.2510 O   0  0  0  0  0  0  0  0  0  0  0  0
  186.3950  177.9680  145.6950 C   0  0  0  0  0  2  0  0  0  0  0  0
  189.2020  176.5540  143.5580 C   0  0  0  0  0  3  0  0  0  0  0  0
  190.3140  176.8060  144.3690 C   0  0  0  0  0  3  0  0  0  0  0  0
  190.1490  177.4240  145.6140 C   0  0  0  0  0  3  0  0  0  0  0  0
  187.9230  176.9120  143.9920 C   0  0  0  0  0  3  0  0  0  0  0  0
  187.7540  177.5270  145.2400 C   0  0  0  0  0  0  0  0  0  0  0  0
  188.8700  177.7850  146.0480 C   0  0  0  0  0  3  0  0  0  0  0  0
  183.6580  177.8150  138.1870 O   0  0  0  0  0  0  0  0  0  0  0  0
  181.3250  178.1910  138.8700 N   0  0  0  0  0  2  0  0  0  0  0  0
  182.3080  176.0950  138.9610 O   0  0  0  0  0  0  0  0  0  0  0  0
  182.4340  177.3110  138.6580 C   0  0  0  0  0  0  0  0  0  0  0  0
  181.7950  180.5580  138.9200 N   0  0  0  0  0  0  0  0  0  0  0  0
  180.8550  183.3920  136.8350 N   0  0  0  0  0  1  0  0  0  0  0  0
  181.6820  181.8000  138.4410 N   0  0  0  0  0  0  0  0  0  0  0  0
  180.2770  181.0270  136.6890 C   0  0  0  0  0  3  0  0  0  0  0  0
  181.1870  179.5030  138.3130 C   0  0  0  0  0  0  0  0  0  0  0  0
  180.9470  182.0630  137.3320 C   0  0  0  0  0  0  0  0  0  0  0  0
  180.3960  179.7330  137.1880 C   0  0  0  0  0  3  0  0  0  0  0  0
  1  4  2  0  0  0  0
  2 33  1  0  0  0  0
  3  2  2  0  0  0  0
  4  2  1  0  0  0  0
  5  3  1  0  0  0  0
  6  1  1  0  0  0  0
  6  5  2  0  0  0  0
  8  9  2  0  0  0  0
  9 11  1  0  0  0  0
  9 10  1  0  0  0  0
 10 12  1  0  0  0  0
 11 13  1  0  0  0  0
 12  6  1  1  0  0  0
 13 12  1  0  0  0  0
 13  7  1  1  0  0  0
 15 14  1  6  0  0  0
 15 13  1  0  0  0  0
 16 15  1  0  0  0  0
 16 21  1  1  0  0  0
 17 14  2  0  0  0  0
 18 17  1  0  0  0  0
 18 16  1  0  0  0  0
 19 20  2  0  0  0  0
 19 24  1  0  0  0  0
 21 22  1  0  0  0  0
 21 19  1  0  0  0  0
 23 22  1  0  0  0  0
 25 27  1  0  0  0  0
 25 24  1  0  0  0  0
 27 26  1  1  0  0  0
 27 28  1  0  0  0  0
 29 28  2  0  0  0  0
 30 31  2  0  0  0  0
 31 27  1  0  0  0  0
 32 34  1  0  0  0  0
 33 32  2  0  0  0  0
 34 35  1  0  0  0  0
 34 38  1  1  0  0  0
 35 36  1  0  0  0  0
 37 35  2  0  0  0  0
 39 42  2  0  0  0  0
 39 40  1  0  0  0  0
 40 41  2  0  0  0  0
 41 44  1  0  0  0  0
 42 43  1  0  0  0  0
 43 38  1  0  0  0  0
 43 44  2  0  0  0  0
 45 48  1  0  0  0  0
 45  1  1  0  0  0  0
 48 46  1  0  0  0  0
 48 47  2  0  0  0  0
 50 54  1  0  0  0  0
 51 49  1  0  0  0  0
 52 55  2  0  0  0  0
 52 54  1  0  0  0  0
 53 46  1  0  0  0  0
 53 49  2  0  0  0  0
 54 51  2  0  0  0  0
 55 53  1  0  0  0  0
M  END
>  <MODEL>
9

>  <REMARK>
 VINA RESULT:      -7.0      2.716     10.214
  Name = 
  17 active torsions:
  status: ('A' for Active; 'I' for Inactive)
    1  A    between atoms: C_1  and  C_31
    2  A    between atoms: C_2  and  C_8
    3  A    between atoms: C_7  and  O_9
    4  A    between atoms: C_8  and  N_13
    5  A    between atoms: C_8  and  C_30
    6  A    between atoms: O_9  and  C_51
    7  A    between atoms: C_10  and  C_23
    8  A    between atoms: C_12  and  C_50
    9  A    between atoms: C_14  and  N_40
   10  A    between atoms: C_17  and  N_52
   11  A    between atoms: N_18  and  C_42
   12  A    between atoms: C_23  and  N_33
   13  A    between atoms: C_30  and  C_37
   14  A    between atoms: C_31  and  N_33
   15  A    between atoms: C_31  and  N_43
   16  A    between atoms: C_34  and  N_52
   17  A    between atoms: C_45  and  C_47
                            x       y       z     vdW  Elec       q    Type
                         _______ _______ _______ _____ _____    ______ ____

>  <TORSDO>
F 17

$$$$
