=
 OpenBabel10232408433D

 30 33  0  0  1  0  0  0  0  0999 V2000
  189.9280  177.2930  140.9670 N   0  0  0  0  0  0  0  0  0  0  0  0
  188.6920  177.9850  141.3370 C   0  0  1  0  0  3  0  0  0  0  0  0
  188.0450  177.3650  142.5210 C   0  0  1  0  0  3  0  0  0  0  0  0
  188.8450  178.5130  142.6340 O   0  0  0  0  0  0  0  0  0  0  0  0
  186.6500  177.7710  142.6150 N   0  0  0  0  0  2  0  0  0  0  0  0
  184.6710  178.5730  146.2710 C   0  0  0  0  0  3  0  0  0  0  0  0
  184.0600  178.9240  145.0630 C   0  0  0  0  0  3  0  0  0  0  0  0
  184.7060  178.6610  143.8510 C   0  0  0  0  0  3  0  0  0  0  0  0
  186.5720  177.6980  145.0520 C   0  0  0  0  0  3  0  0  0  0  0  0
  185.9270  177.9600  146.2650 C   0  0  0  0  0  3  0  0  0  0  0  0
  185.9660  178.0460  143.8410 C   0  0  0  0  0  0  0  0  0  0  0  0
  190.9180  177.7700  141.9360 C   0  0  0  0  0  2  0  0  0  0  0  0
  191.7210  176.6060  142.4920 C   0  0  0  0  0  2  0  0  0  0  0  0
  191.1100  176.1130  143.7910 C   0  0  0  0  0  2  0  0  0  0  0  0
  191.4280  177.0810  144.9190 C   0  0  2  0  0  3  0  0  0  0  0  0
  190.5840  176.8330  146.7600 C   0  0  0  0  0  2  0  0  0  0  0  0
  191.8630  176.3170  146.1460 C   0  0  0  0  0  2  0  0  0  0  0  0
  190.1970  177.5440  145.5490 N   0  0  0  0  0  2  0  0  0  0  0  0
  190.3240  177.7160  139.6080 C   0  0  1  0  0  3  0  0  0  0  0  0
  191.7420  174.4590  137.2030 C   0  0  0  0  0  0  0  0  0  0  0  0
  189.8880  175.7270  138.0970 C   0  0  0  0  0  3  0  0  0  0  0  0
  190.7990  176.5700  138.7500 C   0  0  0  0  0  0  0  0  0  0  0  0
  192.6280  175.3260  137.8680 C   0  0  0  0  0  0  0  0  0  0  0  0
  192.1340  176.3490  138.6170 N   0  0  0  0  0  0  0  0  0  0  0  0
  192.2260  173.3190  136.3710 C   0  0  0  0  0  1  0  0  0  0  0  0
  190.3680  174.6710  137.3240 C   0  0  0  0  0  3  0  0  0  0  0  0
  194.0550  175.1560  137.7780 C   0  0  0  0  0  0  0  0  0  0  0  0
  195.2020  175.0180  137.7060 N   0  0  0  0  0  0  0  0  0  0  0  0
  189.2020  178.3750  138.9150 C   0  0  0  0  0  0  0  0  0  0  0  0
  188.3170  178.8820  138.3670 N   0  0  0  0  0  0  0  0  0  0  0  0
  1 12  1  0  0  0  0
  2  1  1  1  0  0  0
  2  3  1  0  0  0  0
  2  4  1  0  0  0  0
  3  5  1  6  0  0  0
  3  4  1  0  0  0  0
  5 11  1  0  0  0  0
  7  6  2  0  0  0  0
  8  7  1  0  0  0  0
  9 10  2  0  0  0  0
 10  6  1  0  0  0  0
 11  8  2  0  0  0  0
 11  9  1  0  0  0  0
 12 13  1  0  0  0  0
 13 14  1  0  0  0  0
 15 14  1  6  0  0  0
 15 18  1  0  0  0  0
 15 17  1  0  0  0  0
 17 16  1  0  0  0  0
 18 16  1  0  0  0  0
 19 29  1  6  0  0  0
 19  1  1  0  0  0  0
 20 26  2  0  0  0  0
 20 23  1  0  0  0  0
 21 22  2  0  0  0  0
 22 19  1  0  0  0  0
 23 24  2  0  0  0  0
 24 22  1  0  0  0  0
 25 20  1  0  0  0  0
 26 21  1  0  0  0  0
 27 23  1  0  0  0  0
 28 27  3  0  0  0  0
 30 29  3  0  0  0  0
M  END
>  <MODEL>
1

>  <REMARK>
 VINA RESULT:      -7.4      0.000      0.000
  Name = 
  11 active torsions:
  status: ('A' for Active; 'I' for Inactive)
    1  A    between atoms: C_1  and  C_11
    2  A    between atoms: C_1  and  N_20
    3  A    between atoms: C_3  and  C_30
    4  A    between atoms: C_8  and  C_30
    5  A    between atoms: C_10  and  C_14
    6  A    between atoms: C_11  and  C_24
    7  A    between atoms: C_12  and  N_20
    8  A    between atoms: C_17  and  C_24
    9  A    between atoms: C_19  and  N_22
   10  A    between atoms: N_20  and  C_30
   11  A    between atoms: N_22  and  C_26
                            x       y       z     vdW  Elec       q    Type
                         _______ _______ _______ _____ _____    ______ ____

>  <TORSDO>
F 11

$$$$
=
 OpenBabel10232408433D

 30 33  0  0  1  0  0  0  0  0999 V2000
  189.5170  176.9990  141.0480 N   0  0  0  0  0  0  0  0  0  0  0  0
  188.7150  178.0280  141.7120 C   0  0  1  0  0  3  0  0  0  0  0  0
  187.2750  177.6650  141.7520 C   0  0  1  0  0  3  0  0  0  0  0  0
  188.1180  177.4610  142.8550 O   0  0  0  0  0  0  0  0  0  0  0  0
  186.4570  178.8410  142.0150 N   0  0  0  0  0  2  0  0  0  0  0  0
  182.9400  178.8400  144.3710 C   0  0  0  0  0  3  0  0  0  0  0  0
  184.1910  178.8810  144.9960 C   0  0  0  0  0  3  0  0  0  0  0  0
  185.3570  178.8830  144.2250 C   0  0  0  0  0  3  0  0  0  0  0  0
  184.0260  178.8030  142.2060 C   0  0  0  0  0  3  0  0  0  0  0  0
  182.8580  178.8010  142.9770 C   0  0  0  0  0  3  0  0  0  0  0  0
  185.2790  178.8450  142.8260 C   0  0  0  0  0  0  0  0  0  0  0  0
  190.4720  176.5640  142.0700 C   0  0  0  0  0  2  0  0  0  0  0  0
  191.4970  177.6530  142.3390 C   0  0  0  0  0  2  0  0  0  0  0  0
  191.5960  177.9310  143.8280 C   0  0  0  0  0  2  0  0  0  0  0  0
  190.9410  176.8070  144.6140 C   0  0  2  0  0  3  0  0  0  0  0  0
  191.0810  176.7540  146.6490 C   0  0  0  0  0  2  0  0  0  0  0  0
  190.0780  177.3810  145.7110 C   0  0  0  0  0  2  0  0  0  0  0  0
  191.8920  176.2300  145.5590 N   0  0  0  0  0  2  0  0  0  0  0  0
  190.2480  177.6160  139.9210 C   0  0  1  0  0  3  0  0  0  0  0  0
  192.0770  174.7130  137.3460 C   0  0  0  0  0  0  0  0  0  0  0  0
  192.2970  176.6350  138.7960 C   0  0  0  0  0  3  0  0  0  0  0  0
  190.9150  176.6010  139.0270 C   0  0  0  0  0  0  0  0  0  0  0  0
  190.6940  174.7050  137.6040 C   0  0  0  0  0  0  0  0  0  0  0  0
  190.1560  175.6420  138.4310 N   0  0  0  0  0  0  0  0  0  0  0  0
  192.7200  173.7120  136.4460 C   0  0  0  0  0  1  0  0  0  0  0  0
  192.8730  175.6860  137.9520 C   0  0  0  0  0  3  0  0  0  0  0  0
  189.8240  173.7240  137.0060 C   0  0  0  0  0  0  0  0  0  0  0  0
  189.1260  172.9350  136.5260 N   0  0  0  0  0  0  0  0  0  0  0  0
  189.3430  178.4350  139.0940 C   0  0  0  0  0  0  0  0  0  0  0  0
  188.6330  179.0690  138.4360 N   0  0  0  0  0  0  0  0  0  0  0  0
  1 12  1  0  0  0  0
  2  1  1  6  0  0  0
  2  3  1  0  0  0  0
  2  4  1  0  0  0  0
  3  5  1  1  0  0  0
  3  4  1  0  0  0  0
  5 11  1  0  0  0  0
  6  7  1  0  0  0  0
  8  7  2  0  0  0  0
  9 11  2  0  0  0  0
  9 10  1  0  0  0  0
 10  6  2  0  0  0  0
 11  8  1  0  0  0  0
 12 13  1  0  0  0  0
 13 14  1  0  0  0  0
 15 14  1  6  0  0  0
 15 18  1  0  0  0  0
 15 17  1  0  0  0  0
 17 16  1  0  0  0  0
 18 16  1  0  0  0  0
 19 29  1  6  0  0  0
 19  1  1  0  0  0  0
 20 23  2  0  0  0  0
 20 26  1  0  0  0  0
 21 22  1  0  0  0  0
 22 19  1  0  0  0  0
 23 24  1  0  0  0  0
 24 22  2  0  0  0  0
 25 20  1  0  0  0  0
 26 21  2  0  0  0  0
 27 23  1  0  0  0  0
 28 27  3  0  0  0  0
 30 29  3  0  0  0  0
M  END
>  <MODEL>
2

>  <REMARK>
 VINA RESULT:      -7.3      1.445      2.272
  Name = 
  11 active torsions:
  status: ('A' for Active; 'I' for Inactive)
    1  A    between atoms: C_1  and  C_11
    2  A    between atoms: C_1  and  N_20
    3  A    between atoms: C_3  and  C_30
    4  A    between atoms: C_8  and  C_30
    5  A    between atoms: C_10  and  C_14
    6  A    between atoms: C_11  and  C_24
    7  A    between atoms: C_12  and  N_20
    8  A    between atoms: C_17  and  C_24
    9  A    between atoms: C_19  and  N_22
   10  A    between atoms: N_20  and  C_30
   11  A    between atoms: N_22  and  C_26
                            x       y       z     vdW  Elec       q    Type
                         _______ _______ _______ _____ _____    ______ ____

>  <TORSDO>
F 11

$$$$
=
 OpenBabel10232408433D

 30 33  0  0  1  0  0  0  0  0999 V2000
  189.3670  176.8360  140.5600 N   0  0  0  0  0  0  0  0  0  0  0  0
  189.9570  176.9950  141.8900 C   0  0  1  0  0  3  0  0  0  0  0  0
  189.1530  176.3140  142.9370 C   0  0  1  0  0  3  0  0  0  0  0  0
  190.2980  175.7200  142.3840 O   0  0  0  0  0  0  0  0  0  0  0  0
  189.4960  176.8210  144.2580 N   0  0  0  0  0  2  0  0  0  0  0  0
  186.7230  178.1530  147.1650 C   0  0  0  0  0  3  0  0  0  0  0  0
  186.3230  178.0390  145.8300 C   0  0  0  0  0  3  0  0  0  0  0  0
  187.2320  177.5980  144.8640 C   0  0  0  0  0  3  0  0  0  0  0  0
  188.9400  177.3850  146.5650 C   0  0  0  0  0  3  0  0  0  0  0  0
  188.0310  177.8260  147.5320 C   0  0  0  0  0  3  0  0  0  0  0  0
  188.5450  177.2690  145.2280 C   0  0  0  0  0  0  0  0  0  0  0  0
  190.4960  176.4760  139.6990 C   0  0  0  0  0  2  0  0  0  0  0  0
  191.6720  177.4060  139.9480 C   0  0  0  0  0  2  0  0  0  0  0  0
  192.9460  176.8140  139.3720 C   0  0  0  0  0  2  0  0  0  0  0  0
  192.7300  176.4230  137.9190 C   0  0  2  0  0  3  0  0  0  0  0  0
  194.1750  175.4040  136.9000 C   0  0  0  0  0  2  0  0  0  0  0  0
  193.0030  174.9490  137.7370 C   0  0  0  0  0  2  0  0  0  0  0  0
  193.8810  176.8140  137.1140 N   0  0  0  0  0  2  0  0  0  0  0  0
  188.8100  178.1340  140.1260 C   0  0  1  0  0  3  0  0  0  0  0  0
  187.3670  178.0760  136.0870 C   0  0  0  0  0  0  0  0  0  0  0  0
  189.0690  178.7270  137.6750 C   0  0  0  0  0  3  0  0  0  0  0  0
  188.3270  178.1190  138.6970 C   0  0  0  0  0  0  0  0  0  0  0  0
  186.6510  177.4710  137.1360 C   0  0  0  0  0  0  0  0  0  0  0  0
  187.1480  177.5100  138.4020 N   0  0  0  0  0  0  0  0  0  0  0  0
  186.8690  178.0660  134.6810 C   0  0  0  0  0  1  0  0  0  0  0  0
  188.5820  178.7020  136.3690 C   0  0  0  0  0  3  0  0  0  0  0  0
  185.3920  176.8100  136.9030 C   0  0  0  0  0  0  0  0  0  0  0  0
  184.3810  176.2790  136.7160 N   0  0  0  0  0  0  0  0  0  0  0  0
  187.6840  178.5370  140.9880 C   0  0  0  0  0  0  0  0  0  0  0  0
  186.8000  178.8430  141.6700 N   0  0  0  0  0  0  0  0  0  0  0  0
  2  1  1  6  0  0  0
  2  4  1  0  0  0  0
  2  3  1  0  0  0  0
  3  5  1  1  0  0  0
  4  3  1  0  0  0  0
  5 11  1  0  0  0  0
  6 10  1  0  0  0  0
  7  6  2  0  0  0  0
  8 11  2  0  0  0  0
  8  7  1  0  0  0  0
  9 10  2  0  0  0  0
 11  9  1  0  0  0  0
 12 13  1  0  0  0  0
 12  1  1  0  0  0  0
 14 13  1  0  0  0  0
 15 14  1  1  0  0  0
 16 18  1  0  0  0  0
 16 17  1  0  0  0  0
 17 15  1  0  0  0  0
 18 15  1  0  0  0  0
 19  1  1  0  0  0  0
 19 29  1  1  0  0  0
 20 26  2  0  0  0  0
 20 23  1  0  0  0  0
 21 22  2  0  0  0  0
 22 19  1  0  0  0  0
 23 24  2  0  0  0  0
 24 22  1  0  0  0  0
 25 20  1  0  0  0  0
 26 21  1  0  0  0  0
 27 23  1  0  0  0  0
 28 27  3  0  0  0  0
 29 30  3  0  0  0  0
M  END
>  <MODEL>
3

>  <REMARK>
 VINA RESULT:      -7.1      2.291      5.308
  Name = 
  11 active torsions:
  status: ('A' for Active; 'I' for Inactive)
    1  A    between atoms: C_1  and  C_11
    2  A    between atoms: C_1  and  N_20
    3  A    between atoms: C_3  and  C_30
    4  A    between atoms: C_8  and  C_30
    5  A    between atoms: C_10  and  C_14
    6  A    between atoms: C_11  and  C_24
    7  A    between atoms: C_12  and  N_20
    8  A    between atoms: C_17  and  C_24
    9  A    between atoms: C_19  and  N_22
   10  A    between atoms: N_20  and  C_30
   11  A    between atoms: N_22  and  C_26
                            x       y       z     vdW  Elec       q    Type
                         _______ _______ _______ _____ _____    ______ ____

>  <TORSDO>
F 11

$$$$
=
 OpenBabel10232408433D

 30 33  0  0  1  0  0  0  0  0999 V2000
  188.6490  177.3860  139.8630 N   0  0  0  0  0  0  0  0  0  0  0  0
  187.7650  178.3070  140.5780 C   0  0  1  0  0  3  0  0  0  0  0  0
  187.4080  177.7970  141.9260 C   0  0  1  0  0  3  0  0  0  0  0  0
  188.4240  178.7480  141.7430 O   0  0  0  0  0  0  0  0  0  0  0  0
  186.2310  178.4820  142.4400 N   0  0  0  0  0  2  0  0  0  0  0  0
  184.9730  178.3090  146.4770 C   0  0  0  0  0  3  0  0  0  0  0  0
  184.1220  178.8570  145.5120 C   0  0  0  0  0  3  0  0  0  0  0  0
  184.5290  178.9160  144.1760 C   0  0  0  0  0  3  0  0  0  0  0  0
  186.6350  177.8820  144.7690 C   0  0  0  0  0  3  0  0  0  0  0  0
  186.2280  177.8210  146.1060 C   0  0  0  0  0  3  0  0  0  0  0  0
  185.7880  178.4280  143.7980 C   0  0  0  0  0  0  0  0  0  0  0  0
  189.9980  177.8910  140.1320 C   0  0  0  0  0  2  0  0  0  0  0  0
  190.8710  176.7920  140.7160 C   0  0  0  0  0  2  0  0  0  0  0  0
  191.4430  177.2260  142.0530 C   0  0  0  0  0  2  0  0  0  0  0  0
  190.7720  176.4600  143.1820 C   0  0  2  0  0  3  0  0  0  0  0  0
  191.4730  176.6160  145.0930 C   0  0  0  0  0  2  0  0  0  0  0  0
  190.4410  177.4000  144.3160 C   0  0  0  0  0  2  0  0  0  0  0  0
  191.7700  175.7410  143.9670 N   0  0  0  0  0  2  0  0  0  0  0  0
  188.3670  177.4780  138.4160 C   0  0  1  0  0  3  0  0  0  0  0  0
  188.5810  173.6650  136.4630 C   0  0  0  0  0  0  0  0  0  0  0  0
  187.2440  175.4900  137.3140 C   0  0  0  0  0  3  0  0  0  0  0  0
  188.4180  176.1410  137.7200 C   0  0  0  0  0  0  0  0  0  0  0  0
  189.7390  174.3480  136.8780 C   0  0  0  0  0  0  0  0  0  0  0  0
  189.6250  175.5580  137.4900 N   0  0  0  0  0  0  0  0  0  0  0  0
  188.6460  172.3350  135.7900 C   0  0  0  0  0  1  0  0  0  0  0  0
  187.3340  174.2490  136.6850 C   0  0  0  0  0  3  0  0  0  0  0  0
  191.0530  173.7930  136.6740 C   0  0  0  0  0  0  0  0  0  0  0  0
  192.1080  173.3470  136.5100 N   0  0  0  0  0  0  0  0  0  0  0  0
  187.0390  178.0720  138.1760 C   0  0  0  0  0  0  0  0  0  0  0  0
  186.0000  178.5480  137.9920 N   0  0  0  0  0  0  0  0  0  0  0  0
  1 12  1  0  0  0  0
  2  1  1  6  0  0  0
  2  4  1  0  0  0  0
  2  3  1  0  0  0  0
  3  5  1  1  0  0  0
  4  3  1  0  0  0  0
  5 11  1  0  0  0  0
  7  6  2  0  0  0  0
  8  7  1  0  0  0  0
  9 10  2  0  0  0  0
 10  6  1  0  0  0  0
 11  8  2  0  0  0  0
 11  9  1  0  0  0  0
 12 13  1  0  0  0  0
 13 14  1  0  0  0  0
 15 14  1  6  0  0  0
 15 18  1  0  0  0  0
 15 17  1  0  0  0  0
 17 16  1  0  0  0  0
 18 16  1  0  0  0  0
 19 29  1  1  0  0  0
 19  1  1  0  0  0  0
 20 26  2  0  0  0  0
 20 23  1  0  0  0  0
 21 22  2  0  0  0  0
 22 19  1  0  0  0  0
 23 24  2  0  0  0  0
 24 22  1  0  0  0  0
 25 20  1  0  0  0  0
 26 21  1  0  0  0  0
 27 23  1  0  0  0  0
 28 27  3  0  0  0  0
 30 29  3  0  0  0  0
M  END
>  <MODEL>
4

>  <REMARK>
 VINA RESULT:      -6.9      1.769      2.258
  Name = 
  11 active torsions:
  status: ('A' for Active; 'I' for Inactive)
    1  A    between atoms: C_1  and  C_11
    2  A    between atoms: C_1  and  N_20
    3  A    between atoms: C_3  and  C_30
    4  A    between atoms: C_8  and  C_30
    5  A    between atoms: C_10  and  C_14
    6  A    between atoms: C_11  and  C_24
    7  A    between atoms: C_12  and  N_20
    8  A    between atoms: C_17  and  C_24
    9  A    between atoms: C_19  and  N_22
   10  A    between atoms: N_20  and  C_30
   11  A    between atoms: N_22  and  C_26
                            x       y       z     vdW  Elec       q    Type
                         _______ _______ _______ _____ _____    ______ ____

>  <TORSDO>
F 11

$$$$
=
 OpenBabel10232408433D

 30 33  0  0  1  0  0  0  0  0999 V2000
  188.7090  177.3940  139.8400 N   0  0  0  0  0  0  0  0  0  0  0  0
  187.8180  178.3200  140.5420 C   0  0  1  0  0  3  0  0  0  0  0  0
  187.3940  177.7850  141.8610 C   0  0  1  0  0  3  0  0  0  0  0  0
  188.4400  178.7150  141.7440 O   0  0  0  0  0  0  0  0  0  0  0  0
  186.2140  178.4870  142.3440 N   0  0  0  0  0  2  0  0  0  0  0  0
  184.8610  178.3520  146.3530 C   0  0  0  0  0  3  0  0  0  0  0  0
  184.0320  178.8860  145.3620 C   0  0  0  0  0  3  0  0  0  0  0  0
  184.4700  178.9330  144.0350 C   0  0  0  0  0  3  0  0  0  0  0  0
  186.5650  177.9130  144.6880 C   0  0  0  0  0  3  0  0  0  0  0  0
  186.1270  177.8650  146.0160 C   0  0  0  0  0  3  0  0  0  0  0  0
  185.7390  178.4460  143.6920 C   0  0  0  0  0  0  0  0  0  0  0  0
  190.0520  177.9320  140.0720 C   0  0  0  0  0  2  0  0  0  0  0  0
  190.9380  176.8850  140.7280 C   0  0  0  0  0  2  0  0  0  0  0  0
  191.7290  177.5000  141.8680 C   0  0  0  0  0  2  0  0  0  0  0  0
  191.6410  176.6160  143.1010 C   0  0  2  0  0  3  0  0  0  0  0  0
  190.1420  176.8870  144.4590 C   0  0  0  0  0  2  0  0  0  0  0  0
  190.2530  176.0330  143.2190 C   0  0  0  0  0  2  0  0  0  0  0  0
  191.4830  177.4340  144.2980 N   0  0  0  0  0  2  0  0  0  0  0  0
  188.4030  177.4390  138.3960 C   0  0  1  0  0  3  0  0  0  0  0  0
  188.4290  173.5820  136.5180 C   0  0  0  0  0  0  0  0  0  0  0  0
  189.6490  175.4110  137.5220 C   0  0  0  0  0  3  0  0  0  0  0  0
  188.4360  176.0780  137.7450 C   0  0  0  0  0  0  0  0  0  0  0  0
  187.2300  174.2770  136.7610 C   0  0  0  0  0  0  0  0  0  0  0  0
  187.2680  175.4960  137.3630 N   0  0  0  0  0  0  0  0  0  0  0  0
  188.4470  172.2440  135.8580 C   0  0  0  0  0  1  0  0  0  0  0  0
  189.6380  174.1610  136.9060 C   0  0  0  0  0  3  0  0  0  0  0  0
  185.9530  173.7280  136.3820 C   0  0  0  0  0  0  0  0  0  0  0  0
  184.9270  173.2860  136.0780 N   0  0  0  0  0  0  0  0  0  0  0  0
  187.0730  178.0290  138.1580 C   0  0  0  0  0  0  0  0  0  0  0  0
  186.0320  178.4950  137.9610 N   0  0  0  0  0  0  0  0  0  0  0  0
  1 12  1  0  0  0  0
  2  1  1  6  0  0  0
  2  4  1  0  0  0  0
  2  3  1  0  0  0  0
  3  5  1  1  0  0  0
  4  3  1  0  0  0  0
  5 11  1  0  0  0  0
  7  6  2  0  0  0  0
  8  7  1  0  0  0  0
  9 10  2  0  0  0  0
 10  6  1  0  0  0  0
 11  8  2  0  0  0  0
 11  9  1  0  0  0  0
 12 13  1  0  0  0  0
 13 14  1  0  0  0  0
 15 14  1  6  0  0  0
 15 17  1  0  0  0  0
 15 18  1  0  0  0  0
 17 16  1  0  0  0  0
 18 16  1  0  0  0  0
 19 29  1  1  0  0  0
 19  1  1  0  0  0  0
 20 23  2  0  0  0  0
 20 26  1  0  0  0  0
 21 22  1  0  0  0  0
 22 19  1  0  0  0  0
 23 24  1  0  0  0  0
 24 22  2  0  0  0  0
 25 20  1  0  0  0  0
 26 21  2  0  0  0  0
 27 23  1  0  0  0  0
 28 27  3  0  0  0  0
 30 29  3  0  0  0  0
M  END
>  <MODEL>
5

>  <REMARK>
 VINA RESULT:      -6.8      2.210      3.347
  Name = 
  11 active torsions:
  status: ('A' for Active; 'I' for Inactive)
    1  A    between atoms: C_1  and  C_11
    2  A    between atoms: C_1  and  N_20
    3  A    between atoms: C_3  and  C_30
    4  A    between atoms: C_8  and  C_30
    5  A    between atoms: C_10  and  C_14
    6  A    between atoms: C_11  and  C_24
    7  A    between atoms: C_12  and  N_20
    8  A    between atoms: C_17  and  C_24
    9  A    between atoms: C_19  and  N_22
   10  A    between atoms: N_20  and  C_30
   11  A    between atoms: N_22  and  C_26
                            x       y       z     vdW  Elec       q    Type
                         _______ _______ _______ _____ _____    ______ ____

>  <TORSDO>
F 11

$$$$
=
 OpenBabel10232408433D

 30 33  0  0  1  0  0  0  0  0999 V2000
  188.8060  177.3550  139.7060 N   0  0  0  0  0  0  0  0  0  0  0  0
  187.7840  178.2100  140.3100 C   0  0  1  0  0  3  0  0  0  0  0  0
  187.4750  177.8020  141.7040 C   0  0  1  0  0  3  0  0  0  0  0  0
  188.3480  178.8650  141.4230 O   0  0  0  0  0  0  0  0  0  0  0  0
  186.2000  178.3610  142.1320 N   0  0  0  0  0  2  0  0  0  0  0  0
  184.8840  178.4210  146.1550 C   0  0  0  0  0  3  0  0  0  0  0  0
  184.0400  178.8940  145.1450 C   0  0  0  0  0  3  0  0  0  0  0  0
  184.4660  178.8760  143.8130 C   0  0  0  0  0  3  0  0  0  0  0  0
  186.5780  177.9140  144.5000 C   0  0  0  0  0  3  0  0  0  0  0  0
  186.1520  177.9310  145.8320 C   0  0  0  0  0  3  0  0  0  0  0  0
  185.7380  178.3850  143.4850 C   0  0  0  0  0  0  0  0  0  0  0  0
  190.0770  177.9650  140.1060 C   0  0  0  0  0  2  0  0  0  0  0  0
  191.0420  176.9030  140.6070 C   0  0  0  0  0  2  0  0  0  0  0  0
  191.6590  177.3280  141.9260 C   0  0  0  0  0  2  0  0  0  0  0  0
  190.7950  176.8540  143.0840 C   0  0  2  0  0  3  0  0  0  0  0  0
  191.4130  177.1250  145.0100 C   0  0  0  0  0  2  0  0  0  0  0  0
  190.5940  177.9790  144.0710 C   0  0  0  0  0  2  0  0  0  0  0  0
  191.5920  176.0710  144.0210 N   0  0  0  0  0  2  0  0  0  0  0  0
  188.6720  177.4140  138.2360 C   0  0  1  0  0  3  0  0  0  0  0  0
  184.9020  175.9010  136.8570 C   0  0  0  0  0  0  0  0  0  0  0  0
  186.2310  177.7600  137.6450 C   0  0  0  0  0  3  0  0  0  0  0  0
  187.3380  176.9070  137.7460 C   0  0  0  0  0  0  0  0  0  0  0  0
  186.0340  175.0740  136.9660 C   0  0  0  0  0  0  0  0  0  0  0  0
  187.2120  175.5970  137.4040 N   0  0  0  0  0  0  0  0  0  0  0  0
  183.5850  175.3810  136.3870 C   0  0  0  0  0  1  0  0  0  0  0  0
  185.0130  177.2490  137.1990 C   0  0  0  0  0  3  0  0  0  0  0  0
  185.9780  173.6750  136.6260 C   0  0  0  0  0  0  0  0  0  0  0  0
  185.9330  172.5510  136.3540 N   0  0  0  0  0  0  0  0  0  0  0  0
  188.8470  178.7940  137.7470 C   0  0  0  0  0  0  0  0  0  0  0  0
  188.9780  179.8750  137.3540 N   0  0  0  0  0  0  0  0  0  0  0  0
  1 12  1  0  0  0  0
  2  1  1  6  0  0  0
  2  4  1  0  0  0  0
  2  3  1  0  0  0  0
  3  5  1  1  0  0  0
  4  3  1  0  0  0  0
  5 11  1  0  0  0  0
  7  6  2  0  0  0  0
  8  7  1  0  0  0  0
  9 10  2  0  0  0  0
 10  6  1  0  0  0  0
 11  8  2  0  0  0  0
 11  9  1  0  0  0  0
 12 13  1  0  0  0  0
 13 14  1  0  0  0  0
 15 14  1  6  0  0  0
 15 18  1  0  0  0  0
 15 17  1  0  0  0  0
 17 16  1  0  0  0  0
 18 16  1  0  0  0  0
 19 29  1  1  0  0  0
 19  1  1  0  0  0  0
 20 23  2  0  0  0  0
 20 26  1  0  0  0  0
 21 22  1  0  0  0  0
 22 19  1  0  0  0  0
 23 24  1  0  0  0  0
 24 22  2  0  0  0  0
 25 20  1  0  0  0  0
 26 21  2  0  0  0  0
 27 23  1  0  0  0  0
 28 27  3  0  0  0  0
 30 29  3  0  0  0  0
M  END
>  <MODEL>
6

>  <REMARK>
 VINA RESULT:      -6.7      2.813      4.008
  Name = 
  11 active torsions:
  status: ('A' for Active; 'I' for Inactive)
    1  A    between atoms: C_1  and  C_11
    2  A    between atoms: C_1  and  N_20
    3  A    between atoms: C_3  and  C_30
    4  A    between atoms: C_8  and  C_30
    5  A    between atoms: C_10  and  C_14
    6  A    between atoms: C_11  and  C_24
    7  A    between atoms: C_12  and  N_20
    8  A    between atoms: C_17  and  C_24
    9  A    between atoms: C_19  and  N_22
   10  A    between atoms: N_20  and  C_30
   11  A    between atoms: N_22  and  C_26
                            x       y       z     vdW  Elec       q    Type
                         _______ _______ _______ _____ _____    ______ ____

>  <TORSDO>
F 11

$$$$
=
 OpenBabel10232408433D

 30 33  0  0  1  0  0  0  0  0999 V2000
  190.1010  176.7240  141.7600 N   0  0  0  0  0  0  0  0  0  0  0  0
  188.9810  177.6630  141.6820 C   0  0  1  0  0  3  0  0  0  0  0  0
  187.9710  177.4070  142.7410 C   0  0  1  0  0  3  0  0  0  0  0  0
  188.9400  178.4130  142.8750 O   0  0  0  0  0  0  0  0  0  0  0  0
  186.7030  178.0400  142.4040 N   0  0  0  0  0  2  0  0  0  0  0  0
  183.6510  178.8610  145.2200 C   0  0  0  0  0  3  0  0  0  0  0  0
  183.3350  178.7900  143.8590 C   0  0  0  0  0  3  0  0  0  0  0  0
  184.3370  178.5180  142.9230 C   0  0  0  0  0  3  0  0  0  0  0  0
  185.9690  178.3870  144.7040 C   0  0  0  0  0  3  0  0  0  0  0  0
  184.9670  178.6600  145.6420 C   0  0  0  0  0  3  0  0  0  0  0  0
  185.6590  178.3140  143.3420 C   0  0  0  0  0  0  0  0  0  0  0  0
  191.0850  177.3990  142.6110 C   0  0  0  0  0  2  0  0  0  0  0  0
  191.4830  176.5050  143.7740 C   0  0  0  0  0  2  0  0  0  0  0  0
  191.4450  177.2830  145.0770 C   0  0  0  0  0  2  0  0  0  0  0  0
  190.5580  176.5710  146.0850 C   0  0  2  0  0  3  0  0  0  0  0  0
  189.6960  177.6110  147.6150 C   0  0  0  0  0  2  0  0  0  0  0  0
  189.2390  177.2940  146.2110 C   0  0  0  0  0  2  0  0  0  0  0  0
  190.9630  176.9140  147.4440 N   0  0  0  0  0  2  0  0  0  0  0  0
  190.6640  176.5380  140.4070 C   0  0  1  0  0  3  0  0  0  0  0  0
  188.0370  177.9220  137.3110 C   0  0  0  0  0  0  0  0  0  0  0  0
  189.7170  178.4070  138.9800 C   0  0  0  0  0  3  0  0  0  0  0  0
  189.7550  177.0470  139.3160 C   0  0  0  0  0  0  0  0  0  0  0  0
  188.1040  176.5640  137.6700 C   0  0  0  0  0  0  0  0  0  0  0  0
  188.9540  176.1680  138.6560 N   0  0  0  0  0  0  0  0  0  0  0  0
  187.1210  178.4130  136.2410 C   0  0  0  0  0  1  0  0  0  0  0  0
  188.8540  178.8390  137.9740 C   0  0  0  0  0  3  0  0  0  0  0  0
  187.2840  175.5730  137.0190 C   0  0  0  0  0  0  0  0  0  0  0  0
  186.6260  174.7780  136.4970 N   0  0  0  0  0  0  0  0  0  0  0  0
  191.9630  177.2230  140.2800 C   0  0  0  0  0  0  0  0  0  0  0  0
  192.9860  177.7580  140.1910 N   0  0  0  0  0  0  0  0  0  0  0  0
  1 12  1  0  0  0  0
  2  1  1  1  0  0  0
  2  3  1  0  0  0  0
  2  4  1  0  0  0  0
  3  5  1  6  0  0  0
  3  4  1  0  0  0  0
  5 11  1  0  0  0  0
  6 10  1  0  0  0  0
  7  6  2  0  0  0  0
  8 11  2  0  0  0  0
  8  7  1  0  0  0  0
  9 10  2  0  0  0  0
 11  9  1  0  0  0  0
 12 13  1  0  0  0  0
 13 14  1  0  0  0  0
 15 14  1  6  0  0  0
 15 17  1  0  0  0  0
 15 18  1  0  0  0  0
 17 16  1  0  0  0  0
 18 16  1  0  0  0  0
 19 29  1  1  0  0  0
 19  1  1  0  0  0  0
 20 23  2  0  0  0  0
 20 26  1  0  0  0  0
 21 22  1  0  0  0  0
 22 19  1  0  0  0  0
 23 24  1  0  0  0  0
 24 22  2  0  0  0  0
 25 20  1  0  0  0  0
 26 21  2  0  0  0  0
 27 23  1  0  0  0  0
 28 27  3  0  0  0  0
 30 29  3  0  0  0  0
M  END
>  <MODEL>
7

>  <REMARK>
 VINA RESULT:      -6.7      2.084      3.332
  Name = 
  11 active torsions:
  status: ('A' for Active; 'I' for Inactive)
    1  A    between atoms: C_1  and  C_11
    2  A    between atoms: C_1  and  N_20
    3  A    between atoms: C_3  and  C_30
    4  A    between atoms: C_8  and  C_30
    5  A    between atoms: C_10  and  C_14
    6  A    between atoms: C_11  and  C_24
    7  A    between atoms: C_12  and  N_20
    8  A    between atoms: C_17  and  C_24
    9  A    between atoms: C_19  and  N_22
   10  A    between atoms: N_20  and  C_30
   11  A    between atoms: N_22  and  C_26
                            x       y       z     vdW  Elec       q    Type
                         _______ _______ _______ _____ _____    ______ ____

>  <TORSDO>
F 11

$$$$
=
 OpenBabel10232408433D

 30 33  0  0  1  0  0  0  0  0999 V2000
  190.6500  176.5050  138.9820 N   0  0  0  0  0  0  0  0  0  0  0  0
  190.2020  177.4980  139.9590 C   0  0  1  0  0  3  0  0  0  0  0  0
  189.6940  176.8620  141.2010 C   0  0  1  0  0  3  0  0  0  0  0  0
  190.9960  177.3780  141.1170 O   0  0  0  0  0  0  0  0  0  0  0  0
  188.8810  177.7990  141.9620 N   0  0  0  0  0  2  0  0  0  0  0  0
  187.9490  177.4050  146.0730 C   0  0  0  0  0  3  0  0  0  0  0  0
  189.2850  177.5220  145.6760 C   0  0  0  0  0  3  0  0  0  0  0  0
  189.6000  177.6540  144.3200 C   0  0  0  0  0  3  0  0  0  0  0  0
  187.2490  177.5530  143.7590 C   0  0  0  0  0  3  0  0  0  0  0  0
  186.9320  177.4210  145.1140 C   0  0  0  0  0  3  0  0  0  0  0  0
  188.5840  177.6710  143.3550 C   0  0  0  0  0  0  0  0  0  0  0  0
  192.0940  176.7290  138.8680 C   0  0  0  0  0  2  0  0  0  0  0  0
  192.6170  176.1710  137.5550 C   0  0  0  0  0  2  0  0  0  0  0  0
  193.0260  174.7190  137.7220 C   0  0  0  0  0  2  0  0  0  0  0  0
  194.5140  174.5620  137.4560 C   0  0  2  0  0  3  0  0  0  0  0  0
  195.7210  173.6750  138.8420 C   0  0  0  0  0  2  0  0  0  0  0  0
  194.9280  173.1270  137.6790 C   0  0  0  0  0  2  0  0  0  0  0  0
  195.2850  175.0420  138.5970 N   0  0  0  0  0  2  0  0  0  0  0  0
  190.0040  176.7850  137.6840 C   0  0  1  0  0  3  0  0  0  0  0  0
  186.9820  173.9320  136.6190 C   0  0  0  0  0  0  0  0  0  0  0  0
  189.3170  174.4510  136.9710 C   0  0  0  0  0  3  0  0  0  0  0  0
  188.9580  175.7620  137.3140 C   0  0  0  0  0  0  0  0  0  0  0  0
  186.6570  175.2540  136.9740 C   0  0  0  0  0  0  0  0  0  0  0  0
  187.6480  176.1250  137.3090 N   0  0  0  0  0  0  0  0  0  0  0  0
  185.9380  172.9360  136.2400 C   0  0  0  0  0  1  0  0  0  0  0  0
  188.3210  173.5390  136.6230 C   0  0  0  0  0  3  0  0  0  0  0  0
  185.2920  175.7140  136.9880 C   0  0  0  0  0  0  0  0  0  0  0  0
  184.1960  176.0850  136.9990 N   0  0  0  0  0  0  0  0  0  0  0  0
  189.3650  178.1130  137.6910 C   0  0  0  0  0  0  0  0  0  0  0  0
  188.8710  179.1600  137.7040 N   0  0  0  0  0  0  0  0  0  0  0  0
  2  1  1  6  0  0  0
  2  4  1  0  0  0  0
  2  3  1  0  0  0  0
  3  5  1  1  0  0  0
  4  3  1  0  0  0  0
  5 11  1  0  0  0  0
  7  6  1  0  0  0  0
  8  7  2  0  0  0  0
  9 10  1  0  0  0  0
 10  6  2  0  0  0  0
 11  9  2  0  0  0  0
 11  8  1  0  0  0  0
 12  1  1  0  0  0  0
 13 14  1  0  0  0  0
 13 12  1  0  0  0  0
 15 17  1  0  0  0  0
 15 14  1  1  0  0  0
 15 18  1  0  0  0  0
 17 16  1  0  0  0  0
 18 16  1  0  0  0  0
 19 29  1  1  0  0  0
 19  1  1  0  0  0  0
 20 26  2  0  0  0  0
 20 23  1  0  0  0  0
 21 22  2  0  0  0  0
 22 19  1  0  0  0  0
 23 27  1  0  0  0  0
 23 24  2  0  0  0  0
 24 22  1  0  0  0  0
 25 20  1  0  0  0  0
 26 21  1  0  0  0  0
 27 28  3  0  0  0  0
 29 30  3  0  0  0  0
M  END
>  <MODEL>
8

>  <REMARK>
 VINA RESULT:      -6.5      2.334      5.395
  Name = 
  11 active torsions:
  status: ('A' for Active; 'I' for Inactive)
    1  A    between atoms: C_1  and  C_11
    2  A    between atoms: C_1  and  N_20
    3  A    between atoms: C_3  and  C_30
    4  A    between atoms: C_8  and  C_30
    5  A    between atoms: C_10  and  C_14
    6  A    between atoms: C_11  and  C_24
    7  A    between atoms: C_12  and  N_20
    8  A    between atoms: C_17  and  C_24
    9  A    between atoms: C_19  and  N_22
   10  A    between atoms: N_20  and  C_30
   11  A    between atoms: N_22  and  C_26
                            x       y       z     vdW  Elec       q    Type
                         _______ _______ _______ _____ _____    ______ ____

>  <TORSDO>
F 11

$$$$
=
 OpenBabel10232408433D

 30 33  0  0  1  0  0  0  0  0999 V2000
  189.2450  177.7410  140.5600 N   0  0  0  0  0  0  0  0  0  0  0  0
  188.0710  177.5050  141.4010 C   0  0  1  0  0  3  0  0  0  0  0  0
  188.0590  178.3920  142.5930 C   0  0  1  0  0  3  0  0  0  0  0  0
  187.3070  178.6880  141.4460 O   0  0  0  0  0  0  0  0  0  0  0  0
  187.1540  177.8730  143.6090 N   0  0  0  0  0  2  0  0  0  0  0  0
  188.0100  177.6280  147.7470 C   0  0  0  0  0  3  0  0  0  0  0  0
  188.9940  177.2800  146.8160 C   0  0  0  0  0  3  0  0  0  0  0  0
  188.7200  177.3600  145.4480 C   0  0  0  0  0  3  0  0  0  0  0  0
  186.4810  178.1340  145.9390 C   0  0  0  0  0  3  0  0  0  0  0  0
  186.7540  178.0560  147.3080 C   0  0  0  0  0  3  0  0  0  0  0  0
  187.4610  177.7880  145.0030 C   0  0  0  0  0  0  0  0  0  0  0  0
  188.7480  177.5930  139.1890 C   0  0  0  0  0  2  0  0  0  0  0  0
  188.9980  178.8630  138.3920 C   0  0  0  0  0  2  0  0  0  0  0  0
  189.2690  178.5300  136.9370 C   0  0  0  0  0  2  0  0  0  0  0  0
  188.5670  177.2370  136.5570 C   0  0  2  0  0  3  0  0  0  0  0  0
  187.8680  176.9620  134.6590 C   0  0  0  0  0  2  0  0  0  0  0  0
  189.1950  176.6570  135.3120 C   0  0  0  0  0  2  0  0  0  0  0  0
  187.3080  177.5260  135.8800 N   0  0  0  0  0  2  0  0  0  0  0  0
  190.2500  176.6950  140.8360 C   0  0  1  0  0  3  0  0  0  0  0  0
  192.7790  175.8940  137.4640 C   0  0  0  0  0  0  0  0  0  0  0  0
  192.3020  177.2060  139.4380 C   0  0  0  0  0  3  0  0  0  0  0  0
  191.1590  176.4270  139.6620 C   0  0  0  0  0  0  0  0  0  0  0  0
  191.6260  175.1290  137.7220 C   0  0  0  0  0  0  0  0  0  0  0  0
  190.8550  175.4150  138.8050 N   0  0  0  0  0  0  0  0  0  0  0  0
  193.6590  175.6280  136.2900 C   0  0  0  0  0  1  0  0  0  0  0  0
  193.1090  176.9340  138.3340 C   0  0  0  0  0  3  0  0  0  0  0  0
  191.2370  174.0440  136.8580 C   0  0  0  0  0  0  0  0  0  0  0  0
  190.9240  173.1720  136.1640 N   0  0  0  0  0  0  0  0  0  0  0  0
  191.0880  177.0630  141.9920 C   0  0  0  0  0  0  0  0  0  0  0  0
  191.7440  177.3630  142.8970 N   0  0  0  0  0  0  0  0  0  0  0  0
  1 19  1  0  0  0  0
  2  1  1  6  0  0  0
  2  4  1  0  0  0  0
  2  3  1  0  0  0  0
  3  5  1  1  0  0  0
  4  3  1  0  0  0  0
  5 11  1  0  0  0  0
  7  6  2  0  0  0  0
  8  7  1  0  0  0  0
  9 10  2  0  0  0  0
 10  6  1  0  0  0  0
 11  8  2  0  0  0  0
 11  9  1  0  0  0  0
 12  1  1  0  0  0  0
 13 12  1  0  0  0  0
 14 13  1  0  0  0  0
 15 14  1  6  0  0  0
 16 17  1  0  0  0  0
 16 18  1  0  0  0  0
 17 15  1  0  0  0  0
 18 15  1  0  0  0  0
 19 29  1  1  0  0  0
 20 23  2  0  0  0  0
 20 26  1  0  0  0  0
 21 22  1  0  0  0  0
 22 19  1  0  0  0  0
 23 24  1  0  0  0  0
 24 22  2  0  0  0  0
 25 20  1  0  0  0  0
 26 21  2  0  0  0  0
 27 23  1  0  0  0  0
 28 27  3  0  0  0  0
 29 30  3  0  0  0  0
M  END
>  <MODEL>
9

>  <REMARK>
 VINA RESULT:      -6.5      1.949      5.032
  Name = 
  11 active torsions:
  status: ('A' for Active; 'I' for Inactive)
    1  A    between atoms: C_1  and  C_11
    2  A    between atoms: C_1  and  N_20
    3  A    between atoms: C_3  and  C_30
    4  A    between atoms: C_8  and  C_30
    5  A    between atoms: C_10  and  C_14
    6  A    between atoms: C_11  and  C_24
    7  A    between atoms: C_12  and  N_20
    8  A    between atoms: C_17  and  C_24
    9  A    between atoms: C_19  and  N_22
   10  A    between atoms: N_20  and  C_30
   11  A    between atoms: N_22  and  C_26
                            x       y       z     vdW  Elec       q    Type
                         _______ _______ _______ _____ _____    ______ ____

>  <TORSDO>
F 11

$$$$
