=
 OpenBabel10232412233D

 38 40  0  0  1  0  0  0  0  0999 V2000
  191.4800  175.9430  142.9800 O   0  0  0  0  0  0  0  0  0  0  0  0
  190.6160  176.4960  143.7070 C   0  0  0  0  0  0  0  0  0  0  0  0
  189.2450  176.9070  143.2580 C   0  0  1  0  0  3  0  0  0  0  0  0
  191.8970  176.4690  145.9500 N   0  0  0  0  0  2  0  0  0  0  0  0
  190.7870  176.7990  145.1140 C   0  0  0  0  0  0  0  0  0  0  0  0
  187.4350  177.8600  144.7540 C   0  0  0  0  0  3  0  0  0  0  0  0
  191.9290  176.9390  147.2800 N   0  0  0  0  0  2  0  0  0  0  0  0
  188.6770  177.4200  144.5600 C   0  0  0  0  0  0  0  0  0  0  0  0
  189.6840  177.3050  145.6130 C   0  0  0  0  0  0  0  0  0  0  0  0
  190.5900  176.8060  147.8700 C   0  0  0  0  0  2  0  0  0  0  0  0
  189.5550  177.6220  147.0730 C   0  0  0  0  0  2  0  0  0  0  0  0
  186.4290  177.9070  143.6530 C   0  0  0  0  0  2  0  0  0  0  0  0
  185.0120  179.0950  145.3270 C   0  0  0  0  0  1  0  0  0  0  0  0
  185.0270  178.0450  144.2310 C   0  0  1  0  0  3  0  0  0  0  0  0
  183.9740  178.3790  143.1670 C   0  0  1  0  0  3  0  0  0  0  0  0
  182.9330  179.4010  143.6120 C   0  0  0  0  0  1  0  0  0  0  0  0
  184.5730  178.7140  141.7980 C   0  0  0  0  0  2  0  0  0  0  0  0
  183.5510  178.6970  140.6650 C   0  0  2  0  0  3  0  0  0  0  0  0
  184.0050  177.2100  138.0770 C   0  0  2  0  0  3  0  0  0  0  0  0
  182.7670  176.9900  138.9590 C   0  0  0  0  0  2  0  0  0  0  0  0
  184.9010  178.3710  138.5420 C   0  0  0  0  0  2  0  0  0  0  0  0
  183.0970  177.2500  140.4260 C   0  0  0  0  0  2  0  0  0  0  0  0
  184.1340  179.3670  139.4100 C   0  0  0  0  0  2  0  0  0  0  0  0
  182.2840  177.8110  136.3160 N   0  0  0  0  0  2  0  0  0  0  0  0
  184.4550  177.1610  135.7420 O   0  0  0  0  0  0  0  0  0  0  0  0
  183.6080  177.3840  136.6490 C   0  0  0  0  0  0  0  0  0  0  0  0
  181.8540  177.9820  134.9380 C   0  0  0  0  0  1  0  0  0  0  0  0
  189.3430  177.9990  142.2980 N   0  0  0  0  0  2  0  0  0  0  0  0
  190.8340  176.5730  139.4320 C   0  0  0  0  0  3  0  0  0  0  0  0
  189.0910  177.8350  140.9020 C   0  0  0  0  0  0  0  0  0  0  0  0
  189.9610  177.2050  140.1650 C   0  0  0  0  0  0  0  0  0  0  0  0
  187.8570  178.3830  140.2650 C   0  0  0  0  0  1  0  0  0  0  0  0
  190.4070  175.8330  138.2920 N   0  0  0  0  0  2  0  0  0  0  0  0
  189.1480  176.1440  137.6310 C   0  0  2  0  0  3  0  0  0  0  0  0
  188.6550  174.9110  136.8870 C   0  0  0  0  0  1  0  0  0  0  0  0
  188.0200  178.0580  136.4680 C   0  0  0  0  0  1  0  0  0  0  0  0
  189.8040  176.8270  135.3070 C   0  0  0  0  0  1  0  0  0  0  0  0
  189.3300  177.3160  136.6650 C   0  0  0  0  0  3  0  0  0  0  0  0
  1  2  2  0  0  0  0
  2  5  1  0  0  0  0
  3 28  1  6  0  0  0
  3  2  1  0  0  0  0
  3  8  1  0  0  0  0
  4  7  1  0  0  0  0
  5  9  2  0  0  0  0
  5  4  1  0  0  0  0
  7 10  1  0  0  0  0
  8  6  2  0  0  0  0
  8  9  1  0  0  0  0
  9 11  1  0  0  0  0
 11 10  1  0  0  0  0
 12 14  1  0  0  0  0
 12  6  1  0  0  0  0
 14 13  1  1  0  0  0
 15 16  1  1  0  0  0
 15 14  1  0  0  0  0
 17 15  1  0  0  0  0
 18 17  1  1  0  0  0
 19 26  1  6  0  0  0
 19 21  1  0  0  0  0
 19 20  1  0  0  0  0
 20 22  1  0  0  0  0
 21 23  1  0  0  0  0
 22 18  1  0  0  0  0
 23 18  1  0  0  0  0
 24 26  1  0  0  0  0
 25 26  2  0  0  0  0
 27 24  1  0  0  0  0
 29 31  2  0  0  0  0
 30 28  1  0  0  0  0
 31 30  2  0  0  0  0
 32 30  1  0  0  0  0
 33 29  1  0  0  0  0
 34 35  1  6  0  0  0
 34 33  1  0  0  0  0
 36 38  1  0  0  0  0
 37 38  1  0  0  0  0
 38 34  1  0  0  0  0
M  END
>  <MODEL>
1

>  <REMARK>
 VINA RESULT:      -8.4      0.000      0.000
  Name = 
  11 active torsions:
  status: ('A' for Active; 'I' for Inactive)
    1  A    between atoms: C_1  and  C_34
    2  A    between atoms: C_3  and  C_34
    3  A    between atoms: C_3  and  C_37
    4  A    between atoms: C_4  and  N_32
    5  A    between atoms: C_7  and  N_32
    6  A    between atoms: C_7  and  C_38
    7  A    between atoms: C_9  and  N_29
    8  A    between atoms: C_12  and  C_14
    9  A    between atoms: C_13  and  N_29
   10  A    between atoms: C_19  and  C_25
   11  A    between atoms: C_25  and  C_37
                            x       y       z     vdW  Elec       q    Type
                         _______ _______ _______ _____ _____    ______ ____

>  <TORSDO>
F 11

$$$$
=
 OpenBabel10232412233D

 38 40  0  0  1  0  0  0  0  0999 V2000
  188.0480  178.3770  136.8110 O   0  0  0  0  0  0  0  0  0  0  0  0
  188.1100  178.2340  138.0600 C   0  0  0  0  0  0  0  0  0  0  0  0
  189.3600  177.9400  138.8350 C   0  0  1  0  0  3  0  0  0  0  0  0
  185.6470  178.7440  138.6470 N   0  0  0  0  0  0  0  0  0  0  0  0
  186.9860  178.3610  138.9660 C   0  0  0  0  0  0  0  0  0  0  0  0
  189.5280  177.8220  141.3600 C   0  0  0  0  0  2  0  0  0  0  0  0
  184.6580  178.7150  139.6540 N   0  0  0  0  0  2  0  0  0  0  0  0
  188.8160  177.9630  140.2430 C   0  0  0  0  0  0  0  0  0  0  0  0
  187.3800  178.2310  140.2100 C   0  0  0  0  0  0  0  0  0  0  0  0
  185.2240  179.2510  140.9010 C   0  0  0  0  0  2  0  0  0  0  0  0
  186.4330  178.4120  141.3580 C   0  0  0  0  0  2  0  0  0  0  0  0
  191.0040  177.6030  141.3380 C   0  0  0  0  0  2  0  0  0  0  0  0
  191.9530  178.5590  143.4380 C   0  0  0  0  0  1  0  0  0  0  0  0
  191.5070  177.2870  142.7400 C   0  0  1  0  0  3  0  0  0  0  0  0
  190.4660  176.5540  143.5950 C   0  0  1  0  0  3  0  0  0  0  0  0
  190.3660  175.0570  143.3180 C   0  0  0  0  0  1  0  0  0  0  0  0
  190.5730  176.8660  145.0900 C   0  0  0  0  0  2  0  0  0  0  0  0
  189.6010  177.9440  145.5590 C   0  0  2  0  0  3  0  0  0  0  0  0
  186.6790  177.3960  146.0800 C   0  0  2  0  0  3  0  0  0  0  0  0
  187.6080  178.0280  147.1270 C   0  0  0  0  0  2  0  0  0  0  0  0
  187.3260  177.2280  144.6950 C   0  0  0  0  0  2  0  0  0  0  0  0
  189.0430  177.5470  146.9340 C   0  0  0  0  0  2  0  0  0  0  0  0
  188.5090  178.1760  144.5020 C   0  0  0  0  0  2  0  0  0  0  0  0
  184.8580  178.4940  144.6990 N   0  0  0  0  0  2  0  0  0  0  0  0
  184.8060  178.5090  147.0360 O   0  0  0  0  0  0  0  0  0  0  0  0
  185.4030  178.1640  145.9800 C   0  0  0  0  0  0  0  0  0  0  0  0
  183.6240  179.2480  144.5580 C   0  0  0  0  0  1  0  0  0  0  0  0
  189.8410  176.6020  138.5130 N   0  0  0  0  0  2  0  0  0  0  0  0
  193.3630  176.3630  138.4570 C   0  0  0  0  0  3  0  0  0  0  0  0
  190.9050  176.3560  137.5920 C   0  0  0  0  0  0  0  0  0  0  0  0
  192.1350  176.3600  138.0220 C   0  0  0  0  0  0  0  0  0  0  0  0
  190.6390  176.1110  136.1440 C   0  0  0  0  0  1  0  0  0  0  0  0
  194.3440  175.5400  137.8320 N   0  0  0  0  0  2  0  0  0  0  0  0
  194.2340  174.0890  137.8710 C   0  0  2  0  0  3  0  0  0  0  0  0
  195.4490  173.5140  138.5850 C   0  0  0  0  0  1  0  0  0  0  0  0
  194.3910  174.6090  135.4230 C   0  0  0  0  0  1  0  0  0  0  0  0
  192.7430  172.9570  136.2000 C   0  0  0  0  0  1  0  0  0  0  0  0
  194.1290  173.5240  136.4530 C   0  0  0  0  0  3  0  0  0  0  0  0
  1  2  2  0  0  0  0
  2  3  1  0  0  0  0
  2  5  1  0  0  0  0
  3 28  1  6  0  0  0
  3  8  1  0  0  0  0
  4  5  2  0  0  0  0
  4  7  1  0  0  0  0
  5  9  1  0  0  0  0
  7 10  1  0  0  0  0
  8  6  1  0  0  0  0
  9  8  2  0  0  0  0
  9 11  1  0  0  0  0
 10 11  1  0  0  0  0
 12  6  1  0  0  0  0
 12 14  1  0  0  0  0
 14 13  1  1  0  0  0
 14 15  1  0  0  0  0
 15 16  1  1  0  0  0
 15 17  1  0  0  0  0
 18 17  1  6  0  0  0
 18 22  1  0  0  0  0
 19 26  1  6  0  0  0
 19 20  1  0  0  0  0
 21 19  1  0  0  0  0
 22 20  1  0  0  0  0
 23 21  1  0  0  0  0
 23 18  1  0  0  0  0
 24 26  1  0  0  0  0
 26 25  2  0  0  0  0
 27 24  1  0  0  0  0
 30 31  2  0  0  0  0
 30 28  1  0  0  0  0
 31 29  2  0  0  0  0
 32 30  1  0  0  0  0
 33 34  1  0  0  0  0
 33 29  1  0  0  0  0
 34 35  1  6  0  0  0
 36 38  1  0  0  0  0
 37 38  1  0  0  0  0
 38 34  1  0  0  0  0
M  END
>  <MODEL>
2

>  <REMARK>
 VINA RESULT:      -8.4      3.120      7.172
  Name = 
  11 active torsions:
  status: ('A' for Active; 'I' for Inactive)
    1  A    between atoms: C_1  and  C_34
    2  A    between atoms: C_3  and  C_34
    3  A    between atoms: C_3  and  C_37
    4  A    between atoms: C_4  and  N_32
    5  A    between atoms: C_7  and  N_32
    6  A    between atoms: C_7  and  C_38
    7  A    between atoms: C_9  and  N_29
    8  A    between atoms: C_12  and  C_14
    9  A    between atoms: C_13  and  N_29
   10  A    between atoms: C_19  and  C_25
   11  A    between atoms: C_25  and  C_37
                            x       y       z     vdW  Elec       q    Type
                         _______ _______ _______ _____ _____    ______ ____

>  <TORSDO>
F 11

$$$$
=
 OpenBabel10232412233D

 38 40  0  0  1  0  0  0  0  0999 V2000
  190.7890  176.1450  142.5900 O   0  0  0  0  0  0  0  0  0  0  0  0
  190.1100  176.5580  143.5650 C   0  0  0  0  0  0  0  0  0  0  0  0
  188.6710  176.9780  143.4990 C   0  0  1  0  0  3  0  0  0  0  0  0
  191.8670  176.2660  145.4350 N   0  0  0  0  0  0  0  0  0  0  0  0
  190.5950  176.6690  144.9260 C   0  0  0  0  0  0  0  0  0  0  0  0
  187.2450  177.6460  145.4850 C   0  0  0  0  0  2  0  0  0  0  0  0
  192.2000  176.5470  146.7780 N   0  0  0  0  0  2  0  0  0  0  0  0
  188.4120  177.2830  144.9550 C   0  0  0  0  0  0  0  0  0  0  0  0
  189.6320  177.0590  145.7280 C   0  0  0  0  0  0  0  0  0  0  0  0
  191.0300  176.2840  147.6280 C   0  0  0  0  0  2  0  0  0  0  0  0
  189.8380  177.1650  147.2090 C   0  0  0  0  0  2  0  0  0  0  0  0
  186.0150  177.8080  144.6560 C   0  0  0  0  0  2  0  0  0  0  0  0
  185.2970  178.6430  146.8950 C   0  0  0  0  0  1  0  0  0  0  0  0
  184.8220  178.1290  145.5470 C   0  0  1  0  0  3  0  0  0  0  0  0
  183.8560  179.1350  144.9100 C   0  0  1  0  0  3  0  0  0  0  0  0
  184.5400  180.2800  144.1700 C   0  0  0  0  0  1  0  0  0  0  0  0
  182.7500  178.4800  144.0790 C   0  0  0  0  0  2  0  0  0  0  0  0
  182.3630  179.2810  142.8390 C   0  0  2  0  0  3  0  0  0  0  0  0
  180.7320  178.1130  140.5840 C   0  0  2  0  0  3  0  0  0  0  0  0
  180.3330  179.3990  141.3220 C   0  0  0  0  0  2  0  0  0  0  0  0
  182.1160  177.5720  140.9800 C   0  0  0  0  0  2  0  0  0  0  0  0
  180.8320  179.3710  142.7630 C   0  0  0  0  0  2  0  0  0  0  0  0
  183.0000  178.6630  141.5830 C   0  0  0  0  0  2  0  0  0  0  0  0
  180.8500  179.5990  138.5340 N   0  0  0  0  0  2  0  0  0  0  0  0
  180.3860  177.3140  138.3690 O   0  0  0  0  0  0  0  0  0  0  0  0
  180.6400  178.3060  139.1060 C   0  0  0  0  0  0  0  0  0  0  0  0
  180.7600  179.8320  137.1020 C   0  0  0  0  0  1  0  0  0  0  0  0
  188.5440  178.1960  142.7090 N   0  0  0  0  0  2  0  0  0  0  0  0
  189.2370  177.3220  139.3590 C   0  0  0  0  0  3  0  0  0  0  0  0
  187.9280  178.2290  141.4210 C   0  0  0  0  0  0  0  0  0  0  0  0
  188.5810  177.7770  140.3890 C   0  0  0  0  0  0  0  0  0  0  0  0
  186.5550  178.7850  141.2300 C   0  0  0  0  0  1  0  0  0  0  0  0
  188.5360  176.7370  138.2660 N   0  0  0  0  0  2  0  0  0  0  0  0
  188.4230  177.4360  136.9940 C   0  0  2  0  0  3  0  0  0  0  0  0
  188.9940  178.8390  137.1410 C   0  0  0  0  0  1  0  0  0  0  0  0
  186.1200  178.2450  137.5670 C   0  0  0  0  0  1  0  0  0  0  0  0
  186.3850  176.0990  136.3960 C   0  0  0  0  0  1  0  0  0  0  0  0
  186.9610  177.4970  136.5480 C   0  0  0  0  0  3  0  0  0  0  0  0
  1  2  2  0  0  0  0
  2  5  1  0  0  0  0
  3 28  1  6  0  0  0
  3  2  1  0  0  0  0
  3  8  1  0  0  0  0
  4  7  1  0  0  0  0
  5  4  2  0  0  0  0
  5  9  1  0  0  0  0
  7 10  1  0  0  0  0
  8  6  1  0  0  0  0
  8  9  2  0  0  0  0
  9 11  1  0  0  0  0
 11 10  1  0  0  0  0
 12  6  1  0  0  0  0
 12 14  1  0  0  0  0
 14 13  1  1  0  0  0
 15 16  1  6  0  0  0
 15 14  1  0  0  0  0
 17 15  1  0  0  0  0
 18 17  1  1  0  0  0
 19 26  1  6  0  0  0
 19 21  1  0  0  0  0
 19 20  1  0  0  0  0
 20 22  1  0  0  0  0
 21 23  1  0  0  0  0
 22 18  1  0  0  0  0
 23 18  1  0  0  0  0
 24 26  1  0  0  0  0
 25 26  2  0  0  0  0
 27 24  1  0  0  0  0
 29 31  2  0  0  0  0
 30 28  1  0  0  0  0
 31 30  2  0  0  0  0
 32 30  1  0  0  0  0
 33 29  1  0  0  0  0
 34 35  1  1  0  0  0
 34 33  1  0  0  0  0
 37 38  1  0  0  0  0
 38 34  1  0  0  0  0
 38 36  1  0  0  0  0
M  END
>  <MODEL>
3

>  <REMARK>
 VINA RESULT:      -8.2      1.734      2.401
  Name = 
  11 active torsions:
  status: ('A' for Active; 'I' for Inactive)
    1  A    between atoms: C_1  and  C_34
    2  A    between atoms: C_3  and  C_34
    3  A    between atoms: C_3  and  C_37
    4  A    between atoms: C_4  and  N_32
    5  A    between atoms: C_7  and  N_32
    6  A    between atoms: C_7  and  C_38
    7  A    between atoms: C_9  and  N_29
    8  A    between atoms: C_12  and  C_14
    9  A    between atoms: C_13  and  N_29
   10  A    between atoms: C_19  and  C_25
   11  A    between atoms: C_25  and  C_37
                            x       y       z     vdW  Elec       q    Type
                         _______ _______ _______ _____ _____    ______ ____

>  <TORSDO>
F 11

$$$$
=
 OpenBabel10232412233D

 38 40  0  0  1  0  0  0  0  0999 V2000
  187.6120  175.7890  135.1340 O   0  0  0  0  0  0  0  0  0  0  0  0
  186.5800  175.9820  135.8270 C   0  0  0  0  0  0  0  0  0  0  0  0
  186.4580  176.9910  136.9310 C   0  0  1  0  0  3  0  0  0  0  0  0
  184.9850  174.3300  134.6470 N   0  0  0  0  0  0  0  0  0  0  0  0
  185.3230  175.2830  135.6550 C   0  0  0  0  0  0  0  0  0  0  0  0
  184.3370  177.5100  138.2170 C   0  0  0  0  0  2  0  0  0  0  0  0
  183.7350  173.6750  134.7000 N   0  0  0  0  0  2  0  0  0  0  0  0
  185.0090  176.8020  137.3090 C   0  0  0  0  0  0  0  0  0  0  0  0
  184.4170  175.7570  136.4780 C   0  0  0  0  0  0  0  0  0  0  0  0
  182.6970  174.6490  135.0690 C   0  0  0  0  0  2  0  0  0  0  0  0
  182.9970  175.2750  136.4440 C   0  0  0  0  0  2  0  0  0  0  0  0
  184.9780  178.6050  139.0010 C   0  0  0  0  0  2  0  0  0  0  0  0
  182.6680  179.5140  138.7580 C   0  0  0  0  0  1  0  0  0  0  0  0
  183.9110  179.4920  139.6290 C   0  0  1  0  0  3  0  0  0  0  0  0
  183.5470  179.0680  141.0570 C   0  0  1  0  0  3  0  0  0  0  0  0
  182.0760  178.7120  141.2500 C   0  0  0  0  0  1  0  0  0  0  0  0
  184.4860  178.0080  141.6380 C   0  0  0  0  0  2  0  0  0  0  0  0
  185.5580  178.5830  142.5590 C   0  0  2  0  0  3  0  0  0  0  0  0
  185.8540  177.7480  145.4440 C   0  0  2  0  0  3  0  0  0  0  0  0
  187.0090  177.6790  144.4340 C   0  0  0  0  0  2  0  0  0  0  0  0
  184.5910  178.4360  144.8990 C   0  0  0  0  0  2  0  0  0  0  0  0
  186.4780  177.4440  143.0230 C   0  0  0  0  0  2  0  0  0  0  0  0
  184.9090  179.3540  143.7200 C   0  0  0  0  0  2  0  0  0  0  0  0
  187.4820  177.9270  147.3790 N   0  0  0  0  0  2  0  0  0  0  0  0
  185.6410  179.3550  147.1850 O   0  0  0  0  0  0  0  0  0  0  0  0
  186.3040  178.3920  146.7140 C   0  0  0  0  0  0  0  0  0  0  0  0
  187.9490  178.5190  148.6220 C   0  0  0  0  0  1  0  0  0  0  0  0
  187.3130  176.6110  138.0490 N   0  0  0  0  0  2  0  0  0  0  0  0
  188.9380  177.6380  141.0100 C   0  0  0  0  0  3  0  0  0  0  0  0
  188.4400  177.3830  138.4650 C   0  0  0  0  0  0  0  0  0  0  0  0
  188.6910  177.5130  139.7370 C   0  0  0  0  0  0  0  0  0  0  0  0
  189.3290  178.0580  137.4740 C   0  0  0  0  0  1  0  0  0  0  0  0
  190.2790  177.7940  141.4650 N   0  0  0  0  0  2  0  0  0  0  0  0
  190.7380  177.1240  142.6740 C   0  0  2  0  0  3  0  0  0  0  0  0
  189.9980  175.8040  142.8260 C   0  0  0  0  0  1  0  0  0  0  0  0
  191.5270  179.1350  143.9480 C   0  0  0  0  0  1  0  0  0  0  0  0
  190.6200  177.2090  145.1800 C   0  0  0  0  0  1  0  0  0  0  0  0
  190.5040  178.0140  143.8960 C   0  0  0  0  0  3  0  0  0  0  0  0
  1  2  2  0  0  0  0
  2  3  1  0  0  0  0
  3  8  1  0  0  0  0
  3 28  1  1  0  0  0
  4  7  1  0  0  0  0
  4  5  2  0  0  0  0
  5  2  1  0  0  0  0
  5  9  1  0  0  0  0
  6 12  1  0  0  0  0
  7 10  1  0  0  0  0
  8  6  1  0  0  0  0
  9  8  2  0  0  0  0
 10 11  1  0  0  0  0
 11  9  1  0  0  0  0
 12 14  1  0  0  0  0
 14 13  1  6  0  0  0
 14 15  1  0  0  0  0
 15 16  1  6  0  0  0
 15 17  1  0  0  0  0
 18 17  1  6  0  0  0
 18 22  1  0  0  0  0
 18 23  1  0  0  0  0
 19 26  1  1  0  0  0
 20 19  1  0  0  0  0
 21 19  1  0  0  0  0
 22 20  1  0  0  0  0
 23 21  1  0  0  0  0
 24 27  1  0  0  0  0
 26 25  2  0  0  0  0
 26 24  1  0  0  0  0
 28 30  1  0  0  0  0
 29 33  1  0  0  0  0
 30 31  2  0  0  0  0
 31 29  2  0  0  0  0
 32 30  1  0  0  0  0
 33 34  1  0  0  0  0
 34 35  1  1  0  0  0
 34 38  1  0  0  0  0
 38 36  1  0  0  0  0
 38 37  1  0  0  0  0
M  END
>  <MODEL>
4

>  <REMARK>
 VINA RESULT:      -7.8      2.483      8.336
  Name = 
  11 active torsions:
  status: ('A' for Active; 'I' for Inactive)
    1  A    between atoms: C_1  and  C_34
    2  A    between atoms: C_3  and  C_34
    3  A    between atoms: C_3  and  C_37
    4  A    between atoms: C_4  and  N_32
    5  A    between atoms: C_7  and  N_32
    6  A    between atoms: C_7  and  C_38
    7  A    between atoms: C_9  and  N_29
    8  A    between atoms: C_12  and  C_14
    9  A    between atoms: C_13  and  N_29
   10  A    between atoms: C_19  and  C_25
   11  A    between atoms: C_25  and  C_37
                            x       y       z     vdW  Elec       q    Type
                         _______ _______ _______ _____ _____    ______ ____

>  <TORSDO>
F 11

$$$$
=
 OpenBabel10232412233D

 38 40  0  0  1  0  0  0  0  0999 V2000
  190.6420  176.3600  144.8380 O   0  0  0  0  0  0  0  0  0  0  0  0
  189.5350  176.9190  145.0530 C   0  0  0  0  0  0  0  0  0  0  0  0
  188.4500  177.1050  144.0350 C   0  0  1  0  0  3  0  0  0  0  0  0
  189.7960  177.3710  147.5830 N   0  0  0  0  0  2  0  0  0  0  0  0
  189.1090  177.4480  146.3330 C   0  0  0  0  0  0  0  0  0  0  0  0
  186.1520  178.0700  144.4990 C   0  0  0  0  0  3  0  0  0  0  0  0
  189.2670  178.0380  148.7090 N   0  0  0  0  0  2  0  0  0  0  0  0
  187.3830  177.7440  144.8920 C   0  0  0  0  0  0  0  0  0  0  0  0
  187.8790  177.9000  146.2580 C   0  0  0  0  0  0  0  0  0  0  0  0
  187.8100  177.8490  148.7390 C   0  0  0  0  0  2  0  0  0  0  0  0
  187.1570  178.4180  147.4650 C   0  0  0  0  0  2  0  0  0  0  0  0
  185.6790  177.8390  143.1030 C   0  0  0  0  0  2  0  0  0  0  0  0
  183.7570  178.9980  144.1930 C   0  0  0  0  0  1  0  0  0  0  0  0
  184.2020  178.1890  142.9870 C   0  0  1  0  0  3  0  0  0  0  0  0
  183.8680  178.9450  141.6940 C   0  0  1  0  0  3  0  0  0  0  0  0
  185.0600  179.1600  140.7680 C   0  0  0  0  0  1  0  0  0  0  0  0
  182.6480  178.3870  140.9570 C   0  0  0  0  0  2  0  0  0  0  0  0
  182.9750  177.8240  139.5770 C   0  0  2  0  0  3  0  0  0  0  0  0
  180.9870  176.2400  137.9480 C   0  0  2  0  0  3  0  0  0  0  0  0
  181.6990  177.4910  137.4090 C   0  0  0  0  0  2  0  0  0  0  0  0
  181.5030  175.7730  139.3190 C   0  0  0  0  0  2  0  0  0  0  0  0
  182.0280  178.4540  138.5460 C   0  0  0  0  0  2  0  0  0  0  0  0
  182.9140  176.2870  139.6000 C   0  0  0  0  0  2  0  0  0  0  0  0
  180.8160  173.7810  137.3590 N   0  0  0  0  0  2  0  0  0  0  0  0
  181.2990  175.4000  135.7440 O   0  0  0  0  0  0  0  0  0  0  0  0
  181.0500  175.1310  136.9500 C   0  0  0  0  0  0  0  0  0  0  0  0
  180.8770  172.6710  136.4220 C   0  0  0  0  0  1  0  0  0  0  0  0
  188.8870  178.0440  143.0090 N   0  0  0  0  0  2  0  0  0  0  0  0
  187.9050  178.2540  139.6240 C   0  0  0  0  0  3  0  0  0  0  0  0
  189.3300  177.6340  141.7150 C   0  0  0  0  0  0  0  0  0  0  0  0
  188.6190  177.9420  140.6680 C   0  0  0  0  0  0  0  0  0  0  0  0
  190.5850  176.8450  141.5380 C   0  0  0  0  0  1  0  0  0  0  0  0
  188.5360  178.4690  138.3650 N   0  0  0  0  0  2  0  0  0  0  0  0
  187.7660  178.4350  137.1300 C   0  0  2  0  0  3  0  0  0  0  0  0
  186.3300  178.0430  137.4470 C   0  0  0  0  0  1  0  0  0  0  0  0
  187.3920  176.3570  135.7770 C   0  0  0  0  0  1  0  0  0  0  0  0
  189.6120  176.7780  136.7470 C   0  0  0  0  0  1  0  0  0  0  0  0
  188.3870  177.4440  136.1440 C   0  0  0  0  0  3  0  0  0  0  0  0
  1  2  2  0  0  0  0
  2  5  1  0  0  0  0
  3 28  1  6  0  0  0
  3  8  1  0  0  0  0
  3  2  1  0  0  0  0
  4  7  1  0  0  0  0
  5  4  1  0  0  0  0
  6  8  2  0  0  0  0
  7 10  1  0  0  0  0
  8  9  1  0  0  0  0
  9  5  2  0  0  0  0
  9 11  1  0  0  0  0
 11 10  1  0  0  0  0
 12  6  1  0  0  0  0
 14 12  1  0  0  0  0
 14 13  1  1  0  0  0
 15 16  1  6  0  0  0
 15 14  1  0  0  0  0
 17 15  1  0  0  0  0
 18 23  1  0  0  0  0
 18 17  1  1  0  0  0
 19 26  1  6  0  0  0
 19 21  1  0  0  0  0
 20 19  1  0  0  0  0
 20 22  1  0  0  0  0
 21 23  1  0  0  0  0
 22 18  1  0  0  0  0
 25 26  2  0  0  0  0
 26 24  1  0  0  0  0
 27 24  1  0  0  0  0
 29 31  2  0  0  0  0
 30 28  1  0  0  0  0
 31 30  2  0  0  0  0
 32 30  1  0  0  0  0
 33 29  1  0  0  0  0
 34 35  1  1  0  0  0
 34 33  1  0  0  0  0
 36 38  1  0  0  0  0
 38 37  1  0  0  0  0
 38 34  1  0  0  0  0
M  END
>  <MODEL>
5

>  <REMARK>
 VINA RESULT:      -7.7      2.014      2.697
  Name = 
  11 active torsions:
  status: ('A' for Active; 'I' for Inactive)
    1  A    between atoms: C_1  and  C_34
    2  A    between atoms: C_3  and  C_34
    3  A    between atoms: C_3  and  C_37
    4  A    between atoms: C_4  and  N_32
    5  A    between atoms: C_7  and  N_32
    6  A    between atoms: C_7  and  C_38
    7  A    between atoms: C_9  and  N_29
    8  A    between atoms: C_12  and  C_14
    9  A    between atoms: C_13  and  N_29
   10  A    between atoms: C_19  and  C_25
   11  A    between atoms: C_25  and  C_37
                            x       y       z     vdW  Elec       q    Type
                         _______ _______ _______ _____ _____    ______ ____

>  <TORSDO>
F 11

$$$$
=
 OpenBabel10232412233D

 38 40  0  0  1  0  0  0  0  0999 V2000
  182.9820  179.8670  143.3940 O   0  0  0  0  0  0  0  0  0  0  0  0
  184.1080  179.3100  143.4600 C   0  0  0  0  0  0  0  0  0  0  0  0
  185.0530  179.1340  142.3080 C   0  0  1  0  0  3  0  0  0  0  0  0
  184.1770  178.8360  145.9980 N   0  0  0  0  0  2  0  0  0  0  0  0
  184.6970  178.7710  144.6690 C   0  0  0  0  0  0  0  0  0  0  0  0
  187.3920  178.1710  142.4620 C   0  0  0  0  0  3  0  0  0  0  0  0
  184.8480  178.1610  147.0400 N   0  0  0  0  0  2  0  0  0  0  0  0
  186.2220  178.4910  143.0140 C   0  0  0  0  0  0  0  0  0  0  0  0
  185.9070  178.3230  144.4310 C   0  0  0  0  0  0  0  0  0  0  0  0
  186.2960  178.3530  146.8830 C   0  0  0  0  0  2  0  0  0  0  0  0
  186.7790  177.7960  145.5310 C   0  0  0  0  0  2  0  0  0  0  0  0
  187.6800  178.4140  141.0190 C   0  0  0  0  0  2  0  0  0  0  0  0
  188.4430  177.2860  138.9290 C   0  0  0  0  0  1  0  0  0  0  0  0
  188.4910  177.2590  140.4460 C   0  0  1  0  0  3  0  0  0  0  0  0
  189.9480  177.2580  140.9270 C   0  0  1  0  0  3  0  0  0  0  0  0
  190.9780  177.1440  139.8090 C   0  0  0  0  0  1  0  0  0  0  0  0
  190.2700  178.3900  141.9060 C   0  0  0  0  0  2  0  0  0  0  0  0
  191.3050  178.0090  142.9590 C   0  0  2  0  0  3  0  0  0  0  0  0
  190.5710  176.6690  145.5630 C   0  0  2  0  0  3  0  0  0  0  0  0
  191.6080  176.0880  144.5900 C   0  0  0  0  0  2  0  0  0  0  0  0
  190.0710  178.0710  145.1750 C   0  0  0  0  0  2  0  0  0  0  0  0
  191.2810  176.4850  143.1530 C   0  0  0  0  0  2  0  0  0  0  0  0
  191.0580  178.7920  144.2590 C   0  0  0  0  0  2  0  0  0  0  0  0
  192.3050  175.9570  147.2690 N   0  0  0  0  0  2  0  0  0  0  0  0
  190.4760  177.2880  147.8580 O   0  0  0  0  0  0  0  0  0  0  0  0
  191.0990  176.6610  146.9590 C   0  0  0  0  0  0  0  0  0  0  0  0
  192.8480  175.9160  148.6160 C   0  0  0  0  0  1  0  0  0  0  0  0
  184.4880  178.2030  141.3390 N   0  0  0  0  0  2  0  0  0  0  0  0
  185.3930  177.9880  137.9330 C   0  0  0  0  0  3  0  0  0  0  0  0
  184.0130  178.6070  140.0550 C   0  0  0  0  0  0  0  0  0  0  0  0
  184.7020  178.2990  138.9930 C   0  0  0  0  0  0  0  0  0  0  0  0
  182.7500  179.3890  139.9040 C   0  0  0  0  0  1  0  0  0  0  0  0
  184.7340  177.7670  136.6900 N   0  0  0  0  0  2  0  0  0  0  0  0
  184.7160  176.4440  136.0820 C   0  0  2  0  0  3  0  0  0  0  0  0
  183.4560  175.7100  136.5180 C   0  0  0  0  0  1  0  0  0  0  0  0
  186.9800  175.6430  135.3600 C   0  0  0  0  0  1  0  0  0  0  0  0
  185.6060  174.2150  136.8170 C   0  0  0  0  0  1  0  0  0  0  0  0
  185.9630  175.6550  136.4870 C   0  0  0  0  0  3  0  0  0  0  0  0
  1  2  2  0  0  0  0
  2  5  1  0  0  0  0
  3 28  1  6  0  0  0
  3  8  1  0  0  0  0
  3  2  1  0  0  0  0
  4  7  1  0  0  0  0
  5  4  1  0  0  0  0
  6  8  2  0  0  0  0
  8  9  1  0  0  0  0
  9  5  2  0  0  0  0
  9 11  1  0  0  0  0
 10  7  1  0  0  0  0
 11 10  1  0  0  0  0
 12  6  1  0  0  0  0
 14 13  1  6  0  0  0
 14 15  1  0  0  0  0
 14 12  1  0  0  0  0
 15 16  1  6  0  0  0
 15 17  1  0  0  0  0
 18 17  1  6  0  0  0
 18 22  1  0  0  0  0
 18 23  1  0  0  0  0
 19 26  1  1  0  0  0
 20 19  1  0  0  0  0
 21 19  1  0  0  0  0
 22 20  1  0  0  0  0
 23 21  1  0  0  0  0
 24 27  1  0  0  0  0
 26 24  1  0  0  0  0
 26 25  2  0  0  0  0
 29 31  2  0  0  0  0
 30 28  1  0  0  0  0
 31 30  2  0  0  0  0
 32 30  1  0  0  0  0
 33 29  1  0  0  0  0
 34 38  1  0  0  0  0
 34 35  1  1  0  0  0
 34 33  1  0  0  0  0
 36 38  1  0  0  0  0
 38 37  1  0  0  0  0
M  END
>  <MODEL>
6

>  <REMARK>
 VINA RESULT:      -7.7      2.724      7.762
  Name = 
  11 active torsions:
  status: ('A' for Active; 'I' for Inactive)
    1  A    between atoms: C_1  and  C_34
    2  A    between atoms: C_3  and  C_34
    3  A    between atoms: C_3  and  C_37
    4  A    between atoms: C_4  and  N_32
    5  A    between atoms: C_7  and  N_32
    6  A    between atoms: C_7  and  C_38
    7  A    between atoms: C_9  and  N_29
    8  A    between atoms: C_12  and  C_14
    9  A    between atoms: C_13  and  N_29
   10  A    between atoms: C_19  and  C_25
   11  A    between atoms: C_25  and  C_37
                            x       y       z     vdW  Elec       q    Type
                         _______ _______ _______ _____ _____    ______ ____

>  <TORSDO>
F 11

$$$$
=
 OpenBabel10232412233D

 38 40  0  0  1  0  0  0  0  0999 V2000
  182.1470  179.3530  143.4240 O   0  0  0  0  0  0  0  0  0  0  0  0
  183.3490  178.9810  143.4210 C   0  0  0  0  0  0  0  0  0  0  0  0
  184.1960  178.8060  142.1960 C   0  0  1  0  0  3  0  0  0  0  0  0
  183.7330  178.8380  145.9710 N   0  0  0  0  0  2  0  0  0  0  0  0
  184.1280  178.6870  144.6070 C   0  0  0  0  0  0  0  0  0  0  0  0
  186.6630  178.2250  142.1880 C   0  0  0  0  0  3  0  0  0  0  0  0
  184.5990  178.4030  146.9980 N   0  0  0  0  0  2  0  0  0  0  0  0
  185.5140  178.4340  142.8310 C   0  0  0  0  0  0  0  0  0  0  0  0
  185.3660  178.3970  144.2840 C   0  0  0  0  0  0  0  0  0  0  0  0
  185.9770  178.7860  146.6590 C   0  0  0  0  0  2  0  0  0  0  0  0
  186.4120  178.1450  145.3280 C   0  0  0  0  0  2  0  0  0  0  0  0
  186.7700  178.3280  140.7040 C   0  0  0  0  0  2  0  0  0  0  0  0
  188.9030  179.4630  141.3260 C   0  0  0  0  0  1  0  0  0  0  0  0
  188.2170  178.5790  140.3000 C   0  0  1  0  0  3  0  0  0  0  0  0
  189.0140  177.2830  140.1050 C   0  0  1  0  0  3  0  0  0  0  0  0
  189.0060  176.7500  138.6760 C   0  0  0  0  0  1  0  0  0  0  0  0
  190.4230  177.3350  140.7010 C   0  0  0  0  0  2  0  0  0  0  0  0
  190.5850  176.4870  141.9590 C   0  0  2  0  0  3  0  0  0  0  0  0
  189.8150  177.4730  144.7060 C   0  0  2  0  0  3  0  0  0  0  0  0
  189.2740  176.1650  144.1080 C   0  0  0  0  0  2  0  0  0  0  0  0
  190.9070  178.1410  143.8550 C   0  0  0  0  0  2  0  0  0  0  0  0
  189.2020  176.2580  142.5860 C   0  0  0  0  0  2  0  0  0  0  0  0
  191.5890  177.1420  142.9210 C   0  0  0  0  0  2  0  0  0  0  0  0
  191.4930  176.5200  146.3490 N   0  0  0  0  0  2  0  0  0  0  0  0
  189.6240  177.7280  147.0630 O   0  0  0  0  0  0  0  0  0  0  0  0
  190.2900  177.2530  146.1040 C   0  0  0  0  0  0  0  0  0  0  0  0
  191.9850  176.2750  147.6950 C   0  0  0  0  0  1  0  0  0  0  0  0
  183.6980  177.6890  141.4030 N   0  0  0  0  0  2  0  0  0  0  0  0
  182.3720  175.7370  138.7760 C   0  0  0  0  0  3  0  0  0  0  0  0
  183.3060  177.8180  140.0350 C   0  0  0  0  0  0  0  0  0  0  0  0
  182.8400  176.7790  139.4030 C   0  0  0  0  0  0  0  0  0  0  0  0
  183.4340  179.1160  139.3090 C   0  0  0  0  0  1  0  0  0  0  0  0
  181.4150  175.9010  137.7340 N   0  0  0  0  0  2  0  0  0  0  0  0
  181.8330  175.9520  136.3400 C   0  0  2  0  0  3  0  0  0  0  0  0
  182.8070  174.8160  136.0670 C   0  0  0  0  0  1  0  0  0  0  0  0
  181.4780  178.4300  136.1820 C   0  0  0  0  0  1  0  0  0  0  0  0
  183.0130  177.3310  134.6060 C   0  0  0  0  0  1  0  0  0  0  0  0
  182.4830  177.3020  136.0300 C   0  0  0  0  0  3  0  0  0  0  0  0
  2  1  2  0  0  0  0
  2  5  1  0  0  0  0
  3 28  1  6  0  0  0
  3  8  1  0  0  0  0
  3  2  1  0  0  0  0
  4  7  1  0  0  0  0
  5  4  1  0  0  0  0
  6  8  2  0  0  0  0
  8  9  1  0  0  0  0
  9  5  2  0  0  0  0
  9 11  1  0  0  0  0
 10  7  1  0  0  0  0
 11 10  1  0  0  0  0
 12  6  1  0  0  0  0
 14 12  1  0  0  0  0
 14 13  1  1  0  0  0
 15 16  1  6  0  0  0
 15 14  1  0  0  0  0
 15 17  1  0  0  0  0
 18 17  1  6  0  0  0
 18 22  1  0  0  0  0
 18 23  1  0  0  0  0
 19 26  1  1  0  0  0
 20 19  1  0  0  0  0
 21 19  1  0  0  0  0
 22 20  1  0  0  0  0
 23 21  1  0  0  0  0
 24 27  1  0  0  0  0
 26 24  1  0  0  0  0
 26 25  2  0  0  0  0
 29 31  2  0  0  0  0
 30 28  1  0  0  0  0
 31 30  2  0  0  0  0
 32 30  1  0  0  0  0
 33 29  1  0  0  0  0
 34 35  1  1  0  0  0
 34 33  1  0  0  0  0
 37 38  1  0  0  0  0
 38 36  1  0  0  0  0
 38 34  1  0  0  0  0
M  END
>  <MODEL>
7

>  <REMARK>
 VINA RESULT:      -7.7      2.669      7.787
  Name = 
  11 active torsions:
  status: ('A' for Active; 'I' for Inactive)
    1  A    between atoms: C_1  and  C_34
    2  A    between atoms: C_3  and  C_34
    3  A    between atoms: C_3  and  C_37
    4  A    between atoms: C_4  and  N_32
    5  A    between atoms: C_7  and  N_32
    6  A    between atoms: C_7  and  C_38
    7  A    between atoms: C_9  and  N_29
    8  A    between atoms: C_12  and  C_14
    9  A    between atoms: C_13  and  N_29
   10  A    between atoms: C_19  and  C_25
   11  A    between atoms: C_25  and  C_37
                            x       y       z     vdW  Elec       q    Type
                         _______ _______ _______ _____ _____    ______ ____

>  <TORSDO>
F 11

$$$$
=
 OpenBabel10232412233D

 38 40  0  0  1  0  0  0  0  0999 V2000
  182.0740  179.2710  143.0940 O   0  0  0  0  0  0  0  0  0  0  0  0
  183.2870  178.9380  143.1170 C   0  0  0  0  0  0  0  0  0  0  0  0
  184.1650  178.7880  141.9100 C   0  0  1  0  0  3  0  0  0  0  0  0
  183.6230  178.8170  145.6750 N   0  0  0  0  0  2  0  0  0  0  0  0
  184.0510  178.6750  144.3200 C   0  0  0  0  0  0  0  0  0  0  0  0
  186.6490  178.2890  141.9550 C   0  0  0  0  0  3  0  0  0  0  0  0
  184.4820  178.4140  146.7210 N   0  0  0  0  0  2  0  0  0  0  0  0
  185.4810  178.4620  142.5730 C   0  0  0  0  0  0  0  0  0  0  0  0
  185.3050  178.4250  144.0230 C   0  0  0  0  0  0  0  0  0  0  0  0
  185.8530  178.8410  146.4090 C   0  0  0  0  0  2  0  0  0  0  0  0
  186.3360  178.2110  145.0890 C   0  0  0  0  0  2  0  0  0  0  0  0
  186.7830  178.3910  140.4730 C   0  0  0  0  0  2  0  0  0  0  0  0
  188.9170  179.5220  141.0980 C   0  0  0  0  0  1  0  0  0  0  0  0
  188.2430  178.6040  140.0930 C   0  0  1  0  0  3  0  0  0  0  0  0
  189.0250  177.2910  139.9710 C   0  0  1  0  0  3  0  0  0  0  0  0
  189.0140  176.6810  138.5730 C   0  0  0  0  0  1  0  0  0  0  0  0
  190.4330  177.3590  140.5680 C   0  0  0  0  0  2  0  0  0  0  0  0
  190.6050  176.5100  141.8240 C   0  0  2  0  0  3  0  0  0  0  0  0
  189.8170  177.4780  144.5720 C   0  0  2  0  0  3  0  0  0  0  0  0
  189.2960  176.1650  143.9700 C   0  0  0  0  0  2  0  0  0  0  0  0
  190.9020  178.1640  143.7240 C   0  0  0  0  0  2  0  0  0  0  0  0
  189.2240  176.2600  142.4490 C   0  0  0  0  0  2  0  0  0  0  0  0
  191.5990  177.1770  142.7890 C   0  0  0  0  0  2  0  0  0  0  0  0
  191.4880  176.5140  146.2170 N   0  0  0  0  0  2  0  0  0  0  0  0
  189.6370  177.7530  146.9290 O   0  0  0  0  0  0  0  0  0  0  0  0
  190.2930  177.2610  145.9700 C   0  0  0  0  0  0  0  0  0  0  0  0
  191.9800  176.2720  147.5630 C   0  0  0  0  0  1  0  0  0  0  0  0
  183.7200  177.6520  141.1110 N   0  0  0  0  0  2  0  0  0  0  0  0
  182.0560  180.1340  139.2300 C   0  0  0  0  0  3  0  0  0  0  0  0
  182.7570  177.7670  140.0620 C   0  0  0  0  0  0  0  0  0  0  0  0
  182.4050  178.9490  139.6450 C   0  0  0  0  0  0  0  0  0  0  0  0
  182.1350  176.5590  139.4440 C   0  0  0  0  0  1  0  0  0  0  0  0
  181.6650  180.3290  137.8740 N   0  0  0  0  0  2  0  0  0  0  0  0
  181.1060  181.6010  137.4360 C   0  0  2  0  0  3  0  0  0  0  0  0
  180.2170  182.1620  138.5360 C   0  0  0  0  0  1  0  0  0  0  0  0
  180.7330  180.1430  135.4300 C   0  0  0  0  0  1  0  0  0  0  0  0
  180.5290  182.5830  135.2000 C   0  0  0  0  0  1  0  0  0  0  0  0
  180.3080  181.4140  136.1440 C   0  0  0  0  0  3  0  0  0  0  0  0
  1  2  2  0  0  0  0
  2  5  1  0  0  0  0
  3 28  1  6  0  0  0
  3  8  1  0  0  0  0
  3  2  1  0  0  0  0
  4  7  1  0  0  0  0
  5  4  1  0  0  0  0
  6  8  2  0  0  0  0
  8  9  1  0  0  0  0
  9  5  2  0  0  0  0
  9 11  1  0  0  0  0
 10  7  1  0  0  0  0
 11 10  1  0  0  0  0
 12  6  1  0  0  0  0
 14 12  1  0  0  0  0
 14 13  1  1  0  0  0
 15 16  1  6  0  0  0
 15 14  1  0  0  0  0
 15 17  1  0  0  0  0
 18 17  1  6  0  0  0
 18 22  1  0  0  0  0
 18 23  1  0  0  0  0
 19 26  1  1  0  0  0
 20 19  1  0  0  0  0
 21 19  1  0  0  0  0
 22 20  1  0  0  0  0
 23 21  1  0  0  0  0
 24 27  1  0  0  0  0
 26 24  1  0  0  0  0
 26 25  2  0  0  0  0
 29 31  2  0  0  0  0
 30 28  1  0  0  0  0
 31 30  2  0  0  0  0
 32 30  1  0  0  0  0
 33 29  1  0  0  0  0
 34 33  1  0  0  0  0
 34 35  1  1  0  0  0
 36 38  1  0  0  0  0
 37 38  1  0  0  0  0
 38 34  1  0  0  0  0
M  END
>  <MODEL>
8

>  <REMARK>
 VINA RESULT:      -7.6      2.976      8.342
  Name = 
  11 active torsions:
  status: ('A' for Active; 'I' for Inactive)
    1  A    between atoms: C_1  and  C_34
    2  A    between atoms: C_3  and  C_34
    3  A    between atoms: C_3  and  C_37
    4  A    between atoms: C_4  and  N_32
    5  A    between atoms: C_7  and  N_32
    6  A    between atoms: C_7  and  C_38
    7  A    between atoms: C_9  and  N_29
    8  A    between atoms: C_12  and  C_14
    9  A    between atoms: C_13  and  N_29
   10  A    between atoms: C_19  and  C_25
   11  A    between atoms: C_25  and  C_37
                            x       y       z     vdW  Elec       q    Type
                         _______ _______ _______ _____ _____    ______ ____

>  <TORSDO>
F 11

$$$$
=
 OpenBabel10232412233D

 38 40  0  0  1  0  0  0  0  0999 V2000
  190.5630  176.2360  143.6780 O   0  0  0  0  0  0  0  0  0  0  0  0
  189.5000  176.7790  144.0760 C   0  0  0  0  0  0  0  0  0  0  0  0
  188.3190  177.1010  143.2100 C   0  0  1  0  0  3  0  0  0  0  0  0
  190.0380  176.9200  146.5980 N   0  0  0  0  0  2  0  0  0  0  0  0
  189.2250  177.1560  145.4480 C   0  0  0  0  0  0  0  0  0  0  0  0
  186.1090  178.0330  144.0290 C   0  0  0  0  0  3  0  0  0  0  0  0
  189.6480  177.4530  147.8460 N   0  0  0  0  0  2  0  0  0  0  0  0
  187.3650  177.6460  144.2460 C   0  0  0  0  0  0  0  0  0  0  0  0
  188.0060  177.6300  145.5590 C   0  0  0  0  0  0  0  0  0  0  0  0
  188.1970  177.2820  148.0100 C   0  0  0  0  0  2  0  0  0  0  0  0
  187.4290  178.0080  146.8900 C   0  0  0  0  0  2  0  0  0  0  0  0
  185.4860  177.9790  142.6750 C   0  0  0  0  0  2  0  0  0  0  0  0
  183.7290  179.2040  143.9550 C   0  0  0  0  0  1  0  0  0  0  0  0
  183.9980  178.2920  142.7700 C   0  0  1  0  0  3  0  0  0  0  0  0
  183.4370  178.9170  141.4870 C   0  0  1  0  0  3  0  0  0  0  0  0
  184.4670  179.1010  140.3770 C   0  0  0  0  0  1  0  0  0  0  0  0
  182.1560  178.2450  140.9890 C   0  0  0  0  0  2  0  0  0  0  0  0
  182.2810  177.6530  139.5890 C   0  0  2  0  0  3  0  0  0  0  0  0
  180.2160  175.7930  138.4100 C   0  0  2  0  0  3  0  0  0  0  0  0
  180.6710  177.0840  137.7120 C   0  0  0  0  0  2  0  0  0  0  0  0
  181.0270  175.4490  139.6710 C   0  0  0  0  0  2  0  0  0  0  0  0
  181.0950  178.1300  138.7380 C   0  0  0  0  0  2  0  0  0  0  0  0
  182.3990  176.1210  139.6640 C   0  0  0  0  0  2  0  0  0  0  0  0
  180.4860  174.8730  136.0630 N   0  0  0  0  0  2  0  0  0  0  0  0
  179.9870  173.4860  137.8770 O   0  0  0  0  0  0  0  0  0  0  0  0
  180.2170  174.6500  137.4500 C   0  0  0  0  0  0  0  0  0  0  0  0
  180.4860  173.7900  135.0940 C   0  0  0  0  0  1  0  0  0  0  0  0
  188.6690  178.1510  142.2610 N   0  0  0  0  0  2  0  0  0  0  0  0
  190.9850  176.6850  140.0350 C   0  0  0  0  0  3  0  0  0  0  0  0
  188.8410  177.9130  140.8640 C   0  0  0  0  0  0  0  0  0  0  0  0
  189.9130  177.3000  140.4470 C   0  0  0  0  0  0  0  0  0  0  0  0
  187.8260  178.3650  139.8670 C   0  0  0  0  0  1  0  0  0  0  0  0
  190.9380  175.8740  138.8650 N   0  0  0  0  0  2  0  0  0  0  0  0
  190.9960  176.4750  137.5400 C   0  0  2  0  0  3  0  0  0  0  0  0
  189.6340  176.3460  136.8730 C   0  0  0  0  0  1  0  0  0  0  0  0
  192.0120  174.2870  136.8570 C   0  0  0  0  0  1  0  0  0  0  0  0
  193.4590  176.2590  137.1110 C   0  0  0  0  0  1  0  0  0  0  0  0
  192.0740  175.7950  136.6940 C   0  0  0  0  0  3  0  0  0  0  0  0
  1  2  2  0  0  0  0
  2  5  1  0  0  0  0
  3 28  1  6  0  0  0
  3  2  1  0  0  0  0
  3  8  1  0  0  0  0
  4  7  1  0  0  0  0
  5  9  2  0  0  0  0
  5  4  1  0  0  0  0
  6  8  2  0  0  0  0
  7 10  1  0  0  0  0
  8  9  1  0  0  0  0
  9 11  1  0  0  0  0
 11 10  1  0  0  0  0
 12 14  1  0  0  0  0
 12  6  1  0  0  0  0
 14 13  1  1  0  0  0
 15 16  1  6  0  0  0
 15 14  1  0  0  0  0
 17 15  1  0  0  0  0
 18 23  1  0  0  0  0
 18 17  1  1  0  0  0
 19 26  1  6  0  0  0
 19 21  1  0  0  0  0
 20 19  1  0  0  0  0
 20 22  1  0  0  0  0
 22 18  1  0  0  0  0
 23 21  1  0  0  0  0
 24 26  1  0  0  0  0
 26 25  2  0  0  0  0
 27 24  1  0  0  0  0
 29 31  2  0  0  0  0
 30 28  1  0  0  0  0
 31 30  2  0  0  0  0
 32 30  1  0  0  0  0
 33 29  1  0  0  0  0
 34 35  1  6  0  0  0
 34 33  1  0  0  0  0
 38 36  1  0  0  0  0
 38 37  1  0  0  0  0
 38 34  1  0  0  0  0
M  END
>  <MODEL>
9

>  <REMARK>
 VINA RESULT:      -7.5      2.163      2.775
  Name = 
  11 active torsions:
  status: ('A' for Active; 'I' for Inactive)
    1  A    between atoms: C_1  and  C_34
    2  A    between atoms: C_3  and  C_34
    3  A    between atoms: C_3  and  C_37
    4  A    between atoms: C_4  and  N_32
    5  A    between atoms: C_7  and  N_32
    6  A    between atoms: C_7  and  C_38
    7  A    between atoms: C_9  and  N_29
    8  A    between atoms: C_12  and  C_14
    9  A    between atoms: C_13  and  N_29
   10  A    between atoms: C_19  and  C_25
   11  A    between atoms: C_25  and  C_37
                            x       y       z     vdW  Elec       q    Type
                         _______ _______ _______ _____ _____    ______ ____

>  <TORSDO>
F 11

$$$$
