=
 OpenBabel10232411233D

 37 41  0  0  1  0  0  0  0  0999 V2000
  180.9120  178.5410  142.4930 C   0  0  0  0  0  0  0  0  0  0  0  0
  186.1660  178.3330  145.2650 C   0  0  0  0  0  0  0  0  0  0  0  0
  185.6830  178.3560  146.6660 C   0  0  0  0  0  3  0  0  0  0  0  0
  185.2250  178.0600  142.1210 C   0  0  0  0  0  2  0  0  0  0  0  0
  180.5440  176.5140  140.9940 C   0  0  0  0  0  2  0  0  0  0  0  0
  184.4440  178.7630  146.7410 N   0  0  0  0  0  0  0  0  0  0  0  0
  180.3940  179.3930  143.2650 O   0  0  0  0  0  0  0  0  0  0  0  0
  180.4710  176.9130  139.5270 C   0  0  1  0  0  3  0  0  0  0  0  0
  182.8920  178.8940  144.8110 C   0  0  0  0  0  3  0  0  0  0  0  0
  181.8020  177.4550  138.9770 C   0  0  2  0  0  0  0  0  0  0  0  0
  183.2040  178.6570  143.3790 C   0  0  0  0  0  0  0  0  0  0  0  0
  184.3510  177.6830  140.9470 C   0  0  0  0  0  2  0  0  0  0  0  0
  185.1760  178.8000  144.5320 C   0  0  0  0  0  0  0  0  0  0  0  0
  184.6420  178.5090  143.2250 C   0  0  0  0  0  0  0  0  0  0  0  0
  182.7570  176.4490  138.9790 F   0  0  0  0  0  0  0  0  0  0  0  0
  179.9850  175.7220  138.7170 C   0  0  0  0  0  1  0  0  0  0  0  0
  184.0820  179.0400  145.3980 C   0  0  0  0  0  0  0  0  0  0  0  0
  182.3820  178.4900  142.3360 C   0  0  2  0  0  3  0  0  0  0  0  0
  182.2780  178.6610  139.8240 C   0  0  1  0  0  3  0  0  0  0  0  0
  181.5930  177.8560  137.6530 O   0  0  0  0  0  1  0  0  0  0  0  0
  180.0580  177.6060  141.8270 N   0  0  0  0  0  2  0  0  0  0  0  0
  182.9900  178.2580  141.0430 N   0  0  1  0  0  0  0  0  0  0  0  0
  182.3720  180.1130  137.8770 O   0  0  0  0  0  0  0  0  0  0  0  0
  183.0350  179.7600  139.0670 C   0  0  1  0  0  0  0  0  0  0  0  0
  182.3490  181.0650  138.9150 C   0  0  0  0  0  2  0  0  0  0  0  0
  184.5470  179.6610  138.8430 C   0  0  0  0  0  2  0  0  0  0  0  0
  184.9450  178.5130  137.9200 C   0  0  0  0  0  2  0  0  0  0  0  0
  186.2160  178.7330  137.3870 O   0  0  0  0  0  0  0  0  0  0  0  0
  187.0280  177.7710  137.9830 C   0  0  0  0  0  2  0  0  0  0  0  0
  187.8840  178.4090  138.9780 N   0  0  0  0  0  2  0  0  0  0  0  0
  190.1240  177.6900  138.8490 O   0  0  0  0  0  1  0  0  0  0  0  0
  188.8910  177.4640  139.4670 C   0  0  1  0  0  3  0  0  0  0  0  0
  189.0380  177.5150  140.9850 C   0  0  0  0  0  2  0  0  0  0  0  0
  190.7490  176.1310  141.9740 N   0  0  0  0  0  2  0  0  0  0  0  0
  190.4480  177.2360  141.3990 C   0  0  0  0  0  3  0  0  0  0  0  0
  187.2820  177.5680  144.7780 C   0  0  0  0  0  0  0  0  0  0  0  0
  188.2180  176.9270  144.3730 C   0  0  0  0  0  3  0  0  0  0  0  0
  1  7  2  0  0  0  0
  2  3  1  0  0  0  0
  3  6  2  0  0  0  0
  4 14  1  0  0  0  0
  5 21  1  0  0  0  0
  8 16  1  6  0  0  0
  8  5  1  0  0  0  0
  9 17  2  0  0  0  0
 10 20  1  6  0  0  0
 10 15  1  0  0  0  0
 10  8  1  0  0  0  0
 10 19  1  0  0  0  0
 11  9  1  0  0  0  0
 12  4  1  0  0  0  0
 13  2  2  0  0  0  0
 13 17  1  0  0  0  0
 14 11  2  0  0  0  0
 14 13  1  0  0  0  0
 17  6  1  0  0  0  0
 18  1  1  6  0  0  0
 18 11  1  0  0  0  0
 19 24  1  6  0  0  0
 19 22  1  0  0  0  0
 21  1  1  0  0  0  0
 22 12  1  1  0  0  0
 22 18  1  0  0  0  0
 23 25  1  0  0  0  0
 23 24  1  0  0  0  0
 24 26  1  1  0  0  0
 25 24  1  0  0  0  0
 27 26  1  0  0  0  0
 28 27  1  0  0  0  0
 28 29  1  0  0  0  0
 29 30  1  0  0  0  0
 30 32  1  0  0  0  0
 32 31  1  6  0  0  0
 32 33  1  0  0  0  0
 33 35  1  0  0  0  0
 35 34  2  0  0  0  0
 36  2  1  0  0  0  0
 37 36  3  0  0  0  0
M  END
>  <MODEL>
1

>  <REMARK>
 VINA RESULT:      -6.9      0.000      0.000
  Name = 
  10 active torsions:
  status: ('A' for Active; 'I' for Inactive)
    1  A    between atoms: O_3  and  C_11
    2  A    between atoms: O_3  and  C_22
    3  A    between atoms: N_4  and  C_11
    4  A    between atoms: N_4  and  C_36
    5  A    between atoms: C_5  and  C_7
    6  A    between atoms: C_14  and  C_36
    7  A    between atoms: C_14  and  C_37
    8  A    between atoms: C_22  and  C_29
    9  A    between atoms: C_29  and  C_32
   10  A    between atoms: C_30  and  C_32
                            x       y       z     vdW  Elec       q    Type
                         _______ _______ _______ _____ _____    ______ ____

>  <TORSDO>
F 10

$$$$
=
 OpenBabel10232411233D

 37 41  0  0  1  0  0  0  0  0999 V2000
  188.9400  174.3940  136.8730 C   0  0  0  0  0  0  0  0  0  0  0  0
  194.7760  173.5650  136.1020 C   0  0  0  0  0  0  0  0  0  0  0  0
  194.7210  172.3300  135.2830 C   0  0  0  0  0  3  0  0  0  0  0  0
  192.9600  175.9820  137.4100 C   0  0  0  0  0  2  0  0  0  0  0  0
  188.1650  176.6370  135.9450 C   0  0  0  0  0  2  0  0  0  0  0  0
  193.5550  171.7480  135.3690 N   0  0  0  0  0  0  0  0  0  0  0  0
  188.6640  173.1810  137.0720 O   0  0  0  0  0  0  0  0  0  0  0  0
  187.6650  177.5540  137.0530 C   0  0  1  0  0  3  0  0  0  0  0  0
  191.5070  172.8320  136.2520 C   0  0  0  0  0  3  0  0  0  0  0  0
  188.7740  177.9980  138.0230 C   0  0  2  0  0  0  0  0  0  0  0  0
  191.3900  174.1710  136.8810 C   0  0  0  0  0  0  0  0  0  0  0  0
  191.7850  176.9160  137.5830 C   0  0  0  0  0  2  0  0  0  0  0  0
  193.6110  173.6460  136.7130 C   0  0  0  0  0  0  0  0  0  0  0  0
  192.7220  174.7170  137.0870 C   0  0  0  0  0  0  0  0  0  0  0  0
  189.6950  178.7900  137.3540 F   0  0  0  0  0  0  0  0  0  0  0  0
  186.9720  178.7520  136.4240 C   0  0  0  0  0  1  0  0  0  0  0  0
  192.8160  172.5670  136.2590 C   0  0  0  0  0  0  0  0  0  0  0  0
  190.3010  174.8960  137.1650 C   0  0  2  0  0  3  0  0  0  0  0  0
  189.4680  176.7590  138.6420 C   0  0  1  0  0  3  0  0  0  0  0  0
  188.1850  178.7680  139.0310 O   0  0  0  0  0  1  0  0  0  0  0  0
  187.9360  175.2470  136.3160 N   0  0  0  0  0  2  0  0  0  0  0  0
  190.5070  176.1930  137.7740 N   0  0  1  0  0  0  0  0  0  0  0  0
  191.0130  176.0200  140.3670 O   0  0  0  0  0  0  0  0  0  0  0  0
  189.9650  176.9160  140.0850 C   0  0  1  0  0  0  0  0  0  0  0  0
  191.3600  177.3810  140.2680 C   0  0  0  0  0  2  0  0  0  0  0  0
  188.9760  176.9880  141.2530 C   0  0  0  0  0  2  0  0  0  0  0  0
  189.4400  176.2130  142.4830 C   0  0  0  0  0  2  0  0  0  0  0  0
  189.0030  176.8430  143.6500 O   0  0  0  0  0  0  0  0  0  0  0  0
  189.8580  177.9300  143.8150 C   0  0  0  0  0  2  0  0  0  0  0  0
  190.0260  178.2010  145.2390 N   0  0  0  0  0  2  0  0  0  0  0  0
  191.8230  177.0760  146.2640 O   0  0  0  0  0  1  0  0  0  0  0  0
  190.4660  176.9930  145.9400 C   0  0  1  0  0  3  0  0  0  0  0  0
  189.6360  176.7200  147.1920 C   0  0  0  0  0  2  0  0  0  0  0  0
  188.5070  178.3660  148.5480 N   0  0  0  0  0  2  0  0  0  0  0  0
  188.6170  177.7930  147.4070 C   0  0  0  0  0  3  0  0  0  0  0  0
  195.7060  174.6460  135.9230 C   0  0  0  0  0  0  0  0  0  0  0  0
  196.4870  175.5510  135.7700 C   0  0  0  0  0  3  0  0  0  0  0  0
  1  7  2  0  0  0  0
  2 13  1  0  0  0  0
  3  6  1  0  0  0  0
  3  2  2  0  0  0  0
  4 12  1  0  0  0  0
  5 21  1  0  0  0  0
  5  8  1  0  0  0  0
  6 17  2  0  0  0  0
  8 16  1  6  0  0  0
  8 10  1  0  0  0  0
  9 17  1  0  0  0  0
  9 11  2  0  0  0  0
 10 15  1  6  0  0  0
 10 19  1  0  0  0  0
 10 20  1  0  0  0  0
 11 14  1  0  0  0  0
 11 18  1  0  0  0  0
 13 14  2  0  0  0  0
 14  4  1  0  0  0  0
 17 13  1  0  0  0  0
 18  1  1  1  0  0  0
 18 22  1  0  0  0  0
 19 24  1  1  0  0  0
 21  1  1  0  0  0  0
 22 12  1  1  0  0  0
 22 19  1  0  0  0  0
 24 25  1  0  0  0  0
 24 23  1  0  0  0  0
 24 26  1  1  0  0  0
 25 23  1  0  0  0  0
 26 27  1  0  0  0  0
 27 28  1  0  0  0  0
 28 29  1  0  0  0  0
 29 30  1  0  0  0  0
 30 32  1  0  0  0  0
 32 31  1  1  0  0  0
 32 33  1  0  0  0  0
 33 35  1  0  0  0  0
 35 34  2  0  0  0  0
 36  2  1  0  0  0  0
 37 36  3  0  0  0  0
M  END
>  <MODEL>
2

>  <REMARK>
 VINA RESULT:      -5.7      5.469      9.842
  Name = 
  10 active torsions:
  status: ('A' for Active; 'I' for Inactive)
    1  A    between atoms: O_3  and  C_11
    2  A    between atoms: O_3  and  C_22
    3  A    between atoms: N_4  and  C_11
    4  A    between atoms: N_4  and  C_36
    5  A    between atoms: C_5  and  C_7
    6  A    between atoms: C_14  and  C_36
    7  A    between atoms: C_14  and  C_37
    8  A    between atoms: C_22  and  C_29
    9  A    between atoms: C_29  and  C_32
   10  A    between atoms: C_30  and  C_32
                            x       y       z     vdW  Elec       q    Type
                         _______ _______ _______ _____ _____    ______ ____

>  <TORSDO>
F 10

$$$$
=
 OpenBabel10232411233D

 37 41  0  0  1  0  0  0  0  0999 V2000
  189.0770  174.3970  136.9200 C   0  0  0  0  0  0  0  0  0  0  0  0
  194.9390  173.6770  136.2470 C   0  0  0  0  0  0  0  0  0  0  0  0
  194.9230  172.4230  135.4560 C   0  0  0  0  0  3  0  0  0  0  0  0
  193.0550  176.0820  137.4760 C   0  0  0  0  0  2  0  0  0  0  0  0
  188.2680  176.6020  135.9320 C   0  0  0  0  0  2  0  0  0  0  0  0
  193.7680  171.8180  135.5380 N   0  0  0  0  0  0  0  0  0  0  0  0
  188.8240  173.1830  137.1420 O   0  0  0  0  0  0  0  0  0  0  0  0
  187.7330  177.5320  137.0110 C   0  0  1  0  0  3  0  0  0  0  0  0
  191.6850  172.8770  136.3690 C   0  0  0  0  0  3  0  0  0  0  0  0
  188.8190  178.0220  137.9860 C   0  0  2  0  0  0  0  0  0  0  0  0
  191.5310  174.2270  136.9670 C   0  0  0  0  0  0  0  0  0  0  0  0
  191.8580  176.9950  137.6120 C   0  0  0  0  0  2  0  0  0  0  0  0
  193.7650  173.7460  136.8410 C   0  0  0  0  0  0  0  0  0  0  0  0
  192.8480  174.8060  137.1780 C   0  0  0  0  0  0  0  0  0  0  0  0
  189.7320  178.8180  137.3120 F   0  0  0  0  0  0  0  0  0  0  0  0
  187.0240  178.7010  136.3470 C   0  0  0  0  0  1  0  0  0  0  0  0
  192.9990  172.6410  136.3990 C   0  0  0  0  0  0  0  0  0  0  0  0
  190.4230  174.9340  137.2190 C   0  0  2  0  0  3  0  0  0  0  0  0
  189.5300  176.8120  138.6430 C   0  0  1  0  0  3  0  0  0  0  0  0
  188.2000  178.8010  138.9690 O   0  0  0  0  0  1  0  0  0  0  0  0
  188.0630  175.2160  136.3300 N   0  0  0  0  0  2  0  0  0  0  0  0
  190.5930  176.2490  137.8020 N   0  0  1  0  0  0  0  0  0  0  0  0
  190.9550  176.0420  140.4550 O   0  0  0  0  0  0  0  0  0  0  0  0
  190.0030  177.0110  140.0890 C   0  0  1  0  0  0  0  0  0  0  0  0
  191.4300  177.3570  140.2860 C   0  0  0  0  0  2  0  0  0  0  0  0
  188.9960  177.2450  141.2190 C   0  0  0  0  0  2  0  0  0  0  0  0
  189.2610  176.3810  142.4490 C   0  0  0  0  0  2  0  0  0  0  0  0
  189.5270  177.1840  143.5600 O   0  0  0  0  0  0  0  0  0  0  0  0
  188.3880  177.0850  144.3560 C   0  0  0  0  0  2  0  0  0  0  0  0
  188.7770  177.1230  145.7630 N   0  0  0  0  0  2  0  0  0  0  0  0
  188.0410  178.1080  147.7720 O   0  0  0  0  0  1  0  0  0  0  0  0
  187.6260  177.4670  146.6010 C   0  0  1  0  0  3  0  0  0  0  0  0
  186.6090  178.3270  145.8560 C   0  0  0  0  0  2  0  0  0  0  0  0
  184.2600  178.8540  146.0200 N   0  0  0  0  0  2  0  0  0  0  0  0
  185.3030  178.3680  146.5840 C   0  0  0  0  0  3  0  0  0  0  0  0
  195.8490  174.7730  136.0570 C   0  0  0  0  0  0  0  0  0  0  0  0
  196.6140  175.6910  135.8970 C   0  0  0  0  0  3  0  0  0  0  0  0
  1  7  2  0  0  0  0
  2 13  1  0  0  0  0
  3  6  1  0  0  0  0
  3  2  2  0  0  0  0
  4 12  1  0  0  0  0
  5 21  1  0  0  0  0
  5  8  1  0  0  0  0
  6 17  2  0  0  0  0
  8 16  1  6  0  0  0
  8 10  1  0  0  0  0
  9 17  1  0  0  0  0
  9 11  2  0  0  0  0
 10 15  1  6  0  0  0
 10 19  1  0  0  0  0
 10 20  1  0  0  0  0
 11 14  1  0  0  0  0
 11 18  1  0  0  0  0
 13 14  2  0  0  0  0
 14  4  1  0  0  0  0
 17 13  1  0  0  0  0
 18  1  1  1  0  0  0
 18 22  1  0  0  0  0
 19 24  1  1  0  0  0
 21  1  1  0  0  0  0
 22 12  1  1  0  0  0
 22 19  1  0  0  0  0
 24 25  1  0  0  0  0
 24 23  1  0  0  0  0
 24 26  1  1  0  0  0
 25 23  1  0  0  0  0
 26 27  1  0  0  0  0
 27 28  1  0  0  0  0
 28 29  1  0  0  0  0
 29 30  1  0  0  0  0
 30 32  1  0  0  0  0
 32 31  1  1  0  0  0
 33 35  1  0  0  0  0
 33 32  1  0  0  0  0
 34 35  2  0  0  0  0
 36  2  1  0  0  0  0
 37 36  3  0  0  0  0
M  END
>  <MODEL>
3

>  <REMARK>
 VINA RESULT:      -5.7      4.833      9.933
  Name = 
  10 active torsions:
  status: ('A' for Active; 'I' for Inactive)
    1  A    between atoms: O_3  and  C_11
    2  A    between atoms: O_3  and  C_22
    3  A    between atoms: N_4  and  C_11
    4  A    between atoms: N_4  and  C_36
    5  A    between atoms: C_5  and  C_7
    6  A    between atoms: C_14  and  C_36
    7  A    between atoms: C_14  and  C_37
    8  A    between atoms: C_22  and  C_29
    9  A    between atoms: C_29  and  C_32
   10  A    between atoms: C_30  and  C_32
                            x       y       z     vdW  Elec       q    Type
                         _______ _______ _______ _____ _____    ______ ____

>  <TORSDO>
F 10

$$$$
=
 OpenBabel10232411233D

 37 41  0  0  1  0  0  0  0  0999 V2000
  185.5990  175.5830  135.2240 C   0  0  0  0  0  0  0  0  0  0  0  0
  184.4870  179.1010  139.8840 C   0  0  0  0  0  0  0  0  0  0  0  0
  183.0230  179.2540  139.7070 C   0  0  0  0  0  3  0  0  0  0  0  0
  187.1470  177.4690  138.8310 C   0  0  0  0  0  2  0  0  0  0  0  0
  186.6260  173.3610  135.9300 C   0  0  0  0  0  2  0  0  0  0  0  0
  182.6470  178.9140  138.5030 N   0  0  0  0  0  0  0  0  0  0  0  0
  184.8370  176.1880  134.4230 O   0  0  0  0  0  0  0  0  0  0  0  0
  188.0480  173.2140  135.4070 C   0  0  1  0  0  3  0  0  0  0  0  0
  184.0360  177.6110  136.9140 C   0  0  0  0  0  3  0  0  0  0  0  0
  189.0340  174.2130  136.0370 C   0  0  2  0  0  0  0  0  0  0  0  0
  185.4490  177.1870  137.0820 C   0  0  0  0  0  0  0  0  0  0  0  0
  187.9490  176.3570  138.1960 C   0  0  0  0  0  2  0  0  0  0  0  0
  184.9550  178.7130  138.7150 C   0  0  0  0  0  0  0  0  0  0  0  0
  185.9950  177.8180  138.2730 C   0  0  0  0  0  0  0  0  0  0  0  0
  189.1710  173.9490  137.3920 F   0  0  0  0  0  0  0  0  0  0  0  0
  188.5060  171.7800  135.6210 C   0  0  0  0  0  1  0  0  0  0  0  0
  183.8500  178.5480  137.8470 C   0  0  0  0  0  0  0  0  0  0  0  0
  186.1710  176.3060  136.3810 C   0  0  2  0  0  3  0  0  0  0  0  0
  188.5400  175.6640  135.8110 C   0  0  1  0  0  3  0  0  0  0  0  0
  190.2810  174.0340  135.4290 O   0  0  0  0  0  1  0  0  0  0  0  0
  185.8490  174.1890  135.0180 N   0  0  0  0  0  2  0  0  0  0  0  0
  187.5400  176.0880  136.7980 N   0  0  1  0  0  0  0  0  0  0  0  0
  190.4950  176.3930  134.5640 O   0  0  0  0  0  0  0  0  0  0  0  0
  189.6320  176.7260  135.6250 C   0  0  1  0  0  0  0  0  0  0  0  0
  189.6240  177.4780  134.3470 C   0  0  0  0  0  2  0  0  0  0  0  0
  190.4190  177.2640  136.8240 C   0  0  0  0  0  2  0  0  0  0  0  0
  191.6270  176.4060  137.1840 C   0  0  0  0  0  2  0  0  0  0  0  0
  192.1040  176.7430  138.4520 O   0  0  0  0  0  0  0  0  0  0  0  0
  190.9860  177.1980  139.1480 C   0  0  0  0  0  2  0  0  0  0  0  0
  191.2970  177.2660  140.5720 N   0  0  0  0  0  2  0  0  0  0  0  0
  190.3760  175.7500  142.1230 O   0  0  0  0  0  1  0  0  0  0  0  0
  190.1240  176.9000  141.3690 C   0  0  1  0  0  3  0  0  0  0  0  0
  189.6650  178.0400  142.2740 C   0  0  0  0  0  2  0  0  0  0  0  0
  189.6990  178.3610  144.6650 N   0  0  0  0  0  2  0  0  0  0  0  0
  189.4800  177.5690  143.6810 C   0  0  0  0  0  3  0  0  0  0  0  0
  185.1680  178.9740  141.1440 C   0  0  0  0  0  0  0  0  0  0  0  0
  185.7350  178.8680  142.2020 C   0  0  0  0  0  3  0  0  0  0  0  0
  2 36  1  0  0  0  0
  3  2  1  0  0  0  0
  6  3  2  0  0  0  0
  7  1  2  0  0  0  0
  8 16  1  1  0  0  0
  8  5  1  0  0  0  0
  8 10  1  0  0  0  0
  9 11  1  0  0  0  0
  9 17  2  0  0  0  0
 10 20  1  6  0  0  0
 10 15  1  0  0  0  0
 11 14  2  0  0  0  0
 12  4  1  0  0  0  0
 13  2  2  0  0  0  0
 14 13  1  0  0  0  0
 14  4  1  0  0  0  0
 17  6  1  0  0  0  0
 17 13  1  0  0  0  0
 18  1  1  6  0  0  0
 18 22  1  0  0  0  0
 18 11  1  0  0  0  0
 19 24  1  1  0  0  0
 19 10  1  0  0  0  0
 19 22  1  0  0  0  0
 21  1  1  0  0  0  0
 21  5  1  0  0  0  0
 22 12  1  6  0  0  0
 23 24  1  0  0  0  0
 24 26  1  1  0  0  0
 25 23  1  0  0  0  0
 25 24  1  0  0  0  0
 26 27  1  0  0  0  0
 27 28  1  0  0  0  0
 28 29  1  0  0  0  0
 29 30  1  0  0  0  0
 30 32  1  0  0  0  0
 32 31  1  1  0  0  0
 32 33  1  0  0  0  0
 33 35  1  0  0  0  0
 35 34  2  0  0  0  0
 36 37  3  0  0  0  0
M  END
>  <MODEL>
4

>  <REMARK>
 VINA RESULT:      -5.2      3.621      7.037
  Name = 
  10 active torsions:
  status: ('A' for Active; 'I' for Inactive)
    1  A    between atoms: O_3  and  C_11
    2  A    between atoms: O_3  and  C_22
    3  A    between atoms: N_4  and  C_11
    4  A    between atoms: N_4  and  C_36
    5  A    between atoms: C_5  and  C_7
    6  A    between atoms: C_14  and  C_36
    7  A    between atoms: C_14  and  C_37
    8  A    between atoms: C_22  and  C_29
    9  A    between atoms: C_29  and  C_32
   10  A    between atoms: C_30  and  C_32
                            x       y       z     vdW  Elec       q    Type
                         _______ _______ _______ _____ _____    ______ ____

>  <TORSDO>
F 10

$$$$
=
 OpenBabel10232411233D

 37 41  0  0  1  0  0  0  0  0999 V2000
  185.0700  179.0440  139.2020 C   0  0  0  0  0  0  0  0  0  0  0  0
  186.6010  177.9270  144.8370 C   0  0  0  0  0  0  0  0  0  0  0  0
  188.0650  178.1290  144.7160 C   0  0  0  0  0  3  0  0  0  0  0  0
  183.7230  178.2610  143.2700 C   0  0  0  0  0  2  0  0  0  0  0  0
  183.4410  180.9960  139.0260 C   0  0  0  0  0  2  0  0  0  0  0  0
  188.4540  178.0940  143.4700 N   0  0  0  0  0  0  0  0  0  0  0  0
  186.0350  178.4230  138.6820 O   0  0  0  0  0  0  0  0  0  0  0  0
  182.0860  180.5430  138.5000 C   0  0  1  0  0  3  0  0  0  0  0  0
  186.9340  178.2890  141.5200 C   0  0  0  0  0  3  0  0  0  0  0  0
  181.3360  179.6140  139.4700 C   0  0  2  0  0  0  0  0  0  0  0  0
  185.4500  178.3390  141.5280 C   0  0  0  0  0  0  0  0  0  0  0  0
  182.7260  178.7970  142.2680 C   0  0  0  0  0  2  0  0  0  0  0  0
  186.1620  177.7150  143.6120 C   0  0  0  0  0  0  0  0  0  0  0  0
  184.9740  178.0640  142.8740 C   0  0  0  0  0  0  0  0  0  0  0  0
  181.0070  180.3070  140.6260 F   0  0  0  0  0  0  0  0  0  0  0  0
  181.2560  181.7710  138.1610 C   0  0  0  0  0  1  0  0  0  0  0  0
  187.2660  177.8490  142.7360 C   0  0  0  0  0  0  0  0  0  0  0  0
  184.5950  178.6670  140.5530 C   0  0  2  0  0  3  0  0  0  0  0  0
  182.2070  178.3770  139.8050 C   0  0  1  0  0  3  0  0  0  0  0  0
  180.1490  179.2080  138.8510 O   0  0  0  0  0  1  0  0  0  0  0  0
  184.4900  180.1390  138.4870 N   0  0  0  0  0  2  0  0  0  0  0  0
  183.1830  178.6370  140.8690 N   0  0  1  0  0  0  0  0  0  0  0  0
  180.9840  176.9750  141.3690 O   0  0  0  0  0  0  0  0  0  0  0  0
  181.4500  177.0650  140.0440 C   0  0  1  0  0  0  0  0  0  0  0  0
  180.0080  177.1720  140.3730 C   0  0  0  0  0  2  0  0  0  0  0  0
  182.0290  175.7260  139.5750 C   0  0  0  0  0  2  0  0  0  0  0  0
  183.1220  175.8790  138.5220 C   0  0  0  0  0  2  0  0  0  0  0  0
  182.6070  175.6430  137.2460 O   0  0  0  0  0  0  0  0  0  0  0  0
  183.0080  174.3470  136.9310 C   0  0  0  0  0  2  0  0  0  0  0  0
  184.4240  174.1880  137.2460 N   0  0  0  0  0  2  0  0  0  0  0  0
  183.6170  171.9760  137.3250 O   0  0  0  0  0  1  0  0  0  0  0  0
  184.7690  172.7680  137.3470 C   0  0  1  0  0  3  0  0  0  0  0  0
  185.7360  172.3310  136.2500 C   0  0  0  0  0  2  0  0  0  0  0  0
  187.9030  172.4410  137.3060 N   0  0  0  0  0  2  0  0  0  0  0  0
  187.0880  172.9390  136.4510 C   0  0  0  0  0  3  0  0  0  0  0  0
  185.7930  178.3130  145.9610 C   0  0  0  0  0  0  0  0  0  0  0  0
  185.1130  178.6360  146.9020 C   0  0  0  0  0  3  0  0  0  0  0  0
  2 36  1  0  0  0  0
  3  2  1  0  0  0  0
  6  3  2  0  0  0  0
  7  1  2  0  0  0  0
  8 16  1  1  0  0  0
  8  5  1  0  0  0  0
  8 10  1  0  0  0  0
  9 11  1  0  0  0  0
  9 17  2  0  0  0  0
 10 20  1  6  0  0  0
 10 19  1  0  0  0  0
 10 15  1  0  0  0  0
 11 14  2  0  0  0  0
 12  4  1  0  0  0  0
 13  2  2  0  0  0  0
 14  4  1  0  0  0  0
 14 13  1  0  0  0  0
 17  6  1  0  0  0  0
 17 13  1  0  0  0  0
 18  1  1  6  0  0  0
 18 22  1  0  0  0  0
 18 11  1  0  0  0  0
 19 24  1  1  0  0  0
 19 22  1  0  0  0  0
 21  5  1  0  0  0  0
 21  1  1  0  0  0  0
 22 12  1  1  0  0  0
 24 26  1  6  0  0  0
 24 25  1  0  0  0  0
 24 23  1  0  0  0  0
 25 23  1  0  0  0  0
 27 26  1  0  0  0  0
 28 27  1  0  0  0  0
 29 30  1  0  0  0  0
 29 28  1  0  0  0  0
 30 32  1  0  0  0  0
 32 31  1  6  0  0  0
 33 35  1  0  0  0  0
 33 32  1  0  0  0  0
 35 34  2  0  0  0  0
 36 37  3  0  0  0  0
M  END
>  <MODEL>
5

>  <REMARK>
 VINA RESULT:      -5.2      2.916      4.731
  Name = 
  10 active torsions:
  status: ('A' for Active; 'I' for Inactive)
    1  A    between atoms: O_3  and  C_11
    2  A    between atoms: O_3  and  C_22
    3  A    between atoms: N_4  and  C_11
    4  A    between atoms: N_4  and  C_36
    5  A    between atoms: C_5  and  C_7
    6  A    between atoms: C_14  and  C_36
    7  A    between atoms: C_14  and  C_37
    8  A    between atoms: C_22  and  C_29
    9  A    between atoms: C_29  and  C_32
   10  A    between atoms: C_30  and  C_32
                            x       y       z     vdW  Elec       q    Type
                         _______ _______ _______ _____ _____    ______ ____

>  <TORSDO>
F 10

$$$$
=
 OpenBabel10232411233D

 37 41  0  0  1  0  0  0  0  0999 V2000
  185.0650  179.1400  139.1700 C   0  0  0  0  0  0  0  0  0  0  0  0
  186.6310  177.8450  144.7560 C   0  0  0  0  0  0  0  0  0  0  0  0
  188.0930  178.0560  144.6340 C   0  0  0  0  0  3  0  0  0  0  0  0
  183.7430  178.2190  143.2160 C   0  0  0  0  0  2  0  0  0  0  0  0
  183.4280  181.0900  139.0660 C   0  0  0  0  0  2  0  0  0  0  0  0
  188.4760  178.0630  143.3850 N   0  0  0  0  0  0  0  0  0  0  0  0
  186.0290  178.5400  138.6240 O   0  0  0  0  0  0  0  0  0  0  0  0
  182.0720  180.6500  138.5330 C   0  0  1  0  0  3  0  0  0  0  0  0
  186.9440  178.3170  141.4510 C   0  0  0  0  0  3  0  0  0  0  0  0
  181.3300  179.6870  139.4770 C   0  0  2  0  0  0  0  0  0  0  0  0
  185.4610  178.3600  141.4690 C   0  0  0  0  0  0  0  0  0  0  0  0
  182.7380  178.7830  142.2380 C   0  0  0  0  0  2  0  0  0  0  0  0
  186.1870  177.6710  143.5270 C   0  0  0  0  0  0  0  0  0  0  0  0
  184.9920  178.0390  142.8080 C   0  0  0  0  0  0  0  0  0  0  0  0
  181.0050  180.3400  140.6560 F   0  0  0  0  0  0  0  0  0  0  0  0
  181.2350  181.8850  138.2390 C   0  0  0  0  0  1  0  0  0  0  0  0
  187.2850  177.8380  142.6500 C   0  0  0  0  0  0  0  0  0  0  0  0
  184.5990  178.7170  140.5090 C   0  0  2  0  0  3  0  0  0  0  0  0
  182.2070  178.4430  139.7660 C   0  0  1  0  0  3  0  0  0  0  0  0
  180.1420  179.2970  138.8500 O   0  0  0  0  0  1  0  0  0  0  0  0
  184.4760  180.2560  138.4940 N   0  0  0  0  0  2  0  0  0  0  0  0
  183.1890  178.6710  140.8330 N   0  0  1  0  0  0  0  0  0  0  0  0
  180.8760  177.0480  141.2460 O   0  0  0  0  0  0  0  0  0  0  0  0
  181.4560  177.1200  139.9650 C   0  0  1  0  0  0  0  0  0  0  0  0
  179.9900  177.2050  140.1630 C   0  0  0  0  0  2  0  0  0  0  0  0
  182.0990  175.7850  139.5790 C   0  0  0  0  0  2  0  0  0  0  0  0
  183.1050  175.9090  138.4390 C   0  0  0  0  0  2  0  0  0  0  0  0
  183.0250  174.7990  137.5950 O   0  0  0  0  0  0  0  0  0  0  0  0
  184.3230  174.2980  137.5350 C   0  0  0  0  0  2  0  0  0  0  0  0
  184.7550  174.2400  136.1420 N   0  0  0  0  0  2  0  0  0  0  0  0
  185.4660  176.4720  135.8870 O   0  0  0  0  0  1  0  0  0  0  0  0
  185.8890  175.1400  135.9210 C   0  0  1  0  0  3  0  0  0  0  0  0
  186.9820  174.9560  136.9710 C   0  0  0  0  0  2  0  0  0  0  0  0
  189.2640  175.7180  136.7820 N   0  0  0  0  0  2  0  0  0  0  0  0
  188.0220  176.0250  136.8590 C   0  0  0  0  0  3  0  0  0  0  0  0
  185.8280  178.1910  145.8970 C   0  0  0  0  0  0  0  0  0  0  0  0
  185.1540  178.4770  146.8540 C   0  0  0  0  0  3  0  0  0  0  0  0
  2 36  1  0  0  0  0
  3  2  1  0  0  0  0
  6  3  2  0  0  0  0
  7  1  2  0  0  0  0
  8 16  1  1  0  0  0
  8  5  1  0  0  0  0
  8 10  1  0  0  0  0
  9 11  1  0  0  0  0
  9 17  2  0  0  0  0
 10 20  1  6  0  0  0
 10 19  1  0  0  0  0
 10 15  1  0  0  0  0
 11 14  2  0  0  0  0
 12  4  1  0  0  0  0
 13  2  2  0  0  0  0
 14  4  1  0  0  0  0
 14 13  1  0  0  0  0
 17  6  1  0  0  0  0
 17 13  1  0  0  0  0
 18  1  1  6  0  0  0
 18 22  1  0  0  0  0
 18 11  1  0  0  0  0
 19 24  1  1  0  0  0
 19 22  1  0  0  0  0
 21  5  1  0  0  0  0
 21  1  1  0  0  0  0
 22 12  1  1  0  0  0
 24 26  1  6  0  0  0
 24 25  1  0  0  0  0
 24 23  1  0  0  0  0
 25 23  1  0  0  0  0
 27 26  1  0  0  0  0
 28 27  1  0  0  0  0
 29 28  1  0  0  0  0
 30 29  1  0  0  0  0
 32 31  1  1  0  0  0
 32 30  1  0  0  0  0
 32 33  1  0  0  0  0
 34 35  2  0  0  0  0
 35 33  1  0  0  0  0
 36 37  3  0  0  0  0
M  END
>  <MODEL>
6

>  <REMARK>
 VINA RESULT:      -5.2      2.371      4.323
  Name = 
  10 active torsions:
  status: ('A' for Active; 'I' for Inactive)
    1  A    between atoms: O_3  and  C_11
    2  A    between atoms: O_3  and  C_22
    3  A    between atoms: N_4  and  C_11
    4  A    between atoms: N_4  and  C_36
    5  A    between atoms: C_5  and  C_7
    6  A    between atoms: C_14  and  C_36
    7  A    between atoms: C_14  and  C_37
    8  A    between atoms: C_22  and  C_29
    9  A    between atoms: C_29  and  C_32
   10  A    between atoms: C_30  and  C_32
                            x       y       z     vdW  Elec       q    Type
                         _______ _______ _______ _____ _____    ______ ____

>  <TORSDO>
F 10

$$$$
=
 OpenBabel10232411233D

 37 41  0  0  1  0  0  0  0  0999 V2000
  184.7170  178.6300  138.7800 C   0  0  0  0  0  0  0  0  0  0  0  0
  186.0750  178.6290  144.5670 C   0  0  0  0  0  0  0  0  0  0  0  0
  184.7600  179.0510  145.1060 C   0  0  0  0  0  3  0  0  0  0  0  0
  187.6560  177.6620  141.8440 C   0  0  0  0  0  2  0  0  0  0  0  0
  185.0440  176.3350  137.7230 C   0  0  0  0  0  2  0  0  0  0  0  0
  184.0070  179.5800  144.1800 N   0  0  0  0  0  0  0  0  0  0  0  0
  184.0420  179.6940  138.8070 O   0  0  0  0  0  0  0  0  0  0  0  0
  186.1520  176.3560  136.6800 C   0  0  1  0  0  3  0  0  0  0  0  0
  184.4220  179.3660  141.7440 C   0  0  0  0  0  3  0  0  0  0  0  0
  187.5470  176.6110  137.2780 C   0  0  2  0  0  0  0  0  0  0  0  0
  185.5940  178.7470  141.0750 C   0  0  0  0  0  0  0  0  0  0  0  0
  187.8390  177.0850  140.4590 C   0  0  0  0  0  2  0  0  0  0  0  0
  186.0780  178.9880  143.2990 C   0  0  0  0  0  0  0  0  0  0  0  0
  186.5990  178.4290  142.0760 C   0  0  0  0  0  0  0  0  0  0  0  0
  187.9090  175.5530  138.0970 F   0  0  0  0  0  0  0  0  0  0  0  0
  186.1190  175.0510  135.9000 C   0  0  0  0  0  1  0  0  0  0  0  0
  184.8080  179.5410  143.0100 C   0  0  0  0  0  0  0  0  0  0  0  0
  185.7690  178.4010  139.7940 C   0  0  2  0  0  3  0  0  0  0  0  0
  187.5510  177.9420  138.0720 C   0  0  1  0  0  3  0  0  0  0  0  0
  188.4640  176.6830  136.2240 O   0  0  0  0  0  1  0  0  0  0  0  0
  184.4070  177.6430  137.7910 N   0  0  0  0  0  2  0  0  0  0  0  0
  187.0340  177.7930  139.4380 N   0  0  1  0  0  0  0  0  0  0  0  0
  189.3580  178.8710  136.7400 O   0  0  0  0  0  0  0  0  0  0  0  0
  188.8630  178.7360  138.0500 C   0  0  1  0  0  0  0  0  0  0  0  0
  188.8470  180.0370  137.3400 C   0  0  0  0  0  2  0  0  0  0  0  0
  189.9930  178.4160  139.0330 C   0  0  0  0  0  2  0  0  0  0  0  0
  190.8090  177.1900  138.6320 C   0  0  0  0  0  2  0  0  0  0  0  0
  191.3450  176.5710  139.7630 O   0  0  0  0  0  0  0  0  0  0  0  0
  191.5580  177.6040  140.6730 C   0  0  0  0  0  2  0  0  0  0  0  0
  191.9670  177.0410  141.9560 N   0  0  0  0  0  2  0  0  0  0  0  0
  190.4850  175.5280  142.9890 O   0  0  0  0  0  1  0  0  0  0  0  0
  190.8060  176.8800  142.8360 C   0  0  1  0  0  3  0  0  0  0  0  0
  191.0220  177.5330  144.1980 C   0  0  0  0  0  2  0  0  0  0  0  0
  191.8560  176.9090  146.3750 N   0  0  0  0  0  2  0  0  0  0  0  0
  191.4780  176.5310  145.2100 C   0  0  0  0  0  3  0  0  0  0  0  0
  186.9540  177.6630  145.1670 C   0  0  0  0  0  0  0  0  0  0  0  0
  187.6910  176.8550  145.6730 C   0  0  0  0  0  3  0  0  0  0  0  0
  1  7  2  0  0  0  0
  2  3  1  0  0  0  0
  2 36  1  0  0  0  0
  4 14  1  0  0  0  0
  5 21  1  0  0  0  0
  6  3  2  0  0  0  0
  8 16  1  1  0  0  0
  8 10  1  0  0  0  0
  8  5  1  0  0  0  0
  9 17  2  0  0  0  0
 10 20  1  6  0  0  0
 10 19  1  0  0  0  0
 10 15  1  0  0  0  0
 11  9  1  0  0  0  0
 11 14  2  0  0  0  0
 12  4  1  0  0  0  0
 13  2  2  0  0  0  0
 14 13  1  0  0  0  0
 17 13  1  0  0  0  0
 17  6  1  0  0  0  0
 18  1  1  6  0  0  0
 18 11  1  0  0  0  0
 19 24  1  1  0  0  0
 19 22  1  0  0  0  0
 21  1  1  0  0  0  0
 22 18  1  0  0  0  0
 22 12  1  1  0  0  0
 23 25  1  0  0  0  0
 23 24  1  0  0  0  0
 24 26  1  1  0  0  0
 25 24  1  0  0  0  0
 27 26  1  0  0  0  0
 27 28  1  0  0  0  0
 28 29  1  0  0  0  0
 29 30  1  0  0  0  0
 30 32  1  0  0  0  0
 32 31  1  1  0  0  0
 32 33  1  0  0  0  0
 33 35  1  0  0  0  0
 35 34  2  0  0  0  0
 36 37  3  0  0  0  0
M  END
>  <MODEL>
7

>  <REMARK>
 VINA RESULT:      -5.2      2.791      4.794
  Name = 
  10 active torsions:
  status: ('A' for Active; 'I' for Inactive)
    1  A    between atoms: O_3  and  C_11
    2  A    between atoms: O_3  and  C_22
    3  A    between atoms: N_4  and  C_11
    4  A    between atoms: N_4  and  C_36
    5  A    between atoms: C_5  and  C_7
    6  A    between atoms: C_14  and  C_36
    7  A    between atoms: C_14  and  C_37
    8  A    between atoms: C_22  and  C_29
    9  A    between atoms: C_29  and  C_32
   10  A    between atoms: C_30  and  C_32
                            x       y       z     vdW  Elec       q    Type
                         _______ _______ _______ _____ _____    ______ ____

>  <TORSDO>
F 10

$$$$
=
 OpenBabel10232411233D

 37 41  0  0  1  0  0  0  0  0999 V2000
  192.2300  176.6190  138.4010 C   0  0  0  0  0  0  0  0  0  0  0  0
  190.4440  172.1320  134.9340 C   0  0  0  0  0  0  0  0  0  0  0  0
  191.7650  171.5140  134.6690 C   0  0  0  0  0  3  0  0  0  0  0  0
  188.8730  174.4020  136.7310 C   0  0  0  0  0  2  0  0  0  0  0  0
  191.1590  176.5230  140.7120 C   0  0  0  0  0  2  0  0  0  0  0  0
  192.7440  172.3320  134.9480 N   0  0  0  0  0  0  0  0  0  0  0  0
  193.2500  176.9070  137.7210 O   0  0  0  0  0  0  0  0  0  0  0  0
  190.2420  177.7140  140.9490 C   0  0  1  0  0  3  0  0  0  0  0  0
  192.5060  174.3920  136.3080 C   0  0  0  0  0  3  0  0  0  0  0  0
  188.9980  177.7160  140.0430 C   0  0  2  0  0  0  0  0  0  0  0  0
  191.2540  174.9880  136.8400 C   0  0  0  0  0  0  0  0  0  0  0  0
  188.6150  175.3460  137.8820 C   0  0  0  0  0  2  0  0  0  0  0  0
  190.6940  173.3660  135.3250 C   0  0  0  0  0  0  0  0  0  0  0  0
  190.1160  174.2740  136.2830 C   0  0  0  0  0  0  0  0  0  0  0  0
  188.1900  176.6330  140.3520 F   0  0  0  0  0  0  0  0  0  0  0  0
  189.8520  177.7490  142.4180 C   0  0  0  0  0  1  0  0  0  0  0  0
  192.1000  173.5170  135.3850 C   0  0  0  0  0  0  0  0  0  0  0  0
  191.0800  175.9490  137.7540 C   0  0  2  0  0  3  0  0  0  0  0  0
  189.4240  177.6720  138.5540 C   0  0  1  0  0  3  0  0  0  0  0  0
  188.2780  178.8870  140.2980 O   0  0  0  0  0  1  0  0  0  0  0  0
  192.2340  176.9020  139.8040 N   0  0  0  0  0  2  0  0  0  0  0  0
  189.7180  176.3130  138.0830 N   0  0  1  0  0  0  0  0  0  0  0  0
  188.9850  179.7310  137.3390 O   0  0  0  0  0  0  0  0  0  0  0  0
  188.5170  178.4230  137.5710 C   0  0  1  0  0  0  0  0  0  0  0  0
  189.1160  178.8190  136.2740 C   0  0  0  0  0  2  0  0  0  0  0  0
  186.9940  178.4080  137.7370 C   0  0  0  0  0  2  0  0  0  0  0  0
  186.2760  177.6390  136.6320 C   0  0  0  0  0  2  0  0  0  0  0  0
  185.3940  176.7070  137.1820 O   0  0  0  0  0  0  0  0  0  0  0  0
  184.1280  177.2570  136.9970 C   0  0  0  0  0  2  0  0  0  0  0  0
  183.4130  177.2620  138.2700 N   0  0  0  0  0  2  0  0  0  0  0  0
  181.5820  178.4150  139.2020 O   0  0  0  0  0  1  0  0  0  0  0  0
  182.7780  178.5630  138.4940 C   0  0  1  0  0  3  0  0  0  0  0  0
  183.7050  179.5400  139.2130 C   0  0  0  0  0  2  0  0  0  0  0  0
  185.1820  179.5320  141.1200 N   0  0  0  0  0  2  0  0  0  0  0  0
  184.4750  178.8530  140.2940 C   0  0  0  0  0  3  0  0  0  0  0  0
  189.2140  171.4190  135.1440 C   0  0  0  0  0  0  0  0  0  0  0  0
  188.1850  170.8180  135.3230 C   0  0  0  0  0  3  0  0  0  0  0  0
  1 21  1  0  0  0  0
  2 36  1  0  0  0  0
  2 13  1  0  0  0  0
  3  2  2  0  0  0  0
  3  6  1  0  0  0  0
  4 12  1  0  0  0  0
  5  8  1  0  0  0  0
  6 17  2  0  0  0  0
  7  1  2  0  0  0  0
  8 16  1  1  0  0  0
  9 11  2  0  0  0  0
 10 20  1  1  0  0  0
 10 15  1  0  0  0  0
 10  8  1  0  0  0  0
 13 17  1  0  0  0  0
 13 14  2  0  0  0  0
 14  4  1  0  0  0  0
 14 11  1  0  0  0  0
 17  9  1  0  0  0  0
 18 11  1  6  0  0  0
 18 22  1  0  0  0  0
 18  1  1  0  0  0  0
 19 24  1  6  0  0  0
 19 10  1  0  0  0  0
 21  5  1  0  0  0  0
 22 12  1  6  0  0  0
 22 19  1  0  0  0  0
 23 24  1  0  0  0  0
 24 26  1  1  0  0  0
 25 23  1  0  0  0  0
 25 24  1  0  0  0  0
 27 28  1  0  0  0  0
 27 26  1  0  0  0  0
 29 28  1  0  0  0  0
 29 30  1  0  0  0  0
 30 32  1  0  0  0  0
 32 31  1  1  0  0  0
 32 33  1  0  0  0  0
 33 35  1  0  0  0  0
 35 34  2  0  0  0  0
 36 37  3  0  0  0  0
M  END
>  <MODEL>
8

>  <REMARK>
 VINA RESULT:      -5.0      4.085      9.477
  Name = 
  10 active torsions:
  status: ('A' for Active; 'I' for Inactive)
    1  A    between atoms: O_3  and  C_11
    2  A    between atoms: O_3  and  C_22
    3  A    between atoms: N_4  and  C_11
    4  A    between atoms: N_4  and  C_36
    5  A    between atoms: C_5  and  C_7
    6  A    between atoms: C_14  and  C_36
    7  A    between atoms: C_14  and  C_37
    8  A    between atoms: C_22  and  C_29
    9  A    between atoms: C_29  and  C_32
   10  A    between atoms: C_30  and  C_32
                            x       y       z     vdW  Elec       q    Type
                         _______ _______ _______ _____ _____    ______ ____

>  <TORSDO>
F 10

$$$$
=
 OpenBabel10232411233D

 37 41  0  0  1  0  0  0  0  0999 V2000
  192.2460  177.2000  139.5170 C   0  0  0  0  0  0  0  0  0  0  0  0
  192.3520  172.9530  135.3590 C   0  0  0  0  0  0  0  0  0  0  0  0
  193.7640  172.5270  135.5080 C   0  0  0  0  0  3  0  0  0  0  0  0
  189.9700  174.8070  136.6770 C   0  0  0  0  0  2  0  0  0  0  0  0
  190.5170  176.7210  141.3260 C   0  0  0  0  0  2  0  0  0  0  0  0
  194.4690  173.4180  136.1520 N   0  0  0  0  0  0  0  0  0  0  0  0
  193.3770  177.6810  139.2370 O   0  0  0  0  0  0  0  0  0  0  0  0
  189.4070  177.7620  141.3240 C   0  0  1  0  0  3  0  0  0  0  0  0
  193.5050  175.2700  137.4900 C   0  0  0  0  0  3  0  0  0  0  0  0
  188.5340  177.7200  140.0570 C   0  0  2  0  0  0  0  0  0  0  0  0
  192.0760  175.6510  137.6130 C   0  0  0  0  0  0  0  0  0  0  0  0
  189.2190  175.5790  137.7380 C   0  0  0  0  0  2  0  0  0  0  0  0
  192.2780  174.1550  135.8930 C   0  0  0  0  0  0  0  0  0  0  0  0
  191.2950  174.8770  136.6620 C   0  0  0  0  0  0  0  0  0  0  0  0
  187.8380  176.5220  140.0050 F   0  0  0  0  0  0  0  0  0  0  0  0
  188.5650  177.5860  142.5780 C   0  0  0  0  0  1  0  0  0  0  0  0
  193.5510  174.4630  136.4280 C   0  0  0  0  0  0  0  0  0  0  0  0
  191.4770  176.4770  138.4790 C   0  0  2  0  0  3  0  0  0  0  0  0
  189.4170  177.8930  138.7950 C   0  0  1  0  0  3  0  0  0  0  0  0
  187.6060  178.7620  140.1360 O   0  0  0  0  0  1  0  0  0  0  0  0
  191.7580  177.3220  140.8560 N   0  0  0  0  0  2  0  0  0  0  0  0
  190.0440  176.6400  138.3600 N   0  0  1  0  0  0  0  0  0  0  0  0
  189.3520  179.9100  137.4400 O   0  0  0  0  0  0  0  0  0  0  0  0
  188.7740  178.6390  137.6200 C   0  0  1  0  0  0  0  0  0  0  0  0
  189.6450  178.9420  136.4590 C   0  0  0  0  0  2  0  0  0  0  0  0
  187.2510  178.7050  137.4700 C   0  0  0  0  0  2  0  0  0  0  0  0
  186.6350  177.3910  136.9970 C   0  0  0  0  0  2  0  0  0  0  0  0
  185.6190  176.9890  137.8650 O   0  0  0  0  0  0  0  0  0  0  0  0
  184.4900  177.6910  137.4490 C   0  0  0  0  0  2  0  0  0  0  0  0
  183.6420  177.9730  138.6030 N   0  0  0  0  0  2  0  0  0  0  0  0
  184.4790  180.0870  139.2190 O   0  0  0  0  0  1  0  0  0  0  0  0
  184.3820  178.7460  139.6030 C   0  0  1  0  0  3  0  0  0  0  0  0
  183.7600  178.6340  140.9930 C   0  0  0  0  0  2  0  0  0  0  0  0
  184.5810  178.3860  143.2480 N   0  0  0  0  0  2  0  0  0  0  0  0
  184.7910  178.8180  142.0600 C   0  0  0  0  0  3  0  0  0  0  0  0
  191.2390  172.0810  135.0980 C   0  0  0  0  0  0  0  0  0  0  0  0
  190.3060  171.3490  134.8830 C   0  0  0  0  0  3  0  0  0  0  0  0
  1 21  1  0  0  0  0
  2  3  2  0  0  0  0
  2 13  1  0  0  0  0
  3  6  1  0  0  0  0
  4 12  1  0  0  0  0
  6 17  2  0  0  0  0
  7  1  2  0  0  0  0
  8  5  1  0  0  0  0
  8 16  1  1  0  0  0
  9 11  2  0  0  0  0
 10 15  1  6  0  0  0
 10 20  1  0  0  0  0
 10  8  1  0  0  0  0
 13 17  1  0  0  0  0
 13 14  2  0  0  0  0
 14  4  1  0  0  0  0
 14 11  1  0  0  0  0
 17  9  1  0  0  0  0
 18 11  1  6  0  0  0
 18  1  1  0  0  0  0
 19 24  1  6  0  0  0
 19 10  1  0  0  0  0
 21  5  1  0  0  0  0
 22 12  1  6  0  0  0
 22 18  1  0  0  0  0
 22 19  1  0  0  0  0
 23 24  1  0  0  0  0
 24 26  1  6  0  0  0
 25 23  1  0  0  0  0
 25 24  1  0  0  0  0
 27 26  1  0  0  0  0
 27 28  1  0  0  0  0
 29 28  1  0  0  0  0
 29 30  1  0  0  0  0
 30 32  1  0  0  0  0
 32 31  1  6  0  0  0
 32 33  1  0  0  0  0
 33 35  1  0  0  0  0
 35 34  2  0  0  0  0
 36  2  1  0  0  0  0
 37 36  3  0  0  0  0
M  END
>  <MODEL>
9

>  <REMARK>
 VINA RESULT:      -4.9      3.949      9.252
  Name = 
  10 active torsions:
  status: ('A' for Active; 'I' for Inactive)
    1  A    between atoms: O_3  and  C_11
    2  A    between atoms: O_3  and  C_22
    3  A    between atoms: N_4  and  C_11
    4  A    between atoms: N_4  and  C_36
    5  A    between atoms: C_5  and  C_7
    6  A    between atoms: C_14  and  C_36
    7  A    between atoms: C_14  and  C_37
    8  A    between atoms: C_22  and  C_29
    9  A    between atoms: C_29  and  C_32
   10  A    between atoms: C_30  and  C_32
                            x       y       z     vdW  Elec       q    Type
                         _______ _______ _______ _____ _____    ______ ____

>  <TORSDO>
F 10

$$$$
