=
 OpenBabel10232411163D

 33 35  0  0  1  0  0  0  0  0999 V2000
  186.4850  178.0390  143.7410 C   0  0  1  0  0  3  0  0  0  0  0  0
  183.0990  178.7970  142.3370 N   0  0  0  0  0  0  0  0  0  0  0  0
  183.8550  178.5170  141.3270 C   0  0  0  0  0  0  0  0  0  0  0  0
  185.1960  178.1980  141.6740 N   0  0  0  0  0  0  0  0  0  0  0  0
  185.2320  178.2670  142.9600 C   0  0  0  0  0  0  0  0  0  0  0  0
  183.9100  178.6570  143.5370 C   0  0  0  0  0  2  0  0  0  0  0  0
  184.5170  178.9060  138.9980 C   0  0  0  0  0  3  0  0  0  0  0  0
  185.7880  177.7000  136.9070 Cl  0  0  0  0  0  0  0  0  0  0  0  0
  184.6030  177.8690  138.1840 C   0  0  0  0  0  0  0  0  0  0  0  0
  183.3710  178.6120  139.9170 C   0  0  1  0  0  3  0  0  0  0  0  0
  183.6140  176.9000  138.4760 N   0  0  0  0  0  0  0  0  0  0  0  0
  182.9120  177.3080  139.4520 N   0  0  0  0  0  0  0  0  0  0  0  0
  186.1640  177.4130  145.0920 C   0  0  0  0  0  2  0  0  0  0  0  0
  185.6160  179.0440  146.8990 C   0  0  0  0  0  1  0  0  0  0  0  0
  186.7270  178.2550  146.2330 C   0  0  1  0  0  3  0  0  0  0  0  0
  187.5130  177.4170  147.2480 C   0  0  0  0  0  2  0  0  0  0  0  0
  189.1490  178.3840  148.8810 C   0  0  0  0  0  1  0  0  0  0  0  0
  188.9500  177.8940  147.4580 C   0  0  1  0  0  3  0  0  0  0  0  0
  190.0140  176.8680  147.0280 C   0  0  0  0  0  2  0  0  0  0  0  0
  190.5110  176.9500  145.5750 C   0  0  2  0  0  3  0  0  0  0  0  0
  191.8220  176.4810  145.4480 O   0  0  0  0  0  0  0  0  0  0  0  0
  192.1260  175.9120  146.6860 C   0  0  0  0  0  1  0  0  0  0  0  0
  190.3830  178.3590  145.0140 C   0  0  0  0  0  2  0  0  0  0  0  0
  191.5970  178.7070  144.1750 C   0  0  0  0  0  1  0  0  0  0  0  0
  187.4310  177.1420  142.9630 C   0  0  0  0  0  2  0  0  0  0  0  0
  188.5150  177.9390  142.4060 N   0  0  0  0  0  2  0  0  0  0  0  0
  189.0180  177.7460  141.0810 C   0  0  0  0  0  0  0  0  0  0  0  0
  189.1580  178.4290  138.6460 C   0  0  0  0  0  2  0  0  0  0  0  0
  190.0470  176.9000  140.8930 C   0  0  0  0  0  0  0  0  0  0  0  0
  190.6640  176.6740  139.5370 C   0  0  0  0  0  2  0  0  0  0  0  0
  190.6120  176.2490  141.9840 O   0  0  0  0  0  1  0  0  0  0  0  0
  189.7240  177.0420  138.3940 C   0  0  0  0  0  2  0  0  0  0  0  0
  188.3110  178.4010  139.9150 C   0  0  0  0  0  2  0  0  0  0  0  0
  1 25  1  6  0  0  0
  1 13  1  0  0  0  0
  2  6  1  0  0  0  0
  3  4  1  0  0  0  0
  3  2  2  0  0  0  0
  4  5  2  0  0  0  0
  5  6  1  0  0  0  0
  5  1  1  0  0  0  0
  7 10  1  0  0  0  0
  8  9  1  0  0  0  0
  9 11  1  0  0  0  0
  9  7  2  0  0  0  0
 10  3  1  1  0  0  0
 11 12  2  0  0  0  0
 12 10  1  0  0  0  0
 13 15  1  0  0  0  0
 15 14  1  1  0  0  0
 15 16  1  0  0  0  0
 16 18  1  0  0  0  0
 18 17  1  1  0  0  0
 19 18  1  0  0  0  0
 20 23  1  1  0  0  0
 20 19  1  0  0  0  0
 21 20  1  0  0  0  0
 21 22  1  0  0  0  0
 24 23  1  0  0  0  0
 26 25  1  0  0  0  0
 27 26  1  0  0  0  0
 28 33  1  0  0  0  0
 29 27  2  0  0  0  0
 29 31  1  0  0  0  0
 30 29  1  0  0  0  0
 32 28  1  0  0  0  0
 32 30  1  0  0  0  0
 33 27  1  0  0  0  0
M  END
>  <MODEL>
1

>  <REMARK>
 VINA RESULT:      -7.9      0.000      0.000
  Name = 
  13 active torsions:
  status: ('A' for Active; 'I' for Inactive)
    1  A    between atoms: C_3  and  N_28
    2  A    between atoms: C_4  and  C_17
    3  A    between atoms: C_4  and  C_27
    4  A    between atoms: C_6  and  C_14
    5  A    between atoms: C_8  and  O_10
    6  A    between atoms: C_8  and  C_20
    7  A    between atoms: C_8  and  C_29
    8  A    between atoms: C_16  and  C_17
    9  A    between atoms: C_16  and  N_28
   10  A    between atoms: C_17  and  C_25
   11  A    between atoms: C_22  and  C_23
   12  A    between atoms: C_22  and  C_29
   13  A    between atoms: C_23  and  C_27
                            x       y       z     vdW  Elec       q    Type
                         _______ _______ _______ _____ _____    ______ ____

>  <TORSDO>
F 13

$$$$
=
 OpenBabel10232411163D

 33 35  0  0  1  0  0  0  0  0999 V2000
  185.9170  178.2720  143.7910 C   0  0  1  0  0  3  0  0  0  0  0  0
  182.3020  179.0200  143.1790 N   0  0  0  0  0  0  0  0  0  0  0  0
  182.7860  178.6260  142.0480 C   0  0  0  0  0  0  0  0  0  0  0  0
  184.1670  178.2930  142.0900 N   0  0  0  0  0  0  0  0  0  0  0  0
  184.5150  178.4740  143.3170 C   0  0  0  0  0  0  0  0  0  0  0  0
  183.3780  178.9570  144.1560 C   0  0  0  0  0  2  0  0  0  0  0  0
  182.5160  177.5890  139.8410 C   0  0  0  0  0  3  0  0  0  0  0  0
  181.6570  175.2900  138.6510 Cl  0  0  0  0  0  0  0  0  0  0  0  0
  181.5470  176.7080  139.6730 C   0  0  0  0  0  0  0  0  0  0  0  0
  181.9760  178.6130  140.7930 C   0  0  1  0  0  3  0  0  0  0  0  0
  180.4010  177.0470  140.4290 N   0  0  0  0  0  0  0  0  0  0  0  0
  180.6300  178.1210  141.0660 N   0  0  0  0  0  0  0  0  0  0  0  0
  185.9280  177.5440  145.1290 C   0  0  0  0  0  2  0  0  0  0  0  0
  185.7970  179.2460  146.9480 C   0  0  0  0  0  1  0  0  0  0  0  0
  186.7200  178.3250  146.1720 C   0  0  1  0  0  3  0  0  0  0  0  0
  187.5240  177.4120  147.1050 C   0  0  0  0  0  2  0  0  0  0  0  0
  189.1010  178.3860  148.7900 C   0  0  0  0  0  1  0  0  0  0  0  0
  188.9510  177.8970  147.3620 C   0  0  1  0  0  3  0  0  0  0  0  0
  190.0330  176.8770  146.9640 C   0  0  0  0  0  2  0  0  0  0  0  0
  190.4690  176.8640  145.4900 C   0  0  2  0  0  3  0  0  0  0  0  0
  191.7910  176.4330  145.3430 O   0  0  0  0  0  0  0  0  0  0  0  0
  192.1420  175.9060  146.5870 C   0  0  0  0  0  1  0  0  0  0  0  0
  190.2650  178.2210  144.8300 C   0  0  0  0  0  2  0  0  0  0  0  0
  191.5560  178.6980  144.1920 C   0  0  0  0  0  1  0  0  0  0  0  0
  186.7100  177.4850  142.7640 C   0  0  0  0  0  2  0  0  0  0  0  0
  187.6740  178.3610  142.1130 N   0  0  0  0  0  2  0  0  0  0  0  0
  188.4330  177.9650  140.9670 C   0  0  0  0  0  0  0  0  0  0  0  0
  190.3790  176.7280  139.9200 C   0  0  0  0  0  2  0  0  0  0  0  0
  187.9060  178.1520  139.7430 C   0  0  0  0  0  0  0  0  0  0  0  0
  188.6190  177.7220  138.4870 C   0  0  0  0  0  2  0  0  0  0  0  0
  186.6360  178.7020  139.6150 O   0  0  0  0  0  1  0  0  0  0  0  0
  190.1240  177.5750  138.6860 C   0  0  0  0  0  2  0  0  0  0  0  0
  189.8470  177.4600  141.1490 C   0  0  0  0  0  2  0  0  0  0  0  0
  1 25  1  6  0  0  0
  1 13  1  0  0  0  0
  2  6  1  0  0  0  0
  3  4  1  0  0  0  0
  3  2  2  0  0  0  0
  4  5  2  0  0  0  0
  5  1  1  0  0  0  0
  5  6  1  0  0  0  0
  7 10  1  0  0  0  0
  8  9  1  0  0  0  0
  9  7  2  0  0  0  0
  9 11  1  0  0  0  0
 10 12  1  0  0  0  0
 10  3  1  1  0  0  0
 11 12  2  0  0  0  0
 13 15  1  0  0  0  0
 15 14  1  1  0  0  0
 15 16  1  0  0  0  0
 16 18  1  0  0  0  0
 18 17  1  1  0  0  0
 19 18  1  0  0  0  0
 20 23  1  1  0  0  0
 20 19  1  0  0  0  0
 21 20  1  0  0  0  0
 21 22  1  0  0  0  0
 24 23  1  0  0  0  0
 26 25  1  0  0  0  0
 27 33  1  0  0  0  0
 27 26  1  0  0  0  0
 28 33  1  0  0  0  0
 29 27  2  0  0  0  0
 30 32  1  0  0  0  0
 30 29  1  0  0  0  0
 31 29  1  0  0  0  0
 32 28  1  0  0  0  0
M  END
>  <MODEL>
2

>  <REMARK>
 VINA RESULT:      -7.6      1.659      1.998
  Name = 
  13 active torsions:
  status: ('A' for Active; 'I' for Inactive)
    1  A    between atoms: C_3  and  N_28
    2  A    between atoms: C_4  and  C_17
    3  A    between atoms: C_4  and  C_27
    4  A    between atoms: C_6  and  C_14
    5  A    between atoms: C_8  and  O_10
    6  A    between atoms: C_8  and  C_20
    7  A    between atoms: C_8  and  C_29
    8  A    between atoms: C_16  and  C_17
    9  A    between atoms: C_16  and  N_28
   10  A    between atoms: C_17  and  C_25
   11  A    between atoms: C_22  and  C_23
   12  A    between atoms: C_22  and  C_29
   13  A    between atoms: C_23  and  C_27
                            x       y       z     vdW  Elec       q    Type
                         _______ _______ _______ _____ _____    ______ ____

>  <TORSDO>
F 13

$$$$
=
 OpenBabel10232411163D

 33 35  0  0  1  0  0  0  0  0999 V2000
  187.6690  177.8890  141.0850 C   0  0  1  0  0  3  0  0  0  0  0  0
  188.1170  177.6650  137.3760 N   0  0  0  0  0  0  0  0  0  0  0  0
  188.9590  176.8330  137.8930 C   0  0  0  0  0  0  0  0  0  0  0  0
  188.9300  176.7820  139.3140 N   0  0  0  0  0  0  0  0  0  0  0  0
  188.0030  177.6080  139.6560 C   0  0  0  0  0  0  0  0  0  0  0  0
  187.3770  178.2700  138.4730 C   0  0  0  0  0  2  0  0  0  0  0  0
  191.3150  176.6190  137.2430 C   0  0  0  0  0  3  0  0  0  0  0  0
  193.7240  175.7630  138.1940 Cl  0  0  0  0  0  0  0  0  0  0  0  0
  192.0290  175.6420  137.7730 C   0  0  0  0  0  0  0  0  0  0  0  0
  189.9340  176.0640  137.0630 C   0  0  1  0  0  3  0  0  0  0  0  0
  191.2500  174.4780  137.9670 N   0  0  0  0  0  0  0  0  0  0  0  0
  190.0660  174.7020  137.5700 N   0  0  0  0  0  0  0  0  0  0  0  0
  188.8780  178.4630  141.8130 C   0  0  0  0  0  2  0  0  0  0  0  0
  188.3970  176.3510  143.0490 C   0  0  0  0  0  1  0  0  0  0  0  0
  189.3520  177.5210  142.9150 C   0  0  1  0  0  3  0  0  0  0  0  0
  190.7970  177.0520  142.7060 C   0  0  0  0  0  2  0  0  0  0  0  0
  191.6250  178.8750  144.2120 C   0  0  0  0  0  1  0  0  0  0  0  0
  191.7300  177.4010  143.8650 C   0  0  1  0  0  3  0  0  0  0  0  0
  191.5630  176.4870  145.0920 C   0  0  0  0  0  2  0  0  0  0  0  0
  191.1180  177.1560  146.4030 C   0  0  2  0  0  3  0  0  0  0  0  0
  192.0490  176.9610  147.4270 O   0  0  0  0  0  0  0  0  0  0  0  0
  192.1690  175.5760  147.5510 C   0  0  0  0  0  1  0  0  0  0  0  0
  189.7340  176.6900  146.8320 C   0  0  0  0  0  2  0  0  0  0  0  0
  188.6990  177.7560  146.5320 C   0  0  0  0  0  1  0  0  0  0  0  0
  186.5030  178.8580  141.1690 C   0  0  0  0  0  2  0  0  0  0  0  0
  185.3540  178.1910  141.7650 N   0  0  0  0  0  2  0  0  0  0  0  0
  184.8750  178.4940  143.0780 C   0  0  0  0  0  0  0  0  0  0  0  0
  185.2940  179.1040  145.5000 C   0  0  0  0  0  2  0  0  0  0  0  0
  183.5660  178.7570  143.2480 C   0  0  0  0  0  0  0  0  0  0  0  0
  182.9900  179.1290  144.5900 C   0  0  0  0  0  2  0  0  0  0  0  0
  182.7130  178.7510  142.1510 O   0  0  0  0  0  1  0  0  0  0  0  0
  183.8620  178.6690  145.7530 C   0  0  0  0  0  2  0  0  0  0  0  0
  185.8200  178.3960  144.2550 C   0  0  0  0  0  2  0  0  0  0  0  0
  1 25  1  6  0  0  0
  1 13  1  0  0  0  0
  2  3  2  0  0  0  0
  2  6  1  0  0  0  0
  3  4  1  0  0  0  0
  4  5  2  0  0  0  0
  5  1  1  0  0  0  0
  6  5  1  0  0  0  0
  7  9  2  0  0  0  0
  9 11  1  0  0  0  0
  9  8  1  0  0  0  0
 10  7  1  0  0  0  0
 10 12  1  0  0  0  0
 10  3  1  1  0  0  0
 12 11  2  0  0  0  0
 13 15  1  0  0  0  0
 15 14  1  6  0  0  0
 16 15  1  0  0  0  0
 16 18  1  0  0  0  0
 18 17  1  1  0  0  0
 18 19  1  0  0  0  0
 20 19  1  6  0  0  0
 20 23  1  0  0  0  0
 20 21  1  0  0  0  0
 21 22  1  0  0  0  0
 24 23  1  0  0  0  0
 25 26  1  0  0  0  0
 26 27  1  0  0  0  0
 27 29  2  0  0  0  0
 27 33  1  0  0  0  0
 28 32  1  0  0  0  0
 29 30  1  0  0  0  0
 30 32  1  0  0  0  0
 31 29  1  0  0  0  0
 33 28  1  0  0  0  0
M  END
>  <MODEL>
3

>  <REMARK>
 VINA RESULT:      -7.6      3.019      5.917
  Name = 
  13 active torsions:
  status: ('A' for Active; 'I' for Inactive)
    1  A    between atoms: C_3  and  N_28
    2  A    between atoms: C_4  and  C_17
    3  A    between atoms: C_4  and  C_27
    4  A    between atoms: C_6  and  C_14
    5  A    between atoms: C_8  and  O_10
    6  A    between atoms: C_8  and  C_20
    7  A    between atoms: C_8  and  C_29
    8  A    between atoms: C_16  and  C_17
    9  A    between atoms: C_16  and  N_28
   10  A    between atoms: C_17  and  C_25
   11  A    between atoms: C_22  and  C_23
   12  A    between atoms: C_22  and  C_29
   13  A    between atoms: C_23  and  C_27
                            x       y       z     vdW  Elec       q    Type
                         _______ _______ _______ _____ _____    ______ ____

>  <TORSDO>
F 13

$$$$
=
 OpenBabel10232411163D

 33 35  0  0  1  0  0  0  0  0999 V2000
  186.7620  178.0840  143.2610 C   0  0  1  0  0  3  0  0  0  0  0  0
  183.4130  178.6900  141.7070 N   0  0  0  0  0  0  0  0  0  0  0  0
  184.2690  178.7110  140.7400 C   0  0  0  0  0  0  0  0  0  0  0  0
  185.6130  178.4940  141.1480 N   0  0  0  0  0  0  0  0  0  0  0  0
  185.5480  178.3100  142.4210 C   0  0  0  0  0  0  0  0  0  0  0  0
  184.1480  178.4130  142.9310 C   0  0  0  0  0  2  0  0  0  0  0  0
  182.3940  178.8940  139.1680 C   0  0  0  0  0  3  0  0  0  0  0  0
  180.2860  180.5060  138.5360 Cl  0  0  0  0  0  0  0  0  0  0  0  0
  181.9610  180.0980  138.8410 C   0  0  0  0  0  0  0  0  0  0  0  0
  183.8780  179.0250  139.3330 C   0  0  1  0  0  3  0  0  0  0  0  0
  183.0230  181.0290  138.7710 N   0  0  0  0  0  0  0  0  0  0  0  0
  184.1110  180.4360  139.0460 N   0  0  0  0  0  0  0  0  0  0  0  0
  186.3870  177.3890  144.5640 C   0  0  0  0  0  2  0  0  0  0  0  0
  185.6450  179.1130  146.2060 C   0  0  0  0  0  1  0  0  0  0  0  0
  186.7960  178.2270  145.7700 C   0  0  1  0  0  3  0  0  0  0  0  0
  187.3220  177.3720  146.9290 C   0  0  0  0  0  2  0  0  0  0  0  0
  188.5000  178.3330  148.9210 C   0  0  0  0  0  1  0  0  0  0  0  0
  188.6610  177.8520  147.4900 C   0  0  1  0  0  3  0  0  0  0  0  0
  189.8020  176.8330  147.3290 C   0  0  0  0  0  2  0  0  0  0  0  0
  190.8600  177.1360  146.2560 C   0  0  2  0  0  3  0  0  0  0  0  0
  190.2860  177.2920  144.9910 O   0  0  0  0  0  0  0  0  0  0  0  0
  190.7810  178.5070  144.5140 C   0  0  0  0  0  1  0  0  0  0  0  0
  191.9540  176.0780  146.2280 C   0  0  0  0  0  2  0  0  0  0  0  0
  192.3590  175.6970  147.6390 C   0  0  0  0  0  1  0  0  0  0  0  0
  187.7790  177.2530  142.5020 C   0  0  0  0  0  2  0  0  0  0  0  0
  188.6920  178.1310  141.7830 N   0  0  0  0  0  2  0  0  0  0  0  0
  189.2660  177.7870  140.5190 C   0  0  0  0  0  0  0  0  0  0  0  0
  189.4630  178.1170  138.0160 C   0  0  0  0  0  2  0  0  0  0  0  0
  190.3600  177.0050  140.4930 C   0  0  0  0  0  0  0  0  0  0  0  0
  191.0510  176.6330  139.2060 C   0  0  0  0  0  2  0  0  0  0  0  0
  190.9230  176.5660  141.6850 O   0  0  0  0  0  1  0  0  0  0  0  0
  190.1390  176.7570  137.9910 C   0  0  0  0  0  2  0  0  0  0  0  0
  188.5650  178.2080  139.2460 C   0  0  0  0  0  2  0  0  0  0  0  0
  1 25  1  6  0  0  0
  1 13  1  0  0  0  0
  2  6  1  0  0  0  0
  3  4  1  0  0  0  0
  3  2  2  0  0  0  0
  4  5  2  0  0  0  0
  5  6  1  0  0  0  0
  5  1  1  0  0  0  0
  7 10  1  0  0  0  0
  8  9  1  0  0  0  0
  9  7  2  0  0  0  0
 10  3  1  1  0  0  0
 11  9  1  0  0  0  0
 11 12  2  0  0  0  0
 12 10  1  0  0  0  0
 13 15  1  0  0  0  0
 15 14  1  1  0  0  0
 15 16  1  0  0  0  0
 16 18  1  0  0  0  0
 18 17  1  1  0  0  0
 19 18  1  0  0  0  0
 20 23  1  6  0  0  0
 20 19  1  0  0  0  0
 21 20  1  0  0  0  0
 22 21  1  0  0  0  0
 23 24  1  0  0  0  0
 26 25  1  0  0  0  0
 27 26  1  0  0  0  0
 28 33  1  0  0  0  0
 29 27  2  0  0  0  0
 29 31  1  0  0  0  0
 30 29  1  0  0  0  0
 32 28  1  0  0  0  0
 32 30  1  0  0  0  0
 33 27  1  0  0  0  0
M  END
>  <MODEL>
4

>  <REMARK>
 VINA RESULT:      -7.5      1.630      2.085
  Name = 
  13 active torsions:
  status: ('A' for Active; 'I' for Inactive)
    1  A    between atoms: C_3  and  N_28
    2  A    between atoms: C_4  and  C_17
    3  A    between atoms: C_4  and  C_27
    4  A    between atoms: C_6  and  C_14
    5  A    between atoms: C_8  and  O_10
    6  A    between atoms: C_8  and  C_20
    7  A    between atoms: C_8  and  C_29
    8  A    between atoms: C_16  and  C_17
    9  A    between atoms: C_16  and  N_28
   10  A    between atoms: C_17  and  C_25
   11  A    between atoms: C_22  and  C_23
   12  A    between atoms: C_22  and  C_29
   13  A    between atoms: C_23  and  C_27
                            x       y       z     vdW  Elec       q    Type
                         _______ _______ _______ _____ _____    ______ ____

>  <TORSDO>
F 13

$$$$
=
 OpenBabel10232411163D

 33 35  0  0  1  0  0  0  0  0999 V2000
  187.7030  178.0970  141.0380 C   0  0  1  0  0  3  0  0  0  0  0  0
  189.2030  178.2650  137.6130 N   0  0  0  0  0  0  0  0  0  0  0  0
  187.9510  177.9920  137.4470 C   0  0  0  0  0  0  0  0  0  0  0  0
  187.2120  177.8900  138.6570 N   0  0  0  0  0  0  0  0  0  0  0  0
  188.0640  178.1400  139.5890 C   0  0  0  0  0  0  0  0  0  0  0  0
  189.4290  178.4060  139.0430 C   0  0  0  0  0  2  0  0  0  0  0  0
  187.8030  176.3770  135.6060 C   0  0  0  0  0  3  0  0  0  0  0  0
  186.6460  173.9990  134.9380 Cl  0  0  0  0  0  0  0  0  0  0  0  0
  186.6990  175.6620  135.4820 C   0  0  0  0  0  0  0  0  0  0  0  0
  187.3640  177.7230  136.1000 C   0  0  1  0  0  3  0  0  0  0  0  0
  185.5550  176.4080  135.8500 N   0  0  0  0  0  0  0  0  0  0  0  0
  185.9170  177.5730  136.2000 N   0  0  0  0  0  0  0  0  0  0  0  0
  188.8410  178.6490  141.8870 C   0  0  0  0  0  2  0  0  0  0  0  0
  188.5680  176.3120  142.7150 C   0  0  0  0  0  1  0  0  0  0  0  0
  189.3860  177.5830  142.8330 C   0  0  1  0  0  3  0  0  0  0  0  0
  190.8810  177.3170  142.6190 C   0  0  0  0  0  2  0  0  0  0  0  0
  191.6800  179.0470  144.2450 C   0  0  0  0  0  1  0  0  0  0  0  0
  191.7360  177.5810  143.8580 C   0  0  1  0  0  3  0  0  0  0  0  0
  191.4250  176.6420  145.0370 C   0  0  0  0  0  2  0  0  0  0  0  0
  190.7870  177.2770  146.2830 C   0  0  2  0  0  3  0  0  0  0  0  0
  191.2940  176.7260  147.4640 O   0  0  0  0  0  0  0  0  0  0  0  0
  192.1960  175.7450  147.0500 C   0  0  0  0  0  1  0  0  0  0  0  0
  189.2690  177.1820  146.2490 C   0  0  0  0  0  2  0  0  0  0  0  0
  188.7170  177.0180  147.6530 C   0  0  0  0  0  1  0  0  0  0  0  0
  186.4350  178.8930  141.2870 C   0  0  0  0  0  2  0  0  0  0  0  0
  185.4860  178.0820  142.0370 N   0  0  0  0  0  2  0  0  0  0  0  0
  185.1350  178.3580  143.3960 C   0  0  0  0  0  0  0  0  0  0  0  0
  185.7840  178.8170  145.8010 C   0  0  0  0  0  2  0  0  0  0  0  0
  183.8680  178.7120  143.6800 C   0  0  0  0  0  0  0  0  0  0  0  0
  183.4260  179.0620  145.0780 C   0  0  0  0  0  2  0  0  0  0  0  0
  182.9370  178.8240  142.6550 O   0  0  0  0  0  1  0  0  0  0  0  0
  184.3440  178.4820  146.1480 C   0  0  0  0  0  2  0  0  0  0  0  0
  186.1550  178.1320  144.4890 C   0  0  0  0  0  2  0  0  0  0  0  0
  1 25  1  6  0  0  0
  1 13  1  0  0  0  0
  2  6  1  0  0  0  0
  3  2  2  0  0  0  0
  3  4  1  0  0  0  0
  4  5  2  0  0  0  0
  5  1  1  0  0  0  0
  6  5  1  0  0  0  0
  7 10  1  0  0  0  0
  8  9  1  0  0  0  0
  9  7  2  0  0  0  0
  9 11  1  0  0  0  0
 10 12  1  0  0  0  0
 10  3  1  1  0  0  0
 11 12  2  0  0  0  0
 13 15  1  0  0  0  0
 15 14  1  6  0  0  0
 16 15  1  0  0  0  0
 16 18  1  0  0  0  0
 18 17  1  1  0  0  0
 18 19  1  0  0  0  0
 20 19  1  6  0  0  0
 20 21  1  0  0  0  0
 22 21  1  0  0  0  0
 23 20  1  0  0  0  0
 23 24  1  0  0  0  0
 25 26  1  0  0  0  0
 26 27  1  0  0  0  0
 27 29  2  0  0  0  0
 27 33  1  0  0  0  0
 28 32  1  0  0  0  0
 29 30  1  0  0  0  0
 30 32  1  0  0  0  0
 31 29  1  0  0  0  0
 33 28  1  0  0  0  0
M  END
>  <MODEL>
5

>  <REMARK>
 VINA RESULT:      -7.5      2.582      5.287
  Name = 
  13 active torsions:
  status: ('A' for Active; 'I' for Inactive)
    1  A    between atoms: C_3  and  N_28
    2  A    between atoms: C_4  and  C_17
    3  A    between atoms: C_4  and  C_27
    4  A    between atoms: C_6  and  C_14
    5  A    between atoms: C_8  and  O_10
    6  A    between atoms: C_8  and  C_20
    7  A    between atoms: C_8  and  C_29
    8  A    between atoms: C_16  and  C_17
    9  A    between atoms: C_16  and  N_28
   10  A    between atoms: C_17  and  C_25
   11  A    between atoms: C_22  and  C_23
   12  A    between atoms: C_22  and  C_29
   13  A    between atoms: C_23  and  C_27
                            x       y       z     vdW  Elec       q    Type
                         _______ _______ _______ _____ _____    ______ ____

>  <TORSDO>
F 13

$$$$
=
 OpenBabel10232411163D

 33 35  0  0  1  0  0  0  0  0999 V2000
  185.8690  178.2800  143.8860 C   0  0  1  0  0  3  0  0  0  0  0  0
  188.7030  176.5100  142.2000 N   0  0  0  0  0  0  0  0  0  0  0  0
  188.5180  177.6060  141.5420 C   0  0  0  0  0  0  0  0  0  0  0  0
  187.4670  178.4190  142.0470 N   0  0  0  0  0  0  0  0  0  0  0  0
  187.0210  177.7840  143.0740 C   0  0  0  0  0  0  0  0  0  0  0  0
  187.7460  176.4970  143.2960 C   0  0  0  0  0  2  0  0  0  0  0  0
  189.3350  176.7490  139.3940 C   0  0  0  0  0  3  0  0  0  0  0  0
  188.4770  176.0990  136.8870 Cl  0  0  0  0  0  0  0  0  0  0  0  0
  188.7140  177.1200  138.2890 C   0  0  0  0  0  0  0  0  0  0  0  0
  189.2910  177.9360  140.3070 C   0  0  1  0  0  3  0  0  0  0  0  0
  188.2540  178.4550  138.3780 N   0  0  0  0  0  0  0  0  0  0  0  0
  188.5740  178.9270  139.5120 N   0  0  0  0  0  0  0  0  0  0  0  0
  186.3580  179.1770  145.0150 C   0  0  0  0  0  2  0  0  0  0  0  0
  184.6510  178.1210  146.4950 C   0  0  0  0  0  1  0  0  0  0  0  0
  186.1050  178.5350  146.3750 C   0  0  1  0  0  3  0  0  0  0  0  0
  187.0540  177.3640  146.6570 C   0  0  0  0  0  2  0  0  0  0  0  0
  188.3190  178.1560  148.6690 C   0  0  0  0  0  1  0  0  0  0  0  0
  188.4170  177.7930  147.1990 C   0  0  1  0  0  3  0  0  0  0  0  0
  189.5450  176.7860  146.9080 C   0  0  0  0  0  2  0  0  0  0  0  0
  190.4850  177.1150  145.7370 C   0  0  2  0  0  3  0  0  0  0  0  0
  191.8260  177.1180  146.1340 O   0  0  0  0  0  0  0  0  0  0  0  0
  191.9600  176.0090  146.9710 C   0  0  0  0  0  1  0  0  0  0  0  0
  190.1140  178.4310  145.0690 C   0  0  0  0  0  2  0  0  0  0  0  0
  191.0820  178.7450  143.9440 C   0  0  0  0  0  1  0  0  0  0  0  0
  184.8940  179.0380  143.0030 C   0  0  0  0  0  2  0  0  0  0  0  0
  184.3630  178.1480  141.9810 N   0  0  0  0  0  2  0  0  0  0  0  0
  183.3910  178.5650  141.0180 C   0  0  0  0  0  0  0  0  0  0  0  0
  181.0150  179.1780  140.3940 C   0  0  0  0  0  2  0  0  0  0  0  0
  183.8140  179.0360  139.8300 C   0  0  0  0  0  0  0  0  0  0  0  0
  182.8590  179.5360  138.7780 C   0  0  0  0  0  2  0  0  0  0  0  0
  185.1770  179.1280  139.5710 O   0  0  0  0  0  1  0  0  0  0  0  0
  181.4490  178.9820  138.9520 C   0  0  0  0  0  2  0  0  0  0  0  0
  181.9210  178.3570  141.3060 C   0  0  0  0  0  2  0  0  0  0  0  0
  1 25  1  6  0  0  0
  1 13  1  0  0  0  0
  2  6  1  0  0  0  0
  3  4  1  0  0  0  0
  3  2  2  0  0  0  0
  4  5  2  0  0  0  0
  5  6  1  0  0  0  0
  5  1  1  0  0  0  0
  7 10  1  0  0  0  0
  8  9  1  0  0  0  0
  9 11  1  0  0  0  0
  9  7  2  0  0  0  0
 10  3  1  1  0  0  0
 11 12  2  0  0  0  0
 12 10  1  0  0  0  0
 13 15  1  0  0  0  0
 15 14  1  6  0  0  0
 15 16  1  0  0  0  0
 16 18  1  0  0  0  0
 18 17  1  1  0  0  0
 19 18  1  0  0  0  0
 20 23  1  1  0  0  0
 20 21  1  0  0  0  0
 20 19  1  0  0  0  0
 21 22  1  0  0  0  0
 24 23  1  0  0  0  0
 26 25  1  0  0  0  0
 27 33  1  0  0  0  0
 27 26  1  0  0  0  0
 28 33  1  0  0  0  0
 29 27  2  0  0  0  0
 30 32  1  0  0  0  0
 30 29  1  0  0  0  0
 31 29  1  0  0  0  0
 32 28  1  0  0  0  0
M  END
>  <MODEL>
6

>  <REMARK>
 VINA RESULT:      -7.5      1.872      4.436
  Name = 
  13 active torsions:
  status: ('A' for Active; 'I' for Inactive)
    1  A    between atoms: C_3  and  N_28
    2  A    between atoms: C_4  and  C_17
    3  A    between atoms: C_4  and  C_27
    4  A    between atoms: C_6  and  C_14
    5  A    between atoms: C_8  and  O_10
    6  A    between atoms: C_8  and  C_20
    7  A    between atoms: C_8  and  C_29
    8  A    between atoms: C_16  and  C_17
    9  A    between atoms: C_16  and  N_28
   10  A    between atoms: C_17  and  C_25
   11  A    between atoms: C_22  and  C_23
   12  A    between atoms: C_22  and  C_29
   13  A    between atoms: C_23  and  C_27
                            x       y       z     vdW  Elec       q    Type
                         _______ _______ _______ _____ _____    ______ ____

>  <TORSDO>
F 13

$$$$
=
 OpenBabel10232411163D

 33 35  0  0  1  0  0  0  0  0999 V2000
  188.4900  178.2650  142.3020 C   0  0  1  0  0  3  0  0  0  0  0  0
  190.3250  177.0190  139.2880 N   0  0  0  0  0  0  0  0  0  0  0  0
  189.4680  177.8840  138.8580 C   0  0  0  0  0  0  0  0  0  0  0  0
  188.6710  178.4720  139.8780 N   0  0  0  0  0  0  0  0  0  0  0  0
  189.0950  177.9460  140.9740 C   0  0  0  0  0  0  0  0  0  0  0  0
  190.1910  176.9610  140.7360 C   0  0  0  0  0  2  0  0  0  0  0  0
  188.3000  177.2010  136.8110 C   0  0  0  0  0  3  0  0  0  0  0  0
  185.8480  177.2910  135.6190 Cl  0  0  0  0  0  0  0  0  0  0  0  0
  187.2830  177.9310  136.3920 C   0  0  0  0  0  0  0  0  0  0  0  0
  189.2800  178.1670  137.4030 C   0  0  1  0  0  3  0  0  0  0  0  0
  187.4920  179.3060  136.6500 N   0  0  0  0  0  0  0  0  0  0  0  0
  188.6160  179.4530  137.2200 N   0  0  0  0  0  0  0  0  0  0  0  0
  187.3700  177.2850  142.6270 C   0  0  0  0  0  2  0  0  0  0  0  0
  185.8510  178.4690  144.2120 C   0  0  0  0  0  1  0  0  0  0  0  0
  186.0360  178.0080  142.7800 C   0  0  1  0  0  3  0  0  0  0  0  0
  185.8790  179.1660  141.7870 C   0  0  0  0  0  2  0  0  0  0  0  0
  185.1700  178.5960  139.4520 C   0  0  0  0  0  1  0  0  0  0  0  0
  184.6940  179.0030  140.8340 C   0  0  1  0  0  3  0  0  0  0  0  0
  183.5840  178.0850  141.3770 C   0  0  0  0  0  2  0  0  0  0  0  0
  182.1350  178.4740  141.0440 C   0  0  2  0  0  3  0  0  0  0  0  0
  182.0780  179.5380  140.1390 O   0  0  0  0  0  0  0  0  0  0  0  0
  180.9110  179.3270  139.4020 C   0  0  0  0  0  1  0  0  0  0  0  0
  181.3330  178.7860  142.2990 C   0  0  0  0  0  2  0  0  0  0  0  0
  182.2540  178.9230  143.4960 C   0  0  0  0  0  1  0  0  0  0  0  0
  189.5520  178.2210  143.3860 C   0  0  0  0  0  2  0  0  0  0  0  0
  189.2690  177.1270  144.3050 N   0  0  0  0  0  2  0  0  0  0  0  0
  189.2840  177.2840  145.7260 C   0  0  0  0  0  0  0  0  0  0  0  0
  188.0790  177.4330  147.9490 C   0  0  0  0  0  2  0  0  0  0  0  0
  190.4560  177.1800  146.3790 C   0  0  0  0  0  0  0  0  0  0  0  0
  190.5520  177.2880  147.8790 C   0  0  0  0  0  2  0  0  0  0  0  0
  191.6180  176.9040  145.6690 O   0  0  0  0  0  1  0  0  0  0  0  0
  189.3670  178.0260  148.4930 C   0  0  0  0  0  2  0  0  0  0  0  0
  188.0120  177.6770  146.4440 C   0  0  0  0  0  2  0  0  0  0  0  0
  1 13  1  1  0  0  0
  1 25  1  0  0  0  0
  2  6  1  0  0  0  0
  3  2  2  0  0  0  0
  3  4  1  0  0  0  0
  4  5  2  0  0  0  0
  5  1  1  0  0  0  0
  6  5  1  0  0  0  0
  7 10  1  0  0  0  0
  8  9  1  0  0  0  0
  9 11  1  0  0  0  0
  9  7  2  0  0  0  0
 10  3  1  1  0  0  0
 11 12  2  0  0  0  0
 12 10  1  0  0  0  0
 13 15  1  0  0  0  0
 15 14  1  1  0  0  0
 16 15  1  0  0  0  0
 18 17  1  6  0  0  0
 18 19  1  0  0  0  0
 18 16  1  0  0  0  0
 20 19  1  1  0  0  0
 20 23  1  0  0  0  0
 21 20  1  0  0  0  0
 22 21  1  0  0  0  0
 23 24  1  0  0  0  0
 25 26  1  0  0  0  0
 26 27  1  0  0  0  0
 27 29  2  0  0  0  0
 27 33  1  0  0  0  0
 28 32  1  0  0  0  0
 29 30  1  0  0  0  0
 30 32  1  0  0  0  0
 31 29  1  0  0  0  0
 33 28  1  0  0  0  0
M  END
>  <MODEL>
7

>  <REMARK>
 VINA RESULT:      -7.2      2.587      7.001
  Name = 
  13 active torsions:
  status: ('A' for Active; 'I' for Inactive)
    1  A    between atoms: C_3  and  N_28
    2  A    between atoms: C_4  and  C_17
    3  A    between atoms: C_4  and  C_27
    4  A    between atoms: C_6  and  C_14
    5  A    between atoms: C_8  and  O_10
    6  A    between atoms: C_8  and  C_20
    7  A    between atoms: C_8  and  C_29
    8  A    between atoms: C_16  and  C_17
    9  A    between atoms: C_16  and  N_28
   10  A    between atoms: C_17  and  C_25
   11  A    between atoms: C_22  and  C_23
   12  A    between atoms: C_22  and  C_29
   13  A    between atoms: C_23  and  C_27
                            x       y       z     vdW  Elec       q    Type
                         _______ _______ _______ _____ _____    ______ ____

>  <TORSDO>
F 13

$$$$
=
 OpenBabel10232411163D

 33 35  0  0  1  0  0  0  0  0999 V2000
  189.6700  177.1080  140.4930 C   0  0  1  0  0  3  0  0  0  0  0  0
  190.2480  176.7910  136.8090 N   0  0  0  0  0  0  0  0  0  0  0  0
  191.2710  176.2500  137.3840 C   0  0  0  0  0  0  0  0  0  0  0  0
  191.2230  176.2780  138.8040 N   0  0  0  0  0  0  0  0  0  0  0  0
  190.1020  176.8420  139.0880 C   0  0  0  0  0  0  0  0  0  0  0  0
  189.3480  177.2380  137.8600 C   0  0  0  0  0  2  0  0  0  0  0  0
  193.5960  175.4800  137.5280 C   0  0  0  0  0  2  0  0  0  0  0  0
  195.0980  173.3610  138.3610 Cl  0  0  0  0  0  0  0  0  0  0  0  0
  193.8360  174.1830  137.4680 C   0  0  0  0  0  0  0  0  0  0  0  0
  192.4360  175.7240  136.6110 C   0  0  1  0  0  3  0  0  0  0  0  0
  192.9380  173.5300  136.5910 N   0  0  0  0  0  0  0  0  0  0  0  0
  192.1430  174.3890  136.1000 N   0  0  0  0  0  2  0  0  0  0  0  0
  190.8800  177.1950  141.4150 C   0  0  0  0  0  2  0  0  0  0  0  0
  190.1190  175.4020  142.9730 C   0  0  0  0  0  1  0  0  0  0  0  0
  190.4970  176.8660  142.8540 C   0  0  1  0  0  3  0  0  0  0  0  0
  191.5920  177.2520  143.8560 C   0  0  0  0  0  2  0  0  0  0  0  0
  191.0710  179.6910  144.0970 C   0  0  0  0  0  1  0  0  0  0  0  0
  191.1780  178.3620  144.8220 C   0  0  1  0  0  3  0  0  0  0  0  0
  189.9200  178.0300  145.6450 C   0  0  0  0  0  2  0  0  0  0  0  0
  190.0290  176.8660  146.6430 C   0  0  2  0  0  3  0  0  0  0  0  0
  188.9330  176.8220  147.5110 O   0  0  0  0  0  0  0  0  0  0  0  0
  188.9270  178.0620  148.1520 C   0  0  0  0  0  1  0  0  0  0  0  0
  191.3360  176.9120  147.4220 C   0  0  0  0  0  2  0  0  0  0  0  0
  191.9740  175.5370  147.4680 C   0  0  0  0  0  1  0  0  0  0  0  0
  188.8710  178.3970  140.5610 C   0  0  0  0  0  2  0  0  0  0  0  0
  187.4510  178.0890  140.6560 N   0  0  0  0  0  2  0  0  0  0  0  0
  186.6840  178.3210  141.8400 C   0  0  0  0  0  0  0  0  0  0  0  0
  186.4420  178.2980  144.3610 C   0  0  0  0  0  2  0  0  0  0  0  0
  185.5440  179.0310  141.7470 C   0  0  0  0  0  0  0  0  0  0  0  0
  184.7010  179.3580  142.9520 C   0  0  0  0  0  2  0  0  0  0  0  0
  185.1470  179.5400  140.5160 O   0  0  0  0  0  1  0  0  0  0  0  0
  184.9480  178.4080  144.1190 C   0  0  0  0  0  2  0  0  0  0  0  0
  187.1030  177.6690  143.1380 C   0  0  0  0  0  2  0  0  0  0  0  0
  1 25  1  6  0  0  0
  1 13  1  0  0  0  0
  2  3  2  0  0  0  0
  2  6  1  0  0  0  0
  3  4  1  0  0  0  0
  4  5  2  0  0  0  0
  5  1  1  0  0  0  0
  6  5  1  0  0  0  0
  9  7  1  0  0  0  0
  9  8  1  0  0  0  0
 10  3  1  1  0  0  0
 10  7  1  0  0  0  0
 11  9  2  0  0  0  0
 12 11  1  0  0  0  0
 12 10  1  0  0  0  0
 13 15  1  0  0  0  0
 15 14  1  6  0  0  0
 15 16  1  0  0  0  0
 16 18  1  0  0  0  0
 18 17  1  6  0  0  0
 18 19  1  0  0  0  0
 20 19  1  1  0  0  0
 20 23  1  0  0  0  0
 20 21  1  0  0  0  0
 21 22  1  0  0  0  0
 23 24  1  0  0  0  0
 25 26  1  0  0  0  0
 26 27  1  0  0  0  0
 27 33  1  0  0  0  0
 29 27  2  0  0  0  0
 29 30  1  0  0  0  0
 30 32  1  0  0  0  0
 31 29  1  0  0  0  0
 32 28  1  0  0  0  0
 33 28  1  0  0  0  0
M  END
>  <MODEL>
8

>  <REMARK>
 VINA RESULT:      -7.2      3.678      6.617
  Name = 
  13 active torsions:
  status: ('A' for Active; 'I' for Inactive)
    1  A    between atoms: C_3  and  N_28
    2  A    between atoms: C_4  and  C_17
    3  A    between atoms: C_4  and  C_27
    4  A    between atoms: C_6  and  C_14
    5  A    between atoms: C_8  and  O_10
    6  A    between atoms: C_8  and  C_20
    7  A    between atoms: C_8  and  C_29
    8  A    between atoms: C_16  and  C_17
    9  A    between atoms: C_16  and  N_28
   10  A    between atoms: C_17  and  C_25
   11  A    between atoms: C_22  and  C_23
   12  A    between atoms: C_22  and  C_29
   13  A    between atoms: C_23  and  C_27
                            x       y       z     vdW  Elec       q    Type
                         _______ _______ _______ _____ _____    ______ ____

>  <TORSDO>
F 13

$$$$
=
 OpenBabel10232411163D

 33 35  0  0  1  0  0  0  0  0999 V2000
  187.5850  177.3880  141.8350 C   0  0  1  0  0  3  0  0  0  0  0  0
  190.3930  177.6550  139.3760 N   0  0  0  0  0  0  0  0  0  0  0  0
  189.3420  178.1040  138.7740 C   0  0  0  0  0  0  0  0  0  0  0  0
  188.1620  178.0790  139.5670 N   0  0  0  0  0  0  0  0  0  0  0  0
  188.5390  177.6160  140.7070 C   0  0  0  0  0  0  0  0  0  0  0  0
  189.9960  177.2890  140.7260 C   0  0  0  0  0  2  0  0  0  0  0  0
  189.2860  177.3230  136.4490 C   0  0  0  0  0  3  0  0  0  0  0  0
  187.5830  176.3010  134.5790 Cl  0  0  0  0  0  0  0  0  0  0  0  0
  188.1610  177.4480  135.7690 C   0  0  0  0  0  0  0  0  0  0  0  0
  189.3600  178.5250  137.3410 C   0  0  1  0  0  3  0  0  0  0  0  0
  187.4700  178.6300  136.1240 N   0  0  0  0  0  0  0  0  0  0  0  0
  188.1360  179.2470  137.0100 N   0  0  0  0  0  0  0  0  0  0  0  0
  188.3270  176.8940  143.0700 C   0  0  0  0  0  2  0  0  0  0  0  0
  187.3410  177.1610  145.3450 C   0  0  0  0  0  1  0  0  0  0  0  0
  188.1300  177.8450  144.2450 C   0  0  1  0  0  3  0  0  0  0  0  0
  189.4540  178.4150  144.7680 C   0  0  0  0  0  2  0  0  0  0  0  0
  191.8570  178.2660  144.0740 C   0  0  0  0  0  1  0  0  0  0  0  0
  190.6490  177.4850  144.5590 C   0  0  1  0  0  3  0  0  0  0  0  0
  190.9640  176.5980  145.7770 C   0  0  0  0  0  2  0  0  0  0  0  0
  190.8510  177.2520  147.1630 C   0  0  2  0  0  3  0  0  0  0  0  0
  191.9360  176.9260  147.9820 O   0  0  0  0  0  0  0  0  0  0  0  0
  192.4030  175.7030  147.4960 C   0  0  0  0  0  1  0  0  0  0  0  0
  189.5350  176.9050  147.8440 C   0  0  0  0  0  2  0  0  0  0  0  0
  188.9770  178.1160  148.5670 C   0  0  0  0  0  1  0  0  0  0  0  0
  186.8360  178.6690  142.1550 C   0  0  0  0  0  2  0  0  0  0  0  0
  185.4820  178.5910  141.6250 N   0  0  0  0  0  2  0  0  0  0  0  0
  184.3190  178.7190  142.4470 C   0  0  0  0  0  0  0  0  0  0  0  0
  183.2320  179.1590  144.6910 C   0  0  0  0  0  2  0  0  0  0  0  0
  183.1130  178.8100  141.8560 C   0  0  0  0  0  0  0  0  0  0  0  0
  181.8430  178.9920  142.6460 C   0  0  0  0  0  2  0  0  0  0  0  0
  183.0220  178.8000  140.4690 O   0  0  0  0  0  1  0  0  0  0  0  0
  181.9810  178.5380  144.0950 C   0  0  0  0  0  2  0  0  0  0  0  0
  184.4560  178.6300  143.9500 C   0  0  0  0  0  2  0  0  0  0  0  0
  1 25  1  1  0  0  0
  1 13  1  0  0  0  0
  2  6  1  0  0  0  0
  3  2  2  0  0  0  0
  3  4  1  0  0  0  0
  4  5  2  0  0  0  0
  5  6  1  0  0  0  0
  5  1  1  0  0  0  0
  7 10  1  0  0  0  0
  8  9  1  0  0  0  0
  9 11  1  0  0  0  0
  9  7  2  0  0  0  0
 10  3  1  1  0  0  0
 11 12  2  0  0  0  0
 12 10  1  0  0  0  0
 13 15  1  0  0  0  0
 15 16  1  0  0  0  0
 15 14  1  1  0  0  0
 18 17  1  1  0  0  0
 18 16  1  0  0  0  0
 18 19  1  0  0  0  0
 20 19  1  6  0  0  0
 20 23  1  0  0  0  0
 20 21  1  0  0  0  0
 22 21  1  0  0  0  0
 23 24  1  0  0  0  0
 26 25  1  0  0  0  0
 26 27  1  0  0  0  0
 27 33  1  0  0  0  0
 29 27  2  0  0  0  0
 29 30  1  0  0  0  0
 30 32  1  0  0  0  0
 31 29  1  0  0  0  0
 32 28  1  0  0  0  0
 33 28  1  0  0  0  0
M  END
>  <MODEL>
9

>  <REMARK>
 VINA RESULT:      -7.2      2.469      5.283
  Name = 
  13 active torsions:
  status: ('A' for Active; 'I' for Inactive)
    1  A    between atoms: C_3  and  N_28
    2  A    between atoms: C_4  and  C_17
    3  A    between atoms: C_4  and  C_27
    4  A    between atoms: C_6  and  C_14
    5  A    between atoms: C_8  and  O_10
    6  A    between atoms: C_8  and  C_20
    7  A    between atoms: C_8  and  C_29
    8  A    between atoms: C_16  and  C_17
    9  A    between atoms: C_16  and  N_28
   10  A    between atoms: C_17  and  C_25
   11  A    between atoms: C_22  and  C_23
   12  A    between atoms: C_22  and  C_29
   13  A    between atoms: C_23  and  C_27
                            x       y       z     vdW  Elec       q    Type
                         _______ _______ _______ _____ _____    ______ ____

>  <TORSDO>
F 13

$$$$
