=
 OpenBabel10232409013D

 46 53  0  0  1  0  0  0  0  0999 V2000
  192.5690  177.3360  139.9740 C   0  0  0  0  0  3  0  0  0  0  0  0
  188.3120  177.8140  141.9660 C   0  0  0  0  0  0  0  0  0  0  0  0
  188.5130  178.2410  139.4260 C   0  0  0  0  0  2  0  0  0  0  0  0
  185.3930  178.0370  144.2670 C   0  0  0  0  0  0  0  0  0  0  0  0
  189.8630  175.8320  137.7340 C   0  0  2  0  0  3  0  0  0  0  0  0
  190.2430  179.2710  143.6730 O   0  0  0  0  0  0  0  0  0  0  0  0
  189.7250  177.5480  142.1370 N   0  0  0  0  0  0  0  0  0  0  0  0
  190.6140  178.4670  142.7770 C   0  0  0  0  0  0  0  0  0  0  0  0
  187.5720  175.2360  137.6290 O   0  0  0  0  0  0  0  0  0  0  0  0
  192.0110  178.4190  142.2380 C   0  0  0  0  0  2  0  0  0  0  0  0
  186.2690  179.3270  138.2850 C   0  0  0  0  0  2  0  0  0  0  0  0
  184.0800  178.3860  144.2170 N   0  0  0  0  0  0  0  0  0  0  0  0
  191.9960  176.6950  138.8630 C   0  0  0  0  0  3  0  0  0  0  0  0
  186.3430  178.6040  140.7090 C   0  0  0  0  0  0  0  0  0  0  0  0
  185.5860  178.5250  141.8920 C   0  0  0  0  0  0  0  0  0  0  0  0
  190.0520  176.1030  140.1850 C   0  0  0  0  0  3  0  0  0  0  0  0
  186.7060  178.0020  137.6640 C   0  0  1  0  0  3  0  0  0  0  0  0
  190.5570  176.8610  141.2190 C   0  0  0  0  0  0  0  0  0  0  0  0
  185.6870  179.1060  139.5660 O   0  0  0  0  0  0  0  0  0  0  0  0
  188.3870  176.1500  137.9230 C   0  0  0  0  0  0  0  0  0  0  0  0
  190.7060  176.1210  138.9540 C   0  0  0  0  0  0  0  0  0  0  0  0
  187.5300  177.7720  143.1190 C   0  0  0  0  0  3  0  0  0  0  0  0
  187.8800  177.4460  138.3530 N   0  0  0  0  0  0  0  0  0  0  0  0
  187.7100  178.1940  140.7160 C   0  0  0  0  0  0  0  0  0  0  0  0
  183.4890  178.8010  143.0660 C   0  0  0  0  0  3  0  0  0  0  0  0
  191.8180  177.4230  141.1470 C   0  0  0  0  0  0  0  0  0  0  0  0
  185.9670  177.5960  145.5720 C   0  0  0  0  0  1  0  0  0  0  0  0
  186.1780  178.0990  143.0980 C   0  0  0  0  0  0  0  0  0  0  0  0
  184.2310  178.8790  141.8880 C   0  0  0  0  0  3  0  0  0  0  0  0
  185.0040  177.2470  136.4600 C   0  0  0  0  0  1  0  0  0  0  0  0
  185.6350  177.1010  137.6960 O   0  0  0  0  0  0  0  0  0  0  0  0
  190.3650  176.5070  136.4590 C   0  0  0  0  0  2  0  0  0  0  0  0
  191.5200  175.7590  135.8880 C   0  0  0  0  0  0  0  0  0  0  0  0
  191.4340  174.5140  135.7100 O   0  0  0  0  0  0  0  0  0  0  0  0
  192.7210  176.4580  135.5590 N   0  0  0  0  0  2  0  0  0  0  0  0
  193.8800  175.8040  134.9690 C   0  0  0  0  0  2  0  0  0  0  0  0
  194.1140  173.6740  137.7480 C   0  0  0  0  0  1  0  0  0  0  0  0
  197.7460  174.4470  134.3470 C   0  0  0  0  0  1  0  0  0  0  0  0
  195.1510  176.2080  135.7010 C   0  0  2  0  0  3  0  0  0  0  0  0
  196.2740  176.4500  134.6810 C   0  0  0  0  0  2  0  0  0  0  0  0
  195.3030  174.6110  137.8400 C   0  0  2  0  0  3  0  0  0  0  0  0
  195.7290  175.0520  136.4690 C   0  0  2  0  0  3  0  0  0  0  0  0
  196.5430  173.8180  138.2730 C   0  0  0  0  0  2  0  0  0  0  0  0
  197.4950  175.6790  135.2160 C   0  0  1  0  0  3  0  0  0  0  0  0
  197.1220  175.3480  136.5870 N   0  0  2  0  0  0  0  0  0  0  0  0
  197.6270  174.1540  137.2350 C   0  0  0  0  0  2  0  0  0  0  0  0
  1 26  1  0  0  0  0
  2  7  1  0  0  0  0
  2 22  1  0  0  0  0
  3 24  1  0  0  0  0
  4 27  1  0  0  0  0
  5 32  1  6  0  0  0
  5 20  1  0  0  0  0
  5 21  1  0  0  0  0
  7  8  1  0  0  0  0
  8  6  2  0  0  0  0
  9 20  2  0  0  0  0
 10  8  1  0  0  0  0
 11 19  1  0  0  0  0
 12  4  2  0  0  0  0
 13 21  1  0  0  0  0
 13  1  2  0  0  0  0
 14 24  1  0  0  0  0
 14 15  2  0  0  0  0
 15 28  1  0  0  0  0
 16 18  1  0  0  0  0
 17 31  1  1  0  0  0
 17 11  1  0  0  0  0
 17 23  1  0  0  0  0
 18  7  1  0  0  0  0
 19 14  1  0  0  0  0
 20 23  1  0  0  0  0
 21 16  2  0  0  0  0
 23  3  1  0  0  0  0
 24  2  2  0  0  0  0
 25 12  1  0  0  0  0
 26 18  2  0  0  0  0
 26 10  1  0  0  0  0
 28 22  2  0  0  0  0
 28  4  1  0  0  0  0
 29 15  1  0  0  0  0
 29 25  2  0  0  0  0
 30 31  1  0  0  0  0
 33 32  1  0  0  0  0
 34 33  2  0  0  0  0
 35 33  1  0  0  0  0
 36 35  1  0  0  0  0
 38 44  1  0  0  0  0
 39 36  1  6  0  0  0
 39 42  1  0  0  0  0
 40 44  1  0  0  0  0
 40 39  1  0  0  0  0
 41 37  1  6  0  0  0
 41 43  1  0  0  0  0
 42 45  1  0  0  0  0
 42 41  1  0  0  0  0
 44 45  1  0  0  0  0
 45 46  1  0  0  0  0
 46 43  1  0  0  0  0
M  END
>  <MODEL>
1

>  <REMARK>
 VINA RESULT:      -7.6      0.000      0.000
  Name = 
  5 active torsions:
  status: ('A' for Active; 'I' for Inactive)
    1  A    between atoms: C_5  and  C_29
    2  A    between atoms: C_9  and  C_29
    3  A    between atoms: C_15  and  C_20
    4  A    between atoms: C_20  and  N_34
    5  A    between atoms: C_24  and  O_33
                            x       y       z     vdW  Elec       q    Type
                         _______ _______ _______ _____ _____    ______ ____

>  <TORSDO>
F 5

$$$$
=
 OpenBabel10232409013D

 46 53  0  0  1  0  0  0  0  0999 V2000
  192.6780  177.3510  140.3770 C   0  0  0  0  0  3  0  0  0  0  0  0
  188.3070  177.8130  142.1070 C   0  0  0  0  0  0  0  0  0  0  0  0
  188.6630  178.2590  139.5870 C   0  0  0  0  0  2  0  0  0  0  0  0
  185.2510  178.0180  144.2260 C   0  0  0  0  0  0  0  0  0  0  0  0
  190.1160  175.8640  137.9640 C   0  0  2  0  0  3  0  0  0  0  0  0
  190.1280  179.2570  143.9410 O   0  0  0  0  0  0  0  0  0  0  0  0
  189.7070  177.5460  142.3630 N   0  0  0  0  0  0  0  0  0  0  0  0
  190.5540  178.4610  143.0630 C   0  0  0  0  0  0  0  0  0  0  0  0
  187.8360  175.2670  137.7140 O   0  0  0  0  0  0  0  0  0  0  0  0
  191.9820  178.4170  142.6110 C   0  0  0  0  0  2  0  0  0  0  0  0
  186.4920  179.3530  138.3190 C   0  0  0  0  0  2  0  0  0  0  0  0
  183.9430  178.3670  144.0980 N   0  0  0  0  0  0  0  0  0  0  0  0
  192.1750  176.7180  139.2290 C   0  0  0  0  0  3  0  0  0  0  0  0
  186.4180  178.6120  140.7370 C   0  0  0  0  0  0  0  0  0  0  0  0
  185.5900  178.5240  141.8720 C   0  0  0  0  0  0  0  0  0  0  0  0
  190.1540  176.1160  140.4240 C   0  0  0  0  0  3  0  0  0  0  0  0
  186.9670  178.0330  137.7160 C   0  0  1  0  0  3  0  0  0  0  0  0
  190.5940  176.8670  141.4920 C   0  0  0  0  0  0  0  0  0  0  0  0
  185.8330  179.1220  139.5600 O   0  0  0  0  0  0  0  0  0  0  0  0
  188.6320  176.1800  138.0650 C   0  0  0  0  0  0  0  0  0  0  0  0
  190.8830  176.1430  139.2360 C   0  0  0  0  0  0  0  0  0  0  0  0
  187.4550  177.7620  143.2100 C   0  0  0  0  0  3  0  0  0  0  0  0
  188.0980  177.4720  138.4710 N   0  0  0  0  0  0  0  0  0  0  0  0
  187.7830  178.2020  140.8260 C   0  0  0  0  0  0  0  0  0  0  0  0
  183.4240  178.7910  142.9160 C   0  0  0  0  0  3  0  0  0  0  0  0
  191.8560  177.4290  141.5030 C   0  0  0  0  0  0  0  0  0  0  0  0
  185.7440  177.5670  145.5610 C   0  0  0  0  0  1  0  0  0  0  0  0
  186.1060  178.0890  143.1080 C   0  0  0  0  0  0  0  0  0  0  0  0
  184.2370  178.8780  141.7860 C   0  0  0  0  0  3  0  0  0  0  0  0
  185.3500  177.2800  136.4000 C   0  0  0  0  0  1  0  0  0  0  0  0
  185.8970  177.1310  137.6760 O   0  0  0  0  0  0  0  0  0  0  0  0
  190.6950  176.5480  136.7270 C   0  0  0  0  0  2  0  0  0  0  0  0
  191.5610  175.6070  135.9630 C   0  0  0  0  0  0  0  0  0  0  0  0
  191.0360  174.7170  135.2410 O   0  0  0  0  0  0  0  0  0  0  0  0
  192.9820  175.7140  136.0660 N   0  0  0  0  0  2  0  0  0  0  0  0
  193.8940  174.8530  135.3270 C   0  0  0  0  0  2  0  0  0  0  0  0
  197.1330  173.9200  134.3490 C   0  0  0  0  0  1  0  0  0  0  0  0
  195.6130  174.6570  139.0920 C   0  0  0  0  0  1  0  0  0  0  0  0
  194.2390  173.6160  136.1430 C   0  0  2  0  0  3  0  0  0  0  0  0
  193.7830  173.8190  137.5960 C   0  0  0  0  0  2  0  0  0  0  0  0
  196.6900  172.8850  135.3650 C   0  0  2  0  0  3  0  0  0  0  0  0
  195.7240  173.4900  136.3420 C   0  0  2  0  0  3  0  0  0  0  0  0
  197.8610  172.5570  136.3010 C   0  0  0  0  0  2  0  0  0  0  0  0
  194.9830  173.4110  138.4700 C   0  0  1  0  0  3  0  0  0  0  0  0
  195.8720  172.7230  137.5390 N   0  0  2  0  0  0  0  0  0  0  0  0
  197.3090  172.7340  137.7250 C   0  0  0  0  0  2  0  0  0  0  0  0
  1 26  1  0  0  0  0
  2  7  1  0  0  0  0
  2 22  1  0  0  0  0
  3 24  1  0  0  0  0
  4 27  1  0  0  0  0
  5 32  1  6  0  0  0
  5 20  1  0  0  0  0
  5 21  1  0  0  0  0
  7  8  1  0  0  0  0
  8  6  2  0  0  0  0
  9 20  2  0  0  0  0
 10  8  1  0  0  0  0
 11 19  1  0  0  0  0
 12  4  2  0  0  0  0
 13 21  1  0  0  0  0
 13  1  2  0  0  0  0
 14 24  1  0  0  0  0
 14 15  2  0  0  0  0
 15 28  1  0  0  0  0
 16 18  1  0  0  0  0
 17 31  1  1  0  0  0
 17 11  1  0  0  0  0
 17 23  1  0  0  0  0
 18 26  2  0  0  0  0
 18  7  1  0  0  0  0
 19 14  1  0  0  0  0
 20 23  1  0  0  0  0
 21 16  2  0  0  0  0
 23  3  1  0  0  0  0
 24  2  2  0  0  0  0
 25 12  1  0  0  0  0
 26 10  1  0  0  0  0
 28 22  2  0  0  0  0
 28  4  1  0  0  0  0
 29 15  1  0  0  0  0
 29 25  2  0  0  0  0
 30 31  1  0  0  0  0
 33 35  1  0  0  0  0
 33 32  1  0  0  0  0
 34 33  2  0  0  0  0
 36 35  1  0  0  0  0
 39 36  1  6  0  0  0
 39 42  1  0  0  0  0
 39 40  1  0  0  0  0
 40 44  1  0  0  0  0
 41 37  1  6  0  0  0
 41 43  1  0  0  0  0
 41 42  1  0  0  0  0
 42 45  1  0  0  0  0
 43 46  1  0  0  0  0
 44 38  1  0  0  0  0
 45 46  1  0  0  0  0
 45 44  1  0  0  0  0
M  END
>  <MODEL>
2

>  <REMARK>
 VINA RESULT:      -7.1      0.909      1.721
  Name = 
  5 active torsions:
  status: ('A' for Active; 'I' for Inactive)
    1  A    between atoms: C_5  and  C_29
    2  A    between atoms: C_9  and  C_29
    3  A    between atoms: C_15  and  C_20
    4  A    between atoms: C_20  and  N_34
    5  A    between atoms: C_24  and  O_33
                            x       y       z     vdW  Elec       q    Type
                         _______ _______ _______ _____ _____    ______ ____

>  <TORSDO>
F 5

$$$$
=
 OpenBabel10232409013D

 46 53  0  0  1  0  0  0  0  0999 V2000
  186.1680  177.6570  142.7200 C   0  0  0  0  0  3  0  0  0  0  0  0
  190.0280  176.9240  140.0970 C   0  0  0  0  0  0  0  0  0  0  0  0
  187.7250  176.5500  138.9880 C   0  0  0  0  0  2  0  0  0  0  0  0
  193.4840  176.5100  138.7720 C   0  0  0  0  0  0  0  0  0  0  0  0
  185.6820  179.0540  139.1970 C   0  0  2  0  0  3  0  0  0  0  0  0
  190.4530  175.5420  142.6810 O   0  0  0  0  0  0  0  0  0  0  0  0
  189.4670  177.2600  141.3890 N   0  0  0  0  0  0  0  0  0  0  0  0
  189.5260  176.3780  142.5130 C   0  0  0  0  0  0  0  0  0  0  0  0
  186.7830  179.5320  137.1530 O   0  0  0  0  0  0  0  0  0  0  0  0
  188.3540  176.5090  143.4360 C   0  0  0  0  0  2  0  0  0  0  0  0
  187.8420  175.3670  136.5180 C   0  0  0  0  0  2  0  0  0  0  0  0
  194.0950  176.0930  137.6310 N   0  0  0  0  0  0  0  0  0  0  0  0
  185.5320  178.2860  141.6370 C   0  0  0  0  0  3  0  0  0  0  0  0
  189.9180  176.0530  137.7930 C   0  0  0  0  0  0  0  0  0  0  0  0
  191.3240  176.0720  137.7440 C   0  0  0  0  0  0  0  0  0  0  0  0
  187.6820  178.7530  140.6200 C   0  0  0  0  0  3  0  0  0  0  0  0
  187.1410  176.7230  136.5280 C   0  0  1  0  0  3  0  0  0  0  0  0
  188.2820  178.0050  141.6100 C   0  0  0  0  0  0  0  0  0  0  0  0
  189.2490  175.5360  136.6640 O   0  0  0  0  0  0  0  0  0  0  0  0
  186.5830  178.6560  138.0370 C   0  0  0  0  0  0  0  0  0  0  0  0
  186.2900  178.7900  140.5550 C   0  0  0  0  0  0  0  0  0  0  0  0
  191.4200  176.9050  140.0120 C   0  0  0  0  0  3  0  0  0  0  0  0
  187.1570  177.3290  137.8680 N   0  0  0  0  0  0  0  0  0  0  0  0
  189.2450  176.5340  138.9560 C   0  0  0  0  0  0  0  0  0  0  0  0
  193.3890  175.6670  136.5510 C   0  0  0  0  0  3  0  0  0  0  0  0
  187.5560  177.5110  142.6770 C   0  0  0  0  0  0  0  0  0  0  0  0
  194.3320  176.9580  139.9160 C   0  0  0  0  0  1  0  0  0  0  0  0
  192.0770  176.5080  138.8520 C   0  0  0  0  0  0  0  0  0  0  0  0
  191.9950  175.6470  136.5900 C   0  0  0  0  0  3  0  0  0  0  0  0
  186.9350  177.4990  134.4600 C   0  0  0  0  0  1  0  0  0  0  0  0
  187.7500  177.5670  135.5910 O   0  0  0  0  0  0  0  0  0  0  0  0
  184.3030  178.4280  139.0020 C   0  0  0  0  0  2  0  0  0  0  0  0
  183.2440  179.4770  139.0040 C   0  0  0  0  0  0  0  0  0  0  0  0
  183.5630  180.6890  138.8710 O   0  0  0  0  0  0  0  0  0  0  0  0
  181.8770  179.0990  139.1740 N   0  0  0  0  0  2  0  0  0  0  0  0
  180.7840  180.0610  139.1570 C   0  0  0  0  0  2  0  0  0  0  0  0
  181.1980  183.1060  137.4620 C   0  0  0  0  0  1  0  0  0  0  0  0
  182.0150  178.5390  135.5050 C   0  0  0  0  0  1  0  0  0  0  0  0
  179.9840  179.9360  137.8690 C   0  0  2  0  0  3  0  0  0  0  0  0
  180.2180  178.5480  137.2540 C   0  0  0  0  0  2  0  0  0  0  0  0
  180.2690  182.2730  136.6010 C   0  0  2  0  0  3  0  0  0  0  0  0
  180.5530  180.8100  136.7860 C   0  0  2  0  0  3  0  0  0  0  0  0
  180.6530  182.4450  135.1250 C   0  0  0  0  0  2  0  0  0  0  0  0
  180.5320  178.7990  135.7680 C   0  0  1  0  0  3  0  0  0  0  0  0
  180.1490  180.1920  135.5630 N   0  0  2  0  0  0  0  0  0  0  0  0
  180.8170  181.0180  134.5760 C   0  0  0  0  0  2  0  0  0  0  0  0
  2  7  1  0  0  0  0
  4 28  1  0  0  0  0
  4 27  1  0  0  0  0
  5 32  1  1  0  0  0
  5 21  1  0  0  0  0
  7 18  1  0  0  0  0
  7  8  1  0  0  0  0
  8  6  2  0  0  0  0
  8 10  1  0  0  0  0
  9 20  2  0  0  0  0
 11 17  1  0  0  0  0
 11 19  1  0  0  0  0
 12  4  2  0  0  0  0
 13  1  2  0  0  0  0
 14 24  1  0  0  0  0
 15 14  2  0  0  0  0
 15 28  1  0  0  0  0
 16 18  1  0  0  0  0
 17 31  1  6  0  0  0
 17 23  1  0  0  0  0
 18 26  2  0  0  0  0
 19 14  1  0  0  0  0
 20  5  1  0  0  0  0
 21 16  2  0  0  0  0
 21 13  1  0  0  0  0
 22  2  1  0  0  0  0
 23 20  1  0  0  0  0
 23  3  1  0  0  0  0
 24  3  1  0  0  0  0
 24  2  2  0  0  0  0
 25 29  2  0  0  0  0
 25 12  1  0  0  0  0
 26  1  1  0  0  0  0
 26 10  1  0  0  0  0
 28 22  2  0  0  0  0
 29 15  1  0  0  0  0
 30 31  1  0  0  0  0
 32 33  1  0  0  0  0
 33 35  1  0  0  0  0
 34 33  2  0  0  0  0
 36 35  1  0  0  0  0
 38 44  1  0  0  0  0
 39 36  1  1  0  0  0
 40 39  1  0  0  0  0
 41 42  1  0  0  0  0
 41 37  1  1  0  0  0
 42 39  1  0  0  0  0
 43 41  1  0  0  0  0
 44 40  1  0  0  0  0
 45 44  1  0  0  0  0
 45 42  1  0  0  0  0
 46 43  1  0  0  0  0
 46 45  1  0  0  0  0
M  END
>  <MODEL>
3

>  <REMARK>
 VINA RESULT:      -7.0      3.390      9.992
  Name = 
  5 active torsions:
  status: ('A' for Active; 'I' for Inactive)
    1  A    between atoms: C_5  and  C_29
    2  A    between atoms: C_9  and  C_29
    3  A    between atoms: C_15  and  C_20
    4  A    between atoms: C_20  and  N_34
    5  A    between atoms: C_24  and  O_33
                            x       y       z     vdW  Elec       q    Type
                         _______ _______ _______ _____ _____    ______ ____

>  <TORSDO>
F 5

$$$$
=
 OpenBabel10232409013D

 46 53  0  0  1  0  0  0  0  0999 V2000
  187.9140  177.4290  137.0970 C   0  0  0  0  0  3  0  0  0  0  0  0
  186.7520  178.3010  141.5920 C   0  0  0  0  0  0  0  0  0  0  0  0
  188.5850  176.5380  141.1380 C   0  0  0  0  0  2  0  0  0  0  0  0
  185.2380  179.5000  144.7770 C   0  0  0  0  0  0  0  0  0  0  0  0
  191.0400  177.5610  139.2900 C   0  0  2  0  0  3  0  0  0  0  0  0
  184.2250  177.9470  140.0900 O   0  0  0  0  0  0  0  0  0  0  0  0
  186.5070  178.5590  140.1880 N   0  0  0  0  0  0  0  0  0  0  0  0
  185.3320  178.1080  139.5110 C   0  0  0  0  0  0  0  0  0  0  0  0
  191.8450  178.0940  141.4550 O   0  0  0  0  0  0  0  0  0  0  0  0
  185.5600  177.7950  138.0640 C   0  0  0  0  0  2  0  0  0  0  0  0
  189.3340  175.0960  143.3460 C   0  0  0  0  0  2  0  0  0  0  0  0
  185.3200  179.2350  146.1070 N   0  0  0  0  0  0  0  0  0  0  0  0
  189.2750  177.3770  137.4420 C   0  0  0  0  0  3  0  0  0  0  0  0
  187.7070  177.0300  143.4770 C   0  0  0  0  0  0  0  0  0  0  0  0
  186.9040  177.7780  144.3570 C   0  0  0  0  0  0  0  0  0  0  0  0
  188.8380  178.6770  139.4410 C   0  0  0  0  0  3  0  0  0  0  0  0
  190.4820  175.8410  142.6690 C   0  0  1  0  0  3  0  0  0  0  0  0
  187.4900  178.5930  139.1680 C   0  0  0  0  0  0  0  0  0  0  0  0
  188.4960  176.0090  144.0470 O   0  0  0  0  0  0  0  0  0  0  0  0
  190.9700  177.4600  140.8070 C   0  0  0  0  0  0  0  0  0  0  0  0
  189.7320  177.9580  138.6480 C   0  0  0  0  0  0  0  0  0  0  0  0
  185.9570  179.0030  142.4980 C   0  0  0  0  0  3  0  0  0  0  0  0
  190.0080  176.6370  141.5260 N   0  0  0  0  0  0  0  0  0  0  0  0
  187.6840  177.3210  142.0800 C   0  0  0  0  0  0  0  0  0  0  0  0
  186.1500  178.2790  146.6010 C   0  0  0  0  0  3  0  0  0  0  0  0
  187.0290  178.0330  137.9910 C   0  0  0  0  0  0  0  0  0  0  0  0
  184.2970  180.5630  144.3150 C   0  0  0  0  0  1  0  0  0  0  0  0
  186.0340  178.7730  143.8680 C   0  0  0  0  0  0  0  0  0  0  0  0
  186.9530  177.5350  145.7360 C   0  0  0  0  0  3  0  0  0  0  0  0
  191.9310  175.7850  144.3460 C   0  0  0  0  0  1  0  0  0  0  0  0
  191.1250  176.6540  143.6100 O   0  0  0  0  0  0  0  0  0  0  0  0
  191.6440  176.2760  138.7270 C   0  0  0  0  0  2  0  0  0  0  0  0
  192.9920  176.5380  138.1480 C   0  0  0  0  0  0  0  0  0  0  0  0
  193.8450  177.1860  138.8140 O   0  0  0  0  0  0  0  0  0  0  0  0
  193.3010  176.0650  136.8360 N   0  0  0  0  0  2  0  0  0  0  0  0
  194.6040  176.2550  136.2150 C   0  0  0  0  0  2  0  0  0  0  0  0
  195.8260  174.2880  138.8530 C   0  0  0  0  0  1  0  0  0  0  0  0
  192.4330  172.8120  135.4380 C   0  0  0  0  0  1  0  0  0  0  0  0
  195.0870  174.9580  135.5830 C   0  0  2  0  0  3  0  0  0  0  0  0
  194.0650  174.4890  134.5360 C   0  0  0  0  0  2  0  0  0  0  0  0
  196.0540  173.4800  137.5910 C   0  0  2  0  0  3  0  0  0  0  0  0
  195.0160  173.8160  136.5580 C   0  0  2  0  0  3  0  0  0  0  0  0
  195.7110  172.0090  137.8590 C   0  0  0  0  0  2  0  0  0  0  0  0
  193.8230  172.9970  134.8300 C   0  0  1  0  0  3  0  0  0  0  0  0
  194.9020  172.6450  135.7480 N   0  0  2  0  0  0  0  0  0  0  0  0
  194.7310  171.6070  136.7450 C   0  0  0  0  0  2  0  0  0  0  0  0
  1 13  2  0  0  0  0
  1 26  1  0  0  0  0
  2 24  2  0  0  0  0
  2 22  1  0  0  0  0
  3 23  1  0  0  0  0
  3 24  1  0  0  0  0
  4 12  2  0  0  0  0
  5 32  1  6  0  0  0
  5 20  1  0  0  0  0
  7  2  1  0  0  0  0
  8  6  2  0  0  0  0
  8  7  1  0  0  0  0
 10  8  1  0  0  0  0
 11 19  1  0  0  0  0
 12 25  1  0  0  0  0
 13 21  1  0  0  0  0
 14 19  1  0  0  0  0
 14 15  2  0  0  0  0
 15 29  1  0  0  0  0
 17 11  1  0  0  0  0
 17 31  1  1  0  0  0
 18 16  1  0  0  0  0
 18  7  1  0  0  0  0
 20  9  2  0  0  0  0
 20 23  1  0  0  0  0
 21  5  1  0  0  0  0
 21 16  2  0  0  0  0
 22 28  2  0  0  0  0
 23 17  1  0  0  0  0
 24 14  1  0  0  0  0
 26 10  1  0  0  0  0
 26 18  2  0  0  0  0
 27  4  1  0  0  0  0
 28 15  1  0  0  0  0
 28  4  1  0  0  0  0
 29 25  2  0  0  0  0
 31 30  1  0  0  0  0
 33 32  1  0  0  0  0
 33 34  2  0  0  0  0
 35 33  1  0  0  0  0
 36 35  1  0  0  0  0
 39 36  1  1  0  0  0
 39 42  1  0  0  0  0
 40 44  1  0  0  0  0
 40 39  1  0  0  0  0
 41 43  1  0  0  0  0
 41 37  1  1  0  0  0
 42 41  1  0  0  0  0
 44 38  1  0  0  0  0
 44 45  1  0  0  0  0
 45 42  1  0  0  0  0
 45 46  1  0  0  0  0
 46 43  1  0  0  0  0
M  END
>  <MODEL>
4

>  <REMARK>
 VINA RESULT:      -6.6      1.997      4.440
  Name = 
  5 active torsions:
  status: ('A' for Active; 'I' for Inactive)
    1  A    between atoms: C_5  and  C_29
    2  A    between atoms: C_9  and  C_29
    3  A    between atoms: C_15  and  C_20
    4  A    between atoms: C_20  and  N_34
    5  A    between atoms: C_24  and  O_33
                            x       y       z     vdW  Elec       q    Type
                         _______ _______ _______ _____ _____    ______ ____

>  <TORSDO>
F 5

$$$$
=
 OpenBabel10232409013D

 46 53  0  0  1  0  0  0  0  0999 V2000
  183.1480  178.7550  142.5450 C   0  0  0  0  0  3  0  0  0  0  0  0
  186.9340  178.2210  145.3200 C   0  0  0  0  0  0  0  0  0  0  0  0
  186.9800  177.1130  142.9870 C   0  0  0  0  0  2  0  0  0  0  0  0
  189.4320  178.2250  148.0820 C   0  0  0  0  0  0  0  0  0  0  0  0
  186.3630  179.1070  140.5110 C   0  0  2  0  0  3  0  0  0  0  0  0
  184.5500  177.6390  146.9760 O   0  0  0  0  0  0  0  0  0  0  0  0
  185.5920  178.7410  145.1610 N   0  0  0  0  0  0  0  0  0  0  0  0
  184.4640  178.1960  145.8490 C   0  0  0  0  0  0  0  0  0  0  0  0
  188.7210  179.2850  140.6640 O   0  0  0  0  0  0  0  0  0  0  0  0
  183.1850  178.3020  145.0760 C   0  0  0  0  0  2  0  0  0  0  0  0
  189.0900  175.4090  142.5890 C   0  0  0  0  0  2  0  0  0  0  0  0
  190.6450  177.6780  148.3600 N   0  0  0  0  0  0  0  0  0  0  0  0
  183.9750  178.9500  141.4270 C   0  0  0  0  0  3  0  0  0  0  0  0
  188.8520  176.8050  144.6860 C   0  0  0  0  0  0  0  0  0  0  0  0
  189.4510  177.1060  145.9230 C   0  0  0  0  0  0  0  0  0  0  0  0
  185.8120  179.5910  142.8730 C   0  0  0  0  0  3  0  0  0  0  0  0
  189.0090  176.5480  141.5760 C   0  0  1  0  0  3  0  0  0  0  0  0
  185.0380  179.2520  143.9610 C   0  0  0  0  0  0  0  0  0  0  0  0
  189.5360  175.8990  143.8510 O   0  0  0  0  0  0  0  0  0  0  0  0
  187.7090  178.6330  141.0370 C   0  0  0  0  0  0  0  0  0  0  0  0
  185.3300  179.3190  141.5930 C   0  0  0  0  0  0  0  0  0  0  0  0
  187.5550  178.4740  146.5420 C   0  0  0  0  0  3  0  0  0  0  0  0
  187.8900  177.4550  141.8730 N   0  0  0  0  0  0  0  0  0  0  0  0
  187.6030  177.4070  144.3410 C   0  0  0  0  0  0  0  0  0  0  0  0
  191.2830  176.8600  147.4830 C   0  0  0  0  0  3  0  0  0  0  0  0
  183.7100  178.8960  143.8150 C   0  0  0  0  0  0  0  0  0  0  0  0
  188.7950  179.1080  149.1020 C   0  0  0  0  0  1  0  0  0  0  0  0
  188.8070  177.9490  146.8500 C   0  0  0  0  0  0  0  0  0  0  0  0
  190.6980  176.5600  146.2530 C   0  0  0  0  0  3  0  0  0  0  0  0
  190.8780  176.8010  140.4100 C   0  0  0  0  0  1  0  0  0  0  0  0
  190.2240  177.2430  141.5610 O   0  0  0  0  0  0  0  0  0  0  0  0
  185.9050  178.1780  139.3880 C   0  0  0  0  0  2  0  0  0  0  0  0
  186.9520  178.0710  138.3340 C   0  0  0  0  0  0  0  0  0  0  0  0
  187.2080  179.0650  137.6010 O   0  0  0  0  0  0  0  0  0  0  0  0
  187.6480  176.8370  138.1530 N   0  0  0  0  0  2  0  0  0  0  0  0
  188.7040  176.6630  137.1660 C   0  0  0  0  0  2  0  0  0  0  0  0
  191.1670  174.2250  136.6130 C   0  0  0  0  0  1  0  0  0  0  0  0
  186.2550  173.3220  137.2560 C   0  0  0  0  0  1  0  0  0  0  0  0
  188.2090  175.8250  135.9970 C   0  0  2  0  0  3  0  0  0  0  0  0
  186.7100  175.5370  136.1730 C   0  0  0  0  0  2  0  0  0  0  0  0
  190.1070  173.9940  135.5530 C   0  0  2  0  0  3  0  0  0  0  0  0
  188.7600  174.4270  136.0560 C   0  0  2  0  0  3  0  0  0  0  0  0
  189.8700  172.4870  135.3890 C   0  0  0  0  0  2  0  0  0  0  0  0
  186.5460  174.0260  135.9310 C   0  0  1  0  0  3  0  0  0  0  0  0
  187.8180  173.6280  135.3370 N   0  0  2  0  0  0  0  0  0  0  0  0
  188.3510  172.2940  135.5270 C   0  0  0  0  0  2  0  0  0  0  0  0
  1 26  1  0  0  0  0
  2 22  1  0  0  0  0
  3 24  1  0  0  0  0
  4 12  2  0  0  0  0
  4 27  1  0  0  0  0
  5 32  1  6  0  0  0
  5 20  1  0  0  0  0
  5 21  1  0  0  0  0
  7  2  1  0  0  0  0
  7  8  1  0  0  0  0
  8  6  2  0  0  0  0
  9 20  2  0  0  0  0
 10  8  1  0  0  0  0
 11 19  1  0  0  0  0
 13 21  1  0  0  0  0
 13  1  2  0  0  0  0
 14 15  2  0  0  0  0
 15 29  1  0  0  0  0
 15 28  1  0  0  0  0
 16 18  1  0  0  0  0
 17 31  1  1  0  0  0
 17 23  1  0  0  0  0
 17 11  1  0  0  0  0
 18  7  1  0  0  0  0
 19 14  1  0  0  0  0
 20 23  1  0  0  0  0
 21 16  2  0  0  0  0
 22 28  2  0  0  0  0
 23  3  1  0  0  0  0
 24 14  1  0  0  0  0
 24  2  2  0  0  0  0
 25 12  1  0  0  0  0
 26 18  2  0  0  0  0
 26 10  1  0  0  0  0
 28  4  1  0  0  0  0
 29 25  2  0  0  0  0
 30 31  1  0  0  0  0
 33 32  1  0  0  0  0
 34 33  2  0  0  0  0
 35 33  1  0  0  0  0
 36 35  1  0  0  0  0
 39 42  1  0  0  0  0
 39 40  1  0  0  0  0
 39 36  1  1  0  0  0
 41 42  1  0  0  0  0
 41 37  1  1  0  0  0
 43 46  1  0  0  0  0
 43 41  1  0  0  0  0
 44 40  1  0  0  0  0
 44 38  1  0  0  0  0
 45 46  1  0  0  0  0
 45 44  1  0  0  0  0
 45 42  1  0  0  0  0
M  END
>  <MODEL>
5

>  <REMARK>
 VINA RESULT:      -6.3      3.466      6.871
  Name = 
  5 active torsions:
  status: ('A' for Active; 'I' for Inactive)
    1  A    between atoms: C_5  and  C_29
    2  A    between atoms: C_9  and  C_29
    3  A    between atoms: C_15  and  C_20
    4  A    between atoms: C_20  and  N_34
    5  A    between atoms: C_24  and  O_33
                            x       y       z     vdW  Elec       q    Type
                         _______ _______ _______ _____ _____    ______ ____

>  <TORSDO>
F 5

$$$$
=
 OpenBabel10232409013D

 46 53  0  0  1  0  0  0  0  0999 V2000
  187.3770  178.4160  139.8670 C   0  0  0  0  0  3  0  0  0  0  0  0
  190.6200  175.9570  137.4680 C   0  0  0  0  0  0  0  0  0  0  0  0
  188.2490  174.9510  137.6750 C   0  0  0  0  0  2  0  0  0  0  0  0
  193.7030  174.6540  135.8350 C   0  0  0  0  0  0  0  0  0  0  0  0
  185.8460  176.8970  136.7130 C   0  0  2  0  0  3  0  0  0  0  0  0
  191.8790  176.8200  140.0050 O   0  0  0  0  0  0  0  0  0  0  0  0
  190.3060  177.1250  138.2650 N   0  0  0  0  0  0  0  0  0  0  0  0
  190.7900  177.3050  139.5980 C   0  0  0  0  0  0  0  0  0  0  0  0
  186.3440  175.7540  134.6970 O   0  0  0  0  0  0  0  0  0  0  0  0
  189.8520  178.0780  140.4740 C   0  0  0  0  0  2  0  0  0  0  0  0
  188.0450  172.3590  136.8060 C   0  0  0  0  0  2  0  0  0  0  0  0
  194.1140  173.5370  135.1780 N   0  0  0  0  0  0  0  0  0  0  0  0
  186.4020  178.0990  138.9060 C   0  0  0  0  0  3  0  0  0  0  0  0
  190.1740  173.7060  136.5640 C   0  0  0  0  0  0  0  0  0  0  0  0
  191.5000  173.6570  136.0970 C   0  0  0  0  0  0  0  0  0  0  0  0
  188.1330  177.6590  137.2670 C   0  0  0  0  0  3  0  0  0  0  0  0
  187.1070  173.3310  136.0950 C   0  0  1  0  0  3  0  0  0  0  0  0
  189.0760  177.8280  138.2570 C   0  0  0  0  0  0  0  0  0  0  0  0
  189.3860  172.5530  136.3660 O   0  0  0  0  0  0  0  0  0  0  0  0
  186.5260  175.7740  135.9440 C   0  0  0  0  0  0  0  0  0  0  0  0
  186.7820  177.6660  137.6150 C   0  0  0  0  0  0  0  0  0  0  0  0
  191.9320  175.8560  137.0070 C   0  0  0  0  0  3  0  0  0  0  0  0
  187.3010  174.7100  136.5670 N   0  0  0  0  0  0  0  0  0  0  0  0
  189.6950  174.8860  137.2100 C   0  0  0  0  0  0  0  0  0  0  0  0
  193.2840  172.4830  134.9630 C   0  0  0  0  0  3  0  0  0  0  0  0
  188.7200  178.2560  139.5220 C   0  0  0  0  0  0  0  0  0  0  0  0
  194.6780  175.7670  136.0350 C   0  0  0  0  0  1  0  0  0  0  0  0
  192.3790  174.7380  136.3100 C   0  0  0  0  0  0  0  0  0  0  0  0
  191.9670  172.5240  135.4190 C   0  0  0  0  0  3  0  0  0  0  0  0
  186.7760  172.0070  134.3470 C   0  0  0  0  0  1  0  0  0  0  0  0
  187.3100  173.2440  134.7130 O   0  0  0  0  0  0  0  0  0  0  0  0
  184.6120  176.3450  137.4240 C   0  0  0  0  0  2  0  0  0  0  0  0
  183.3670  176.9120  136.8320 C   0  0  0  0  0  0  0  0  0  0  0  0
  183.4380  177.6470  135.8100 O   0  0  0  0  0  0  0  0  0  0  0  0
  182.1050  176.6280  137.4380 N   0  0  0  0  0  2  0  0  0  0  0  0
  180.8440  177.1190  136.9020 C   0  0  0  0  0  2  0  0  0  0  0  0
  180.4340  175.8920  140.1640 C   0  0  0  0  0  1  0  0  0  0  0  0
  183.0430  180.0090  138.8980 C   0  0  0  0  0  1  0  0  0  0  0  0
  180.3330  178.2890  137.7290 C   0  0  2  0  0  3  0  0  0  0  0  0
  181.1160  179.5580  137.3580 C   0  0  0  0  0  2  0  0  0  0  0  0
  179.9830  177.3390  140.2040 C   0  0  2  0  0  3  0  0  0  0  0  0
  180.7210  178.1470  139.1740 C   0  0  2  0  0  3  0  0  0  0  0  0
  180.4960  177.9970  141.4910 C   0  0  0  0  0  2  0  0  0  0  0  0
  181.5390  180.1920  138.6960 C   0  0  1  0  0  3  0  0  0  0  0  0
  180.7360  179.4810  139.6860 N   0  0  2  0  0  0  0  0  0  0  0  0
  181.2180  179.2770  141.0370 C   0  0  0  0  0  2  0  0  0  0  0  0
  2  7  1  0  0  0  0
  4 27  1  0  0  0  0
  4 28  1  0  0  0  0
  5 32  1  1  0  0  0
  5 21  1  0  0  0  0
  7  8  1  0  0  0  0
  8  6  2  0  0  0  0
  8 10  1  0  0  0  0
  9 20  2  0  0  0  0
 12  4  2  0  0  0  0
 13  1  2  0  0  0  0
 14 24  2  0  0  0  0
 15 28  2  0  0  0  0
 15 14  1  0  0  0  0
 16 21  2  0  0  0  0
 16 18  1  0  0  0  0
 17 31  1  6  0  0  0
 17 23  1  0  0  0  0
 17 11  1  0  0  0  0
 18  7  1  0  0  0  0
 18 26  2  0  0  0  0
 19 14  1  0  0  0  0
 19 11  1  0  0  0  0
 20 23  1  0  0  0  0
 20  5  1  0  0  0  0
 21 13  1  0  0  0  0
 22  2  2  0  0  0  0
 23  3  1  0  0  0  0
 24  2  1  0  0  0  0
 24  3  1  0  0  0  0
 25 12  1  0  0  0  0
 25 29  2  0  0  0  0
 26  1  1  0  0  0  0
 26 10  1  0  0  0  0
 28 22  1  0  0  0  0
 29 15  1  0  0  0  0
 30 31  1  0  0  0  0
 33 32  1  0  0  0  0
 33 35  1  0  0  0  0
 34 33  2  0  0  0  0
 36 35  1  0  0  0  0
 39 36  1  6  0  0  0
 39 42  1  0  0  0  0
 40 39  1  0  0  0  0
 40 44  1  0  0  0  0
 41 37  1  1  0  0  0
 41 43  1  0  0  0  0
 42 45  1  0  0  0  0
 42 41  1  0  0  0  0
 44 38  1  0  0  0  0
 44 45  1  0  0  0  0
 45 46  1  0  0  0  0
 46 43  1  0  0  0  0
M  END
>  <MODEL>
6

>  <REMARK>
 VINA RESULT:      -6.3      3.181     10.165
  Name = 
  5 active torsions:
  status: ('A' for Active; 'I' for Inactive)
    1  A    between atoms: C_5  and  C_29
    2  A    between atoms: C_9  and  C_29
    3  A    between atoms: C_15  and  C_20
    4  A    between atoms: C_20  and  N_34
    5  A    between atoms: C_24  and  O_33
                            x       y       z     vdW  Elec       q    Type
                         _______ _______ _______ _____ _____    ______ ____

>  <TORSDO>
F 5

$$$$
=
 OpenBabel10232409013D

 46 53  0  0  1  0  0  0  0  0999 V2000
  185.7980  172.1560  136.0280 C   0  0  0  0  0  3  0  0  0  0  0  0
  183.5930  176.2420  136.9000 C   0  0  0  0  0  0  0  0  0  0  0  0
  186.0360  175.9920  137.7030 C   0  0  0  0  0  2  0  0  0  0  0  0
  181.1750  179.0540  137.2400 C   0  0  0  0  0  0  0  0  0  0  0  0
  188.1460  175.1070  135.4120 C   0  0  2  0  0  3  0  0  0  0  0  0
  181.7470  174.0670  137.6940 O   0  0  0  0  0  0  0  0  0  0  0  0
  183.5210  174.8970  136.3680 N   0  0  0  0  0  0  0  0  0  0  0  0
  182.7760  173.8530  136.9990 C   0  0  0  0  0  0  0  0  0  0  0  0
  188.2580  177.4690  135.2480 O   0  0  0  0  0  0  0  0  0  0  0  0
  183.3690  172.4920  136.7990 C   0  0  0  0  0  2  0  0  0  0  0  0
  186.8980  178.0180  139.3370 C   0  0  0  0  0  2  0  0  0  0  0  0
  181.1170  180.2850  137.8150 N   0  0  0  0  0  0  0  0  0  0  0  0
  186.9750  172.8450  135.6900 C   0  0  0  0  0  3  0  0  0  0  0  0
  184.6280  178.0510  138.2180 C   0  0  0  0  0  0  0  0  0  0  0  0
  183.4450  178.7990  138.0760 C   0  0  0  0  0  0  0  0  0  0  0  0
  185.6930  174.8510  135.2340 C   0  0  0  0  0  3  0  0  0  0  0  0
  187.7420  177.8290  138.0780 C   0  0  1  0  0  3  0  0  0  0  0  0
  184.5700  174.2090  135.7100 C   0  0  0  0  0  0  0  0  0  0  0  0
  185.6480  178.6180  139.0100 O   0  0  0  0  0  0  0  0  0  0  0  0
  187.8520  176.5010  135.9450 C   0  0  0  0  0  0  0  0  0  0  0  0
  186.9290  174.2150  135.3420 C   0  0  0  0  0  0  0  0  0  0  0  0
  182.4320  177.0090  136.8020 C   0  0  0  0  0  3  0  0  0  0  0  0
  187.1990  176.7660  137.2200 N   0  0  0  0  0  0  0  0  0  0  0  0
  184.7400  176.7780  137.5810 C   0  0  0  0  0  0  0  0  0  0  0  0
  182.1620  180.8030  138.5130 C   0  0  0  0  0  3  0  0  0  0  0  0
  184.5980  172.8690  136.0480 C   0  0  0  0  0  0  0  0  0  0  0  0
  179.9820  178.5560  136.4950 C   0  0  0  0  0  1  0  0  0  0  0  0
  182.3480  178.2820  137.3590 C   0  0  0  0  0  0  0  0  0  0  0  0
  183.3400  180.0690  138.6560 C   0  0  0  0  0  3  0  0  0  0  0  0
  189.0860  179.5450  137.6710 C   0  0  0  0  0  1  0  0  0  0  0  0
  187.8150  179.0420  137.3840 O   0  0  0  0  0  0  0  0  0  0  0  0
  189.3130  174.5050  136.1920 C   0  0  0  0  0  2  0  0  0  0  0  0
  190.6110  175.0410  135.6940 C   0  0  0  0  0  0  0  0  0  0  0  0
  190.7950  175.1850  134.4550 O   0  0  0  0  0  0  0  0  0  0  0  0
  191.6430  175.3740  136.6250 N   0  0  0  0  0  2  0  0  0  0  0  0
  192.9250  175.9300  136.2180 C   0  0  0  0  0  2  0  0  0  0  0  0
  195.7790  177.4980  134.9110 C   0  0  0  0  0  1  0  0  0  0  0  0
  195.7260  174.3040  138.8020 C   0  0  0  0  0  1  0  0  0  0  0  0
  193.9260  174.8180  135.9450 C   0  0  2  0  0  3  0  0  0  0  0  0
  193.9260  173.8300  137.1210 C   0  0  0  0  0  2  0  0  0  0  0  0
  196.0830  176.0130  134.9100 C   0  0  2  0  0  3  0  0  0  0  0  0
  195.3390  175.3260  136.0200 C   0  0  2  0  0  3  0  0  0  0  0  0
  197.5300  175.7900  135.3680 C   0  0  0  0  0  2  0  0  0  0  0  0
  195.4080  173.6090  137.4780 C   0  0  1  0  0  3  0  0  0  0  0  0
  196.1270  174.1780  136.3430 N   0  0  2  0  0  0  0  0  0  0  0  0
  197.4460  174.7570  136.5050 C   0  0  0  0  0  2  0  0  0  0  0  0
  1 26  1  0  0  0  0
  2 24  1  0  0  0  0
  4 28  2  0  0  0  0
  4 12  1  0  0  0  0
  5 20  1  0  0  0  0
  5 32  1  1  0  0  0
  7  2  1  0  0  0  0
  7  8  1  0  0  0  0
  8  6  2  0  0  0  0
  9 20  2  0  0  0  0
 10  8  1  0  0  0  0
 12 25  2  0  0  0  0
 13  1  2  0  0  0  0
 14 19  1  0  0  0  0
 15 14  1  0  0  0  0
 15 29  2  0  0  0  0
 16 21  2  0  0  0  0
 16 18  1  0  0  0  0
 17 31  1  6  0  0  0
 17 11  1  0  0  0  0
 18 26  2  0  0  0  0
 18  7  1  0  0  0  0
 19 11  1  0  0  0  0
 20 23  1  0  0  0  0
 21  5  1  0  0  0  0
 21 13  1  0  0  0  0
 22  2  2  0  0  0  0
 22 28  1  0  0  0  0
 23  3  1  0  0  0  0
 23 17  1  0  0  0  0
 24  3  1  0  0  0  0
 24 14  2  0  0  0  0
 25 29  1  0  0  0  0
 26 10  1  0  0  0  0
 27  4  1  0  0  0  0
 28 15  1  0  0  0  0
 31 30  1  0  0  0  0
 33 32  1  0  0  0  0
 33 35  1  0  0  0  0
 34 33  2  0  0  0  0
 36 35  1  0  0  0  0
 39 42  1  0  0  0  0
 39 36  1  1  0  0  0
 39 40  1  0  0  0  0
 40 44  1  0  0  0  0
 41 37  1  1  0  0  0
 41 43  1  0  0  0  0
 41 42  1  0  0  0  0
 42 45  1  0  0  0  0
 43 46  1  0  0  0  0
 44 38  1  0  0  0  0
 45 46  1  0  0  0  0
 45 44  1  0  0  0  0
M  END
>  <MODEL>
7

>  <REMARK>
 VINA RESULT:      -6.2      3.247      5.815
  Name = 
  5 active torsions:
  status: ('A' for Active; 'I' for Inactive)
    1  A    between atoms: C_5  and  C_29
    2  A    between atoms: C_9  and  C_29
    3  A    between atoms: C_15  and  C_20
    4  A    between atoms: C_20  and  N_34
    5  A    between atoms: C_24  and  O_33
                            x       y       z     vdW  Elec       q    Type
                         _______ _______ _______ _____ _____    ______ ____

>  <TORSDO>
F 5

$$$$
=
 OpenBabel10232409013D

 46 53  0  0  1  0  0  0  0  0999 V2000
  183.0030  178.7100  143.5010 C   0  0  0  0  0  3  0  0  0  0  0  0
  187.1230  178.1260  145.7370 C   0  0  0  0  0  0  0  0  0  0  0  0
  186.8980  177.1680  143.3480 C   0  0  0  0  0  2  0  0  0  0  0  0
  189.9510  178.0370  148.1590 C   0  0  0  0  0  0  0  0  0  0  0  0
  185.9240  179.2930  141.1070 C   0  0  2  0  0  3  0  0  0  0  0  0
  184.9830  177.3640  147.6370 O   0  0  0  0  0  0  0  0  0  0  0  0
  185.7590  178.6110  145.7820 N   0  0  0  0  0  0  0  0  0  0  0  0
  184.7410  177.9880  146.5690 C   0  0  0  0  0  0  0  0  0  0  0  0
  188.2770  179.5370  140.9750 O   0  0  0  0  0  0  0  0  0  0  0  0
  183.3720  178.1000  145.9710 C   0  0  0  0  0  2  0  0  0  0  0  0
  188.9820  175.5620  142.5770 C   0  0  0  0  0  2  0  0  0  0  0  0
  191.2020  177.5130  148.2460 N   0  0  0  0  0  0  0  0  0  0  0  0
  183.6760  179.0020  142.3030 C   0  0  0  0  0  3  0  0  0  0  0  0
  188.9780  176.8160  144.7760 C   0  0  0  0  0  0  0  0  0  0  0  0
  189.7220  177.0570  145.9450 C   0  0  0  0  0  0  0  0  0  0  0  0
  185.6660  179.6090  143.5460 C   0  0  0  0  0  3  0  0  0  0  0  0
  188.7450  176.7590  141.6600 C   0  0  1  0  0  3  0  0  0  0  0  0
  185.0450  179.1780  144.6990 C   0  0  0  0  0  0  0  0  0  0  0  0
  189.5720  175.9860  143.8030 O   0  0  0  0  0  0  0  0  0  0  0  0
  187.3370  178.8310  141.4280 C   0  0  0  0  0  0  0  0  0  0  0  0
  185.0320  179.4030  142.3220 C   0  0  0  0  0  0  0  0  0  0  0  0
  187.8880  178.3220  146.8870 C   0  0  0  0  0  3  0  0  0  0  0  0
  187.6510  177.6090  142.1550 N   0  0  0  0  0  0  0  0  0  0  0  0
  187.6820  177.3970  144.6310 C   0  0  0  0  0  0  0  0  0  0  0  0
  191.7440  176.7730  147.2430 C   0  0  0  0  0  3  0  0  0  0  0  0
  183.7190  178.7900  144.6970 C   0  0  0  0  0  0  0  0  0  0  0  0
  189.4270  178.8340  149.3070 C   0  0  0  0  0  1  0  0  0  0  0  0
  189.1810  177.8190  146.9990 C   0  0  0  0  0  0  0  0  0  0  0  0
  191.0140  176.5320  146.0790 C   0  0  0  0  0  3  0  0  0  0  0  0
  190.6030  176.9150  140.4610 C   0  0  0  0  0  1  0  0  0  0  0  0
  189.9310  177.4920  141.5400 O   0  0  0  0  0  0  0  0  0  0  0  0
  185.3490  178.4220  139.9920 C   0  0  0  0  0  2  0  0  0  0  0  0
  184.3060  179.1640  139.2290 C   0  0  0  0  0  0  0  0  0  0  0  0
  184.4830  180.3800  138.9460 O   0  0  0  0  0  0  0  0  0  0  0  0
  183.1060  178.4940  138.8380 N   0  0  0  0  0  2  0  0  0  0  0  0
  182.0560  179.1420  138.0660 C   0  0  0  0  0  2  0  0  0  0  0  0
  183.5250  176.9360  135.7660 C   0  0  0  0  0  1  0  0  0  0  0  0
  181.0870  175.5860  139.9600 C   0  0  0  0  0  1  0  0  0  0  0  0
  180.9720  178.1410  137.6950 C   0  0  2  0  0  3  0  0  0  0  0  0
  180.2140  177.7140  138.9610 C   0  0  0  0  0  2  0  0  0  0  0  0
  182.0850  176.4870  135.9110 C   0  0  2  0  0  3  0  0  0  0  0  0
  181.5670  176.8230  137.2810 C   0  0  2  0  0  3  0  0  0  0  0  0
  182.0320  174.9550  135.9640 C   0  0  0  0  0  2  0  0  0  0  0  0
  180.1480  176.1770  138.9090 C   0  0  1  0  0  3  0  0  0  0  0  0
  180.5440  175.8590  137.5410 N   0  0  2  0  0  0  0  0  0  0  0  0
  181.2180  174.6160  137.2240 C   0  0  0  0  0  2  0  0  0  0  0  0
  1 26  1  0  0  0  0
  2  7  1  0  0  0  0
  2 22  1  0  0  0  0
  3 24  1  0  0  0  0
  4 12  2  0  0  0  0
  4 27  1  0  0  0  0
  5 32  1  6  0  0  0
  5 20  1  0  0  0  0
  5 21  1  0  0  0  0
  7  8  1  0  0  0  0
  8  6  2  0  0  0  0
  9 20  2  0  0  0  0
 10  8  1  0  0  0  0
 11 19  1  0  0  0  0
 13 21  1  0  0  0  0
 13  1  2  0  0  0  0
 14 15  2  0  0  0  0
 15 29  1  0  0  0  0
 15 28  1  0  0  0  0
 16 18  1  0  0  0  0
 17 31  1  1  0  0  0
 17 23  1  0  0  0  0
 17 11  1  0  0  0  0
 18  7  1  0  0  0  0
 19 14  1  0  0  0  0
 20 23  1  0  0  0  0
 21 16  2  0  0  0  0
 22 28  2  0  0  0  0
 23  3  1  0  0  0  0
 24 14  1  0  0  0  0
 24  2  2  0  0  0  0
 25 12  1  0  0  0  0
 26 18  2  0  0  0  0
 26 10  1  0  0  0  0
 28  4  1  0  0  0  0
 29 25  2  0  0  0  0
 30 31  1  0  0  0  0
 33 32  1  0  0  0  0
 34 33  2  0  0  0  0
 35 33  1  0  0  0  0
 36 35  1  0  0  0  0
 39 36  1  1  0  0  0
 39 40  1  0  0  0  0
 41 37  1  1  0  0  0
 41 43  1  0  0  0  0
 41 42  1  0  0  0  0
 42 45  1  0  0  0  0
 42 39  1  0  0  0  0
 43 46  1  0  0  0  0
 44 40  1  0  0  0  0
 44 38  1  0  0  0  0
 45 44  1  0  0  0  0
 46 45  1  0  0  0  0
M  END
>  <MODEL>
8

>  <REMARK>
 VINA RESULT:      -6.1      4.637      9.587
  Name = 
  5 active torsions:
  status: ('A' for Active; 'I' for Inactive)
    1  A    between atoms: C_5  and  C_29
    2  A    between atoms: C_9  and  C_29
    3  A    between atoms: C_15  and  C_20
    4  A    between atoms: C_20  and  N_34
    5  A    between atoms: C_24  and  O_33
                            x       y       z     vdW  Elec       q    Type
                         _______ _______ _______ _____ _____    ______ ____

>  <TORSDO>
F 5

$$$$
=
 OpenBabel10232409013D

 46 53  0  0  1  0  0  0  0  0999 V2000
  187.3100  178.5930  140.2800 C   0  0  0  0  0  3  0  0  0  0  0  0
  190.5490  176.0720  137.9410 C   0  0  0  0  0  0  0  0  0  0  0  0
  188.1110  175.2160  137.9290 C   0  0  0  0  0  2  0  0  0  0  0  0
  193.6490  174.6650  136.4300 C   0  0  0  0  0  0  0  0  0  0  0  0
  185.9080  177.3730  136.9410 C   0  0  2  0  0  3  0  0  0  0  0  0
  191.6830  176.6930  140.6050 O   0  0  0  0  0  0  0  0  0  0  0  0
  190.2550  177.2070  138.7900 N   0  0  0  0  0  0  0  0  0  0  0  0
  190.6570  177.2740  140.1610 C   0  0  0  0  0  0  0  0  0  0  0  0
  186.4700  176.3230  134.8920 O   0  0  0  0  0  0  0  0  0  0  0  0
  189.7120  178.0540  141.0230 C   0  0  0  0  0  2  0  0  0  0  0  0
  187.8050  172.7000  136.8830 C   0  0  0  0  0  2  0  0  0  0  0  0
  194.0330  173.5650  135.7300 N   0  0  0  0  0  0  0  0  0  0  0  0
  186.3860  178.4010  139.2390 C   0  0  0  0  0  3  0  0  0  0  0  0
  190.0250  173.9140  136.8660 C   0  0  0  0  0  0  0  0  0  0  0  0
  191.3750  173.8050  136.4840 C   0  0  0  0  0  0  0  0  0  0  0  0
  188.1940  177.9460  137.6910 C   0  0  0  0  0  3  0  0  0  0  0  0
  186.9810  173.7750  136.1770 C   0  0  1  0  0  3  0  0  0  0  0  0
  189.0750  177.9900  138.7490 C   0  0  0  0  0  0  0  0  0  0  0  0
  189.1820  172.8310  136.5440 O   0  0  0  0  0  0  0  0  0  0  0  0
  186.5660  176.2550  136.1470 C   0  0  0  0  0  0  0  0  0  0  0  0
  186.8260  178.0220  137.9500 C   0  0  0  0  0  0  0  0  0  0  0  0
  191.8810  175.9110  137.5610 C   0  0  0  0  0  3  0  0  0  0  0  0
  187.2290  175.1060  136.7490 N   0  0  0  0  0  0  0  0  0  0  0  0
  189.5790  175.0820  137.5560 C   0  0  0  0  0  0  0  0  0  0  0  0
  193.1560  172.5830  135.3940 C   0  0  0  0  0  3  0  0  0  0  0  0
  188.6610  178.3640  140.0130 C   0  0  0  0  0  0  0  0  0  0  0  0
  194.6760  175.6960  136.7650 C   0  0  0  0  0  1  0  0  0  0  0  0
  192.3030  174.8090  136.8230 C   0  0  0  0  0  0  0  0  0  0  0  0
  191.8160  172.6860  135.7660 C   0  0  0  0  0  3  0  0  0  0  0  0
  186.7710  172.5380  134.3480 C   0  0  0  0  0  1  0  0  0  0  0  0
  187.2730  173.7570  134.8080 O   0  0  0  0  0  0  0  0  0  0  0  0
  184.5950  176.8640  137.5340 C   0  0  0  0  0  2  0  0  0  0  0  0
  183.5090  176.9010  136.5150 C   0  0  0  0  0  0  0  0  0  0  0  0
  182.8810  177.9750  136.3070 O   0  0  0  0  0  0  0  0  0  0  0  0
  183.1770  175.7140  135.7930 N   0  0  0  0  0  2  0  0  0  0  0  0
  182.1500  175.6780  134.7610 C   0  0  0  0  0  2  0  0  0  0  0  0
  183.1560  172.3270  135.0400 C   0  0  0  0  0  1  0  0  0  0  0  0
  180.9280  175.0190  138.6650 C   0  0  0  0  0  1  0  0  0  0  0  0
  180.9300  174.9130  135.2510 C   0  0  2  0  0  3  0  0  0  0  0  0
  180.2330  175.7170  136.3590 C   0  0  0  0  0  2  0  0  0  0  0  0
  181.6900  172.3540  135.4230 C   0  0  2  0  0  3  0  0  0  0  0  0
  181.3290  173.6840  136.0210 C   0  0  2  0  0  3  0  0  0  0  0  0
  181.4620  171.4370  136.6310 C   0  0  0  0  0  2  0  0  0  0  0  0
  179.9820  174.7180  137.5030 C   0  0  1  0  0  3  0  0  0  0  0  0
  180.2250  173.4170  136.8880 N   0  0  2  0  0  0  0  0  0  0  0  0
  180.7190  172.2990  137.6660 C   0  0  0  0  0  2  0  0  0  0  0  0
  2  7  1  0  0  0  0
  4 27  1  0  0  0  0
  4 28  1  0  0  0  0
  5 32  1  1  0  0  0
  5 21  1  0  0  0  0
  7  8  1  0  0  0  0
  8  6  2  0  0  0  0
  8 10  1  0  0  0  0
  9 20  2  0  0  0  0
 12  4  2  0  0  0  0
 13  1  2  0  0  0  0
 14 24  1  0  0  0  0
 15 28  1  0  0  0  0
 15 14  2  0  0  0  0
 16 21  2  0  0  0  0
 16 18  1  0  0  0  0
 17 31  1  6  0  0  0
 17 23  1  0  0  0  0
 17 11  1  0  0  0  0
 18  7  1  0  0  0  0
 18 26  2  0  0  0  0
 19 14  1  0  0  0  0
 19 11  1  0  0  0  0
 20 23  1  0  0  0  0
 20  5  1  0  0  0  0
 21 13  1  0  0  0  0
 22  2  1  0  0  0  0
 23  3  1  0  0  0  0
 24  3  1  0  0  0  0
 24  2  2  0  0  0  0
 25 12  1  0  0  0  0
 25 29  2  0  0  0  0
 26  1  1  0  0  0  0
 26 10  1  0  0  0  0
 28 22  2  0  0  0  0
 29 15  1  0  0  0  0
 30 31  1  0  0  0  0
 33 32  1  0  0  0  0
 34 33  2  0  0  0  0
 35 33  1  0  0  0  0
 36 35  1  0  0  0  0
 39 36  1  1  0  0  0
 39 42  1  0  0  0  0
 39 40  1  0  0  0  0
 40 44  1  0  0  0  0
 41 37  1  1  0  0  0
 41 42  1  0  0  0  0
 41 43  1  0  0  0  0
 42 45  1  0  0  0  0
 43 46  1  0  0  0  0
 44 38  1  0  0  0  0
 45 44  1  0  0  0  0
 45 46  1  0  0  0  0
M  END
>  <MODEL>
9

>  <REMARK>
 VINA RESULT:      -5.7      3.614      9.762
  Name = 
  5 active torsions:
  status: ('A' for Active; 'I' for Inactive)
    1  A    between atoms: C_5  and  C_29
    2  A    between atoms: C_9  and  C_29
    3  A    between atoms: C_15  and  C_20
    4  A    between atoms: C_20  and  N_34
    5  A    between atoms: C_24  and  O_33
                            x       y       z     vdW  Elec       q    Type
                         _______ _______ _______ _____ _____    ______ ____

>  <TORSDO>
F 5

$$$$
