=
 OpenBabel10232408213D

 30 35  0  0  1  0  0  0  0  0999 V2000
  192.2040  175.6130  147.1100 N   0  0  0  0  0  0  0  0  0  0  0  0
  190.8920  177.2780  148.1850 O   0  0  0  0  0  0  0  0  0  0  0  0
  191.2570  175.9080  143.6430 C   0  0  0  0  0  3  0  0  0  0  0  0
  187.5560  177.9700  144.7870 C   0  0  0  0  0  0  0  0  0  0  0  0
  187.5510  178.0940  142.3840 N   0  0  0  0  0  0  0  0  0  0  0  0
  184.1950  178.3050  143.4040 N   0  0  0  0  0  0  0  0  0  0  0  0
  188.2230  177.9650  143.5660 C   0  0  0  0  0  0  0  0  0  0  0  0
  188.5550  177.8460  145.8170 C   0  0  0  0  0  0  0  0  0  0  0  0
  188.3220  177.7640  147.0520 O   0  0  0  0  0  0  0  0  0  0  0  0
  189.7110  177.8770  143.7580 C   0  0  1  0  0  3  0  0  0  0  0  0
  186.1950  178.1960  142.4540 C   0  0  0  0  0  0  0  0  0  0  0  0
  189.8540  177.7700  145.2290 N   0  0  0  0  0  0  0  0  0  0  0  0
  190.3420  176.6860  143.0350 C   0  0  0  0  0  0  0  0  0  0  0  0
  184.1470  178.3830  142.0470 C   0  0  0  0  0  0  0  0  0  0  0  0
  191.2920  176.7040  147.1390 C   0  0  0  0  0  0  0  0  0  0  0  0
  191.5860  176.1300  145.0560 C   0  0  0  0  0  0  0  0  0  0  0  0
  182.8680  178.5270  141.3010 C   0  0  0  0  0  1  0  0  0  0  0  0
  192.3700  175.2730  145.8910 N   0  0  0  0  0  0  0  0  0  0  0  0
  186.1600  178.0760  144.8710 C   0  0  0  0  0  3  0  0  0  0  0  0
  185.3530  178.3210  141.4210 N   0  0  0  0  0  2  0  0  0  0  0  0
  185.5100  178.1870  143.6380 C   0  0  0  0  0  0  0  0  0  0  0  0
  190.9410  177.0200  145.7740 C   0  0  0  0  0  0  0  0  0  0  0  0
  190.0800  176.4780  141.5810 C   0  0  0  0  0  2  0  0  0  0  0  0
  191.2640  176.7960  139.5840 C   0  0  0  0  0  2  0  0  0  0  0  0
  190.7930  177.4840  140.7960 N   0  0  0  0  0  0  0  0  0  0  0  0
  190.1810  177.7670  139.4670 C   0  0  2  0  0  3  0  0  0  0  0  0
  189.0360  176.0680  138.2530 F   0  0  0  0  0  0  0  0  0  0  0  0
  188.8500  177.0630  139.1960 C   0  0  2  0  0  3  0  0  0  0  0  0
  188.5050  179.1570  138.1140 O   0  0  0  0  0  1  0  0  0  0  0  0
  187.8400  178.0690  138.6780 C   0  0  0  0  0  2  0  0  0  0  0  0
  1 15  1  0  0  0  0
  3 16  1  0  0  0  0
  4 19  1  0  0  0  0
  4  8  1  0  0  0  0
  5 11  2  0  0  0  0
  5  7  1  0  0  0  0
  6 21  1  0  0  0  0
  7 10  1  0  0  0  0
  7  4  2  0  0  0  0
  8  9  2  0  0  0  0
 10 13  1  6  0  0  0
 10 12  1  0  0  0  0
 11 21  1  0  0  0  0
 12 22  1  0  0  0  0
 12  8  1  0  0  0  0
 13  3  2  0  0  0  0
 14  6  2  0  0  0  0
 15  2  2  0  0  0  0
 16 22  2  0  0  0  0
 16 18  1  0  0  0  0
 17 14  1  0  0  0  0
 18  1  2  0  0  0  0
 20 14  1  0  0  0  0
 20 11  1  0  0  0  0
 21 19  2  0  0  0  0
 22 15  1  0  0  0  0
 23 13  1  0  0  0  0
 24 25  1  0  0  0  0
 25 23  1  0  0  0  0
 26 28  1  1  0  0  0
 26 24  1  0  0  0  0
 26 25  1  0  0  0  0
 28 27  1  6  0  0  0
 29 30  1  0  0  0  0
 30 28  1  0  0  0  0
M  END
>  <MODEL>
1

>  <REMARK>
 VINA RESULT:      -9.2      0.000      0.000
  Name = 
  4 active torsions:
  status: ('A' for Active; 'I' for Inactive)
    1  A    between atoms: N_10  and  C_23
    2  A    between atoms: C_11  and  C_20
    3  A    between atoms: C_18  and  C_23
    4  A    between atoms: C_20  and  C_26
                            x       y       z     vdW  Elec       q    Type
                         _______ _______ _______ _____ _____    ______ ____

>  <TORSDO>
F 4

$$$$
=
 OpenBabel10232408213D

 30 35  0  0  1  0  0  0  0  0999 V2000
  189.3530  178.1200  148.6400 N   0  0  0  0  0  0  0  0  0  0  0  0
  191.1450  176.8050  147.7960 O   0  0  0  0  0  0  0  0  0  0  0  0
  186.9980  178.1800  145.9100 C   0  0  0  0  0  3  0  0  0  0  0  0
  190.1760  177.0780  143.0910 C   0  0  0  0  0  0  0  0  0  0  0  0
  188.1860  177.0340  141.7410 N   0  0  0  0  0  0  0  0  0  0  0  0
  190.8660  177.6410  139.5510 N   0  0  0  0  0  0  0  0  0  0  0  0
  188.7980  176.9540  142.9590 C   0  0  0  0  0  0  0  0  0  0  0  0
  190.4860  176.9150  144.4870 C   0  0  0  0  0  0  0  0  0  0  0  0
  191.6340  177.0160  144.9960 O   0  0  0  0  0  0  0  0  0  0  0  0
  188.1470  176.6590  144.2820 C   0  0  1  0  0  3  0  0  0  0  0  0
  188.9840  177.2730  140.6640 C   0  0  0  0  0  0  0  0  0  0  0  0
  189.2880  176.6810  145.2280 N   0  0  0  0  0  0  0  0  0  0  0  0
  187.0700  177.6750  144.6630 C   0  0  0  0  0  0  0  0  0  0  0  0
  189.7660  177.6200  138.7500 C   0  0  0  0  0  0  0  0  0  0  0  0
  189.9910  177.2930  147.6750 C   0  0  0  0  0  0  0  0  0  0  0  0
  188.0270  177.8380  146.8990 C   0  0  0  0  0  0  0  0  0  0  0  0
  189.8470  177.8250  137.2800 C   0  0  0  0  0  1  0  0  0  0  0  0
  188.2070  178.4440  148.1820 N   0  0  0  0  0  0  0  0  0  0  0  0
  191.0090  177.3240  141.9900 C   0  0  0  0  0  3  0  0  0  0  0  0
  188.5880  177.3970  139.3910 N   0  0  0  0  0  2  0  0  0  0  0  0
  190.3420  177.4180  140.7650 C   0  0  0  0  0  0  0  0  0  0  0  0
  189.0740  177.1170  146.5720 C   0  0  0  0  0  0  0  0  0  0  0  0
  185.9720  177.9870  143.7020 C   0  0  0  0  0  2  0  0  0  0  0  0
  184.5540  179.8260  144.0100 C   0  0  0  0  0  2  0  0  0  0  0  0
  184.7860  178.4340  144.4270 N   0  0  0  0  0  0  0  0  0  0  0  0
  183.6340  178.7910  143.5520 C   0  0  2  0  0  3  0  0  0  0  0  0
  184.5790  179.5300  141.4940 F   0  0  0  0  0  0  0  0  0  0  0  0
  183.8340  178.5110  142.0600 C   0  0  2  0  0  3  0  0  0  0  0  0
  181.4920  178.9190  142.2230 O   0  0  0  0  0  1  0  0  0  0  0  0
  182.4840  178.4290  141.3740 C   0  0  0  0  0  2  0  0  0  0  0  0
  3 16  1  0  0  0  0
  4  8  1  0  0  0  0
  5  7  1  0  0  0  0
  6 21  1  0  0  0  0
  7  4  2  0  0  0  0
  8  9  2  0  0  0  0
  8 12  1  0  0  0  0
 10  7  1  6  0  0  0
 10 13  1  0  0  0  0
 10 12  1  0  0  0  0
 11 21  1  0  0  0  0
 11  5  2  0  0  0  0
 12 22  1  0  0  0  0
 13  3  2  0  0  0  0
 14 20  1  0  0  0  0
 14  6  2  0  0  0  0
 15  2  2  0  0  0  0
 15  1  1  0  0  0  0
 16 18  1  0  0  0  0
 17 14  1  0  0  0  0
 18  1  2  0  0  0  0
 19  4  1  0  0  0  0
 20 11  1  0  0  0  0
 21 19  2  0  0  0  0
 22 16  2  0  0  0  0
 22 15  1  0  0  0  0
 23 25  1  0  0  0  0
 23 13  1  0  0  0  0
 24 25  1  0  0  0  0
 26 28  1  6  0  0  0
 26 24  1  0  0  0  0
 26 25  1  0  0  0  0
 28 27  1  6  0  0  0
 30 28  1  0  0  0  0
 30 29  1  0  0  0  0
M  END
>  <MODEL>
2

>  <REMARK>
 VINA RESULT:      -9.0      2.504      5.191
  Name = 
  4 active torsions:
  status: ('A' for Active; 'I' for Inactive)
    1  A    between atoms: N_10  and  C_23
    2  A    between atoms: C_11  and  C_20
    3  A    between atoms: C_18  and  C_23
    4  A    between atoms: C_20  and  C_26
                            x       y       z     vdW  Elec       q    Type
                         _______ _______ _______ _____ _____    ______ ____

>  <TORSDO>
F 4

$$$$
=
 OpenBabel10232408213D

 30 35  0  0  1  0  0  0  0  0999 V2000
  189.3390  178.2020  148.5920 N   0  0  0  0  0  0  0  0  0  0  0  0
  191.2390  176.9950  147.8260 O   0  0  0  0  0  0  0  0  0  0  0  0
  187.0460  178.0070  145.8160 C   0  0  0  0  0  3  0  0  0  0  0  0
  190.3560  177.0530  143.0960 C   0  0  0  0  0  0  0  0  0  0  0  0
  188.4030  176.8240  141.7100 N   0  0  0  0  0  0  0  0  0  0  0  0
  191.0800  177.5560  139.5550 N   0  0  0  0  0  0  0  0  0  0  0  0
  188.9930  176.8260  142.9420 C   0  0  0  0  0  0  0  0  0  0  0  0
  190.6460  176.9560  144.5030 C   0  0  0  0  0  0  0  0  0  0  0  0
  191.7720  177.1550  145.0310 O   0  0  0  0  0  0  0  0  0  0  0  0
  188.3370  176.5250  144.2610 C   0  0  1  0  0  3  0  0  0  0  0  0
  189.2060  177.0870  140.6420 C   0  0  0  0  0  0  0  0  0  0  0  0
  189.4520  176.6580  145.2270 N   0  0  0  0  0  0  0  0  0  0  0  0
  187.1810  177.4710  144.5880 C   0  0  0  0  0  0  0  0  0  0  0  0
  190.0030  177.4310  138.7330 C   0  0  0  0  0  0  0  0  0  0  0  0
  190.0560  177.3940  147.6670 C   0  0  0  0  0  0  0  0  0  0  0  0
  188.0750  177.7710  146.8360 C   0  0  0  0  0  0  0  0  0  0  0  0
  190.1010  177.5960  137.2590 C   0  0  0  0  0  1  0  0  0  0  0  0
  188.1830  178.4280  148.1010 N   0  0  0  0  0  0  0  0  0  0  0  0
  191.1930  177.3250  142.0040 C   0  0  0  0  0  3  0  0  0  0  0  0
  188.8300  177.1430  139.3580 N   0  0  0  0  0  2  0  0  0  0  0  0
  190.5470  177.3330  140.7640 C   0  0  0  0  0  0  0  0  0  0  0  0
  189.1780  177.1180  146.5520 C   0  0  0  0  0  0  0  0  0  0  0  0
  186.0850  177.6730  143.5960 C   0  0  0  0  0  2  0  0  0  0  0  0
  185.4440  179.1160  141.8650 C   0  0  0  0  0  2  0  0  0  0  0  0
  185.9970  179.0840  143.2270 N   0  0  0  0  0  0  0  0  0  0  0  0
  184.6100  179.5640  142.9740 C   0  0  2  0  0  3  0  0  0  0  0  0
  182.6600  178.4570  142.1710 F   0  0  0  0  0  0  0  0  0  0  0  0
  183.5020  178.5470  143.2640 C   0  0  2  0  0  3  0  0  0  0  0  0
  183.5600  179.1080  145.5790 O   0  0  0  0  0  1  0  0  0  0  0  0
  182.7110  178.9920  144.4790 C   0  0  0  0  0  2  0  0  0  0  0  0
  3 16  1  0  0  0  0
  4  8  1  0  0  0  0
  5  7  1  0  0  0  0
  6 21  1  0  0  0  0
  7  4  2  0  0  0  0
  8  9  2  0  0  0  0
  8 12  1  0  0  0  0
 10  7  1  6  0  0  0
 10 13  1  0  0  0  0
 10 12  1  0  0  0  0
 11 21  1  0  0  0  0
 11  5  2  0  0  0  0
 12 22  1  0  0  0  0
 13  3  2  0  0  0  0
 14 20  1  0  0  0  0
 14  6  2  0  0  0  0
 15  2  2  0  0  0  0
 15  1  1  0  0  0  0
 16 18  1  0  0  0  0
 17 14  1  0  0  0  0
 18  1  2  0  0  0  0
 19  4  1  0  0  0  0
 20 11  1  0  0  0  0
 21 19  2  0  0  0  0
 22 16  2  0  0  0  0
 22 15  1  0  0  0  0
 23 13  1  0  0  0  0
 24 26  1  0  0  0  0
 24 25  1  0  0  0  0
 25 23  1  0  0  0  0
 26 25  1  0  0  0  0
 26 28  1  1  0  0  0
 28 27  1  6  0  0  0
 28 30  1  0  0  0  0
 30 29  1  0  0  0  0
M  END
>  <MODEL>
3

>  <REMARK>
 VINA RESULT:      -8.9      2.621      5.264
  Name = 
  4 active torsions:
  status: ('A' for Active; 'I' for Inactive)
    1  A    between atoms: N_10  and  C_23
    2  A    between atoms: C_11  and  C_20
    3  A    between atoms: C_18  and  C_23
    4  A    between atoms: C_20  and  C_26
                            x       y       z     vdW  Elec       q    Type
                         _______ _______ _______ _____ _____    ______ ____

>  <TORSDO>
F 4

$$$$
=
 OpenBabel10232408213D

 30 35  0  0  1  0  0  0  0  0999 V2000
  183.2320  179.9180  139.4750 N   0  0  0  0  0  0  0  0  0  0  0  0
  181.8780  178.9970  141.1980 O   0  0  0  0  0  0  0  0  0  0  0  0
  186.5800  179.0180  140.4660 C   0  0  0  0  0  3  0  0  0  0  0  0
  185.2320  178.3870  144.5940 C   0  0  0  0  0  0  0  0  0  0  0  0
  187.5250  177.6630  144.6340 N   0  0  0  0  0  0  0  0  0  0  0  0
  186.7250  178.6280  147.9160 N   0  0  0  0  0  0  0  0  0  0  0  0
  186.3670  177.9030  143.9530 C   0  0  0  0  0  0  0  0  0  0  0  0
  184.1950  178.4960  143.6010 C   0  0  0  0  0  0  0  0  0  0  0  0
  183.0370  178.9490  143.8010 O   0  0  0  0  0  0  0  0  0  0  0  0
  186.0980  177.6330  142.4980 C   0  0  1  0  0  3  0  0  0  0  0  0
  187.5290  177.9510  145.9650 C   0  0  0  0  0  0  0  0  0  0  0  0
  184.6900  178.0680  142.3320 N   0  0  0  0  0  0  0  0  0  0  0  0
  187.0420  178.3860  141.5620 C   0  0  0  0  0  0  0  0  0  0  0  0
  188.0220  178.2250  147.9840 C   0  0  0  0  0  0  0  0  0  0  0  0
  183.0020  179.1570  140.6540 C   0  0  0  0  0  0  0  0  0  0  0  0
  185.1350  179.0820  140.2120 C   0  0  0  0  0  0  0  0  0  0  0  0
  188.7980  178.2450  149.2520 C   0  0  0  0  0  1  0  0  0  0  0  0
  184.4820  179.8790  139.2210 N   0  0  0  0  0  0  0  0  0  0  0  0
  185.2230  178.6860  145.9650 C   0  0  0  0  0  3  0  0  0  0  0  0
  188.5580  177.7990  146.8090 N   0  0  0  0  0  2  0  0  0  0  0  0
  186.4340  178.4440  146.6200 C   0  0  0  0  0  0  0  0  0  0  0  0
  184.2700  178.6110  141.0790 C   0  0  0  0  0  0  0  0  0  0  0  0
  188.5180  178.2800  141.7550 C   0  0  0  0  0  2  0  0  0  0  0  0
  190.2920  177.0350  140.8660 C   0  0  0  0  0  2  0  0  0  0  0  0
  188.9610  176.9160  141.4800 N   0  0  0  0  0  0  0  0  0  0  0  0
  190.1880  176.5100  142.2230 C   0  0  2  0  0  3  0  0  0  0  0  0
  191.7210  178.2770  142.6700 F   0  0  0  0  0  0  0  0  0  0  0  0
  190.7050  177.5320  143.2390 C   0  0  2  0  0  3  0  0  0  0  0  0
  191.8220  175.6030  144.0810 O   0  0  0  0  0  1  0  0  0  0  0  0
  191.2320  176.8070  144.4620 C   0  0  0  0  0  2  0  0  0  0  0  0
  1 15  1  0  0  0  0
  3 13  2  0  0  0  0
  4 19  1  0  0  0  0
  5 11  2  0  0  0  0
  6 14  2  0  0  0  0
  7  4  2  0  0  0  0
  7  5  1  0  0  0  0
  8  9  2  0  0  0  0
  8  4  1  0  0  0  0
 10 13  1  6  0  0  0
 10  7  1  0  0  0  0
 11 21  1  0  0  0  0
 11 20  1  0  0  0  0
 12 10  1  0  0  0  0
 12  8  1  0  0  0  0
 13 23  1  0  0  0  0
 14 17  1  0  0  0  0
 15 22  1  0  0  0  0
 15  2  2  0  0  0  0
 16  3  1  0  0  0  0
 16 22  2  0  0  0  0
 18  1  2  0  0  0  0
 18 16  1  0  0  0  0
 19 21  2  0  0  0  0
 20 14  1  0  0  0  0
 21  6  1  0  0  0  0
 22 12  1  0  0  0  0
 24 25  1  0  0  0  0
 24 26  1  0  0  0  0
 25 23  1  0  0  0  0
 25 26  1  0  0  0  0
 26 28  1  1  0  0  0
 28 27  1  6  0  0  0
 28 30  1  0  0  0  0
 29 30  1  0  0  0  0
M  END
>  <MODEL>
4

>  <REMARK>
 VINA RESULT:      -8.6      2.855      6.544
  Name = 
  4 active torsions:
  status: ('A' for Active; 'I' for Inactive)
    1  A    between atoms: N_10  and  C_23
    2  A    between atoms: C_11  and  C_20
    3  A    between atoms: C_18  and  C_23
    4  A    between atoms: C_20  and  C_26
                            x       y       z     vdW  Elec       q    Type
                         _______ _______ _______ _____ _____    ______ ____

>  <TORSDO>
F 4

$$$$
=
 OpenBabel10232408213D

 30 35  0  0  1  0  0  0  0  0999 V2000
  184.4420  178.4110  142.2450 N   0  0  0  0  0  0  0  0  0  0  0  0
  184.7810  179.5340  140.1770 O   0  0  0  0  0  0  0  0  0  0  0  0
  187.7560  177.3240  143.1620 C   0  0  0  0  0  3  0  0  0  0  0  0
  189.0880  177.7400  139.0010 C   0  0  0  0  0  0  0  0  0  0  0  0
  191.1100  177.2080  140.1890 N   0  0  0  0  0  0  0  0  0  0  0  0
  191.5960  176.1610  136.8700 N   0  0  0  0  0  0  0  0  0  0  0  0
  189.8410  177.7090  140.1690 C   0  0  0  0  0  0  0  0  0  0  0  0
  187.8250  178.3510  139.3240 C   0  0  0  0  0  0  0  0  0  0  0  0
  186.8630  178.5030  138.5260 O   0  0  0  0  0  0  0  0  0  0  0  0
  189.1010  178.3490  141.3110 C   0  0  1  0  0  3  0  0  0  0  0  0
  191.5950  176.7090  139.0180 C   0  0  0  0  0  0  0  0  0  0  0  0
  187.7970  178.7100  140.7060 N   0  0  0  0  0  0  0  0  0  0  0  0
  188.9330  177.4210  142.5150 C   0  0  0  0  0  0  0  0  0  0  0  0
  192.7590  175.8470  137.5020 C   0  0  0  0  0  0  0  0  0  0  0  0
  185.2360  178.9450  141.1920 C   0  0  0  0  0  0  0  0  0  0  0  0
  186.5780  178.0350  142.6490 C   0  0  0  0  0  0  0  0  0  0  0  0
  193.9000  175.2030  136.7990 C   0  0  0  0  0  1  0  0  0  0  0  0
  185.2290  177.8730  143.0930 N   0  0  0  0  0  0  0  0  0  0  0  0
  189.5750  177.2300  137.7880 C   0  0  0  0  0  3  0  0  0  0  0  0
  192.8030  176.1660  138.8240 N   0  0  0  0  0  2  0  0  0  0  0  0
  190.8710  176.7090  137.8560 C   0  0  0  0  0  0  0  0  0  0  0  0
  186.6210  178.6980  141.5170 C   0  0  0  0  0  0  0  0  0  0  0  0
  190.1270  176.7420  143.0990 C   0  0  0  0  0  2  0  0  0  0  0  0
  190.5070  178.6030  144.4700 C   0  0  0  0  0  2  0  0  0  0  0  0
  191.1360  177.7330  143.4650 N   0  0  0  0  0  0  0  0  0  0  0  0
  191.5530  177.6800  144.8950 C   0  0  2  0  0  3  0  0  0  0  0  0
  189.8200  176.9590  146.3610 F   0  0  0  0  0  0  0  0  0  0  0  0
  190.9600  176.5260  145.7080 C   0  0  2  0  0  3  0  0  0  0  0  0
  191.9870  176.9070  147.8230 O   0  0  0  0  0  1  0  0  0  0  0  0
  191.9770  176.0480  146.7250 C   0  0  0  0  0  2  0  0  0  0  0  0
  1 18  2  0  0  0  0
  2 15  2  0  0  0  0
  4  8  1  0  0  0  0
  4  7  2  0  0  0  0
  6 14  2  0  0  0  0
  6 21  1  0  0  0  0
  7  5  1  0  0  0  0
  8 12  1  0  0  0  0
  9  8  2  0  0  0  0
 10  7  1  6  0  0  0
 10 13  1  0  0  0  0
 11  5  2  0  0  0  0
 12 10  1  0  0  0  0
 12 22  1  0  0  0  0
 13 23  1  0  0  0  0
 13  3  2  0  0  0  0
 14 20  1  0  0  0  0
 15 22  1  0  0  0  0
 15  1  1  0  0  0  0
 16 18  1  0  0  0  0
 16  3  1  0  0  0  0
 17 14  1  0  0  0  0
 19 21  2  0  0  0  0
 19  4  1  0  0  0  0
 20 11  1  0  0  0  0
 21 11  1  0  0  0  0
 22 16  2  0  0  0  0
 23 25  1  0  0  0  0
 24 26  1  0  0  0  0
 25 24  1  0  0  0  0
 25 26  1  0  0  0  0
 26 28  1  1  0  0  0
 28 27  1  1  0  0  0
 28 30  1  0  0  0  0
 30 29  1  0  0  0  0
M  END
>  <MODEL>
5

>  <REMARK>
 VINA RESULT:      -8.5      2.430      7.360
  Name = 
  4 active torsions:
  status: ('A' for Active; 'I' for Inactive)
    1  A    between atoms: N_10  and  C_23
    2  A    between atoms: C_11  and  C_20
    3  A    between atoms: C_18  and  C_23
    4  A    between atoms: C_20  and  C_26
                            x       y       z     vdW  Elec       q    Type
                         _______ _______ _______ _____ _____    ______ ____

>  <TORSDO>
F 4

$$$$
=
 OpenBabel10232408213D

 30 35  0  0  1  0  0  0  0  0999 V2000
  186.3280  179.2880  148.1520 N   0  0  0  0  0  0  0  0  0  0  0  0
  188.1880  177.8520  148.5140 O   0  0  0  0  0  0  0  0  0  0  0  0
  185.6250  178.8790  144.6380 C   0  0  0  0  0  3  0  0  0  0  0  0
  189.6730  177.3230  143.9670 C   0  0  0  0  0  0  0  0  0  0  0  0
  188.6010  177.0470  141.8310 N   0  0  0  0  0  0  0  0  0  0  0  0
  192.0500  177.2790  141.1980 N   0  0  0  0  0  0  0  0  0  0  0  0
  188.5300  177.1750  143.1880 C   0  0  0  0  0  0  0  0  0  0  0  0
  189.2450  177.3990  145.3400 C   0  0  0  0  0  0  0  0  0  0  0  0
  190.0000  177.5870  146.3300 O   0  0  0  0  0  0  0  0  0  0  0  0
  187.2940  177.1080  144.0420 C   0  0  1  0  0  3  0  0  0  0  0  0
  189.8420  177.1020  141.2710 C   0  0  0  0  0  0  0  0  0  0  0  0
  187.8230  177.2910  145.4130 N   0  0  0  0  0  0  0  0  0  0  0  0
  186.2560  178.1720  143.6820 C   0  0  0  0  0  0  0  0  0  0  0  0
  191.4860  177.1210  139.9700 C   0  0  0  0  0  0  0  0  0  0  0  0
  187.2860  178.3100  147.7650 C   0  0  0  0  0  0  0  0  0  0  0  0
  186.0060  178.7120  146.0460 C   0  0  0  0  0  0  0  0  0  0  0  0
  192.2920  177.0740  138.7220 C   0  0  0  0  0  1  0  0  0  0  0  0
  185.5840  179.5270  147.1430 N   0  0  0  0  0  0  0  0  0  0  0  0
  190.9550  177.3800  143.4020 C   0  0  0  0  0  3  0  0  0  0  0  0
  190.1300  177.0070  139.9670 N   0  0  0  0  0  2  0  0  0  0  0  0
  190.9830  177.2640  142.0090 C   0  0  0  0  0  0  0  0  0  0  0  0
  187.0160  177.9480  146.3930 C   0  0  0  0  0  0  0  0  0  0  0  0
  185.7990  178.3140  142.2690 C   0  0  0  0  0  2  0  0  0  0  0  0
  183.5280  178.8090  141.9760 C   0  0  0  0  0  2  0  0  0  0  0  0
  184.4840  177.6990  142.1050 N   0  0  0  0  0  0  0  0  0  0  0  0
  183.8280  177.9980  140.8010 C   0  0  2  0  0  3  0  0  0  0  0  0
  184.1110  180.0250  139.5830 F   0  0  0  0  0  0  0  0  0  0  0  0
  184.6820  178.7850  139.8040 C   0  0  2  0  0  3  0  0  0  0  0  0
  186.0270  178.1930  137.9290 O   0  0  0  0  0  1  0  0  0  0  0  0
  184.7650  178.0240  138.4950 C   0  0  0  0  0  2  0  0  0  0  0  0
  3 16  1  0  0  0  0
  4  8  1  0  0  0  0
  5  7  1  0  0  0  0
  6 21  1  0  0  0  0
  7  4  2  0  0  0  0
  8 12  1  0  0  0  0
  8  9  2  0  0  0  0
 10  7  1  6  0  0  0
 10 12  1  0  0  0  0
 11  5  2  0  0  0  0
 11 21  1  0  0  0  0
 12 22  1  0  0  0  0
 13 10  1  0  0  0  0
 13  3  2  0  0  0  0
 14  6  2  0  0  0  0
 15  1  1  0  0  0  0
 15  2  2  0  0  0  0
 16 22  2  0  0  0  0
 16 18  1  0  0  0  0
 17 14  1  0  0  0  0
 18  1  2  0  0  0  0
 19  4  1  0  0  0  0
 20 14  1  0  0  0  0
 20 11  1  0  0  0  0
 21 19  2  0  0  0  0
 22 15  1  0  0  0  0
 23 13  1  0  0  0  0
 24 25  1  0  0  0  0
 25 23  1  0  0  0  0
 26 28  1  6  0  0  0
 26 24  1  0  0  0  0
 26 25  1  0  0  0  0
 28 27  1  6  0  0  0
 29 30  1  0  0  0  0
 30 28  1  0  0  0  0
M  END
>  <MODEL>
6

>  <REMARK>
 VINA RESULT:      -8.2      2.317      5.364
  Name = 
  4 active torsions:
  status: ('A' for Active; 'I' for Inactive)
    1  A    between atoms: N_10  and  C_23
    2  A    between atoms: C_11  and  C_20
    3  A    between atoms: C_18  and  C_23
    4  A    between atoms: C_20  and  C_26
                            x       y       z     vdW  Elec       q    Type
                         _______ _______ _______ _____ _____    ______ ____

>  <TORSDO>
F 4

$$$$
=
 OpenBabel10232408213D

 30 35  0  0  1  0  0  0  0  0999 V2000
  188.0570  178.1040  148.4560 N   0  0  0  0  0  0  0  0  0  0  0  0
  189.6450  176.6020  147.5220 O   0  0  0  0  0  0  0  0  0  0  0  0
  185.8430  178.8080  145.6980 C   0  0  0  0  0  3  0  0  0  0  0  0
  188.9050  177.4790  142.8490 C   0  0  0  0  0  0  0  0  0  0  0  0
  186.9840  177.8900  141.4600 N   0  0  0  0  0  0  0  0  0  0  0  0
  189.8050  178.2590  139.3980 N   0  0  0  0  0  0  0  0  0  0  0  0
  187.5300  177.5950  142.6760 C   0  0  0  0  0  0  0  0  0  0  0  0
  189.1340  177.1350  144.2280 C   0  0  0  0  0  0  0  0  0  0  0  0
  190.2630  176.9980  144.7680 O   0  0  0  0  0  0  0  0  0  0  0  0
  186.7930  177.2840  143.9500 C   0  0  1  0  0  3  0  0  0  0  0  0
  187.8490  178.0980  140.4300 C   0  0  0  0  0  0  0  0  0  0  0  0
  187.8870  177.0290  144.9160 N   0  0  0  0  0  0  0  0  0  0  0  0
  185.8790  178.4210  144.4090 C   0  0  0  0  0  0  0  0  0  0  0  0
  188.7460  178.4950  138.5770 C   0  0  0  0  0  0  0  0  0  0  0  0
  188.5890  177.2810  147.4260 C   0  0  0  0  0  0  0  0  0  0  0  0
  186.7680  178.2110  146.6690 C   0  0  0  0  0  0  0  0  0  0  0  0
  188.9130  178.8240  137.1360 C   0  0  0  0  0  1  0  0  0  0  0  0
  186.9950  178.6530  148.0090 N   0  0  0  0  0  0  0  0  0  0  0  0
  189.8070  177.6910  141.7950 C   0  0  0  0  0  3  0  0  0  0  0  0
  187.5250  178.4060  139.1680 N   0  0  0  0  0  2  0  0  0  0  0  0
  189.2080  178.0090  140.5720 C   0  0  0  0  0  0  0  0  0  0  0  0
  187.6970  177.3630  146.2920 C   0  0  0  0  0  0  0  0  0  0  0  0
  184.8810  178.9980  143.4610 C   0  0  0  0  0  2  0  0  0  0  0  0
  182.6010  179.5370  143.4350 C   0  0  0  0  0  2  0  0  0  0  0  0
  183.5530  178.4600  143.7450 N   0  0  0  0  0  0  0  0  0  0  0  0
  182.6610  178.3750  142.5550 C   0  0  2  0  0  3  0  0  0  0  0  0
  182.5330  179.6730  140.5620 F   0  0  0  0  0  0  0  0  0  0  0  0
  183.3150  178.7410  141.2200 C   0  0  2  0  0  3  0  0  0  0  0  0
  182.1850  176.9850  140.0720 O   0  0  0  0  0  1  0  0  0  0  0  0
  183.4490  177.4960  140.3640 C   0  0  0  0  0  2  0  0  0  0  0  0
  3 16  1  0  0  0  0
  4  8  1  0  0  0  0
  5  7  1  0  0  0  0
  6 21  1  0  0  0  0
  7  4  2  0  0  0  0
  8  9  2  0  0  0  0
  8 12  1  0  0  0  0
 10  7  1  6  0  0  0
 10 13  1  0  0  0  0
 10 12  1  0  0  0  0
 11 21  1  0  0  0  0
 11  5  2  0  0  0  0
 12 22  1  0  0  0  0
 13  3  2  0  0  0  0
 14 20  1  0  0  0  0
 14  6  2  0  0  0  0
 15  2  2  0  0  0  0
 15  1  1  0  0  0  0
 16 18  1  0  0  0  0
 17 14  1  0  0  0  0
 18  1  2  0  0  0  0
 19  4  1  0  0  0  0
 20 11  1  0  0  0  0
 21 19  2  0  0  0  0
 22 16  2  0  0  0  0
 22 15  1  0  0  0  0
 23 25  1  0  0  0  0
 23 13  1  0  0  0  0
 24 25  1  0  0  0  0
 26 28  1  6  0  0  0
 26 24  1  0  0  0  0
 26 25  1  0  0  0  0
 28 27  1  6  0  0  0
 29 30  1  0  0  0  0
 30 28  1  0  0  0  0
M  END
>  <MODEL>
7

>  <REMARK>
 VINA RESULT:      -8.2      2.778      5.329
  Name = 
  4 active torsions:
  status: ('A' for Active; 'I' for Inactive)
    1  A    between atoms: N_10  and  C_23
    2  A    between atoms: C_11  and  C_20
    3  A    between atoms: C_18  and  C_23
    4  A    between atoms: C_20  and  C_26
                            x       y       z     vdW  Elec       q    Type
                         _______ _______ _______ _____ _____    ______ ____

>  <TORSDO>
F 4

$$$$
=
 OpenBabel10232408213D

 30 35  0  0  1  0  0  0  0  0999 V2000
  184.8540  179.6680  141.4240 N   0  0  0  0  0  0  0  0  0  0  0  0
  184.0610  178.8910  143.5260 O   0  0  0  0  0  0  0  0  0  0  0  0
  188.0580  178.0470  141.0850 C   0  0  0  0  0  3  0  0  0  0  0  0
  188.2110  177.3540  145.4160 C   0  0  0  0  0  0  0  0  0  0  0  0
  190.1490  176.1920  144.5910 N   0  0  0  0  0  0  0  0  0  0  0  0
  190.8290  177.0200  147.9370 N   0  0  0  0  0  0  0  0  0  0  0  0
  188.9010  176.7110  144.3950 C   0  0  0  0  0  0  0  0  0  0  0  0
  186.9320  177.7460  144.8840 C   0  0  0  0  0  0  0  0  0  0  0  0
  186.0530  178.4000  145.5050 O   0  0  0  0  0  0  0  0  0  0  0  0
  188.0680  176.6210  143.1460 C   0  0  1  0  0  3  0  0  0  0  0  0
  190.7000  176.3620  145.8250 C   0  0  0  0  0  0  0  0  0  0  0  0
  186.8250  177.3360  143.5200 N   0  0  0  0  0  0  0  0  0  0  0  0
  188.7430  177.2480  141.9260 C   0  0  0  0  0  0  0  0  0  0  0  0
  191.9430  176.3650  147.5130 C   0  0  0  0  0  0  0  0  0  0  0  0
  184.9140  178.8720  142.6020 C   0  0  0  0  0  0  0  0  0  0  0  0
  186.6700  178.4150  141.3910 C   0  0  0  0  0  0  0  0  0  0  0  0
  193.1140  176.1270  148.3980 C   0  0  0  0  0  1  0  0  0  0  0  0
  185.8860  179.4050  140.7210 N   0  0  0  0  0  0  0  0  0  0  0  0
  188.7670  177.5340  146.6910 C   0  0  0  0  0  3  0  0  0  0  0  0
  191.9080  175.9410  146.2210 N   0  0  0  0  0  2  0  0  0  0  0  0
  190.0530  177.0050  146.8440 C   0  0  0  0  0  0  0  0  0  0  0  0
  186.1020  178.0530  142.5180 C   0  0  0  0  0  0  0  0  0  0  0  0
  190.1280  176.8380  141.5520 C   0  0  0  0  0  2  0  0  0  0  0  0
  192.1030  177.3880  140.4180 C   0  0  0  0  0  2  0  0  0  0  0  0
  190.7680  177.8940  140.7720 N   0  0  0  0  0  0  0  0  0  0  0  0
  191.0950  177.5060  139.3710 C   0  0  2  0  0  3  0  0  0  0  0  0
  191.6600  175.3710  138.4780 F   0  0  0  0  0  0  0  0  0  0  0  0
  190.5960  176.1230  138.9420 C   0  0  2  0  0  3  0  0  0  0  0  0
  189.6420  177.5570  137.2950 O   0  0  0  0  0  1  0  0  0  0  0  0
  189.5640  176.2760  137.8400 C   0  0  0  0  0  2  0  0  0  0  0  0
  1 15  1  0  0  0  0
  3 16  1  0  0  0  0
  3 13  2  0  0  0  0
  4 19  1  0  0  0  0
  5 11  2  0  0  0  0
  7  5  1  0  0  0  0
  7  4  2  0  0  0  0
  8  4  1  0  0  0  0
  8  9  2  0  0  0  0
 10 13  1  6  0  0  0
 10 12  1  0  0  0  0
 10  7  1  0  0  0  0
 11 20  1  0  0  0  0
 11 21  1  0  0  0  0
 12  8  1  0  0  0  0
 14  6  2  0  0  0  0
 14 17  1  0  0  0  0
 15  2  2  0  0  0  0
 16 22  2  0  0  0  0
 18 16  1  0  0  0  0
 18  1  2  0  0  0  0
 19 21  2  0  0  0  0
 20 14  1  0  0  0  0
 21  6  1  0  0  0  0
 22 15  1  0  0  0  0
 22 12  1  0  0  0  0
 23 13  1  0  0  0  0
 24 25  1  0  0  0  0
 25 23  1  0  0  0  0
 26 28  1  1  0  0  0
 26 24  1  0  0  0  0
 26 25  1  0  0  0  0
 28 27  1  6  0  0  0
 29 30  1  0  0  0  0
 30 28  1  0  0  0  0
M  END
>  <MODEL>
8

>  <REMARK>
 VINA RESULT:      -8.1      1.850      5.697
  Name = 
  4 active torsions:
  status: ('A' for Active; 'I' for Inactive)
    1  A    between atoms: N_10  and  C_23
    2  A    between atoms: C_11  and  C_20
    3  A    between atoms: C_18  and  C_23
    4  A    between atoms: C_20  and  C_26
                            x       y       z     vdW  Elec       q    Type
                         _______ _______ _______ _____ _____    ______ ____

>  <TORSDO>
F 4

$$$$
=
 OpenBabel10232408213D

 30 35  0  0  1  0  0  0  0  0999 V2000
  191.1800  176.0710  144.1400 N   0  0  0  0  0  0  0  0  0  0  0  0
  189.6870  177.1330  145.6550 O   0  0  0  0  0  0  0  0  0  0  0  0
  190.0330  177.1880  140.9090 C   0  0  0  0  0  3  0  0  0  0  0  0
  186.1250  178.2290  142.6120 C   0  0  0  0  0  0  0  0  0  0  0  0
  185.9840  179.0300  140.3480 N   0  0  0  0  0  0  0  0  0  0  0  0
  182.6880  178.4100  141.3960 N   0  0  0  0  0  0  0  0  0  0  0  0
  186.7240  178.6760  141.4390 C   0  0  0  0  0  0  0  0  0  0  0  0
  187.1790  177.9760  143.5590 C   0  0  0  0  0  0  0  0  0  0  0  0
  187.0220  177.5090  144.7180 O   0  0  0  0  0  0  0  0  0  0  0  0
  188.2170  178.7730  141.5930 C   0  0  1  0  0  3  0  0  0  0  0  0
  184.6330  178.8930  140.4480 C   0  0  0  0  0  0  0  0  0  0  0  0
  188.4450  178.2760  142.9700 N   0  0  0  0  0  0  0  0  0  0  0  0
  188.9830  177.9530  140.5550 C   0  0  0  0  0  0  0  0  0  0  0  0
  182.5630  178.8620  140.1190 C   0  0  0  0  0  0  0  0  0  0  0  0
  190.1180  176.9500  144.4860 C   0  0  0  0  0  0  0  0  0  0  0  0
  190.3930  177.0470  142.3250 C   0  0  0  0  0  0  0  0  0  0  0  0
  181.2420  179.0090  139.4510 C   0  0  0  0  0  1  0  0  0  0  0  0
  191.3360  176.1230  142.8740 N   0  0  0  0  0  0  0  0  0  0  0  0
  184.7340  178.0850  142.7280 C   0  0  0  0  0  3  0  0  0  0  0  0
  183.7320  179.1720  139.4970 N   0  0  0  0  0  2  0  0  0  0  0  0
  184.0150  178.4390  141.5820 C   0  0  0  0  0  0  0  0  0  0  0  0
  189.6570  177.5830  143.2710 C   0  0  0  0  0  0  0  0  0  0  0  0
  188.6850  178.1290  139.1030 C   0  0  0  0  0  2  0  0  0  0  0  0
  187.7510  177.2070  137.1630 C   0  0  0  0  0  2  0  0  0  0  0  0
  188.0850  176.9120  138.5650 N   0  0  0  0  0  0  0  0  0  0  0  0
  188.8530  176.2950  137.4460 C   0  0  2  0  0  3  0  0  0  0  0  0
  190.2590  177.2640  135.7860 F   0  0  0  0  0  0  0  0  0  0  0  0
  190.1970  176.9570  137.1330 C   0  0  2  0  0  3  0  0  0  0  0  0
  190.8060  174.8640  138.0950 O   0  0  0  0  0  1  0  0  0  0  0  0
  191.3250  176.0080  137.4890 C   0  0  0  0  0  2  0  0  0  0  0  0
  1 15  1  0  0  0  0
  3 16  1  0  0  0  0
  4 19  1  0  0  0  0
  4  8  1  0  0  0  0
  5 11  2  0  0  0  0
  5  7  1  0  0  0  0
  6 21  1  0  0  0  0
  7 10  1  0  0  0  0
  7  4  2  0  0  0  0
  8  9  2  0  0  0  0
 10 13  1  6  0  0  0
 10 12  1  0  0  0  0
 11 21  1  0  0  0  0
 12 22  1  0  0  0  0
 12  8  1  0  0  0  0
 13  3  2  0  0  0  0
 14  6  2  0  0  0  0
 15  2  2  0  0  0  0
 16 18  1  0  0  0  0
 16 22  2  0  0  0  0
 17 14  1  0  0  0  0
 18  1  2  0  0  0  0
 20 14  1  0  0  0  0
 20 11  1  0  0  0  0
 21 19  2  0  0  0  0
 22 15  1  0  0  0  0
 23 13  1  0  0  0  0
 24 26  1  0  0  0  0
 24 25  1  0  0  0  0
 25 23  1  0  0  0  0
 26 28  1  1  0  0  0
 26 25  1  0  0  0  0
 28 27  1  6  0  0  0
 28 30  1  0  0  0  0
 30 29  1  0  0  0  0
M  END
>  <MODEL>
9

>  <REMARK>
 VINA RESULT:      -7.8      2.074      3.050
  Name = 
  4 active torsions:
  status: ('A' for Active; 'I' for Inactive)
    1  A    between atoms: N_10  and  C_23
    2  A    between atoms: C_11  and  C_20
    3  A    between atoms: C_18  and  C_23
    4  A    between atoms: C_20  and  C_26
                            x       y       z     vdW  Elec       q    Type
                         _______ _______ _______ _____ _____    ______ ____

>  <TORSDO>
F 4

$$$$
