=
 OpenBabel10222421283D

 69 77  0  0  1  0  0  0  0  0999 V2000
  189.8040  176.3620  138.4930 C   0  0  1  0  0  3  0  0  0  0  0  0
  189.8610  177.2300  139.7510 C   0  0  2  0  0  3  0  0  0  0  0  0
  191.0060  176.8970  140.7210 C   0  0  0  0  0  2  0  0  0  0  0  0
  190.8700  177.5350  142.1030 C   0  0  0  0  0  2  0  0  0  0  0  0
  191.7390  176.8200  143.1260 C   0  0  0  0  0  2  0  0  0  0  0  0
  189.8760  177.3190  144.7630 C   0  0  0  0  0  3  0  0  0  0  0  0
  190.2120  176.9030  147.1230 C   0  0  0  0  0  3  0  0  0  0  0  0
  189.3870  177.3190  146.0750 C   0  0  0  0  0  0  0  0  0  0  0  0
  191.9870  176.5260  145.5630 N   0  0  0  0  0  0  0  0  0  0  0  0
  192.3880  176.1290  147.9100 N   0  0  0  0  0  1  0  0  0  0  0  0
  191.5260  176.5190  146.8470 C   0  0  0  0  0  0  0  0  0  0  0  0
  191.1940  176.9100  144.5190 C   0  0  0  0  0  0  0  0  0  0  0  0
  187.6680  178.1690  148.7950 O   0  0  0  0  0  0  0  0  0  0  0  0
  187.3400  178.1290  147.5800 C   0  0  0  0  0  0  0  0  0  0  0  0
  186.5430  177.0830  144.6450 N   0  0  0  0  0  1  0  0  0  0  0  0
  188.0570  177.7600  146.3430 N   0  0  0  0  0  0  0  0  0  0  0  0
  185.7840  178.4610  146.7120 S   0  0  0  0  0  0  0  0  0  0  0  0
  186.9600  178.1780  145.5040 C   0  0  2  0  0  3  0  0  0  0  0  0
  188.4870  177.3030  140.4060 C   0  0  0  0  0  2  0  0  0  0  0  0
  186.6060  178.7300  140.0400 O   0  0  0  0  0  0  0  0  0  0  0  0
  186.8680  178.8310  141.4190 C   0  0  0  0  0  2  0  0  0  0  0  0
  187.9590  178.7240  140.4250 C   0  0  1  0  0  3  0  0  0  0  0  0
  188.6570  176.7690  137.5870 C   0  0  0  0  0  2  0  0  0  0  0  0
  185.6770  174.0870  136.3940 C   0  0  0  0  0  0  0  0  0  0  0  0
  184.8000  173.2080  136.1860 O   0  0  0  0  0  0  0  0  0  0  0  0
  185.3830  175.3070  137.1870 C   0  0  0  0  0  0  0  0  0  0  0  0
  187.0730  173.8700  135.8770 C   0  0  2  0  0  3  0  0  0  0  0  0
  186.4710  176.1090  137.5400 O   0  0  0  0  0  0  0  0  0  0  0  0
  187.7640  175.6330  137.4240 N   0  0  0  0  0  0  0  0  0  0  0  0
  187.9430  175.1170  136.0690 C   0  0  0  0  0  2  0  0  0  0  0  0
  184.1600  175.6920  137.5670 C   0  0  0  0  0  3  0  0  0  0  0  0
  187.0370  173.5410  134.5330 F   0  0  0  0  0  0  0  0  0  0  0  0
  182.8940  174.9710  137.2340 C   0  0  2  0  0  3  0  0  0  0  0  0
  182.4920  175.3130  135.9460 O   0  0  0  0  0  1  0  0  0  0  0  0
  181.8130  175.3750  138.2220 C   0  0  0  0  0  2  0  0  0  0  0  0
  180.8090  176.3220  137.5830 C   0  0  0  0  0  2  0  0  0  0  0  0
  180.4320  178.4670  144.5360 F   0  0  0  0  0  0  0  0  0  0  0  0
  181.2010  177.7290  139.6270 C   0  0  1  0  0  3  0  0  0  0  0  0
  180.9570  177.7410  138.1050 C   0  0  1  0  0  3  0  0  0  0  0  0
  182.4700  178.5020  140.0530 C   0  0  1  0  0  3  0  0  0  0  0  0
  181.5230  178.6150  143.7410 C   0  0  0  0  0  0  0  0  0  0  0  0
  183.8680  179.0250  143.5110 N   0  0  0  0  0  0  0  0  0  0  0  0
  182.5320  179.8810  139.3830 C   0  0  0  0  0  2  0  0  0  0  0  0
  179.9830  178.2980  140.3540 C   0  0  0  0  0  2  0  0  0  0  0  0
  180.1730  178.2220  141.7660 O   0  0  0  0  0  0  0  0  0  0  0  0
  181.4120  178.5010  142.3530 C   0  0  0  0  0  0  0  0  0  0  0  0
  182.3280  179.8310  137.8660 C   0  0  0  0  0  2  0  0  0  0  0  0
  182.0910  178.4190  137.3350 C   0  0  0  0  0  2  0  0  0  0  0  0
  182.5580  178.6360  141.5500 C   0  0  0  0  0  0  0  0  0  0  0  0
  182.7710  178.8810  144.3050 C   0  0  0  0  0  3  0  0  0  0  0  0
  183.7880  178.9110  142.1590 C   0  0  0  0  0  3  0  0  0  0  0  0
  191.0270  176.3560  137.7710 O   0  0  0  0  0  0  0  0  0  0  0  0
  191.5020  175.2010  137.1420 C   0  0  0  0  0  0  0  0  0  0  0  0
  191.1160  174.0590  137.5210 O   0  0  0  0  0  0  0  0  0  0  0  0
  192.8540  173.9970  135.3830 C   0  0  0  0  0  2  0  0  0  0  0  0
  194.9850  175.6480  135.7850 C   0  0  0  0  0  2  0  0  0  0  0  0
  193.7450  176.0960  136.5480 C   0  0  0  0  0  2  0  0  0  0  0  0
  192.5130  175.3420  136.0450 C   0  0  2  0  0  3  0  0  0  0  0  0
  195.2760  174.2340  136.0640 N   0  0  0  0  0  0  0  0  0  0  0  0
  194.0840  173.3590  136.0380 C   0  0  0  0  0  2  0  0  0  0  0  0
  196.1830  173.7670  135.0250 C   0  0  0  0  0  2  0  0  0  0  0  0
  197.1140  172.7010  135.5800 C   0  0  0  0  0  2  0  0  0  0  0  0
  196.8470  171.4260  134.9330 N   0  0  0  0  0  2  0  0  0  0  0  0
  194.9020  169.9210  137.3600 C   0  0  0  0  0  3  0  0  0  0  0  0
  195.8330  170.7060  138.1680 N   0  0  0  0  0  0  0  0  0  0  0  0
  195.5450  169.7470  136.0480 C   0  0  0  0  0  0  0  0  0  0  0  0
  196.9880  171.0600  137.3320 C   0  0  0  0  0  2  0  0  0  0  0  0
  195.0490  169.1040  135.1360 O   0  0  0  0  0  0  0  0  0  0  0  0
  196.8610  170.4020  135.9650 C   0  0  2  0  0  3  0  0  0  0  0  0
  1 23  1  6  0  0  0
  1  2  1  0  0  0  0
  2 19  1  1  0  0  0
  2  3  1  0  0  0  0
  3  4  1  0  0  0  0
  4  5  1  0  0  0  0
  5 12  1  0  0  0  0
  6  8  1  0  0  0  0
  8 16  1  0  0  0  0
  8  7  2  0  0  0  0
  9 11  2  0  0  0  0
 11  7  1  0  0  0  0
 11 10  1  0  0  0  0
 12  6  2  0  0  0  0
 12  9  1  0  0  0  0
 14 13  2  0  0  0  0
 16 14  1  0  0  0  0
 17 14  1  0  0  0  0
 18 15  1  6  0  0  0
 18 16  1  0  0  0  0
 18 17  1  0  0  0  0
 20 22  1  0  0  0  0
 20 21  1  0  0  0  0
 22 19  1  1  0  0  0
 22 21  1  0  0  0  0
 24 26  1  0  0  0  0
 25 24  2  0  0  0  0
 26 28  1  0  0  0  0
 26 31  2  0  0  0  0
 27 32  1  6  0  0  0
 27 30  1  0  0  0  0
 27 24  1  0  0  0  0
 29 28  1  0  0  0  0
 29 23  1  0  0  0  0
 30 29  1  0  0  0  0
 33 34  1  6  0  0  0
 33 31  1  0  0  0  0
 33 35  1  0  0  0  0
 36 35  1  0  0  0  0
 38 40  1  0  0  0  0
 38 44  1  1  0  0  0
 39 36  1  6  0  0  0
 39 38  1  0  0  0  0
 40 43  1  6  0  0  0
 40 49  1  0  0  0  0
 41 50  1  0  0  0  0
 41 37  1  0  0  0  0
 42 50  2  0  0  0  0
 44 45  1  0  0  0  0
 45 46  1  0  0  0  0
 46 41  2  0  0  0  0
 47 43  1  0  0  0  0
 48 47  1  0  0  0  0
 48 39  1  0  0  0  0
 49 51  2  0  0  0  0
 49 46  1  0  0  0  0
 51 42  1  0  0  0  0
 52  1  1  0  0  0  0
 53 54  2  0  0  0  0
 53 52  1  0  0  0  0
 55 60  1  0  0  0  0
 55 58  1  0  0  0  0
 56 59  1  0  0  0  0
 56 57  1  0  0  0  0
 58 57  1  0  0  0  0
 58 53  1  1  0  0  0
 60 59  1  0  0  0  0
 61 62  1  0  0  0  0
 61 59  1  0  0  0  0
 63 62  1  0  0  0  0
 64 65  2  0  0  0  0
 66 64  1  0  0  0  0
 67 65  1  0  0  0  0
 68 66  2  0  0  0  0
 69 63  1  6  0  0  0
 69 66  1  0  0  0  0
 69 67  1  0  0  0  0
M  END
>  <MODEL>
1

>  <REMARK>
 VINA RESULT:      -8.0      0.000      0.000
  Name = 
  21 active torsions:
  status: ('A' for Active; 'I' for Inactive)
    1  A    between atoms: C_8  and  C_9
    2  A    between atoms: C_8  and  C_37
    3  A    between atoms: C_9  and  C_11
    4  A    between atoms: C_10  and  C_56
    5  A    between atoms: C_10  and  N_66
    6  A    between atoms: C_15  and  C_54
    7  A    between atoms: C_15  and  C_62
    8  A    between atoms: C_18  and  C_51
    9  A    between atoms: C_18  and  C_65
   10  A    between atoms: C_20  and  N_42
   11  A    between atoms: O_26  and  C_27
   12  A    between atoms: O_26  and  C_45
   13  A    between atoms: C_27  and  C_33
   14  A    between atoms: C_37  and  C_59
   15  A    between atoms: N_39  and  C_41
   16  A    between atoms: C_41  and  C_45
   17  A    between atoms: C_45  and  C_51
   18  A    between atoms: C_48  and  C_51
   19  A    between atoms: C_48  and  C_54
   20  A    between atoms: C_56  and  N_64
   21  A    between atoms: N_66  and  C_67
                            x       y       z     vdW  Elec       q    Type
                         _______ _______ _______ _____ _____    ______ ____

>  <TORSDO>
F 21

$$$$
=
 OpenBabel10222421283D

 69 77  0  0  1  0  0  0  0  0999 V2000
  182.8520  178.1470  137.1950 C   0  0  1  0  0  3  0  0  0  0  0  0
  181.5050  177.4230  137.1710 C   0  0  2  0  0  3  0  0  0  0  0  0
  181.5290  176.0250  136.5340 C   0  0  0  0  0  2  0  0  0  0  0  0
  181.8490  176.0160  135.0390 C   0  0  0  0  0  2  0  0  0  0  0  0
  181.5510  174.6580  134.4220 C   0  0  0  0  0  2  0  0  0  0  0  0
  183.4360  173.1020  135.0690 C   0  0  0  0  0  3  0  0  0  0  0  0
  183.1080  171.4990  136.8520 C   0  0  0  0  0  3  0  0  0  0  0  0
  183.9350  172.0810  135.8880 C   0  0  0  0  0  0  0  0  0  0  0  0
  181.3130  172.9210  136.1570 N   0  0  0  0  0  0  0  0  0  0  0  0
  180.9200  171.3140  137.9150 N   0  0  0  0  0  1  0  0  0  0  0  0
  181.7830  171.9250  136.9640 C   0  0  0  0  0  0  0  0  0  0  0  0
  182.1070  173.5190  135.2210 C   0  0  0  0  0  0  0  0  0  0  0  0
  185.3890  169.3950  134.5680 O   0  0  0  0  0  0  0  0  0  0  0  0
  185.8720  170.4140  135.1260 C   0  0  0  0  0  0  0  0  0  0  0  0
  186.7370  172.5920  137.3300 N   0  0  0  0  0  1  0  0  0  0  0  0
  185.2770  171.6240  135.7270 N   0  0  0  0  0  0  0  0  0  0  0  0
  187.5670  170.9110  135.5310 S   0  0  0  0  0  0  0  0  0  0  0  0
  186.5670  172.2380  135.9310 C   0  0  2  0  0  3  0  0  0  0  0  0
  180.4210  178.3430  136.6220 C   0  0  0  0  0  2  0  0  0  0  0  0
  180.0990  179.5520  134.5860 O   0  0  0  0  0  0  0  0  0  0  0  0
  180.1070  180.5380  135.5890 C   0  0  0  0  0  2  0  0  0  0  0  0
  180.9960  179.3580  135.6510 C   0  0  1  0  0  3  0  0  0  0  0  0
  182.8350  179.3230  138.1530 C   0  0  0  0  0  2  0  0  0  0  0  0
  182.1940  178.8480  142.2600 C   0  0  0  0  0  0  0  0  0  0  0  0
  182.0050  178.5400  143.4660 O   0  0  0  0  0  0  0  0  0  0  0  0
  183.5490  178.8260  141.6550 C   0  0  0  0  0  0  0  0  0  0  0  0
  181.0130  179.1920  141.3940 C   0  0  2  0  0  3  0  0  0  0  0  0
  183.6250  178.9750  140.2680 O   0  0  0  0  0  0  0  0  0  0  0  0
  182.4950  178.8390  139.4820 N   0  0  0  0  0  0  0  0  0  0  0  0
  181.4550  179.7100  140.0210 C   0  0  0  0  0  2  0  0  0  0  0  0
  184.6890  178.6920  142.3430 C   0  0  0  0  0  3  0  0  0  0  0  0
  180.2300  180.1500  142.0150 F   0  0  0  0  0  0  0  0  0  0  0  0
  184.7810  178.5660  143.8290 C   0  0  2  0  0  3  0  0  0  0  0  0
  184.8030  179.8370  144.4000 O   0  0  0  0  0  1  0  0  0  0  0  0
  186.0600  177.8300  144.1910 C   0  0  0  0  0  2  0  0  0  0  0  0
  186.7740  177.3230  142.9480 C   0  0  0  0  0  2  0  0  0  0  0  0
  191.4630  177.3710  148.5230 F   0  0  0  0  0  0  0  0  0  0  0  0
  188.9710  177.2670  144.1640 C   0  0  1  0  0  3  0  0  0  0  0  0
  188.2260  177.7650  142.9090 C   0  0  1  0  0  3  0  0  0  0  0  0
  190.2460  176.4550  143.8400 C   0  0  1  0  0  3  0  0  0  0  0  0
  191.6230  176.6450  147.3870 C   0  0  0  0  0  0  0  0  0  0  0  0
  192.6930  174.8550  146.2160 N   0  0  0  0  0  0  0  0  0  0  0  0
  191.1130  177.1730  142.7970 C   0  0  0  0  0  2  0  0  0  0  0  0
  189.3280  178.4520  145.0610 C   0  0  0  0  0  2  0  0  0  0  0  0
  189.9520  177.9910  146.2580 O   0  0  0  0  0  0  0  0  0  0  0  0
  190.8800  176.9440  146.2420 C   0  0  0  0  0  0  0  0  0  0  0  0
  190.3330  177.6060  141.5520 C   0  0  0  0  0  2  0  0  0  0  0  0
  188.8500  177.2460  141.6120 C   0  0  0  0  0  2  0  0  0  0  0  0
  191.0460  176.1660  145.0820 C   0  0  0  0  0  0  0  0  0  0  0  0
  192.5330  175.5880  147.3520 C   0  0  0  0  0  3  0  0  0  0  0  0
  191.9760  175.1200  145.0920 C   0  0  0  0  0  3  0  0  0  0  0  0
  183.9390  177.2820  137.4930 O   0  0  0  0  0  0  0  0  0  0  0  0
  185.0630  177.2060  136.6660 C   0  0  0  0  0  0  0  0  0  0  0  0
  185.0420  177.7050  135.5060 O   0  0  0  0  0  0  0  0  0  0  0  0
  187.1440  177.3450  138.0880 C   0  0  0  0  0  2  0  0  0  0  0  0
  188.5370  175.7910  136.3350 C   0  0  0  0  0  2  0  0  0  0  0  0
  187.0550  175.8760  135.9930 C   0  0  0  0  0  2  0  0  0  0  0  0
  186.2750  176.4780  137.1640 C   0  0  2  0  0  3  0  0  0  0  0  0
  189.1020  177.1370  136.5050 N   0  0  0  0  0  0  0  0  0  0  0  0
  188.2520  178.0500  137.2980 C   0  0  0  0  0  2  0  0  0  0  0  0
  190.3650  176.9880  137.2140 C   0  0  0  0  0  2  0  0  0  0  0  0
  190.8100  175.5350  137.1970 C   0  0  0  0  0  2  0  0  0  0  0  0
  192.1990  175.4370  137.6200 N   0  0  0  0  0  2  0  0  0  0  0  0
  195.3470  174.5030  136.5470 C   0  0  0  0  0  3  0  0  0  0  0  0
  195.3320  175.9270  136.2220 N   0  0  0  0  0  0  0  0  0  0  0  0
  193.9390  174.0940  136.6580 C   0  0  0  0  0  0  0  0  0  0  0  0
  193.9360  176.3850  136.2090 C   0  0  0  0  0  2  0  0  0  0  0  0
  193.5880  172.9470  136.8890 O   0  0  0  0  0  0  0  0  0  0  0  0
  193.0010  175.2050  136.4300 C   0  0  2  0  0  3  0  0  0  0  0  0
  1 52  1  0  0  0  0
  1 23  1  1  0  0  0
  2  3  1  6  0  0  0
  2  1  1  0  0  0  0
  4  3  1  0  0  0  0
  5  4  1  0  0  0  0
  5 12  1  0  0  0  0
  6 12  2  0  0  0  0
  6  8  1  0  0  0  0
  7 11  1  0  0  0  0
  8  7  2  0  0  0  0
  9 11  2  0  0  0  0
 11 10  1  0  0  0  0
 12  9  1  0  0  0  0
 13 14  2  0  0  0  0
 14 17  1  0  0  0  0
 14 16  1  0  0  0  0
 16  8  1  0  0  0  0
 16 18  1  0  0  0  0
 17 18  1  0  0  0  0
 18 15  1  1  0  0  0
 19  2  1  0  0  0  0
 20 21  1  0  0  0  0
 20 22  1  0  0  0  0
 21 22  1  0  0  0  0
 22 19  1  1  0  0  0
 23 29  1  0  0  0  0
 24 25  2  0  0  0  0
 26 24  1  0  0  0  0
 26 31  2  0  0  0  0
 27 32  1  1  0  0  0
 27 24  1  0  0  0  0
 28 26  1  0  0  0  0
 29 30  1  0  0  0  0
 29 28  1  0  0  0  0
 30 27  1  0  0  0  0
 31 33  1  0  0  0  0
 33 35  1  0  0  0  0
 33 34  1  1  0  0  0
 36 35  1  0  0  0  0
 38 44  1  1  0  0  0
 39 36  1  1  0  0  0
 39 38  1  0  0  0  0
 40 43  1  6  0  0  0
 40 38  1  0  0  0  0
 40 49  1  0  0  0  0
 41 37  1  0  0  0  0
 42 50  2  0  0  0  0
 44 45  1  0  0  0  0
 46 45  1  0  0  0  0
 46 41  2  0  0  0  0
 47 48  1  0  0  0  0
 47 43  1  0  0  0  0
 48 39  1  0  0  0  0
 49 51  2  0  0  0  0
 49 46  1  0  0  0  0
 50 41  1  0  0  0  0
 51 42  1  0  0  0  0
 53 52  1  0  0  0  0
 54 53  2  0  0  0  0
 56 59  1  0  0  0  0
 57 56  1  0  0  0  0
 57 58  1  0  0  0  0
 58 53  1  6  0  0  0
 58 55  1  0  0  0  0
 59 61  1  0  0  0  0
 59 60  1  0  0  0  0
 60 55  1  0  0  0  0
 62 61  1  0  0  0  0
 62 63  1  0  0  0  0
 64 66  1  0  0  0  0
 65 64  2  0  0  0  0
 66 68  2  0  0  0  0
 67 65  1  0  0  0  0
 67 69  1  0  0  0  0
 69 66  1  0  0  0  0
 69 63  1  1  0  0  0
M  END
>  <MODEL>
2

>  <REMARK>
 VINA RESULT:      -6.6      3.413      9.650
  Name = 
  21 active torsions:
  status: ('A' for Active; 'I' for Inactive)
    1  A    between atoms: C_8  and  C_9
    2  A    between atoms: C_8  and  C_37
    3  A    between atoms: C_9  and  C_11
    4  A    between atoms: C_10  and  C_56
    5  A    between atoms: C_10  and  N_66
    6  A    between atoms: C_15  and  C_54
    7  A    between atoms: C_15  and  C_62
    8  A    between atoms: C_18  and  C_51
    9  A    between atoms: C_18  and  C_65
   10  A    between atoms: C_20  and  N_42
   11  A    between atoms: O_26  and  C_27
   12  A    between atoms: O_26  and  C_45
   13  A    between atoms: C_27  and  C_33
   14  A    between atoms: C_37  and  C_59
   15  A    between atoms: N_39  and  C_41
   16  A    between atoms: C_41  and  C_45
   17  A    between atoms: C_45  and  C_51
   18  A    between atoms: C_48  and  C_51
   19  A    between atoms: C_48  and  C_54
   20  A    between atoms: C_56  and  N_64
   21  A    between atoms: N_66  and  C_67
                            x       y       z     vdW  Elec       q    Type
                         _______ _______ _______ _____ _____    ______ ____

>  <TORSDO>
F 21

$$$$
=
 OpenBabel10222421283D

 69 77  0  0  1  0  0  0  0  0999 V2000
  189.4040  176.4580  136.1240 C   0  0  1  0  0  3  0  0  0  0  0  0
  190.5830  175.5370  135.8090 C   0  0  2  0  0  3  0  0  0  0  0  0
  191.9400  176.2440  135.6600 C   0  0  0  0  0  2  0  0  0  0  0  0
  192.9610  175.4810  134.8170 C   0  0  0  0  0  2  0  0  0  0  0  0
  194.3760  175.9650  135.0970 C   0  0  0  0  0  2  0  0  0  0  0  0
  194.8300  173.6550  136.0200 C   0  0  0  0  0  3  0  0  0  0  0  0
  196.7610  173.2870  137.4310 C   0  0  0  0  0  3  0  0  0  0  0  0
  195.6350  172.7890  136.7710 C   0  0  0  0  0  0  0  0  0  0  0  0
  196.2550  175.4800  136.6190 N   0  0  0  0  0  0  0  0  0  0  0  0
  198.1730  175.1760  138.0540 N   0  0  0  0  0  1  0  0  0  0  0  0
  197.0510  174.6510  137.3550 C   0  0  0  0  0  0  0  0  0  0  0  0
  195.1600  175.0150  135.9490 C   0  0  0  0  0  0  0  0  0  0  0  0
  197.2350  170.0110  137.6620 O   0  0  0  0  0  0  0  0  0  0  0  0
  196.0510  170.2050  137.2840 C   0  0  0  0  0  0  0  0  0  0  0  0
  193.4670  170.8380  135.4740 N   0  0  0  0  0  1  0  0  0  0  0  0
  195.2960  171.4080  136.8770 N   0  0  0  0  0  0  0  0  0  0  0  0
  194.6510  169.0910  136.9900 S   0  0  0  0  0  0  0  0  0  0  0  0
  194.0520  170.6800  136.7950 C   0  0  2  0  0  3  0  0  0  0  0  0
  190.2330  174.6050  134.6560 C   0  0  0  0  0  2  0  0  0  0  0  0
  189.3840  172.9190  136.1210 O   0  0  0  0  0  0  0  0  0  0  0  0
  188.9940  172.5040  134.8350 C   0  0  0  0  0  2  0  0  0  0  0  0
  190.3010  173.1500  135.0810 C   0  0  1  0  0  3  0  0  0  0  0  0
  189.8690  177.8650  136.4540 C   0  0  0  0  0  2  0  0  0  0  0  0
  188.5920  177.7410  140.4360 C   0  0  0  0  0  0  0  0  0  0  0  0
  188.2310  177.8700  141.6350 O   0  0  0  0  0  0  0  0  0  0  0  0
  187.6710  178.0360  139.3100 C   0  0  0  0  0  0  0  0  0  0  0  0
  190.0080  177.3330  140.1330 C   0  0  2  0  0  3  0  0  0  0  0  0
  188.2280  178.0690  138.0290 O   0  0  0  0  0  0  0  0  0  0  0  0
  189.5980  178.1300  137.8580 N   0  0  0  0  0  0  0  0  0  0  0  0
  190.2050  177.0550  138.6390 C   0  0  0  0  0  2  0  0  0  0  0  0
  186.3570  178.2540  139.4380 C   0  0  0  0  0  3  0  0  0  0  0  0
  190.3420  176.2010  140.8570 F   0  0  0  0  0  0  0  0  0  0  0  0
  185.6040  178.2120  140.7280 C   0  0  2  0  0  3  0  0  0  0  0  0
  184.2540  178.4470  140.4830 O   0  0  0  0  0  1  0  0  0  0  0  0
  186.1410  179.2880  141.6570 C   0  0  0  0  0  2  0  0  0  0  0  0
  185.0760  179.7470  142.6410 C   0  0  0  0  0  2  0  0  0  0  0  0
  190.2760  176.2060  146.3150 F   0  0  0  0  0  0  0  0  0  0  0  0
  186.1930  178.5200  144.5270 C   0  0  1  0  0  3  0  0  0  0  0  0
  184.8730  178.7440  143.7630 C   0  0  1  0  0  3  0  0  0  0  0  0
  186.0680  178.7490  146.0510 C   0  0  1  0  0  3  0  0  0  0  0  0
  189.3810  177.0580  146.8750 C   0  0  0  0  0  0  0  0  0  0  0  0
  188.7170  178.4410  148.7100 N   0  0  0  0  0  0  0  0  0  0  0  0
  184.8410  178.0260  146.6230 C   0  0  0  0  0  2  0  0  0  0  0  0
  186.7160  177.1090  144.2590 C   0  0  0  0  0  2  0  0  0  0  0  0
  187.9740  176.9220  144.9040 O   0  0  0  0  0  0  0  0  0  0  0  0
  188.2210  177.4240  146.1860 C   0  0  0  0  0  0  0  0  0  0  0  0
  183.5480  178.3180  145.8550 C   0  0  0  0  0  2  0  0  0  0  0  0
  183.7510  179.2580  144.6670 C   0  0  0  0  0  2  0  0  0  0  0  0
  187.3160  178.3250  146.7770 C   0  0  0  0  0  0  0  0  0  0  0  0
  189.6120  177.5820  148.1480 C   0  0  0  0  0  3  0  0  0  0  0  0
  187.5860  178.8180  148.0590 C   0  0  0  0  0  3  0  0  0  0  0  0
  188.4340  176.4880  135.0860 O   0  0  0  0  0  0  0  0  0  0  0  0
  187.0690  176.3550  135.3560 C   0  0  0  0  0  0  0  0  0  0  0  0
  186.3370  177.3760  135.4870 O   0  0  0  0  0  0  0  0  0  0  0  0
  185.6280  174.5450  134.3470 C   0  0  0  0  0  2  0  0  0  0  0  0
  184.6580  173.8480  136.7970 C   0  0  0  0  0  2  0  0  0  0  0  0
  185.7860  174.8680  136.8830 C   0  0  0  0  0  2  0  0  0  0  0  0
  186.5010  174.9790  135.5340 C   0  0  2  0  0  3  0  0  0  0  0  0
  183.6200  174.3080  135.8630 N   0  0  0  0  0  0  0  0  0  0  0  0
  184.1520  174.8700  134.6030 C   0  0  0  0  0  2  0  0  0  0  0  0
  182.8070  173.1500  135.5160 C   0  0  0  0  0  2  0  0  0  0  0  0
  181.5220  173.1470  136.3280 C   0  0  0  0  0  2  0  0  0  0  0  0
  180.5720  174.0860  135.7520 N   0  0  0  0  0  2  0  0  0  0  0  0
  181.6310  176.4570  138.0310 C   0  0  0  0  0  3  0  0  0  0  0  0
  181.3750  175.3080  138.8950 N   0  0  0  0  0  0  0  0  0  0  0  0
  180.8590  176.2250  136.8010 C   0  0  0  0  0  0  0  0  0  0  0  0
  180.5170  174.3620  138.1670 C   0  0  0  0  0  2  0  0  0  0  0  0
  180.8210  177.0170  135.8710 O   0  0  0  0  0  0  0  0  0  0  0  0
  180.1150  174.9560  136.8240 C   0  0  2  0  0  3  0  0  0  0  0  0
  1 23  1  6  0  0  0
  2 19  1  6  0  0  0
  2  1  1  0  0  0  0
  3  2  1  0  0  0  0
  4  5  1  0  0  0  0
  4  3  1  0  0  0  0
  5 12  1  0  0  0  0
  6  8  1  0  0  0  0
  8 16  1  0  0  0  0
  8  7  2  0  0  0  0
  9 11  2  0  0  0  0
 11  7  1  0  0  0  0
 11 10  1  0  0  0  0
 12  6  2  0  0  0  0
 12  9  1  0  0  0  0
 14 13  2  0  0  0  0
 16 14  1  0  0  0  0
 17 14  1  0  0  0  0
 18 15  1  6  0  0  0
 18 16  1  0  0  0  0
 18 17  1  0  0  0  0
 21 22  1  0  0  0  0
 21 20  1  0  0  0  0
 22 19  1  6  0  0  0
 22 20  1  0  0  0  0
 23 29  1  0  0  0  0
 24 25  2  0  0  0  0
 26 31  2  0  0  0  0
 26 24  1  0  0  0  0
 27 24  1  0  0  0  0
 27 32  1  1  0  0  0
 28 26  1  0  0  0  0
 29 28  1  0  0  0  0
 29 30  1  0  0  0  0
 30 27  1  0  0  0  0
 31 33  1  0  0  0  0
 33 34  1  6  0  0  0
 33 35  1  0  0  0  0
 35 36  1  0  0  0  0
 37 41  1  0  0  0  0
 38 44  1  1  0  0  0
 38 40  1  0  0  0  0
 39 36  1  6  0  0  0
 39 38  1  0  0  0  0
 39 48  1  0  0  0  0
 40 43  1  1  0  0  0
 40 49  1  0  0  0  0
 41 50  1  0  0  0  0
 44 45  1  0  0  0  0
 45 46  1  0  0  0  0
 46 49  1  0  0  0  0
 46 41  2  0  0  0  0
 47 43  1  0  0  0  0
 48 47  1  0  0  0  0
 49 51  2  0  0  0  0
 50 42  2  0  0  0  0
 51 42  1  0  0  0  0
 52 53  1  0  0  0  0
 52  1  1  0  0  0  0
 53 54  2  0  0  0  0
 55 60  1  0  0  0  0
 55 58  1  0  0  0  0
 56 57  1  0  0  0  0
 58 53  1  6  0  0  0
 58 57  1  0  0  0  0
 59 56  1  0  0  0  0
 60 59  1  0  0  0  0
 61 59  1  0  0  0  0
 61 62  1  0  0  0  0
 63 62  1  0  0  0  0
 64 65  2  0  0  0  0
 66 69  1  0  0  0  0
 66 64  1  0  0  0  0
 67 65  1  0  0  0  0
 68 66  2  0  0  0  0
 69 63  1  6  0  0  0
 69 67  1  0  0  0  0
M  END
>  <MODEL>
3

>  <REMARK>
 VINA RESULT:      -6.0      3.480      9.934
  Name = 
  21 active torsions:
  status: ('A' for Active; 'I' for Inactive)
    1  A    between atoms: C_8  and  C_9
    2  A    between atoms: C_8  and  C_37
    3  A    between atoms: C_9  and  C_11
    4  A    between atoms: C_10  and  C_56
    5  A    between atoms: C_10  and  N_66
    6  A    between atoms: C_15  and  C_54
    7  A    between atoms: C_15  and  C_62
    8  A    between atoms: C_18  and  C_51
    9  A    between atoms: C_18  and  C_65
   10  A    between atoms: C_20  and  N_42
   11  A    between atoms: O_26  and  C_27
   12  A    between atoms: O_26  and  C_45
   13  A    between atoms: C_27  and  C_33
   14  A    between atoms: C_37  and  C_59
   15  A    between atoms: N_39  and  C_41
   16  A    between atoms: C_41  and  C_45
   17  A    between atoms: C_45  and  C_51
   18  A    between atoms: C_48  and  C_51
   19  A    between atoms: C_48  and  C_54
   20  A    between atoms: C_56  and  N_64
   21  A    between atoms: N_66  and  C_67
                            x       y       z     vdW  Elec       q    Type
                         _______ _______ _______ _____ _____    ______ ____

>  <TORSDO>
F 21

$$$$
=
 OpenBabel10222421283D

 69 77  0  0  1  0  0  0  0  0999 V2000
  185.7980  178.4220  141.4560 C   0  0  1  0  0  3  0  0  0  0  0  0
  186.6420  177.7200  142.5210 C   0  0  2  0  0  3  0  0  0  0  0  0
  186.2090  177.9830  143.9710 C   0  0  0  0  0  2  0  0  0  0  0  0
  186.6770  176.9260  144.9720 C   0  0  0  0  0  2  0  0  0  0  0  0
  187.2680  177.5720  146.2160 C   0  0  0  0  0  2  0  0  0  0  0  0
  189.6210  177.1200  147.0260 C   0  0  0  0  0  3  0  0  0  0  0  0
  191.5030  178.0260  145.8040 C   0  0  0  0  0  3  0  0  0  0  0  0
  191.0050  177.2610  146.8630 C   0  0  0  0  0  0  0  0  0  0  0  0
  189.2650  178.5130  145.1140 N   0  0  0  0  0  0  0  0  0  0  0  0
  191.1050  179.4730  143.8810 N   0  0  0  0  0  1  0  0  0  0  0  0
  190.6100  178.6610  144.9390 C   0  0  0  0  0  0  0  0  0  0  0  0
  188.7530  177.7560  146.1290 C   0  0  0  0  0  0  0  0  0  0  0  0
  192.6820  178.2410  149.5650 O   0  0  0  0  0  0  0  0  0  0  0  0
  192.6230  177.1290  148.9780 C   0  0  0  0  0  0  0  0  0  0  0  0
  192.9930  174.7650  146.8280 N   0  0  0  0  0  1  0  0  0  0  0  0
  191.9020  176.6450  147.7840 N   0  0  0  0  0  0  0  0  0  0  0  0
  193.4390  175.5360  149.2690 S   0  0  0  0  0  0  0  0  0  0  0  0
  192.3160  175.2800  148.0060 C   0  0  2  0  0  3  0  0  0  0  0  0
  188.1250  177.9510  142.2570 C   0  0  0  0  0  2  0  0  0  0  0  0
  189.2310  176.3960  140.8200 O   0  0  0  0  0  0  0  0  0  0  0  0
  190.2470  176.8950  141.6560 C   0  0  0  0  0  2  0  0  0  0  0  0
  188.8800  176.6390  142.1600 C   0  0  1  0  0  3  0  0  0  0  0  0
  184.9890  179.5610  142.0480 C   0  0  0  0  0  2  0  0  0  0  0  0
  181.1560  178.0620  141.3020 C   0  0  0  0  0  0  0  0  0  0  0  0
  179.9820  177.7430  140.9750 O   0  0  0  0  0  0  0  0  0  0  0  0
  182.3140  177.7670  140.4210 C   0  0  0  0  0  0  0  0  0  0  0  0
  181.3850  178.8100  142.5860 C   0  0  2  0  0  3  0  0  0  0  0  0
  183.5360  178.3480  140.7700 O   0  0  0  0  0  0  0  0  0  0  0  0
  183.5910  179.3740  141.6940 N   0  0  0  0  0  0  0  0  0  0  0  0
  182.8800  178.9470  142.8960 C   0  0  0  0  0  2  0  0  0  0  0  0
  182.2690  176.9810  139.3400 C   0  0  0  0  0  3  0  0  0  0  0  0
  180.7590  178.1580  143.6350 F   0  0  0  0  0  0  0  0  0  0  0  0
  181.0550  176.2550  138.8600 C   0  0  2  0  0  3  0  0  0  0  0  0
  181.1510  174.9100  139.2080 O   0  0  0  0  0  1  0  0  0  0  0  0
  180.9630  176.3780  137.3480 C   0  0  0  0  0  2  0  0  0  0  0  0
  182.2790  176.0040  136.6850 C   0  0  0  0  0  2  0  0  0  0  0  0
  186.8460  170.7930  134.4330 F   0  0  0  0  0  0  0  0  0  0  0  0
  183.0560  173.8750  135.5990 C   0  0  1  0  0  3  0  0  0  0  0  0
  182.0740  175.0600  135.5120 C   0  0  1  0  0  3  0  0  0  0  0  0
  182.3620  172.4950  135.5470 C   0  0  1  0  0  3  0  0  0  0  0  0
  185.5810  170.5730  134.8690 C   0  0  0  0  0  0  0  0  0  0  0  0
  183.9120  169.0650  135.6850 N   0  0  0  0  0  0  0  0  0  0  0  0
  181.3440  172.4280  134.4010 C   0  0  0  0  0  2  0  0  0  0  0  0
  184.0910  173.9750  134.4790 C   0  0  0  0  0  2  0  0  0  0  0  0
  185.0470  172.9220  134.5980 O   0  0  0  0  0  0  0  0  0  0  0  0
  184.6640  171.6250  134.9540 C   0  0  0  0  0  0  0  0  0  0  0  0
  180.3640  173.6050  134.3870 C   0  0  0  0  0  2  0  0  0  0  0  0
  180.6120  174.6110  135.5110 C   0  0  0  0  0  2  0  0  0  0  0  0
  183.3640  171.3780  135.4300 C   0  0  0  0  0  0  0  0  0  0  0  0
  185.1800  169.2890  135.2420 C   0  0  0  0  0  3  0  0  0  0  0  0
  183.0050  170.0720  135.7850 C   0  0  0  0  0  3  0  0  0  0  0  0
  186.5700  178.8840  140.3560 O   0  0  0  0  0  0  0  0  0  0  0  0
  186.2410  178.5500  139.0380 C   0  0  0  0  0  0  0  0  0  0  0  0
  185.2100  179.0350  138.4920 O   0  0  0  0  0  0  0  0  0  0  0  0
  188.5330  178.0920  138.0880 C   0  0  0  0  0  2  0  0  0  0  0  0
  187.4690  176.7520  135.9670 C   0  0  0  0  0  2  0  0  0  0  0  0
  186.4230  177.1180  137.0130 C   0  0  0  0  0  2  0  0  0  0  0  0
  187.1050  177.5690  138.3060 C   0  0  2  0  0  3  0  0  0  0  0  0
  188.2460  177.9390  135.5820 N   0  0  0  0  0  0  0  0  0  0  0  0
  188.6640  178.7800  136.7240 C   0  0  0  0  0  2  0  0  0  0  0  0
  189.4560  177.4670  134.9210 C   0  0  0  0  0  2  0  0  0  0  0  0
  189.8180  176.0770  135.4190 C   0  0  0  0  0  2  0  0  0  0  0  0
  191.1970  175.7710  135.0710 N   0  0  0  0  0  2  0  0  0  0  0  0
  193.9130  173.7970  135.8850 C   0  0  0  0  0  3  0  0  0  0  0  0
  193.1130  172.8830  135.0740 N   0  0  0  0  0  0  0  0  0  0  0  0
  192.9880  174.8350  136.3650 C   0  0  0  0  0  0  0  0  0  0  0  0
  191.7400  173.4020  135.0060 C   0  0  0  0  0  2  0  0  0  0  0  0
  193.3250  175.7460  137.1050 O   0  0  0  0  0  0  0  0  0  0  0  0
  191.6100  174.6390  135.8850 C   0  0  2  0  0  3  0  0  0  0  0  0
  1 23  1  1  0  0  0
  1  2  1  0  0  0  0
  2 19  1  1  0  0  0
  2  3  1  0  0  0  0
  3  4  1  0  0  0  0
  4  5  1  0  0  0  0
  7  8  2  0  0  0  0
  8  6  1  0  0  0  0
  8 16  1  0  0  0  0
  9 12  1  0  0  0  0
 10 11  1  0  0  0  0
 11  9  2  0  0  0  0
 11  7  1  0  0  0  0
 12  5  1  0  0  0  0
 12  6  2  0  0  0  0
 14 17  1  0  0  0  0
 14 13  2  0  0  0  0
 16 18  1  0  0  0  0
 16 14  1  0  0  0  0
 18 15  1  6  0  0  0
 18 17  1  0  0  0  0
 20 21  1  0  0  0  0
 20 22  1  0  0  0  0
 21 22  1  0  0  0  0
 22 19  1  6  0  0  0
 24 27  1  0  0  0  0
 25 24  2  0  0  0  0
 26 28  1  0  0  0  0
 26 24  1  0  0  0  0
 27 30  1  0  0  0  0
 27 32  1  1  0  0  0
 28 29  1  0  0  0  0
 29 23  1  0  0  0  0
 29 30  1  0  0  0  0
 31 26  2  0  0  0  0
 33 34  1  6  0  0  0
 33 31  1  0  0  0  0
 35 33  1  0  0  0  0
 36 35  1  0  0  0  0
 37 41  1  0  0  0  0
 38 44  1  6  0  0  0
 39 38  1  0  0  0  0
 39 36  1  1  0  0  0
 40 43  1  6  0  0  0
 40 38  1  0  0  0  0
 41 46  2  0  0  0  0
 41 50  1  0  0  0  0
 42 51  1  0  0  0  0
 44 45  1  0  0  0  0
 45 46  1  0  0  0  0
 46 49  1  0  0  0  0
 47 43  1  0  0  0  0
 47 48  1  0  0  0  0
 48 39  1  0  0  0  0
 49 40  1  0  0  0  0
 49 51  2  0  0  0  0
 50 42  2  0  0  0  0
 52  1  1  0  0  0  0
 53 52  1  0  0  0  0
 54 53  2  0  0  0  0
 55 58  1  0  0  0  0
 56 57  1  0  0  0  0
 57 58  1  0  0  0  0
 58 53  1  6  0  0  0
 59 56  1  0  0  0  0
 59 60  1  0  0  0  0
 60 55  1  0  0  0  0
 61 62  1  0  0  0  0
 61 59  1  0  0  0  0
 63 62  1  0  0  0  0
 64 66  1  0  0  0  0
 65 64  2  0  0  0  0
 66 68  2  0  0  0  0
 67 65  1  0  0  0  0
 67 69  1  0  0  0  0
 69 63  1  6  0  0  0
 69 66  1  0  0  0  0
M  END
>  <MODEL>
4

>  <REMARK>
 VINA RESULT:      -5.1      2.715      7.045
  Name = 
  21 active torsions:
  status: ('A' for Active; 'I' for Inactive)
    1  A    between atoms: C_8  and  C_9
    2  A    between atoms: C_8  and  C_37
    3  A    between atoms: C_9  and  C_11
    4  A    between atoms: C_10  and  C_56
    5  A    between atoms: C_10  and  N_66
    6  A    between atoms: C_15  and  C_54
    7  A    between atoms: C_15  and  C_62
    8  A    between atoms: C_18  and  C_51
    9  A    between atoms: C_18  and  C_65
   10  A    between atoms: C_20  and  N_42
   11  A    between atoms: O_26  and  C_27
   12  A    between atoms: O_26  and  C_45
   13  A    between atoms: C_27  and  C_33
   14  A    between atoms: C_37  and  C_59
   15  A    between atoms: N_39  and  C_41
   16  A    between atoms: C_41  and  C_45
   17  A    between atoms: C_45  and  C_51
   18  A    between atoms: C_48  and  C_51
   19  A    between atoms: C_48  and  C_54
   20  A    between atoms: C_56  and  N_64
   21  A    between atoms: N_66  and  C_67
                            x       y       z     vdW  Elec       q    Type
                         _______ _______ _______ _____ _____    ______ ____

>  <TORSDO>
F 21

$$$$
=
 OpenBabel10222421283D

 69 77  0  0  1  0  0  0  0  0999 V2000
  190.2290  176.0810  136.9400 C   0  0  1  0  0  3  0  0  0  0  0  0
  190.8720  174.7140  136.7050 C   0  0  2  0  0  3  0  0  0  0  0  0
  192.3210  174.5830  137.1970 C   0  0  0  0  0  2  0  0  0  0  0  0
  193.3790  174.8840  136.1360 C   0  0  0  0  0  2  0  0  0  0  0  0
  194.5940  175.5650  136.7480 C   0  0  0  0  0  2  0  0  0  0  0  0
  195.7100  173.3110  137.0110 C   0  0  0  0  0  3  0  0  0  0  0  0
  198.0900  173.1020  136.6300 C   0  0  0  0  0  3  0  0  0  0  0  0
  196.8620  172.5170  136.9470 C   0  0  0  0  0  0  0  0  0  0  0  0
  197.0230  175.2380  136.4780 N   0  0  0  0  0  0  0  0  0  0  0  0
  199.4070  175.0920  136.1240 N   0  0  0  0  0  1  0  0  0  0  0  0
  198.1560  174.4790  136.4100 C   0  0  0  0  0  0  0  0  0  0  0  0
  195.8080  174.6870  136.7660 C   0  0  0  0  0  0  0  0  0  0  0  0
  198.9210  169.9190  136.6560 O   0  0  0  0  0  0  0  0  0  0  0  0
  197.7370  170.0010  137.0760 C   0  0  0  0  0  0  0  0  0  0  0  0
  194.5420  170.3410  137.2110 N   0  0  0  0  0  1  0  0  0  0  0  0
  196.7850  171.1200  137.2230 N   0  0  0  0  0  0  0  0  0  0  0  0
  196.5550  168.7670  137.6800 S   0  0  0  0  0  0  0  0  0  0  0  0
  195.8170  170.2930  137.9040 C   0  0  2  0  0  3  0  0  0  0  0  0
  190.6570  174.2700  135.2630 C   0  0  0  0  0  2  0  0  0  0  0  0
  189.1230  172.5740  135.9570 O   0  0  0  0  0  0  0  0  0  0  0  0
  188.9420  172.6720  134.5650 C   0  0  0  0  0  2  0  0  0  0  0  0
  190.2780  172.8030  135.1870 C   0  0  1  0  0  3  0  0  0  0  0  0
  191.1880  177.0370  137.6260 C   0  0  0  0  0  2  0  0  0  0  0  0
  188.9580  177.3860  141.1480 C   0  0  0  0  0  0  0  0  0  0  0  0
  188.3270  177.6550  142.2050 O   0  0  0  0  0  0  0  0  0  0  0  0
  188.3830  177.6630  139.8080 C   0  0  0  0  0  0  0  0  0  0  0  0
  190.3510  176.8260  141.2450 C   0  0  2  0  0  3  0  0  0  0  0  0
  189.2400  177.5300  138.7130 O   0  0  0  0  0  0  0  0  0  0  0  0
  190.6090  177.4500  138.8950 N   0  0  0  0  0  0  0  0  0  0  0  0
  190.8800  176.3990  139.8710 C   0  0  0  0  0  2  0  0  0  0  0  0
  187.1110  178.0100  139.5810 C   0  0  0  0  0  3  0  0  0  0  0  0
  190.3680  175.7380  142.1000 F   0  0  0  0  0  0  0  0  0  0  0  0
  186.0620  178.1520  140.6360 C   0  0  2  0  0  3  0  0  0  0  0  0
  184.8290  178.3880  140.0330 O   0  0  0  0  0  1  0  0  0  0  0  0
  186.4130  179.3240  141.5370 C   0  0  0  0  0  2  0  0  0  0  0  0
  185.1970  179.8030  142.3150 C   0  0  0  0  0  2  0  0  0  0  0  0
  189.8200  176.3050  146.7270 F   0  0  0  0  0  0  0  0  0  0  0  0
  186.0450  178.6300  144.3680 C   0  0  1  0  0  3  0  0  0  0  0  0
  184.8340  178.8500  143.4400 C   0  0  1  0  0  3  0  0  0  0  0  0
  185.7410  178.9210  145.8560 C   0  0  1  0  0  3  0  0  0  0  0  0
  188.8850  177.1970  147.1410 C   0  0  0  0  0  0  0  0  0  0  0  0
  188.0390  178.6650  148.8290 N   0  0  0  0  0  0  0  0  0  0  0  0
  184.4360  178.2480  146.2990 C   0  0  0  0  0  2  0  0  0  0  0  0
  186.5610  177.1990  144.2190 C   0  0  0  0  0  2  0  0  0  0  0  0
  187.7260  177.0110  145.0200 O   0  0  0  0  0  0  0  0  0  0  0  0
  187.8270  177.5590  146.3030 C   0  0  0  0  0  0  0  0  0  0  0  0
  183.2550  178.5360  145.3680 C   0  0  0  0  0  2  0  0  0  0  0  0
  183.6240  179.4240  144.1810 C   0  0  0  0  0  2  0  0  0  0  0  0
  186.8810  178.5010  146.7440 C   0  0  0  0  0  0  0  0  0  0  0  0
  188.9730  177.7660  148.4130 C   0  0  0  0  0  3  0  0  0  0  0  0
  187.0050  179.0400  148.0300 C   0  0  0  0  0  3  0  0  0  0  0  0
  189.7180  176.6630  135.7490 O   0  0  0  0  0  0  0  0  0  0  0  0
  188.3560  176.9420  135.5950 C   0  0  0  0  0  0  0  0  0  0  0  0
  187.9600  178.1270  135.4130 O   0  0  0  0  0  0  0  0  0  0  0  0
  186.6270  175.5610  134.3820 C   0  0  0  0  0  2  0  0  0  0  0  0
  185.0870  175.3840  136.6240 C   0  0  0  0  0  2  0  0  0  0  0  0
  186.4400  176.0290  136.8930 C   0  0  0  0  0  2  0  0  0  0  0  0
  187.3750  175.8140  135.7000 C   0  0  2  0  0  3  0  0  0  0  0  0
  184.4140  176.0520  135.5000 N   0  0  0  0  0  0  0  0  0  0  0  0
  185.2990  176.3270  134.3480 C   0  0  0  0  0  2  0  0  0  0  0  0
  183.3590  175.1600  135.0370 C   0  0  0  0  0  2  0  0  0  0  0  0
  183.8380  173.7180  135.0690 C   0  0  0  0  0  2  0  0  0  0  0  0
  182.8070  172.8670  135.6420 N   0  0  0  0  0  2  0  0  0  0  0  0
  185.0370  170.4300  134.6300 C   0  0  0  0  0  3  0  0  0  0  0  0
  183.7650  169.7150  134.5630 N   0  0  0  0  0  0  0  0  0  0  0  0
  184.8210  171.5660  135.5380 C   0  0  0  0  0  0  0  0  0  0  0  0
  182.7760  170.4520  135.3620 C   0  0  0  0  0  2  0  0  0  0  0  0
  185.6990  172.3580  135.8460 O   0  0  0  0  0  0  0  0  0  0  0  0
  183.4450  171.6290  136.0580 C   0  0  2  0  0  3  0  0  0  0  0  0
  1 23  1  6  0  0  0
  2 19  1  6  0  0  0
  2  1  1  0  0  0  0
  2  3  1  0  0  0  0
  4  5  1  0  0  0  0
  4  3  1  0  0  0  0
  5 12  1  0  0  0  0
  7  8  2  0  0  0  0
  8  6  1  0  0  0  0
  8 16  1  0  0  0  0
  9 12  1  0  0  0  0
 10 11  1  0  0  0  0
 11  9  2  0  0  0  0
 11  7  1  0  0  0  0
 12  6  2  0  0  0  0
 13 14  2  0  0  0  0
 14 16  1  0  0  0  0
 14 17  1  0  0  0  0
 16 18  1  0  0  0  0
 17 18  1  0  0  0  0
 18 15  1  6  0  0  0
 21 22  1  0  0  0  0
 21 20  1  0  0  0  0
 22 19  1  1  0  0  0
 22 20  1  0  0  0  0
 23 29  1  0  0  0  0
 24 27  1  0  0  0  0
 24 25  2  0  0  0  0
 26 24  1  0  0  0  0
 27 32  1  1  0  0  0
 28 29  1  0  0  0  0
 28 26  1  0  0  0  0
 29 30  1  0  0  0  0
 30 27  1  0  0  0  0
 31 26  2  0  0  0  0
 31 33  1  0  0  0  0
 33 34  1  6  0  0  0
 33 35  1  0  0  0  0
 35 36  1  0  0  0  0
 37 41  1  0  0  0  0
 38 44  1  1  0  0  0
 38 40  1  0  0  0  0
 39 36  1  6  0  0  0
 39 48  1  0  0  0  0
 39 38  1  0  0  0  0
 40 43  1  1  0  0  0
 40 49  1  0  0  0  0
 41 50  1  0  0  0  0
 44 45  1  0  0  0  0
 45 46  1  0  0  0  0
 46 49  1  0  0  0  0
 46 41  2  0  0  0  0
 47 43  1  0  0  0  0
 48 47  1  0  0  0  0
 49 51  2  0  0  0  0
 50 42  2  0  0  0  0
 51 42  1  0  0  0  0
 52  1  1  0  0  0  0
 53 52  1  0  0  0  0
 54 53  2  0  0  0  0
 55 58  1  0  0  0  0
 56 57  1  0  0  0  0
 58 53  1  6  0  0  0
 58 57  1  0  0  0  0
 59 56  1  0  0  0  0
 60 55  1  0  0  0  0
 60 59  1  0  0  0  0
 61 62  1  0  0  0  0
 61 59  1  0  0  0  0
 62 63  1  0  0  0  0
 64 66  1  0  0  0  0
 65 64  2  0  0  0  0
 65 67  1  0  0  0  0
 66 68  2  0  0  0  0
 66 69  1  0  0  0  0
 67 69  1  0  0  0  0
 69 63  1  6  0  0  0
M  END
>  <MODEL>
5

>  <REMARK>
 VINA RESULT:      -5.1      3.834      9.416
  Name = 
  21 active torsions:
  status: ('A' for Active; 'I' for Inactive)
    1  A    between atoms: C_8  and  C_9
    2  A    between atoms: C_8  and  C_37
    3  A    between atoms: C_9  and  C_11
    4  A    between atoms: C_10  and  C_56
    5  A    between atoms: C_10  and  N_66
    6  A    between atoms: C_15  and  C_54
    7  A    between atoms: C_15  and  C_62
    8  A    between atoms: C_18  and  C_51
    9  A    between atoms: C_18  and  C_65
   10  A    between atoms: C_20  and  N_42
   11  A    between atoms: O_26  and  C_27
   12  A    between atoms: O_26  and  C_45
   13  A    between atoms: C_27  and  C_33
   14  A    between atoms: C_37  and  C_59
   15  A    between atoms: N_39  and  C_41
   16  A    between atoms: C_41  and  C_45
   17  A    between atoms: C_45  and  C_51
   18  A    between atoms: C_48  and  C_51
   19  A    between atoms: C_48  and  C_54
   20  A    between atoms: C_56  and  N_64
   21  A    between atoms: N_66  and  C_67
                            x       y       z     vdW  Elec       q    Type
                         _______ _______ _______ _____ _____    ______ ____

>  <TORSDO>
F 21

$$$$
