=
 OpenBabel10232411353D

 48 50  0  0  1  0  0  0  0  0999 V2000
  189.4340  177.9390  139.9060 N   0  0  0  0  0  0  0  0  0  0  0  0
  190.6890  177.5770  140.5060 C   0  0  0  0  0  0  0  0  0  0  0  0
  191.6060  177.0860  139.7920 O   0  0  0  0  0  0  0  0  0  0  0  0
  188.4710  178.7700  140.6200 C   0  0  0  0  0  2  0  0  0  0  0  0
  187.0800  178.1600  140.5440 C   0  0  0  0  0  2  0  0  0  0  0  0
  186.0410  179.0980  141.1310 C   0  0  0  0  0  2  0  0  0  0  0  0
  185.2070  178.3650  142.1660 C   0  0  0  0  0  2  0  0  0  0  0  0
  184.0480  177.7700  141.5280 N   0  0  0  0  0  2  0  0  0  0  0  0
  183.1410  178.8620  141.2150 C   0  0  0  0  0  2  0  0  0  0  0  0
  182.2990  178.5120  140.0000 C   0  0  0  0  0  2  0  0  0  0  0  0
  182.4890  179.5410  138.8840 C   0  0  1  0  0  3  0  0  0  0  0  0
  183.6860  180.2540  139.0310 O   0  0  0  0  0  1  0  0  0  0  0  0
  182.3750  178.9720  137.5970 O   0  0  0  0  0  0  0  0  0  0  0  0
  184.0600  177.4070  136.9560 C   0  0  0  0  0  1  0  0  0  0  0  0
  182.7370  177.6170  137.6680 C   0  0  0  0  0  2  0  0  0  0  0  0
  190.9390  177.8170  141.9640 C   0  0  0  0  0  2  0  0  0  0  0  0
  186.5700  178.2400  147.6570 C   0  0  0  0  0  3  0  0  0  0  0  0
  188.4820  177.4730  146.3880 C   0  0  0  0  0  0  0  0  0  0  0  0
  189.7790  176.9340  146.3440 C   0  0  0  0  0  3  0  0  0  0  0  0
  189.6910  177.0000  143.9370 C   0  0  0  0  0  0  0  0  0  0  0  0
  185.8740  178.5200  146.4680 C   0  0  0  0  0  0  0  0  0  0  0  0
  191.5930  176.1380  144.8090 N   0  0  0  0  0  0  0  0  0  0  0  0
  186.4880  178.2770  145.2340 C   0  0  0  0  0  3  0  0  0  0  0  0
  190.3420  176.7120  145.0890 C   0  0  0  0  0  0  0  0  0  0  0  0
  187.8660  177.7180  147.6170 C   0  0  0  0  0  3  0  0  0  0  0  0
  187.7840  177.7600  145.1780 C   0  0  0  0  0  0  0  0  0  0  0  0
  191.7770  176.0210  143.4160 N   0  0  0  0  0  0  0  0  0  0  0  0
  188.3950  177.5180  143.9360 C   0  0  0  0  0  3  0  0  0  0  0  0
  190.5600  176.5990  142.7980 C   0  0  2  0  0  3  0  0  0  0  0  0
  184.5760  179.0380  146.4850 O   0  0  0  0  0  0  0  0  0  0  0  0
  183.6980  178.9470  145.3710 C   0  0  0  0  0  1  0  0  0  0  0  0
  189.1510  177.5770  138.5230 C   0  0  0  0  0  2  0  0  0  0  0  0
  188.7380  176.1480  138.4420 C   0  0  0  0  0  3  0  0  0  0  0  0
  187.0600  175.3770  136.5960 C   0  0  0  0  0  3  0  0  0  0  0  0
  187.9000  175.7640  137.5210 C   0  0  0  0  0  0  0  0  0  0  0  0
  186.4410  174.0390  136.5680 C   0  0  0  0  0  0  0  0  0  0  0  0
  185.3140  173.7990  137.2530 C   0  0  0  0  0  3  0  0  0  0  0  0
  184.6020  172.4880  137.2800 C   0  0  0  0  0  1  0  0  0  0  0  0
  187.2360  172.8020  135.5830 S   0  0  0  0  0  0  0  0  0  0  0  0
  187.5910  171.6370  136.4640 O   0  0  0  0  0  0  0  0  0  0  0  0
  186.3160  172.3060  134.5010 O   0  0  0  0  0  0  0  0  0  0  0  0
  188.6950  173.4330  134.8870 N   0  0  0  0  0  2  0  0  0  0  0  0
  189.8250  172.6910  135.4270 C   0  0  0  0  0  2  0  0  0  0  0  0
  190.5220  173.5060  136.5030 C   0  0  0  0  0  2  0  0  0  0  0  0
  192.0210  173.5260  136.2590 C   0  0  0  0  0  2  0  0  0  0  0  0
  192.5290  174.8760  136.4350 N   0  0  0  0  0  2  0  0  0  0  0  0
  193.9620  174.7670  136.6430 C   0  0  0  0  0  2  0  0  0  0  0  0
  194.2160  174.4580  137.9800 O   0  0  0  0  0  1  0  0  0  0  0  0
  1  2  1  0  0  0  0
  1  4  1  0  0  0  0
  2 16  1  0  0  0  0
  3  2  2  0  0  0  0
  5  4  1  0  0  0  0
  5  6  1  0  0  0  0
  6  7  1  0  0  0  0
  8  7  1  0  0  0  0
  9  8  1  0  0  0  0
 10  9  1  0  0  0  0
 11 12  1  6  0  0  0
 11 10  1  0  0  0  0
 13 15  1  0  0  0  0
 13 11  1  0  0  0  0
 14 15  1  0  0  0  0
 18 25  2  0  0  0  0
 19 18  1  0  0  0  0
 20 24  1  0  0  0  0
 21 30  1  0  0  0  0
 21 17  2  0  0  0  0
 22 24  1  0  0  0  0
 23 21  1  0  0  0  0
 24 19  2  0  0  0  0
 25 17  1  0  0  0  0
 26 23  2  0  0  0  0
 26 18  1  0  0  0  0
 27 22  2  0  0  0  0
 28 20  2  0  0  0  0
 28 26  1  0  0  0  0
 29 16  1  1  0  0  0
 29 27  1  0  0  0  0
 29 20  1  0  0  0  0
 31 30  1  0  0  0  0
 32  1  1  0  0  0  0
 33 32  1  0  0  0  0
 34 35  2  0  0  0  0
 35 33  2  0  0  0  0
 36 34  1  0  0  0  0
 36 37  2  0  0  0  0
 37 38  1  0  0  0  0
 39 40  2  0  0  0  0
 39 36  1  0  0  0  0
 41 39  2  0  0  0  0
 42 43  1  0  0  0  0
 42 39  1  0  0  0  0
 43 44  1  0  0  0  0
 45 46  1  0  0  0  0
 45 44  1  0  0  0  0
 46 47  1  0  0  0  0
 47 48  1  0  0  0  0
M  END
>  <MODEL>
1

>  <REMARK>
 VINA RESULT:      -6.3      0.000      0.000
  Name = 
  23 active torsions:
  status: ('A' for Active; 'I' for Inactive)
    1  A    between atoms: C_3  and  N_17
    2  A    between atoms: C_3  and  C_47
    3  A    between atoms: N_5  and  C_23
    4  A    between atoms: N_5  and  C_29
    5  A    between atoms: C_7  and  O_8
    6  A    between atoms: C_9  and  C_24
    7  A    between atoms: C_9  and  N_43
    8  A    between atoms: C_10  and  N_17
    9  A    between atoms: C_10  and  C_27
   10  A    between atoms: C_12  and  C_13
   11  A    between atoms: C_13  and  N_14
   12  A    between atoms: N_14  and  C_25
   13  A    between atoms: C_16  and  C_19
   14  A    between atoms: C_19  and  C_46
   15  A    between atoms: C_20  and  C_21
   16  A    between atoms: C_20  and  S_28
   17  A    between atoms: C_24  and  C_29
   18  A    between atoms: C_25  and  C_35
   19  A    between atoms: C_27  and  C_35
   20  A    between atoms: S_28  and  N_43
   21  A    between atoms: C_38  and  O_48
   22  A    between atoms: C_39  and  C_47
   23  A    between atoms: C_39  and  O_48
                            x       y       z     vdW  Elec       q    Type
                         _______ _______ _______ _____ _____    ______ ____

>  <TORSDO>
F 23

$$$$
=
 OpenBabel10232411353D

 48 50  0  0  1  0  0  0  0  0999 V2000
  190.2280  176.9210  140.0130 N   0  0  0  0  0  0  0  0  0  0  0  0
  190.6410  176.3870  138.7440 C   0  0  0  0  0  0  0  0  0  0  0  0
  191.8630  176.1570  138.5300 O   0  0  0  0  0  0  0  0  0  0  0  0
  188.8230  176.9240  140.4060 C   0  0  0  0  0  2  0  0  0  0  0  0
  188.3250  178.3480  140.5940 C   0  0  0  0  0  2  0  0  0  0  0  0
  187.4960  178.4730  141.8600 C   0  0  0  0  0  2  0  0  0  0  0  0
  186.2080  179.2180  141.5650 C   0  0  0  0  0  2  0  0  0  0  0  0
  185.6360  178.7320  140.3230 N   0  0  0  0  0  2  0  0  0  0  0  0
  184.2480  179.1650  140.3090 C   0  0  0  0  0  2  0  0  0  0  0  0
  183.9460  179.9150  139.0230 C   0  0  0  0  0  2  0  0  0  0  0  0
  182.4430  179.9400  138.7390 C   0  0  1  0  0  3  0  0  0  0  0  0
  181.7070  179.3730  139.7880 O   0  0  0  0  0  1  0  0  0  0  0  0
  181.9750  181.2300  138.4090 O   0  0  0  0  0  0  0  0  0  0  0  0
  180.8580  180.2470  136.5410 C   0  0  0  0  0  1  0  0  0  0  0  0
  180.7240  181.1110  137.7810 C   0  0  0  0  0  2  0  0  0  0  0  0
  189.6320  176.0600  137.6850 C   0  0  0  0  0  2  0  0  0  0  0  0
  182.9050  176.8570  135.2800 C   0  0  0  0  0  3  0  0  0  0  0  0
  185.3170  177.0330  135.2040 C   0  0  0  0  0  0  0  0  0  0  0  0
  186.5080  177.1510  134.4670 C   0  0  0  0  0  3  0  0  0  0  0  0
  187.7470  177.1720  136.5330 C   0  0  0  0  0  0  0  0  0  0  0  0
  182.9360  176.8320  136.6860 C   0  0  0  0  0  0  0  0  0  0  0  0
  188.9950  177.3900  134.6580 N   0  0  0  0  0  0  0  0  0  0  0  0
  184.1650  176.9050  137.3510 C   0  0  0  0  0  3  0  0  0  0  0  0
  187.7030  177.2190  135.1800 C   0  0  0  0  0  0  0  0  0  0  0  0
  184.0890  176.9590  134.5440 C   0  0  0  0  0  3  0  0  0  0  0  0
  185.3560  177.0020  136.6290 C   0  0  0  0  0  0  0  0  0  0  0  0
  189.9380  177.4780  135.7020 N   0  0  0  0  0  0  0  0  0  0  0  0
  186.5870  177.0750  137.3030 C   0  0  0  0  0  3  0  0  0  0  0  0
  189.1660  177.3150  136.9570 C   0  0  2  0  0  3  0  0  0  0  0  0
  181.7650  176.7360  137.4410 O   0  0  0  0  0  0  0  0  0  0  0  0
  181.0670  175.5120  137.6230 C   0  0  0  0  0  1  0  0  0  0  0  0
  191.2230  177.3650  140.9810 C   0  0  0  0  0  2  0  0  0  0  0  0
  191.0470  176.6350  142.2670 C   0  0  0  0  0  3  0  0  0  0  0  0
  190.5710  177.9610  144.4660 C   0  0  0  0  0  3  0  0  0  0  0  0
  190.8100  177.2970  143.3650 C   0  0  0  0  0  0  0  0  0  0  0  0
  190.5880  177.3460  145.8060 C   0  0  0  0  0  0  0  0  0  0  0  0
  191.6620  176.6600  146.2230 C   0  0  0  0  0  3  0  0  0  0  0  0
  191.7860  176.0120  147.5620 C   0  0  0  0  0  1  0  0  0  0  0  0
  189.1560  177.5780  146.8190 S   0  0  0  0  0  0  0  0  0  0  0  0
  188.7330  176.2450  147.3700 O   0  0  0  0  0  0  0  0  0  0  0  0
  189.4620  178.4870  147.9780 O   0  0  0  0  0  0  0  0  0  0  0  0
  187.8510  178.2270  145.8780 N   0  0  0  0  0  2  0  0  0  0  0  0
  186.6790  177.3870  146.0710 C   0  0  0  0  0  2  0  0  0  0  0  0
  185.5460  178.1970  146.6790 C   0  0  0  0  0  2  0  0  0  0  0  0
  184.9200  179.0980  145.6280 C   0  0  0  0  0  2  0  0  0  0  0  0
  184.5210  178.3060  144.4770 N   0  0  0  0  0  2  0  0  0  0  0  0
  183.2170  178.7920  144.0590 C   0  0  0  0  0  2  0  0  0  0  0  0
  183.2870  180.1630  143.8150 O   0  0  0  0  0  1  0  0  0  0  0  0
  1  4  1  0  0  0  0
  1 32  1  0  0  0  0
  2  1  1  0  0  0  0
  3  2  2  0  0  0  0
  4  5  1  0  0  0  0
  5  6  1  0  0  0  0
  7  6  1  0  0  0  0
  8  7  1  0  0  0  0
  9  8  1  0  0  0  0
 10  9  1  0  0  0  0
 11 10  1  0  0  0  0
 11 12  1  1  0  0  0
 13 11  1  0  0  0  0
 14 15  1  0  0  0  0
 15 13  1  0  0  0  0
 16  2  1  0  0  0  0
 17 21  1  0  0  0  0
 18 26  1  0  0  0  0
 19 24  1  0  0  0  0
 19 18  2  0  0  0  0
 20 29  1  0  0  0  0
 20 28  1  0  0  0  0
 21 23  2  0  0  0  0
 21 30  1  0  0  0  0
 22 24  1  0  0  0  0
 22 27  2  0  0  0  0
 24 20  2  0  0  0  0
 25 18  1  0  0  0  0
 25 17  2  0  0  0  0
 26 28  2  0  0  0  0
 26 23  1  0  0  0  0
 27 29  1  0  0  0  0
 29 16  1  6  0  0  0
 30 31  1  0  0  0  0
 32 33  1  0  0  0  0
 33 35  2  0  0  0  0
 34 36  1  0  0  0  0
 35 34  2  0  0  0  0
 36 37  2  0  0  0  0
 36 39  1  0  0  0  0
 37 38  1  0  0  0  0
 39 40  2  0  0  0  0
 39 41  2  0  0  0  0
 42 43  1  0  0  0  0
 42 39  1  0  0  0  0
 43 44  1  0  0  0  0
 45 44  1  0  0  0  0
 46 45  1  0  0  0  0
 47 46  1  0  0  0  0
 48 47  1  0  0  0  0
M  END
>  <MODEL>
2

>  <REMARK>
 VINA RESULT:      -6.3      3.204      8.911
  Name = 
  23 active torsions:
  status: ('A' for Active; 'I' for Inactive)
    1  A    between atoms: C_3  and  N_17
    2  A    between atoms: C_3  and  C_47
    3  A    between atoms: N_5  and  C_23
    4  A    between atoms: N_5  and  C_29
    5  A    between atoms: C_7  and  O_8
    6  A    between atoms: C_9  and  C_24
    7  A    between atoms: C_9  and  N_43
    8  A    between atoms: C_10  and  N_17
    9  A    between atoms: C_10  and  C_27
   10  A    between atoms: C_12  and  C_13
   11  A    between atoms: C_13  and  N_14
   12  A    between atoms: N_14  and  C_25
   13  A    between atoms: C_16  and  C_19
   14  A    between atoms: C_19  and  C_46
   15  A    between atoms: C_20  and  C_21
   16  A    between atoms: C_20  and  S_28
   17  A    between atoms: C_24  and  C_29
   18  A    between atoms: C_25  and  C_35
   19  A    between atoms: C_27  and  C_35
   20  A    between atoms: S_28  and  N_43
   21  A    between atoms: C_38  and  O_48
   22  A    between atoms: C_39  and  C_47
   23  A    between atoms: C_39  and  O_48
                            x       y       z     vdW  Elec       q    Type
                         _______ _______ _______ _____ _____    ______ ____

>  <TORSDO>
F 23

$$$$
=
 OpenBabel10232411353D

 48 50  0  0  1  0  0  0  0  0999 V2000
  190.5650  176.9620  139.6930 N   0  0  0  0  0  0  0  0  0  0  0  0
  191.2980  177.1000  140.9210 C   0  0  0  0  0  0  0  0  0  0  0  0
  192.4870  176.6830  140.9910 O   0  0  0  0  0  0  0  0  0  0  0  0
  189.3150  177.6830  139.4790 C   0  0  0  0  0  2  0  0  0  0  0  0
  188.9460  177.6850  138.0040 C   0  0  0  0  0  2  0  0  0  0  0  0
  187.7530  178.5860  137.7410 C   0  0  0  0  0  2  0  0  0  0  0  0
  186.4920  177.9500  138.2940 C   0  0  0  0  0  2  0  0  0  0  0  0
  185.9420  178.7880  139.3440 N   0  0  0  0  0  2  0  0  0  0  0  0
  184.5040  178.8200  139.1380 C   0  0  0  0  0  2  0  0  0  0  0  0
  183.7800  178.6040  140.4560 C   0  0  0  0  0  2  0  0  0  0  0  0
  182.2960  178.3090  140.2290 C   0  0  1  0  0  3  0  0  0  0  0  0
  181.4750  179.1820  140.9530 O   0  0  0  0  0  1  0  0  0  0  0  0
  181.9530  178.2830  138.8600 O   0  0  0  0  0  0  0  0  0  0  0  0
  180.2560  179.5840  137.7970 C   0  0  0  0  0  1  0  0  0  0  0  0
  180.5620  178.4350  138.7390 C   0  0  0  0  0  2  0  0  0  0  0  0
  190.6830  177.7730  142.1110 C   0  0  0  0  0  2  0  0  0  0  0  0
  185.2910  178.6750  146.7790 C   0  0  0  0  0  3  0  0  0  0  0  0
  187.5220  178.0660  146.0670 C   0  0  0  0  0  0  0  0  0  0  0  0
  188.8800  177.8580  146.3600 C   0  0  0  0  0  3  0  0  0  0  0  0
  189.2500  177.2490  144.0580 C   0  0  0  0  0  0  0  0  0  0  0  0
  184.7990  178.4510  145.4810 C   0  0  0  0  0  0  0  0  0  0  0  0
  191.0740  177.1280  145.3930 N   0  0  0  0  0  0  0  0  0  0  0  0
  185.6750  178.0360  144.4720 C   0  0  0  0  0  3  0  0  0  0  0  0
  189.7080  177.4450  145.3180 C   0  0  0  0  0  0  0  0  0  0  0  0
  186.6450  178.4820  147.0700 C   0  0  0  0  0  3  0  0  0  0  0  0
  187.0310  177.8440  144.7470 C   0  0  0  0  0  0  0  0  0  0  0  0
  191.5440  176.6860  144.1390 N   0  0  0  0  0  0  0  0  0  0  0  0
  187.9060  177.4260  143.7300 C   0  0  0  0  0  3  0  0  0  0  0  0
  190.3830  176.7720  143.2200 C   0  0  2  0  0  3  0  0  0  0  0  0
  183.4490  178.6330  145.1690 O   0  0  0  0  0  0  0  0  0  0  0  0
  183.0110  179.4880  144.1230 C   0  0  0  0  0  1  0  0  0  0  0  0
  191.1190  176.1860  138.5910 C   0  0  0  0  0  2  0  0  0  0  0  0
  192.2850  176.8980  137.9980 C   0  0  0  0  0  3  0  0  0  0  0  0
  193.7370  175.7290  136.1710 C   0  0  0  0  0  3  0  0  0  0  0  0
  193.0100  176.3140  137.0870 C   0  0  0  0  0  0  0  0  0  0  0  0
  195.0190  176.2700  135.6810 C   0  0  0  0  0  0  0  0  0  0  0  0
  195.0930  177.5300  135.2290 C   0  0  0  0  0  3  0  0  0  0  0  0
  196.3400  178.1770  134.7250 C   0  0  0  0  0  1  0  0  0  0  0  0
  196.4250  175.1980  135.7420 S   0  0  0  0  0  0  0  0  0  0  0  0
  196.7440  174.7390  134.3470 O   0  0  0  0  0  0  0  0  0  0  0  0
  197.6270  175.9230  136.2820 O   0  0  0  0  0  0  0  0  0  0  0  0
  196.0780  173.8050  136.7170 N   0  0  0  0  0  2  0  0  0  0  0  0
  197.0600  173.7330  137.7890 C   0  0  0  0  0  2  0  0  0  0  0  0
  196.5890  174.5380  138.9880 C   0  0  0  0  0  2  0  0  0  0  0  0
  197.7790  175.0990  139.7460 C   0  0  0  0  0  2  0  0  0  0  0  0
  197.4030  175.3640  141.1240 N   0  0  0  0  0  2  0  0  0  0  0  0
  198.6290  175.3820  141.9030 C   0  0  0  0  0  2  0  0  0  0  0  0
  198.3390  175.7360  143.2210 O   0  0  0  0  0  1  0  0  0  0  0  0
  1  2  1  0  0  0  0
  2  3  2  0  0  0  0
  2 16  1  0  0  0  0
  4  1  1  0  0  0  0
  5  4  1  0  0  0  0
  6  5  1  0  0  0  0
  6  7  1  0  0  0  0
  7  8  1  0  0  0  0
  9  8  1  0  0  0  0
  9 10  1  0  0  0  0
 11 10  1  0  0  0  0
 11 12  1  1  0  0  0
 13 11  1  0  0  0  0
 14 15  1  0  0  0  0
 15 13  1  0  0  0  0
 17 25  1  0  0  0  0
 18 19  1  0  0  0  0
 18 25  2  0  0  0  0
 20 24  1  0  0  0  0
 21 17  2  0  0  0  0
 23 26  2  0  0  0  0
 23 21  1  0  0  0  0
 24 22  1  0  0  0  0
 24 19  2  0  0  0  0
 26 18  1  0  0  0  0
 27 22  2  0  0  0  0
 28 20  2  0  0  0  0
 28 26  1  0  0  0  0
 29 16  1  6  0  0  0
 29 20  1  0  0  0  0
 29 27  1  0  0  0  0
 30 21  1  0  0  0  0
 31 30  1  0  0  0  0
 32  1  1  0  0  0  0
 33 32  1  0  0  0  0
 34 35  2  0  0  0  0
 35 33  2  0  0  0  0
 36 39  1  0  0  0  0
 36 34  1  0  0  0  0
 37 36  2  0  0  0  0
 38 37  1  0  0  0  0
 39 41  2  0  0  0  0
 39 42  1  0  0  0  0
 40 39  2  0  0  0  0
 42 43  1  0  0  0  0
 43 44  1  0  0  0  0
 44 45  1  0  0  0  0
 45 46  1  0  0  0  0
 46 47  1  0  0  0  0
 47 48  1  0  0  0  0
M  END
>  <MODEL>
3

>  <REMARK>
 VINA RESULT:      -6.2      3.274      5.155
  Name = 
  23 active torsions:
  status: ('A' for Active; 'I' for Inactive)
    1  A    between atoms: C_3  and  N_17
    2  A    between atoms: C_3  and  C_47
    3  A    between atoms: N_5  and  C_23
    4  A    between atoms: N_5  and  C_29
    5  A    between atoms: C_7  and  O_8
    6  A    between atoms: C_9  and  C_24
    7  A    between atoms: C_9  and  N_43
    8  A    between atoms: C_10  and  N_17
    9  A    between atoms: C_10  and  C_27
   10  A    between atoms: C_12  and  C_13
   11  A    between atoms: C_13  and  N_14
   12  A    between atoms: N_14  and  C_25
   13  A    between atoms: C_16  and  C_19
   14  A    between atoms: C_19  and  C_46
   15  A    between atoms: C_20  and  C_21
   16  A    between atoms: C_20  and  S_28
   17  A    between atoms: C_24  and  C_29
   18  A    between atoms: C_25  and  C_35
   19  A    between atoms: C_27  and  C_35
   20  A    between atoms: S_28  and  N_43
   21  A    between atoms: C_38  and  O_48
   22  A    between atoms: C_39  and  C_47
   23  A    between atoms: C_39  and  O_48
                            x       y       z     vdW  Elec       q    Type
                         _______ _______ _______ _____ _____    ______ ____

>  <TORSDO>
F 23

$$$$
=
 OpenBabel10232411353D

 48 50  0  0  1  0  0  0  0  0999 V2000
  190.2800  176.9730  139.9820 N   0  0  0  0  0  0  0  0  0  0  0  0
  191.0040  177.1420  141.2110 C   0  0  0  0  0  0  0  0  0  0  0  0
  192.1920  176.7260  141.3000 O   0  0  0  0  0  0  0  0  0  0  0  0
  189.0320  177.6890  139.7400 C   0  0  0  0  0  2  0  0  0  0  0  0
  188.3420  177.1540  138.4950 C   0  0  0  0  0  2  0  0  0  0  0  0
  187.0500  177.9020  138.2240 C   0  0  0  0  0  2  0  0  0  0  0  0
  186.5200  178.5060  139.5110 C   0  0  0  0  0  2  0  0  0  0  0  0
  185.2280  179.1190  139.2680 N   0  0  0  0  0  2  0  0  0  0  0  0
  184.3740  178.0800  138.7160 C   0  0  0  0  0  2  0  0  0  0  0  0
  183.0130  178.6540  138.3610 C   0  0  0  0  0  2  0  0  0  0  0  0
  182.1000  178.7080  139.5870 C   0  0  1  0  0  3  0  0  0  0  0  0
  180.8280  179.1990  139.2670 O   0  0  0  0  0  1  0  0  0  0  0  0
  182.0280  177.4700  140.2620 O   0  0  0  0  0  0  0  0  0  0  0  0
  180.9050  175.4590  139.6320 C   0  0  0  0  0  1  0  0  0  0  0  0
  180.7570  176.9100  140.0470 C   0  0  0  0  0  2  0  0  0  0  0  0
  190.3800  177.8460  142.3790 C   0  0  0  0  0  2  0  0  0  0  0  0
  183.8550  178.9630  145.1800 C   0  0  0  0  0  3  0  0  0  0  0  0
  186.1720  178.2670  145.1780 C   0  0  0  0  0  0  0  0  0  0  0  0
  187.3660  178.0050  145.8710 C   0  0  0  0  0  3  0  0  0  0  0  0
  188.4010  177.3800  143.7870 C   0  0  0  0  0  0  0  0  0  0  0  0
  183.7770  178.7570  143.7900 C   0  0  0  0  0  0  0  0  0  0  0  0
  189.7220  177.1890  145.6150 N   0  0  0  0  0  0  0  0  0  0  0  0
  184.9040  178.3070  143.0940 C   0  0  0  0  0  3  0  0  0  0  0  0
  188.4570  177.5590  145.1290 C   0  0  0  0  0  0  0  0  0  0  0  0
  185.0460  178.7170  145.8690 C   0  0  0  0  0  3  0  0  0  0  0  0
  186.1020  178.0620  143.7690 C   0  0  0  0  0  0  0  0  0  0  0  0
  190.5370  176.7290  144.5610 N   0  0  0  0  0  0  0  0  0  0  0  0
  187.2300  177.6100  143.0640 C   0  0  0  0  0  3  0  0  0  0  0  0
  189.7180  176.8580  143.3320 C   0  0  2  0  0  3  0  0  0  0  0  0
  182.5950  178.9910  143.0820 O   0  0  0  0  0  0  0  0  0  0  0  0
  181.3080  178.7710  143.6420 C   0  0  0  0  0  1  0  0  0  0  0  0
  190.8410  176.1680  138.9050 C   0  0  0  0  0  2  0  0  0  0  0  0
  192.0950  176.7920  138.3990 C   0  0  0  0  0  3  0  0  0  0  0  0
  193.3540  175.7330  136.3710 C   0  0  0  0  0  3  0  0  0  0  0  0
  192.7230  176.2630  137.3870 C   0  0  0  0  0  0  0  0  0  0  0  0
  194.6980  176.1580  135.9360 C   0  0  0  0  0  0  0  0  0  0  0  0
  194.8740  177.3480  135.3450 C   0  0  0  0  0  3  0  0  0  0  0  0
  196.1900  177.8770  134.8810 C   0  0  0  0  0  1  0  0  0  0  0  0
  196.0370  175.0450  136.2530 S   0  0  0  0  0  0  0  0  0  0  0  0
  196.4490  174.4040  134.9570 O   0  0  0  0  0  0  0  0  0  0  0  0
  197.2250  175.7830  136.8070 O   0  0  0  0  0  0  0  0  0  0  0  0
  195.5390  173.8000  137.3520 N   0  0  0  0  0  2  0  0  0  0  0  0
  196.6290  172.8460  137.4970 C   0  0  0  0  0  2  0  0  0  0  0  0
  196.0800  171.4340  137.6100 C   0  0  0  0  0  2  0  0  0  0  0  0
  195.4320  171.0150  136.3020 C   0  0  0  0  0  2  0  0  0  0  0  0
  195.1580  169.5880  136.3250 N   0  0  0  0  0  2  0  0  0  0  0  0
  194.6510  169.2740  137.6490 C   0  0  0  0  0  2  0  0  0  0  0  0
  195.3010  168.1420  138.1410 O   0  0  0  0  0  1  0  0  0  0  0  0
  1  2  1  0  0  0  0
  2  3  2  0  0  0  0
  2 16  1  0  0  0  0
  4  1  1  0  0  0  0
  5  4  1  0  0  0  0
  6  5  1  0  0  0  0
  6  7  1  0  0  0  0
  8  7  1  0  0  0  0
  9  8  1  0  0  0  0
 10  9  1  0  0  0  0
 10 11  1  0  0  0  0
 11 12  1  6  0  0  0
 11 13  1  0  0  0  0
 14 15  1  0  0  0  0
 15 13  1  0  0  0  0
 17 25  1  0  0  0  0
 18 25  2  0  0  0  0
 18 19  1  0  0  0  0
 20 24  1  0  0  0  0
 21 17  2  0  0  0  0
 23 26  2  0  0  0  0
 23 21  1  0  0  0  0
 24 22  1  0  0  0  0
 24 19  2  0  0  0  0
 26 18  1  0  0  0  0
 27 22  2  0  0  0  0
 28 26  1  0  0  0  0
 28 20  2  0  0  0  0
 29 16  1  6  0  0  0
 29 20  1  0  0  0  0
 29 27  1  0  0  0  0
 30 31  1  0  0  0  0
 30 21  1  0  0  0  0
 32  1  1  0  0  0  0
 33 32  1  0  0  0  0
 34 35  2  0  0  0  0
 35 33  2  0  0  0  0
 36 39  1  0  0  0  0
 36 34  1  0  0  0  0
 37 36  2  0  0  0  0
 38 37  1  0  0  0  0
 39 41  2  0  0  0  0
 39 42  1  0  0  0  0
 40 39  2  0  0  0  0
 42 43  1  0  0  0  0
 43 44  1  0  0  0  0
 45 46  1  0  0  0  0
 45 44  1  0  0  0  0
 46 47  1  0  0  0  0
 47 48  1  0  0  0  0
M  END
>  <MODEL>
4

>  <REMARK>
 VINA RESULT:      -6.2      3.245      5.031
  Name = 
  23 active torsions:
  status: ('A' for Active; 'I' for Inactive)
    1  A    between atoms: C_3  and  N_17
    2  A    between atoms: C_3  and  C_47
    3  A    between atoms: N_5  and  C_23
    4  A    between atoms: N_5  and  C_29
    5  A    between atoms: C_7  and  O_8
    6  A    between atoms: C_9  and  C_24
    7  A    between atoms: C_9  and  N_43
    8  A    between atoms: C_10  and  N_17
    9  A    between atoms: C_10  and  C_27
   10  A    between atoms: C_12  and  C_13
   11  A    between atoms: C_13  and  N_14
   12  A    between atoms: N_14  and  C_25
   13  A    between atoms: C_16  and  C_19
   14  A    between atoms: C_19  and  C_46
   15  A    between atoms: C_20  and  C_21
   16  A    between atoms: C_20  and  S_28
   17  A    between atoms: C_24  and  C_29
   18  A    between atoms: C_25  and  C_35
   19  A    between atoms: C_27  and  C_35
   20  A    between atoms: S_28  and  N_43
   21  A    between atoms: C_38  and  O_48
   22  A    between atoms: C_39  and  C_47
   23  A    between atoms: C_39  and  O_48
                            x       y       z     vdW  Elec       q    Type
                         _______ _______ _______ _____ _____    ______ ____

>  <TORSDO>
F 23

$$$$
=
 OpenBabel10232411353D

 48 50  0  0  1  0  0  0  0  0999 V2000
  189.9810  177.2120  140.7810 N   0  0  0  0  0  0  0  0  0  0  0  0
  190.4050  176.9940  142.1370 C   0  0  0  0  0  0  0  0  0  0  0  0
  191.2600  176.1020  142.3900 O   0  0  0  0  0  0  0  0  0  0  0  0
  189.2320  178.4080  140.4110 C   0  0  0  0  0  2  0  0  0  0  0  0
  187.9310  178.0290  139.7200 C   0  0  0  0  0  2  0  0  0  0  0  0
  187.9880  178.3470  138.2370 C   0  0  0  0  0  2  0  0  0  0  0  0
  186.6810  177.9570  137.5730 C   0  0  0  0  0  2  0  0  0  0  0  0
  185.5990  178.7570  138.1160 N   0  0  0  0  0  2  0  0  0  0  0  0
  184.5370  177.8300  138.4710 C   0  0  0  0  0  2  0  0  0  0  0  0
  183.9510  177.1990  137.2190 C   0  0  0  0  0  2  0  0  0  0  0  0
  183.8210  175.6830  137.3750 C   0  0  1  0  0  3  0  0  0  0  0  0
  182.4830  175.2700  137.3380 O   0  0  0  0  0  1  0  0  0  0  0  0
  184.6130  174.9730  136.4470 O   0  0  0  0  0  0  0  0  0  0  0  0
  185.0440  173.0300  137.7660 C   0  0  0  0  0  1  0  0  0  0  0  0
  185.6210  174.2870  137.1430 C   0  0  0  0  0  2  0  0  0  0  0  0
  189.8740  177.8440  143.2520 C   0  0  0  0  0  2  0  0  0  0  0  0
  182.8340  179.1590  143.8620 C   0  0  0  0  0  3  0  0  0  0  0  0
  185.0560  178.6060  144.6420 C   0  0  0  0  0  0  0  0  0  0  0  0
  186.0090  178.5590  145.6730 C   0  0  0  0  0  3  0  0  0  0  0  0
  187.5790  177.5730  144.1340 C   0  0  0  0  0  0  0  0  0  0  0  0
  183.1430  178.6650  142.5820 C   0  0  0  0  0  0  0  0  0  0  0  0
  188.3390  177.8380  146.2500 N   0  0  0  0  0  0  0  0  0  0  0  0
  184.4170  178.1430  142.3320 C   0  0  0  0  0  3  0  0  0  0  0  0
  187.2610  178.0290  145.3690 C   0  0  0  0  0  0  0  0  0  0  0  0
  183.7840  179.1270  144.8860 C   0  0  0  0  0  3  0  0  0  0  0  0
  185.3790  178.1100  143.3440 C   0  0  0  0  0  0  0  0  0  0  0  0
  189.4120  177.2140  145.5810 N   0  0  0  0  0  0  0  0  0  0  0  0
  186.6560  177.5830  143.0880 C   0  0  0  0  0  3  0  0  0  0  0  0
  188.9680  177.0410  144.1780 C   0  0  2  0  0  3  0  0  0  0  0  0
  182.2060  178.6830  141.5450 O   0  0  0  0  0  0  0  0  0  0  0  0
  180.9250  179.2840  141.6780 C   0  0  0  0  0  1  0  0  0  0  0  0
  190.3950  176.2940  139.7280 C   0  0  0  0  0  2  0  0  0  0  0  0
  191.6280  176.7990  139.0640 C   0  0  0  0  0  3  0  0  0  0  0  0
  192.7880  175.3740  137.2080 C   0  0  0  0  0  3  0  0  0  0  0  0
  192.2070  176.0870  138.1380 C   0  0  0  0  0  0  0  0  0  0  0  0
  194.1140  175.6940  136.6460 C   0  0  0  0  0  0  0  0  0  0  0  0
  194.2460  176.6680  135.7340 C   0  0  0  0  0  3  0  0  0  0  0  0
  195.5400  177.0780  135.1150 C   0  0  0  0  0  1  0  0  0  0  0  0
  195.4910  174.7590  137.2460 S   0  0  0  0  0  0  0  0  0  0  0  0
  196.7580  175.3730  136.7170 O   0  0  0  0  0  0  0  0  0  0  0  0
  195.5470  174.7930  138.7480 O   0  0  0  0  0  0  0  0  0  0  0  0
  195.3960  173.1200  136.6860 N   0  0  0  0  0  2  0  0  0  0  0  0
  195.3670  172.2360  137.8430 C   0  0  0  0  0  2  0  0  0  0  0  0
  195.0290  170.8190  137.4130 C   0  0  0  0  0  2  0  0  0  0  0  0
  196.1650  169.8760  137.7680 C   0  0  0  0  0  2  0  0  0  0  0  0
  197.3390  170.2010  136.9770 N   0  0  0  0  0  2  0  0  0  0  0  0
  198.3290  169.1720  137.2440 C   0  0  0  0  0  2  0  0  0  0  0  0
  199.2770  169.6600  138.1440 O   0  0  0  0  0  1  0  0  0  0  0  0
  1  2  1  0  0  0  0
  2  3  2  0  0  0  0
  2 16  1  0  0  0  0
  4  1  1  0  0  0  0
  5  4  1  0  0  0  0
  6  5  1  0  0  0  0
  7  8  1  0  0  0  0
  7  6  1  0  0  0  0
  8  9  1  0  0  0  0
 10 11  1  0  0  0  0
 10  9  1  0  0  0  0
 11 12  1  6  0  0  0
 13 15  1  0  0  0  0
 13 11  1  0  0  0  0
 15 14  1  0  0  0  0
 17 25  1  0  0  0  0
 18 25  2  0  0  0  0
 18 19  1  0  0  0  0
 20 29  1  0  0  0  0
 20 24  1  0  0  0  0
 21 17  2  0  0  0  0
 23 21  1  0  0  0  0
 23 26  2  0  0  0  0
 24 19  2  0  0  0  0
 24 22  1  0  0  0  0
 26 18  1  0  0  0  0
 27 22  2  0  0  0  0
 28 26  1  0  0  0  0
 28 20  2  0  0  0  0
 29 16  1  6  0  0  0
 29 27  1  0  0  0  0
 30 31  1  0  0  0  0
 30 21  1  0  0  0  0
 32  1  1  0  0  0  0
 33 32  1  0  0  0  0
 34 35  2  0  0  0  0
 35 33  2  0  0  0  0
 36 34  1  0  0  0  0
 36 39  1  0  0  0  0
 37 36  2  0  0  0  0
 38 37  1  0  0  0  0
 39 41  2  0  0  0  0
 40 39  2  0  0  0  0
 42 39  1  0  0  0  0
 42 43  1  0  0  0  0
 44 45  1  0  0  0  0
 44 43  1  0  0  0  0
 46 47  1  0  0  0  0
 46 45  1  0  0  0  0
 47 48  1  0  0  0  0
M  END
>  <MODEL>
5

>  <REMARK>
 VINA RESULT:      -6.1      3.080      5.353
  Name = 
  23 active torsions:
  status: ('A' for Active; 'I' for Inactive)
    1  A    between atoms: C_3  and  N_17
    2  A    between atoms: C_3  and  C_47
    3  A    between atoms: N_5  and  C_23
    4  A    between atoms: N_5  and  C_29
    5  A    between atoms: C_7  and  O_8
    6  A    between atoms: C_9  and  C_24
    7  A    between atoms: C_9  and  N_43
    8  A    between atoms: C_10  and  N_17
    9  A    between atoms: C_10  and  C_27
   10  A    between atoms: C_12  and  C_13
   11  A    between atoms: C_13  and  N_14
   12  A    between atoms: N_14  and  C_25
   13  A    between atoms: C_16  and  C_19
   14  A    between atoms: C_19  and  C_46
   15  A    between atoms: C_20  and  C_21
   16  A    between atoms: C_20  and  S_28
   17  A    between atoms: C_24  and  C_29
   18  A    between atoms: C_25  and  C_35
   19  A    between atoms: C_27  and  C_35
   20  A    between atoms: S_28  and  N_43
   21  A    between atoms: C_38  and  O_48
   22  A    between atoms: C_39  and  C_47
   23  A    between atoms: C_39  and  O_48
                            x       y       z     vdW  Elec       q    Type
                         _______ _______ _______ _____ _____    ______ ____

>  <TORSDO>
F 23

$$$$
=
 OpenBabel10232411353D

 48 50  0  0  1  0  0  0  0  0999 V2000
  190.5360  177.6610  142.4610 N   0  0  0  0  0  0  0  0  0  0  0  0
  190.6690  177.5750  143.8890 C   0  0  0  0  0  0  0  0  0  0  0  0
  191.6310  176.9290  144.3910 O   0  0  0  0  0  0  0  0  0  0  0  0
  189.6290  178.6260  141.8480 C   0  0  0  0  0  2  0  0  0  0  0  0
  188.5210  177.9090  141.0910 C   0  0  0  0  0  2  0  0  0  0  0  0
  188.3770  178.4610  139.6850 C   0  0  0  0  0  2  0  0  0  0  0  0
  186.9860  178.1680  139.1530 C   0  0  0  0  0  2  0  0  0  0  0  0
  187.0840  177.4250  137.9110 N   0  0  0  0  0  2  0  0  0  0  0  0
  185.7250  177.2470  137.4270 C   0  0  0  0  0  2  0  0  0  0  0  0
  185.7320  176.9990  135.9280 C   0  0  0  0  0  2  0  0  0  0  0  0
  185.5810  175.5100  135.6150 C   0  0  1  0  0  3  0  0  0  0  0  0
  186.8230  174.8750  135.4930 O   0  0  0  0  0  1  0  0  0  0  0  0
  184.7420  174.8450  136.5350 O   0  0  0  0  0  0  0  0  0  0  0  0
  185.0070  172.7890  137.7210 C   0  0  0  0  0  1  0  0  0  0  0  0
  184.8910  173.4590  136.3650 C   0  0  0  0  0  2  0  0  0  0  0  0
  189.7030  178.2790  144.7940 C   0  0  0  0  0  2  0  0  0  0  0  0
  182.5950  178.9720  143.9810 C   0  0  0  0  0  3  0  0  0  0  0  0
  184.6500  178.4980  145.1660 C   0  0  0  0  0  0  0  0  0  0  0  0
  185.3670  178.3980  146.3710 C   0  0  0  0  0  3  0  0  0  0  0  0
  187.3140  177.7290  145.1190 C   0  0  0  0  0  0  0  0  0  0  0  0
  183.2130  178.6640  142.7560 C   0  0  0  0  0  0  0  0  0  0  0  0
  187.5850  177.7900  147.3660 N   0  0  0  0  0  0  0  0  0  0  0  0
  184.5570  178.2740  142.7380 C   0  0  0  0  0  3  0  0  0  0  0  0
  186.7010  178.0050  146.2950 C   0  0  0  0  0  0  0  0  0  0  0  0
  183.3090  178.8880  145.1800 C   0  0  0  0  0  3  0  0  0  0  0  0
  185.2840  178.1900  143.9270 C   0  0  0  0  0  0  0  0  0  0  0  0
  188.8310  177.3350  146.8880 N   0  0  0  0  0  0  0  0  0  0  0  0
  186.6330  177.7970  143.9030 C   0  0  0  0  0  3  0  0  0  0  0  0
  188.7090  177.3020  145.4110 C   0  0  2  0  0  3  0  0  0  0  0  0
  182.5160  178.7370  141.5470 O   0  0  0  0  0  0  0  0  0  0  0  0
  181.1660  179.1750  141.4630 C   0  0  0  0  0  1  0  0  0  0  0  0
  191.3940  176.8630  141.5950 C   0  0  0  0  0  2  0  0  0  0  0  0
  190.7540  176.6880  140.2610 C   0  0  0  0  0  3  0  0  0  0  0  0
  192.2230  176.1470  138.1710 C   0  0  0  0  0  3  0  0  0  0  0  0
  191.4870  176.4190  139.2180 C   0  0  0  0  0  0  0  0  0  0  0  0
  191.7070  176.1610  136.7890 C   0  0  0  0  0  0  0  0  0  0  0  0
  190.4440  176.5370  136.5410 C   0  0  0  0  0  3  0  0  0  0  0  0
  189.8290  176.5990  135.1830 C   0  0  0  0  0  1  0  0  0  0  0  0
  192.8280  175.6880  135.5040 S   0  0  0  0  0  0  0  0  0  0  0  0
  192.4430  174.3220  135.0070 O   0  0  0  0  0  0  0  0  0  0  0  0
  192.7500  176.6460  134.3470 O   0  0  0  0  0  0  0  0  0  0  0  0
  194.4500  175.6170  136.1150 N   0  0  0  0  0  2  0  0  0  0  0  0
  194.8380  174.2200  136.2380 C   0  0  0  0  0  2  0  0  0  0  0  0
  194.6720  173.7530  137.6740 C   0  0  0  0  0  2  0  0  0  0  0  0
  196.0210  173.7000  138.3700 C   0  0  0  0  0  2  0  0  0  0  0  0
  196.8010  174.8750  138.0190 N   0  0  0  0  0  2  0  0  0  0  0  0
  198.1450  174.6590  138.5260 C   0  0  0  0  0  2  0  0  0  0  0  0
  198.5650  175.7880  139.2280 O   0  0  0  0  0  1  0  0  0  0  0  0
  1  2  1  0  0  0  0
  2  3  2  0  0  0  0
  2 16  1  0  0  0  0
  4  1  1  0  0  0  0
  5  4  1  0  0  0  0
  6  5  1  0  0  0  0
  7  6  1  0  0  0  0
  8  7  1  0  0  0  0
  9  8  1  0  0  0  0
 10  9  1  0  0  0  0
 11 12  1  1  0  0  0
 11 10  1  0  0  0  0
 11 13  1  0  0  0  0
 15 13  1  0  0  0  0
 15 14  1  0  0  0  0
 17 25  1  0  0  0  0
 18 25  2  0  0  0  0
 18 19  1  0  0  0  0
 20 29  1  0  0  0  0
 20 24  1  0  0  0  0
 21 17  2  0  0  0  0
 23 21  1  0  0  0  0
 23 26  2  0  0  0  0
 24 19  2  0  0  0  0
 24 22  1  0  0  0  0
 26 18  1  0  0  0  0
 27 22  2  0  0  0  0
 28 26  1  0  0  0  0
 28 20  2  0  0  0  0
 29 16  1  6  0  0  0
 29 27  1  0  0  0  0
 30 21  1  0  0  0  0
 31 30  1  0  0  0  0
 32  1  1  0  0  0  0
 33 32  1  0  0  0  0
 34 35  2  0  0  0  0
 35 33  2  0  0  0  0
 36 34  1  0  0  0  0
 37 36  2  0  0  0  0
 38 37  1  0  0  0  0
 39 42  1  0  0  0  0
 39 36  1  0  0  0  0
 40 39  2  0  0  0  0
 41 39  2  0  0  0  0
 42 43  1  0  0  0  0
 43 44  1  0  0  0  0
 44 45  1  0  0  0  0
 46 45  1  0  0  0  0
 46 47  1  0  0  0  0
 47 48  1  0  0  0  0
M  END
>  <MODEL>
6

>  <REMARK>
 VINA RESULT:      -6.0      2.645      4.720
  Name = 
  23 active torsions:
  status: ('A' for Active; 'I' for Inactive)
    1  A    between atoms: C_3  and  N_17
    2  A    between atoms: C_3  and  C_47
    3  A    between atoms: N_5  and  C_23
    4  A    between atoms: N_5  and  C_29
    5  A    between atoms: C_7  and  O_8
    6  A    between atoms: C_9  and  C_24
    7  A    between atoms: C_9  and  N_43
    8  A    between atoms: C_10  and  N_17
    9  A    between atoms: C_10  and  C_27
   10  A    between atoms: C_12  and  C_13
   11  A    between atoms: C_13  and  N_14
   12  A    between atoms: N_14  and  C_25
   13  A    between atoms: C_16  and  C_19
   14  A    between atoms: C_19  and  C_46
   15  A    between atoms: C_20  and  C_21
   16  A    between atoms: C_20  and  S_28
   17  A    between atoms: C_24  and  C_29
   18  A    between atoms: C_25  and  C_35
   19  A    between atoms: C_27  and  C_35
   20  A    between atoms: S_28  and  N_43
   21  A    between atoms: C_38  and  O_48
   22  A    between atoms: C_39  and  C_47
   23  A    between atoms: C_39  and  O_48
                            x       y       z     vdW  Elec       q    Type
                         _______ _______ _______ _____ _____    ______ ____

>  <TORSDO>
F 23

$$$$
=
 OpenBabel10232411353D

 48 50  0  0  1  0  0  0  0  0999 V2000
  190.3070  176.6400  139.3710 N   0  0  0  0  0  0  0  0  0  0  0  0
  191.0560  176.9070  140.5680 C   0  0  0  0  0  0  0  0  0  0  0  0
  192.2880  176.6350  140.6090 O   0  0  0  0  0  0  0  0  0  0  0  0
  188.9740  177.2020  139.1780 C   0  0  0  0  0  2  0  0  0  0  0  0
  188.9840  178.2200  138.0480 C   0  0  0  0  0  2  0  0  0  0  0  0
  187.6050  178.3600  137.4290 C   0  0  0  0  0  2  0  0  0  0  0  0
  187.0990  177.0030  136.9770 C   0  0  0  0  0  2  0  0  0  0  0  0
  185.6700  176.9110  137.2120 N   0  0  0  0  0  2  0  0  0  0  0  0
  185.3190  178.0270  138.0740 C   0  0  0  0  0  2  0  0  0  0  0  0
  183.8110  178.2020  138.1170 C   0  0  0  0  0  2  0  0  0  0  0  0
  183.3580  178.7540  139.4700 C   0  0  1  0  0  3  0  0  0  0  0  0
  184.1740  179.8090  139.9000 O   0  0  0  0  0  1  0  0  0  0  0  0
  181.9930  179.1120  139.4790 O   0  0  0  0  0  0  0  0  0  0  0  0
  181.0660  181.2040  138.7980 C   0  0  0  0  0  1  0  0  0  0  0  0
  181.7260  179.9120  138.3560 C   0  0  0  0  0  2  0  0  0  0  0  0
  190.4030  177.5470  141.7550 C   0  0  0  0  0  2  0  0  0  0  0  0
  185.3980  178.7530  146.7720 C   0  0  0  0  0  3  0  0  0  0  0  0
  187.4970  177.9300  145.8940 C   0  0  0  0  0  0  0  0  0  0  0  0
  188.8300  177.5340  146.0950 C   0  0  0  0  0  3  0  0  0  0  0  0
  189.0100  177.0580  143.7400 C   0  0  0  0  0  0  0  0  0  0  0  0
  184.8200  178.6890  145.4910 C   0  0  0  0  0  0  0  0  0  0  0  0
  190.8650  176.6140  144.9580 N   0  0  0  0  0  0  0  0  0  0  0  0
  185.5870  178.2460  144.4080 C   0  0  0  0  0  3  0  0  0  0  0  0
  189.5480  177.1020  144.9830 C   0  0  0  0  0  0  0  0  0  0  0  0
  186.7280  178.3740  146.9720 C   0  0  0  0  0  3  0  0  0  0  0  0
  186.9190  177.8690  144.5930 C   0  0  0  0  0  0  0  0  0  0  0  0
  191.2150  176.2140  143.6520 N   0  0  0  0  0  0  0  0  0  0  0  0
  187.6850  177.4240  143.5010 C   0  0  0  0  0  3  0  0  0  0  0  0
  190.0330  176.5100  142.8090 C   0  0  2  0  0  3  0  0  0  0  0  0
  183.4900  179.0580  145.2700 O   0  0  0  0  0  0  0  0  0  0  0  0
  182.9500  179.2390  143.9680 C   0  0  0  0  0  1  0  0  0  0  0  0
  190.9140  175.8940  138.2760 C   0  0  0  0  0  2  0  0  0  0  0  0
  192.1650  176.5670  137.8300 C   0  0  0  0  0  3  0  0  0  0  0  0
  193.5660  175.5510  135.8750 C   0  0  0  0  0  3  0  0  0  0  0  0
  192.8650  176.0600  136.8550 C   0  0  0  0  0  0  0  0  0  0  0  0
  194.9120  176.0290  135.5050 C   0  0  0  0  0  0  0  0  0  0  0  0
  195.0900  177.2850  135.0720 C   0  0  0  0  0  3  0  0  0  0  0  0
  196.4080  177.8690  134.6860 C   0  0  0  0  0  1  0  0  0  0  0  0
  196.2520  174.8860  135.6850 S   0  0  0  0  0  0  0  0  0  0  0  0
  195.7250  173.6170  136.2940 O   0  0  0  0  0  0  0  0  0  0  0  0
  196.8500  174.5490  134.3470 O   0  0  0  0  0  0  0  0  0  0  0  0
  197.4660  175.5420  136.7360 N   0  0  0  0  0  2  0  0  0  0  0  0
  198.7180  174.8420  136.4920 C   0  0  0  0  0  2  0  0  0  0  0  0
  198.7950  173.5890  137.3470 C   0  0  0  0  0  2  0  0  0  0  0  0
  199.5690  172.5020  136.6200 C   0  0  0  0  0  2  0  0  0  0  0  0
  199.4200  171.2390  137.3230 N   0  0  0  0  0  2  0  0  0  0  0  0
  198.4970  170.4280  136.5480 C   0  0  0  0  0  2  0  0  0  0  0  0
  198.5290  170.8330  135.2130 O   0  0  0  0  0  1  0  0  0  0  0  0
  1  2  1  0  0  0  0
  2  3  2  0  0  0  0
  2 16  1  0  0  0  0
  4  1  1  0  0  0  0
  5  4  1  0  0  0  0
  6  5  1  0  0  0  0
  7  8  1  0  0  0  0
  7  6  1  0  0  0  0
  8  9  1  0  0  0  0
  9 10  1  0  0  0  0
 10 11  1  0  0  0  0
 11 13  1  0  0  0  0
 11 12  1  6  0  0  0
 15 14  1  0  0  0  0
 15 13  1  0  0  0  0
 17 25  1  0  0  0  0
 18 19  1  0  0  0  0
 18 25  2  0  0  0  0
 20 24  1  0  0  0  0
 21 17  2  0  0  0  0
 22 24  1  0  0  0  0
 23 26  2  0  0  0  0
 23 21  1  0  0  0  0
 24 19  2  0  0  0  0
 26 18  1  0  0  0  0
 27 22  2  0  0  0  0
 28 20  2  0  0  0  0
 28 26  1  0  0  0  0
 29 16  1  6  0  0  0
 29 27  1  0  0  0  0
 29 20  1  0  0  0  0
 30 21  1  0  0  0  0
 31 30  1  0  0  0  0
 32  1  1  0  0  0  0
 33 32  1  0  0  0  0
 34 35  2  0  0  0  0
 35 33  2  0  0  0  0
 36 39  1  0  0  0  0
 36 34  1  0  0  0  0
 37 36  2  0  0  0  0
 38 37  1  0  0  0  0
 39 40  2  0  0  0  0
 39 42  1  0  0  0  0
 41 39  2  0  0  0  0
 43 42  1  0  0  0  0
 43 44  1  0  0  0  0
 45 46  1  0  0  0  0
 45 44  1  0  0  0  0
 47 46  1  0  0  0  0
 48 47  1  0  0  0  0
M  END
>  <MODEL>
7

>  <REMARK>
 VINA RESULT:      -6.0      3.155      5.269
  Name = 
  23 active torsions:
  status: ('A' for Active; 'I' for Inactive)
    1  A    between atoms: C_3  and  N_17
    2  A    between atoms: C_3  and  C_47
    3  A    between atoms: N_5  and  C_23
    4  A    between atoms: N_5  and  C_29
    5  A    between atoms: C_7  and  O_8
    6  A    between atoms: C_9  and  C_24
    7  A    between atoms: C_9  and  N_43
    8  A    between atoms: C_10  and  N_17
    9  A    between atoms: C_10  and  C_27
   10  A    between atoms: C_12  and  C_13
   11  A    between atoms: C_13  and  N_14
   12  A    between atoms: N_14  and  C_25
   13  A    between atoms: C_16  and  C_19
   14  A    between atoms: C_19  and  C_46
   15  A    between atoms: C_20  and  C_21
   16  A    between atoms: C_20  and  S_28
   17  A    between atoms: C_24  and  C_29
   18  A    between atoms: C_25  and  C_35
   19  A    between atoms: C_27  and  C_35
   20  A    between atoms: S_28  and  N_43
   21  A    between atoms: C_38  and  O_48
   22  A    between atoms: C_39  and  C_47
   23  A    between atoms: C_39  and  O_48
                            x       y       z     vdW  Elec       q    Type
                         _______ _______ _______ _____ _____    ______ ____

>  <TORSDO>
F 23

$$$$
=
 OpenBabel10232411353D

 48 50  0  0  1  0  0  0  0  0999 V2000
  191.5210  177.1660  140.0510 N   0  0  0  0  0  0  0  0  0  0  0  0
  192.6640  176.9160  139.2180 C   0  0  0  0  0  0  0  0  0  0  0  0
  193.8170  177.2260  139.6270 O   0  0  0  0  0  0  0  0  0  0  0  0
  190.2260  176.5640  139.7500 C   0  0  0  0  0  2  0  0  0  0  0  0
  189.0960  177.4700  140.2140 C   0  0  0  0  0  2  0  0  0  0  0  0
  188.9160  178.6440  139.2690 C   0  0  0  0  0  2  0  0  0  0  0  0
  189.0930  178.1860  137.8340 C   0  0  0  0  0  2  0  0  0  0  0  0
  188.4850  179.1490  136.9350 N   0  0  0  0  0  2  0  0  0  0  0  0
  187.1280  178.6880  136.6900 C   0  0  0  0  0  2  0  0  0  0  0  0
  187.1460  177.4490  135.8110 C   0  0  0  0  0  2  0  0  0  0  0  0
  186.2910  176.3330  136.4140 C   0  0  1  0  0  3  0  0  0  0  0  0
  187.0100  175.5730  137.3450 O   0  0  0  0  0  1  0  0  0  0  0  0
  185.0780  176.8120  136.9540 O   0  0  0  0  0  0  0  0  0  0  0  0
  182.8620  177.2990  136.2100 C   0  0  0  0  0  1  0  0  0  0  0  0
  184.0120  176.3100  136.1900 C   0  0  0  0  0  2  0  0  0  0  0  0
  192.5110  176.2510  137.8830 C   0  0  0  0  0  2  0  0  0  0  0  0
  198.5990  172.7390  136.3780 C   0  0  0  0  0  3  0  0  0  0  0  0
  196.2080  173.1080  136.4100 C   0  0  0  0  0  0  0  0  0  0  0  0
  194.9330  172.8770  135.8680 C   0  0  0  0  0  3  0  0  0  0  0  0
  193.9870  174.2910  137.5750 C   0  0  0  0  0  0  0  0  0  0  0  0
  198.7540  173.5460  137.5190 C   0  0  0  0  0  0  0  0  0  0  0  0
  192.4900  173.3600  136.1550 N   0  0  0  0  0  0  0  0  0  0  0  0
  197.6300  174.1390  138.1040 C   0  0  0  0  0  3  0  0  0  0  0  0
  193.8480  173.4920  136.4900 C   0  0  0  0  0  0  0  0  0  0  0  0
  197.3330  172.5190  135.8280 C   0  0  0  0  0  3  0  0  0  0  0  0
  196.3590  173.9330  137.5630 C   0  0  0  0  0  0  0  0  0  0  0  0
  191.6900  174.0860  137.0610 N   0  0  0  0  0  0  0  0  0  0  0  0
  195.2340  174.5300  138.1550 C   0  0  0  0  0  3  0  0  0  0  0  0
  192.6340  174.7360  138.0010 C   0  0  2  0  0  3  0  0  0  0  0  0
  200.0100  173.7740  138.0880 O   0  0  0  0  0  0  0  0  0  0  0  0
  200.2030  174.6320  139.2050 C   0  0  0  0  0  1  0  0  0  0  0  0
  191.6630  177.9350  141.2800 C   0  0  0  0  0  2  0  0  0  0  0  0
  191.4790  177.0480  142.4630 C   0  0  0  0  0  3  0  0  0  0  0  0
  190.5920  178.0390  144.7110 C   0  0  0  0  0  3  0  0  0  0  0  0
  191.0370  177.5430  143.5850 C   0  0  0  0  0  0  0  0  0  0  0  0
  190.5740  177.2870  145.9800 C   0  0  0  0  0  0  0  0  0  0  0  0
  191.6000  176.4890  146.3080 C   0  0  0  0  0  3  0  0  0  0  0  0
  191.6870  175.6970  147.5700 C   0  0  0  0  0  1  0  0  0  0  0  0
  189.1690  177.5110  147.0310 S   0  0  0  0  0  0  0  0  0  0  0  0
  188.6860  176.1620  147.4860 O   0  0  0  0  0  0  0  0  0  0  0  0
  189.5350  178.3120  148.2500 O   0  0  0  0  0  0  0  0  0  0  0  0
  187.8860  178.2930  146.1630 N   0  0  0  0  0  2  0  0  0  0  0  0
  186.6150  177.8310  146.6990 C   0  0  0  0  0  2  0  0  0  0  0  0
  185.6130  178.9720  146.7330 C   0  0  0  0  0  2  0  0  0  0  0  0
  184.5140  178.7390  145.7110 C   0  0  0  0  0  2  0  0  0  0  0  0
  185.1010  178.5220  144.4000 N   0  0  0  0  0  2  0  0  0  0  0  0
  184.0480  178.7360  143.4220 C   0  0  0  0  0  2  0  0  0  0  0  0
  182.8120  178.7700  144.0690 O   0  0  0  0  0  1  0  0  0  0  0  0
  1 32  1  0  0  0  0
  2  3  2  0  0  0  0
  2  1  1  0  0  0  0
  4  1  1  0  0  0  0
  4  5  1  0  0  0  0
  6  5  1  0  0  0  0
  7  6  1  0  0  0  0
  8  7  1  0  0  0  0
  9  8  1  0  0  0  0
 10 11  1  0  0  0  0
 10  9  1  0  0  0  0
 11 13  1  0  0  0  0
 11 12  1  1  0  0  0
 15 14  1  0  0  0  0
 15 13  1  0  0  0  0
 16  2  1  0  0  0  0
 17 21  1  0  0  0  0
 18 26  1  0  0  0  0
 19 18  2  0  0  0  0
 19 24  1  0  0  0  0
 20 29  1  0  0  0  0
 20 28  1  0  0  0  0
 21 30  1  0  0  0  0
 21 23  2  0  0  0  0
 22 24  1  0  0  0  0
 22 27  2  0  0  0  0
 24 20  2  0  0  0  0
 25 17  2  0  0  0  0
 25 18  1  0  0  0  0
 26 23  1  0  0  0  0
 26 28  2  0  0  0  0
 27 29  1  0  0  0  0
 29 16  1  6  0  0  0
 30 31  1  0  0  0  0
 32 33  1  0  0  0  0
 33 35  2  0  0  0  0
 34 36  1  0  0  0  0
 35 34  2  0  0  0  0
 36 37  2  0  0  0  0
 36 39  1  0  0  0  0
 37 38  1  0  0  0  0
 39 40  2  0  0  0  0
 39 41  2  0  0  0  0
 42 43  1  0  0  0  0
 42 39  1  0  0  0  0
 43 44  1  0  0  0  0
 45 44  1  0  0  0  0
 46 45  1  0  0  0  0
 47 48  1  0  0  0  0
 47 46  1  0  0  0  0
M  END
>  <MODEL>
8

>  <REMARK>
 VINA RESULT:      -5.8      3.410     10.331
  Name = 
  23 active torsions:
  status: ('A' for Active; 'I' for Inactive)
    1  A    between atoms: C_3  and  N_17
    2  A    between atoms: C_3  and  C_47
    3  A    between atoms: N_5  and  C_23
    4  A    between atoms: N_5  and  C_29
    5  A    between atoms: C_7  and  O_8
    6  A    between atoms: C_9  and  C_24
    7  A    between atoms: C_9  and  N_43
    8  A    between atoms: C_10  and  N_17
    9  A    between atoms: C_10  and  C_27
   10  A    between atoms: C_12  and  C_13
   11  A    between atoms: C_13  and  N_14
   12  A    between atoms: N_14  and  C_25
   13  A    between atoms: C_16  and  C_19
   14  A    between atoms: C_19  and  C_46
   15  A    between atoms: C_20  and  C_21
   16  A    between atoms: C_20  and  S_28
   17  A    between atoms: C_24  and  C_29
   18  A    between atoms: C_25  and  C_35
   19  A    between atoms: C_27  and  C_35
   20  A    between atoms: S_28  and  N_43
   21  A    between atoms: C_38  and  O_48
   22  A    between atoms: C_39  and  C_47
   23  A    between atoms: C_39  and  O_48
                            x       y       z     vdW  Elec       q    Type
                         _______ _______ _______ _____ _____    ______ ____

>  <TORSDO>
F 23

$$$$
=
 OpenBabel10232411353D

 48 50  0  0  1  0  0  0  0  0999 V2000
  189.8360  177.5590  139.8900 N   0  0  0  0  0  0  0  0  0  0  0  0
  191.1250  177.1990  139.3680 C   0  0  0  0  0  0  0  0  0  0  0  0
  192.1610  177.4080  140.0580 O   0  0  0  0  0  0  0  0  0  0  0  0
  188.6100  177.0730  139.2660 C   0  0  0  0  0  2  0  0  0  0  0  0
  187.9320  178.1860  138.4820 C   0  0  0  0  0  2  0  0  0  0  0  0
  186.7860  177.6460  137.6480 C   0  0  0  0  0  2  0  0  0  0  0  0
  185.4620  178.1300  138.2100 C   0  0  0  0  0  2  0  0  0  0  0  0
  185.6840  178.7910  139.4820 N   0  0  0  0  0  2  0  0  0  0  0  0
  184.3730  179.1530  139.9950 C   0  0  0  0  0  2  0  0  0  0  0  0
  183.5210  179.7460  138.8850 C   0  0  0  0  0  2  0  0  0  0  0  0
  182.0670  179.2860  139.0010 C   0  0  1  0  0  3  0  0  0  0  0  0
  181.4560  179.1730  137.7460 O   0  0  0  0  0  1  0  0  0  0  0  0
  181.9320  178.1020  139.7570 O   0  0  0  0  0  0  0  0  0  0  0  0
  182.4310  175.8280  139.2260 C   0  0  0  0  0  1  0  0  0  0  0  0
  181.5950  177.0480  138.8910 C   0  0  0  0  0  2  0  0  0  0  0  0
  191.2540  176.5370  138.0290 C   0  0  0  0  0  2  0  0  0  0  0  0
  197.0550  173.3250  135.2540 C   0  0  0  0  0  3  0  0  0  0  0  0
  194.7180  173.5490  135.8410 C   0  0  0  0  0  0  0  0  0  0  0  0
  193.3710  173.2110  135.6270 C   0  0  0  0  0  3  0  0  0  0  0  0
  192.7540  174.6560  137.4540 C   0  0  0  0  0  0  0  0  0  0  0  0
  197.4150  174.2020  136.2940 C   0  0  0  0  0  0  0  0  0  0  0  0
  191.0370  173.5600  136.4690 N   0  0  0  0  0  0  0  0  0  0  0  0
  196.4200  174.7560  137.1060 C   0  0  0  0  0  3  0  0  0  0  0  0
  192.4220  173.7920  136.4660 C   0  0  0  0  0  0  0  0  0  0  0  0
  195.7150  172.9990  135.0310 C   0  0  0  0  0  3  0  0  0  0  0  0
  195.0760  174.4430  136.8910 C   0  0  0  0  0  0  0  0  0  0  0  0
  190.4210  174.2840  137.5110 N   0  0  0  0  0  0  0  0  0  0  0  0
  194.0810  175.0020  137.7120 C   0  0  0  0  0  3  0  0  0  0  0  0
  191.5100  175.0410  138.1740 C   0  0  2  0  0  3  0  0  0  0  0  0
  198.7500  174.5370  136.5380 O   0  0  0  0  0  0  0  0  0  0  0  0
  199.6760  174.8120  135.4960 C   0  0  0  0  0  1  0  0  0  0  0  0
  189.7320  178.3250  141.1250 C   0  0  0  0  0  2  0  0  0  0  0  0
  189.7860  177.4110  142.3000 C   0  0  0  0  0  3  0  0  0  0  0  0
  190.0110  178.3950  144.7080 C   0  0  0  0  0  3  0  0  0  0  0  0
  189.8990  177.9020  143.5020 C   0  0  0  0  0  0  0  0  0  0  0  0
  190.2770  177.5700  145.9020 C   0  0  0  0  0  0  0  0  0  0  0  0
  191.3970  176.8380  145.9840 C   0  0  0  0  0  3  0  0  0  0  0  0
  191.7660  175.9820  147.1500 C   0  0  0  0  0  1  0  0  0  0  0  0
  189.0750  177.6180  147.2000 S   0  0  0  0  0  0  0  0  0  0  0  0
  188.6620  176.2100  147.5280 O   0  0  0  0  0  0  0  0  0  0  0  0
  189.6540  178.2360  148.4430 O   0  0  0  0  0  0  0  0  0  0  0  0
  187.6710  178.5010  146.6890 N   0  0  0  0  0  2  0  0  0  0  0  0
  186.5980  177.5530  146.4270 C   0  0  0  0  0  2  0  0  0  0  0  0
  186.5490  177.2120  144.9470 C   0  0  0  0  0  2  0  0  0  0  0  0
  186.1720  178.4390  144.1360 C   0  0  0  0  0  2  0  0  0  0  0  0
  185.0540  178.1270  143.2630 N   0  0  0  0  0  2  0  0  0  0  0  0
  183.8430  178.4880  143.9790 C   0  0  0  0  0  2  0  0  0  0  0  0
  183.7680  179.8760  144.0970 O   0  0  0  0  0  1  0  0  0  0  0  0
  1 32  1  0  0  0  0
  2  1  1  0  0  0  0
  2  3  2  0  0  0  0
  4  1  1  0  0  0  0
  5  4  1  0  0  0  0
  6  7  1  0  0  0  0
  6  5  1  0  0  0  0
  7  8  1  0  0  0  0
  8  9  1  0  0  0  0
 10 11  1  0  0  0  0
 10  9  1  0  0  0  0
 11 12  1  6  0  0  0
 11 13  1  0  0  0  0
 15 14  1  0  0  0  0
 15 13  1  0  0  0  0
 16  2  1  0  0  0  0
 17 21  1  0  0  0  0
 18 26  1  0  0  0  0
 19 18  2  0  0  0  0
 19 24  1  0  0  0  0
 20 28  1  0  0  0  0
 20 29  1  0  0  0  0
 21 30  1  0  0  0  0
 21 23  2  0  0  0  0
 22 27  2  0  0  0  0
 24 22  1  0  0  0  0
 24 20  2  0  0  0  0
 25 17  2  0  0  0  0
 25 18  1  0  0  0  0
 26 23  1  0  0  0  0
 26 28  2  0  0  0  0
 27 29  1  0  0  0  0
 29 16  1  6  0  0  0
 31 30  1  0  0  0  0
 32 33  1  0  0  0  0
 33 35  2  0  0  0  0
 34 36  1  0  0  0  0
 35 34  2  0  0  0  0
 36 37  2  0  0  0  0
 36 39  1  0  0  0  0
 37 38  1  0  0  0  0
 39 40  2  0  0  0  0
 39 41  2  0  0  0  0
 42 39  1  0  0  0  0
 43 42  1  0  0  0  0
 44 43  1  0  0  0  0
 45 44  1  0  0  0  0
 46 47  1  0  0  0  0
 46 45  1  0  0  0  0
 47 48  1  0  0  0  0
M  END
>  <MODEL>
9

>  <REMARK>
 VINA RESULT:      -5.8      3.336      9.849
  Name = 
  23 active torsions:
  status: ('A' for Active; 'I' for Inactive)
    1  A    between atoms: C_3  and  N_17
    2  A    between atoms: C_3  and  C_47
    3  A    between atoms: N_5  and  C_23
    4  A    between atoms: N_5  and  C_29
    5  A    between atoms: C_7  and  O_8
    6  A    between atoms: C_9  and  C_24
    7  A    between atoms: C_9  and  N_43
    8  A    between atoms: C_10  and  N_17
    9  A    between atoms: C_10  and  C_27
   10  A    between atoms: C_12  and  C_13
   11  A    between atoms: C_13  and  N_14
   12  A    between atoms: N_14  and  C_25
   13  A    between atoms: C_16  and  C_19
   14  A    between atoms: C_19  and  C_46
   15  A    between atoms: C_20  and  C_21
   16  A    between atoms: C_20  and  S_28
   17  A    between atoms: C_24  and  C_29
   18  A    between atoms: C_25  and  C_35
   19  A    between atoms: C_27  and  C_35
   20  A    between atoms: S_28  and  N_43
   21  A    between atoms: C_38  and  O_48
   22  A    between atoms: C_39  and  C_47
   23  A    between atoms: C_39  and  O_48
                            x       y       z     vdW  Elec       q    Type
                         _______ _______ _______ _____ _____    ______ ____

>  <TORSDO>
F 23

$$$$
