=
 OpenBabel10232412183D

 56 62  0  0  1  0  0  0  0  0999 V2000
  184.2670  179.1960  140.1660 C   0  0  2  0  0  3  0  0  0  0  0  0
  182.8930  178.5160  140.3040 C   0  0  1  0  0  3  0  0  0  0  0  0
  181.3470  178.1860  138.3940 C   0  0  0  0  0  3  0  0  0  0  0  0
  181.8400  179.0070  139.3290 C   0  0  0  0  0  3  0  0  0  0  0  0
  181.7730  176.7470  138.3250 C   0  0  1  0  0  3  0  0  0  0  0  0
  183.0920  176.5630  139.0860 C   0  0  0  0  0  2  0  0  0  0  0  0
  182.9880  177.1030  140.3860 O   0  0  0  0  0  0  0  0  0  0  0  0
  180.7400  175.9120  138.9180 N   0  0  0  0  0  2  0  0  0  0  0  0
  181.1000  174.4740  137.0590 C   0  0  0  0  0  2  0  0  0  0  0  0
  180.0930  175.1870  137.8360 C   0  0  1  0  0  3  0  0  0  0  0  0
  180.2880  173.7430  138.0410 N   0  0  0  0  0  2  0  0  0  0  0  0
  185.8360  178.3730  138.4470 C   0  0  0  0  0  3  0  0  0  0  0  0
  184.7710  179.1120  138.7560 C   0  0  0  0  0  3  0  0  0  0  0  0
  188.0880  176.4820  136.7620 C   0  0  0  0  0  0  0  0  0  0  0  0
  187.6950  177.8230  136.9890 N   0  0  0  0  0  0  0  0  0  0  0  0
  186.3110  178.2900  137.0300 C   0  0  1  0  0  3  0  0  0  0  0  0
  189.3930  176.3050  136.9730 C   0  0  0  0  0  0  0  0  0  0  0  0
  190.0420  177.5740  137.4540 C   0  0  0  0  0  2  0  0  0  0  0  0
  188.8810  179.6950  137.8020 O   0  0  0  0  0  0  0  0  0  0  0  0
  185.6880  175.8720  136.5780 C   0  0  0  0  0  2  0  0  0  0  0  0
  185.4170  177.3400  136.2170 C   0  0  0  0  0  2  0  0  0  0  0  0
  188.8620  178.4880  137.4420 C   0  0  0  0  0  0  0  0  0  0  0  0
  187.1230  175.4650  136.2320 C   0  0  0  0  0  2  0  0  0  0  0  0
  190.1290  175.0190  136.7990 C   0  0  0  0  0  2  0  0  0  0  0  0
  191.4390  175.2510  136.0520 C   0  0  0  0  0  2  0  0  0  0  0  0
  192.8600  170.7980  135.3010 C   0  0  0  0  0  1  0  0  0  0  0  0
  192.0520  172.8180  136.1470 C   0  0  0  0  0  2  0  0  0  0  0  0
  192.5200  174.2330  136.4120 C   0  0  1  0  0  0  0  0  0  0  0  0
  193.7650  174.4040  135.5550 C   0  0  2  0  0  3  0  0  0  0  0  0
  192.8220  174.3560  137.7720 O   0  0  0  0  0  1  0  0  0  0  0  0
  194.5420  172.7800  135.3210 S   0  0  0  0  0  0  0  0  0  0  0  0
  193.2090  171.9340  136.1350 N   0  0  0  0  0  0  0  0  0  0  0  0
  194.7160  175.4880  135.9850 C   0  0  0  0  0  0  0  0  0  0  0  0
  195.4520  175.2690  136.9840 O   0  0  0  0  0  0  0  0  0  0  0  0
  194.8320  176.7820  135.2860 C   0  0  0  0  0  0  0  0  0  0  0  0
  196.0000  177.5260  135.4010 O   0  0  0  0  0  1  0  0  0  0  0  0
  193.8840  177.2280  134.5850 O   0  0  0  0  0  0  0  0  0  0  0  0
  185.2980  178.6080  141.1240 C   0  0  0  0  0  2  0  0  0  0  0  0
  184.6340  178.1430  142.4090 C   0  0  0  0  0  2  0  0  0  0  0  0
  184.3720  179.3310  143.3220 C   0  0  0  0  0  2  0  0  0  0  0  0
  185.7620  178.0790  144.9140 C   0  0  0  0  0  3  0  0  0  0  0  0
  185.1270  179.2070  144.6050 C   0  0  0  0  0  3  0  0  0  0  0  0
  186.5080  177.9710  146.2000 C   0  0  0  0  0  2  0  0  0  0  0  0
  188.4210  177.5740  148.4130 C   0  0  0  0  0  1  0  0  0  0  0  0
  191.2300  176.9730  147.7570 C   0  0  0  0  0  1  0  0  0  0  0  0
  189.7230  177.3190  144.3040 C   0  0  0  0  0  0  0  0  0  0  0  0
  188.3840  177.6010  144.6060 C   0  0  0  0  0  3  0  0  0  0  0  0
  190.6320  177.1180  145.3500 C   0  0  0  0  0  3  0  0  0  0  0  0
  188.8700  177.4810  146.9860 C   0  0  0  0  0  0  0  0  0  0  0  0
  190.2170  177.1980  146.6830 C   0  0  0  0  0  0  0  0  0  0  0  0
  187.9520  177.6860  145.9340 C   0  0  0  0  0  0  0  0  0  0  0  0
  191.4470  177.1260  141.0150 N   0  0  0  0  0  0  0  0  0  0  0  0
  189.3630  177.1980  141.8990 N   0  0  0  0  0  0  0  0  0  0  0  0
  190.1850  177.1290  140.7410 C   0  0  0  0  0  3  0  0  0  0  0  0
  190.1730  177.2390  142.9040 C   0  0  0  0  0  0  0  0  0  0  0  0
  191.5960  177.1980  142.4610 C   0  0  0  0  0  2  0  0  0  0  0  0
  1 13  1  6  0  0  0
  1 38  1  0  0  0  0
  2  1  1  6  0  0  0
  2  7  1  0  0  0  0
  3  4  2  0  0  0  0
  4  2  1  0  0  0  0
  5  3  1  0  0  0  0
  5  8  1  1  0  0  0
  5  6  1  0  0  0  0
  6  7  1  0  0  0  0
  9 10  1  0  0  0  0
  9 11  1  0  0  0  0
 10 11  1  0  0  0  0
 10  8  1  1  0  0  0
 12 13  2  0  0  0  0
 14 17  2  0  0  0  0
 14 15  1  0  0  0  0
 15 16  1  0  0  0  0
 15 22  1  0  0  0  0
 16 12  1  1  0  0  0
 17 18  1  0  0  0  0
 21 20  1  0  0  0  0
 21 16  1  0  0  0  0
 22 18  1  0  0  0  0
 22 19  2  0  0  0  0
 23 20  1  0  0  0  0
 23 14  1  0  0  0  0
 24 17  1  0  0  0  0
 25 28  1  0  0  0  0
 25 24  1  0  0  0  0
 26 32  1  0  0  0  0
 27 28  1  0  0  0  0
 28 30  1  1  0  0  0
 29 33  1  1  0  0  0
 29 28  1  0  0  0  0
 31 29  1  0  0  0  0
 31 32  1  0  0  0  0
 32 27  1  0  0  0  0
 33 34  2  0  0  0  0
 35 36  1  0  0  0  0
 35 33  1  0  0  0  0
 37 35  2  0  0  0  0
 38 39  1  0  0  0  0
 39 40  1  0  0  0  0
 40 42  1  0  0  0  0
 41 43  1  0  0  0  0
 42 41  2  0  0  0  0
 46 47  2  0  0  0  0
 46 48  1  0  0  0  0
 47 51  1  0  0  0  0
 48 50  2  0  0  0  0
 49 44  1  0  0  0  0
 50 49  1  0  0  0  0
 50 45  1  0  0  0  0
 51 43  1  0  0  0  0
 51 49  2  0  0  0  0
 52 56  1  0  0  0  0
 53 55  2  0  0  0  0
 54 52  2  0  0  0  0
 54 53  1  0  0  0  0
 55 46  1  0  0  0  0
 56 55  1  0  0  0  0
M  END
>  <MODEL>
1

>  <REMARK>
 VINA RESULT:      -9.0      0.000      0.000
  Name = 
  17 active torsions:
  status: ('A' for Active; 'I' for Inactive)
    1  A    between atoms: C_3  and  C_8
    2  A    between atoms: C_10  and  C_33
    3  A    between atoms: C_11  and  C_14
    4  A    between atoms: C_12  and  C_16
    5  A    between atoms: C_13  and  C_55
    6  A    between atoms: C_14  and  C_33
    7  A    between atoms: C_16  and  C_17
    8  A    between atoms: C_20  and  C_42
    9  A    between atoms: C_24  and  C_26
   10  A    between atoms: C_24  and  C_55
   11  A    between atoms: C_26  and  C_27
   12  A    between atoms: C_27  and  C_52
   13  A    between atoms: N_36  and  C_40
   14  A    between atoms: N_36  and  C_44
   15  A    between atoms: C_37  and  C_48
   16  A    between atoms: C_45  and  C_55
   17  A    between atoms: C_48  and  C_53
                            x       y       z     vdW  Elec       q    Type
                         _______ _______ _______ _____ _____    ______ ____

>  <TORSDO>
F 17

$$$$
=
 OpenBabel10232412183D

 56 62  0  0  1  0  0  0  0  0999 V2000
  184.1170  178.9030  139.6390 C   0  0  2  0  0  3  0  0  0  0  0  0
  182.6940  178.3180  139.6710 C   0  0  1  0  0  3  0  0  0  0  0  0
  181.4920  177.5680  137.6350 C   0  0  0  0  0  3  0  0  0  0  0  0
  181.8700  178.5810  138.4250 C   0  0  0  0  0  3  0  0  0  0  0  0
  181.8150  176.1460  137.9940 C   0  0  1  0  0  3  0  0  0  0  0  0
  182.9610  176.1190  139.0140 C   0  0  0  0  0  2  0  0  0  0  0  0
  182.6680  176.9670  140.1040 O   0  0  0  0  0  0  0  0  0  0  0  0
  180.6340  175.5130  138.5610 N   0  0  0  0  0  2  0  0  0  0  0  0
  181.1370  173.5280  137.3510 C   0  0  0  0  0  2  0  0  0  0  0  0
  180.1360  174.5650  137.5780 C   0  0  1  0  0  3  0  0  0  0  0  0
  179.9820  173.2480  138.2150 N   0  0  0  0  0  2  0  0  0  0  0  0
  185.9560  178.0990  138.2020 C   0  0  0  0  0  3  0  0  0  0  0  0
  184.7620  178.6820  138.3030 C   0  0  0  0  0  3  0  0  0  0  0  0
  188.5210  176.2340  137.0060 C   0  0  0  0  0  0  0  0  0  0  0  0
  187.9900  177.5470  137.0020 N   0  0  0  0  0  0  0  0  0  0  0  0
  186.5730  177.8720  136.8570 C   0  0  1  0  0  3  0  0  0  0  0  0
  189.8090  176.2220  137.3490 C   0  0  0  0  0  0  0  0  0  0  0  0
  190.2930  177.6040  137.6950 C   0  0  0  0  0  2  0  0  0  0  0  0
  188.9210  179.6230  137.6310 O   0  0  0  0  0  0  0  0  0  0  0  0
  186.2140  175.3640  136.7110 C   0  0  0  0  0  2  0  0  0  0  0  0
  185.8510  176.7340  136.1190 C   0  0  0  0  0  2  0  0  0  0  0  0
  189.0440  178.3830  137.4500 C   0  0  0  0  0  0  0  0  0  0  0  0
  187.7070  175.0620  136.5500 C   0  0  0  0  0  2  0  0  0  0  0  0
  190.6700  175.0050  137.4280 C   0  0  0  0  0  2  0  0  0  0  0  0
  192.1210  175.3950  137.6960 C   0  0  0  0  0  2  0  0  0  0  0  0
  195.3840  177.5350  135.0150 C   0  0  0  0  0  1  0  0  0  0  0  0
  193.4780  176.5320  135.9160 C   0  0  0  0  0  2  0  0  0  0  0  0
  193.0250  175.2020  136.4790 C   0  0  1  0  0  0  0  0  0  0  0  0
  194.3080  174.4690  136.8410 C   0  0  2  0  0  3  0  0  0  0  0  0
  192.3130  174.5170  135.4910 O   0  0  0  0  0  1  0  0  0  0  0  0
  195.6420  175.0570  135.7580 S   0  0  0  0  0  0  0  0  0  0  0  0
  194.6100  176.3060  135.0290 N   0  0  0  0  0  0  0  0  0  0  0  0
  194.2050  172.9710  136.9350 C   0  0  0  0  0  0  0  0  0  0  0  0
  193.4190  172.3790  136.1490 O   0  0  0  0  0  0  0  0  0  0  0  0
  194.9870  172.1690  137.8960 C   0  0  0  0  0  0  0  0  0  0  0  0
  195.3150  170.8540  137.5900 O   0  0  0  0  0  0  0  0  0  0  0  0
  195.3630  172.6580  138.9950 O   0  0  0  0  0  1  0  0  0  0  0  0
  184.9990  178.3310  140.7440 C   0  0  0  0  0  2  0  0  0  0  0  0
  184.9960  179.2440  141.9600 C   0  0  0  0  0  2  0  0  0  0  0  0
  183.8820  178.8420  142.9140 C   0  0  0  0  0  2  0  0  0  0  0  0
  185.6470  178.6590  144.6120 C   0  0  0  0  0  3  0  0  0  0  0  0
  184.4310  178.3120  144.1980 C   0  0  0  0  0  3  0  0  0  0  0  0
  186.1810  178.1180  145.8940 C   0  0  0  0  0  2  0  0  0  0  0  0
  187.8770  177.6360  148.2620 C   0  0  0  0  0  1  0  0  0  0  0  0
  190.7210  176.9890  147.8510 C   0  0  0  0  0  1  0  0  0  0  0  0
  189.5430  177.4370  144.2850 C   0  0  0  0  0  0  0  0  0  0  0  0
  188.1880  177.7400  144.4700 C   0  0  0  0  0  3  0  0  0  0  0  0
  190.3490  177.1950  145.4030 C   0  0  0  0  0  3  0  0  0  0  0  0
  188.4520  177.5620  146.8810 C   0  0  0  0  0  0  0  0  0  0  0  0
  189.8150  177.2560  146.6950 C   0  0  0  0  0  0  0  0  0  0  0  0
  187.6380  177.8080  145.7550 C   0  0  0  0  0  0  0  0  0  0  0  0
  191.5480  177.1830  141.1630 N   0  0  0  0  0  0  0  0  0  0  0  0
  189.4180  177.5250  141.8540 N   0  0  0  0  0  0  0  0  0  0  0  0
  190.3340  177.4000  140.7750 C   0  0  0  0  0  3  0  0  0  0  0  0
  190.1170  177.3750  142.9300 C   0  0  0  0  0  0  0  0  0  0  0  0
  191.5560  177.1390  142.6170 C   0  0  0  0  0  2  0  0  0  0  0  0
  1 13  1  6  0  0  0
  1 38  1  0  0  0  0
  2  1  1  6  0  0  0
  2  7  1  0  0  0  0
  3  5  1  0  0  0  0
  3  4  2  0  0  0  0
  4  2  1  0  0  0  0
  5  8  1  1  0  0  0
  5  6  1  0  0  0  0
  6  7  1  0  0  0  0
  9 10  1  0  0  0  0
  9 11  1  0  0  0  0
 10 11  1  0  0  0  0
 10  8  1  1  0  0  0
 12 13  2  0  0  0  0
 14 17  2  0  0  0  0
 15 14  1  0  0  0  0
 15 22  1  0  0  0  0
 16 15  1  0  0  0  0
 16 12  1  1  0  0  0
 17 24  1  0  0  0  0
 17 18  1  0  0  0  0
 21 20  1  0  0  0  0
 21 16  1  0  0  0  0
 22 19  2  0  0  0  0
 22 18  1  0  0  0  0
 23 20  1  0  0  0  0
 23 14  1  0  0  0  0
 24 25  1  0  0  0  0
 26 32  1  0  0  0  0
 27 28  1  0  0  0  0
 28 30  1  6  0  0  0
 28 29  1  0  0  0  0
 28 25  1  0  0  0  0
 29 33  1  6  0  0  0
 31 29  1  0  0  0  0
 32 31  1  0  0  0  0
 32 27  1  0  0  0  0
 33 35  1  0  0  0  0
 34 33  2  0  0  0  0
 35 37  1  0  0  0  0
 36 35  2  0  0  0  0
 38 39  1  0  0  0  0
 39 40  1  0  0  0  0
 40 42  1  0  0  0  0
 41 43  1  0  0  0  0
 42 41  2  0  0  0  0
 46 47  2  0  0  0  0
 46 48  1  0  0  0  0
 47 51  1  0  0  0  0
 48 50  2  0  0  0  0
 49 44  1  0  0  0  0
 50 49  1  0  0  0  0
 50 45  1  0  0  0  0
 51 43  1  0  0  0  0
 51 49  2  0  0  0  0
 52 56  1  0  0  0  0
 53 55  2  0  0  0  0
 54 52  2  0  0  0  0
 54 53  1  0  0  0  0
 55 46  1  0  0  0  0
 56 55  1  0  0  0  0
M  END
>  <MODEL>
2

>  <REMARK>
 VINA RESULT:      -8.8      1.441      2.179
  Name = 
  17 active torsions:
  status: ('A' for Active; 'I' for Inactive)
    1  A    between atoms: C_3  and  C_8
    2  A    between atoms: C_10  and  C_33
    3  A    between atoms: C_11  and  C_14
    4  A    between atoms: C_12  and  C_16
    5  A    between atoms: C_13  and  C_55
    6  A    between atoms: C_14  and  C_33
    7  A    between atoms: C_16  and  C_17
    8  A    between atoms: C_20  and  C_42
    9  A    between atoms: C_24  and  C_26
   10  A    between atoms: C_24  and  C_55
   11  A    between atoms: C_26  and  C_27
   12  A    between atoms: C_27  and  C_52
   13  A    between atoms: N_36  and  C_40
   14  A    between atoms: N_36  and  C_44
   15  A    between atoms: C_37  and  C_48
   16  A    between atoms: C_45  and  C_55
   17  A    between atoms: C_48  and  C_53
                            x       y       z     vdW  Elec       q    Type
                         _______ _______ _______ _____ _____    ______ ____

>  <TORSDO>
F 17

$$$$
=
 OpenBabel10232412183D

 56 62  0  0  1  0  0  0  0  0999 V2000
  190.7280  175.6430  137.0850 C   0  0  2  0  0  3  0  0  0  0  0  0
  192.1220  175.8280  136.4580 C   0  0  1  0  0  3  0  0  0  0  0  0
  194.2300  175.4720  137.7150 C   0  0  0  0  0  3  0  0  0  0  0  0
  193.1990  176.2770  137.4270 C   0  0  0  0  0  3  0  0  0  0  0  0
  194.3800  174.1380  137.0420 C   0  0  1  0  0  3  0  0  0  0  0  0
  193.0340  173.7060  136.4460 C   0  0  0  0  0  2  0  0  0  0  0  0
  192.5020  174.7350  135.6390 O   0  0  0  0  0  0  0  0  0  0  0  0
  195.3770  174.2410  135.9880 N   0  0  0  0  0  2  0  0  0  0  0  0
  197.5590  173.6360  136.7150 C   0  0  0  0  0  2  0  0  0  0  0  0
  196.6030  174.7310  136.5960 C   0  0  1  0  0  3  0  0  0  0  0  0
  197.7030  174.6110  135.6260 N   0  0  0  0  0  2  0  0  0  0  0  0
  188.4770  174.9970  136.3040 C   0  0  0  0  0  3  0  0  0  0  0  0
  189.6740  175.5130  136.0260 C   0  0  0  0  0  3  0  0  0  0  0  0
  185.0900  175.0990  136.2190 C   0  0  0  0  0  0  0  0  0  0  0  0
  186.2010  174.3340  135.7890 N   0  0  0  0  0  0  0  0  0  0  0  0
  187.4330  174.8920  135.2360 C   0  0  1  0  0  3  0  0  0  0  0  0
  184.1900  174.3490  136.8570 C   0  0  0  0  0  0  0  0  0  0  0  0
  184.6610  172.9260  136.9850 C   0  0  0  0  0  2  0  0  0  0  0  0
  186.7860  172.0730  136.1350 O   0  0  0  0  0  0  0  0  0  0  0  0
  186.3310  177.1520  135.5820 C   0  0  0  0  0  2  0  0  0  0  0  0
  187.1500  176.2740  134.6240 C   0  0  0  0  0  2  0  0  0  0  0  0
  185.9710  173.0230  136.2750 C   0  0  0  0  0  0  0  0  0  0  0  0
  184.9530  176.5460  135.8590 C   0  0  0  0  0  2  0  0  0  0  0  0
  182.8970  174.8410  137.4160 C   0  0  0  0  0  2  0  0  0  0  0  0
  183.1070  175.4300  138.8080 C   0  0  0  0  0  2  0  0  0  0  0  0
  179.9840  177.6030  141.6240 C   0  0  0  0  0  1  0  0  0  0  0  0
  181.1350  176.5420  139.8930 C   0  0  0  0  0  2  0  0  0  0  0  0
  182.3550  176.7440  139.0190 C   0  0  1  0  0  0  0  0  0  0  0  0
  183.2050  177.7680  139.7570 C   0  0  2  0  0  3  0  0  0  0  0  0
  181.9400  177.2320  137.7770 O   0  0  0  0  0  1  0  0  0  0  0  0
  182.1150  178.8170  140.7620 S   0  0  0  0  0  0  0  0  0  0  0  0
  180.6820  177.8400  140.3740 N   0  0  0  0  0  0  0  0  0  0  0  0
  184.1920  178.5300  138.9170 C   0  0  0  0  0  0  0  0  0  0  0  0
  183.7990  178.9980  137.8150 O   0  0  0  0  0  0  0  0  0  0  0  0
  185.5900  178.7620  139.3290 C   0  0  0  0  0  0  0  0  0  0  0  0
  185.8570  179.4730  140.4930 O   0  0  0  0  0  1  0  0  0  0  0  0
  186.5520  178.3260  138.6390 O   0  0  0  0  0  0  0  0  0  0  0  0
  190.3710  176.7780  138.0380 C   0  0  0  0  0  2  0  0  0  0  0  0
  190.5960  176.3580  139.4810 C   0  0  0  0  0  2  0  0  0  0  0  0
  190.0630  177.4230  140.4270 C   0  0  0  0  0  2  0  0  0  0  0  0
  189.6240  176.9300  142.7930 C   0  0  0  0  0  3  0  0  0  0  0  0
  190.5100  177.1760  141.8310 C   0  0  0  0  0  3  0  0  0  0  0  0
  190.0870  176.6880  144.1890 C   0  0  0  0  0  2  0  0  0  0  0  0
  190.7080  176.9450  147.0630 C   0  0  0  0  0  1  0  0  0  0  0  0
  188.6200  177.9720  148.8710 C   0  0  0  0  0  1  0  0  0  0  0  0
  186.8090  178.0140  145.5500 C   0  0  0  0  0  0  0  0  0  0  0  0
  187.7970  177.5310  144.6820 C   0  0  0  0  0  3  0  0  0  0  0  0
  187.1020  178.1490  146.9120 C   0  0  0  0  0  3  0  0  0  0  0  0
  189.3570  177.3210  146.5360 C   0  0  0  0  0  0  0  0  0  0  0  0
  188.3630  177.8070  147.4090 C   0  0  0  0  0  0  0  0  0  0  0  0
  189.0630  177.1820  145.1620 C   0  0  0  0  0  0  0  0  0  0  0  0
  183.6840  178.7810  143.6860 N   0  0  0  0  0  0  0  0  0  0  0  0
  184.5050  178.7640  145.7970 N   0  0  0  0  0  0  0  0  0  0  0  0
  183.4080  179.0100  144.9270 C   0  0  0  0  0  2  0  0  0  0  0  0
  185.4750  178.3720  145.0390 C   0  0  0  0  0  0  0  0  0  0  0  0
  185.0670  178.3360  143.6050 C   0  0  0  0  0  3  0  0  0  0  0  0
  1 13  1  6  0  0  0
  1 38  1  0  0  0  0
  2  1  1  1  0  0  0
  2  4  1  0  0  0  0
  4  3  2  0  0  0  0
  5  8  1  6  0  0  0
  5  3  1  0  0  0  0
  6  5  1  0  0  0  0
  7  6  1  0  0  0  0
  7  2  1  0  0  0  0
 10  8  1  6  0  0  0
 10  9  1  0  0  0  0
 11 10  1  0  0  0  0
 11  9  1  0  0  0  0
 13 12  2  0  0  0  0
 14 17  2  0  0  0  0
 15 14  1  0  0  0  0
 15 22  1  0  0  0  0
 16 15  1  0  0  0  0
 16 12  1  1  0  0  0
 17 18  1  0  0  0  0
 17 24  1  0  0  0  0
 19 22  2  0  0  0  0
 20 23  1  0  0  0  0
 21 16  1  0  0  0  0
 21 20  1  0  0  0  0
 22 18  1  0  0  0  0
 23 14  1  0  0  0  0
 24 25  1  0  0  0  0
 25 28  1  0  0  0  0
 27 32  1  0  0  0  0
 28 30  1  6  0  0  0
 28 29  1  0  0  0  0
 28 27  1  0  0  0  0
 29 33  1  6  0  0  0
 29 31  1  0  0  0  0
 32 31  1  0  0  0  0
 32 26  1  0  0  0  0
 33 35  1  0  0  0  0
 34 33  2  0  0  0  0
 35 36  1  0  0  0  0
 37 35  2  0  0  0  0
 38 39  1  0  0  0  0
 39 40  1  0  0  0  0
 40 42  1  0  0  0  0
 41 43  1  0  0  0  0
 42 41  2  0  0  0  0
 43 51  1  0  0  0  0
 46 48  1  0  0  0  0
 47 51  1  0  0  0  0
 47 46  2  0  0  0  0
 48 50  2  0  0  0  0
 49 44  1  0  0  0  0
 49 50  1  0  0  0  0
 50 45  1  0  0  0  0
 51 49  2  0  0  0  0
 52 54  1  0  0  0  0
 54 53  1  0  0  0  0
 55 46  1  0  0  0  0
 55 53  2  0  0  0  0
 56 52  2  0  0  0  0
 56 55  1  0  0  0  0
M  END
>  <MODEL>
3

>  <REMARK>
 VINA RESULT:      -8.6      3.129      9.183
  Name = 
  17 active torsions:
  status: ('A' for Active; 'I' for Inactive)
    1  A    between atoms: C_3  and  C_8
    2  A    between atoms: C_10  and  C_33
    3  A    between atoms: C_11  and  C_14
    4  A    between atoms: C_12  and  C_16
    5  A    between atoms: C_13  and  C_55
    6  A    between atoms: C_14  and  C_33
    7  A    between atoms: C_16  and  C_17
    8  A    between atoms: C_20  and  C_42
    9  A    between atoms: C_24  and  C_26
   10  A    between atoms: C_24  and  C_55
   11  A    between atoms: C_26  and  C_27
   12  A    between atoms: C_27  and  C_52
   13  A    between atoms: N_36  and  C_40
   14  A    between atoms: N_36  and  C_44
   15  A    between atoms: C_37  and  C_48
   16  A    between atoms: C_45  and  C_55
   17  A    between atoms: C_48  and  C_53
                            x       y       z     vdW  Elec       q    Type
                         _______ _______ _______ _____ _____    ______ ____

>  <TORSDO>
F 17

$$$$
=
 OpenBabel10232412183D

 56 62  0  0  1  0  0  0  0  0999 V2000
  184.2790  177.6590  137.2590 C   0  0  2  0  0  3  0  0  0  0  0  0
  183.2200  176.5480  137.1470 C   0  0  1  0  0  3  0  0  0  0  0  0
  183.3000  174.7690  135.4210 C   0  0  0  0  0  3  0  0  0  0  0  0
  182.9870  176.0310  135.7400 C   0  0  0  0  0  3  0  0  0  0  0  0
  183.8260  173.8180  136.4570 C   0  0  1  0  0  3  0  0  0  0  0  0
  184.3650  174.6070  137.6570 C   0  0  0  0  0  2  0  0  0  0  0  0
  183.3960  175.5250  138.1150 O   0  0  0  0  0  0  0  0  0  0  0  0
  182.7530  172.9350  136.8880 N   0  0  0  0  0  2  0  0  0  0  0  0
  181.7570  171.0230  135.8830 C   0  0  0  0  0  2  0  0  0  0  0  0
  182.1000  172.4280  135.6920 C   0  0  1  0  0  3  0  0  0  0  0  0
  180.7160  172.0520  136.0220 N   0  0  0  0  0  2  0  0  0  0  0  0
  186.4620  176.8060  136.4840 C   0  0  0  0  0  3  0  0  0  0  0  0
  185.3490  177.4900  136.2220 C   0  0  0  0  0  3  0  0  0  0  0  0
  189.5210  175.3540  136.3310 C   0  0  0  0  0  0  0  0  0  0  0  0
  188.8340  176.5580  136.0410 N   0  0  0  0  0  0  0  0  0  0  0  0
  187.5100  176.6350  135.4290 C   0  0  1  0  0  3  0  0  0  0  0  0
  190.6140  175.5710  137.0620 C   0  0  0  0  0  0  0  0  0  0  0  0
  190.7510  177.0270  137.4160 C   0  0  0  0  0  2  0  0  0  0  0  0
  189.1940  178.7830  136.7420 O   0  0  0  0  0  0  0  0  0  0  0  0
  187.5900  174.0980  135.4030 C   0  0  0  0  0  2  0  0  0  0  0  0
  187.2420  175.3640  134.6060 C   0  0  0  0  0  2  0  0  0  0  0  0
  189.5500  177.5750  136.7210 C   0  0  0  0  0  0  0  0  0  0  0  0
  189.0810  174.0450  135.7490 C   0  0  0  0  0  2  0  0  0  0  0  0
  191.5710  174.5200  137.5180 C   0  0  0  0  0  2  0  0  0  0  0  0
  192.9450  175.1300  137.7830 C   0  0  0  0  0  2  0  0  0  0  0  0
  195.7920  177.2080  134.6220 C   0  0  0  0  0  1  0  0  0  0  0  0
  194.1160  176.0480  135.7600 C   0  0  0  0  0  2  0  0  0  0  0  0
  193.9490  174.8460  136.6650 C   0  0  1  0  0  0  0  0  0  0  0  0
  195.3400  174.5680  137.2140 C   0  0  2  0  0  3  0  0  0  0  0  0
  193.4830  173.7720  135.9010 O   0  0  0  0  0  1  0  0  0  0  0  0
  196.5700  175.1540  136.0130 S   0  0  0  0  0  0  0  0  0  0  0  0
  195.3270  175.8770  134.9700 N   0  0  0  0  0  0  0  0  0  0  0  0
  195.5820  173.1700  137.7140 C   0  0  0  0  0  0  0  0  0  0  0  0
  195.0810  172.8400  138.8210 O   0  0  0  0  0  0  0  0  0  0  0  0
  196.3670  172.1710  136.9620 C   0  0  0  0  0  0  0  0  0  0  0  0
  195.9080  171.7180  135.7310 O   0  0  0  0  0  0  0  0  0  0  0  0
  197.4500  171.7180  137.4210 O   0  0  0  0  0  1  0  0  0  0  0  0
  184.9050  177.7190  138.6480 C   0  0  0  0  0  2  0  0  0  0  0  0
  184.4170  178.9440  139.4040 C   0  0  0  0  0  2  0  0  0  0  0  0
  183.2200  178.5840  140.2690 C   0  0  0  0  0  2  0  0  0  0  0  0
  184.1350  178.1810  142.5130 C   0  0  0  0  0  3  0  0  0  0  0  0
  183.4440  178.9710  141.6950 C   0  0  0  0  0  3  0  0  0  0  0  0
  184.3470  178.5810  143.9340 C   0  0  0  0  0  2  0  0  0  0  0  0
  185.0290  178.4430  146.8020 C   0  0  0  0  0  1  0  0  0  0  0  0
  187.7360  177.5660  147.5660 C   0  0  0  0  0  1  0  0  0  0  0  0
  187.9510  177.4210  143.7920 C   0  0  0  0  0  0  0  0  0  0  0  0
  186.6640  177.8320  143.4190 C   0  0  0  0  0  3  0  0  0  0  0  0
  188.2760  177.3420  145.1520 C   0  0  0  0  0  3  0  0  0  0  0  0
  186.0410  178.0830  145.7560 C   0  0  0  0  0  0  0  0  0  0  0  0
  187.3340  177.6700  146.1320 C   0  0  0  0  0  0  0  0  0  0  0  0
  185.7110  178.1660  144.3870 C   0  0  0  0  0  0  0  0  0  0  0  0
  190.6700  176.1090  141.6210 N   0  0  0  0  0  0  0  0  0  0  0  0
  189.0580  177.7000  141.6410 N   0  0  0  0  0  0  0  0  0  0  0  0
  190.1320  177.0760  140.9520 C   0  0  0  0  0  3  0  0  0  0  0  0
  188.9530  177.0790  142.7690 C   0  0  0  0  0  0  0  0  0  0  0  0
  189.9670  175.9920  142.8890 C   0  0  0  0  0  2  0  0  0  0  0  0
  1 13  1  6  0  0  0
  1 38  1  0  0  0  0
  2  1  1  6  0  0  0
  2  7  1  0  0  0  0
  3  4  2  0  0  0  0
  3  5  1  0  0  0  0
  4  2  1  0  0  0  0
  5  8  1  1  0  0  0
  5  6  1  0  0  0  0
  6  7  1  0  0  0  0
  9 11  1  0  0  0  0
 10  9  1  0  0  0  0
 10 11  1  0  0  0  0
 10  8  1  1  0  0  0
 13 12  2  0  0  0  0
 14 17  2  0  0  0  0
 15 14  1  0  0  0  0
 15 22  1  0  0  0  0
 16 15  1  0  0  0  0
 16 12  1  1  0  0  0
 17 18  1  0  0  0  0
 17 24  1  0  0  0  0
 20 23  1  0  0  0  0
 21 20  1  0  0  0  0
 21 16  1  0  0  0  0
 22 19  2  0  0  0  0
 22 18  1  0  0  0  0
 23 14  1  0  0  0  0
 24 25  1  0  0  0  0
 26 32  1  0  0  0  0
 27 28  1  0  0  0  0
 28 30  1  6  0  0  0
 28 29  1  0  0  0  0
 28 25  1  0  0  0  0
 29 33  1  6  0  0  0
 31 29  1  0  0  0  0
 32 27  1  0  0  0  0
 32 31  1  0  0  0  0
 33 34  2  0  0  0  0
 35 37  1  0  0  0  0
 35 33  1  0  0  0  0
 36 35  2  0  0  0  0
 38 39  1  0  0  0  0
 39 40  1  0  0  0  0
 40 42  1  0  0  0  0
 41 43  1  0  0  0  0
 42 41  2  0  0  0  0
 43 51  1  0  0  0  0
 46 48  1  0  0  0  0
 47 46  2  0  0  0  0
 47 51  1  0  0  0  0
 48 50  2  0  0  0  0
 49 50  1  0  0  0  0
 49 44  1  0  0  0  0
 50 45  1  0  0  0  0
 51 49  2  0  0  0  0
 52 56  1  0  0  0  0
 53 55  2  0  0  0  0
 54 52  2  0  0  0  0
 54 53  1  0  0  0  0
 55 56  1  0  0  0  0
 55 46  1  0  0  0  0
M  END
>  <MODEL>
4

>  <REMARK>
 VINA RESULT:      -8.5      2.082      3.270
  Name = 
  17 active torsions:
  status: ('A' for Active; 'I' for Inactive)
    1  A    between atoms: C_3  and  C_8
    2  A    between atoms: C_10  and  C_33
    3  A    between atoms: C_11  and  C_14
    4  A    between atoms: C_12  and  C_16
    5  A    between atoms: C_13  and  C_55
    6  A    between atoms: C_14  and  C_33
    7  A    between atoms: C_16  and  C_17
    8  A    between atoms: C_20  and  C_42
    9  A    between atoms: C_24  and  C_26
   10  A    between atoms: C_24  and  C_55
   11  A    between atoms: C_26  and  C_27
   12  A    between atoms: C_27  and  C_52
   13  A    between atoms: N_36  and  C_40
   14  A    between atoms: N_36  and  C_44
   15  A    between atoms: C_37  and  C_48
   16  A    between atoms: C_45  and  C_55
   17  A    between atoms: C_48  and  C_53
                            x       y       z     vdW  Elec       q    Type
                         _______ _______ _______ _____ _____    ______ ____

>  <TORSDO>
F 17

$$$$
=
 OpenBabel10232412183D

 56 62  0  0  1  0  0  0  0  0999 V2000
  192.3060  175.4750  137.4780 C   0  0  2  0  0  3  0  0  0  0  0  0
  193.7780  175.1770  137.1410 C   0  0  1  0  0  3  0  0  0  0  0  0
  195.1650  173.5760  138.4310 C   0  0  0  0  0  3  0  0  0  0  0  0
  194.6390  174.8030  138.3330 C   0  0  0  0  0  3  0  0  0  0  0  0
  194.9710  172.5620  137.3390 C   0  0  1  0  0  3  0  0  0  0  0  0
  193.7790  172.9690  136.4640 C   0  0  0  0  0  2  0  0  0  0  0  0
  193.9200  174.3040  136.0320 O   0  0  0  0  0  0  0  0  0  0  0  0
  196.1780  172.4930  136.5290 N   0  0  0  0  0  2  0  0  0  0  0  0
  198.3570  171.5400  136.4920 C   0  0  0  0  0  2  0  0  0  0  0  0
  197.2030  171.8440  137.3310 C   0  0  1  0  0  3  0  0  0  0  0  0
  198.3930  172.7080  137.3820 N   0  0  0  0  0  2  0  0  0  0  0  0
  190.2390  175.5960  136.1340 C   0  0  0  0  0  3  0  0  0  0  0  0
  191.5390  175.8620  136.2480 C   0  0  0  0  0  3  0  0  0  0  0  0
  186.9720  175.9690  135.3090 C   0  0  0  0  0  0  0  0  0  0  0  0
  188.1780  175.3640  134.8760 N   0  0  0  0  0  0  0  0  0  0  0  0
  189.4890  176.0070  134.9050 C   0  0  1  0  0  3  0  0  0  0  0  0
  185.9680  175.0930  135.3550 C   0  0  0  0  0  0  0  0  0  0  0  0
  186.4360  173.7100  134.9960 C   0  0  0  0  0  2  0  0  0  0  0  0
  188.7280  173.1200  134.3940 O   0  0  0  0  0  0  0  0  0  0  0  0
  188.2690  178.0090  135.8760 C   0  0  0  0  0  2  0  0  0  0  0  0
  189.3220  177.5340  134.8630 C   0  0  0  0  0  2  0  0  0  0  0  0
  187.8750  173.9890  134.7160 C   0  0  0  0  0  0  0  0  0  0  0  0
  186.8830  177.4450  135.5510 C   0  0  0  0  0  2  0  0  0  0  0  0
  184.5630  175.4110  135.7470 C   0  0  0  0  0  2  0  0  0  0  0  0
  184.5360  176.1430  137.0860 C   0  0  0  0  0  2  0  0  0  0  0  0
  180.3050  174.7390  138.6810 C   0  0  0  0  0  1  0  0  0  0  0  0
  182.1330  175.5140  137.4520 C   0  0  0  0  0  2  0  0  0  0  0  0
  183.1420  176.6420  137.4640 C   0  0  1  0  0  0  0  0  0  0  0  0
  183.1050  177.1900  138.8830 C   0  0  2  0  0  3  0  0  0  0  0  0
  182.7410  177.6100  136.5380 O   0  0  0  0  0  1  0  0  0  0  0  0
  181.4580  176.8870  139.5840 S   0  0  0  0  0  0  0  0  0  0  0  0
  180.9410  175.9410  138.1720 N   0  0  0  0  0  0  0  0  0  0  0  0
  183.5990  178.6000  139.0560 C   0  0  0  0  0  0  0  0  0  0  0  0
  182.8030  179.5440  138.8060 O   0  0  0  0  0  0  0  0  0  0  0  0
  184.9640  178.9240  139.5140 C   0  0  0  0  0  0  0  0  0  0  0  0
  186.0600  178.4830  138.7820 O   0  0  0  0  0  0  0  0  0  0  0  0
  185.1550  179.5960  140.5640 O   0  0  0  0  0  1  0  0  0  0  0  0
  192.1670  176.5580  138.5410 C   0  0  0  0  0  2  0  0  0  0  0  0
  190.7140  176.7170  138.9590 C   0  0  0  0  0  2  0  0  0  0  0  0
  190.6340  177.2820  140.3690 C   0  0  0  0  0  2  0  0  0  0  0  0
  188.6800  177.9410  141.7040 C   0  0  0  0  0  3  0  0  0  0  0  0
  189.3020  177.0070  140.9890 C   0  0  0  0  0  3  0  0  0  0  0  0
  187.3530  177.6500  142.3180 C   0  0  0  0  0  2  0  0  0  0  0  0
  185.0430  178.4300  143.9820 C   0  0  0  0  0  1  0  0  0  0  0  0
  185.3580  178.4480  146.9110 C   0  0  0  0  0  1  0  0  0  0  0  0
  188.8140  177.3790  145.8030 C   0  0  0  0  0  0  0  0  0  0  0  0
  188.6720  177.3620  144.4090 C   0  0  0  0  0  3  0  0  0  0  0  0
  187.7180  177.7360  146.5980 C   0  0  0  0  0  3  0  0  0  0  0  0
  186.3510  178.0590  144.6130 C   0  0  0  0  0  0  0  0  0  0  0  0
  186.4930  178.0760  146.0150 C   0  0  0  0  0  0  0  0  0  0  0  0
  187.4550  177.7010  143.8090 C   0  0  0  0  0  0  0  0  0  0  0  0
  192.2360  176.3140  146.7930 N   0  0  0  0  0  0  0  0  0  0  0  0
  190.3430  177.1780  147.6880 N   0  0  0  0  0  0  0  0  0  0  0  0
  191.6760  176.7260  147.8830 C   0  0  0  0  0  2  0  0  0  0  0  0
  190.1000  177.0280  146.4280 C   0  0  0  0  0  0  0  0  0  0  0  0
  191.2770  176.4610  145.7100 C   0  0  0  0  0  3  0  0  0  0  0  0
  1 13  1  6  0  0  0
  1 38  1  0  0  0  0
  2  1  1  1  0  0  0
  2  4  1  0  0  0  0
  4  3  2  0  0  0  0
  5  8  1  6  0  0  0
  5  3  1  0  0  0  0
  6  5  1  0  0  0  0
  7  6  1  0  0  0  0
  7  2  1  0  0  0  0
  9 10  1  0  0  0  0
  9 11  1  0  0  0  0
 10  8  1  6  0  0  0
 10 11  1  0  0  0  0
 12 13  2  0  0  0  0
 14 17  2  0  0  0  0
 14 23  1  0  0  0  0
 15 16  1  0  0  0  0
 15 14  1  0  0  0  0
 16 12  1  1  0  0  0
 17 24  1  0  0  0  0
 18 17  1  0  0  0  0
 19 22  2  0  0  0  0
 21 16  1  0  0  0  0
 21 20  1  0  0  0  0
 22 15  1  0  0  0  0
 22 18  1  0  0  0  0
 23 20  1  0  0  0  0
 24 25  1  0  0  0  0
 25 28  1  0  0  0  0
 27 28  1  0  0  0  0
 27 32  1  0  0  0  0
 28 30  1  6  0  0  0
 28 29  1  0  0  0  0
 29 33  1  6  0  0  0
 29 31  1  0  0  0  0
 32 26  1  0  0  0  0
 32 31  1  0  0  0  0
 33 35  1  0  0  0  0
 34 33  2  0  0  0  0
 35 37  1  0  0  0  0
 36 35  2  0  0  0  0
 38 39  1  0  0  0  0
 39 40  1  0  0  0  0
 40 42  1  0  0  0  0
 41 43  1  0  0  0  0
 42 41  2  0  0  0  0
 43 51  1  0  0  0  0
 44 49  1  0  0  0  0
 46 55  1  0  0  0  0
 46 48  1  0  0  0  0
 47 46  2  0  0  0  0
 49 50  1  0  0  0  0
 50 48  2  0  0  0  0
 50 45  1  0  0  0  0
 51 47  1  0  0  0  0
 51 49  2  0  0  0  0
 52 54  1  0  0  0  0
 53 54  1  0  0  0  0
 55 53  2  0  0  0  0
 56 55  1  0  0  0  0
 56 52  2  0  0  0  0
M  END
>  <MODEL>
5

>  <REMARK>
 VINA RESULT:      -8.5      3.154      9.298
  Name = 
  17 active torsions:
  status: ('A' for Active; 'I' for Inactive)
    1  A    between atoms: C_3  and  C_8
    2  A    between atoms: C_10  and  C_33
    3  A    between atoms: C_11  and  C_14
    4  A    between atoms: C_12  and  C_16
    5  A    between atoms: C_13  and  C_55
    6  A    between atoms: C_14  and  C_33
    7  A    between atoms: C_16  and  C_17
    8  A    between atoms: C_20  and  C_42
    9  A    between atoms: C_24  and  C_26
   10  A    between atoms: C_24  and  C_55
   11  A    between atoms: C_26  and  C_27
   12  A    between atoms: C_27  and  C_52
   13  A    between atoms: N_36  and  C_40
   14  A    between atoms: N_36  and  C_44
   15  A    between atoms: C_37  and  C_48
   16  A    between atoms: C_45  and  C_55
   17  A    between atoms: C_48  and  C_53
                            x       y       z     vdW  Elec       q    Type
                         _______ _______ _______ _____ _____    ______ ____

>  <TORSDO>
F 17

$$$$
=
 OpenBabel10232412183D

 56 62  0  0  1  0  0  0  0  0999 V2000
  187.8740  177.0930  142.7430 C   0  0  2  0  0  3  0  0  0  0  0  0
  188.8410  176.2170  143.5600 C   0  0  1  0  0  3  0  0  0  0  0  0
  191.2940  176.2080  143.2000 C   0  0  0  0  0  3  0  0  0  0  0  0
  190.0870  175.7790  142.8130 C   0  0  0  0  0  3  0  0  0  0  0  0
  191.4540  177.0770  144.4140 C   0  0  1  0  0  3  0  0  0  0  0  0
  190.1080  177.7260  144.7640 C   0  0  0  0  0  2  0  0  0  0  0  0
  189.0980  176.7440  144.8510 O   0  0  0  0  0  0  0  0  0  0  0  0
  191.9160  176.2650  145.5290 N   0  0  0  0  0  2  0  0  0  0  0  0
  191.0500  175.8950  147.7130 C   0  0  0  0  0  2  0  0  0  0  0  0
  191.4670  176.9110  146.7520 C   0  0  1  0  0  3  0  0  0  0  0  0
  192.3660  176.5320  147.8540 N   0  0  0  0  0  2  0  0  0  0  0  0
  188.5880  177.5070  140.4170 C   0  0  0  0  0  3  0  0  0  0  0  0
  188.6090  177.8770  141.6970 C   0  0  0  0  0  3  0  0  0  0  0  0
  190.7690  176.8250  137.9130 C   0  0  0  0  0  0  0  0  0  0  0  0
  190.5770  177.6650  139.0370 N   0  0  0  0  0  0  0  0  0  0  0  0
  189.3150  178.3140  139.3860 C   0  0  1  0  0  3  0  0  0  0  0  0
  191.9550  176.2170  137.9470 C   0  0  0  0  0  0  0  0  0  0  0  0
  192.7040  176.5560  139.2060 C   0  0  0  0  0  2  0  0  0  0  0  0
  191.8830  178.0350  140.9680 O   0  0  0  0  0  0  0  0  0  0  0  0
  188.3850  177.1790  137.3150 C   0  0  0  0  0  2  0  0  0  0  0  0
  188.4500  178.4820  138.1270 C   0  0  0  0  0  2  0  0  0  0  0  0
  191.7270  177.4860  139.8450 C   0  0  0  0  0  0  0  0  0  0  0  0
  189.7680  176.7710  136.8000 C   0  0  0  0  0  2  0  0  0  0  0  0
  192.4770  175.2850  136.9040 C   0  0  0  0  0  2  0  0  0  0  0  0
  193.9340  175.6070  136.5830 C   0  0  0  0  0  2  0  0  0  0  0  0
  194.6180  170.9270  136.3800 C   0  0  0  0  0  1  0  0  0  0  0  0
  194.2050  173.1430  136.9850 C   0  0  0  0  0  2  0  0  0  0  0  0
  194.8950  174.4900  136.9900 C   0  0  1  0  0  0  0  0  0  0  0  0
  196.0450  174.3490  136.0040 C   0  0  2  0  0  3  0  0  0  0  0  0
  195.3650  174.7470  138.2820 O   0  0  0  0  0  1  0  0  0  0  0  0
  196.5540  172.6070  135.9460 S   0  0  0  0  0  0  0  0  0  0  0  0
  195.2170  172.0960  136.9980 N   0  0  0  0  0  0  0  0  0  0  0  0
  197.1820  175.3190  136.1770 C   0  0  0  0  0  0  0  0  0  0  0  0
  197.0030  176.5140  135.8210 O   0  0  0  0  0  0  0  0  0  0  0  0
  198.4860  174.9360  136.7530 C   0  0  0  0  0  0  0  0  0  0  0  0
  198.5510  174.4560  138.0550 O   0  0  0  0  0  1  0  0  0  0  0  0
  199.5480  175.0410  136.0810 O   0  0  0  0  0  0  0  0  0  0  0  0
  187.0660  178.0360  143.6280 C   0  0  0  0  0  2  0  0  0  0  0  0
  185.5820  177.9170  143.3240 C   0  0  0  0  0  2  0  0  0  0  0  0
  184.7830  178.8100  144.2600 C   0  0  0  0  0  2  0  0  0  0  0  0
  183.0610  178.7330  142.5090 C   0  0  0  0  0  3  0  0  0  0  0  0
  183.3800  178.9890  143.7750 C   0  0  0  0  0  3  0  0  0  0  0  0
  181.6580  178.9190  142.0410 C   0  0  0  0  0  2  0  0  0  0  0  0
  180.0060  180.7180  140.3850 C   0  0  0  0  0  1  0  0  0  0  0  0
  179.9840  180.3240  137.4660 C   0  0  0  0  0  1  0  0  0  0  0  0
  182.3070  177.5500  138.5690 C   0  0  0  0  0  0  0  0  0  0  0  0
  182.3280  177.7330  139.9580 C   0  0  0  0  0  3  0  0  0  0  0  0
  181.5350  178.4080  137.7770 C   0  0  0  0  0  3  0  0  0  0  0  0
  180.8100  179.6210  139.7550 C   0  0  0  0  0  0  0  0  0  0  0  0
  180.7890  179.4380  138.3590 C   0  0  0  0  0  0  0  0  0  0  0  0
  181.5860  178.7570  140.5560 C   0  0  0  0  0  0  0  0  0  0  0  0
  183.7520  174.4540  137.1000 N   0  0  0  0  0  0  0  0  0  0  0  0
  184.2940  176.6130  137.5170 N   0  0  0  0  0  0  0  0  0  0  0  0
  184.6800  175.3480  136.9980 C   0  0  0  0  0  3  0  0  0  0  0  0
  183.0850  176.4650  137.9460 C   0  0  0  0  0  0  0  0  0  0  0  0
  182.5970  175.0730  137.7310 C   0  0  0  0  0  2  0  0  0  0  0  0
  1 13  1  6  0  0  0
  1 38  1  0  0  0  0
  2  1  1  6  0  0  0
  2  7  1  0  0  0  0
  3  5  1  0  0  0  0
  4  3  2  0  0  0  0
  4  2  1  0  0  0  0
  5  6  1  0  0  0  0
  5  8  1  1  0  0  0
  6  7  1  0  0  0  0
  9 11  1  0  0  0  0
 10  8  1  6  0  0  0
 10  9  1  0  0  0  0
 10 11  1  0  0  0  0
 12 13  2  0  0  0  0
 14 17  2  0  0  0  0
 14 15  1  0  0  0  0
 15 16  1  0  0  0  0
 15 22  1  0  0  0  0
 16 12  1  1  0  0  0
 17 18  1  0  0  0  0
 18 22  1  0  0  0  0
 20 21  1  0  0  0  0
 21 16  1  0  0  0  0
 22 19  2  0  0  0  0
 23 20  1  0  0  0  0
 23 14  1  0  0  0  0
 24 17  1  0  0  0  0
 25 24  1  0  0  0  0
 25 28  1  0  0  0  0
 26 32  1  0  0  0  0
 27 28  1  0  0  0  0
 27 32  1  0  0  0  0
 28 30  1  1  0  0  0
 29 33  1  1  0  0  0
 29 28  1  0  0  0  0
 31 29  1  0  0  0  0
 31 32  1  0  0  0  0
 33 35  1  0  0  0  0
 34 33  2  0  0  0  0
 35 36  1  0  0  0  0
 37 35  2  0  0  0  0
 39 38  1  0  0  0  0
 39 40  1  0  0  0  0
 41 42  2  0  0  0  0
 42 40  1  0  0  0  0
 43 41  1  0  0  0  0
 45 50  1  0  0  0  0
 46 47  1  0  0  0  0
 47 51  2  0  0  0  0
 48 50  1  0  0  0  0
 48 46  2  0  0  0  0
 49 44  1  0  0  0  0
 49 51  1  0  0  0  0
 50 49  2  0  0  0  0
 51 43  1  0  0  0  0
 52 56  1  0  0  0  0
 53 55  2  0  0  0  0
 54 52  2  0  0  0  0
 54 53  1  0  0  0  0
 55 46  1  0  0  0  0
 56 55  1  0  0  0  0
M  END
>  <MODEL>
6

>  <REMARK>
 VINA RESULT:      -8.1      2.476      7.527
  Name = 
  17 active torsions:
  status: ('A' for Active; 'I' for Inactive)
    1  A    between atoms: C_3  and  C_8
    2  A    between atoms: C_10  and  C_33
    3  A    between atoms: C_11  and  C_14
    4  A    between atoms: C_12  and  C_16
    5  A    between atoms: C_13  and  C_55
    6  A    between atoms: C_14  and  C_33
    7  A    between atoms: C_16  and  C_17
    8  A    between atoms: C_20  and  C_42
    9  A    between atoms: C_24  and  C_26
   10  A    between atoms: C_24  and  C_55
   11  A    between atoms: C_26  and  C_27
   12  A    between atoms: C_27  and  C_52
   13  A    between atoms: N_36  and  C_40
   14  A    between atoms: N_36  and  C_44
   15  A    between atoms: C_37  and  C_48
   16  A    between atoms: C_45  and  C_55
   17  A    between atoms: C_48  and  C_53
                            x       y       z     vdW  Elec       q    Type
                         _______ _______ _______ _____ _____    ______ ____

>  <TORSDO>
F 17

$$$$
=
 OpenBabel10232412183D

 56 62  0  0  1  0  0  0  0  0999 V2000
  187.7870  177.3760  142.0710 C   0  0  2  0  0  3  0  0  0  0  0  0
  188.6230  176.5720  143.0830 C   0  0  1  0  0  3  0  0  0  0  0  0
  190.6560  177.4740  144.1800 C   0  0  0  0  0  3  0  0  0  0  0  0
  190.1010  176.9120  143.0990 C   0  0  0  0  0  3  0  0  0  0  0  0
  189.8490  177.7220  145.4230 C   0  0  1  0  0  3  0  0  0  0  0  0
  188.3540  177.7040  145.0790 C   0  0  0  0  0  2  0  0  0  0  0  0
  188.0270  176.5280  144.3710 O   0  0  0  0  0  0  0  0  0  0  0  0
  190.1440  176.6870  146.4020 N   0  0  0  0  0  2  0  0  0  0  0  0
  191.9950  176.7590  147.8930 C   0  0  0  0  0  2  0  0  0  0  0  0
  191.5910  176.5830  146.5020 C   0  0  1  0  0  3  0  0  0  0  0  0
  191.9330  175.4080  147.3190 N   0  0  0  0  0  2  0  0  0  0  0  0
  188.5770  177.7380  139.7610 C   0  0  0  0  0  3  0  0  0  0  0  0
  188.6650  178.0430  141.0550 C   0  0  0  0  0  3  0  0  0  0  0  0
  190.5830  176.7460  137.2150 C   0  0  0  0  0  0  0  0  0  0  0  0
  190.5600  177.5580  138.3760 N   0  0  0  0  0  0  0  0  0  0  0  0
  189.4520  178.4280  138.7610 C   0  0  1  0  0  3  0  0  0  0  0  0
  191.6240  175.9140  137.2140 C   0  0  0  0  0  0  0  0  0  0  0  0
  192.4240  176.0420  138.4820 C   0  0  0  0  0  2  0  0  0  0  0  0
  191.9100  177.5760  140.3120 O   0  0  0  0  0  0  0  0  0  0  0  0
  188.3190  177.5940  136.6490 C   0  0  0  0  0  2  0  0  0  0  0  0
  188.6400  178.8200  137.5160 C   0  0  0  0  0  2  0  0  0  0  0  0
  191.6500  177.1180  139.1670 C   0  0  0  0  0  0  0  0  0  0  0  0
  189.5940  176.9410  136.1070 C   0  0  0  0  0  2  0  0  0  0  0  0
  191.9530  174.9430  136.1290 C   0  0  0  0  0  2  0  0  0  0  0  0
  193.1790  174.1170  136.5060 C   0  0  0  0  0  2  0  0  0  0  0  0
  195.7610  177.6580  134.7140 C   0  0  0  0  0  1  0  0  0  0  0  0
  194.3450  175.8430  135.1040 C   0  0  0  0  0  2  0  0  0  0  0  0
  194.3970  174.4270  135.6360 C   0  0  1  0  0  0  0  0  0  0  0  0
  195.6920  174.3510  136.4310 C   0  0  2  0  0  3  0  0  0  0  0  0
  194.4160  173.5430  134.5540 O   0  0  0  0  0  1  0  0  0  0  0  0
  196.8740  175.5440  135.7400 S   0  0  0  0  0  0  0  0  0  0  0  0
  195.6670  176.2120  134.6190 N   0  0  0  0  0  0  0  0  0  0  0  0
  196.2570  172.9720  136.6380 C   0  0  0  0  0  0  0  0  0  0  0  0
  197.0830  172.5360  135.7940 O   0  0  0  0  0  0  0  0  0  0  0  0
  195.8950  172.1170  137.7860 C   0  0  0  0  0  0  0  0  0  0  0  0
  196.1450  170.7510  137.7340 O   0  0  0  0  0  0  0  0  0  0  0  0
  195.3580  172.6070  138.8160 O   0  0  0  0  0  1  0  0  0  0  0  0
  186.8990  178.4120  142.7530 C   0  0  0  0  0  2  0  0  0  0  0  0
  185.7000  178.7480  141.8820 C   0  0  0  0  0  2  0  0  0  0  0  0
  184.4230  178.6960  142.7060 C   0  0  0  0  0  2  0  0  0  0  0  0
  183.3140  178.6830  140.5140 C   0  0  0  0  0  3  0  0  0  0  0  0
  183.2200  178.5420  141.8340 C   0  0  0  0  0  3  0  0  0  0  0  0
  182.1020  178.5290  139.6590 C   0  0  0  0  0  2  0  0  0  0  0  0
  181.1080  179.5080  137.0580 C   0  0  0  0  0  1  0  0  0  0  0  0
  181.9210  178.0820  134.6110 C   0  0  0  0  0  1  0  0  0  0  0  0
  183.6640  176.0350  137.2720 C   0  0  0  0  0  0  0  0  0  0  0  0
  183.2870  176.7100  138.4410 C   0  0  0  0  0  3  0  0  0  0  0  0
  183.2050  176.5020  136.0350 C   0  0  0  0  0  3  0  0  0  0  0  0
  182.0000  178.3060  137.1330 C   0  0  0  0  0  0  0  0  0  0  0  0
  182.3790  177.6270  135.9580 C   0  0  0  0  0  0  0  0  0  0  0  0
  182.4590  177.8360  138.3820 C   0  0  0  0  0  0  0  0  0  0  0  0
  186.3080  173.4200  137.2370 N   0  0  0  0  0  0  0  0  0  0  0  0
  184.1110  173.6840  137.7220 N   0  0  0  0  0  0  0  0  0  0  0  0
  185.2380  172.8210  137.6450 C   0  0  0  0  0  2  0  0  0  0  0  0
  184.5290  174.8450  137.3420 C   0  0  0  0  0  0  0  0  0  0  0  0
  185.9770  174.8150  136.9880 C   0  0  0  0  0  3  0  0  0  0  0  0
  1 13  1  6  0  0  0
  1 38  1  0  0  0  0
  2  1  1  6  0  0  0
  2  4  1  0  0  0  0
  2  7  1  0  0  0  0
  3  5  1  0  0  0  0
  4  3  2  0  0  0  0
  5  8  1  1  0  0  0
  6  5  1  0  0  0  0
  7  6  1  0  0  0  0
 10  8  1  1  0  0  0
 10 11  1  0  0  0  0
 10  9  1  0  0  0  0
 11  9  1  0  0  0  0
 12 13  2  0  0  0  0
 14 15  1  0  0  0  0
 15 16  1  0  0  0  0
 15 22  1  0  0  0  0
 16 12  1  1  0  0  0
 17 14  2  0  0  0  0
 17 18  1  0  0  0  0
 18 22  1  0  0  0  0
 20 21  1  0  0  0  0
 21 16  1  0  0  0  0
 22 19  2  0  0  0  0
 23 20  1  0  0  0  0
 23 14  1  0  0  0  0
 24 25  1  0  0  0  0
 24 17  1  0  0  0  0
 27 28  1  0  0  0  0
 28 30  1  6  0  0  0
 28 29  1  0  0  0  0
 28 25  1  0  0  0  0
 29 33  1  6  0  0  0
 31 29  1  0  0  0  0
 32 26  1  0  0  0  0
 32 27  1  0  0  0  0
 32 31  1  0  0  0  0
 33 35  1  0  0  0  0
 34 33  2  0  0  0  0
 35 37  1  0  0  0  0
 36 35  2  0  0  0  0
 39 40  1  0  0  0  0
 39 38  1  0  0  0  0
 41 42  2  0  0  0  0
 42 40  1  0  0  0  0
 43 41  1  0  0  0  0
 44 49  1  0  0  0  0
 45 50  1  0  0  0  0
 46 55  1  0  0  0  0
 46 47  1  0  0  0  0
 48 46  2  0  0  0  0
 49 51  1  0  0  0  0
 50 48  1  0  0  0  0
 50 49  2  0  0  0  0
 51 47  2  0  0  0  0
 51 43  1  0  0  0  0
 52 54  1  0  0  0  0
 54 53  1  0  0  0  0
 55 53  2  0  0  0  0
 56 52  2  0  0  0  0
 56 55  1  0  0  0  0
M  END
>  <MODEL>
7

>  <REMARK>
 VINA RESULT:      -8.0      2.644      7.673
  Name = 
  17 active torsions:
  status: ('A' for Active; 'I' for Inactive)
    1  A    between atoms: C_3  and  C_8
    2  A    between atoms: C_10  and  C_33
    3  A    between atoms: C_11  and  C_14
    4  A    between atoms: C_12  and  C_16
    5  A    between atoms: C_13  and  C_55
    6  A    between atoms: C_14  and  C_33
    7  A    between atoms: C_16  and  C_17
    8  A    between atoms: C_20  and  C_42
    9  A    between atoms: C_24  and  C_26
   10  A    between atoms: C_24  and  C_55
   11  A    between atoms: C_26  and  C_27
   12  A    between atoms: C_27  and  C_52
   13  A    between atoms: N_36  and  C_40
   14  A    between atoms: N_36  and  C_44
   15  A    between atoms: C_37  and  C_48
   16  A    between atoms: C_45  and  C_55
   17  A    between atoms: C_48  and  C_53
                            x       y       z     vdW  Elec       q    Type
                         _______ _______ _______ _____ _____    ______ ____

>  <TORSDO>
F 17

$$$$
=
 OpenBabel10232412183D

 56 62  0  0  1  0  0  0  0  0999 V2000
  189.3470  177.2860  141.4750 C   0  0  2  0  0  3  0  0  0  0  0  0
  190.5880  177.0520  142.3560 C   0  0  1  0  0  3  0  0  0  0  0  0
  191.2240  178.5510  144.2260 C   0  0  0  0  0  3  0  0  0  0  0  0
  191.2220  178.3140  142.9080 C   0  0  0  0  0  3  0  0  0  0  0  0
  190.6590  177.5500  145.1920 C   0  0  1  0  0  3  0  0  0  0  0  0
  189.7290  176.5830  144.4480 C   0  0  0  0  0  2  0  0  0  0  0  0
  190.3860  176.0360  143.3250 O   0  0  0  0  0  0  0  0  0  0  0  0
  191.7490  176.8100  145.8100 N   0  0  0  0  0  2  0  0  0  0  0  0
  192.3400  175.5940  147.7670 C   0  0  0  0  0  2  0  0  0  0  0  0
  191.2640  176.3030  147.0830 C   0  0  1  0  0  3  0  0  0  0  0  0
  191.9960  176.9630  148.1750 N   0  0  0  0  0  2  0  0  0  0  0  0
  190.2770  176.3610  139.3840 C   0  0  0  0  0  3  0  0  0  0  0  0
  189.7240  177.3890  140.0280 C   0  0  0  0  0  3  0  0  0  0  0  0
  192.0580  174.5100  137.1730 C   0  0  0  0  0  0  0  0  0  0  0  0
  191.9100  175.8270  137.6720 N   0  0  0  0  0  0  0  0  0  0  0  0
  190.6300  176.4800  137.9340 C   0  0  1  0  0  3  0  0  0  0  0  0
  193.3270  174.1040  137.2160 C   0  0  0  0  0  0  0  0  0  0  0  0
  194.2100  175.1450  137.8470 C   0  0  0  0  0  2  0  0  0  0  0  0
  193.4460  177.3100  138.6790 O   0  0  0  0  0  0  0  0  0  0  0  0
  189.5830  174.3140  137.1270 C   0  0  0  0  0  2  0  0  0  0  0  0
  189.5350  175.8480  137.0610 C   0  0  0  0  0  2  0  0  0  0  0  0
  193.2010  176.2110  138.1150 C   0  0  0  0  0  0  0  0  0  0  0  0
  190.9030  173.7700  136.5710 C   0  0  0  0  0  2  0  0  0  0  0  0
  193.8250  172.7780  136.7440 C   0  0  0  0  0  2  0  0  0  0  0  0
  195.2620  172.8970  136.2440 C   0  0  0  0  0  2  0  0  0  0  0  0
  197.1290  168.6250  137.0720 C   0  0  0  0  0  1  0  0  0  0  0  0
  195.9830  170.6590  137.1250 C   0  0  0  0  0  2  0  0  0  0  0  0
  196.2630  172.1460  137.1230 C   0  0  1  0  0  0  0  0  0  0  0  0
  197.6850  172.2800  136.5980 C   0  0  2  0  0  3  0  0  0  0  0  0
  196.1610  172.6230  138.4330 O   0  0  0  0  0  1  0  0  0  0  0  0
  198.6020  170.7660  137.0040 S   0  0  0  0  0  0  0  0  0  0  0  0
  197.1520  169.9610  137.6410 N   0  0  0  0  0  0  0  0  0  0  0  0
  198.4020  173.5520  136.9600 C   0  0  0  0  0  0  0  0  0  0  0  0
  199.1680  173.5390  137.9600 O   0  0  0  0  0  0  0  0  0  0  0  0
  198.2570  174.8040  136.1920 C   0  0  0  0  0  0  0  0  0  0  0  0
  198.9140  174.9460  134.9750 O   0  0  0  0  0  0  0  0  0  0  0  0
  197.5470  175.7520  136.6230 O   0  0  0  0  0  1  0  0  0  0  0  0
  188.5670  178.5250  141.9000 C   0  0  0  0  0  2  0  0  0  0  0  0
  187.0710  178.2650  141.8370 C   0  0  0  0  0  2  0  0  0  0  0  0
  186.5000  178.8010  140.5340 C   0  0  0  0  0  2  0  0  0  0  0  0
  184.3430  178.0900  141.4700 C   0  0  0  0  0  3  0  0  0  0  0  0
  185.0060  178.7790  140.5450 C   0  0  0  0  0  3  0  0  0  0  0  0
  182.8520  178.0760  141.4650 C   0  0  0  0  0  2  0  0  0  0  0  0
  181.1000  179.8800  139.9190 C   0  0  0  0  0  1  0  0  0  0  0  0
  180.2090  179.0270  137.2430 C   0  0  0  0  0  1  0  0  0  0  0  0
  182.2960  176.0570  138.3080 C   0  0  0  0  0  0  0  0  0  0  0  0
  182.7290  176.4560  139.5790 C   0  0  0  0  0  3  0  0  0  0  0  0
  181.4750  176.9140  137.5650 C   0  0  0  0  0  3  0  0  0  0  0  0
  181.5200  178.5550  139.3590 C   0  0  0  0  0  0  0  0  0  0  0  0
  181.0850  178.1540  138.0800 C   0  0  0  0  0  0  0  0  0  0  0  0
  182.3470  177.6920  140.1100 C   0  0  0  0  0  0  0  0  0  0  0  0
  183.8980  172.9380  137.0690 N   0  0  0  0  0  0  0  0  0  0  0  0
  181.8570  173.9000  137.2660 N   0  0  0  0  0  0  0  0  0  0  0  0
  182.6340  172.7870  136.8470 C   0  0  0  0  0  3  0  0  0  0  0  0
  182.6950  174.7510  137.7580 C   0  0  0  0  0  0  0  0  0  0  0  0
  184.0940  174.2390  137.6900 C   0  0  0  0  0  2  0  0  0  0  0  0
  1 13  1  6  0  0  0
  1 38  1  0  0  0  0
  2  1  1  1  0  0  0
  2  4  1  0  0  0  0
  2  7  1  0  0  0  0
  3  5  1  0  0  0  0
  4  3  2  0  0  0  0
  5  8  1  6  0  0  0
  6  5  1  0  0  0  0
  7  6  1  0  0  0  0
  9 11  1  0  0  0  0
 10  8  1  6  0  0  0
 10  9  1  0  0  0  0
 10 11  1  0  0  0  0
 12 13  2  0  0  0  0
 14 17  2  0  0  0  0
 14 15  1  0  0  0  0
 15 16  1  0  0  0  0
 15 22  1  0  0  0  0
 16 12  1  1  0  0  0
 17 18  1  0  0  0  0
 18 22  1  0  0  0  0
 21 20  1  0  0  0  0
 21 16  1  0  0  0  0
 22 19  2  0  0  0  0
 23 20  1  0  0  0  0
 23 14  1  0  0  0  0
 24 17  1  0  0  0  0
 25 24  1  0  0  0  0
 25 28  1  0  0  0  0
 26 32  1  0  0  0  0
 27 32  1  0  0  0  0
 28 27  1  0  0  0  0
 28 30  1  1  0  0  0
 29 33  1  1  0  0  0
 29 31  1  0  0  0  0
 29 28  1  0  0  0  0
 31 32  1  0  0  0  0
 33 34  2  0  0  0  0
 35 37  1  0  0  0  0
 35 33  1  0  0  0  0
 36 35  2  0  0  0  0
 39 38  1  0  0  0  0
 40 42  1  0  0  0  0
 40 39  1  0  0  0  0
 42 41  2  0  0  0  0
 43 41  1  0  0  0  0
 45 50  1  0  0  0  0
 46 47  1  0  0  0  0
 47 51  2  0  0  0  0
 48 50  1  0  0  0  0
 48 46  2  0  0  0  0
 49 44  1  0  0  0  0
 49 51  1  0  0  0  0
 50 49  2  0  0  0  0
 51 43  1  0  0  0  0
 52 56  1  0  0  0  0
 53 55  2  0  0  0  0
 54 52  2  0  0  0  0
 54 53  1  0  0  0  0
 55 46  1  0  0  0  0
 56 55  1  0  0  0  0
M  END
>  <MODEL>
8

>  <REMARK>
 VINA RESULT:      -7.9      2.749      7.965
  Name = 
  17 active torsions:
  status: ('A' for Active; 'I' for Inactive)
    1  A    between atoms: C_3  and  C_8
    2  A    between atoms: C_10  and  C_33
    3  A    between atoms: C_11  and  C_14
    4  A    between atoms: C_12  and  C_16
    5  A    between atoms: C_13  and  C_55
    6  A    between atoms: C_14  and  C_33
    7  A    between atoms: C_16  and  C_17
    8  A    between atoms: C_20  and  C_42
    9  A    between atoms: C_24  and  C_26
   10  A    between atoms: C_24  and  C_55
   11  A    between atoms: C_26  and  C_27
   12  A    between atoms: C_27  and  C_52
   13  A    between atoms: N_36  and  C_40
   14  A    between atoms: N_36  and  C_44
   15  A    between atoms: C_37  and  C_48
   16  A    between atoms: C_45  and  C_55
   17  A    between atoms: C_48  and  C_53
                            x       y       z     vdW  Elec       q    Type
                         _______ _______ _______ _____ _____    ______ ____

>  <TORSDO>
F 17

$$$$
=
 OpenBabel10232412183D

 56 62  0  0  1  0  0  0  0  0999 V2000
  185.5720  178.4210  138.6660 C   0  0  2  0  0  3  0  0  0  0  0  0
  184.2900  177.6340  138.9980 C   0  0  1  0  0  3  0  0  0  0  0  0
  182.5650  178.4590  140.5760 C   0  0  0  0  0  3  0  0  0  0  0  0
  183.7490  177.8610  140.3960 C   0  0  0  0  0  3  0  0  0  0  0  0
  181.7160  178.8610  139.4040 C   0  0  1  0  0  3  0  0  0  0  0  0
  182.5810  178.9300  138.1400 C   0  0  0  0  0  2  0  0  0  0  0  0
  183.3100  177.7330  137.9770 O   0  0  0  0  0  0  0  0  0  0  0  0
  180.6540  177.8830  139.2230 N   0  0  0  0  0  2  0  0  0  0  0  0
  179.9820  175.7700  140.0830 C   0  0  0  0  0  2  0  0  0  0  0  0
  181.1250  176.6230  139.7740 C   0  0  1  0  0  3  0  0  0  0  0  0
  180.7570  175.5310  138.8580 N   0  0  0  0  0  2  0  0  0  0  0  0
  186.5500  176.5810  137.3420 C   0  0  0  0  0  3  0  0  0  0  0  0
  186.2380  177.8730  137.4400 C   0  0  0  0  0  3  0  0  0  0  0  0
  189.3630  174.8210  136.6510 C   0  0  0  0  0  0  0  0  0  0  0  0
  188.6480  175.9860  136.2810 N   0  0  0  0  0  0  0  0  0  0  0  0
  187.1990  176.0530  136.1020 C   0  0  1  0  0  3  0  0  0  0  0  0
  190.6380  175.0910  136.9320 C   0  0  0  0  0  0  0  0  0  0  0  0
  190.9150  176.5670  136.8350 C   0  0  0  0  0  2  0  0  0  0  0  0
  189.2650  178.2640  136.2320 O   0  0  0  0  0  0  0  0  0  0  0  0
  187.2070  173.5900  136.7160 C   0  0  0  0  0  2  0  0  0  0  0  0
  186.6520  174.6580  135.7610 C   0  0  0  0  0  2  0  0  0  0  0  0
  189.5670  177.0560  136.4200 C   0  0  0  0  0  0  0  0  0  0  0  0
  188.7290  173.4650  136.5930 C   0  0  0  0  0  2  0  0  0  0  0  0
  191.6650  174.0860  137.3330 C   0  0  0  0  0  2  0  0  0  0  0  0
  192.4950  173.6610  136.1240 C   0  0  0  0  0  2  0  0  0  0  0  0
  195.5790  170.1000  135.6580 C   0  0  0  0  0  1  0  0  0  0  0  0
  194.0420  171.7010  136.3830 C   0  0  0  0  0  2  0  0  0  0  0  0
  193.9040  173.2040  136.5000 C   0  0  1  0  0  0  0  0  0  0  0  0
  194.9520  173.7720  135.5540 C   0  0  2  0  0  3  0  0  0  0  0  0
  194.1630  173.5750  137.8220 O   0  0  0  0  0  1  0  0  0  0  0  0
  196.3150  172.5800  135.4080 S   0  0  0  0  0  0  0  0  0  0  0  0
  195.4580  171.3590  136.3710 N   0  0  0  0  0  0  0  0  0  0  0  0
  195.3930  175.1830  135.8330 C   0  0  0  0  0  0  0  0  0  0  0  0
  194.5990  176.1200  135.5510 O   0  0  0  0  0  0  0  0  0  0  0  0
  196.7020  175.5150  136.4280 C   0  0  0  0  0  0  0  0  0  0  0  0
  197.0590  174.9680  137.6550 O   0  0  0  0  0  1  0  0  0  0  0  0
  197.5040  176.2910  135.8420 O   0  0  0  0  0  0  0  0  0  0  0  0
  186.5550  178.4340  139.8320 C   0  0  0  0  0  2  0  0  0  0  0  0
  187.9490  178.0520  139.3630 C   0  0  0  0  0  2  0  0  0  0  0  0
  188.9760  178.4120  140.4240 C   0  0  0  0  0  2  0  0  0  0  0  0
  189.7420  177.6060  142.6150 C   0  0  0  0  0  3  0  0  0  0  0  0
  188.9270  177.4570  141.5730 C   0  0  0  0  0  3  0  0  0  0  0  0
  189.6820  176.6430  143.7510 C   0  0  0  0  0  2  0  0  0  0  0  0
  190.6500  176.8980  146.5280 C   0  0  0  0  0  1  0  0  0  0  0  0
  188.8300  178.0120  148.5590 C   0  0  0  0  0  1  0  0  0  0  0  0
  186.6370  178.0940  145.4780 C   0  0  0  0  0  0  0  0  0  0  0  0
  187.4980  177.5690  144.5040 C   0  0  0  0  0  3  0  0  0  0  0  0
  187.0960  178.2280  146.7940 C   0  0  0  0  0  3  0  0  0  0  0  0
  189.2590  177.3170  146.1610 C   0  0  0  0  0  0  0  0  0  0  0  0
  188.3950  177.8440  147.1410 C   0  0  0  0  0  0  0  0  0  0  0  0
  188.8000  177.1790  144.8340 C   0  0  0  0  0  0  0  0  0  0  0  0
  183.0730  179.1210  145.2180 N   0  0  0  0  0  0  0  0  0  0  0  0
  184.8560  178.6360  143.9090 N   0  0  0  0  0  0  0  0  0  0  0  0
  183.4920  179.0240  144.0000 C   0  0  0  0  0  3  0  0  0  0  0  0
  185.2650  178.4960  145.1250 C   0  0  0  0  0  0  0  0  0  0  0  0
  184.1780  178.7880  146.1030 C   0  0  0  0  0  2  0  0  0  0  0  0
  1 13  1  6  0  0  0
  1 38  1  0  0  0  0
  2  1  1  6  0  0  0
  2  4  1  0  0  0  0
  4  3  2  0  0  0  0
  5  8  1  6  0  0  0
  5  3  1  0  0  0  0
  6  5  1  0  0  0  0
  7  6  1  0  0  0  0
  7  2  1  0  0  0  0
 10  8  1  6  0  0  0
 10  9  1  0  0  0  0
 11 10  1  0  0  0  0
 11  9  1  0  0  0  0
 12 13  2  0  0  0  0
 14 17  2  0  0  0  0
 15 22  1  0  0  0  0
 15 14  1  0  0  0  0
 16 15  1  0  0  0  0
 16 12  1  1  0  0  0
 17 24  1  0  0  0  0
 18 17  1  0  0  0  0
 19 22  2  0  0  0  0
 21 16  1  0  0  0  0
 21 20  1  0  0  0  0
 22 18  1  0  0  0  0
 23 14  1  0  0  0  0
 23 20  1  0  0  0  0
 25 28  1  0  0  0  0
 25 24  1  0  0  0  0
 26 32  1  0  0  0  0
 27 28  1  0  0  0  0
 28 30  1  1  0  0  0
 29 33  1  1  0  0  0
 29 28  1  0  0  0  0
 31 29  1  0  0  0  0
 31 32  1  0  0  0  0
 32 27  1  0  0  0  0
 33 35  1  0  0  0  0
 34 33  2  0  0  0  0
 35 36  1  0  0  0  0
 37 35  2  0  0  0  0
 39 38  1  0  0  0  0
 39 40  1  0  0  0  0
 40 42  1  0  0  0  0
 41 43  1  0  0  0  0
 42 41  2  0  0  0  0
 43 51  1  0  0  0  0
 46 48  1  0  0  0  0
 47 51  1  0  0  0  0
 47 46  2  0  0  0  0
 48 50  2  0  0  0  0
 49 44  1  0  0  0  0
 49 50  1  0  0  0  0
 50 45  1  0  0  0  0
 51 49  2  0  0  0  0
 52 56  1  0  0  0  0
 53 54  1  0  0  0  0
 53 55  2  0  0  0  0
 54 52  2  0  0  0  0
 55 46  1  0  0  0  0
 55 56  1  0  0  0  0
M  END
>  <MODEL>
9

>  <REMARK>
 VINA RESULT:      -7.9      1.875      3.420
  Name = 
  17 active torsions:
  status: ('A' for Active; 'I' for Inactive)
    1  A    between atoms: C_3  and  C_8
    2  A    between atoms: C_10  and  C_33
    3  A    between atoms: C_11  and  C_14
    4  A    between atoms: C_12  and  C_16
    5  A    between atoms: C_13  and  C_55
    6  A    between atoms: C_14  and  C_33
    7  A    between atoms: C_16  and  C_17
    8  A    between atoms: C_20  and  C_42
    9  A    between atoms: C_24  and  C_26
   10  A    between atoms: C_24  and  C_55
   11  A    between atoms: C_26  and  C_27
   12  A    between atoms: C_27  and  C_52
   13  A    between atoms: N_36  and  C_40
   14  A    between atoms: N_36  and  C_44
   15  A    between atoms: C_37  and  C_48
   16  A    between atoms: C_45  and  C_55
   17  A    between atoms: C_48  and  C_53
                            x       y       z     vdW  Elec       q    Type
                         _______ _______ _______ _____ _____    ______ ____

>  <TORSDO>
F 17

$$$$
