=
 OpenBabel10222422093D

 29 32  0  0  1  0  0  0  0  0999 V2000
  186.4400  178.7880  141.0970 C   0  0  0  0  0  2  0  0  0  0  0  0
  189.9610  176.7290  144.7880 N   0  0  2  0  0  0  0  0  0  0  0  0
  190.6470  178.0270  144.6230 C   0  0  2  0  0  3  0  0  0  0  0  0
  189.1940  179.0000  137.1940 N   0  0  0  0  0  2  0  0  0  0  0  0
  185.2620  178.7660  142.0560 C   0  0  0  0  0  2  0  0  0  0  0  0
  188.2300  177.7560  139.0810 C   0  0  0  0  0  0  0  0  0  0  0  0
  190.4860  175.6520  143.9250 C   0  0  1  0  0  3  0  0  0  0  0  0
  186.0040  178.4880  139.7420 N   0  0  0  0  0  0  0  0  0  0  0  0
  189.2720  178.1850  138.3720 C   0  0  0  0  0  0  0  0  0  0  0  0
  190.7960  178.7060  145.9710 C   0  0  0  0  0  1  0  0  0  0  0  0
  187.8890  178.0090  144.3540 N   0  0  2  0  0  0  0  0  0  0  0  0
  186.5390  177.6730  143.9080 C   0  0  0  0  0  2  0  0  0  0  0  0
  187.1070  178.1870  136.2590 C   0  0  0  0  0  2  0  0  0  0  0  0
  190.8570  177.6630  139.0140 S   0  0  0  0  0  0  0  0  0  0  0  0
  189.9930  176.5410  140.1670 C   0  0  2  0  0  3  0  0  0  0  0  0
  185.7190  176.4140  137.3160 C   0  0  0  0  0  1  0  0  0  0  0  0
  188.5850  176.9140  140.1680 N   0  0  0  0  0  2  0  0  0  0  0  0
  190.5870  176.6560  141.5630 C   0  0  0  0  0  2  0  0  0  0  0  0
  189.9650  175.6120  142.4790 C   0  0  0  0  0  2  0  0  0  0  0  0
  187.9590  179.4120  136.5410 C   0  0  0  0  0  2  0  0  0  0  0  0
  189.9880  178.9840  143.6310 C   0  0  0  0  0  2  0  0  0  0  0  0
  184.5680  179.0910  144.4140 C   0  0  0  0  0  1  0  0  0  0  0  0
  186.8040  178.0810  138.8000 C   0  0  0  0  0  0  0  0  0  0  0  0
  188.6290  178.4860  143.1940 C   0  0  0  0  0  2  0  0  0  0  0  0
  185.7540  178.9150  143.4900 C   0  0  2  0  0  3  0  0  0  0  0  0
  188.4820  176.7380  144.7830 C   0  0  0  0  0  2  0  0  0  0  0  0
  186.2030  177.8460  137.4390 C   0  0  1  0  0  3  0  0  0  0  0  0
  192.3170  175.2040  145.4270 F   0  0  0  0  0  0  0  0  0  0  0  0
  191.9820  175.3820  144.0960 C   0  0  0  0  0  2  0  0  0  0  0  0
  1  5  1  0  0  0  0
  2 26  1  6  0  0  0
  3  2  1  0  0  0  0
  3 10  1  1  0  0  0
  4  9  1  0  0  0  0
  5 25  1  0  0  0  0
  6 17  1  0  0  0  0
  7 29  1  6  0  0  0
  7  2  1  0  0  0  0
  8  1  1  0  0  0  0
  9 14  1  0  0  0  0
  9  6  2  0  0  0  0
 11 24  1  6  0  0  0
 11 26  1  0  0  0  0
 12 11  1  0  0  0  0
 13 20  1  0  0  0  0
 13 27  1  0  0  0  0
 14 15  1  0  0  0  0
 15 17  1  0  0  0  0
 15 18  1  1  0  0  0
 18 19  1  0  0  0  0
 19  7  1  0  0  0  0
 20  4  1  0  0  0  0
 21  3  1  0  0  0  0
 23  6  1  0  0  0  0
 23  8  2  0  0  0  0
 24 21  1  0  0  0  0
 25 12  1  0  0  0  0
 25 22  1  1  0  0  0
 27 16  1  1  0  0  0
 27 23  1  0  0  0  0
 29 28  1  0  0  0  0
M  END
>  <MODEL>
1

>  <REMARK>
 VINA RESULT:      -5.4      0.000      0.000
  Name = 
  1 active torsions:
  status: ('A' for Active; 'I' for Inactive)
    1  A    between atoms: C_7  and  C_24
                            x       y       z     vdW  Elec       q    Type
                         _______ _______ _______ _____ _____    ______ ____

>  <TORSDO>
F 1

$$$$
=
 OpenBabel10222422093D

 29 32  0  0  1  0  0  0  0  0999 V2000
  190.8370  172.6560  134.9190 C   0  0  0  0  0  2  0  0  0  0  0  0
  188.1510  176.7360  137.4480 N   0  0  2  0  0  0  0  0  0  0  0  0
  188.4860  177.5000  136.2290 C   0  0  2  0  0  3  0  0  0  0  0  0
  195.3090  174.3460  134.9070 N   0  0  0  0  0  0  0  0  0  0  0  0
  189.6110  171.7620  134.8370 C   0  0  0  0  0  2  0  0  0  0  0  0
  193.2370  173.7540  136.0880 C   0  0  2  0  0  3  0  0  0  0  0  0
  189.1150  176.9030  138.5530 C   0  0  1  0  0  3  0  0  0  0  0  0
  192.0370  171.8630  135.1340 N   0  0  0  0  0  0  0  0  0  0  0  0
  194.1870  174.6250  135.7570 C   0  0  0  0  0  0  0  0  0  0  0  0
  187.2210  178.0590  135.6060 C   0  0  0  0  0  1  0  0  0  0  0  0
  188.0500  174.7790  135.9380 N   0  0  2  0  0  0  0  0  0  0  0  0
  188.1400  173.3320  136.1120 C   0  0  0  0  0  2  0  0  0  0  0  0
  195.6850  172.0140  135.4620 C   0  0  0  0  0  2  0  0  0  0  0  0
  193.9650  176.2520  136.4660 S   0  0  0  0  0  0  0  0  0  0  0  0
  192.6290  175.5840  137.5170 C   0  0  2  0  0  3  0  0  0  0  0  0
  194.3080  170.7460  137.1000 C   0  0  0  0  0  1  0  0  0  0  0  0
  192.2740  174.2730  136.9920 N   0  0  0  0  0  2  0  0  0  0  0  0
  191.4290  176.5190  137.5050 C   0  0  0  0  0  2  0  0  0  0  0  0
  190.3830  176.0340  138.4980 C   0  0  0  0  0  2  0  0  0  0  0  0
  195.6300  173.0410  134.3460 C   0  0  0  0  0  2  0  0  0  0  0  0
  189.2820  176.7250  135.1800 C   0  0  0  0  0  2  0  0  0  0  0  0
  187.1550  171.7230  134.5000 C   0  0  0  0  0  1  0  0  0  0  0  0
  193.1500  172.3490  135.6010 C   0  0  0  0  0  0  0  0  0  0  0  0
  189.3600  175.2530  135.5140 C   0  0  0  0  0  2  0  0  0  0  0  0
  188.3480  172.6120  134.7810 C   0  0  2  0  0  3  0  0  0  0  0  0
  187.7810  175.3140  137.2770 C   0  0  0  0  0  2  0  0  0  0  0  0
  194.3140  171.4030  135.7330 C   0  0  1  0  0  3  0  0  0  0  0  0
  188.4550  178.7100  140.0030 F   0  0  0  0  0  0  0  0  0  0  0  0
  189.3270  178.3530  138.9900 C   0  0  0  0  0  2  0  0  0  0  0  0
  1  8  1  0  0  0  0
  2 26  1  6  0  0  0
  2  7  1  0  0  0  0
  3 10  1  6  0  0  0
  3  2  1  0  0  0  0
  4  9  2  0  0  0  0
  5  1  1  0  0  0  0
  6 23  1  1  0  0  0
  6 17  1  0  0  0  0
  7 29  1  6  0  0  0
  8 23  2  0  0  0  0
  9  6  1  0  0  0  0
  9 14  1  0  0  0  0
 11 24  1  1  0  0  0
 11 12  1  0  0  0  0
 11 26  1  0  0  0  0
 13 27  1  0  0  0  0
 14 15  1  0  0  0  0
 15 18  1  6  0  0  0
 17 15  1  0  0  0  0
 18 19  1  0  0  0  0
 19  7  1  0  0  0  0
 20  4  1  0  0  0  0
 20 13  1  0  0  0  0
 21 24  1  0  0  0  0
 21  3  1  0  0  0  0
 23 27  1  0  0  0  0
 25 22  1  1  0  0  0
 25  5  1  0  0  0  0
 25 12  1  0  0  0  0
 27 16  1  1  0  0  0
 29 28  1  0  0  0  0
M  END
>  <MODEL>
2

>  <REMARK>
 VINA RESULT:      -5.0      5.523      8.556
  Name = 
  1 active torsions:
  status: ('A' for Active; 'I' for Inactive)
    1  A    between atoms: C_7  and  C_24
                            x       y       z     vdW  Elec       q    Type
                         _______ _______ _______ _____ _____    ______ ____

>  <TORSDO>
F 1

$$$$
=
 OpenBabel10222422093D

 29 32  0  0  1  0  0  0  0  0999 V2000
  186.1160  178.0610  140.3860 C   0  0  0  0  0  2  0  0  0  0  0  0
  180.8230  177.6440  138.9450 N   0  0  2  0  0  0  0  0  0  0  0  0
  181.0060  176.2180  139.2870 C   0  0  2  0  0  3  0  0  0  0  0  0
  188.2310  175.5330  136.9230 N   0  0  0  0  0  2  0  0  0  0  0  0
  185.8320  179.0010  141.5460 C   0  0  0  0  0  2  0  0  0  0  0  0
  186.7280  177.3320  137.6620 C   0  0  0  0  0  0  0  0  0  0  0  0
  181.0210  177.9540  137.5160 C   0  0  1  0  0  3  0  0  0  0  0  0
  187.3800  178.3980  139.7510 N   0  0  0  0  0  0  0  0  0  0  0  0
  186.9730  176.2230  136.9670 C   0  0  0  0  0  0  0  0  0  0  0  0
  179.9820  175.8010  140.3250 C   0  0  0  0  0  1  0  0  0  0  0  0
  182.4830  178.0660  140.7300 N   0  0  2  0  0  0  0  0  0  0  0  0
  183.3820  179.1670  141.0680 C   0  0  0  0  0  2  0  0  0  0  0  0
  189.7490  177.4140  137.1320 C   0  0  0  0  0  2  0  0  0  0  0  0
  185.5660  175.6090  136.0510 S   0  0  0  0  0  0  0  0  0  0  0  0
  184.6740  177.1570  136.4320 C   0  0  2  0  0  3  0  0  0  0  0  0
  188.9990  179.7760  137.3530 C   0  0  0  0  0  1  0  0  0  0  0  0
  185.4160  177.8420  137.4820 N   0  0  0  0  0  2  0  0  0  0  0  0
  183.2530  176.8530  136.8790 C   0  0  0  0  0  2  0  0  0  0  0  0
  182.4730  178.1490  137.0470 C   0  0  0  0  0  2  0  0  0  0  0  0
  189.4580  175.9880  137.5610 C   0  0  0  0  0  2  0  0  0  0  0  0
  182.4090  175.8430  139.7650 C   0  0  0  0  0  2  0  0  0  0  0  0
  184.2380  179.5440  143.3660 C   0  0  0  0  0  1  0  0  0  0  0  0
  187.7040  178.0270  138.5470 C   0  0  0  0  0  0  0  0  0  0  0  0
  183.2600  177.0680  140.0090 C   0  0  0  0  0  2  0  0  0  0  0  0
  184.4330  178.7470  142.0940 C   0  0  2  0  0  3  0  0  0  0  0  0
  181.5020  178.6400  139.8030 C   0  0  0  0  0  2  0  0  0  0  0  0
  189.0660  178.4280  138.0450 C   0  0  1  0  0  3  0  0  0  0  0  0
  180.2960  177.5540  135.2530 F   0  0  0  0  0  0  0  0  0  0  0  0
  180.1230  177.1580  136.5680 C   0  0  0  0  0  2  0  0  0  0  0  0
  1  5  1  0  0  0  0
  2  3  1  0  0  0  0
  2 26  1  1  0  0  0
  3 21  1  0  0  0  0
  3 10  1  1  0  0  0
  4  9  1  0  0  0  0
  4 20  1  0  0  0  0
  5 25  1  0  0  0  0
  6 23  1  0  0  0  0
  7 29  1  6  0  0  0
  7  2  1  0  0  0  0
  8  1  1  0  0  0  0
  9  6  2  0  0  0  0
 11 26  1  6  0  0  0
 11 12  1  0  0  0  0
 12 25  1  0  0  0  0
 13 20  1  0  0  0  0
 13 27  1  0  0  0  0
 14 15  1  0  0  0  0
 14  9  1  0  0  0  0
 15 18  1  1  0  0  0
 15 17  1  0  0  0  0
 17  6  1  0  0  0  0
 18 19  1  0  0  0  0
 19  7  1  0  0  0  0
 21 24  1  0  0  0  0
 23  8  2  0  0  0  0
 24 11  1  0  0  0  0
 25 22  1  1  0  0  0
 27 16  1  6  0  0  0
 27 23  1  0  0  0  0
 28 29  1  0  0  0  0
M  END
>  <MODEL>
3

>  <REMARK>
 VINA RESULT:      -4.7      4.765      7.464
  Name = 
  1 active torsions:
  status: ('A' for Active; 'I' for Inactive)
    1  A    between atoms: C_7  and  C_24
                            x       y       z     vdW  Elec       q    Type
                         _______ _______ _______ _____ _____    ______ ____

>  <TORSDO>
F 1

$$$$
=
 OpenBabel10222422093D

 29 32  0  0  1  0  0  0  0  0999 V2000
  185.2320  178.9630  140.0700 C   0  0  0  0  0  2  0  0  0  0  0  0
  187.8940  175.9340  136.3290 N   0  0  2  0  0  0  0  0  0  0  0  0
  187.9170  177.1930  135.5570 C   0  0  2  0  0  3  0  0  0  0  0  0
  181.1280  179.8700  137.7900 N   0  0  0  0  0  0  0  0  0  0  0  0
  186.3150  178.7990  141.1230 C   0  0  0  0  0  2  0  0  0  0  0  0
  182.8220  178.2990  138.6280 C   0  0  2  0  0  3  0  0  0  0  0  0
  186.7610  175.0450  136.0050 C   0  0  1  0  0  3  0  0  0  0  0  0
  183.9160  178.9960  140.6880 N   0  0  0  0  0  0  0  0  0  0  0  0
  182.0860  178.8120  137.6440 C   0  0  0  0  0  0  0  0  0  0  0  0
  189.3460  177.5470  135.1900 C   0  0  0  0  0  1  0  0  0  0  0  0
  188.0240  177.3980  138.3180 N   0  0  2  0  0  0  0  0  0  0  0  0
  187.7040  177.2500  139.7350 C   0  0  0  0  0  2  0  0  0  0  0  0
  180.3320  179.4090  140.0360 C   0  0  0  0  0  2  0  0  0  0  0  0
  182.3830  178.0680  136.0460 S   0  0  0  0  0  0  0  0  0  0  0  0
  183.3780  176.7710  136.8620 C   0  0  2  0  0  3  0  0  0  0  0  0
  181.1660  177.5310  141.4380 C   0  0  0  0  0  1  0  0  0  0  0  0
  183.6470  177.2180  138.2210 N   0  0  0  0  0  2  0  0  0  0  0  0
  184.6730  176.5390  136.0990 C   0  0  0  0  0  2  0  0  0  0  0  0
  185.4220  175.3570  136.6950 C   0  0  0  0  0  2  0  0  0  0  0  0
  180.7490  180.4890  139.0540 C   0  0  0  0  0  2  0  0  0  0  0  0
  187.2480  178.3840  136.2430 C   0  0  0  0  0  2  0  0  0  0  0  0
  188.7590  178.6340  141.5020 C   0  0  0  0  0  1  0  0  0  0  0  0
  182.8100  178.7620  140.0430 C   0  0  0  0  0  0  0  0  0  0  0  0
  186.9030  178.0760  137.6820 C   0  0  0  0  0  2  0  0  0  0  0  0
  187.6680  178.5970  140.4540 C   0  0  2  0  0  3  0  0  0  0  0  0
  188.0910  176.0310  137.7920 C   0  0  0  0  0  2  0  0  0  0  0  0
  181.5240  178.8690  140.8200 C   0  0  1  0  0  3  0  0  0  0  0  0
  185.9180  173.5050  134.3550 F   0  0  0  0  0  0  0  0  0  0  0  0
  186.6670  174.6560  134.5290 C   0  0  0  0  0  2  0  0  0  0  0  0
  1  8  1  0  0  0  0
  1  5  1  0  0  0  0
  2 26  1  1  0  0  0
  3 10  1  1  0  0  0
  3 21  1  0  0  0  0
  3  2  1  0  0  0  0
  4 20  1  0  0  0  0
  6  9  1  1  0  0  0
  6 23  1  0  0  0  0
  7 29  1  6  0  0  0
  7  2  1  0  0  0  0
  7 19  1  0  0  0  0
  9  4  2  0  0  0  0
 11 24  1  6  0  0  0
 11 12  1  0  0  0  0
 12 25  1  0  0  0  0
 13 27  1  0  0  0  0
 14 15  1  0  0  0  0
 14  9  1  0  0  0  0
 15 18  1  6  0  0  0
 15 17  1  0  0  0  0
 17  6  1  0  0  0  0
 18 19  1  0  0  0  0
 20 13  1  0  0  0  0
 21 24  1  0  0  0  0
 23  8  2  0  0  0  0
 23 27  1  0  0  0  0
 25  5  1  0  0  0  0
 25 22  1  1  0  0  0
 26 11  1  0  0  0  0
 27 16  1  6  0  0  0
 28 29  1  0  0  0  0
M  END
>  <MODEL>
4

>  <REMARK>
 VINA RESULT:      -4.5      4.201      7.298
  Name = 
  1 active torsions:
  status: ('A' for Active; 'I' for Inactive)
    1  A    between atoms: C_7  and  C_24
                            x       y       z     vdW  Elec       q    Type
                         _______ _______ _______ _____ _____    ______ ____

>  <TORSDO>
F 1

$$$$
=
 OpenBabel10222422093D

 29 32  0  0  1  0  0  0  0  0999 V2000
  181.4130  175.4510  139.1880 C   0  0  0  0  0  2  0  0  0  0  0  0
  185.0770  174.8940  135.1230 N   0  0  2  0  0  0  0  0  0  0  0  0
  185.8860  174.2180  136.1570 C   0  0  2  0  0  3  0  0  0  0  0  0
  183.6970  178.4820  142.0960 N   0  0  0  0  0  2  0  0  0  0  0  0
  180.3610  174.6020  138.4940 C   0  0  0  0  0  2  0  0  0  0  0  0
  182.8220  177.8730  139.8820 C   0  0  0  0  0  0  0  0  0  0  0  0
  185.3680  176.3330  134.9700 C   0  0  1  0  0  3  0  0  0  0  0  0
  180.7900  176.5340  139.9330 N   0  0  0  0  0  0  0  0  0  0  0  0
  183.8160  178.2410  140.6870 C   0  0  0  0  0  0  0  0  0  0  0  0
  186.2700  172.8290  135.6850 C   0  0  0  0  0  1  0  0  0  0  0  0
  183.1330  173.9620  136.3350 N   0  0  2  0  0  0  0  0  0  0  0  0
  181.7100  174.2840  136.4120 C   0  0  0  0  0  2  0  0  0  0  0  0
  181.4340  179.3560  142.1820 C   0  0  0  0  0  2  0  0  0  0  0  0
  185.3940  178.4190  139.8640 S   0  0  0  0  0  0  0  0  0  0  0  0
  184.5450  178.2540  138.2550 C   0  0  2  0  0  3  0  0  0  0  0  0
  179.9820  179.6250  140.1800 C   0  0  0  0  0  1  0  0  0  0  0  0
  183.2010  177.7610  138.5190 N   0  0  0  0  0  2  0  0  0  0  0  0
  185.3080  177.2990  137.3500 C   0  0  0  0  0  2  0  0  0  0  0  0
  184.6800  177.2850  135.9640 C   0  0  0  0  0  2  0  0  0  0  0  0
  182.4500  178.4470  142.8490 C   0  0  0  0  0  2  0  0  0  0  0  0
  185.2320  174.1340  137.5360 C   0  0  0  0  0  2  0  0  0  0  0  0
  179.9900  172.6160  137.0580 C   0  0  0  0  0  1  0  0  0  0  0  0
  181.4210  177.6070  140.3110 C   0  0  0  0  0  0  0  0  0  0  0  0
  183.7820  174.5610  137.4920 C   0  0  0  0  0  2  0  0  0  0  0  0
  181.0310  173.5790  137.5860 C   0  0  2  0  0  3  0  0  0  0  0  0
  183.6180  174.6460  135.1320 C   0  0  0  0  0  2  0  0  0  0  0  0
  180.6410  178.6200  141.1060 C   0  0  1  0  0  3  0  0  0  0  0  0
  187.0540  178.0150  134.6040 F   0  0  0  0  0  0  0  0  0  0  0  0
  186.8310  176.6500  134.6580 C   0  0  0  0  0  2  0  0  0  0  0  0
  1  8  1  0  0  0  0
  2 26  1  1  0  0  0
  2  3  1  0  0  0  0
  3 10  1  6  0  0  0
  3 21  1  0  0  0  0
  4 20  1  0  0  0  0
  5  1  1  0  0  0  0
  6 23  1  0  0  0  0
  6  9  2  0  0  0  0
  7 29  1  1  0  0  0
  7  2  1  0  0  0  0
  7 19  1  0  0  0  0
  8 23  2  0  0  0  0
  9  4  1  0  0  0  0
 11 26  1  6  0  0  0
 11 12  1  0  0  0  0
 11 24  1  0  0  0  0
 12 25  1  0  0  0  0
 13 20  1  0  0  0  0
 14  9  1  0  0  0  0
 15 18  1  6  0  0  0
 15 17  1  0  0  0  0
 15 14  1  0  0  0  0
 17  6  1  0  0  0  0
 19 18  1  0  0  0  0
 23 27  1  0  0  0  0
 24 21  1  0  0  0  0
 25 22  1  6  0  0  0
 25  5  1  0  0  0  0
 27 16  1  6  0  0  0
 27 13  1  0  0  0  0
 28 29  1  0  0  0  0
M  END
>  <MODEL>
5

>  <REMARK>
 VINA RESULT:      -4.4      5.771      8.653
  Name = 
  1 active torsions:
  status: ('A' for Active; 'I' for Inactive)
    1  A    between atoms: C_7  and  C_24
                            x       y       z     vdW  Elec       q    Type
                         _______ _______ _______ _____ _____    ______ ____

>  <TORSDO>
F 1

$$$$
=
 OpenBabel10222422093D

 29 32  0  0  1  0  0  0  0  0999 V2000
  190.8710  176.1460  138.8390 C   0  0  0  0  0  2  0  0  0  0  0  0
  185.9950  177.6820  136.8070 N   0  0  2  0  0  0  0  0  0  0  0  0
  185.6130  176.2840  137.0960 C   0  0  2  0  0  3  0  0  0  0  0  0
  192.3390  173.0470  135.5070 N   0  0  0  0  0  0  0  0  0  0  0  0
  190.8060  177.1170  140.0050 C   0  0  0  0  0  2  0  0  0  0  0  0
  191.5040  175.2630  136.1650 C   0  0  2  0  0  3  0  0  0  0  0  0
  186.4610  177.9090  135.4250 C   0  0  1  0  0  3  0  0  0  0  0  0
  192.2390  176.0070  138.3630 N   0  0  0  0  0  0  0  0  0  0  0  0
  191.4170  174.1450  135.4470 C   0  0  0  0  0  0  0  0  0  0  0  0
  184.3900  176.2590  137.9930 C   0  0  0  0  0  1  0  0  0  0  0  0
  187.4690  177.4630  138.7820 N   0  0  2  0  0  0  0  0  0  0  0  0
  188.6550  178.1610  139.2700 C   0  0  0  0  0  2  0  0  0  0  0  0
  194.3940  174.2500  135.9740 C   0  0  0  0  0  2  0  0  0  0  0  0
  190.0040  174.0880  134.3530 S   0  0  0  0  0  0  0  0  0  0  0  0
  189.6880  175.8510  134.7100 C   0  0  2  0  0  3  0  0  0  0  0  0
  194.5190  176.7210  136.2290 C   0  0  0  0  0  1  0  0  0  0  0  0
  190.4930  176.2140  135.8670 N   0  0  0  0  0  2  0  0  0  0  0  0
  188.2090  176.0790  134.9830 C   0  0  0  0  0  2  0  0  0  0  0  0
  187.9320  177.5680  135.1290 C   0  0  0  0  0  2  0  0  0  0  0  0
  193.5620  173.0220  136.2980 C   0  0  0  0  0  2  0  0  0  0  0  0
  186.7190  175.4240  137.7050 C   0  0  0  0  0  2  0  0  0  0  0  0
  189.3060  178.1870  141.6640 C   0  0  0  0  0  1  0  0  0  0  0  0
  192.5500  175.5520  137.1850 C   0  0  0  0  0  0  0  0  0  0  0  0
  187.9170  176.2560  138.1020 C   0  0  0  0  0  2  0  0  0  0  0  0
  189.3540  177.3820  140.3830 C   0  0  2  0  0  3  0  0  0  0  0  0
  186.8770  178.3590  137.7830 C   0  0  0  0  0  2  0  0  0  0  0  0
  194.0150  175.4360  136.8560 C   0  0  1  0  0  3  0  0  0  0  0  0
  184.1540  177.6640  134.7770 F   0  0  0  0  0  0  0  0  0  0  0  0
  185.4580  177.4980  134.3460 C   0  0  0  0  0  2  0  0  0  0  0  0
  1  5  1  0  0  0  0
  2  3  1  0  0  0  0
  2 26  1  1  0  0  0
  3 21  1  0  0  0  0
  3 10  1  1  0  0  0
  4 20  1  0  0  0  0
  5 25  1  0  0  0  0
  6  9  1  6  0  0  0
  6 23  1  0  0  0  0
  7 29  1  6  0  0  0
  7  2  1  0  0  0  0
  8  1  1  0  0  0  0
  9  4  2  0  0  0  0
 11 26  1  6  0  0  0
 11 12  1  0  0  0  0
 12 25  1  0  0  0  0
 13 20  1  0  0  0  0
 13 27  1  0  0  0  0
 14 15  1  0  0  0  0
 14  9  1  0  0  0  0
 15 18  1  1  0  0  0
 15 17  1  0  0  0  0
 17  6  1  0  0  0  0
 18 19  1  0  0  0  0
 19  7  1  0  0  0  0
 21 24  1  0  0  0  0
 23  8  2  0  0  0  0
 24 11  1  0  0  0  0
 25 22  1  1  0  0  0
 27 16  1  6  0  0  0
 27 23  1  0  0  0  0
 29 28  1  0  0  0  0
M  END
>  <MODEL>
6

>  <REMARK>
 VINA RESULT:      -4.4      4.430      7.664
  Name = 
  1 active torsions:
  status: ('A' for Active; 'I' for Inactive)
    1  A    between atoms: C_7  and  C_24
                            x       y       z     vdW  Elec       q    Type
                         _______ _______ _______ _____ _____    ______ ____

>  <TORSDO>
F 1

$$$$
=
 OpenBabel10222422093D

 29 32  0  0  1  0  0  0  0  0999 V2000
  182.5070  175.0290  137.5880 C   0  0  0  0  0  2  0  0  0  0  0  0
  186.9630  173.3210  134.8520 N   0  0  2  0  0  0  0  0  0  0  0  0
  187.4590  172.9670  136.1970 C   0  0  2  0  0  3  0  0  0  0  0  0
  184.2660  178.7590  140.0060 N   0  0  0  0  0  2  0  0  0  0  0  0
  181.5860  174.0190  136.9230 C   0  0  0  0  0  2  0  0  0  0  0  0
  183.8870  177.5440  137.9040 C   0  0  0  0  0  0  0  0  0  0  0  0
  187.3840  174.6550  134.3820 C   0  0  1  0  0  3  0  0  0  0  0  0
  181.8070  176.2810  137.8290 N   0  0  0  0  0  0  0  0  0  0  0  0
  184.6910  178.1240  138.7910 C   0  0  0  0  0  0  0  0  0  0  0  0
  187.8420  171.5000  136.2370 C   0  0  0  0  0  1  0  0  0  0  0  0
  184.7290  172.7800  135.7660 N   0  0  2  0  0  0  0  0  0  0  0  0
  183.3540  173.1140  135.4030 C   0  0  0  0  0  2  0  0  0  0  0  0
  182.1150  179.6270  139.2940 C   0  0  0  0  0  2  0  0  0  0  0  0
  186.4250  178.0550  138.3600 S   0  0  0  0  0  0  0  0  0  0  0  0
  185.9630  177.4390  136.7040 C   0  0  2  0  0  3  0  0  0  0  0  0
  181.1890  179.3150  137.0070 C   0  0  0  0  0  1  0  0  0  0  0  0
  184.5620  177.0450  136.7590 N   0  0  0  0  0  2  0  0  0  0  0  0
  186.8440  176.2620  136.3120 C   0  0  0  0  0  2  0  0  0  0  0  0
  186.5550  175.8530  134.8750 C   0  0  0  0  0  2  0  0  0  0  0  0
  182.8800  178.9440  140.4130 C   0  0  0  0  0  2  0  0  0  0  0  0
  186.4990  173.2830  137.3440 C   0  0  0  0  0  2  0  0  0  0  0  0
  181.4160  171.7060  136.0480 C   0  0  0  0  0  1  0  0  0  0  0  0
  182.4090  177.4150  138.0370 C   0  0  0  0  0  0  0  0  0  0  0  0
  185.1340  173.6840  136.8330 C   0  0  0  0  0  2  0  0  0  0  0  0
  182.3730  172.7770  136.5240 C   0  0  2  0  0  3  0  0  0  0  0  0
  185.5280  173.0900  134.5750 C   0  0  0  0  0  2  0  0  0  0  0  0
  181.5410  178.6160  138.3060 C   0  0  1  0  0  3  0  0  0  0  0  0
  189.2240  176.2110  134.3490 F   0  0  0  0  0  0  0  0  0  0  0  0
  188.8990  174.8660  134.3590 C   0  0  0  0  0  2  0  0  0  0  0  0
  1  8  1  0  0  0  0
  2 26  1  1  0  0  0
  2  3  1  0  0  0  0
  3 10  1  6  0  0  0
  3 21  1  0  0  0  0
  4 20  1  0  0  0  0
  5  1  1  0  0  0  0
  6 23  1  0  0  0  0
  6  9  2  0  0  0  0
  7 29  1  1  0  0  0
  7  2  1  0  0  0  0
  7 19  1  0  0  0  0
  8 23  2  0  0  0  0
  9  4  1  0  0  0  0
 11 26  1  6  0  0  0
 11 24  1  0  0  0  0
 12 11  1  0  0  0  0
 12 25  1  0  0  0  0
 13 20  1  0  0  0  0
 14  9  1  0  0  0  0
 15 18  1  1  0  0  0
 15 17  1  0  0  0  0
 15 14  1  0  0  0  0
 17  6  1  0  0  0  0
 19 18  1  0  0  0  0
 23 27  1  0  0  0  0
 24 21  1  0  0  0  0
 25 22  1  6  0  0  0
 25  5  1  0  0  0  0
 27 16  1  6  0  0  0
 27 13  1  0  0  0  0
 28 29  1  0  0  0  0
M  END
>  <MODEL>
7

>  <REMARK>
 VINA RESULT:      -4.4      5.789      8.296
  Name = 
  1 active torsions:
  status: ('A' for Active; 'I' for Inactive)
    1  A    between atoms: C_7  and  C_24
                            x       y       z     vdW  Elec       q    Type
                         _______ _______ _______ _____ _____    ______ ____

>  <TORSDO>
F 1

$$$$
=
 OpenBabel10222422093D

 29 32  0  0  1  0  0  0  0  0999 V2000
  185.9200  177.7200  137.5790 C   0  0  0  0  0  2  0  0  0  0  0  0
  189.1990  173.5130  136.2340 N   0  0  2  0  0  0  0  0  0  0  0  0
  189.1150  174.0870  134.8760 C   0  0  2  0  0  3  0  0  0  0  0  0
  181.9020  176.5500  135.2660 N   0  0  0  0  0  2  0  0  0  0  0  0
  186.9390  178.3480  138.5140 C   0  0  0  0  0  2  0  0  0  0  0  0
  183.7190  176.0090  136.8290 C   0  0  0  0  0  0  0  0  0  0  0  0
  188.2130  172.4480  136.5040 C   0  0  1  0  0  3  0  0  0  0  0  0
  184.5700  177.9110  138.0860 N   0  0  0  0  0  0  0  0  0  0  0  0
  182.9940  175.7510  135.7430 C   0  0  0  0  0  0  0  0  0  0  0  0
  190.5090  174.3680  134.3470 C   0  0  0  0  0  1  0  0  0  0  0  0
  189.0030  175.8540  137.0070 N   0  0  2  0  0  0  0  0  0  0  0  0
  188.6070  176.5030  138.2540 C   0  0  0  0  0  2  0  0  0  0  0  0
  181.0170  177.3540  137.3780 C   0  0  0  0  0  2  0  0  0  0  0  0
  183.4940  174.2760  134.8640 S   0  0  0  0  0  0  0  0  0  0  0  0
  184.5870  173.8430  136.2620 C   0  0  2  0  0  3  0  0  0  0  0  0
  181.9850  176.7660  139.5930 C   0  0  0  0  0  1  0  0  0  0  0  0
  184.7020  175.0230  137.1080 N   0  0  0  0  0  2  0  0  0  0  0  0
  185.9500  173.4040  135.7520 C   0  0  0  0  0  2  0  0  0  0  0  0
  186.8010  172.9020  136.9100 C   0  0  0  0  0  2  0  0  0  0  0  0
  181.3610  177.7190  135.9450 C   0  0  0  0  0  2  0  0  0  0  0  0
  188.2540  175.3440  134.7580 C   0  0  0  0  0  2  0  0  0  0  0  0
  189.3520  178.7850  138.8760 C   0  0  0  0  0  1  0  0  0  0  0  0
  183.5510  177.1930  137.7150 C   0  0  0  0  0  0  0  0  0  0  0  0
  187.8520  175.8730  136.1160 C   0  0  0  0  0  2  0  0  0  0  0  0
  188.3500  177.9960  138.0610 C   0  0  2  0  0  3  0  0  0  0  0  0
  189.2800  174.4600  137.3680 C   0  0  0  0  0  2  0  0  0  0  0  0
  182.2110  177.5410  138.3090 C   0  0  1  0  0  3  0  0  0  0  0  0
  187.8810  170.0900  136.1310 F   0  0  0  0  0  0  0  0  0  0  0  0
  188.2720  171.2720  135.5270 C   0  0  0  0  0  2  0  0  0  0  0  0
  1  8  1  0  0  0  0
  1  5  1  0  0  0  0
  2  7  1  0  0  0  0
  2 26  1  1  0  0  0
  3 10  1  1  0  0  0
  3  2  1  0  0  0  0
  4  9  1  0  0  0  0
  4 20  1  0  0  0  0
  6 17  1  0  0  0  0
  6 23  1  0  0  0  0
  7 29  1  6  0  0  0
  7 19  1  0  0  0  0
  9  6  2  0  0  0  0
 11 24  1  6  0  0  0
 11 26  1  0  0  0  0
 11 12  1  0  0  0  0
 13 27  1  0  0  0  0
 14  9  1  0  0  0  0
 14 15  1  0  0  0  0
 15 18  1  6  0  0  0
 15 17  1  0  0  0  0
 18 19  1  0  0  0  0
 20 13  1  0  0  0  0
 21  3  1  0  0  0  0
 21 24  1  0  0  0  0
 23  8  2  0  0  0  0
 23 27  1  0  0  0  0
 25 12  1  0  0  0  0
 25  5  1  0  0  0  0
 25 22  1  1  0  0  0
 27 16  1  1  0  0  0
 29 28  1  0  0  0  0
M  END
>  <MODEL>
8

>  <REMARK>
 VINA RESULT:      -4.3      5.157      7.540
  Name = 
  1 active torsions:
  status: ('A' for Active; 'I' for Inactive)
    1  A    between atoms: C_7  and  C_24
                            x       y       z     vdW  Elec       q    Type
                         _______ _______ _______ _____ _____    ______ ____

>  <TORSDO>
F 1

$$$$
=
 OpenBabel10222422093D

 29 32  0  0  1  0  0  0  0  0999 V2000
  183.6160  173.7470  137.1880 C   0  0  0  0  0  2  0  0  0  0  0  0
  188.5560  174.7290  134.9750 N   0  0  2  0  0  0  0  0  0  0  0  0
  189.0280  174.6100  136.3690 C   0  0  2  0  0  3  0  0  0  0  0  0
  182.9410  177.7150  139.7680 N   0  0  0  0  0  2  0  0  0  0  0  0
  183.4220  172.4450  136.4290 C   0  0  0  0  0  2  0  0  0  0  0  0
  183.4540  176.5920  137.6430 C   0  0  0  0  0  0  0  0  0  0  0  0
  188.2680  176.1130  134.5480 C   0  0  1  0  0  3  0  0  0  0  0  0
  182.3490  174.4440  137.3430 N   0  0  0  0  0  0  0  0  0  0  0  0
  183.7500  177.4560  138.6120 C   0  0  0  0  0  0  0  0  0  0  0  0
  190.1100  173.5500  136.4590 C   0  0  0  0  0  1  0  0  0  0  0  0
  186.8480  173.0660  135.6360 N   0  0  2  0  0  0  0  0  0  0  0  0
  185.5420  172.6630  135.1200 C   0  0  0  0  0  2  0  0  0  0  0  0
  180.7330  177.3870  138.8160 C   0  0  0  0  0  2  0  0  0  0  0  0
  185.3020  178.3140  138.3770 S   0  0  0  0  0  0  0  0  0  0  0  0
  185.3910  177.6360  136.6830 C   0  0  2  0  0  3  0  0  0  0  0  0
  180.3320  176.7650  136.4410 C   0  0  0  0  0  1  0  0  0  0  0  0
  184.3990  176.5750  136.5830 N   0  0  0  0  0  2  0  0  0  0  0  0
  186.7870  177.1050  136.3980 C   0  0  0  0  0  2  0  0  0  0  0  0
  186.8950  176.6830  134.9400 C   0  0  0  0  0  2  0  0  0  0  0  0
  181.6280  177.1370  140.0170 C   0  0  0  0  0  2  0  0  0  0  0  0
  187.9370  174.3240  137.4000 C   0  0  0  0  0  2  0  0  0  0  0  0
  184.5620  170.4250  135.5530 C   0  0  0  0  0  1  0  0  0  0  0  0
  182.2530  175.7140  137.6100 C   0  0  0  0  0  0  0  0  0  0  0  0
  186.6190  173.9910  136.7380 C   0  0  0  0  0  2  0  0  0  0  0  0
  184.7730  171.8090  136.1270 C   0  0  2  0  0  3  0  0  0  0  0  0
  187.4830  173.8070  134.5410 C   0  0  0  0  0  2  0  0  0  0  0  0
  180.8660  176.2790  137.7750 C   0  0  1  0  0  3  0  0  0  0  0  0
  190.6440  176.4660  134.3540 F   0  0  0  0  0  0  0  0  0  0  0  0
  189.4480  177.0750  134.6930 C   0  0  0  0  0  2  0  0  0  0  0  0
  1  8  1  0  0  0  0
  2 26  1  1  0  0  0
  2  3  1  0  0  0  0
  3 10  1  6  0  0  0
  3 21  1  0  0  0  0
  4 20  1  0  0  0  0
  5  1  1  0  0  0  0
  6  9  2  0  0  0  0
  7 29  1  1  0  0  0
  7 19  1  0  0  0  0
  7  2  1  0  0  0  0
  8 23  2  0  0  0  0
  9  4  1  0  0  0  0
 11 26  1  6  0  0  0
 11 24  1  0  0  0  0
 12 11  1  0  0  0  0
 12 25  1  0  0  0  0
 13 20  1  0  0  0  0
 14  9  1  0  0  0  0
 15 18  1  1  0  0  0
 15 14  1  0  0  0  0
 17 15  1  0  0  0  0
 17  6  1  0  0  0  0
 19 18  1  0  0  0  0
 23  6  1  0  0  0  0
 23 27  1  0  0  0  0
 24 21  1  0  0  0  0
 25 22  1  6  0  0  0
 25  5  1  0  0  0  0
 27 16  1  6  0  0  0
 27 13  1  0  0  0  0
 28 29  1  0  0  0  0
M  END
>  <MODEL>
9

>  <REMARK>
 VINA RESULT:      -4.1      6.012      8.289
  Name = 
  1 active torsions:
  status: ('A' for Active; 'I' for Inactive)
    1  A    between atoms: C_7  and  C_24
                            x       y       z     vdW  Elec       q    Type
                         _______ _______ _______ _____ _____    ______ ____

>  <TORSDO>
F 1

$$$$
