=
 OpenBabel10232408253D

 45 47  0  0  1  0  0  0  0  0999 V2000
  191.6140  175.9370  136.0100 C   0  0  0  0  0  0  0  0  0  0  0  0
  190.5570  176.7200  135.2590 C   0  0  0  0  0  2  0  0  0  0  0  0
  191.3130  175.3690  137.1890 C   0  0  0  0  0  3  0  0  0  0  0  0
  189.9270  175.4830  137.7820 C   0  0  2  0  0  3  0  0  0  0  0  0
  189.1800  176.1810  135.5280 C   0  0  0  0  0  3  0  0  0  0  0  0
  188.8720  175.6340  136.7090 C   0  0  0  0  0  0  0  0  0  0  0  0
  187.3650  173.6630  136.8000 C   0  0  0  0  0  1  0  0  0  0  0  0
  185.3060  175.4670  137.4320 O   0  0  0  0  0  0  0  0  0  0  0  0
  186.4450  175.9610  137.2140 C   0  0  0  0  0  0  0  0  0  0  0  0
  187.5600  175.1010  136.9220 N   0  0  0  0  0  0  0  0  0  0  0  0
  186.6130  177.4500  137.2320 C   0  0  0  0  0  2  0  0  0  0  0  0
  185.9370  178.4610  139.4340 N   0  0  0  0  0  2  0  0  0  0  0  0
  185.5890  178.1080  138.0960 C   0  0  0  0  0  0  0  0  0  0  0  0
  184.4300  178.3250  137.6530 O   0  0  0  0  0  0  0  0  0  0  0  0
  185.0210  179.1640  140.3170 C   0  0  0  0  0  2  0  0  0  0  0  0
  184.3250  179.0110  142.7220 C   0  0  0  0  0  3  0  0  0  0  0  0
  186.7630  177.8170  143.3960 C   0  0  0  0  0  3  0  0  0  0  0  0
  183.5690  178.9180  145.1040 C   0  0  0  0  0  1  0  0  0  0  0  0
  184.5900  178.6610  144.0490 C   0  0  0  0  0  0  0  0  0  0  0  0
  186.5010  178.1710  142.0690 C   0  0  0  0  0  3  0  0  0  0  0  0
  185.2810  178.7690  141.7290 C   0  0  0  0  0  0  0  0  0  0  0  0
  185.8080  178.0630  144.3870 C   0  0  0  0  0  3  0  0  0  0  0  0
  189.8480  176.5660  138.8150 C   0  0  0  0  0  0  0  0  0  0  0  0
  189.4210  178.2410  138.3140 S   0  0  0  0  0  1  0  0  0  0  0  0
  190.0270  176.2040  140.0950 C   0  0  0  0  0  3  0  0  0  0  0  0
  190.0380  177.0780  141.2340 N   0  0  0  0  0  0  0  0  0  0  0  0
  190.2880  176.7030  142.4470 C   0  0  0  0  0  3  0  0  0  0  0  0
  190.2900  177.6420  143.5290 N   0  0  0  0  0  0  0  0  0  0  0  0
  190.9620  176.3240  147.5150 C   0  0  0  0  0  3  0  0  0  0  0  0
  189.5350  177.3890  145.8720 C   0  0  0  0  0  3  0  0  0  0  0  0
  190.5120  177.1980  144.8810 C   0  0  0  0  0  0  0  0  0  0  0  0
  191.7180  176.5670  145.2290 C   0  0  0  0  0  3  0  0  0  0  0  0
  191.9420  176.1330  146.5380 C   0  0  0  0  0  3  0  0  0  0  0  0
  189.7590  176.9540  147.1820 C   0  0  0  0  0  3  0  0  0  0  0  0
  191.0730  179.6810  143.9150 O   0  0  0  0  0  1  0  0  0  0  0  0
  190.0980  179.0070  143.2600 N   0  0  0  0  0  2  0  0  0  0  0  0
  193.0080  175.7900  135.4810 C   0  0  0  0  0  2  0  0  0  0  0  0
  193.5340  174.4540  135.7230 N   0  0  0  0  0  2  0  0  0  0  0  0
  194.7650  174.6110  136.3820 N   0  0  0  0  0  0  0  0  0  0  0  0
  196.0430  172.5380  136.7120 C   0  0  0  0  0  1  0  0  0  0  0  0
  194.9880  173.4740  137.2850 C   0  0  0  0  0  3  0  0  0  0  0  0
  195.3710  173.8900  138.7070 C   0  0  0  0  0  1  0  0  0  0  0  0
  195.8130  174.6110  135.3670 C   0  0  0  0  0  2  0  0  0  0  0  0
  197.5730  175.8620  136.4920 N   0  0  0  0  0  1  0  0  0  0  0  0
  196.5930  175.9150  135.4190 C   0  0  0  0  0  2  0  0  0  0  0  0
  1  3  2  0  0  0  0
  2  5  1  0  0  0  0
  2  1  1  0  0  0  0
  3  4  1  0  0  0  0
  4 23  1  1  0  0  0
  5  6  2  0  0  0  0
  6 10  1  0  0  0  0
  6  4  1  0  0  0  0
  7 10  1  0  0  0  0
  9 11  1  0  0  0  0
  9  8  2  0  0  0  0
 10  9  1  0  0  0  0
 11 13  1  0  0  0  0
 12 15  1  0  0  0  0
 13 12  1  0  0  0  0
 14 13  2  0  0  0  0
 15 21  1  0  0  0  0
 16 19  1  0  0  0  0
 17 22  1  0  0  0  0
 19 22  2  0  0  0  0
 19 18  1  0  0  0  0
 20 17  2  0  0  0  0
 21 20  1  0  0  0  0
 21 16  2  0  0  0  0
 23 25  2  0  0  0  0
 24 23  1  0  0  0  0
 25 26  1  0  0  0  0
 26 27  2  0  0  0  0
 27 28  1  0  0  0  0
 28 31  1  0  0  0  0
 30 34  2  0  0  0  0
 31 32  2  0  0  0  0
 31 30  1  0  0  0  0
 32 33  1  0  0  0  0
 33 29  2  0  0  0  0
 34 29  1  0  0  0  0
 36 28  1  0  0  0  0
 36 35  1  0  0  0  0
 37 38  1  0  0  0  0
 37  1  1  0  0  0  0
 38 39  1  0  0  0  0
 39 41  1  0  0  0  0
 40 41  1  0  0  0  0
 41 42  1  0  0  0  0
 43 45  1  0  0  0  0
 43 39  1  0  0  0  0
 45 44  1  0  0  0  0
M  END
>  <MODEL>
1

>  <REMARK>
 VINA RESULT:      -7.9      0.000      0.000
  Name = 
  15 active torsions:
  status: ('A' for Active; 'I' for Inactive)
    1  A    between atoms: C_1  and  C_8
    2  A    between atoms: N_3  and  C_21
    3  A    between atoms: C_6  and  C_40
    4  A    between atoms: C_8  and  N_33
    5  A    between atoms: N_11  and  C_35
    6  A    between atoms: N_14  and  N_32
    7  A    between atoms: C_17  and  N_32
    8  A    between atoms: N_19  and  C_30
    9  A    between atoms: N_19  and  N_33
   10  A    between atoms: N_19  and  C_37
   11  A    between atoms: C_21  and  C_42
   12  A    between atoms: C_23  and  C_39
   13  A    between atoms: C_26  and  C_37
   14  A    between atoms: C_28  and  C_39
   15  A    between atoms: N_31  and  C_43
                            x       y       z     vdW  Elec       q    Type
                         _______ _______ _______ _____ _____    ______ ____

>  <TORSDO>
F 15

$$$$
=
 OpenBabel10232408253D

 45 47  0  0  1  0  0  0  0  0999 V2000
  187.4900  177.6560  137.1080 C   0  0  0  0  0  0  0  0  0  0  0  0
  188.4140  178.8510  137.2280 C   0  0  0  0  0  2  0  0  0  0  0  0
  187.8750  176.4630  137.5900 C   0  0  0  0  0  3  0  0  0  0  0  0
  189.2140  176.2870  138.2680 C   0  0  2  0  0  3  0  0  0  0  0  0
  189.2790  178.7550  138.4530 C   0  0  0  0  0  3  0  0  0  0  0  0
  189.6810  177.5680  138.9230 C   0  0  0  0  0  0  0  0  0  0  0  0
  191.9150  177.3140  139.9740 C   0  0  0  0  0  1  0  0  0  0  0  0
  190.6050  177.5870  142.4450 O   0  0  0  0  0  0  0  0  0  0  0  0
  189.8800  177.6050  141.4140 C   0  0  0  0  0  0  0  0  0  0  0  0
  190.4780  177.5100  140.1100 N   0  0  0  0  0  0  0  0  0  0  0  0
  188.3920  177.6950  141.5680 C   0  0  0  0  0  2  0  0  0  0  0  0
  187.2520  177.8000  143.8080 N   0  0  0  0  0  2  0  0  0  0  0  0
  187.9270  177.0250  142.8180 C   0  0  0  0  0  0  0  0  0  0  0  0
  188.1500  175.7990  143.0010 O   0  0  0  0  0  0  0  0  0  0  0  0
  186.7090  177.2110  145.0210 C   0  0  0  0  0  2  0  0  0  0  0  0
  188.9450  177.0420  146.1450 C   0  0  0  0  0  3  0  0  0  0  0  0
  187.9780  178.4320  148.3720 C   0  0  0  0  0  3  0  0  0  0  0  0
  191.1960  176.8100  147.2120 C   0  0  0  0  0  1  0  0  0  0  0  0
  189.7830  177.2850  147.2380 C   0  0  0  0  0  0  0  0  0  0  0  0
  187.1380  178.1850  147.2820 C   0  0  0  0  0  3  0  0  0  0  0  0
  187.6200  177.4900  146.1660 C   0  0  0  0  0  0  0  0  0  0  0  0
  189.3010  177.9810  148.3510 C   0  0  0  0  0  3  0  0  0  0  0  0
  190.2410  175.7170  137.3370 C   0  0  0  0  0  0  0  0  0  0  0  0
  190.3870  176.3710  135.6660 S   0  0  0  0  0  1  0  0  0  0  0  0
  191.0670  174.7830  137.8360 C   0  0  0  0  0  3  0  0  0  0  0  0
  192.0870  174.0750  137.1150 N   0  0  0  0  0  0  0  0  0  0  0  0
  193.3560  174.3040  137.2220 C   0  0  0  0  0  3  0  0  0  0  0  0
  194.3130  173.5440  136.4750 N   0  0  0  0  0  0  0  0  0  0  0  0
  198.4620  174.4340  136.7430 C   0  0  0  0  0  3  0  0  0  0  0  0
  196.2540  174.9660  135.8990 C   0  0  0  0  0  3  0  0  0  0  0  0
  195.7170  173.8500  136.5610 C   0  0  0  0  0  0  0  0  0  0  0  0
  196.5750  173.0290  137.3120 C   0  0  0  0  0  3  0  0  0  0  0  0
  197.9390  173.3190  137.4020 C   0  0  0  0  0  3  0  0  0  0  0  0
  197.6190  175.2570  135.9900 C   0  0  0  0  0  3  0  0  0  0  0  0
  193.6880  171.4160  136.4920 O   0  0  0  0  0  1  0  0  0  0  0  0
  193.8740  172.4770  135.6720 N   0  0  0  0  0  2  0  0  0  0  0  0
  186.1520  177.7600  136.4430 C   0  0  0  0  0  2  0  0  0  0  0  0
  185.2670  176.6770  136.8490 N   0  0  0  0  0  2  0  0  0  0  0  0
  184.0140  177.2530  137.1210 N   0  0  0  0  0  0  0  0  0  0  0  0
  182.8800  175.8610  135.4420 C   0  0  0  0  0  1  0  0  0  0  0  0
  182.9580  176.2530  136.9100 C   0  0  0  0  0  3  0  0  0  0  0  0
  183.1190  175.0040  137.7800 C   0  0  0  0  0  1  0  0  0  0  0  0
  184.0040  177.6500  138.5240 C   0  0  0  0  0  2  0  0  0  0  0  0
  184.5430  179.8730  139.3580 N   0  0  0  0  0  1  0  0  0  0  0  0
  183.5370  179.0900  138.6570 C   0  0  0  0  0  2  0  0  0  0  0  0
  1  2  1  0  0  0  0
  1  3  2  0  0  0  0
  2  5  1  0  0  0  0
  3  4  1  0  0  0  0
  4 23  1  6  0  0  0
  4  6  1  0  0  0  0
  5  6  2  0  0  0  0
  6 10  1  0  0  0  0
  7 10  1  0  0  0  0
  9 11  1  0  0  0  0
  9  8  2  0  0  0  0
 10  9  1  0  0  0  0
 11 13  1  0  0  0  0
 12 15  1  0  0  0  0
 13 14  2  0  0  0  0
 13 12  1  0  0  0  0
 15 21  1  0  0  0  0
 16 21  2  0  0  0  0
 16 19  1  0  0  0  0
 18 19  1  0  0  0  0
 19 22  2  0  0  0  0
 20 17  2  0  0  0  0
 21 20  1  0  0  0  0
 22 17  1  0  0  0  0
 23 25  2  0  0  0  0
 24 23  1  0  0  0  0
 26 27  2  0  0  0  0
 26 25  1  0  0  0  0
 28 31  1  0  0  0  0
 28 27  1  0  0  0  0
 29 33  1  0  0  0  0
 30 34  1  0  0  0  0
 30 31  2  0  0  0  0
 31 32  1  0  0  0  0
 32 33  2  0  0  0  0
 34 29  2  0  0  0  0
 36 28  1  0  0  0  0
 36 35  1  0  0  0  0
 37 38  1  0  0  0  0
 37  1  1  0  0  0  0
 38 39  1  0  0  0  0
 39 43  1  0  0  0  0
 40 41  1  0  0  0  0
 41 39  1  0  0  0  0
 41 42  1  0  0  0  0
 43 45  1  0  0  0  0
 45 44  1  0  0  0  0
M  END
>  <MODEL>
2

>  <REMARK>
 VINA RESULT:      -7.6      2.565      8.420
  Name = 
  15 active torsions:
  status: ('A' for Active; 'I' for Inactive)
    1  A    between atoms: C_1  and  C_8
    2  A    between atoms: N_3  and  C_21
    3  A    between atoms: C_6  and  C_40
    4  A    between atoms: C_8  and  N_33
    5  A    between atoms: N_11  and  C_35
    6  A    between atoms: N_14  and  N_32
    7  A    between atoms: C_17  and  N_32
    8  A    between atoms: N_19  and  C_30
    9  A    between atoms: N_19  and  N_33
   10  A    between atoms: N_19  and  C_37
   11  A    between atoms: C_21  and  C_42
   12  A    between atoms: C_23  and  C_39
   13  A    between atoms: C_26  and  C_37
   14  A    between atoms: C_28  and  C_39
   15  A    between atoms: N_31  and  C_43
                            x       y       z     vdW  Elec       q    Type
                         _______ _______ _______ _____ _____    ______ ____

>  <TORSDO>
F 15

$$$$
=
 OpenBabel10232408253D

 45 47  0  0  1  0  0  0  0  0999 V2000
  190.2230  176.4770  135.5900 C   0  0  0  0  0  0  0  0  0  0  0  0
  189.1630  177.4600  135.1360 C   0  0  0  0  0  2  0  0  0  0  0  0
  190.0800  175.8320  136.7590 C   0  0  0  0  0  3  0  0  0  0  0  0
  188.8680  176.0560  137.6330 C   0  0  2  0  0  3  0  0  0  0  0  0
  187.8020  177.0730  135.6440 C   0  0  0  0  0  3  0  0  0  0  0  0
  187.6560  176.4490  136.8190 C   0  0  0  0  0  0  0  0  0  0  0  0
  185.9050  174.7000  137.0120 C   0  0  0  0  0  1  0  0  0  0  0  0
  184.3380  176.6400  138.3070 O   0  0  0  0  0  0  0  0  0  0  0  0
  185.4710  177.0080  137.8970 C   0  0  0  0  0  0  0  0  0  0  0  0
  186.3490  176.0650  137.2580 N   0  0  0  0  0  0  0  0  0  0  0  0
  185.8750  178.4440  138.0540 C   0  0  0  0  0  2  0  0  0  0  0  0
  185.4750  178.6120  140.5320 N   0  0  0  0  0  2  0  0  0  0  0  0
  185.1900  179.0830  139.2160 C   0  0  0  0  0  0  0  0  0  0  0  0
  184.3570  180.0090  139.0290 O   0  0  0  0  0  0  0  0  0  0  0  0
  184.9020  179.2250  141.7190 C   0  0  0  0  0  2  0  0  0  0  0  0
  184.9030  178.8360  144.1960 C   0  0  0  0  0  3  0  0  0  0  0  0
  187.0970  177.1160  143.9680 C   0  0  0  0  0  3  0  0  0  0  0  0
  184.8560  178.5180  146.6770 C   0  0  0  0  0  1  0  0  0  0  0  0
  185.4500  178.2410  145.3380 C   0  0  0  0  0  0  0  0  0  0  0  0
  186.5550  177.7140  142.8260 C   0  0  0  0  0  3  0  0  0  0  0  0
  185.4560  178.5740  142.9380 C   0  0  0  0  0  0  0  0  0  0  0  0
  186.5460  177.3800  145.2250 C   0  0  0  0  0  3  0  0  0  0  0  0
  189.1490  177.0270  138.7400 C   0  0  0  0  0  0  0  0  0  0  0  0
  189.0780  178.7950  138.4090 S   0  0  0  0  0  1  0  0  0  0  0  0
  189.3670  176.5160  139.9620 C   0  0  0  0  0  3  0  0  0  0  0  0
  189.6960  177.2540  141.1480 N   0  0  0  0  0  0  0  0  0  0  0  0
  190.1260  176.7250  142.2480 C   0  0  0  0  0  3  0  0  0  0  0  0
  190.4440  177.5340  143.3860 N   0  0  0  0  0  0  0  0  0  0  0  0
  191.6790  175.7480  147.0420 C   0  0  0  0  0  3  0  0  0  0  0  0
  191.7840  175.8610  144.6240 C   0  0  0  0  0  3  0  0  0  0  0  0
  190.8650  176.9250  144.6210 C   0  0  0  0  0  0  0  0  0  0  0  0
  190.3590  177.3870  145.8470 C   0  0  0  0  0  3  0  0  0  0  0  0
  190.7630  176.8020  147.0500 C   0  0  0  0  0  3  0  0  0  0  0  0
  192.1890  175.2760  145.8270 C   0  0  0  0  0  3  0  0  0  0  0  0
  191.5300  179.4310  143.7660 O   0  0  0  0  0  1  0  0  0  0  0  0
  190.3670  178.9330  143.2830 N   0  0  0  0  0  2  0  0  0  0  0  0
  191.4510  176.2130  134.7730 C   0  0  0  0  0  2  0  0  0  0  0  0
  191.8820  174.8270  134.8890 N   0  0  0  0  0  2  0  0  0  0  0  0
  193.2790  174.8450  135.0440 N   0  0  0  0  0  0  0  0  0  0  0  0
  193.8500  175.5700  137.3220 C   0  0  0  0  0  1  0  0  0  0  0  0
  193.6660  175.9950  135.8720 C   0  0  0  0  0  3  0  0  0  0  0  0
  194.9210  176.7130  135.3710 C   0  0  0  0  0  1  0  0  0  0  0  0
  193.6630  173.6220  135.7400 C   0  0  0  0  0  2  0  0  0  0  0  0
  194.8230  171.5250  135.3090 N   0  0  0  0  0  1  0  0  0  0  0  0
  194.8190  172.9500  135.0170 C   0  0  0  0  0  2  0  0  0  0  0  0
  1  3  2  0  0  0  0
  2  1  1  0  0  0  0
  2  5  1  0  0  0  0
  3  4  1  0  0  0  0
  4 23  1  1  0  0  0
  5  6  2  0  0  0  0
  6 10  1  0  0  0  0
  6  4  1  0  0  0  0
  7 10  1  0  0  0  0
  9 11  1  0  0  0  0
  9  8  2  0  0  0  0
 10  9  1  0  0  0  0
 11 13  1  0  0  0  0
 12 15  1  0  0  0  0
 13 12  1  0  0  0  0
 14 13  2  0  0  0  0
 15 21  1  0  0  0  0
 16 19  1  0  0  0  0
 17 22  1  0  0  0  0
 19 18  1  0  0  0  0
 20 21  1  0  0  0  0
 20 17  2  0  0  0  0
 21 16  2  0  0  0  0
 22 19  2  0  0  0  0
 23 25  2  0  0  0  0
 24 23  1  0  0  0  0
 25 26  1  0  0  0  0
 26 27  2  0  0  0  0
 27 28  1  0  0  0  0
 28 31  1  0  0  0  0
 29 33  1  0  0  0  0
 30 34  1  0  0  0  0
 31 30  2  0  0  0  0
 31 32  1  0  0  0  0
 32 33  2  0  0  0  0
 34 29  2  0  0  0  0
 36 28  1  0  0  0  0
 36 35  1  0  0  0  0
 37 38  1  0  0  0  0
 37  1  1  0  0  0  0
 38 39  1  0  0  0  0
 39 43  1  0  0  0  0
 39 41  1  0  0  0  0
 41 40  1  0  0  0  0
 42 41  1  0  0  0  0
 45 44  1  0  0  0  0
 45 43  1  0  0  0  0
M  END
>  <MODEL>
3

>  <REMARK>
 VINA RESULT:      -7.4      1.406      1.999
  Name = 
  15 active torsions:
  status: ('A' for Active; 'I' for Inactive)
    1  A    between atoms: C_1  and  C_8
    2  A    between atoms: N_3  and  C_21
    3  A    between atoms: C_6  and  C_40
    4  A    between atoms: C_8  and  N_33
    5  A    between atoms: N_11  and  C_35
    6  A    between atoms: N_14  and  N_32
    7  A    between atoms: C_17  and  N_32
    8  A    between atoms: N_19  and  C_30
    9  A    between atoms: N_19  and  N_33
   10  A    between atoms: N_19  and  C_37
   11  A    between atoms: C_21  and  C_42
   12  A    between atoms: C_23  and  C_39
   13  A    between atoms: C_26  and  C_37
   14  A    between atoms: C_28  and  C_39
   15  A    between atoms: N_31  and  C_43
                            x       y       z     vdW  Elec       q    Type
                         _______ _______ _______ _____ _____    ______ ____

>  <TORSDO>
F 15

$$$$
=
 OpenBabel10232408253D

 45 47  0  0  1  0  0  0  0  0999 V2000
  188.8560  176.1800  137.0310 C   0  0  0  0  0  0  0  0  0  0  0  0
  189.2400  177.6380  137.1780 C   0  0  0  0  0  2  0  0  0  0  0  0
  189.6410  175.2260  137.5570 C   0  0  0  0  0  3  0  0  0  0  0  0
  190.9030  175.5770  138.3110 C   0  0  2  0  0  3  0  0  0  0  0  0
  190.0030  177.8790  138.4500 C   0  0  0  0  0  3  0  0  0  0  0  0
  190.8020  176.9370  138.9650 C   0  0  0  0  0  0  0  0  0  0  0  0
  192.8610  177.6750  140.1380 C   0  0  0  0  0  1  0  0  0  0  0  0
  191.4750  177.1930  142.5340 O   0  0  0  0  0  0  0  0  0  0  0  0
  190.8640  176.9320  141.4640 C   0  0  0  0  0  0  0  0  0  0  0  0
  191.4900  177.1880  140.1950 N   0  0  0  0  0  0  0  0  0  0  0  0
  189.4950  176.3250  141.5320 C   0  0  0  0  0  2  0  0  0  0  0  0
  187.8880  176.6500  143.4410 N   0  0  0  0  0  2  0  0  0  0  0  0
  188.5480  177.1900  142.2960 C   0  0  0  0  0  0  0  0  0  0  0  0
  188.3200  178.3690  141.9180 O   0  0  0  0  0  0  0  0  0  0  0  0
  187.0050  177.4460  144.2770 C   0  0  0  0  0  2  0  0  0  0  0  0
  188.9080  177.1790  145.8880 C   0  0  0  0  0  3  0  0  0  0  0  0
  187.3590  178.2400  147.9610 C   0  0  0  0  0  3  0  0  0  0  0  0
  190.8440  176.8560  147.4400 C   0  0  0  0  0  1  0  0  0  0  0  0
  189.4430  177.2930  147.1750 C   0  0  0  0  0  0  0  0  0  0  0  0
  186.8210  178.1220  146.6760 C   0  0  0  0  0  3  0  0  0  0  0  0
  187.5950  177.5910  145.6370 C   0  0  0  0  0  0  0  0  0  0  0  0
  188.6700  177.8240  148.2120 C   0  0  0  0  0  3  0  0  0  0  0  0
  192.1230  175.4490  137.4490 C   0  0  0  0  0  0  0  0  0  0  0  0
  191.9870  175.7070  135.6730 S   0  0  0  0  0  1  0  0  0  0  0  0
  193.2900  175.2200  138.0720 C   0  0  0  0  0  3  0  0  0  0  0  0
  194.5650  175.0190  137.4450 N   0  0  0  0  0  0  0  0  0  0  0  0
  195.2780  173.9450  137.5540 C   0  0  0  0  0  3  0  0  0  0  0  0
  196.5380  173.8190  136.8850 N   0  0  0  0  0  0  0  0  0  0  0  0
  198.9070  170.3280  137.4160 C   0  0  0  0  0  3  0  0  0  0  0  0
  198.7480  172.7240  137.0980 C   0  0  0  0  0  3  0  0  0  0  0  0
  197.3460  172.6400  137.0640 C   0  0  0  0  0  0  0  0  0  0  0  0
  196.7390  171.3810  137.2050 C   0  0  0  0  0  3  0  0  0  0  0  0
  197.5150  170.2320  137.3800 C   0  0  0  0  0  3  0  0  0  0  0  0
  199.5240  171.5750  137.2730 C   0  0  0  0  0  3  0  0  0  0  0  0
  197.6390  175.7420  136.7950 O   0  0  0  0  0  1  0  0  0  0  0  0
  196.9730  174.8450  136.0300 N   0  0  0  0  0  2  0  0  0  0  0  0
  187.6210  175.7620  136.2930 C   0  0  0  0  0  2  0  0  0  0  0  0
  186.4760  175.6490  137.1850 N   0  0  0  0  0  2  0  0  0  0  0  0
  185.4230  176.3670  136.5920 N   0  0  0  0  0  0  0  0  0  0  0  0
  183.0990  175.8700  135.9660 C   0  0  0  0  0  1  0  0  0  0  0  0
  184.1390  175.8440  137.0780 C   0  0  0  0  0  3  0  0  0  0  0  0
  184.2380  174.4380  137.6730 C   0  0  0  0  0  1  0  0  0  0  0  0
  185.5450  177.7580  137.0100 C   0  0  0  0  0  2  0  0  0  0  0  0
  185.8370  178.7590  139.2110 N   0  0  0  0  0  1  0  0  0  0  0  0
  184.9500  177.9430  138.3960 C   0  0  0  0  0  2  0  0  0  0  0  0
  1  2  1  0  0  0  0
  1  3  2  0  0  0  0
  2  5  1  0  0  0  0
  3  4  1  0  0  0  0
  4 23  1  6  0  0  0
  4  6  1  0  0  0  0
  5  6  2  0  0  0  0
  6 10  1  0  0  0  0
  7 10  1  0  0  0  0
  9 11  1  0  0  0  0
  9  8  2  0  0  0  0
 10  9  1  0  0  0  0
 11 13  1  0  0  0  0
 12 15  1  0  0  0  0
 13 12  1  0  0  0  0
 14 13  2  0  0  0  0
 15 21  1  0  0  0  0
 16 19  1  0  0  0  0
 17 22  1  0  0  0  0
 19 18  1  0  0  0  0
 19 22  2  0  0  0  0
 20 17  2  0  0  0  0
 21 16  2  0  0  0  0
 21 20  1  0  0  0  0
 23 25  2  0  0  0  0
 24 23  1  0  0  0  0
 26 27  2  0  0  0  0
 26 25  1  0  0  0  0
 28 31  1  0  0  0  0
 28 27  1  0  0  0  0
 30 34  1  0  0  0  0
 31 30  2  0  0  0  0
 31 32  1  0  0  0  0
 32 33  2  0  0  0  0
 33 29  1  0  0  0  0
 34 29  2  0  0  0  0
 36 35  1  0  0  0  0
 36 28  1  0  0  0  0
 37  1  1  0  0  0  0
 37 38  1  0  0  0  0
 39 43  1  0  0  0  0
 39 41  1  0  0  0  0
 39 38  1  0  0  0  0
 40 41  1  0  0  0  0
 41 42  1  0  0  0  0
 43 45  1  0  0  0  0
 45 44  1  0  0  0  0
M  END
>  <MODEL>
4

>  <REMARK>
 VINA RESULT:      -7.4      2.605      8.268
  Name = 
  15 active torsions:
  status: ('A' for Active; 'I' for Inactive)
    1  A    between atoms: C_1  and  C_8
    2  A    between atoms: N_3  and  C_21
    3  A    between atoms: C_6  and  C_40
    4  A    between atoms: C_8  and  N_33
    5  A    between atoms: N_11  and  C_35
    6  A    between atoms: N_14  and  N_32
    7  A    between atoms: C_17  and  N_32
    8  A    between atoms: N_19  and  C_30
    9  A    between atoms: N_19  and  N_33
   10  A    between atoms: N_19  and  C_37
   11  A    between atoms: C_21  and  C_42
   12  A    between atoms: C_23  and  C_39
   13  A    between atoms: C_26  and  C_37
   14  A    between atoms: C_28  and  C_39
   15  A    between atoms: N_31  and  C_43
                            x       y       z     vdW  Elec       q    Type
                         _______ _______ _______ _____ _____    ______ ____

>  <TORSDO>
F 15

$$$$
=
 OpenBabel10232408253D

 45 47  0  0  1  0  0  0  0  0999 V2000
  186.4230  177.6280  137.7360 C   0  0  0  0  0  0  0  0  0  0  0  0
  186.3440  176.1510  137.4090 C   0  0  0  0  0  2  0  0  0  0  0  0
  187.6110  178.2530  137.7220 C   0  0  0  0  0  3  0  0  0  0  0  0
  188.8810  177.5130  137.3710 C   0  0  2  0  0  3  0  0  0  0  0  0
  187.4200  175.7450  136.4410 C   0  0  0  0  0  3  0  0  0  0  0  0
  188.6120  176.3530  136.4390 C   0  0  0  0  0  0  0  0  0  0  0  0
  190.0230  176.9360  134.4820 C   0  0  0  0  0  1  0  0  0  0  0  0
  191.0490  174.3250  134.6470 O   0  0  0  0  0  0  0  0  0  0  0  0
  190.1520  174.6350  135.4770 C   0  0  0  0  0  0  0  0  0  0  0  0
  189.6030  175.9640  135.4820 N   0  0  0  0  0  0  0  0  0  0  0  0
  189.6460  173.5950  136.4310 C   0  0  0  0  0  2  0  0  0  0  0  0
  187.5210  172.2600  136.2600 N   0  0  0  0  0  2  0  0  0  0  0  0
  188.8110  172.5720  135.7360 C   0  0  0  0  0  0  0  0  0  0  0  0
  189.2520  171.9790  134.7160 O   0  0  0  0  0  0  0  0  0  0  0  0
  186.6200  171.3260  135.6050 C   0  0  0  0  0  2  0  0  0  0  0  0
  184.8800  172.8580  136.5640 C   0  0  0  0  0  3  0  0  0  0  0  0
  182.9110  170.8980  136.2320 C   0  0  0  0  0  3  0  0  0  0  0  0
  183.2080  174.4340  137.5530 C   0  0  0  0  0  1  0  0  0  0  0  0
  183.5630  173.1130  136.9610 C   0  0  0  0  0  0  0  0  0  0  0  0
  184.2280  170.6400  135.8390 C   0  0  0  0  0  3  0  0  0  0  0  0
  185.2150  171.6200  136.0040 C   0  0  0  0  0  0  0  0  0  0  0  0
  182.5780  172.1350  136.7940 C   0  0  0  0  0  3  0  0  0  0  0  0
  189.6420  177.0960  138.5930 C   0  0  0  0  0  0  0  0  0  0  0  0
  191.3230  176.4750  138.4240 S   0  0  0  0  0  1  0  0  0  0  0  0
  189.0440  177.2870  139.7800 C   0  0  0  0  0  3  0  0  0  0  0  0
  189.5680  176.9220  141.0660 N   0  0  0  0  0  0  0  0  0  0  0  0
  188.9750  177.1490  142.1940 C   0  0  0  0  0  3  0  0  0  0  0  0
  189.5610  176.7420  143.4360 N   0  0  0  0  0  0  0  0  0  0  0  0
  187.6420  177.6690  147.1140 C   0  0  0  0  0  3  0  0  0  0  0  0
  189.6420  177.0700  145.8870 C   0  0  0  0  0  3  0  0  0  0  0  0
  188.9160  177.0550  144.6850 C   0  0  0  0  0  0  0  0  0  0  0  0
  187.5430  177.3470  144.7180 C   0  0  0  0  0  3  0  0  0  0  0  0
  186.9090  177.6520  145.9260 C   0  0  0  0  0  3  0  0  0  0  0  0
  189.0090  177.3760  147.0950 C   0  0  0  0  0  3  0  0  0  0  0  0
  191.7700  176.9070  143.3190 O   0  0  0  0  0  1  0  0  0  0  0  0
  190.7610  176.0110  143.4280 N   0  0  0  0  0  2  0  0  0  0  0  0
  185.2030  178.4200  138.0980 C   0  0  0  0  0  2  0  0  0  0  0  0
  185.4080  179.1920  139.3150 N   0  0  0  0  0  2  0  0  0  0  0  0
  184.1520  179.3260  139.9300 N   0  0  0  0  0  0  0  0  0  0  0  0
  182.1110  178.1050  139.3100 C   0  0  0  0  0  1  0  0  0  0  0  0
  183.0930  179.1990  138.9190 C   0  0  0  0  0  3  0  0  0  0  0  0
  182.3450  180.5070  138.6510 C   0  0  0  0  0  1  0  0  0  0  0  0
  184.0090  178.2370  140.8890 C   0  0  0  0  0  2  0  0  0  0  0  0
  185.2450  179.3060  142.6950 N   0  0  0  0  0  1  0  0  0  0  0  0
  183.9420  178.7900  142.3040 C   0  0  0  0  0  2  0  0  0  0  0  0
  1 37  1  0  0  0  0
  2  1  1  0  0  0  0
  3  1  2  0  0  0  0
  4  3  1  0  0  0  0
  4 23  1  1  0  0  0
  5  2  1  0  0  0  0
  6  5  2  0  0  0  0
  6  4  1  0  0  0  0
  7 10  1  0  0  0  0
  8  9  2  0  0  0  0
  9 10  1  0  0  0  0
  9 11  1  0  0  0  0
 10  6  1  0  0  0  0
 13 12  1  0  0  0  0
 13 11  1  0  0  0  0
 14 13  2  0  0  0  0
 15 21  1  0  0  0  0
 15 12  1  0  0  0  0
 16 19  1  0  0  0  0
 17 22  1  0  0  0  0
 19 18  1  0  0  0  0
 20 21  1  0  0  0  0
 20 17  2  0  0  0  0
 21 16  2  0  0  0  0
 22 19  2  0  0  0  0
 23 25  2  0  0  0  0
 24 23  1  0  0  0  0
 25 26  1  0  0  0  0
 26 27  2  0  0  0  0
 27 28  1  0  0  0  0
 28 31  1  0  0  0  0
 30 34  2  0  0  0  0
 31 32  2  0  0  0  0
 31 30  1  0  0  0  0
 32 33  1  0  0  0  0
 33 29  2  0  0  0  0
 34 29  1  0  0  0  0
 35 36  1  0  0  0  0
 36 28  1  0  0  0  0
 37 38  1  0  0  0  0
 38 39  1  0  0  0  0
 39 43  1  0  0  0  0
 41 40  1  0  0  0  0
 41 39  1  0  0  0  0
 42 41  1  0  0  0  0
 43 45  1  0  0  0  0
 45 44  1  0  0  0  0
M  END
>  <MODEL>
5

>  <REMARK>
 VINA RESULT:      -7.3      3.368      7.799
  Name = 
  15 active torsions:
  status: ('A' for Active; 'I' for Inactive)
    1  A    between atoms: C_1  and  C_8
    2  A    between atoms: N_3  and  C_21
    3  A    between atoms: C_6  and  C_40
    4  A    between atoms: C_8  and  N_33
    5  A    between atoms: N_11  and  C_35
    6  A    between atoms: N_14  and  N_32
    7  A    between atoms: C_17  and  N_32
    8  A    between atoms: N_19  and  C_30
    9  A    between atoms: N_19  and  N_33
   10  A    between atoms: N_19  and  C_37
   11  A    between atoms: C_21  and  C_42
   12  A    between atoms: C_23  and  C_39
   13  A    between atoms: C_26  and  C_37
   14  A    between atoms: C_28  and  C_39
   15  A    between atoms: N_31  and  C_43
                            x       y       z     vdW  Elec       q    Type
                         _______ _______ _______ _____ _____    ______ ____

>  <TORSDO>
F 15

$$$$
=
 OpenBabel10232408253D

 45 47  0  0  1  0  0  0  0  0999 V2000
  188.7400  176.2610  137.2990 C   0  0  0  0  0  0  0  0  0  0  0  0
  189.0820  177.7290  137.4530 C   0  0  0  0  0  2  0  0  0  0  0  0
  189.6120  175.3260  137.7110 C   0  0  0  0  0  3  0  0  0  0  0  0
  190.9300  175.7080  138.3430 C   0  0  2  0  0  3  0  0  0  0  0  0
  189.9620  177.9660  138.6470 C   0  0  0  0  0  3  0  0  0  0  0  0
  190.8460  177.0440  139.0470 C   0  0  0  0  0  0  0  0  0  0  0  0
  192.9940  177.8110  140.0260 C   0  0  0  0  0  1  0  0  0  0  0  0
  191.8660  177.2470  142.5370 O   0  0  0  0  0  0  0  0  0  0  0  0
  191.1570  176.9920  141.5270 C   0  0  0  0  0  0  0  0  0  0  0  0
  191.6470  177.2880  140.2080 N   0  0  0  0  0  0  0  0  0  0  0  0
  189.8160  176.3500  141.7180 C   0  0  0  0  0  2  0  0  0  0  0  0
  187.7160  176.8890  142.9940 N   0  0  0  0  0  2  0  0  0  0  0  0
  188.7930  177.3370  142.1730 C   0  0  0  0  0  0  0  0  0  0  0  0
  188.8720  178.5420  141.8140 O   0  0  0  0  0  0  0  0  0  0  0  0
  186.7190  177.7980  143.5340 C   0  0  0  0  0  2  0  0  0  0  0  0
  188.1100  177.5300  145.6040 C   0  0  0  0  0  3  0  0  0  0  0  0
  186.0650  178.6190  147.1710 C   0  0  0  0  0  3  0  0  0  0  0  0
  189.5490  177.2070  147.6250 C   0  0  0  0  0  1  0  0  0  0  0  0
  188.2770  177.6510  146.9870 C   0  0  0  0  0  0  0  0  0  0  0  0
  185.8960  178.4940  145.7890 C   0  0  0  0  0  3  0  0  0  0  0  0
  186.9190  177.9500  145.0020 C   0  0  0  0  0  0  0  0  0  0  0  0
  187.2550  178.1960  147.7720 C   0  0  0  0  0  3  0  0  0  0  0  0
  192.0590  175.6540  137.3570 C   0  0  0  0  0  0  0  0  0  0  0  0
  191.7010  175.7040  135.5940 S   0  0  0  0  0  1  0  0  0  0  0  0
  193.3050  175.6510  137.8550 C   0  0  0  0  0  3  0  0  0  0  0  0
  194.5230  175.5580  137.1010 N   0  0  0  0  0  0  0  0  0  0  0  0
  195.4420  174.6680  137.2940 C   0  0  0  0  0  3  0  0  0  0  0  0
  196.6260  174.6370  136.4890 N   0  0  0  0  0  0  0  0  0  0  0  0
  199.7050  171.8130  137.2800 C   0  0  0  0  0  3  0  0  0  0  0  0
  197.5460  172.3460  136.3180 C   0  0  0  0  0  3  0  0  0  0  0  0
  197.6650  173.6760  136.7540 C   0  0  0  0  0  0  0  0  0  0  0  0
  198.8180  174.0570  137.4600 C   0  0  0  0  0  3  0  0  0  0  0  0
  199.8320  173.1310  137.7220 C   0  0  0  0  0  3  0  0  0  0  0  0
  198.5600  171.4190  136.5790 C   0  0  0  0  0  3  0  0  0  0  0  0
  197.2380  176.6940  135.9290 O   0  0  0  0  0  1  0  0  0  0  0  0
  196.7580  175.5360  135.4170 N   0  0  0  0  0  2  0  0  0  0  0  0
  187.4530  175.8130  136.6770 C   0  0  0  0  0  2  0  0  0  0  0  0
  186.3690  176.7420  136.9650 N   0  0  0  0  0  2  0  0  0  0  0  0
  185.2660  175.9710  137.3690 N   0  0  0  0  0  0  0  0  0  0  0  0
  184.0250  178.0270  137.8960 C   0  0  0  0  0  1  0  0  0  0  0  0
  184.0260  176.7180  137.1180 C   0  0  0  0  0  3  0  0  0  0  0  0
  183.7660  176.9880  135.6350 C   0  0  0  0  0  1  0  0  0  0  0  0
  185.2500  174.7600  136.5580 C   0  0  0  0  0  2  0  0  0  0  0  0
  185.4040  172.8230  138.0260 N   0  0  0  0  0  1  0  0  0  0  0  0
  184.4830  173.6600  137.2730 C   0  0  0  0  0  2  0  0  0  0  0  0
  1  2  1  0  0  0  0
  1  3  2  0  0  0  0
  2  5  1  0  0  0  0
  3  4  1  0  0  0  0
  4 23  1  6  0  0  0
  4  6  1  0  0  0  0
  5  6  2  0  0  0  0
  6 10  1  0  0  0  0
  7 10  1  0  0  0  0
  9 11  1  0  0  0  0
  9  8  2  0  0  0  0
 10  9  1  0  0  0  0
 11 13  1  0  0  0  0
 12 15  1  0  0  0  0
 13 12  1  0  0  0  0
 14 13  2  0  0  0  0
 15 21  1  0  0  0  0
 16 19  1  0  0  0  0
 17 22  1  0  0  0  0
 19 18  1  0  0  0  0
 19 22  2  0  0  0  0
 20 17  2  0  0  0  0
 21 16  2  0  0  0  0
 21 20  1  0  0  0  0
 23 25  2  0  0  0  0
 24 23  1  0  0  0  0
 26 27  2  0  0  0  0
 26 25  1  0  0  0  0
 28 31  1  0  0  0  0
 28 27  1  0  0  0  0
 29 33  1  0  0  0  0
 30 34  1  0  0  0  0
 30 31  2  0  0  0  0
 31 32  1  0  0  0  0
 32 33  2  0  0  0  0
 34 29  2  0  0  0  0
 36 35  1  0  0  0  0
 36 28  1  0  0  0  0
 37 38  1  0  0  0  0
 37  1  1  0  0  0  0
 38 39  1  0  0  0  0
 41 39  1  0  0  0  0
 41 40  1  0  0  0  0
 42 41  1  0  0  0  0
 43 45  1  0  0  0  0
 43 39  1  0  0  0  0
 45 44  1  0  0  0  0
M  END
>  <MODEL>
6

>  <REMARK>
 VINA RESULT:      -7.2      2.713      8.260
  Name = 
  15 active torsions:
  status: ('A' for Active; 'I' for Inactive)
    1  A    between atoms: C_1  and  C_8
    2  A    between atoms: N_3  and  C_21
    3  A    between atoms: C_6  and  C_40
    4  A    between atoms: C_8  and  N_33
    5  A    between atoms: N_11  and  C_35
    6  A    between atoms: N_14  and  N_32
    7  A    between atoms: C_17  and  N_32
    8  A    between atoms: N_19  and  C_30
    9  A    between atoms: N_19  and  N_33
   10  A    between atoms: N_19  and  C_37
   11  A    between atoms: C_21  and  C_42
   12  A    between atoms: C_23  and  C_39
   13  A    between atoms: C_26  and  C_37
   14  A    between atoms: C_28  and  C_39
   15  A    between atoms: N_31  and  C_43
                            x       y       z     vdW  Elec       q    Type
                         _______ _______ _______ _____ _____    ______ ____

>  <TORSDO>
F 15

$$$$
=
 OpenBabel10232408253D

 45 47  0  0  1  0  0  0  0  0999 V2000
  187.6580  177.2030  137.0510 C   0  0  0  0  0  0  0  0  0  0  0  0
  188.6160  178.3710  136.9370 C   0  0  0  0  0  2  0  0  0  0  0  0
  188.0910  176.0270  137.5310 C   0  0  0  0  0  3  0  0  0  0  0  0
  189.5230  175.8430  137.9780 C   0  0  2  0  0  3  0  0  0  0  0  0
  189.6790  178.3140  137.9990 C   0  0  0  0  0  3  0  0  0  0  0  0
  190.1270  177.1420  138.4640 C   0  0  0  0  0  0  0  0  0  0  0  0
  192.5060  176.8880  139.1270 C   0  0  0  0  0  1  0  0  0  0  0  0
  191.6460  177.3090  141.7690 O   0  0  0  0  0  0  0  0  0  0  0  0
  190.7550  177.2940  140.8790 C   0  0  0  0  0  0  0  0  0  0  0  0
  191.1170  177.1230  139.4980 N   0  0  0  0  0  0  0  0  0  0  0  0
  189.3170  177.4250  141.2810 C   0  0  0  0  0  2  0  0  0  0  0  0
  188.7220  177.8880  143.6810 N   0  0  0  0  0  2  0  0  0  0  0  0
  189.0900  176.9450  142.6760 C   0  0  0  0  0  0  0  0  0  0  0  0
  189.2470  175.7280  142.9610 O   0  0  0  0  0  0  0  0  0  0  0  0
  188.4190  177.4920  145.0470 C   0  0  0  0  0  2  0  0  0  0  0  0
  186.0850  178.1360  144.3900 C   0  0  0  0  0  3  0  0  0  0  0  0
  185.3890  178.5150  147.0720 C   0  0  0  0  0  3  0  0  0  0  0  0
  183.7860  178.7920  143.6540 C   0  0  0  0  0  1  0  0  0  0  0  0
  184.7940  178.5560  144.7260 C   0  0  0  0  0  0  0  0  0  0  0  0
  186.6810  178.1010  146.7370 C   0  0  0  0  0  3  0  0  0  0  0  0
  187.0320  177.9100  145.3950 C   0  0  0  0  0  0  0  0  0  0  0  0
  184.4440  178.7440  146.0670 C   0  0  0  0  0  3  0  0  0  0  0  0
  190.3590  175.1870  136.9210 C   0  0  0  0  0  0  0  0  0  0  0  0
  190.3640  175.8560  135.2500 S   0  0  0  0  0  1  0  0  0  0  0  0
  191.1350  174.1610  137.3050 C   0  0  0  0  0  3  0  0  0  0  0  0
  191.9750  173.3650  136.4570 N   0  0  0  0  0  0  0  0  0  0  0  0
  193.1980  173.0380  136.7290 C   0  0  0  0  0  3  0  0  0  0  0  0
  193.9680  172.2290  135.8320 N   0  0  0  0  0  0  0  0  0  0  0  0
  198.0380  171.3370  136.6760 C   0  0  0  0  0  3  0  0  0  0  0  0
  195.6820  171.0010  137.1270 C   0  0  0  0  0  3  0  0  0  0  0  0
  195.3450  171.9240  136.1230 C   0  0  0  0  0  0  0  0  0  0  0  0
  196.3750  172.5500  135.4040 C   0  0  0  0  0  3  0  0  0  0  0  0
  197.7140  172.2590  135.6790 C   0  0  0  0  0  3  0  0  0  0  0  0
  197.0210  170.7090  137.4020 C   0  0  0  0  0  3  0  0  0  0  0  0
  192.7930  170.5320  135.0190 O   0  0  0  0  0  1  0  0  0  0  0  0
  193.3620  171.7120  134.6750 N   0  0  0  0  0  2  0  0  0  0  0  0
  186.2270  177.3160  136.6210 C   0  0  0  0  0  2  0  0  0  0  0  0
  185.5070  178.3060  137.4100 N   0  0  0  0  0  2  0  0  0  0  0  0
  184.8440  177.6100  138.4350 N   0  0  0  0  0  0  0  0  0  0  0  0
  185.7430  178.7960  140.3910 C   0  0  0  0  0  1  0  0  0  0  0  0
  184.5170  178.5370  139.5270 C   0  0  0  0  0  3  0  0  0  0  0  0
  183.9230  179.8620  139.0440 C   0  0  0  0  0  1  0  0  0  0  0  0
  183.6000  177.0870  137.8810 C   0  0  0  0  0  2  0  0  0  0  0  0
  181.9950  176.5750  139.6390 N   0  0  0  0  0  1  0  0  0  0  0  0
  183.0340  176.0100  138.7930 C   0  0  0  0  0  2  0  0  0  0  0  0
  1  3  2  0  0  0  0
  2  1  1  0  0  0  0
  2  5  1  0  0  0  0
  3  4  1  0  0  0  0
  4 23  1  6  0  0  0
  4  6  1  0  0  0  0
  5  6  2  0  0  0  0
  6 10  1  0  0  0  0
  7 10  1  0  0  0  0
  9 11  1  0  0  0  0
  9  8  2  0  0  0  0
 10  9  1  0  0  0  0
 11 13  1  0  0  0  0
 12 15  1  0  0  0  0
 13 14  2  0  0  0  0
 13 12  1  0  0  0  0
 15 21  1  0  0  0  0
 16 19  2  0  0  0  0
 16 21  1  0  0  0  0
 18 19  1  0  0  0  0
 19 22  1  0  0  0  0
 20 17  1  0  0  0  0
 21 20  2  0  0  0  0
 22 17  2  0  0  0  0
 23 25  2  0  0  0  0
 24 23  1  0  0  0  0
 26 27  2  0  0  0  0
 26 25  1  0  0  0  0
 28 31  1  0  0  0  0
 28 27  1  0  0  0  0
 29 34  1  0  0  0  0
 30 34  2  0  0  0  0
 31 30  1  0  0  0  0
 32 33  1  0  0  0  0
 32 31  2  0  0  0  0
 33 29  2  0  0  0  0
 36 35  1  0  0  0  0
 36 28  1  0  0  0  0
 37  1  1  0  0  0  0
 37 38  1  0  0  0  0
 38 39  1  0  0  0  0
 39 41  1  0  0  0  0
 41 40  1  0  0  0  0
 42 41  1  0  0  0  0
 43 39  1  0  0  0  0
 43 45  1  0  0  0  0
 45 44  1  0  0  0  0
M  END
>  <MODEL>
7

>  <REMARK>
 VINA RESULT:      -7.1      2.726      8.544
  Name = 
  15 active torsions:
  status: ('A' for Active; 'I' for Inactive)
    1  A    between atoms: C_1  and  C_8
    2  A    between atoms: N_3  and  C_21
    3  A    between atoms: C_6  and  C_40
    4  A    between atoms: C_8  and  N_33
    5  A    between atoms: N_11  and  C_35
    6  A    between atoms: N_14  and  N_32
    7  A    between atoms: C_17  and  N_32
    8  A    between atoms: N_19  and  C_30
    9  A    between atoms: N_19  and  N_33
   10  A    between atoms: N_19  and  C_37
   11  A    between atoms: C_21  and  C_42
   12  A    between atoms: C_23  and  C_39
   13  A    between atoms: C_26  and  C_37
   14  A    between atoms: C_28  and  C_39
   15  A    between atoms: N_31  and  C_43
                            x       y       z     vdW  Elec       q    Type
                         _______ _______ _______ _____ _____    ______ ____

>  <TORSDO>
F 15

$$$$
=
 OpenBabel10232408253D

 45 47  0  0  1  0  0  0  0  0999 V2000
  186.1320  176.8270  136.3100 C   0  0  0  0  0  0  0  0  0  0  0  0
  186.7430  178.2120  136.2580 C   0  0  0  0  0  2  0  0  0  0  0  0
  186.7480  175.8490  136.9940 C   0  0  0  0  0  3  0  0  0  0  0  0
  188.0420  176.1060  137.7310 C   0  0  2  0  0  3  0  0  0  0  0  0
  187.5220  178.5150  137.5070 C   0  0  0  0  0  3  0  0  0  0  0  0
  188.1540  177.5460  138.1780 C   0  0  0  0  0  0  0  0  0  0  0  0
  190.3030  177.6660  139.4150 C   0  0  0  0  0  1  0  0  0  0  0  0
  188.8130  178.6410  141.5880 O   0  0  0  0  0  0  0  0  0  0  0  0
  188.1670  178.3340  140.5500 C   0  0  0  0  0  0  0  0  0  0  0  0
  188.8610  177.8640  139.3820 N   0  0  0  0  0  0  0  0  0  0  0  0
  186.6710  178.4350  140.5630 C   0  0  0  0  0  2  0  0  0  0  0  0
  186.2680  177.8200  142.9680 N   0  0  0  0  0  2  0  0  0  0  0  0
  186.1550  178.7810  141.9200 C   0  0  0  0  0  0  0  0  0  0  0  0
  185.6080  179.8960  142.1240 O   0  0  0  0  0  0  0  0  0  0  0  0
  185.8510  178.1030  144.3320 C   0  0  0  0  0  2  0  0  0  0  0  0
  188.2590  177.5520  144.7700 C   0  0  0  0  0  3  0  0  0  0  0  0
  187.8300  177.6790  147.5310 C   0  0  0  0  0  3  0  0  0  0  0  0
  190.6660  176.9730  145.1250 C   0  0  0  0  0  1  0  0  0  0  0  0
  189.3120  177.3010  145.6550 C   0  0  0  0  0  0  0  0  0  0  0  0
  186.7750  177.9250  146.6470 C   0  0  0  0  0  3  0  0  0  0  0  0
  186.9880  177.8630  145.2650 C   0  0  0  0  0  0  0  0  0  0  0  0
  189.0990  177.3650  147.0350 C   0  0  0  0  0  3  0  0  0  0  0  0
  189.2340  175.6610  136.9380 C   0  0  0  0  0  0  0  0  0  0  0  0
  189.7790  176.6410  135.5290 S   0  0  0  0  0  1  0  0  0  0  0  0
  189.8920  174.5770  137.3780 C   0  0  0  0  0  3  0  0  0  0  0  0
  191.0240  173.9550  136.7530 N   0  0  0  0  0  0  0  0  0  0  0  0
  192.2580  174.1890  137.0660 C   0  0  0  0  0  3  0  0  0  0  0  0
  193.3330  173.5170  136.4000 N   0  0  0  0  0  0  0  0  0  0  0  0
  197.3710  174.4370  137.3610 C   0  0  0  0  0  3  0  0  0  0  0  0
  195.4420  174.7240  135.9260 C   0  0  0  0  0  3  0  0  0  0  0  0
  194.7020  173.8320  136.7200 C   0  0  0  0  0  0  0  0  0  0  0  0
  195.3200  173.2460  137.8370 C   0  0  0  0  0  3  0  0  0  0  0  0
  196.6470  173.5470  138.1560 C   0  0  0  0  0  3  0  0  0  0  0  0
  196.7690  175.0250  136.2440 C   0  0  0  0  0  3  0  0  0  0  0  0
  193.9050  171.5040  135.6640 O   0  0  0  0  0  1  0  0  0  0  0  0
  193.0450  172.5270  135.4460 N   0  0  0  0  0  2  0  0  0  0  0  0
  184.8530  176.5040  135.5980 C   0  0  0  0  0  2  0  0  0  0  0  0
  183.7300  177.2450  136.1530 N   0  0  0  0  0  2  0  0  0  0  0  0
  183.1680  176.4430  137.1610 N   0  0  0  0  0  0  0  0  0  0  0  0
  182.6870  176.4690  139.5710 C   0  0  0  0  0  1  0  0  0  0  0  0
  182.7600  177.2890  138.2910 C   0  0  0  0  0  3  0  0  0  0  0  0
  183.6610  178.5080  138.4970 C   0  0  0  0  0  1  0  0  0  0  0  0
  181.9810  175.8030  136.6070 C   0  0  0  0  0  2  0  0  0  0  0  0
  180.9610  173.8120  137.5700 N   0  0  0  0  0  1  0  0  0  0  0  0
  182.0760  174.2940  136.7700 C   0  0  0  0  0  2  0  0  0  0  0  0
  1  3  2  0  0  0  0
  2  1  1  0  0  0  0
  2  5  1  0  0  0  0
  3  4  1  0  0  0  0
  4 23  1  6  0  0  0
  4  6  1  0  0  0  0
  5  6  2  0  0  0  0
  6 10  1  0  0  0  0
  9 11  1  0  0  0  0
  9  8  2  0  0  0  0
 10  7  1  0  0  0  0
 10  9  1  0  0  0  0
 11 13  1  0  0  0  0
 12 15  1  0  0  0  0
 13 14  2  0  0  0  0
 13 12  1  0  0  0  0
 15 21  1  0  0  0  0
 16 21  2  0  0  0  0
 16 19  1  0  0  0  0
 18 19  1  0  0  0  0
 19 22  2  0  0  0  0
 20 17  2  0  0  0  0
 21 20  1  0  0  0  0
 22 17  1  0  0  0  0
 23 25  2  0  0  0  0
 24 23  1  0  0  0  0
 26 27  2  0  0  0  0
 26 25  1  0  0  0  0
 28 31  1  0  0  0  0
 28 27  1  0  0  0  0
 29 33  1  0  0  0  0
 30 34  1  0  0  0  0
 30 31  2  0  0  0  0
 31 32  1  0  0  0  0
 32 33  2  0  0  0  0
 34 29  2  0  0  0  0
 36 35  1  0  0  0  0
 36 28  1  0  0  0  0
 37 38  1  0  0  0  0
 37  1  1  0  0  0  0
 38 39  1  0  0  0  0
 39 41  1  0  0  0  0
 41 42  1  0  0  0  0
 41 40  1  0  0  0  0
 43 45  1  0  0  0  0
 43 39  1  0  0  0  0
 45 44  1  0  0  0  0
M  END
>  <MODEL>
8

>  <REMARK>
 VINA RESULT:      -7.0      2.885      8.359
  Name = 
  15 active torsions:
  status: ('A' for Active; 'I' for Inactive)
    1  A    between atoms: C_1  and  C_8
    2  A    between atoms: N_3  and  C_21
    3  A    between atoms: C_6  and  C_40
    4  A    between atoms: C_8  and  N_33
    5  A    between atoms: N_11  and  C_35
    6  A    between atoms: N_14  and  N_32
    7  A    between atoms: C_17  and  N_32
    8  A    between atoms: N_19  and  C_30
    9  A    between atoms: N_19  and  N_33
   10  A    between atoms: N_19  and  C_37
   11  A    between atoms: C_21  and  C_42
   12  A    between atoms: C_23  and  C_39
   13  A    between atoms: C_26  and  C_37
   14  A    between atoms: C_28  and  C_39
   15  A    between atoms: N_31  and  C_43
                            x       y       z     vdW  Elec       q    Type
                         _______ _______ _______ _____ _____    ______ ____

>  <TORSDO>
F 15

$$$$
=
 OpenBabel10232408253D

 45 47  0  0  1  0  0  0  0  0999 V2000
  181.2880  175.6550  138.3060 C   0  0  0  0  0  0  0  0  0  0  0  0
  180.7360  176.6850  137.3430 C   0  0  0  0  0  2  0  0  0  0  0  0
  181.9800  176.0520  139.3850 C   0  0  0  0  0  3  0  0  0  0  0  0
  182.2110  177.5180  139.6720 C   0  0  2  0  0  3  0  0  0  0  0  0
  180.3990  177.9700  138.0470 C   0  0  0  0  0  3  0  0  0  0  0  0
  181.1010  178.3780  139.1100 C   0  0  0  0  0  0  0  0  0  0  0  0
  180.7260  180.8300  139.0130 C   0  0  0  0  0  1  0  0  0  0  0  0
  180.0590  180.6730  141.7390 O   0  0  0  0  0  0  0  0  0  0  0  0
  180.4130  179.6010  141.1800 C   0  0  0  0  0  0  0  0  0  0  0  0
  180.7340  179.5900  139.7780 N   0  0  0  0  0  0  0  0  0  0  0  0
  180.5270  178.3510  142.0000 C   0  0  0  0  0  2  0  0  0  0  0  0
  182.4460  178.8160  143.5570 N   0  0  0  0  0  2  0  0  0  0  0  0
  181.0430  178.6380  143.3700 C   0  0  0  0  0  0  0  0  0  0  0  0
  180.2500  178.6970  144.3470 O   0  0  0  0  0  0  0  0  0  0  0  0
  183.0210  179.1640  144.8460 C   0  0  0  0  0  2  0  0  0  0  0  0
  185.1540  178.4200  143.7570 C   0  0  0  0  0  3  0  0  0  0  0  0
  186.3050  177.9180  146.2570 C   0  0  0  0  0  3  0  0  0  0  0  0
  187.2380  177.6670  142.5960 C   0  0  0  0  0  1  0  0  0  0  0  0
  186.4590  177.9220  143.8410 C   0  0  0  0  0  0  0  0  0  0  0  0
  184.9990  178.4100  146.1740 C   0  0  0  0  0  3  0  0  0  0  0  0
  184.4210  178.6630  144.9240 C   0  0  0  0  0  0  0  0  0  0  0  0
  187.0350  177.6720  145.0900 C   0  0  0  0  0  3  0  0  0  0  0  0
  183.5660  177.9690  139.2180 C   0  0  0  0  0  0  0  0  0  0  0  0
  184.4810  179.1650  140.2050 S   0  0  0  0  0  1  0  0  0  0  0  0
  184.0670  177.3870  138.1170 C   0  0  0  0  0  3  0  0  0  0  0  0
  185.3180  177.6970  137.4840 N   0  0  0  0  0  0  0  0  0  0  0  0
  186.4610  177.1970  137.8280 C   0  0  0  0  0  3  0  0  0  0  0  0
  187.6650  177.5500  137.1370 N   0  0  0  0  0  0  0  0  0  0  0  0
  191.4190  176.0280  138.4270 C   0  0  0  0  0  3  0  0  0  0  0  0
  189.4910  175.8890  136.9680 C   0  0  0  0  0  3  0  0  0  0  0  0
  188.9350  177.0300  137.5710 C   0  0  0  0  0  0  0  0  0  0  0  0
  189.6400  177.6580  138.6100 C   0  0  0  0  0  3  0  0  0  0  0  0
  190.8740  177.1600  139.0370 C   0  0  0  0  0  3  0  0  0  0  0  0
  190.7260  175.3910  137.3930 C   0  0  0  0  0  3  0  0  0  0  0  0
  187.6230  177.5920  134.9200 O   0  0  0  0  0  1  0  0  0  0  0  0
  187.5950  178.3900  136.0130 N   0  0  0  0  0  2  0  0  0  0  0  0
  181.0990  174.1860  138.0790 C   0  0  0  0  0  2  0  0  0  0  0  0
  181.6460  173.7680  136.7960 N   0  0  0  0  0  2  0  0  0  0  0  0
  182.5920  172.7630  137.0620 N   0  0  0  0  0  0  0  0  0  0  0  0
  181.7210  171.8700  134.9450 C   0  0  0  0  0  1  0  0  0  0  0  0
  182.2220  171.5370  136.3430 C   0  0  0  0  0  3  0  0  0  0  0  0
  183.3540  170.5100  136.2660 C   0  0  0  0  0  1  0  0  0  0  0  0
  183.8810  173.2250  136.5600 C   0  0  0  0  0  2  0  0  0  0  0  0
  186.1810  173.6300  137.2510 N   0  0  0  0  0  1  0  0  0  0  0  0
  184.8060  173.5600  137.7200 C   0  0  0  0  0  2  0  0  0  0  0  0
  1  3  2  0  0  0  0
  2  5  1  0  0  0  0
  2  1  1  0  0  0  0
  3  4  1  0  0  0  0
  4 23  1  6  0  0  0
  5  6  2  0  0  0  0
  6  4  1  0  0  0  0
  6 10  1  0  0  0  0
  7 10  1  0  0  0  0
  9  8  2  0  0  0  0
  9 11  1  0  0  0  0
 10  9  1  0  0  0  0
 11 13  1  0  0  0  0
 12 15  1  0  0  0  0
 13 12  1  0  0  0  0
 13 14  2  0  0  0  0
 15 21  1  0  0  0  0
 16 19  2  0  0  0  0
 16 21  1  0  0  0  0
 18 19  1  0  0  0  0
 19 22  1  0  0  0  0
 20 17  1  0  0  0  0
 21 20  2  0  0  0  0
 22 17  2  0  0  0  0
 23 24  1  0  0  0  0
 25 23  2  0  0  0  0
 26 27  2  0  0  0  0
 26 25  1  0  0  0  0
 28 31  1  0  0  0  0
 28 27  1  0  0  0  0
 29 33  1  0  0  0  0
 30 34  1  0  0  0  0
 30 31  2  0  0  0  0
 31 32  1  0  0  0  0
 32 33  2  0  0  0  0
 34 29  2  0  0  0  0
 35 36  1  0  0  0  0
 36 28  1  0  0  0  0
 37  1  1  0  0  0  0
 38 39  1  0  0  0  0
 38 37  1  0  0  0  0
 40 41  1  0  0  0  0
 41 39  1  0  0  0  0
 42 41  1  0  0  0  0
 43 39  1  0  0  0  0
 43 45  1  0  0  0  0
 44 45  1  0  0  0  0
M  END
>  <MODEL>
9

>  <REMARK>
 VINA RESULT:      -7.0      4.225      8.655
  Name = 
  15 active torsions:
  status: ('A' for Active; 'I' for Inactive)
    1  A    between atoms: C_1  and  C_8
    2  A    between atoms: N_3  and  C_21
    3  A    between atoms: C_6  and  C_40
    4  A    between atoms: C_8  and  N_33
    5  A    between atoms: N_11  and  C_35
    6  A    between atoms: N_14  and  N_32
    7  A    between atoms: C_17  and  N_32
    8  A    between atoms: N_19  and  C_30
    9  A    between atoms: N_19  and  N_33
   10  A    between atoms: N_19  and  C_37
   11  A    between atoms: C_21  and  C_42
   12  A    between atoms: C_23  and  C_39
   13  A    between atoms: C_26  and  C_37
   14  A    between atoms: C_28  and  C_39
   15  A    between atoms: N_31  and  C_43
                            x       y       z     vdW  Elec       q    Type
                         _______ _______ _______ _____ _____    ______ ____

>  <TORSDO>
F 15

$$$$
