=
 OpenBabel10232409093D

 44 47  0  0  1  0  0  0  0  0999 V2000
  191.6290  175.9160  136.2500 C   0  0  0  0  0  3  0  0  0  0  0  0
  189.7480  177.1740  139.7760 N   0  0  0  0  0  0  0  0  0  0  0  0
  192.9390  175.4330  136.2920 C   0  0  0  0  0  3  0  0  0  0  0  0
  193.1050  176.0640  138.6240 C   0  0  0  0  0  3  0  0  0  0  0  0
  191.2100  177.2000  139.8120 C   0  0  0  0  0  2  0  0  0  0  0  0
  191.7880  176.5350  138.5940 C   0  0  0  0  0  0  0  0  0  0  0  0
  189.3130  177.8460  138.5550 C   0  0  0  0  0  2  0  0  0  0  0  0
  191.0480  176.4760  137.3930 C   0  0  0  0  0  0  0  0  0  0  0  0
  193.6830  175.5040  137.4740 C   0  0  0  0  0  0  0  0  0  0  0  0
  189.6220  176.9620  137.3420 C   0  0  1  0  0  3  0  0  0  0  0  0
  188.6680  175.7740  137.3100 C   0  0  0  0  0  2  0  0  0  0  0  0
  187.7480  175.8710  136.1100 C   0  0  0  0  0  2  0  0  0  0  0  0
  186.3630  175.9260  136.5620 N   0  0  0  0  0  2  0  0  0  0  0  0
  185.8490  177.2930  136.4540 C   0  0  2  0  0  3  0  0  0  0  0  0
  186.6650  178.0590  135.6180 O   0  0  0  0  0  1  0  0  0  0  0  0
  185.7030  177.9710  137.8220 C   0  0  0  0  0  2  0  0  0  0  0  0
  183.3250  177.9440  137.3930 O   0  0  0  0  0  1  0  0  0  0  0  0
  184.2900  177.9040  138.4020 C   0  0  2  0  0  3  0  0  0  0  0  0
  182.7050  178.7660  140.6320 O   0  0  0  0  0  1  0  0  0  0  0  0
  183.6200  180.4960  138.8980 O   0  0  0  0  0  0  0  0  0  0  0  0
  183.9820  179.2200  139.6210 P   0  0  0  0  0  0  0  0  0  0  0  0
  185.3730  179.4780  140.5520 O   0  0  0  0  0  1  0  0  0  0  0  0
  189.2640  177.9640  140.8920 C   0  0  0  0  0  2  0  0  0  0  0  0
  189.5960  177.2570  142.1930 C   0  0  0  0  0  2  0  0  0  0  0  0
  187.1860  177.6330  142.7550 C   0  0  0  0  0  3  0  0  0  0  0  0
  187.1320  178.0440  147.7780 N   0  0  0  0  0  0  0  0  0  0  0  0
  188.8000  177.4560  144.5520 C   0  0  0  0  0  3  0  0  0  0  0  0
  186.4550  177.8300  145.0550 C   0  0  0  0  0  0  0  0  0  0  0  0
  185.3490  177.9540  146.0600 C   0  0  0  0  0  2  0  0  0  0  0  0
  187.7790  177.6420  145.4930 C   0  0  0  0  0  0  0  0  0  0  0  0
  186.1610  177.8120  143.6890 C   0  0  0  0  0  3  0  0  0  0  0  0
  188.0500  177.6460  146.9450 C   0  0  0  0  0  0  0  0  0  0  0  0
  185.8550  178.6200  147.3450 C   0  0  2  0  0  3  0  0  0  0  0  0
  188.5070  177.4610  143.1850 C   0  0  0  0  0  0  0  0  0  0  0  0
  186.0070  179.9900  147.1320 O   0  0  0  0  0  1  0  0  0  0  0  0
  189.3380  177.1270  147.4860 C   0  0  0  0  0  1  0  0  0  0  0  0
  195.0230  175.0090  137.4830 N   0  0  0  0  0  2  0  0  0  0  0  0
  195.5460  174.1570  138.5390 C   0  0  0  0  0  2  0  0  0  0  0  0
  197.0020  173.8460  138.2580 C   0  0  0  0  0  2  0  0  0  0  0  0
  197.8530  175.0490  138.6040 C   0  0  0  0  0  2  0  0  0  0  0  0
  198.2660  175.4620  142.4270 C   0  0  0  0  0  1  0  0  0  0  0  0
  196.8580  176.5160  140.8290 O   0  0  0  0  0  0  0  0  0  0  0  0
  197.7680  175.6720  141.0440 C   0  0  0  0  0  0  0  0  0  0  0  0
  198.3350  174.9230  139.9690 N   0  0  0  0  0  2  0  0  0  0  0  0
  1  3  2  0  0  0  0
  1  8  1  0  0  0  0
  2  5  1  0  0  0  0
  2 23  1  0  0  0  0
  3  9  1  0  0  0  0
  6  4  1  0  0  0  0
  6  5  1  0  0  0  0
  7  2  1  0  0  0  0
  8  6  2  0  0  0  0
  9 37  1  0  0  0  0
  9  4  2  0  0  0  0
 10 11  1  1  0  0  0
 10  8  1  0  0  0  0
 10  7  1  0  0  0  0
 12 13  1  0  0  0  0
 12 11  1  0  0  0  0
 14 15  1  6  0  0  0
 14 13  1  0  0  0  0
 14 16  1  0  0  0  0
 16 18  1  0  0  0  0
 18 17  1  6  0  0  0
 18 21  1  0  0  0  0
 20 21  2  0  0  0  0
 21 22  1  0  0  0  0
 21 19  1  0  0  0  0
 23 24  1  0  0  0  0
 24 34  1  0  0  0  0
 25 34  2  0  0  0  0
 25 31  1  0  0  0  0
 27 30  2  0  0  0  0
 28 30  1  0  0  0  0
 28 29  1  0  0  0  0
 29 33  1  0  0  0  0
 30 32  1  0  0  0  0
 31 28  2  0  0  0  0
 32 36  1  0  0  0  0
 32 26  2  0  0  0  0
 33 35  1  6  0  0  0
 33 26  1  0  0  0  0
 34 27  1  0  0  0  0
 37 38  1  0  0  0  0
 39 38  1  0  0  0  0
 39 40  1  0  0  0  0
 40 44  1  0  0  0  0
 42 43  2  0  0  0  0
 43 41  1  0  0  0  0
 44 43  1  0  0  0  0
M  END
>  <MODEL>
1

>  <REMARK>
 VINA RESULT:      -8.2      0.000      0.000
  Name = 
  15 active torsions:
  status: ('A' for Active; 'I' for Inactive)
    1  A    between atoms: C_5  and  C_29
    2  A    between atoms: C_5  and  C_36
    3  A    between atoms: C_6  and  C_24
    4  A    between atoms: C_6  and  C_37
    5  A    between atoms: N_7  and  C_36
    6  A    between atoms: N_19  and  C_23
    7  A    between atoms: N_19  and  C_24
    8  A    between atoms: C_21  and  C_28
    9  A    between atoms: C_21  and  N_41
   10  A    between atoms: C_23  and  C_43
   11  A    between atoms: C_28  and  C_33
   12  A    between atoms: C_32  and  N_41
   13  A    between atoms: C_33  and  N_42
   14  A    between atoms: P_35  and  C_44
   15  A    between atoms: C_43  and  C_44
                            x       y       z     vdW  Elec       q    Type
                         _______ _______ _______ _____ _____    ______ ____

>  <TORSDO>
F 15

$$$$
=
 OpenBabel10232409093D

 44 47  0  0  1  0  0  0  0  0999 V2000
  190.1370  176.7340  136.0070 C   0  0  0  0  0  3  0  0  0  0  0  0
  189.3360  177.3260  140.0760 N   0  0  0  0  0  0  0  0  0  0  0  0
  191.2320  175.9600  135.6160 C   0  0  0  0  0  3  0  0  0  0  0  0
  191.9680  175.8260  137.9190 C   0  0  0  0  0  3  0  0  0  0  0  0
  190.7240  176.9870  139.7620 C   0  0  0  0  0  2  0  0  0  0  0  0
  190.8650  176.5870  138.3200 C   0  0  0  0  0  0  0  0  0  0  0  0
  188.9210  178.4080  139.1880 C   0  0  0  0  0  2  0  0  0  0  0  0
  189.9500  177.0600  137.3540 C   0  0  0  0  0  0  0  0  0  0  0  0
  192.1510  175.5030  136.5660 C   0  0  0  0  0  0  0  0  0  0  0  0
  188.7450  177.8680  137.7650 C   0  0  1  0  0  3  0  0  0  0  0  0
  187.4900  177.0070  137.6890 C   0  0  0  0  0  2  0  0  0  0  0  0
  186.3200  177.8270  137.1870 C   0  0  0  0  0  2  0  0  0  0  0  0
  185.1630  177.6020  138.0450 N   0  0  0  0  0  2  0  0  0  0  0  0
  184.7610  178.8530  138.6920 C   0  0  2  0  0  3  0  0  0  0  0  0
  185.5120  179.0700  139.8500 O   0  0  0  0  0  1  0  0  0  0  0  0
  183.2620  178.8850  139.0160 C   0  0  0  0  0  2  0  0  0  0  0  0
  182.9720  176.8180  140.2340 O   0  0  0  0  0  1  0  0  0  0  0  0
  182.8980  178.2080  140.3390 C   0  0  2  0  0  3  0  0  0  0  0  0
  180.7080  180.0380  140.0470 O   0  0  0  0  0  0  0  0  0  0  0  0
  181.3530  179.0930  142.3980 O   0  0  0  0  0  1  0  0  0  0  0  0
  181.2550  178.7100  140.9400 P   0  0  0  0  0  0  0  0  0  0  0  0
  180.1640  177.4270  140.7690 O   0  0  0  0  0  1  0  0  0  0  0  0
  189.3040  177.8490  141.4280 C   0  0  0  0  0  2  0  0  0  0  0  0
  187.8720  177.8620  141.9310 C   0  0  0  0  0  2  0  0  0  0  0  0
  186.6260  177.7820  144.1000 C   0  0  0  0  0  3  0  0  0  0  0  0
  190.2210  177.1310  147.5730 N   0  0  0  0  0  0  0  0  0  0  0  0
  189.0270  177.4580  144.1080 C   0  0  0  0  0  3  0  0  0  0  0  0
  187.7830  177.3960  146.1920 C   0  0  0  0  0  0  0  0  0  0  0  0
  187.7450  177.1570  147.6720 C   0  0  0  0  0  2  0  0  0  0  0  0
  189.0050  177.3040  145.5010 C   0  0  0  0  0  0  0  0  0  0  0  0
  186.5970  177.6220  145.4890 C   0  0  0  0  0  3  0  0  0  0  0  0
  190.2370  177.0430  146.2740 C   0  0  0  0  0  0  0  0  0  0  0  0
  189.0570  177.6050  148.3290 C   0  0  2  0  0  3  0  0  0  0  0  0
  187.8410  177.7060  143.4100 C   0  0  0  0  0  0  0  0  0  0  0  0
  189.0870  178.9970  148.4100 O   0  0  0  0  0  1  0  0  0  0  0  0
  191.4890  176.6040  145.5960 C   0  0  0  0  0  1  0  0  0  0  0  0
  193.2650  174.7200  136.1340 N   0  0  0  0  0  2  0  0  0  0  0  0
  193.4690  173.3380  136.5420 C   0  0  0  0  0  2  0  0  0  0  0  0
  194.9180  173.1390  136.9320 C   0  0  0  0  0  2  0  0  0  0  0  0
  195.0270  173.0330  138.4390 C   0  0  0  0  0  2  0  0  0  0  0  0
  197.8390  175.1230  140.0750 C   0  0  0  0  0  1  0  0  0  0  0  0
  195.4890  175.4280  139.9020 O   0  0  0  0  0  0  0  0  0  0  0  0
  196.4860  174.7110  139.6220 C   0  0  0  0  0  0  0  0  0  0  0  0
  196.3310  173.5110  138.8630 N   0  0  0  0  0  2  0  0  0  0  0  0
  1  8  1  0  0  0  0
  2 23  1  0  0  0  0
  3  1  2  0  0  0  0
  3  9  1  0  0  0  0
  4  6  1  0  0  0  0
  5  2  1  0  0  0  0
  6  5  1  0  0  0  0
  7  2  1  0  0  0  0
  8 10  1  0  0  0  0
  8  6  2  0  0  0  0
  9  4  2  0  0  0  0
 10 11  1  1  0  0  0
 10  7  1  0  0  0  0
 12 11  1  0  0  0  0
 12 13  1  0  0  0  0
 13 14  1  0  0  0  0
 14 16  1  0  0  0  0
 14 15  1  1  0  0  0
 16 18  1  0  0  0  0
 18 17  1  6  0  0  0
 18 21  1  0  0  0  0
 19 21  2  0  0  0  0
 21 20  1  0  0  0  0
 22 21  1  0  0  0  0
 23 24  1  0  0  0  0
 24 34  1  0  0  0  0
 25 31  1  0  0  0  0
 26 33  1  0  0  0  0
 27 30  2  0  0  0  0
 28 29  1  0  0  0  0
 29 33  1  0  0  0  0
 30 28  1  0  0  0  0
 30 32  1  0  0  0  0
 31 28  2  0  0  0  0
 32 26  2  0  0  0  0
 33 35  1  6  0  0  0
 34 25  2  0  0  0  0
 34 27  1  0  0  0  0
 36 32  1  0  0  0  0
 37 38  1  0  0  0  0
 37  9  1  0  0  0  0
 38 39  1  0  0  0  0
 39 40  1  0  0  0  0
 40 44  1  0  0  0  0
 43 42  2  0  0  0  0
 43 41  1  0  0  0  0
 44 43  1  0  0  0  0
M  END
>  <MODEL>
2

>  <REMARK>
 VINA RESULT:      -8.1      1.794      2.519
  Name = 
  15 active torsions:
  status: ('A' for Active; 'I' for Inactive)
    1  A    between atoms: C_5  and  C_29
    2  A    between atoms: C_5  and  C_36
    3  A    between atoms: C_6  and  C_24
    4  A    between atoms: C_6  and  C_37
    5  A    between atoms: N_7  and  C_36
    6  A    between atoms: N_19  and  C_23
    7  A    between atoms: N_19  and  C_24
    8  A    between atoms: C_21  and  C_28
    9  A    between atoms: C_21  and  N_41
   10  A    between atoms: C_23  and  C_43
   11  A    between atoms: C_28  and  C_33
   12  A    between atoms: C_32  and  N_41
   13  A    between atoms: C_33  and  N_42
   14  A    between atoms: P_35  and  C_44
   15  A    between atoms: C_43  and  C_44
                            x       y       z     vdW  Elec       q    Type
                         _______ _______ _______ _____ _____    ______ ____

>  <TORSDO>
F 15

$$$$
=
 OpenBabel10232409093D

 44 47  0  0  1  0  0  0  0  0999 V2000
  190.4980  176.5790  135.9500 C   0  0  0  0  0  3  0  0  0  0  0  0
  189.4030  176.8490  139.9850 N   0  0  0  0  0  0  0  0  0  0  0  0
  191.7240  176.0120  135.5960 C   0  0  0  0  0  3  0  0  0  0  0  0
  192.3530  175.8970  137.9320 C   0  0  0  0  0  3  0  0  0  0  0  0
  190.8420  176.7560  139.7400 C   0  0  0  0  0  2  0  0  0  0  0  0
  191.1210  176.4490  138.2950 C   0  0  0  0  0  0  0  0  0  0  0  0
  188.8610  177.8880  139.1140 C   0  0  0  0  0  2  0  0  0  0  0  0
  190.1910  176.8090  137.2960 C   0  0  0  0  0  0  0  0  0  0  0  0
  192.6560  175.6690  136.5810 C   0  0  0  0  0  0  0  0  0  0  0  0
  188.8490  177.3910  137.6650 C   0  0  1  0  0  3  0  0  0  0  0  0
  187.7600  176.3410  137.4860 C   0  0  0  0  0  2  0  0  0  0  0  0
  186.4610  176.9980  137.0660 C   0  0  0  0  0  2  0  0  0  0  0  0
  185.3680  176.0410  137.1940 N   0  0  0  0  0  2  0  0  0  0  0  0
  184.1040  176.6600  136.7910 C   0  0  2  0  0  3  0  0  0  0  0  0
  184.1990  177.1690  135.4930 O   0  0  0  0  0  1  0  0  0  0  0  0
  183.6580  177.7610  137.7610 C   0  0  0  0  0  2  0  0  0  0  0  0
  182.0990  176.7040  139.2760 O   0  0  0  0  0  1  0  0  0  0  0  0
  183.3750  177.2630  139.1790 C   0  0  2  0  0  3  0  0  0  0  0  0
  184.3100  177.9240  141.8090 O   0  0  0  0  0  1  0  0  0  0  0  0
  182.2350  179.1410  140.7860 O   0  0  0  0  0  1  0  0  0  0  0  0
  183.5880  178.5730  140.4250 P   0  0  0  0  0  0  0  0  0  0  0  0
  184.5660  179.8050  139.8020 O   0  0  0  0  0  0  0  0  0  0  0  0
  189.2160  177.2990  141.3510 C   0  0  0  0  0  2  0  0  0  0  0  0
  189.7880  176.2680  142.3060 C   0  0  0  0  0  2  0  0  0  0  0  0
  190.7630  176.7750  144.5540 C   0  0  0  0  0  3  0  0  0  0  0  0
  186.8060  178.2080  147.3280 N   0  0  0  0  0  0  0  0  0  0  0  0
  188.3970  177.1410  144.1870 C   0  0  0  0  0  3  0  0  0  0  0  0
  189.3790  177.6120  146.3560 C   0  0  0  0  0  0  0  0  0  0  0  0
  189.2470  178.1540  147.7490 C   0  0  0  0  0  2  0  0  0  0  0  0
  188.2560  177.5820  145.5090 C   0  0  0  0  0  0  0  0  0  0  0  0
  190.6300  177.2210  145.8730 C   0  0  0  0  0  3  0  0  0  0  0  0
  186.9520  178.0230  146.0470 C   0  0  0  0  0  0  0  0  0  0  0  0
  187.8460  177.8800  148.3080 C   0  0  2  0  0  3  0  0  0  0  0  0
  189.6460  176.7290  143.7120 C   0  0  0  0  0  0  0  0  0  0  0  0
  187.7410  176.5360  148.6680 O   0  0  0  0  0  1  0  0  0  0  0  0
  185.8140  178.3360  145.1390 C   0  0  0  0  0  1  0  0  0  0  0  0
  193.9050  175.0980  136.1860 N   0  0  0  0  0  2  0  0  0  0  0  0
  194.1440  173.6640  136.1470 C   0  0  0  0  0  2  0  0  0  0  0  0
  195.4020  173.3430  136.9270 C   0  0  0  0  0  2  0  0  0  0  0  0
  195.0920  173.3370  138.4090 C   0  0  0  0  0  2  0  0  0  0  0  0
  197.5510  175.2700  140.6830 C   0  0  0  0  0  1  0  0  0  0  0  0
  195.3630  175.7500  139.8900 O   0  0  0  0  0  0  0  0  0  0  0  0
  196.3320  174.9460  139.8980 C   0  0  0  0  0  0  0  0  0  0  0  0
  196.2770  173.7300  139.1520 N   0  0  0  0  0  2  0  0  0  0  0  0
  1  8  1  0  0  0  0
  2 23  1  0  0  0  0
  3  1  2  0  0  0  0
  3  9  1  0  0  0  0
  4  6  1  0  0  0  0
  5  2  1  0  0  0  0
  6  5  1  0  0  0  0
  7  2  1  0  0  0  0
  8 10  1  0  0  0  0
  8  6  2  0  0  0  0
  9  4  2  0  0  0  0
 10 11  1  1  0  0  0
 10  7  1  0  0  0  0
 12 13  1  0  0  0  0
 12 11  1  0  0  0  0
 14 15  1  6  0  0  0
 14 13  1  0  0  0  0
 14 16  1  0  0  0  0
 16 18  1  0  0  0  0
 18 17  1  6  0  0  0
 18 21  1  0  0  0  0
 21 20  1  0  0  0  0
 21 19  1  0  0  0  0
 22 21  2  0  0  0  0
 23 24  1  0  0  0  0
 24 34  1  0  0  0  0
 25 31  1  0  0  0  0
 26 33  1  0  0  0  0
 27 30  2  0  0  0  0
 28 29  1  0  0  0  0
 29 33  1  0  0  0  0
 30 32  1  0  0  0  0
 30 28  1  0  0  0  0
 31 28  2  0  0  0  0
 32 26  2  0  0  0  0
 33 35  1  6  0  0  0
 34 27  1  0  0  0  0
 34 25  2  0  0  0  0
 36 32  1  0  0  0  0
 37  9  1  0  0  0  0
 38 37  1  0  0  0  0
 38 39  1  0  0  0  0
 39 40  1  0  0  0  0
 40 44  1  0  0  0  0
 42 43  2  0  0  0  0
 43 41  1  0  0  0  0
 44 43  1  0  0  0  0
M  END
>  <MODEL>
3

>  <REMARK>
 VINA RESULT:      -8.1      1.484      2.223
  Name = 
  15 active torsions:
  status: ('A' for Active; 'I' for Inactive)
    1  A    between atoms: C_5  and  C_29
    2  A    between atoms: C_5  and  C_36
    3  A    between atoms: C_6  and  C_24
    4  A    between atoms: C_6  and  C_37
    5  A    between atoms: N_7  and  C_36
    6  A    between atoms: N_19  and  C_23
    7  A    between atoms: N_19  and  C_24
    8  A    between atoms: C_21  and  C_28
    9  A    between atoms: C_21  and  N_41
   10  A    between atoms: C_23  and  C_43
   11  A    between atoms: C_28  and  C_33
   12  A    between atoms: C_32  and  N_41
   13  A    between atoms: C_33  and  N_42
   14  A    between atoms: P_35  and  C_44
   15  A    between atoms: C_43  and  C_44
                            x       y       z     vdW  Elec       q    Type
                         _______ _______ _______ _____ _____    ______ ____

>  <TORSDO>
F 15

$$$$
=
 OpenBabel10232409093D

 44 47  0  0  1  0  0  0  0  0999 V2000
  189.2670  176.0460  136.8440 C   0  0  0  0  0  3  0  0  0  0  0  0
  190.3580  177.7070  140.5320 N   0  0  0  0  0  0  0  0  0  0  0  0
  188.1260  176.5050  136.1820 C   0  0  0  0  0  3  0  0  0  0  0  0
  187.5440  177.8550  138.1070 C   0  0  0  0  0  3  0  0  0  0  0  0
  188.9430  177.8410  140.1880 C   0  0  0  0  0  2  0  0  0  0  0  0
  188.6930  177.4130  138.7690 C   0  0  0  0  0  0  0  0  0  0  0  0
  190.7440  176.3140  140.3300 C   0  0  0  0  0  2  0  0  0  0  0  0
  189.5550  176.4880  138.1400 C   0  0  0  0  0  0  0  0  0  0  0  0
  187.2600  177.4090  136.8060 C   0  0  0  0  0  0  0  0  0  0  0  0
  190.8080  176.0100  138.8290 C   0  0  1  0  0  3  0  0  0  0  0  0
  192.0280  176.6840  138.2150 C   0  0  0  0  0  2  0  0  0  0  0  0
  192.6800  175.7660  137.2000 C   0  0  0  0  0  2  0  0  0  0  0  0
  193.1190  174.5440  137.8610 N   0  0  0  0  0  2  0  0  0  0  0  0
  194.4830  174.2060  137.4470 C   0  0  2  0  0  3  0  0  0  0  0  0
  194.4670  173.4960  136.2430 O   0  0  0  0  0  1  0  0  0  0  0  0
  195.2390  173.4140  138.5210 C   0  0  0  0  0  2  0  0  0  0  0  0
  196.0240  175.4130  139.6290 O   0  0  0  0  0  1  0  0  0  0  0  0
  196.4200  174.1690  139.1330 C   0  0  2  0  0  3  0  0  0  0  0  0
  197.8750  173.0130  136.9490 O   0  0  0  0  0  0  0  0  0  0  0  0
  199.0910  174.4960  138.7250 O   0  0  0  0  0  1  0  0  0  0  0  0
  197.7960  174.3670  137.9590 P   0  0  0  0  0  0  0  0  0  0  0  0
  197.5580  175.7560  137.0210 O   0  0  0  0  0  1  0  0  0  0  0  0
  190.4970  177.9850  141.9490 C   0  0  0  0  0  2  0  0  0  0  0  0
  190.1350  176.7450  142.7440 C   0  0  0  0  0  2  0  0  0  0  0  0
  187.6670  176.9510  143.1050 C   0  0  0  0  0  3  0  0  0  0  0  0
  187.2300  178.3360  147.9320 N   0  0  0  0  0  0  0  0  0  0  0  0
  189.1650  177.3150  144.9740 C   0  0  0  0  0  3  0  0  0  0  0  0
  186.7650  177.5140  145.2810 C   0  0  0  0  0  0  0  0  0  0  0  0
  185.5860  177.7080  146.1870 C   0  0  0  0  0  2  0  0  0  0  0  0
  188.0680  177.5660  145.8090 C   0  0  0  0  0  0  0  0  0  0  0  0
  186.5680  177.1940  143.9350 C   0  0  0  0  0  3  0  0  0  0  0  0
  188.2380  177.8870  147.2410 C   0  0  0  0  0  0  0  0  0  0  0  0
  185.9340  178.6670  147.3320 C   0  0  2  0  0  3  0  0  0  0  0  0
  188.9660  177.0170  143.6220 C   0  0  0  0  0  0  0  0  0  0  0  0
  185.9610  179.9770  146.8530 O   0  0  0  0  0  1  0  0  0  0  0  0
  189.5320  177.6330  147.9350 C   0  0  0  0  0  1  0  0  0  0  0  0
  186.0970  177.8530  136.1070 N   0  0  0  0  0  2  0  0  0  0  0  0
  184.8290  177.1410  136.1430 C   0  0  0  0  0  2  0  0  0  0  0  0
  184.4300  176.8990  137.5840 C   0  0  0  0  0  2  0  0  0  0  0  0
  183.5480  178.0320  138.0620 C   0  0  0  0  0  2  0  0  0  0  0  0
  183.8550  178.6350  141.8700 C   0  0  0  0  0  1  0  0  0  0  0  0
  184.9970  179.5380  139.9920 O   0  0  0  0  0  0  0  0  0  0  0  0
  184.1160  178.7420  140.4110 C   0  0  0  0  0  0  0  0  0  0  0  0
  183.3710  177.9320  139.5010 N   0  0  0  0  0  2  0  0  0  0  0  0
  1  8  1  0  0  0  0
  2 23  1  0  0  0  0
  3  9  1  0  0  0  0
  3  1  2  0  0  0  0
  4  6  1  0  0  0  0
  5  2  1  0  0  0  0
  6  5  1  0  0  0  0
  7  2  1  0  0  0  0
  8  6  2  0  0  0  0
  8 10  1  0  0  0  0
  9  4  2  0  0  0  0
 10 11  1  6  0  0  0
 10  7  1  0  0  0  0
 12 13  1  0  0  0  0
 12 11  1  0  0  0  0
 14 15  1  6  0  0  0
 14 13  1  0  0  0  0
 14 16  1  0  0  0  0
 16 18  1  0  0  0  0
 18 17  1  6  0  0  0
 19 21  2  0  0  0  0
 21 20  1  0  0  0  0
 21 18  1  0  0  0  0
 22 21  1  0  0  0  0
 23 24  1  0  0  0  0
 24 34  1  0  0  0  0
 25 34  2  0  0  0  0
 25 31  1  0  0  0  0
 27 30  2  0  0  0  0
 28 30  1  0  0  0  0
 28 29  1  0  0  0  0
 29 33  1  0  0  0  0
 30 32  1  0  0  0  0
 31 28  2  0  0  0  0
 32 26  2  0  0  0  0
 32 36  1  0  0  0  0
 33 35  1  6  0  0  0
 33 26  1  0  0  0  0
 34 27  1  0  0  0  0
 37 38  1  0  0  0  0
 37  9  1  0  0  0  0
 38 39  1  0  0  0  0
 39 40  1  0  0  0  0
 40 44  1  0  0  0  0
 42 43  2  0  0  0  0
 43 41  1  0  0  0  0
 44 43  1  0  0  0  0
M  END
>  <MODEL>
4

>  <REMARK>
 VINA RESULT:      -8.0      2.959      8.520
  Name = 
  15 active torsions:
  status: ('A' for Active; 'I' for Inactive)
    1  A    between atoms: C_5  and  C_29
    2  A    between atoms: C_5  and  C_36
    3  A    between atoms: C_6  and  C_24
    4  A    between atoms: C_6  and  C_37
    5  A    between atoms: N_7  and  C_36
    6  A    between atoms: N_19  and  C_23
    7  A    between atoms: N_19  and  C_24
    8  A    between atoms: C_21  and  C_28
    9  A    between atoms: C_21  and  N_41
   10  A    between atoms: C_23  and  C_43
   11  A    between atoms: C_28  and  C_33
   12  A    between atoms: C_32  and  N_41
   13  A    between atoms: C_33  and  N_42
   14  A    between atoms: P_35  and  C_44
   15  A    between atoms: C_43  and  C_44
                            x       y       z     vdW  Elec       q    Type
                         _______ _______ _______ _____ _____    ______ ____

>  <TORSDO>
F 15

$$$$
=
 OpenBabel10232409093D

 44 47  0  0  1  0  0  0  0  0999 V2000
  188.2610  176.5860  137.1790 C   0  0  0  0  0  3  0  0  0  0  0  0
  190.6340  177.4430  140.5240 N   0  0  0  0  0  0  0  0  0  0  0  0
  187.0180  177.2050  137.0280 C   0  0  0  0  0  3  0  0  0  0  0  0
  187.2180  178.1630  139.2430 C   0  0  0  0  0  3  0  0  0  0  0  0
  189.2030  177.6890  140.7010 C   0  0  0  0  0  2  0  0  0  0  0  0
  188.4700  177.5600  139.3950 C   0  0  0  0  0  0  0  0  0  0  0  0
  190.7970  176.1050  139.9620 C   0  0  0  0  0  2  0  0  0  0  0  0
  188.9910  176.7510  138.3610 C   0  0  0  0  0  0  0  0  0  0  0  0
  186.4900  177.9940  138.0550 C   0  0  0  0  0  0  0  0  0  0  0  0
  190.3460  176.1050  138.4970 C   0  0  1  0  0  3  0  0  0  0  0  0
  191.3640  176.8470  137.6400 C   0  0  0  0  0  2  0  0  0  0  0  0
  192.2010  175.8620  136.8490 C   0  0  0  0  0  2  0  0  0  0  0  0
  193.0570  175.1090  137.7590 N   0  0  0  0  0  2  0  0  0  0  0  0
  194.4670  175.3530  137.4460 C   0  0  2  0  0  3  0  0  0  0  0  0
  194.5900  176.3800  136.5070 O   0  0  0  0  0  1  0  0  0  0  0  0
  195.1800  174.0900  136.9500 C   0  0  0  0  0  2  0  0  0  0  0  0
  195.8430  173.5970  139.2210 O   0  0  0  0  0  1  0  0  0  0  0  0
  196.2720  173.5810  137.8920 C   0  0  2  0  0  3  0  0  0  0  0  0
  197.8050  175.3760  136.2620 O   0  0  0  0  0  0  0  0  0  0  0  0
  198.9890  173.5560  137.7170 O   0  0  0  0  0  1  0  0  0  0  0  0
  197.8230  174.5180  137.7180 P   0  0  0  0  0  0  0  0  0  0  0  0
  197.9900  175.6000  139.0090 O   0  0  0  0  0  1  0  0  0  0  0  0
  191.2460  177.4290  141.8390 C   0  0  0  0  0  2  0  0  0  0  0  0
  190.7030  176.2570  142.6360 C   0  0  0  0  0  2  0  0  0  0  0  0
  191.3530  176.7420  145.0040 C   0  0  0  0  0  3  0  0  0  0  0  0
  187.0240  178.0230  147.2430 N   0  0  0  0  0  0  0  0  0  0  0  0
  189.0490  177.0590  144.3270 C   0  0  0  0  0  3  0  0  0  0  0  0
  189.7180  177.5080  146.6170 C   0  0  0  0  0  0  0  0  0  0  0  0
  189.3860  178.0190  147.9880 C   0  0  0  0  0  2  0  0  0  0  0  0
  188.7210  177.4690  145.6260 C   0  0  0  0  0  0  0  0  0  0  0  0
  191.0330  177.1570  146.3000 C   0  0  0  0  0  3  0  0  0  0  0  0
  187.3450  177.8680  145.9910 C   0  0  0  0  0  0  0  0  0  0  0  0
  187.9310  177.7000  148.3490 C   0  0  2  0  0  3  0  0  0  0  0  0
  190.3610  176.6860  144.0180 C   0  0  0  0  0  0  0  0  0  0  0  0
  187.8140  176.3470  148.6690 O   0  0  0  0  0  1  0  0  0  0  0  0
  186.3310  178.1720  144.9430 C   0  0  0  0  0  1  0  0  0  0  0  0
  185.2130  178.6070  137.8730 N   0  0  0  0  0  2  0  0  0  0  0  0
  184.4310  179.1500  138.9730 C   0  0  0  0  0  2  0  0  0  0  0  0
  183.0160  178.6150  138.8960 C   0  0  0  0  0  2  0  0  0  0  0  0
  182.8110  177.5700  139.9710 C   0  0  0  0  0  2  0  0  0  0  0  0
  183.0620  179.0910  143.5180 C   0  0  0  0  0  1  0  0  0  0  0  0
  181.2510  178.7980  142.0080 O   0  0  0  0  0  0  0  0  0  0  0  0
  182.4830  178.6480  142.2240 C   0  0  0  0  0  0  0  0  0  0  0  0
  183.3310  178.0670  141.2330 N   0  0  0  0  0  2  0  0  0  0  0  0
  1  8  1  0  0  0  0
  2  5  1  0  0  0  0
  2 23  1  0  0  0  0
  3  1  2  0  0  0  0
  3  9  1  0  0  0  0
  4  6  1  0  0  0  0
  6  5  1  0  0  0  0
  7  2  1  0  0  0  0
  8 10  1  0  0  0  0
  8  6  2  0  0  0  0
  9  4  2  0  0  0  0
 10 11  1  6  0  0  0
 10  7  1  0  0  0  0
 12 11  1  0  0  0  0
 12 13  1  0  0  0  0
 14 15  1  6  0  0  0
 14 13  1  0  0  0  0
 16 14  1  0  0  0  0
 16 18  1  0  0  0  0
 18 17  1  1  0  0  0
 19 21  2  0  0  0  0
 20 21  1  0  0  0  0
 21 18  1  0  0  0  0
 21 22  1  0  0  0  0
 23 24  1  0  0  0  0
 24 34  1  0  0  0  0
 25 31  1  0  0  0  0
 26 33  1  0  0  0  0
 27 30  2  0  0  0  0
 28 29  1  0  0  0  0
 29 33  1  0  0  0  0
 30 32  1  0  0  0  0
 30 28  1  0  0  0  0
 31 28  2  0  0  0  0
 32 26  2  0  0  0  0
 33 35  1  6  0  0  0
 34 27  1  0  0  0  0
 34 25  2  0  0  0  0
 36 32  1  0  0  0  0
 37  9  1  0  0  0  0
 37 38  1  0  0  0  0
 39 38  1  0  0  0  0
 39 40  1  0  0  0  0
 40 44  1  0  0  0  0
 42 43  2  0  0  0  0
 43 41  1  0  0  0  0
 44 43  1  0  0  0  0
M  END
>  <MODEL>
5

>  <REMARK>
 VINA RESULT:      -8.0      3.430      9.072
  Name = 
  15 active torsions:
  status: ('A' for Active; 'I' for Inactive)
    1  A    between atoms: C_5  and  C_29
    2  A    between atoms: C_5  and  C_36
    3  A    between atoms: C_6  and  C_24
    4  A    between atoms: C_6  and  C_37
    5  A    between atoms: N_7  and  C_36
    6  A    between atoms: N_19  and  C_23
    7  A    between atoms: N_19  and  C_24
    8  A    between atoms: C_21  and  C_28
    9  A    between atoms: C_21  and  N_41
   10  A    between atoms: C_23  and  C_43
   11  A    between atoms: C_28  and  C_33
   12  A    between atoms: C_32  and  N_41
   13  A    between atoms: C_33  and  N_42
   14  A    between atoms: P_35  and  C_44
   15  A    between atoms: C_43  and  C_44
                            x       y       z     vdW  Elec       q    Type
                         _______ _______ _______ _____ _____    ______ ____

>  <TORSDO>
F 15

$$$$
=
 OpenBabel10232409093D

 44 47  0  0  1  0  0  0  0  0999 V2000
  191.0920  176.3430  135.9780 C   0  0  0  0  0  3  0  0  0  0  0  0
  189.1990  177.3930  139.5650 N   0  0  0  0  0  0  0  0  0  0  0  0
  192.4060  175.8680  135.9950 C   0  0  0  0  0  3  0  0  0  0  0  0
  192.5650  176.3730  138.3580 C   0  0  0  0  0  3  0  0  0  0  0  0
  190.6600  177.4280  139.6040 C   0  0  0  0  0  2  0  0  0  0  0  0
  191.2450  176.8340  138.3520 C   0  0  0  0  0  0  0  0  0  0  0  0
  188.7600  178.1280  138.3820 C   0  0  0  0  0  2  0  0  0  0  0  0
  190.5060  176.8350  137.1490 C   0  0  0  0  0  0  0  0  0  0  0  0
  193.1480  175.8810  137.1800 C   0  0  0  0  0  0  0  0  0  0  0  0
  189.0760  177.3130  137.1230 C   0  0  1  0  0  3  0  0  0  0  0  0
  188.1320  176.1210  137.0260 C   0  0  0  0  0  2  0  0  0  0  0  0
  186.7040  176.5610  137.2770 C   0  0  0  0  0  2  0  0  0  0  0  0
  185.8040  175.4330  137.0720 N   0  0  0  0  0  2  0  0  0  0  0  0
  184.4170  175.8980  137.0010 C   0  0  2  0  0  3  0  0  0  0  0  0
  183.8710  175.6220  135.7440 O   0  0  0  0  0  1  0  0  0  0  0  0
  184.2860  177.3920  137.3210 C   0  0  0  0  0  2  0  0  0  0  0  0
  182.0360  178.0040  137.9580 O   0  0  0  0  0  1  0  0  0  0  0  0
  183.3060  177.7010  138.4540 C   0  0  2  0  0  3  0  0  0  0  0  0
  183.2420  178.8590  141.0780 O   0  0  0  0  0  1  0  0  0  0  0  0
  183.4650  180.3720  138.9580 O   0  0  0  0  0  0  0  0  0  0  0  0
  183.9000  179.0430  139.5310 P   0  0  0  0  0  0  0  0  0  0  0  0
  185.5890  178.9990  139.6270 O   0  0  0  0  0  1  0  0  0  0  0  0
  188.7080  178.1180  140.7220 C   0  0  0  0  0  2  0  0  0  0  0  0
  189.1300  177.3940  141.9870 C   0  0  0  0  0  2  0  0  0  0  0  0
  186.7870  177.8610  142.7350 C   0  0  0  0  0  3  0  0  0  0  0  0
  187.0990  178.0250  147.7620 N   0  0  0  0  0  0  0  0  0  0  0  0
  188.5090  177.5160  144.4030 C   0  0  0  0  0  3  0  0  0  0  0  0
  186.2270  177.9800  145.0870 C   0  0  0  0  0  0  0  0  0  0  0  0
  185.2000  178.1080  146.1730 C   0  0  0  0  0  2  0  0  0  0  0  0
  187.5660  177.7050  145.4210 C   0  0  0  0  0  0  0  0  0  0  0  0
  185.8400  178.0440  143.7460 C   0  0  0  0  0  3  0  0  0  0  0  0
  187.9360  177.6240  146.8500 C   0  0  0  0  0  0  0  0  0  0  0  0
  185.8270  178.6840  147.4480 C   0  0  2  0  0  3  0  0  0  0  0  0
  188.1240  177.6030  143.0620 C   0  0  0  0  0  0  0  0  0  0  0  0
  186.0370  180.0540  147.2880 O   0  0  0  0  0  1  0  0  0  0  0  0
  189.2280  177.0160  147.2730 C   0  0  0  0  0  1  0  0  0  0  0  0
  194.4910  175.3960  137.1640 N   0  0  0  0  0  2  0  0  0  0  0  0
  195.1550  174.9390  135.9520 C   0  0  0  0  0  2  0  0  0  0  0  0
  196.6550  174.9910  136.1520 C   0  0  0  0  0  2  0  0  0  0  0  0
  197.0290  174.2030  137.3900 C   0  0  0  0  0  2  0  0  0  0  0  0
  195.4910  170.6690  137.7070 C   0  0  0  0  0  1  0  0  0  0  0  0
  195.2570  172.6560  138.9890 O   0  0  0  0  0  0  0  0  0  0  0  0
  195.8030  172.0910  138.0040 C   0  0  0  0  0  0  0  0  0  0  0  0
  196.7270  172.7980  137.1770 N   0  0  0  0  0  2  0  0  0  0  0  0
  1  3  2  0  0  0  0
  1  8  1  0  0  0  0
  2  5  1  0  0  0  0
  2 23  1  0  0  0  0
  3  9  1  0  0  0  0
  6  4  1  0  0  0  0
  6  5  1  0  0  0  0
  7  2  1  0  0  0  0
  8  6  2  0  0  0  0
  9  4  2  0  0  0  0
 10 11  1  1  0  0  0
 10  8  1  0  0  0  0
 10  7  1  0  0  0  0
 11 12  1  0  0  0  0
 13 12  1  0  0  0  0
 14 15  1  6  0  0  0
 14 13  1  0  0  0  0
 14 16  1  0  0  0  0
 16 18  1  0  0  0  0
 18 17  1  6  0  0  0
 18 21  1  0  0  0  0
 20 21  2  0  0  0  0
 21 22  1  0  0  0  0
 21 19  1  0  0  0  0
 23 24  1  0  0  0  0
 24 34  1  0  0  0  0
 25 34  2  0  0  0  0
 25 31  1  0  0  0  0
 27 30  2  0  0  0  0
 28 30  1  0  0  0  0
 28 29  1  0  0  0  0
 29 33  1  0  0  0  0
 30 32  1  0  0  0  0
 31 28  2  0  0  0  0
 32 36  1  0  0  0  0
 32 26  2  0  0  0  0
 33 35  1  6  0  0  0
 33 26  1  0  0  0  0
 34 27  1  0  0  0  0
 37  9  1  0  0  0  0
 38 39  1  0  0  0  0
 38 37  1  0  0  0  0
 39 40  1  0  0  0  0
 41 43  1  0  0  0  0
 43 42  2  0  0  0  0
 44 40  1  0  0  0  0
 44 43  1  0  0  0  0
M  END
>  <MODEL>
6

>  <REMARK>
 VINA RESULT:      -7.9      1.650      1.950
  Name = 
  15 active torsions:
  status: ('A' for Active; 'I' for Inactive)
    1  A    between atoms: C_5  and  C_29
    2  A    between atoms: C_5  and  C_36
    3  A    between atoms: C_6  and  C_24
    4  A    between atoms: C_6  and  C_37
    5  A    between atoms: N_7  and  C_36
    6  A    between atoms: N_19  and  C_23
    7  A    between atoms: N_19  and  C_24
    8  A    between atoms: C_21  and  C_28
    9  A    between atoms: C_21  and  N_41
   10  A    between atoms: C_23  and  C_43
   11  A    between atoms: C_28  and  C_33
   12  A    between atoms: C_32  and  N_41
   13  A    between atoms: C_33  and  N_42
   14  A    between atoms: P_35  and  C_44
   15  A    between atoms: C_43  and  C_44
                            x       y       z     vdW  Elec       q    Type
                         _______ _______ _______ _____ _____    ______ ____

>  <TORSDO>
F 15

$$$$
=
 OpenBabel10232409093D

 44 47  0  0  1  0  0  0  0  0999 V2000
  191.5750  177.4050  141.1350 C   0  0  0  0  0  3  0  0  0  0  0  0
  188.5130  177.1780  138.2850 N   0  0  0  0  0  0  0  0  0  0  0  0
  191.2630  177.6270  142.4790 C   0  0  0  0  0  3  0  0  0  0  0  0
  188.9440  177.9970  141.8860 C   0  0  0  0  0  3  0  0  0  0  0  0
  188.1720  177.9140  139.5010 C   0  0  0  0  0  2  0  0  0  0  0  0
  189.2460  177.7590  140.5420 C   0  0  0  0  0  0  0  0  0  0  0  0
  189.7940  177.6790  137.7950 C   0  0  0  0  0  2  0  0  0  0  0  0
  190.5750  177.4770  140.1590 C   0  0  0  0  0  0  0  0  0  0  0  0
  189.9510  177.9240  142.8610 C   0  0  0  0  0  0  0  0  0  0  0  0
  190.9210  177.2010  138.7180 C   0  0  1  0  0  3  0  0  0  0  0  0
  191.1590  175.7100  138.5160 C   0  0  0  0  0  2  0  0  0  0  0  0
  191.8430  175.4630  137.1870 C   0  0  0  0  0  2  0  0  0  0  0  0
  192.8210  174.3920  137.3350 N   0  0  0  0  0  2  0  0  0  0  0  0
  194.1560  174.9520  137.5550 C   0  0  2  0  0  3  0  0  0  0  0  0
  194.3140  176.1400  136.8360 O   0  0  0  0  0  1  0  0  0  0  0  0
  195.2710  173.9620  137.1960 C   0  0  0  0  0  2  0  0  0  0  0  0
  195.8370  174.2020  139.5330 O   0  0  0  0  0  1  0  0  0  0  0  0
  196.3220  173.7850  138.2920 C   0  0  2  0  0  3  0  0  0  0  0  0
  198.3680  175.5620  139.2340 O   0  0  0  0  0  1  0  0  0  0  0  0
  197.6570  175.5590  136.7180 O   0  0  0  0  0  0  0  0  0  0  0  0
  197.8780  174.6450  137.9000 P   0  0  0  0  0  0  0  0  0  0  0  0
  199.0800  173.5150  137.5200 O   0  0  0  0  0  1  0  0  0  0  0  0
  187.5190  177.4990  137.2790 C   0  0  0  0  0  2  0  0  0  0  0  0
  186.4700  176.4030  137.2380 C   0  0  0  0  0  2  0  0  0  0  0  0
  184.2350  176.8800  136.2180 C   0  0  0  0  0  3  0  0  0  0  0  0
  181.8140  179.5620  139.7310 N   0  0  0  0  0  0  0  0  0  0  0  0
  184.6830  177.6310  138.4760 C   0  0  0  0  0  3  0  0  0  0  0  0
  182.5310  178.0820  137.4480 C   0  0  0  0  0  0  0  0  0  0  0  0
  181.1280  178.6030  137.5520 C   0  0  0  0  0  2  0  0  0  0  0  0
  183.3960  178.1820  138.5520 C   0  0  0  0  0  0  0  0  0  0  0  0
  182.9470  177.4210  136.2900 C   0  0  0  0  0  3  0  0  0  0  0  0
  182.9150  178.8690  139.7690 C   0  0  0  0  0  0  0  0  0  0  0  0
  181.0660  179.8110  138.4950 C   0  0  2  0  0  3  0  0  0  0  0  0
  185.1050  176.9900  137.3080 C   0  0  0  0  0  0  0  0  0  0  0  0
  181.5870  180.9340  137.8510 O   0  0  0  0  0  1  0  0  0  0  0  0
  183.6310  178.7210  141.0670 C   0  0  0  0  0  1  0  0  0  0  0  0
  189.6650  178.1540  144.2420 N   0  0  0  0  0  2  0  0  0  0  0  0
  188.9480  177.2000  145.0730 C   0  0  0  0  0  2  0  0  0  0  0  0
  188.9810  177.6650  146.5140 C   0  0  0  0  0  2  0  0  0  0  0  0
  187.6030  177.5210  147.1240 C   0  0  0  0  0  2  0  0  0  0  0  0
  184.6740  178.7880  144.9400 C   0  0  0  0  0  1  0  0  0  0  0  0
  185.6060  179.5430  146.9910 O   0  0  0  0  0  0  0  0  0  0  0  0
  185.6430  178.6930  146.0620 C   0  0  0  0  0  0  0  0  0  0  0  0
  186.5990  177.6330  146.0800 N   0  0  0  0  0  2  0  0  0  0  0  0
  1  3  1  0  0  0  0
  2  5  1  0  0  0  0
  3  9  2  0  0  0  0
  4  9  1  0  0  0  0
  5  6  1  0  0  0  0
  6  4  2  0  0  0  0
  7  2  1  0  0  0  0
  7 10  1  0  0  0  0
  8  6  1  0  0  0  0
  8  1  2  0  0  0  0
  9 37  1  0  0  0  0
 10 11  1  1  0  0  0
 10  8  1  0  0  0  0
 12 13  1  0  0  0  0
 12 11  1  0  0  0  0
 13 14  1  0  0  0  0
 14 15  1  6  0  0  0
 16 14  1  0  0  0  0
 16 18  1  0  0  0  0
 18 17  1  1  0  0  0
 20 21  2  0  0  0  0
 21 18  1  0  0  0  0
 21 19  1  0  0  0  0
 22 21  1  0  0  0  0
 23  2  1  0  0  0  0
 24 23  1  0  0  0  0
 24 34  1  0  0  0  0
 25 31  2  0  0  0  0
 25 34  1  0  0  0  0
 26 32  2  0  0  0  0
 27 30  1  0  0  0  0
 28 29  1  0  0  0  0
 28 30  2  0  0  0  0
 29 33  1  0  0  0  0
 30 32  1  0  0  0  0
 31 28  1  0  0  0  0
 32 36  1  0  0  0  0
 33 35  1  6  0  0  0
 33 26  1  0  0  0  0
 34 27  2  0  0  0  0
 37 38  1  0  0  0  0
 38 39  1  0  0  0  0
 39 40  1  0  0  0  0
 41 43  1  0  0  0  0
 43 44  1  0  0  0  0
 43 42  2  0  0  0  0
 44 40  1  0  0  0  0
M  END
>  <MODEL>
7

>  <REMARK>
 VINA RESULT:      -7.8      3.240      9.523
  Name = 
  15 active torsions:
  status: ('A' for Active; 'I' for Inactive)
    1  A    between atoms: C_5  and  C_29
    2  A    between atoms: C_5  and  C_36
    3  A    between atoms: C_6  and  C_24
    4  A    between atoms: C_6  and  C_37
    5  A    between atoms: N_7  and  C_36
    6  A    between atoms: N_19  and  C_23
    7  A    between atoms: N_19  and  C_24
    8  A    between atoms: C_21  and  C_28
    9  A    between atoms: C_21  and  N_41
   10  A    between atoms: C_23  and  C_43
   11  A    between atoms: C_28  and  C_33
   12  A    between atoms: C_32  and  N_41
   13  A    between atoms: C_33  and  N_42
   14  A    between atoms: P_35  and  C_44
   15  A    between atoms: C_43  and  C_44
                            x       y       z     vdW  Elec       q    Type
                         _______ _______ _______ _____ _____    ______ ____

>  <TORSDO>
F 15

$$$$
=
 OpenBabel10232409093D

 44 47  0  0  1  0  0  0  0  0999 V2000
  188.6370  176.9600  143.2210 C   0  0  0  0  0  3  0  0  0  0  0  0
  191.6120  177.5030  140.3220 N   0  0  0  0  0  0  0  0  0  0  0  0
  188.9570  177.0610  144.5780 C   0  0  0  0  0  3  0  0  0  0  0  0
  191.3080  177.2260  144.0170 C   0  0  0  0  0  3  0  0  0  0  0  0
  192.1000  177.1020  141.6410 C   0  0  0  0  0  2  0  0  0  0  0  0
  190.9930  177.1420  142.6580 C   0  0  0  0  0  0  0  0  0  0  0  0
  190.5250  176.6030  139.9480 C   0  0  0  0  0  2  0  0  0  0  0  0
  189.6480  176.9910  142.2550 C   0  0  0  0  0  0  0  0  0  0  0  0
  190.2890  177.1940  144.9830 C   0  0  0  0  0  0  0  0  0  0  0  0
  189.2850  176.9150  140.7940 C   0  0  1  0  0  3  0  0  0  0  0  0
  188.6670  178.2320  140.3420 C   0  0  0  0  0  2  0  0  0  0  0  0
  187.8890  178.0330  139.0570 C   0  0  0  0  0  2  0  0  0  0  0  0
  188.5370  178.7680  137.9780 N   0  0  0  0  0  2  0  0  0  0  0  0
  188.9320  177.8500  136.9070 C   0  0  2  0  0  3  0  0  0  0  0  0
  188.6450  178.4040  135.6560 O   0  0  0  0  0  1  0  0  0  0  0  0
  188.2680  176.4740  137.0440 C   0  0  0  0  0  2  0  0  0  0  0  0
  187.6110  175.5650  134.9030 O   0  0  0  0  0  1  0  0  0  0  0  0
  188.5890  175.5130  135.8990 C   0  0  2  0  0  3  0  0  0  0  0  0
  187.4440  173.3190  137.3490 O   0  0  0  0  0  1  0  0  0  0  0  0
  190.0250  173.7310  137.3730 O   0  0  0  0  0  1  0  0  0  0  0  0
  188.8100  173.8010  136.4780 P   0  0  0  0  0  0  0  0  0  0  0  0
  189.0290  172.7700  135.1540 O   0  0  0  0  0  0  0  0  0  0  0  0
  192.6850  177.2910  139.3700 C   0  0  0  0  0  2  0  0  0  0  0  0
  192.1830  176.4300  138.2260 C   0  0  0  0  0  2  0  0  0  0  0  0
  193.5610  174.4080  137.6980 C   0  0  0  0  0  3  0  0  0  0  0  0
  197.2230  176.1490  134.7050 N   0  0  0  0  0  0  0  0  0  0  0  0
  194.1460  176.5290  136.6850 C   0  0  0  0  0  3  0  0  0  0  0  0
  195.4620  174.5470  136.2060 C   0  0  0  0  0  0  0  0  0  0  0  0
  196.5640  173.8760  135.4390 C   0  0  0  0  0  2  0  0  0  0  0  0
  195.2190  175.9200  136.0220 C   0  0  0  0  0  0  0  0  0  0  0  0
  194.6260  173.7930  137.0330 C   0  0  0  0  0  3  0  0  0  0  0  0
  196.1110  176.6820  135.1240 C   0  0  0  0  0  0  0  0  0  0  0  0
  197.7170  174.8530  135.1790 C   0  0  2  0  0  3  0  0  0  0  0  0
  193.3230  175.7770  137.5300 C   0  0  0  0  0  0  0  0  0  0  0  0
  198.4500  175.0320  136.3530 O   0  0  0  0  0  1  0  0  0  0  0  0
  195.7250  178.0310  134.6230 C   0  0  0  0  0  1  0  0  0  0  0  0
  190.5850  177.2870  146.3770 N   0  0  0  0  0  2  0  0  0  0  0  0
  189.6680  176.8400  147.4140 C   0  0  0  0  0  2  0  0  0  0  0  0
  189.1290  178.0430  148.1600 C   0  0  0  0  0  2  0  0  0  0  0  0
  187.6550  177.8450  148.4440 C   0  0  0  0  0  2  0  0  0  0  0  0
  185.3100  178.4650  145.4330 C   0  0  0  0  0  1  0  0  0  0  0  0
  185.6690  179.6330  147.4700 O   0  0  0  0  0  0  0  0  0  0  0  0
  185.9730  178.6450  146.7500 C   0  0  0  0  0  0  0  0  0  0  0  0
  186.9390  177.6910  147.1900 N   0  0  0  0  0  2  0  0  0  0  0  0
  1  3  1  0  0  0  0
  2  5  1  0  0  0  0
  3  9  2  0  0  0  0
  4  9  1  0  0  0  0
  5  6  1  0  0  0  0
  6  4  2  0  0  0  0
  7  2  1  0  0  0  0
  7 10  1  0  0  0  0
  8  6  1  0  0  0  0
  8  1  2  0  0  0  0
  9 37  1  0  0  0  0
 10 11  1  6  0  0  0
 10  8  1  0  0  0  0
 12 11  1  0  0  0  0
 13 12  1  0  0  0  0
 14 15  1  6  0  0  0
 14 16  1  0  0  0  0
 14 13  1  0  0  0  0
 18 17  1  6  0  0  0
 18 21  1  0  0  0  0
 18 16  1  0  0  0  0
 21 19  1  0  0  0  0
 21 20  1  0  0  0  0
 22 21  2  0  0  0  0
 23  2  1  0  0  0  0
 24 23  1  0  0  0  0
 26 32  2  0  0  0  0
 26 33  1  0  0  0  0
 27 34  2  0  0  0  0
 28 31  1  0  0  0  0
 29 28  1  0  0  0  0
 30 28  2  0  0  0  0
 30 27  1  0  0  0  0
 31 25  2  0  0  0  0
 32 30  1  0  0  0  0
 33 29  1  0  0  0  0
 33 35  1  1  0  0  0
 34 25  1  0  0  0  0
 34 24  1  0  0  0  0
 36 32  1  0  0  0  0
 37 38  1  0  0  0  0
 38 39  1  0  0  0  0
 39 40  1  0  0  0  0
 41 43  1  0  0  0  0
 43 44  1  0  0  0  0
 43 42  2  0  0  0  0
 44 40  1  0  0  0  0
M  END
>  <MODEL>
8

>  <REMARK>
 VINA RESULT:      -7.7      3.267      9.944
  Name = 
  15 active torsions:
  status: ('A' for Active; 'I' for Inactive)
    1  A    between atoms: C_5  and  C_29
    2  A    between atoms: C_5  and  C_36
    3  A    between atoms: C_6  and  C_24
    4  A    between atoms: C_6  and  C_37
    5  A    between atoms: N_7  and  C_36
    6  A    between atoms: N_19  and  C_23
    7  A    between atoms: N_19  and  C_24
    8  A    between atoms: C_21  and  C_28
    9  A    between atoms: C_21  and  N_41
   10  A    between atoms: C_23  and  C_43
   11  A    between atoms: C_28  and  C_33
   12  A    between atoms: C_32  and  N_41
   13  A    between atoms: C_33  and  N_42
   14  A    between atoms: P_35  and  C_44
   15  A    between atoms: C_43  and  C_44
                            x       y       z     vdW  Elec       q    Type
                         _______ _______ _______ _____ _____    ______ ____

>  <TORSDO>
F 15

$$$$
=
 OpenBabel10232409093D

 44 47  0  0  1  0  0  0  0  0999 V2000
  188.3140  177.3930  142.5860 C   0  0  0  0  0  3  0  0  0  0  0  0
  191.4600  177.3480  139.8190 N   0  0  0  0  0  0  0  0  0  0  0  0
  188.5810  177.5840  143.9440 C   0  0  0  0  0  3  0  0  0  0  0  0
  190.9590  177.4450  143.5020 C   0  0  0  0  0  3  0  0  0  0  0  0
  191.8400  177.0200  141.1930 C   0  0  0  0  0  2  0  0  0  0  0  0
  190.6990  177.2700  142.1390 C   0  0  0  0  0  0  0  0  0  0  0  0
  190.2970  176.5380  139.4650 C   0  0  0  0  0  2  0  0  0  0  0  0
  189.3660  177.2280  141.6780 C   0  0  0  0  0  0  0  0  0  0  0  0
  189.9000  177.6100  144.4090 C   0  0  0  0  0  0  0  0  0  0  0  0
  189.0630  177.0570  140.2110 C   0  0  1  0  0  3  0  0  0  0  0  0
  188.6160  178.3850  139.6140 C   0  0  0  0  0  2  0  0  0  0  0  0
  188.2990  178.2190  138.1410 C   0  0  0  0  0  2  0  0  0  0  0  0
  186.9850  178.7860  137.8600 N   0  0  0  0  0  2  0  0  0  0  0  0
  185.9340  177.8310  138.2160 C   0  0  2  0  0  3  0  0  0  0  0  0
  186.2360  176.5610  137.7160 O   0  0  0  0  0  1  0  0  0  0  0  0
  184.5510  178.2780  137.7290 C   0  0  0  0  0  2  0  0  0  0  0  0
  184.4820  180.1470  139.2590 O   0  0  0  0  0  1  0  0  0  0  0  0
  183.7500  179.0640  138.7690 C   0  0  2  0  0  3  0  0  0  0  0  0
  181.7080  178.5960  140.7280 O   0  0  0  0  0  1  0  0  0  0  0  0
  184.2090  178.0400  141.2490 O   0  0  0  0  0  1  0  0  0  0  0  0
  183.1820  178.0120  140.1410 P   0  0  0  0  0  0  0  0  0  0  0  0
  182.9830  176.4200  139.6010 O   0  0  0  0  0  0  0  0  0  0  0  0
  192.5450  176.9360  138.9490 C   0  0  0  0  0  2  0  0  0  0  0  0
  191.9740  176.3100  137.6910 C   0  0  0  0  0  2  0  0  0  0  0  0
  192.0950  174.0980  136.5260 C   0  0  0  0  0  3  0  0  0  0  0  0
  196.4750  172.1280  138.0560 N   0  0  0  0  0  0  0  0  0  0  0  0
  193.9530  174.8030  137.9100 C   0  0  0  0  0  3  0  0  0  0  0  0
  194.0290  172.6610  136.7720 C   0  0  0  0  0  0  0  0  0  0  0  0
  194.7820  171.4210  136.3910 C   0  0  0  0  0  2  0  0  0  0  0  0
  194.6310  173.6130  137.6130 C   0  0  0  0  0  0  0  0  0  0  0  0
  192.7690  172.9110  136.2210 C   0  0  0  0  0  3  0  0  0  0  0  0
  195.9730  173.3250  138.1620 C   0  0  0  0  0  0  0  0  0  0  0  0
  195.7230  170.9880  137.5230 C   0  0  2  0  0  3  0  0  0  0  0  0
  192.6840  175.0410  137.3760 C   0  0  0  0  0  0  0  0  0  0  0  0
  194.9820  170.3960  138.5460 O   0  0  0  0  0  1  0  0  0  0  0  0
  196.8000  174.4030  138.7700 C   0  0  0  0  0  1  0  0  0  0  0  0
  190.1410  177.7990  145.8040 N   0  0  0  0  0  2  0  0  0  0  0  0
  189.4170  177.0770  146.8390 C   0  0  0  0  0  2  0  0  0  0  0  0
  189.0340  178.0360  147.9470 C   0  0  0  0  0  2  0  0  0  0  0  0
  187.5510  177.9230  148.2250 C   0  0  0  0  0  2  0  0  0  0  0  0
  185.2390  178.4120  145.1630 C   0  0  0  0  0  1  0  0  0  0  0  0
  185.6070  179.6900  147.1330 O   0  0  0  0  0  0  0  0  0  0  0  0
  185.8960  178.6560  146.4730 C   0  0  0  0  0  0  0  0  0  0  0  0
  186.8400  177.7110  146.9760 N   0  0  0  0  0  2  0  0  0  0  0  0
  1  3  1  0  0  0  0
  2  5  1  0  0  0  0
  3  9  2  0  0  0  0
  4  9  1  0  0  0  0
  5  6  1  0  0  0  0
  6  4  2  0  0  0  0
  7  2  1  0  0  0  0
  7 10  1  0  0  0  0
  8  6  1  0  0  0  0
  8  1  2  0  0  0  0
  9 37  1  0  0  0  0
 10 11  1  6  0  0  0
 10  8  1  0  0  0  0
 12 11  1  0  0  0  0
 13 12  1  0  0  0  0
 13 14  1  0  0  0  0
 14 15  1  6  0  0  0
 16 14  1  0  0  0  0
 16 18  1  0  0  0  0
 18 17  1  1  0  0  0
 18 21  1  0  0  0  0
 21 19  1  0  0  0  0
 21 20  1  0  0  0  0
 22 21  2  0  0  0  0
 23  2  1  0  0  0  0
 24 23  1  0  0  0  0
 25 34  1  0  0  0  0
 26 32  2  0  0  0  0
 28 30  2  0  0  0  0
 29 28  1  0  0  0  0
 29 33  1  0  0  0  0
 30 27  1  0  0  0  0
 30 32  1  0  0  0  0
 31 25  2  0  0  0  0
 31 28  1  0  0  0  0
 32 36  1  0  0  0  0
 33 26  1  0  0  0  0
 33 35  1  1  0  0  0
 34 24  1  0  0  0  0
 34 27  2  0  0  0  0
 37 38  1  0  0  0  0
 38 39  1  0  0  0  0
 39 40  1  0  0  0  0
 41 43  1  0  0  0  0
 43 44  1  0  0  0  0
 43 42  2  0  0  0  0
 44 40  1  0  0  0  0
M  END
>  <MODEL>
9

>  <REMARK>
 VINA RESULT:      -7.7      2.059      9.037
  Name = 
  15 active torsions:
  status: ('A' for Active; 'I' for Inactive)
    1  A    between atoms: C_5  and  C_29
    2  A    between atoms: C_5  and  C_36
    3  A    between atoms: C_6  and  C_24
    4  A    between atoms: C_6  and  C_37
    5  A    between atoms: N_7  and  C_36
    6  A    between atoms: N_19  and  C_23
    7  A    between atoms: N_19  and  C_24
    8  A    between atoms: C_21  and  C_28
    9  A    between atoms: C_21  and  N_41
   10  A    between atoms: C_23  and  C_43
   11  A    between atoms: C_28  and  C_33
   12  A    between atoms: C_32  and  N_41
   13  A    between atoms: C_33  and  N_42
   14  A    between atoms: P_35  and  C_44
   15  A    between atoms: C_43  and  C_44
                            x       y       z     vdW  Elec       q    Type
                         _______ _______ _______ _____ _____    ______ ____

>  <TORSDO>
F 15

$$$$
