=
 OpenBabel10232412123D

 68 74  0  0  1  0  0  0  0  0999 V2000
  190.2030  176.9930  139.2850 C   0  0  2  0  0  0  0  0  0  0  0  0
  189.3080  175.9260  139.4380 O   0  0  0  0  0  1  0  0  0  0  0  0
  192.1940  174.8660  136.7120 C   0  0  0  0  0  0  0  0  0  0  0  0
  194.4560  175.4650  135.6660 C   0  0  2  0  0  3  0  0  0  0  0  0
  193.1960  173.4640  134.9070 C   0  0  0  0  0  2  0  0  0  0  0  0
  193.7880  176.3050  137.8770 N   0  0  0  0  0  2  0  0  0  0  0  0
  193.9210  174.7210  134.4480 C   0  0  0  0  0  2  0  0  0  0  0  0
  192.1180  173.7730  135.9160 C   0  0  0  0  0  0  0  0  0  0  0  0
  192.7340  176.8500  138.7530 C   0  0  0  0  0  2  0  0  0  0  0  0
  191.1250  175.1610  137.7310 C   0  0  0  0  0  2  0  0  0  0  0  0
  191.2900  176.5850  138.2700 C   0  0  1  0  0  3  0  0  0  0  0  0
  193.2890  175.9120  136.5540 C   0  0  2  0  0  3  0  0  0  0  0  0
  190.9960  172.7890  136.0590 C   0  0  0  0  0  2  0  0  0  0  0  0
  189.8090  173.4580  136.5660 N   0  0  0  0  0  2  0  0  0  0  0  0
  188.7220  172.6270  136.2660 N   0  0  0  0  0  2  0  0  0  0  0  0
  187.5740  173.2950  136.7150 N   0  0  0  0  0  2  0  0  0  0  0  0
  186.5180  172.3050  136.8390 C   0  0  0  0  0  2  0  0  0  0  0  0
  185.0960  172.2780  134.8210 C   0  0  0  0  0  2  0  0  0  0  0  0
  186.2780  171.6220  135.5050 C   0  0  0  0  0  3  0  0  0  0  0  0
  184.9240  170.9450  135.5200 C   0  0  0  0  0  2  0  0  0  0  0  0
  195.2330  176.6900  135.2050 C   0  0  0  0  0  2  0  0  0  0  0  0
  196.7110  176.3720  135.0790 C   0  0  0  0  0  2  0  0  0  0  0  0
  197.2160  175.9190  136.3650 N   0  0  0  0  0  2  0  0  0  0  0  0
  197.3190  173.6030  136.0200 O   0  0  0  0  0  1  0  0  0  0  0  0
  198.0860  174.7730  136.1250 C   0  0  1  0  0  3  0  0  0  0  0  0
  200.2130  172.8660  134.3470 O   0  0  0  0  0  0  0  0  0  0  0  0
  198.9500  175.0290  134.8800 C   0  0  1  0  0  3  0  0  0  0  0  0
  200.2260  175.3930  135.2230 O   0  0  0  0  0  0  0  0  0  0  0  0
  199.8870  174.0340  134.6870 C   0  0  0  0  0  0  0  0  0  0  0  0
  190.8160  177.2980  140.6260 C   0  0  0  0  0  3  0  0  0  0  0  0
  190.9900  176.3390  141.5370 C   0  0  0  0  0  3  0  0  0  0  0  0
  191.6420  176.6270  142.8420 C   0  0  0  0  0  2  0  0  0  0  0  0
  191.1620  177.9820  143.3310 C   0  0  0  0  0  2  0  0  0  0  0  0
  190.7460  177.4410  145.7310 C   0  0  0  0  0  3  0  0  0  0  0  0
  187.9830  177.9170  145.4230 C   0  0  0  0  0  0  0  0  0  0  0  0
  188.5170  177.5320  146.6820 C   0  0  0  0  0  0  0  0  0  0  0  0
  187.6960  177.4180  147.8400 N   0  0  0  0  0  1  0  0  0  0  0  0
  188.8700  178.0630  144.3400 C   0  0  0  0  0  3  0  0  0  0  0  0
  190.2380  177.8240  144.4880 C   0  0  0  0  0  0  0  0  0  0  0  0
  189.8880  177.2980  146.8200 C   0  0  0  0  0  3  0  0  0  0  0  0
  185.9750  177.9660  143.9200 C   0  0  0  0  0  3  0  0  0  0  0  0
  186.5320  178.1690  145.1950 C   0  0  0  0  0  0  0  0  0  0  0  0
  183.7900  178.6150  144.7320 C   0  0  0  0  0  0  0  0  0  0  0  0
  184.6140  178.1890  143.6890 C   0  0  0  0  0  3  0  0  0  0  0  0
  184.3270  178.8180  146.0060 C   0  0  0  0  0  3  0  0  0  0  0  0
  185.6870  178.5930  146.2340 C   0  0  0  0  0  3  0  0  0  0  0  0
  182.4410  178.8430  144.5000 O   0  0  0  0  0  1  0  0  0  0  0  0
  189.4520  178.2450  138.7860 C   0  0  0  0  0  2  0  0  0  0  0  0
  188.1910  178.0010  137.9480 C   0  0  1  0  0  3  0  0  0  0  0  0
  187.8380  179.1140  137.1810 O   0  0  0  0  0  0  0  0  0  0  0  0
  188.8420  180.0530  137.4390 C   0  0  0  0  0  1  0  0  0  0  0  0
  188.3730  176.7830  137.0600 C   0  0  0  0  0  2  0  0  0  0  0  0
  187.0720  176.0760  136.9160 C   0  0  0  0  0  3  0  0  0  0  0  0
  185.9560  176.7650  136.6850 C   0  0  0  0  0  3  0  0  0  0  0  0
  184.6470  176.0600  136.5460 C   0  0  0  0  0  2  0  0  0  0  0  0
  183.5580  177.0250  136.5890 N   0  0  0  0  0  2  0  0  0  0  0  0
  181.2760  176.7250  137.1090 O   0  0  0  0  0  0  0  0  0  0  0  0
  182.5900  176.5710  137.5790 C   0  0  2  0  0  0  0  0  0  0  0  0
  181.6370  177.5120  138.2250 C   0  0  1  0  0  3  0  0  0  0  0  0
  182.7750  175.3010  138.1270 O   0  0  0  0  0  1  0  0  0  0  0  0
  181.8180  178.9610  137.7800 C   0  0  2  0  0  3  0  0  0  0  0  0
  182.4230  179.8360  138.8900 C   0  0  2  0  0  3  0  0  0  0  0  0
  182.1030  181.1790  138.7040 O   0  0  0  0  0  1  0  0  0  0  0  0
  183.9360  179.6820  138.9890 C   0  0  0  0  0  2  0  0  0  0  0  0
  184.3500  179.6940  140.3250 O   0  0  0  0  0  0  0  0  0  0  0  0
  185.4720  178.8670  140.3520 C   0  0  0  0  0  1  0  0  0  0  0  0
  180.7000  179.6750  135.3110 S   0  0  0  0  0  1  0  0  0  0  0  0
  180.5540  179.5290  137.1230 C   0  0  0  0  0  2  0  0  0  0  0  0
  1  2  1  1  0  0  0
  1 30  1  0  0  0  0
  3 10  1  0  0  0  0
  4 21  1  6  0  0  0
  4 12  1  0  0  0  0
  5  8  1  0  0  0  0
  6  9  1  0  0  0  0
  7  5  1  0  0  0  0
  7  4  1  0  0  0  0
  8 13  1  0  0  0  0
  8  3  2  0  0  0  0
 10 11  1  0  0  0  0
 11  9  1  0  0  0  0
 11  1  1  1  0  0  0
 12  3  1  1  0  0  0
 12  6  1  0  0  0  0
 13 14  1  0  0  0  0
 15 14  1  0  0  0  0
 15 16  1  0  0  0  0
 16 17  1  0  0  0  0
 18 19  1  0  0  0  0
 18 20  1  0  0  0  0
 19 20  1  0  0  0  0
 19 17  1  0  0  0  0
 22 21  1  0  0  0  0
 22 23  1  0  0  0  0
 25 24  1  6  0  0  0
 25 23  1  0  0  0  0
 26 29  2  0  0  0  0
 27 28  1  0  0  0  0
 27 25  1  1  0  0  0
 29 27  1  0  0  0  0
 29 28  1  0  0  0  0
 30 31  2  0  0  0  0
 31 32  1  0  0  0  0
 32 33  1  0  0  0  0
 33 39  1  0  0  0  0
 34 40  1  0  0  0  0
 35 36  1  0  0  0  0
 36 40  2  0  0  0  0
 36 37  1  0  0  0  0
 38 39  1  0  0  0  0
 38 35  2  0  0  0  0
 39 34  2  0  0  0  0
 41 42  1  0  0  0  0
 42 35  1  0  0  0  0
 42 46  2  0  0  0  0
 43 45  2  0  0  0  0
 44 41  2  0  0  0  0
 44 43  1  0  0  0  0
 45 46  1  0  0  0  0
 47 43  1  0  0  0  0
 48  1  1  0  0  0  0
 49 52  1  6  0  0  0
 49 48  1  0  0  0  0
 50 51  1  0  0  0  0
 50 49  1  0  0  0  0
 53 52  1  0  0  0  0
 54 53  2  0  0  0  0
 55 56  1  0  0  0  0
 55 54  1  0  0  0  0
 56 58  1  0  0  0  0
 57 58  1  0  0  0  0
 57 59  1  0  0  0  0
 58 60  1  1  0  0  0
 58 59  1  0  0  0  0
 59 61  1  6  0  0  0
 61 68  1  1  0  0  0
 61 62  1  0  0  0  0
 62 63  1  6  0  0  0
 62 64  1  0  0  0  0
 64 65  1  0  0  0  0
 65 66  1  0  0  0  0
 67 68  1  0  0  0  0
M  END
>  <MODEL>
1

>  <REMARK>
 VINA RESULT:      -6.6      0.000      0.000
  Name = 
  30 active torsions:
  status: ('A' for Active; 'I' for Inactive)
    1  A    between atoms: C_4  and  C_25
    2  A    between atoms: C_4  and  N_65
    3  A    between atoms: O_6  and  C_38
    4  A    between atoms: N_7  and  N_22
    5  A    between atoms: N_7  and  N_68
    6  A    between atoms: C_8  and  C_12
    7  A    between atoms: C_9  and  C_25
    8  A    between atoms: C_13  and  N_24
    9  A    between atoms: O_14  and  C_63
   10  A    between atoms: C_17  and  C_43
   11  A    between atoms: C_20  and  C_50
   12  A    between atoms: C_20  and  C_63
   13  A    between atoms: C_21  and  C_44
   14  A    between atoms: C_21  and  N_65
   15  A    between atoms: N_22  and  C_49
   16  A    between atoms: N_24  and  C_56
   17  A    between atoms: C_26  and  C_34
   18  A    between atoms: C_26  and  C_38
   19  A    between atoms: C_30  and  C_59
   20  A    between atoms: C_32  and  C_56
   21  A    between atoms: C_34  and  C_55
   22  A    between atoms: C_34  and  C_64
   23  A    between atoms: C_35  and  C_50
   24  A    between atoms: C_36  and  C_54
   25  A    between atoms: C_36  and  C_60
   26  A    between atoms: C_38  and  C_43
   27  A    between atoms: C_40  and  C_49
   28  A    between atoms: C_48  and  C_50
   29  A    between atoms: C_54  and  C_67
   30  A    between atoms: C_59  and  N_68
                            x       y       z     vdW  Elec       q    Type
                         _______ _______ _______ _____ _____    ______ ____

>  <TORSDO>
F 30

$$$$
=
 OpenBabel10232412123D

 68 74  0  0  1  0  0  0  0  0999 V2000
  189.9340  176.9780  139.8530 C   0  0  2  0  0  0  0  0  0  0  0  0
  189.2220  175.7910  140.0680 O   0  0  0  0  0  1  0  0  0  0  0  0
  191.9190  175.2150  137.0140 C   0  0  0  0  0  0  0  0  0  0  0  0
  194.0970  176.0360  135.9410 C   0  0  2  0  0  3  0  0  0  0  0  0
  192.9120  174.0440  135.0470 C   0  0  0  0  0  2  0  0  0  0  0  0
  193.4840  176.6290  138.2460 N   0  0  0  0  0  2  0  0  0  0  0  0
  193.5480  175.3770  134.6810 C   0  0  0  0  0  2  0  0  0  0  0  0
  191.8660  174.1970  136.1220 C   0  0  0  0  0  0  0  0  0  0  0  0
  192.4420  177.0300  139.2110 C   0  0  0  0  0  2  0  0  0  0  0  0
  190.8820  175.3530  138.0980 C   0  0  0  0  0  2  0  0  0  0  0  0
  190.9940  176.7290  138.7620 C   0  0  1  0  0  3  0  0  0  0  0  0
  192.9490  176.3320  136.9120 C   0  0  2  0  0  3  0  0  0  0  0  0
  190.8050  173.1420  136.2160 C   0  0  0  0  0  2  0  0  0  0  0  0
  190.2630  172.8610  134.8970 N   0  0  0  0  0  2  0  0  0  0  0  0
  189.4310  173.9380  134.5670 N   0  0  0  0  0  2  0  0  0  0  0  0
  188.1540  173.4030  134.3500 N   0  0  0  0  0  2  0  0  0  0  0  0
  187.3230  173.7980  135.4750 C   0  0  0  0  0  2  0  0  0  0  0  0
  185.7780  171.9860  136.1310 C   0  0  0  0  0  2  0  0  0  0  0  0
  185.9170  173.2500  135.3070 C   0  0  0  0  0  3  0  0  0  0  0  0
  185.9790  171.8960  134.6320 C   0  0  0  0  0  2  0  0  0  0  0  0
  194.7860  177.3410  135.5680 C   0  0  0  0  0  2  0  0  0  0  0  0
  196.1480  177.0720  134.9570 C   0  0  0  0  0  2  0  0  0  0  0  0
  197.0020  176.4380  135.9500 N   0  0  0  0  0  2  0  0  0  0  0  0
  198.6060  175.5130  134.5120 O   0  0  0  0  0  1  0  0  0  0  0  0
  197.5340  175.2120  135.3640 C   0  0  1  0  0  3  0  0  0  0  0  0
  196.2550  172.2880  136.4290 O   0  0  0  0  0  0  0  0  0  0  0  0
  197.9220  174.2300  136.4810 C   0  0  1  0  0  3  0  0  0  0  0  0
  197.2170  174.4750  137.6300 O   0  0  0  0  0  0  0  0  0  0  0  0
  196.9240  173.3100  136.7320 C   0  0  0  0  0  0  0  0  0  0  0  0
  190.5890  177.3820  141.1480 C   0  0  0  0  0  3  0  0  0  0  0  0
  191.4350  176.5640  141.7760 C   0  0  0  0  0  3  0  0  0  0  0  0
  192.1220  176.9810  143.0270 C   0  0  0  0  0  2  0  0  0  0  0  0
  191.4400  178.2290  143.5580 C   0  0  0  0  0  2  0  0  0  0  0  0
  191.0010  177.3170  145.8370 C   0  0  0  0  0  3  0  0  0  0  0  0
  188.2370  177.8130  145.5690 C   0  0  0  0  0  0  0  0  0  0  0  0
  188.7590  177.2400  146.7600 C   0  0  0  0  0  0  0  0  0  0  0  0
  187.9250  176.9400  147.8750 N   0  0  0  0  0  1  0  0  0  0  0  0
  189.1360  178.1340  144.5350 C   0  0  0  0  0  3  0  0  0  0  0  0
  190.5040  177.8850  144.6620 C   0  0  0  0  0  0  0  0  0  0  0  0
  190.1300  176.9990  146.8790 C   0  0  0  0  0  3  0  0  0  0  0  0
  185.9280  178.1980  146.4730 C   0  0  0  0  0  3  0  0  0  0  0  0
  186.7850  178.0860  145.3640 C   0  0  0  0  0  0  0  0  0  0  0  0
  184.0430  178.6220  145.0170 C   0  0  0  0  0  0  0  0  0  0  0  0
  184.5660  178.4620  146.3020 C   0  0  0  0  0  3  0  0  0  0  0  0
  184.8820  178.5170  143.9050 C   0  0  0  0  0  3  0  0  0  0  0  0
  186.2430  178.2550  144.0800 C   0  0  0  0  0  3  0  0  0  0  0  0
  182.6890  178.8770  144.8480 O   0  0  0  0  0  1  0  0  0  0  0  0
  188.9710  178.1000  139.4130 C   0  0  0  0  0  2  0  0  0  0  0  0
  188.2870  177.9230  138.0510 C   0  0  1  0  0  3  0  0  0  0  0  0
  189.1260  178.2630  136.9870 O   0  0  0  0  0  0  0  0  0  0  0  0
  188.9170  179.6320  136.7950 C   0  0  0  0  0  1  0  0  0  0  0  0
  187.7810  176.5010  137.8930 C   0  0  0  0  0  2  0  0  0  0  0  0
  186.2930  176.5030  137.8860 C   0  0  0  0  0  3  0  0  0  0  0  0
  185.6240  177.6480  137.9950 C   0  0  0  0  0  3  0  0  0  0  0  0
  184.1310  177.6550  137.9940 C   0  0  0  0  0  2  0  0  0  0  0  0
  183.6400  178.9350  138.4830 N   0  0  0  0  0  2  0  0  0  0  0  0
  183.3030  177.7840  140.5150 O   0  0  0  0  0  0  0  0  0  0  0  0
  183.8040  178.9590  139.9320 C   0  0  2  0  0  0  0  0  0  0  0  0
  182.6330  178.9820  140.8470 C   0  0  1  0  0  3  0  0  0  0  0  0
  185.0710  179.2610  140.4330 O   0  0  0  0  0  1  0  0  0  0  0  0
  181.2920  179.0250  140.1180 C   0  0  2  0  0  3  0  0  0  0  0  0
  180.7970  180.4640  139.9010 C   0  0  2  0  0  3  0  0  0  0  0  0
  180.0180  180.8950  140.9720 O   0  0  0  0  0  1  0  0  0  0  0  0
  180.0100  180.6160  138.6050 C   0  0  0  0  0  2  0  0  0  0  0  0
  180.8260  181.1150  137.5850 O   0  0  0  0  0  0  0  0  0  0  0  0
  181.6050  182.0910  138.2040 C   0  0  0  0  0  1  0  0  0  0  0  0
  180.0540  178.3260  142.5330 S   0  0  0  0  0  1  0  0  0  0  0  0
  180.2630  178.0720  140.7390 C   0  0  0  0  0  2  0  0  0  0  0  0
  1  2  1  1  0  0  0
  1 30  1  0  0  0  0
  3 10  1  0  0  0  0
  4 21  1  6  0  0  0
  4 12  1  0  0  0  0
  5  8  1  0  0  0  0
  6  9  1  0  0  0  0
  7  5  1  0  0  0  0
  7  4  1  0  0  0  0
  8 13  1  0  0  0  0
  8  3  2  0  0  0  0
 10 11  1  0  0  0  0
 11  9  1  0  0  0  0
 11  1  1  1  0  0  0
 12  3  1  1  0  0  0
 12  6  1  0  0  0  0
 14 13  1  0  0  0  0
 15 14  1  0  0  0  0
 16 15  1  0  0  0  0
 16 17  1  0  0  0  0
 19 17  1  0  0  0  0
 19 18  1  0  0  0  0
 20 19  1  0  0  0  0
 20 18  1  0  0  0  0
 22 21  1  0  0  0  0
 22 23  1  0  0  0  0
 25 24  1  1  0  0  0
 25 23  1  0  0  0  0
 26 29  2  0  0  0  0
 27 25  1  6  0  0  0
 27 29  1  0  0  0  0
 27 28  1  0  0  0  0
 29 28  1  0  0  0  0
 30 31  2  0  0  0  0
 31 32  1  0  0  0  0
 32 33  1  0  0  0  0
 33 39  1  0  0  0  0
 34 40  1  0  0  0  0
 35 36  1  0  0  0  0
 36 40  2  0  0  0  0
 36 37  1  0  0  0  0
 38 39  1  0  0  0  0
 38 35  2  0  0  0  0
 39 34  2  0  0  0  0
 42 35  1  0  0  0  0
 42 41  2  0  0  0  0
 43 44  2  0  0  0  0
 44 41  1  0  0  0  0
 45 46  2  0  0  0  0
 45 43  1  0  0  0  0
 46 42  1  0  0  0  0
 47 43  1  0  0  0  0
 48  1  1  0  0  0  0
 49 52  1  6  0  0  0
 49 48  1  0  0  0  0
 50 49  1  0  0  0  0
 51 50  1  0  0  0  0
 53 52  1  0  0  0  0
 53 54  2  0  0  0  0
 55 54  1  0  0  0  0
 55 56  1  0  0  0  0
 56 58  1  0  0  0  0
 57 59  1  0  0  0  0
 58 60  1  1  0  0  0
 58 57  1  0  0  0  0
 58 59  1  0  0  0  0
 59 61  1  6  0  0  0
 61 68  1  1  0  0  0
 62 61  1  0  0  0  0
 62 63  1  1  0  0  0
 64 62  1  0  0  0  0
 65 66  1  0  0  0  0
 65 64  1  0  0  0  0
 68 67  1  0  0  0  0
M  END
>  <MODEL>
2

>  <REMARK>
 VINA RESULT:      -6.4      1.666      2.323
  Name = 
  30 active torsions:
  status: ('A' for Active; 'I' for Inactive)
    1  A    between atoms: C_4  and  C_25
    2  A    between atoms: C_4  and  N_65
    3  A    between atoms: O_6  and  C_38
    4  A    between atoms: N_7  and  N_22
    5  A    between atoms: N_7  and  N_68
    6  A    between atoms: C_8  and  C_12
    7  A    between atoms: C_9  and  C_25
    8  A    between atoms: C_13  and  N_24
    9  A    between atoms: O_14  and  C_63
   10  A    between atoms: C_17  and  C_43
   11  A    between atoms: C_20  and  C_50
   12  A    between atoms: C_20  and  C_63
   13  A    between atoms: C_21  and  C_44
   14  A    between atoms: C_21  and  N_65
   15  A    between atoms: N_22  and  C_49
   16  A    between atoms: N_24  and  C_56
   17  A    between atoms: C_26  and  C_34
   18  A    between atoms: C_26  and  C_38
   19  A    between atoms: C_30  and  C_59
   20  A    between atoms: C_32  and  C_56
   21  A    between atoms: C_34  and  C_55
   22  A    between atoms: C_34  and  C_64
   23  A    between atoms: C_35  and  C_50
   24  A    between atoms: C_36  and  C_54
   25  A    between atoms: C_36  and  C_60
   26  A    between atoms: C_38  and  C_43
   27  A    between atoms: C_40  and  C_49
   28  A    between atoms: C_48  and  C_50
   29  A    between atoms: C_54  and  C_67
   30  A    between atoms: C_59  and  N_68
                            x       y       z     vdW  Elec       q    Type
                         _______ _______ _______ _____ _____    ______ ____

>  <TORSDO>
F 30

$$$$
=
 OpenBabel10232412123D

 68 74  0  0  1  0  0  0  0  0999 V2000
  190.1560  175.4010  136.9960 C   0  0  2  0  0  0  0  0  0  0  0  0
  190.7080  176.2810  136.0560 O   0  0  0  0  0  1  0  0  0  0  0  0
  186.3620  176.2380  136.8800 C   0  0  0  0  0  0  0  0  0  0  0  0
  184.4800  174.6770  136.1100 C   0  0  2  0  0  3  0  0  0  0  0  0
  184.0120  177.0500  136.6720 C   0  0  0  0  0  2  0  0  0  0  0  0
  186.5820  173.8110  137.0450 N   0  0  0  0  0  2  0  0  0  0  0  0
  183.8160  175.9610  135.6280 C   0  0  0  0  0  2  0  0  0  0  0  0
  185.4680  177.2460  137.0150 C   0  0  0  0  0  0  0  0  0  0  0  0
  188.0510  173.8980  137.1390 C   0  0  0  0  0  2  0  0  0  0  0  0
  187.8110  176.4320  137.2420 C   0  0  0  0  0  2  0  0  0  0  0  0
  188.6460  175.2610  136.7160 C   0  0  1  0  0  3  0  0  0  0  0  0
  185.9900  174.8990  136.2580 C   0  0  2  0  0  3  0  0  0  0  0  0
  185.8770  178.5720  137.5810 C   0  0  0  0  0  2  0  0  0  0  0  0
  186.0170  178.4770  139.0250 N   0  0  0  0  0  2  0  0  0  0  0  0
  184.7570  178.1320  139.5280 N   0  0  0  0  0  2  0  0  0  0  0  0
  184.2210  179.2980  140.0920 N   0  0  0  0  0  2  0  0  0  0  0  0
  182.8540  179.4210  139.6140 C   0  0  0  0  0  2  0  0  0  0  0  0
  180.9560  179.4170  141.1940 C   0  0  0  0  0  2  0  0  0  0  0  0
  181.9300  178.5390  140.4340 C   0  0  0  0  0  3  0  0  0  0  0  0
  182.1470  178.8110  141.9080 C   0  0  0  0  0  2  0  0  0  0  0  0
  184.2340  173.5710  135.0940 C   0  0  0  0  0  2  0  0  0  0  0  0
  182.9560  172.8200  135.4180 C   0  0  0  0  0  2  0  0  0  0  0  0
  182.3820  173.3560  136.6430 N   0  0  0  0  0  2  0  0  0  0  0  0
  181.0780  171.5570  137.3870 O   0  0  0  0  0  1  0  0  0  0  0  0
  181.0330  172.8180  136.7760 C   0  0  1  0  0  3  0  0  0  0  0  0
  180.2790  176.0670  136.3300 O   0  0  0  0  0  0  0  0  0  0  0  0
  180.1500  173.8160  137.5440 C   0  0  1  0  0  3  0  0  0  0  0  0
  180.8830  174.5430  138.4440 O   0  0  0  0  0  0  0  0  0  0  0  0
  180.3820  175.1190  137.1530 C   0  0  0  0  0  0  0  0  0  0  0  0
  190.3900  175.9650  138.3730 C   0  0  0  0  0  3  0  0  0  0  0  0
  189.6510  176.9740  138.8380 C   0  0  0  0  0  3  0  0  0  0  0  0
  189.8460  177.4980  140.2150 C   0  0  0  0  0  2  0  0  0  0  0  0
  190.5870  176.4530  141.0290 C   0  0  0  0  0  2  0  0  0  0  0  0
  191.3210  176.3410  143.4100 C   0  0  0  0  0  3  0  0  0  0  0  0
  188.8100  177.2760  144.2920 C   0  0  0  0  0  0  0  0  0  0  0  0
  189.8400  176.9790  145.2230 C   0  0  0  0  0  0  0  0  0  0  0  0
  189.6680  177.1840  146.6220 N   0  0  0  0  0  1  0  0  0  0  0  0
  189.0790  177.1010  142.9210 C   0  0  0  0  0  3  0  0  0  0  0  0
  190.3200  176.6340  142.4820 C   0  0  0  0  0  0  0  0  0  0  0  0
  191.0800  176.5160  144.7720 C   0  0  0  0  0  3  0  0  0  0  0  0
  186.4350  177.8700  143.7400 C   0  0  0  0  0  3  0  0  0  0  0  0
  187.4590  177.7610  144.6970 C   0  0  0  0  0  0  0  0  0  0  0  0
  184.8900  178.6510  145.4300 C   0  0  0  0  0  0  0  0  0  0  0  0
  185.1600  178.3140  144.1030 C   0  0  0  0  0  3  0  0  0  0  0  0
  185.8960  178.5450  146.3940 C   0  0  0  0  0  3  0  0  0  0  0  0
  187.1690  178.0990  146.0290 C   0  0  0  0  0  3  0  0  0  0  0  0
  183.6260  179.0990  145.7870 O   0  0  0  0  0  1  0  0  0  0  0  0
  190.8460  174.0250  136.9000 C   0  0  0  0  0  2  0  0  0  0  0  0
  192.2130  173.9880  136.2070 C   0  0  1  0  0  3  0  0  0  0  0  0
  192.5350  172.7140  135.7330 O   0  0  0  0  0  0  0  0  0  0  0  0
  191.3570  172.2490  135.1400 C   0  0  0  0  0  1  0  0  0  0  0  0
  192.2610  175.0010  135.0780 C   0  0  0  0  0  2  0  0  0  0  0  0
  193.6790  175.3230  134.7610 C   0  0  0  0  0  3  0  0  0  0  0  0
  194.6340  175.0950  135.6600 C   0  0  0  0  0  3  0  0  0  0  0  0
  196.0580  175.4220  135.3490 C   0  0  0  0  0  2  0  0  0  0  0  0
  196.8210  175.5390  136.5830 N   0  0  0  0  0  2  0  0  0  0  0  0
  197.2240  174.1310  138.4330 O   0  0  0  0  0  0  0  0  0  0  0  0
  196.2410  174.6270  137.5620 C   0  0  2  0  0  0  0  0  0  0  0  0
  196.5990  173.1850  137.5900 C   0  0  1  0  0  3  0  0  0  0  0  0
  195.1250  175.0700  138.2740 O   0  0  0  0  0  1  0  0  0  0  0  0
  197.5710  172.7780  136.4850 C   0  0  2  0  0  3  0  0  0  0  0  0
  196.9850  171.6910  135.5700 C   0  0  2  0  0  3  0  0  0  0  0  0
  195.6260  171.5050  135.8150 O   0  0  0  0  0  1  0  0  0  0  0  0
  197.7150  170.3600  135.7110 C   0  0  0  0  0  2  0  0  0  0  0  0
  197.0500  169.5230  136.6120 O   0  0  0  0  0  0  0  0  0  0  0  0
  197.1490  168.2520  136.0490 C   0  0  0  0  0  1  0  0  0  0  0  0
  200.2280  173.6710  136.4440 S   0  0  0  0  0  1  0  0  0  0  0  0
  198.9750  172.4810  137.0270 C   0  0  0  0  0  2  0  0  0  0  0  0
  1  2  1  6  0  0  0
  1 30  1  0  0  0  0
  3  8  2  0  0  0  0
  3 10  1  0  0  0  0
  4 21  1  6  0  0  0
  4 12  1  0  0  0  0
  5  8  1  0  0  0  0
  6  9  1  0  0  0  0
  7  4  1  0  0  0  0
  7  5  1  0  0  0  0
  8 13  1  0  0  0  0
 11  1  1  1  0  0  0
 11  9  1  0  0  0  0
 11 10  1  0  0  0  0
 12  3  1  1  0  0  0
 12  6  1  0  0  0  0
 13 14  1  0  0  0  0
 14 15  1  0  0  0  0
 15 16  1  0  0  0  0
 17 16  1  0  0  0  0
 17 19  1  0  0  0  0
 18 20  1  0  0  0  0
 19 18  1  0  0  0  0
 19 20  1  0  0  0  0
 21 22  1  0  0  0  0
 22 23  1  0  0  0  0
 23 25  1  0  0  0  0
 25 24  1  1  0  0  0
 26 29  2  0  0  0  0
 27 25  1  6  0  0  0
 27 28  1  0  0  0  0
 29 27  1  0  0  0  0
 29 28  1  0  0  0  0
 30 31  2  0  0  0  0
 31 32  1  0  0  0  0
 32 33  1  0  0  0  0
 33 39  1  0  0  0  0
 34 40  1  0  0  0  0
 35 42  1  0  0  0  0
 35 36  1  0  0  0  0
 36 37  1  0  0  0  0
 38 35  2  0  0  0  0
 39 38  1  0  0  0  0
 39 34  2  0  0  0  0
 40 36  2  0  0  0  0
 41 44  2  0  0  0  0
 41 42  1  0  0  0  0
 42 46  2  0  0  0  0
 43 47  1  0  0  0  0
 43 45  2  0  0  0  0
 44 43  1  0  0  0  0
 46 45  1  0  0  0  0
 48  1  1  0  0  0  0
 49 52  1  6  0  0  0
 49 48  1  0  0  0  0
 50 49  1  0  0  0  0
 51 50  1  0  0  0  0
 53 52  1  0  0  0  0
 53 54  2  0  0  0  0
 55 54  1  0  0  0  0
 55 56  1  0  0  0  0
 56 58  1  0  0  0  0
 58 59  1  0  0  0  0
 58 60  1  1  0  0  0
 58 57  1  0  0  0  0
 59 61  1  6  0  0  0
 59 57  1  0  0  0  0
 61 68  1  1  0  0  0
 62 64  1  0  0  0  0
 62 63  1  1  0  0  0
 62 61  1  0  0  0  0
 64 65  1  0  0  0  0
 66 65  1  0  0  0  0
 67 68  1  0  0  0  0
M  END
>  <MODEL>
3

>  <REMARK>
 VINA RESULT:      -5.9      3.433     10.817
  Name = 
  30 active torsions:
  status: ('A' for Active; 'I' for Inactive)
    1  A    between atoms: C_4  and  C_25
    2  A    between atoms: C_4  and  N_65
    3  A    between atoms: O_6  and  C_38
    4  A    between atoms: N_7  and  N_22
    5  A    between atoms: N_7  and  N_68
    6  A    between atoms: C_8  and  C_12
    7  A    between atoms: C_9  and  C_25
    8  A    between atoms: C_13  and  N_24
    9  A    between atoms: O_14  and  C_63
   10  A    between atoms: C_17  and  C_43
   11  A    between atoms: C_20  and  C_50
   12  A    between atoms: C_20  and  C_63
   13  A    between atoms: C_21  and  C_44
   14  A    between atoms: C_21  and  N_65
   15  A    between atoms: N_22  and  C_49
   16  A    between atoms: N_24  and  C_56
   17  A    between atoms: C_26  and  C_34
   18  A    between atoms: C_26  and  C_38
   19  A    between atoms: C_30  and  C_59
   20  A    between atoms: C_32  and  C_56
   21  A    between atoms: C_34  and  C_55
   22  A    between atoms: C_34  and  C_64
   23  A    between atoms: C_35  and  C_50
   24  A    between atoms: C_36  and  C_54
   25  A    between atoms: C_36  and  C_60
   26  A    between atoms: C_38  and  C_43
   27  A    between atoms: C_40  and  C_49
   28  A    between atoms: C_48  and  C_50
   29  A    between atoms: C_54  and  C_67
   30  A    between atoms: C_59  and  N_68
                            x       y       z     vdW  Elec       q    Type
                         _______ _______ _______ _____ _____    ______ ____

>  <TORSDO>
F 30

$$$$
=
 OpenBabel10232412123D

 68 74  0  0  1  0  0  0  0  0999 V2000
  189.8680  176.1640  142.5760 C   0  0  2  0  0  0  0  0  0  0  0  0
  189.7340  174.7700  142.6320 O   0  0  0  0  0  1  0  0  0  0  0  0
  188.4540  177.4090  145.9760 C   0  0  0  0  0  0  0  0  0  0  0  0
  186.1050  178.3410  146.3990 C   0  0  2  0  0  3  0  0  0  0  0  0
  187.8220  178.3620  148.1930 C   0  0  0  0  0  2  0  0  0  0  0  0
  186.5600  176.7520  144.5800 N   0  0  0  0  0  2  0  0  0  0  0  0
  186.7990  179.2050  147.4460 C   0  0  0  0  0  2  0  0  0  0  0  0
  188.7960  177.6960  147.2540 C   0  0  0  0  0  0  0  0  0  0  0  0
  187.4510  176.2990  143.4950 C   0  0  0  0  0  2  0  0  0  0  0  0
  189.4240  176.7260  145.0470 C   0  0  0  0  0  2  0  0  0  0  0  0
  188.9100  176.7950  143.6060 C   0  0  1  0  0  3  0  0  0  0  0  0
  187.1290  177.8500  145.3700 C   0  0  2  0  0  3  0  0  0  0  0  0
  190.1320  177.2960  147.8060 C   0  0  0  0  0  2  0  0  0  0  0  0
  191.1550  177.4320  146.7820 N   0  0  0  0  0  2  0  0  0  0  0  0
  191.7510  176.1730  146.6410 N   0  0  0  0  0  2  0  0  0  0  0  0
  191.9210  175.6640  147.9360 N   0  0  0  0  0  2  0  0  0  0  0  0
  193.1880  176.1700  148.4370 C   0  0  0  0  0  2  0  0  0  0  0  0
  194.3160  177.4010  150.2560 C   0  0  0  0  0  2  0  0  0  0  0  0
  192.9910  176.8340  149.7870 C   0  0  0  0  0  3  0  0  0  0  0  0
  193.8010  176.1000  150.8350 C   0  0  0  0  0  2  0  0  0  0  0  0
  185.0400  179.1660  145.6910 C   0  0  0  0  0  2  0  0  0  0  0  0
  184.4570  178.3970  144.5200 C   0  0  0  0  0  2  0  0  0  0  0  0
  184.0370  179.3360  143.4910 N   0  0  0  0  0  2  0  0  0  0  0  0
  181.8090  179.5980  142.8130 O   0  0  0  0  0  1  0  0  0  0  0  0
  182.9170  178.7400  142.7730 C   0  0  1  0  0  3  0  0  0  0  0  0
  185.6880  179.3610  140.9680 O   0  0  0  0  0  0  0  0  0  0  0  0
  183.3460  178.3950  141.3370 C   0  0  1  0  0  3  0  0  0  0  0  0
  183.0610  179.4170  140.4700 O   0  0  0  0  0  0  0  0  0  0  0  0
  184.4530  179.1170  140.9400 C   0  0  0  0  0  0  0  0  0  0  0  0
  189.5260  176.6210  141.1820 C   0  0  0  0  0  3  0  0  0  0  0  0
  189.1110  177.8660  140.9500 C   0  0  0  0  0  3  0  0  0  0  0  0
  188.8220  178.3350  139.5690 C   0  0  0  0  0  2  0  0  0  0  0  0
  189.7800  177.6440  138.6150 C   0  0  0  0  0  2  0  0  0  0  0  0
  189.8300  175.5320  137.2900 C   0  0  0  0  0  3  0  0  0  0  0  0
  187.0200  175.5460  137.0460 C   0  0  0  0  0  0  0  0  0  0  0  0
  187.7920  174.5040  136.4680 C   0  0  0  0  0  0  0  0  0  0  0  0
  187.1850  173.4090  135.7890 N   0  0  0  0  0  1  0  0  0  0  0  0
  187.6930  176.5620  137.7500 C   0  0  0  0  0  3  0  0  0  0  0  0
  189.0840  176.5610  137.8680 C   0  0  0  0  0  0  0  0  0  0  0  0
  189.1840  174.5100  136.5950 C   0  0  0  0  0  3  0  0  0  0  0  0
  184.9050  176.8450  136.6740 C   0  0  0  0  0  3  0  0  0  0  0  0
  185.5340  175.6150  136.9400 C   0  0  0  0  0  0  0  0  0  0  0  0
  182.7320  175.7810  136.7110 C   0  0  0  0  0  0  0  0  0  0  0  0
  183.5140  176.9280  136.5620 C   0  0  0  0  0  3  0  0  0  0  0  0
  183.3420  174.5510  136.9720 C   0  0  0  0  0  3  0  0  0  0  0  0
  184.7330  174.4710  137.0810 C   0  0  0  0  0  3  0  0  0  0  0  0
  181.3510  175.8660  136.6070 O   0  0  0  0  0  1  0  0  0  0  0  0
  191.3250  176.5670  142.8870 C   0  0  0  0  0  2  0  0  0  0  0  0
  191.7050  178.0290  142.6230 C   0  0  1  0  0  3  0  0  0  0  0  0
  191.7830  178.7790  143.7980 O   0  0  0  0  0  0  0  0  0  0  0  0
  190.7380  179.7030  143.6980 C   0  0  0  0  0  1  0  0  0  0  0  0
  193.0140  178.1050  141.8580 C   0  0  0  0  0  2  0  0  0  0  0  0
  192.7770  177.7460  140.4340 C   0  0  0  0  0  3  0  0  0  0  0  0
  193.4470  176.7390  139.8760 C   0  0  0  0  0  3  0  0  0  0  0  0
  193.2170  176.3780  138.4460 C   0  0  0  0  0  2  0  0  0  0  0  0
  194.1420  175.3290  138.0440 N   0  0  0  0  0  2  0  0  0  0  0  0
  194.0820  174.0000  136.0960 O   0  0  0  0  0  0  0  0  0  0  0  0
  194.1990  175.3100  136.5870 C   0  0  2  0  0  0  0  0  0  0  0  0
  195.3150  174.6480  135.8600 C   0  0  1  0  0  3  0  0  0  0  0  0
  193.3520  176.1770  135.8970 O   0  0  0  0  0  1  0  0  0  0  0  0
  196.3760  174.0570  136.7850 C   0  0  2  0  0  3  0  0  0  0  0  0
  197.7430  174.7370  136.6070 C   0  0  2  0  0  3  0  0  0  0  0  0
  198.0600  175.5270  137.7090 O   0  0  0  0  0  1  0  0  0  0  0  0
  197.8070  175.5820  135.3390 C   0  0  0  0  0  2  0  0  0  0  0  0
  198.6050  174.9640  134.3710 O   0  0  0  0  0  0  0  0  0  0  0  0
  199.9000  175.0400  134.8830 C   0  0  0  0  0  1  0  0  0  0  0  0
  196.9400  171.8800  135.1120 S   0  0  0  0  0  1  0  0  0  0  0  0
  196.4030  172.5240  136.7320 C   0  0  0  0  0  2  0  0  0  0  0  0
  1  2  1  1  0  0  0
  1 48  1  0  0  0  0
  3  8  2  0  0  0  0
  4 21  1  6  0  0  0
  4  7  1  0  0  0  0
  7  5  1  0  0  0  0
  8 13  1  0  0  0  0
  8  5  1  0  0  0  0
  9 11  1  0  0  0  0
  9  6  1  0  0  0  0
 10  3  1  0  0  0  0
 11  1  1  6  0  0  0
 11 10  1  0  0  0  0
 12  6  1  1  0  0  0
 12  3  1  0  0  0  0
 12  4  1  0  0  0  0
 14 13  1  0  0  0  0
 15 14  1  0  0  0  0
 15 16  1  0  0  0  0
 16 17  1  0  0  0  0
 17 19  1  0  0  0  0
 18 20  1  0  0  0  0
 19 18  1  0  0  0  0
 19 20  1  0  0  0  0
 22 21  1  0  0  0  0
 23 22  1  0  0  0  0
 25 24  1  6  0  0  0
 25 23  1  0  0  0  0
 27 25  1  1  0  0  0
 28 29  1  0  0  0  0
 28 27  1  0  0  0  0
 29 26  2  0  0  0  0
 29 27  1  0  0  0  0
 30  1  1  0  0  0  0
 31 30  2  0  0  0  0
 32 31  1  0  0  0  0
 33 32  1  0  0  0  0
 34 39  1  0  0  0  0
 35 38  1  0  0  0  0
 36 40  1  0  0  0  0
 36 35  2  0  0  0  0
 37 36  1  0  0  0  0
 38 39  2  0  0  0  0
 39 33  1  0  0  0  0
 40 34  2  0  0  0  0
 41 42  1  0  0  0  0
 42 35  1  0  0  0  0
 42 46  2  0  0  0  0
 43 45  2  0  0  0  0
 44 41  2  0  0  0  0
 44 43  1  0  0  0  0
 45 46  1  0  0  0  0
 47 43  1  0  0  0  0
 49 52  1  1  0  0  0
 49 48  1  0  0  0  0
 49 50  1  0  0  0  0
 51 50  1  0  0  0  0
 53 52  1  0  0  0  0
 54 53  2  0  0  0  0
 55 54  1  0  0  0  0
 56 55  1  0  0  0  0
 57 58  1  0  0  0  0
 58 60  1  6  0  0  0
 58 56  1  0  0  0  0
 59 57  1  0  0  0  0
 59 58  1  0  0  0  0
 59 61  1  1  0  0  0
 61 68  1  6  0  0  0
 62 61  1  0  0  0  0
 62 63  1  1  0  0  0
 64 62  1  0  0  0  0
 65 66  1  0  0  0  0
 65 64  1  0  0  0  0
 67 68  1  0  0  0  0
M  END
>  <MODEL>
4

>  <REMARK>
 VINA RESULT:      -5.3      3.259     12.182
  Name = 
  30 active torsions:
  status: ('A' for Active; 'I' for Inactive)
    1  A    between atoms: C_4  and  C_25
    2  A    between atoms: C_4  and  N_65
    3  A    between atoms: O_6  and  C_38
    4  A    between atoms: N_7  and  N_22
    5  A    between atoms: N_7  and  N_68
    6  A    between atoms: C_8  and  C_12
    7  A    between atoms: C_9  and  C_25
    8  A    between atoms: C_13  and  N_24
    9  A    between atoms: O_14  and  C_63
   10  A    between atoms: C_17  and  C_43
   11  A    between atoms: C_20  and  C_50
   12  A    between atoms: C_20  and  C_63
   13  A    between atoms: C_21  and  C_44
   14  A    between atoms: C_21  and  N_65
   15  A    between atoms: N_22  and  C_49
   16  A    between atoms: N_24  and  C_56
   17  A    between atoms: C_26  and  C_34
   18  A    between atoms: C_26  and  C_38
   19  A    between atoms: C_30  and  C_59
   20  A    between atoms: C_32  and  C_56
   21  A    between atoms: C_34  and  C_55
   22  A    between atoms: C_34  and  C_64
   23  A    between atoms: C_35  and  C_50
   24  A    between atoms: C_36  and  C_54
   25  A    between atoms: C_36  and  C_60
   26  A    between atoms: C_38  and  C_43
   27  A    between atoms: C_40  and  C_49
   28  A    between atoms: C_48  and  C_50
   29  A    between atoms: C_54  and  C_67
   30  A    between atoms: C_59  and  N_68
                            x       y       z     vdW  Elec       q    Type
                         _______ _______ _______ _____ _____    ______ ____

>  <TORSDO>
F 30

$$$$
=
 OpenBabel10232412123D

 68 74  0  0  1  0  0  0  0  0999 V2000
  188.3800  177.7600  139.1480 C   0  0  2  0  0  0  0  0  0  0  0  0
  189.0670  178.9100  138.7370 O   0  0  0  0  0  1  0  0  0  0  0  0
  187.3510  178.0390  142.8860 C   0  0  0  0  0  0  0  0  0  0  0  0
  188.8430  177.5670  144.9160 C   0  0  2  0  0  3  0  0  0  0  0  0
  186.4270  178.0630  145.2030 C   0  0  0  0  0  2  0  0  0  0  0  0
  189.7770  178.2960  142.7620 N   0  0  0  0  0  2  0  0  0  0  0  0
  187.5480  177.1030  145.5710 C   0  0  0  0  0  2  0  0  0  0  0  0
  186.2930  178.2270  143.7100 C   0  0  0  0  0  0  0  0  0  0  0  0
  189.7630  178.2160  141.2900 C   0  0  0  0  0  2  0  0  0  0  0  0
  187.2180  178.2220  141.3970 C   0  0  0  0  0  2  0  0  0  0  0  0
  188.4530  177.6620  140.6850 C   0  0  1  0  0  3  0  0  0  0  0  0
  188.6950  177.5300  143.3910 C   0  0  2  0  0  3  0  0  0  0  0  0
  184.9670  178.6760  143.1750 C   0  0  0  0  0  2  0  0  0  0  0  0
  184.1250  179.1490  144.2620 N   0  0  0  0  0  2  0  0  0  0  0  0
  183.0410  179.8110  143.6720 N   0  0  0  0  0  2  0  0  0  0  0  0
  181.8920  179.0930  144.0300 N   0  0  0  0  0  2  0  0  0  0  0  0
  181.4090  178.4240  142.8340 C   0  0  0  0  0  2  0  0  0  0  0  0
  179.9950  178.7200  140.8310 C   0  0  0  0  0  2  0  0  0  0  0  0
  180.2170  179.1710  142.2600 C   0  0  0  0  0  3  0  0  0  0  0  0
  180.6740  180.0450  141.1110 C   0  0  0  0  0  2  0  0  0  0  0  0
  189.9780  176.6420  145.3310 C   0  0  0  0  0  2  0  0  0  0  0  0
  191.1320  177.4370  145.9130 C   0  0  0  0  0  2  0  0  0  0  0  0
  191.2810  177.1040  147.3220 N   0  0  0  0  0  2  0  0  0  0  0  0
  192.1570  175.2610  146.1680 O   0  0  0  0  0  1  0  0  0  0  0  0
  191.6780  175.7040  147.4100 C   0  0  1  0  0  3  0  0  0  0  0  0
  193.0120  177.7970  149.6820 O   0  0  0  0  0  0  0  0  0  0  0  0
  192.7080  175.5260  148.5390 C   0  0  1  0  0  3  0  0  0  0  0  0
  193.9710  175.8500  148.1180 O   0  0  0  0  0  0  0  0  0  0  0  0
  193.1630  176.7380  149.0180 C   0  0  0  0  0  0  0  0  0  0  0  0
  189.0280  176.5610  138.5070 C   0  0  0  0  0  3  0  0  0  0  0  0
  190.3010  176.5980  138.1100 C   0  0  0  0  0  3  0  0  0  0  0  0
  190.9590  175.4000  137.5250 C   0  0  0  0  0  2  0  0  0  0  0  0
  192.2790  175.1780  138.2390 C   0  0  0  0  0  2  0  0  0  0  0  0
  193.5310  176.0620  136.2700 C   0  0  0  0  0  3  0  0  0  0  0  0
  195.3720  173.9290  136.4050 C   0  0  0  0  0  0  0  0  0  0  0  0
  195.4980  174.9340  135.4090 C   0  0  0  0  0  0  0  0  0  0  0  0
  196.5750  174.9340  134.4770 N   0  0  0  0  0  1  0  0  0  0  0  0
  194.3120  174.0330  137.3260 C   0  0  0  0  0  3  0  0  0  0  0  0
  193.3950  175.0850  137.2580 C   0  0  0  0  0  0  0  0  0  0  0  0
  194.5780  175.9850  135.3530 C   0  0  0  0  0  3  0  0  0  0  0  0
  197.6940  172.9790  136.4370 C   0  0  0  0  0  3  0  0  0  0  0  0
  196.3050  172.7720  136.5190 C   0  0  0  0  0  0  0  0  0  0  0  0
  198.1000  170.6150  136.7500 C   0  0  0  0  0  0  0  0  0  0  0  0
  198.5850  171.9080  136.5500 C   0  0  0  0  0  3  0  0  0  0  0  0
  196.7230  170.3930  136.8380 C   0  0  0  0  0  3  0  0  0  0  0  0
  195.8350  171.4660  136.7270 C   0  0  0  0  0  3  0  0  0  0  0  0
  198.9860  169.5510  136.8550 O   0  0  0  0  0  1  0  0  0  0  0  0
  186.9080  177.8330  138.6890 C   0  0  0  0  0  2  0  0  0  0  0  0
  186.6640  178.1960  137.2190 C   0  0  1  0  0  3  0  0  0  0  0  0
  187.5800  179.1380  136.7440 O   0  0  0  0  0  0  0  0  0  0  0  0
  188.2210  178.5000  135.6770 C   0  0  0  0  0  1  0  0  0  0  0  0
  186.6920  176.9480  136.3540 C   0  0  0  0  0  2  0  0  0  0  0  0
  185.3460  176.7270  135.7600 C   0  0  0  0  0  3  0  0  0  0  0  0
  184.3750  177.6180  135.9500 C   0  0  0  0  0  3  0  0  0  0  0  0
  183.0210  177.3980  135.3610 C   0  0  0  0  0  2  0  0  0  0  0  0
  182.7370  175.9720  135.2880 N   0  0  0  0  0  2  0  0  0  0  0  0
  182.9950  175.4480  137.5740 O   0  0  0  0  0  0  0  0  0  0  0  0
  182.0720  175.5800  136.5240 C   0  0  2  0  0  0  0  0  0  0  0  0
  182.3370  174.2660  137.1680 C   0  0  1  0  0  3  0  0  0  0  0  0
  180.9650  176.3280  136.9270 O   0  0  0  0  0  1  0  0  0  0  0  0
  183.3150  173.3920  136.3840 C   0  0  2  0  0  3  0  0  0  0  0  0
  182.6120  172.5830  135.2820 C   0  0  2  0  0  3  0  0  0  0  0  0
  181.2340  172.5480  135.4840 O   0  0  0  0  0  1  0  0  0  0  0  0
  183.1470  171.1600  135.1780 C   0  0  0  0  0  2  0  0  0  0  0  0
  184.2850  171.1160  134.3660 O   0  0  0  0  0  0  0  0  0  0  0  0
  185.0870  170.1300  134.9390 C   0  0  0  0  0  1  0  0  0  0  0  0
  185.9980  172.9410  137.0570 S   0  0  0  0  0  1  0  0  0  0  0  0
  184.2280  172.5750  137.3060 C   0  0  0  0  0  2  0  0  0  0  0  0
  1  2  1  6  0  0  0
  3 12  1  0  0  0  0
  3  8  2  0  0  0  0
  4 21  1  6  0  0  0
  4  7  1  0  0  0  0
  5  7  1  0  0  0  0
  8  5  1  0  0  0  0
  9  6  1  0  0  0  0
 10  3  1  0  0  0  0
 11  1  1  6  0  0  0
 11  9  1  0  0  0  0
 11 10  1  0  0  0  0
 12  6  1  6  0  0  0
 12  4  1  0  0  0  0
 13  8  1  0  0  0  0
 13 14  1  0  0  0  0
 15 16  1  0  0  0  0
 15 14  1  0  0  0  0
 17 16  1  0  0  0  0
 18 20  1  0  0  0  0
 18 19  1  0  0  0  0
 19 17  1  0  0  0  0
 20 19  1  0  0  0  0
 21 22  1  0  0  0  0
 22 23  1  0  0  0  0
 23 25  1  0  0  0  0
 25 24  1  6  0  0  0
 27 25  1  6  0  0  0
 27 29  1  0  0  0  0
 28 27  1  0  0  0  0
 28 29  1  0  0  0  0
 29 26  2  0  0  0  0
 30  1  1  0  0  0  0
 31 30  2  0  0  0  0
 32 31  1  0  0  0  0
 32 33  1  0  0  0  0
 34 39  1  0  0  0  0
 35 42  1  0  0  0  0
 35 38  1  0  0  0  0
 36 35  2  0  0  0  0
 37 36  1  0  0  0  0
 39 38  2  0  0  0  0
 39 33  1  0  0  0  0
 40 36  1  0  0  0  0
 40 34  2  0  0  0  0
 41 42  2  0  0  0  0
 41 44  1  0  0  0  0
 42 46  1  0  0  0  0
 43 45  1  0  0  0  0
 43 47  1  0  0  0  0
 44 43  2  0  0  0  0
 46 45  2  0  0  0  0
 48  1  1  0  0  0  0
 49 52  1  6  0  0  0
 49 48  1  0  0  0  0
 50 49  1  0  0  0  0
 51 50  1  0  0  0  0
 53 54  2  0  0  0  0
 53 52  1  0  0  0  0
 55 54  1  0  0  0  0
 56 55  1  0  0  0  0
 56 58  1  0  0  0  0
 58 60  1  1  0  0  0
 58 59  1  0  0  0  0
 58 57  1  0  0  0  0
 59 61  1  6  0  0  0
 59 57  1  0  0  0  0
 61 68  1  1  0  0  0
 62 63  1  1  0  0  0
 62 61  1  0  0  0  0
 64 62  1  0  0  0  0
 65 66  1  0  0  0  0
 65 64  1  0  0  0  0
 67 68  1  0  0  0  0
M  END
>  <MODEL>
5

>  <REMARK>
 VINA RESULT:      -5.1      3.524     10.408
  Name = 
  30 active torsions:
  status: ('A' for Active; 'I' for Inactive)
    1  A    between atoms: C_4  and  C_25
    2  A    between atoms: C_4  and  N_65
    3  A    between atoms: O_6  and  C_38
    4  A    between atoms: N_7  and  N_22
    5  A    between atoms: N_7  and  N_68
    6  A    between atoms: C_8  and  C_12
    7  A    between atoms: C_9  and  C_25
    8  A    between atoms: C_13  and  N_24
    9  A    between atoms: O_14  and  C_63
   10  A    between atoms: C_17  and  C_43
   11  A    between atoms: C_20  and  C_50
   12  A    between atoms: C_20  and  C_63
   13  A    between atoms: C_21  and  C_44
   14  A    between atoms: C_21  and  N_65
   15  A    between atoms: N_22  and  C_49
   16  A    between atoms: N_24  and  C_56
   17  A    between atoms: C_26  and  C_34
   18  A    between atoms: C_26  and  C_38
   19  A    between atoms: C_30  and  C_59
   20  A    between atoms: C_32  and  C_56
   21  A    between atoms: C_34  and  C_55
   22  A    between atoms: C_34  and  C_64
   23  A    between atoms: C_35  and  C_50
   24  A    between atoms: C_36  and  C_54
   25  A    between atoms: C_36  and  C_60
   26  A    between atoms: C_38  and  C_43
   27  A    between atoms: C_40  and  C_49
   28  A    between atoms: C_48  and  C_50
   29  A    between atoms: C_54  and  C_67
   30  A    between atoms: C_59  and  N_68
                            x       y       z     vdW  Elec       q    Type
                         _______ _______ _______ _____ _____    ______ ____

>  <TORSDO>
F 30

$$$$
=
 OpenBabel10232412123D

 68 74  0  0  1  0  0  0  0  0999 V2000
  189.5580  176.4810  142.8880 C   0  0  2  0  0  0  0  0  0  0  0  0
  189.5210  175.0860  143.0100 O   0  0  0  0  0  1  0  0  0  0  0  0
  187.9890  177.6700  146.2400 C   0  0  0  0  0  0  0  0  0  0  0  0
  185.6170  178.5800  146.5740 C   0  0  2  0  0  3  0  0  0  0  0  0
  187.2550  178.5890  148.4400 C   0  0  0  0  0  2  0  0  0  0  0  0
  186.1620  177.0190  144.7550 N   0  0  0  0  0  2  0  0  0  0  0  0
  186.2590  179.4340  147.6600 C   0  0  0  0  0  2  0  0  0  0  0  0
  188.2740  177.9430  147.5360 C   0  0  0  0  0  0  0  0  0  0  0  0
  187.1020  176.5870  143.7040 C   0  0  0  0  0  2  0  0  0  0  0  0
  189.0030  177.0070  145.3450 C   0  0  0  0  0  2  0  0  0  0  0  0
  188.5520  177.0910  143.8840 C   0  0  1  0  0  3  0  0  0  0  0  0
  186.6880  178.1100  145.5840 C   0  0  2  0  0  3  0  0  0  0  0  0
  189.5870  177.5440  148.1390 C   0  0  0  0  0  2  0  0  0  0  0  0
  190.4350  176.9320  147.1290 N   0  0  0  0  0  2  0  0  0  0  0  0
  191.0620  175.8380  147.7400 N   0  0  0  0  0  2  0  0  0  0  0  0
  192.4380  175.9960  147.5250 N   0  0  0  0  0  2  0  0  0  0  0  0
  193.1140  175.6180  148.7540 C   0  0  0  0  0  2  0  0  0  0  0  0
  193.9170  176.8290  150.7500 C   0  0  0  0  0  2  0  0  0  0  0  0
  193.9970  176.7540  149.2390 C   0  0  0  0  0  3  0  0  0  0  0  0
  193.1390  177.8130  149.9010 C   0  0  0  0  0  2  0  0  0  0  0  0
  184.5770  179.4070  145.8320 C   0  0  0  0  0  2  0  0  0  0  0  0
  183.7840  178.5370  144.8740 C   0  0  0  0  0  2  0  0  0  0  0  0
  182.9940  179.3860  143.9970 N   0  0  0  0  0  2  0  0  0  0  0  0
  184.9180  180.2900  143.0110 O   0  0  0  0  0  1  0  0  0  0  0  0
  183.7430  179.5690  142.7590 C   0  0  1  0  0  3  0  0  0  0  0  0
  185.5040  178.5900  140.0640 O   0  0  0  0  0  0  0  0  0  0  0  0
  184.0140  178.2020  142.1100 C   0  0  1  0  0  3  0  0  0  0  0  0
  183.1250  177.9420  141.1000 O   0  0  0  0  0  0  0  0  0  0  0  0
  184.5510  178.3270  140.8450 C   0  0  0  0  0  0  0  0  0  0  0  0
  189.1940  176.8460  141.4740 C   0  0  0  0  0  3  0  0  0  0  0  0
  189.0230  178.1190  141.1140 C   0  0  0  0  0  3  0  0  0  0  0  0
  188.7140  178.4860  139.7070 C   0  0  0  0  0  2  0  0  0  0  0  0
  188.9560  177.2720  138.8280 C   0  0  0  0  0  2  0  0  0  0  0  0
  188.2740  178.0060  136.5440 C   0  0  0  0  0  3  0  0  0  0  0  0
  185.9240  176.4520  136.6800 C   0  0  0  0  0  0  0  0  0  0  0  0
  186.2190  177.2200  135.5220 C   0  0  0  0  0  0  0  0  0  0  0  0
  185.3750  177.2020  134.3740 N   0  0  0  0  0  1  0  0  0  0  0  0
  186.8380  176.4800  137.7490 C   0  0  0  0  0  3  0  0  0  0  0  0
  188.0000  177.2530  137.6870 C   0  0  0  0  0  0  0  0  0  0  0  0
  187.3870  177.9870  135.4690 C   0  0  0  0  0  3  0  0  0  0  0  0
  184.5460  174.4530  136.0470 C   0  0  0  0  0  3  0  0  0  0  0  0
  184.6930  175.6220  136.8150 C   0  0  0  0  0  0  0  0  0  0  0  0
  182.3910  174.0180  137.0580 C   0  0  0  0  0  0  0  0  0  0  0  0
  183.4030  173.6570  136.1670 C   0  0  0  0  0  3  0  0  0  0  0  0
  182.5230  175.1740  137.8300 C   0  0  0  0  0  3  0  0  0  0  0  0
  183.6680  175.9670  137.7110 C   0  0  0  0  0  3  0  0  0  0  0  0
  181.2540  173.2310  137.1700 O   0  0  0  0  0  1  0  0  0  0  0  0
  190.9810  176.9990  143.1840 C   0  0  0  0  0  2  0  0  0  0  0  0
  191.4540  178.2100  142.3710 C   0  0  1  0  0  3  0  0  0  0  0  0
  191.7160  179.3220  143.1760 O   0  0  0  0  0  0  0  0  0  0  0  0
  191.8690  178.7980  144.4630 C   0  0  0  0  0  1  0  0  0  0  0  0
  192.6790  177.8510  141.5500 C   0  0  0  0  0  2  0  0  0  0  0  0
  192.2710  177.5840  140.1440 C   0  0  0  0  0  3  0  0  0  0  0  0
  192.8990  176.6530  139.4300 C   0  0  0  0  0  3  0  0  0  0  0  0
  192.4980  176.3850  138.0170 C   0  0  0  0  0  2  0  0  0  0  0  0
  193.3240  175.3250  137.4580 N   0  0  0  0  0  2  0  0  0  0  0  0
  193.4800  175.6280  135.1240 O   0  0  0  0  0  0  0  0  0  0  0  0
  194.0980  175.8860  136.3580 C   0  0  2  0  0  0  0  0  0  0  0  0
  194.7370  175.0180  135.3330 C   0  0  1  0  0  3  0  0  0  0  0  0
  194.4770  177.2250  136.4540 O   0  0  0  0  0  1  0  0  0  0  0  0
  194.5340  173.5270  135.5880 C   0  0  2  0  0  3  0  0  0  0  0  0
  195.8590  172.7480  135.5540 C   0  0  2  0  0  3  0  0  0  0  0  0
  195.9260  171.9170  134.4380 O   0  0  0  0  0  1  0  0  0  0  0  0
  196.0790  171.9240  136.8170 C   0  0  0  0  0  2  0  0  0  0  0  0
  196.6640  172.7010  137.8210 O   0  0  0  0  0  0  0  0  0  0  0  0
  195.6170  172.9920  138.6940 C   0  0  0  0  0  1  0  0  0  0  0  0
  191.9030  172.5630  135.6750 S   0  0  0  0  0  1  0  0  0  0  0  0
  193.4130  172.9370  134.7230 C   0  0  0  0  0  2  0  0  0  0  0  0
  1  2  1  1  0  0  0
  1 48  1  0  0  0  0
  3  8  2  0  0  0  0
  4 21  1  6  0  0  0
  4  7  1  0  0  0  0
  7  5  1  0  0  0  0
  8 13  1  0  0  0  0
  8  5  1  0  0  0  0
  9 11  1  0  0  0  0
  9  6  1  0  0  0  0
 10  3  1  0  0  0  0
 11  1  1  6  0  0  0
 11 10  1  0  0  0  0
 12  6  1  1  0  0  0
 12  3  1  0  0  0  0
 12  4  1  0  0  0  0
 14 15  1  0  0  0  0
 14 13  1  0  0  0  0
 16 15  1  0  0  0  0
 16 17  1  0  0  0  0
 17 19  1  0  0  0  0
 19 20  1  0  0  0  0
 19 18  1  0  0  0  0
 20 18  1  0  0  0  0
 22 21  1  0  0  0  0
 23 22  1  0  0  0  0
 25 24  1  1  0  0  0
 25 23  1  0  0  0  0
 26 29  2  0  0  0  0
 27 25  1  6  0  0  0
 28 27  1  0  0  0  0
 29 28  1  0  0  0  0
 29 27  1  0  0  0  0
 30  1  1  0  0  0  0
 31 30  2  0  0  0  0
 32 31  1  0  0  0  0
 33 32  1  0  0  0  0
 34 39  1  0  0  0  0
 35 42  1  0  0  0  0
 35 38  1  0  0  0  0
 36 35  2  0  0  0  0
 37 36  1  0  0  0  0
 39 38  2  0  0  0  0
 39 33  1  0  0  0  0
 40 36  1  0  0  0  0
 40 34  2  0  0  0  0
 41 44  2  0  0  0  0
 41 42  1  0  0  0  0
 42 46  2  0  0  0  0
 43 47  1  0  0  0  0
 43 45  2  0  0  0  0
 44 43  1  0  0  0  0
 46 45  1  0  0  0  0
 49 52  1  1  0  0  0
 49 50  1  0  0  0  0
 49 48  1  0  0  0  0
 50 51  1  0  0  0  0
 53 52  1  0  0  0  0
 54 53  2  0  0  0  0
 55 54  1  0  0  0  0
 56 55  1  0  0  0  0
 57 59  1  0  0  0  0
 57 58  1  0  0  0  0
 58 60  1  1  0  0  0
 58 56  1  0  0  0  0
 59 61  1  1  0  0  0
 59 58  1  0  0  0  0
 61 68  1  6  0  0  0
 62 63  1  6  0  0  0
 62 61  1  0  0  0  0
 62 64  1  0  0  0  0
 64 65  1  0  0  0  0
 65 66  1  0  0  0  0
 68 67  1  0  0  0  0
M  END
>  <MODEL>
6

>  <REMARK>
 VINA RESULT:      -5.0      3.025     11.978
  Name = 
  30 active torsions:
  status: ('A' for Active; 'I' for Inactive)
    1  A    between atoms: C_4  and  C_25
    2  A    between atoms: C_4  and  N_65
    3  A    between atoms: O_6  and  C_38
    4  A    between atoms: N_7  and  N_22
    5  A    between atoms: N_7  and  N_68
    6  A    between atoms: C_8  and  C_12
    7  A    between atoms: C_9  and  C_25
    8  A    between atoms: C_13  and  N_24
    9  A    between atoms: O_14  and  C_63
   10  A    between atoms: C_17  and  C_43
   11  A    between atoms: C_20  and  C_50
   12  A    between atoms: C_20  and  C_63
   13  A    between atoms: C_21  and  C_44
   14  A    between atoms: C_21  and  N_65
   15  A    between atoms: N_22  and  C_49
   16  A    between atoms: N_24  and  C_56
   17  A    between atoms: C_26  and  C_34
   18  A    between atoms: C_26  and  C_38
   19  A    between atoms: C_30  and  C_59
   20  A    between atoms: C_32  and  C_56
   21  A    between atoms: C_34  and  C_55
   22  A    between atoms: C_34  and  C_64
   23  A    between atoms: C_35  and  C_50
   24  A    between atoms: C_36  and  C_54
   25  A    between atoms: C_36  and  C_60
   26  A    between atoms: C_38  and  C_43
   27  A    between atoms: C_40  and  C_49
   28  A    between atoms: C_48  and  C_50
   29  A    between atoms: C_54  and  C_67
   30  A    between atoms: C_59  and  N_68
                            x       y       z     vdW  Elec       q    Type
                         _______ _______ _______ _____ _____    ______ ____

>  <TORSDO>
F 30

$$$$
=
 OpenBabel10232412123D

 68 74  0  0  1  0  0  0  0  0999 V2000
  189.4550  178.1030  138.8890 C   0  0  2  0  0  0  0  0  0  0  0  0
  189.4420  179.4260  138.4270 O   0  0  0  0  0  1  0  0  0  0  0  0
  186.8090  178.3360  141.7260 C   0  0  0  0  0  0  0  0  0  0  0  0
  187.2550  178.1590  144.2440 C   0  0  2  0  0  3  0  0  0  0  0  0
  184.9330  178.2880  143.3710 C   0  0  0  0  0  2  0  0  0  0  0  0
  188.9720  178.9560  142.6760 N   0  0  0  0  0  2  0  0  0  0  0  0
  185.8710  177.5220  144.2920 C   0  0  0  0  0  2  0  0  0  0  0  0
  185.4770  178.3840  141.9670 C   0  0  0  0  0  0  0  0  0  0  0  0
  189.6410  178.8300  141.3670 C   0  0  0  0  0  2  0  0  0  0  0  0
  187.3490  178.4500  140.3240 C   0  0  0  0  0  2  0  0  0  0  0  0
  188.8300  178.0640  140.2980 C   0  0  1  0  0  3  0  0  0  0  0  0
  187.8240  178.0530  142.8250 C   0  0  2  0  0  3  0  0  0  0  0  0
  184.4970  178.6090  140.8550 C   0  0  0  0  0  2  0  0  0  0  0  0
  183.1730  178.1650  141.2600 N   0  0  0  0  0  2  0  0  0  0  0  0
  182.6360  177.4620  140.1740 N   0  0  0  0  0  2  0  0  0  0  0  0
  181.8550  178.3770  139.4540 N   0  0  0  0  0  2  0  0  0  0  0  0
  181.5800  177.7850  138.1570 C   0  0  0  0  0  2  0  0  0  0  0  0
  180.1330  178.6370  136.3460 C   0  0  0  0  0  2  0  0  0  0  0  0
  181.4220  178.8710  137.1070 C   0  0  0  0  0  3  0  0  0  0  0  0
  181.4590  178.2480  135.7270 C   0  0  0  0  0  2  0  0  0  0  0  0
  188.1790  177.4310  145.2090 C   0  0  0  0  0  2  0  0  0  0  0  0
  187.5780  177.3960  146.6020 C   0  0  0  0  0  2  0  0  0  0  0  0
  188.5350  176.8010  147.5220 N   0  0  0  0  0  2  0  0  0  0  0  0
  189.4110  178.5770  148.7760 O   0  0  0  0  0  1  0  0  0  0  0  0
  189.6440  177.7360  147.6790 C   0  0  1  0  0  3  0  0  0  0  0  0
  191.7680  176.4130  145.4300 O   0  0  0  0  0  0  0  0  0  0  0  0
  190.9650  176.9580  147.7990 C   0  0  1  0  0  3  0  0  0  0  0  0
  190.7530  175.6050  147.7690 O   0  0  0  0  0  0  0  0  0  0  0  0
  191.3240  176.3620  146.6070 C   0  0  0  0  0  0  0  0  0  0  0  0
  190.8830  177.6250  138.9270 C   0  0  0  0  0  3  0  0  0  0  0  0
  191.4280  177.0020  137.8810 C   0  0  0  0  0  3  0  0  0  0  0  0
  192.8520  176.5750  137.8970 C   0  0  0  0  0  2  0  0  0  0  0  0
  192.9070  175.0740  137.6830 C   0  0  0  0  0  2  0  0  0  0  0  0
  195.2810  175.3330  138.4040 C   0  0  0  0  0  3  0  0  0  0  0  0
  195.9990  172.9280  137.1170 C   0  0  0  0  0  0  0  0  0  0  0  0
  196.9690  173.6920  137.8180 C   0  0  0  0  0  0  0  0  0  0  0  0
  198.3200  173.2580  137.9420 N   0  0  0  0  0  1  0  0  0  0  0  0
  194.6730  173.3980  137.0900 C   0  0  0  0  0  3  0  0  0  0  0  0
  194.3150  174.5910  137.7220 C   0  0  0  0  0  0  0  0  0  0  0  0
  196.6000  174.8830  138.4510 C   0  0  0  0  0  3  0  0  0  0  0  0
  197.3820  171.6170  135.4840 C   0  0  0  0  0  3  0  0  0  0  0  0
  196.3210  171.6570  136.4070 C   0  0  0  0  0  0  0  0  0  0  0  0
  196.9710  169.2700  135.0620 C   0  0  0  0  0  0  0  0  0  0  0  0
  197.7040  170.4320  134.8150 C   0  0  0  0  0  3  0  0  0  0  0  0
  195.9160  169.2920  135.9780 C   0  0  0  0  0  3  0  0  0  0  0  0
  195.5980  170.4770  136.6470 C   0  0  0  0  0  3  0  0  0  0  0  0
  197.2870  168.0970  134.3920 O   0  0  0  0  0  1  0  0  0  0  0  0
  188.6550  177.2000  137.9260 C   0  0  0  0  0  2  0  0  0  0  0  0
  188.3250  177.7870  136.5490 C   0  0  1  0  0  3  0  0  0  0  0  0
  188.0790  176.7980  135.5940 O   0  0  0  0  0  0  0  0  0  0  0  0
  189.1270  176.9240  134.6770 C   0  0  0  0  0  1  0  0  0  0  0  0
  187.1420  178.7340  136.6460 C   0  0  0  0  0  2  0  0  0  0  0  0
  185.8810  177.9460  136.7000 C   0  0  0  0  0  3  0  0  0  0  0  0
  185.9170  176.6390  136.9480 C   0  0  0  0  0  3  0  0  0  0  0  0
  184.6540  175.8440  136.9980 C   0  0  0  0  0  2  0  0  0  0  0  0
  184.9410  174.4410  136.7330 N   0  0  0  0  0  2  0  0  0  0  0  0
  183.3000  174.5430  135.0410 O   0  0  0  0  0  0  0  0  0  0  0  0
  184.6200  174.1690  135.3380 C   0  0  2  0  0  0  0  0  0  0  0  0
  183.5930  173.1640  134.9560 C   0  0  1  0  0  3  0  0  0  0  0  0
  185.5020  174.6480  134.3680 O   0  0  0  0  0  1  0  0  0  0  0  0
  182.9730  172.4450  136.1520 C   0  0  2  0  0  3  0  0  0  0  0  0
  182.4670  171.0410  135.7840 C   0  0  2  0  0  3  0  0  0  0  0  0
  182.0310  170.3510  136.9130 O   0  0  0  0  0  1  0  0  0  0  0  0
  183.5240  170.2160  135.0590 C   0  0  0  0  0  2  0  0  0  0  0  0
  183.5300  168.8980  135.5250 O   0  0  0  0  0  0  0  0  0  0  0  0
  183.0840  168.1410  134.4420 C   0  0  0  0  0  1  0  0  0  0  0  0
  180.2390  172.7610  136.6830 S   0  0  0  0  0  1  0  0  0  0  0  0
  181.9610  173.3250  136.8960 C   0  0  0  0  0  2  0  0  0  0  0  0
  1  2  1  6  0  0  0
  1 30  1  0  0  0  0
  3  8  2  0  0  0  0
  4  7  1  0  0  0  0
  4 21  1  1  0  0  0
  5  7  1  0  0  0  0
  6 12  1  0  0  0  0
  8  5  1  0  0  0  0
  9  6  1  0  0  0  0
 10  3  1  0  0  0  0
 11  1  1  6  0  0  0
 11 10  1  0  0  0  0
 11  9  1  0  0  0  0
 12  3  1  6  0  0  0
 12  4  1  0  0  0  0
 13 14  1  0  0  0  0
 13  8  1  0  0  0  0
 15 14  1  0  0  0  0
 16 15  1  0  0  0  0
 17 16  1  0  0  0  0
 18 19  1  0  0  0  0
 19 17  1  0  0  0  0
 20 18  1  0  0  0  0
 20 19  1  0  0  0  0
 21 22  1  0  0  0  0
 22 23  1  0  0  0  0
 23 25  1  0  0  0  0
 25 24  1  1  0  0  0
 26 29  2  0  0  0  0
 27 25  1  6  0  0  0
 28 27  1  0  0  0  0
 29 28  1  0  0  0  0
 29 27  1  0  0  0  0
 31 32  1  0  0  0  0
 31 30  2  0  0  0  0
 33 39  1  0  0  0  0
 33 32  1  0  0  0  0
 34 40  1  0  0  0  0
 35 36  1  0  0  0  0
 36 37  1  0  0  0  0
 36 40  2  0  0  0  0
 38 35  2  0  0  0  0
 38 39  1  0  0  0  0
 39 34  2  0  0  0  0
 41 42  1  0  0  0  0
 42 46  2  0  0  0  0
 42 35  1  0  0  0  0
 43 45  2  0  0  0  0
 44 43  1  0  0  0  0
 44 41  2  0  0  0  0
 45 46  1  0  0  0  0
 47 43  1  0  0  0  0
 48  1  1  0  0  0  0
 49 52  1  1  0  0  0
 49 48  1  0  0  0  0
 50 49  1  0  0  0  0
 51 50  1  0  0  0  0
 52 53  1  0  0  0  0
 53 54  2  0  0  0  0
 54 55  1  0  0  0  0
 56 55  1  0  0  0  0
 57 58  1  0  0  0  0
 58 60  1  6  0  0  0
 58 56  1  0  0  0  0
 59 57  1  0  0  0  0
 59 58  1  0  0  0  0
 59 61  1  1  0  0  0
 61 68  1  6  0  0  0
 62 61  1  0  0  0  0
 62 63  1  1  0  0  0
 64 65  1  0  0  0  0
 64 62  1  0  0  0  0
 66 65  1  0  0  0  0
 67 68  1  0  0  0  0
M  END
>  <MODEL>
7

>  <REMARK>
 VINA RESULT:      -4.3      3.298     10.443
  Name = 
  30 active torsions:
  status: ('A' for Active; 'I' for Inactive)
    1  A    between atoms: C_4  and  C_25
    2  A    between atoms: C_4  and  N_65
    3  A    between atoms: O_6  and  C_38
    4  A    between atoms: N_7  and  N_22
    5  A    between atoms: N_7  and  N_68
    6  A    between atoms: C_8  and  C_12
    7  A    between atoms: C_9  and  C_25
    8  A    between atoms: C_13  and  N_24
    9  A    between atoms: O_14  and  C_63
   10  A    between atoms: C_17  and  C_43
   11  A    between atoms: C_20  and  C_50
   12  A    between atoms: C_20  and  C_63
   13  A    between atoms: C_21  and  C_44
   14  A    between atoms: C_21  and  N_65
   15  A    between atoms: N_22  and  C_49
   16  A    between atoms: N_24  and  C_56
   17  A    between atoms: C_26  and  C_34
   18  A    between atoms: C_26  and  C_38
   19  A    between atoms: C_30  and  C_59
   20  A    between atoms: C_32  and  C_56
   21  A    between atoms: C_34  and  C_55
   22  A    between atoms: C_34  and  C_64
   23  A    between atoms: C_35  and  C_50
   24  A    between atoms: C_36  and  C_54
   25  A    between atoms: C_36  and  C_60
   26  A    between atoms: C_38  and  C_43
   27  A    between atoms: C_40  and  C_49
   28  A    between atoms: C_48  and  C_50
   29  A    between atoms: C_54  and  C_67
   30  A    between atoms: C_59  and  N_68
                            x       y       z     vdW  Elec       q    Type
                         _______ _______ _______ _____ _____    ______ ____

>  <TORSDO>
F 30

$$$$
=
 OpenBabel10232412123D

 68 74  0  0  1  0  0  0  0  0999 V2000
  188.6800  176.9110  137.4720 C   0  0  2  0  0  0  0  0  0  0  0  0
  188.3570  177.4510  136.2200 O   0  0  0  0  0  1  0  0  0  0  0  0
  191.0250  174.0120  136.3760 C   0  0  0  0  0  0  0  0  0  0  0  0
  193.4250  173.6070  137.1790 C   0  0  2  0  0  3  0  0  0  0  0  0
  192.4370  172.2150  135.3750 C   0  0  0  0  0  2  0  0  0  0  0  0
  191.7740  174.7840  138.5690 N   0  0  0  0  0  2  0  0  0  0  0  0
  193.6410  173.0540  135.7750 C   0  0  0  0  0  2  0  0  0  0  0  0
  191.1470  172.9870  135.4990 C   0  0  0  0  0  0  0  0  0  0  0  0
  190.6670  175.7540  138.6630 C   0  0  0  0  0  2  0  0  0  0  0  0
  189.7290  174.7680  136.5100 C   0  0  0  0  0  2  0  0  0  0  0  0
  189.9470  176.0460  137.3270 C   0  0  1  0  0  3  0  0  0  0  0  0
  192.2030  174.5320  137.1880 C   0  0  2  0  0  3  0  0  0  0  0  0
  189.9820  172.5330  134.6730 C   0  0  0  0  0  2  0  0  0  0  0  0
  189.0320  171.8110  135.5040 N   0  0  0  0  0  2  0  0  0  0  0  0
  188.2060  171.0880  134.6340 N   0  0  0  0  0  2  0  0  0  0  0  0
  187.0830  171.8910  134.3920 N   0  0  0  0  0  2  0  0  0  0  0  0
  186.0420  171.4670  135.3120 C   0  0  0  0  0  2  0  0  0  0  0  0
  183.6100  171.2540  134.9350 C   0  0  0  0  0  2  0  0  0  0  0  0
  184.9690  170.6900  134.5700 C   0  0  0  0  0  3  0  0  0  0  0  0
  184.0910  169.9630  135.5670 C   0  0  0  0  0  2  0  0  0  0  0  0
  194.6540  174.3970  137.6040 C   0  0  0  0  0  2  0  0  0  0  0  0
  195.7470  173.4650  138.0930 C   0  0  0  0  0  2  0  0  0  0  0  0
  195.2040  172.1230  138.2390 N   0  0  0  0  0  2  0  0  0  0  0  0
  195.7710  169.9540  137.5560 O   0  0  0  0  0  1  0  0  0  0  0  0
  196.2890  171.1750  138.0110 C   0  0  1  0  0  3  0  0  0  0  0  0
  197.8770  170.0040  135.2860 O   0  0  0  0  0  0  0  0  0  0  0  0
  197.3130  171.7830  137.0370 C   0  0  1  0  0  3  0  0  0  0  0  0
  198.5960  171.4710  137.4030 O   0  0  0  0  0  0  0  0  0  0  0  0
  197.9030  170.8230  136.2420 C   0  0  0  0  0  0  0  0  0  0  0  0
  187.5180  176.0780  137.9460 C   0  0  0  0  0  3  0  0  0  0  0  0
  187.1020  175.0190  137.2500 C   0  0  0  0  0  3  0  0  0  0  0  0
  185.9890  174.1650  137.7410 C   0  0  0  0  0  2  0  0  0  0  0  0
  184.8570  174.2200  136.7320 C   0  0  0  0  0  2  0  0  0  0  0  0
  183.6070  176.1520  135.7700 C   0  0  0  0  0  3  0  0  0  0  0  0
  183.0350  177.1450  138.3470 C   0  0  0  0  0  0  0  0  0  0  0  0
  182.5690  177.8230  137.1900 C   0  0  0  0  0  0  0  0  0  0  0  0
  181.7620  178.9930  137.2800 N   0  0  0  0  0  1  0  0  0  0  0  0
  183.7790  175.9630  138.1730 C   0  0  0  0  0  3  0  0  0  0  0  0
  184.0680  175.4710  136.8980 C   0  0  0  0  0  0  0  0  0  0  0  0
  182.8610  177.3210  135.9180 C   0  0  0  0  0  3  0  0  0  0  0  0
  183.8550  177.9070  140.5930 C   0  0  0  0  0  3  0  0  0  0  0  0
  182.7770  177.6270  139.7340 C   0  0  0  0  0  0  0  0  0  0  0  0
  182.3280  178.5600  142.3530 C   0  0  0  0  0  0  0  0  0  0  0  0
  183.6320  178.3680  141.8940 C   0  0  0  0  0  3  0  0  0  0  0  0
  181.2460  178.2910  141.5110 C   0  0  0  0  0  3  0  0  0  0  0  0
  181.4710  177.8320  140.2100 C   0  0  0  0  0  3  0  0  0  0  0  0
  182.1080  179.0120  143.6470 O   0  0  0  0  0  1  0  0  0  0  0  0
  188.9240  178.0460  138.4890 C   0  0  0  0  0  2  0  0  0  0  0  0
  187.6800  178.6770  139.1270 C   0  0  1  0  0  3  0  0  0  0  0  0
  186.4940  178.1980  138.5670 O   0  0  0  0  0  0  0  0  0  0  0  0
  185.8240  179.3440  138.1260 C   0  0  0  0  0  1  0  0  0  0  0  0
  187.6840  178.4530  140.6290 C   0  0  0  0  0  2  0  0  0  0  0  0
  188.9080  177.6980  141.0130 C   0  0  0  0  0  3  0  0  0  0  0  0
  188.9400  177.0100  142.1520 C   0  0  0  0  0  3  0  0  0  0  0  0
  190.1670  176.2550  142.5450 C   0  0  0  0  0  2  0  0  0  0  0  0
  190.2580  176.1780  143.9960 N   0  0  0  0  0  2  0  0  0  0  0  0
  190.9880  177.4850  145.8190 O   0  0  0  0  0  0  0  0  0  0  0  0
  190.4880  177.5230  144.5080 C   0  0  2  0  0  0  0  0  0  0  0  0
  189.7100  178.0640  145.6530 C   0  0  1  0  0  3  0  0  0  0  0  0
  191.2370  178.3950  143.7160 O   0  0  0  0  0  1  0  0  0  0  0  0
  188.6510  177.0980  146.1780 C   0  0  2  0  0  3  0  0  0  0  0  0
  187.3600  177.1460  145.3440 C   0  0  2  0  0  3  0  0  0  0  0  0
  187.5040  177.9860  144.2410 O   0  0  0  0  0  1  0  0  0  0  0  0
  186.1550  177.5890  146.1670 C   0  0  0  0  0  2  0  0  0  0  0  0
  185.2680  178.3350  145.3860 O   0  0  0  0  0  0  0  0  0  0  0  0
  184.1520  178.5180  146.2000 C   0  0  0  0  0  1  0  0  0  0  0  0
  190.0210  177.2860  148.6160 S   0  0  0  0  0  1  0  0  0  0  0  0
  188.4480  177.2260  147.6930 C   0  0  0  0  0  2  0  0  0  0  0  0
  1  2  1  6  0  0  0
  1 30  1  0  0  0  0
  1 48  1  0  0  0  0
  3 10  1  0  0  0  0
  4 12  1  0  0  0  0
  4 21  1  6  0  0  0
  5  8  1  0  0  0  0
  5  7  1  0  0  0  0
  6  9  1  0  0  0  0
  7  4  1  0  0  0  0
  8  3  2  0  0  0  0
 10 11  1  0  0  0  0
 11  1  1  1  0  0  0
 11  9  1  0  0  0  0
 12  3  1  6  0  0  0
 12  6  1  0  0  0  0
 13  8  1  0  0  0  0
 13 14  1  0  0  0  0
 15 14  1  0  0  0  0
 16 15  1  0  0  0  0
 16 17  1  0  0  0  0
 18 20  1  0  0  0  0
 19 18  1  0  0  0  0
 19 17  1  0  0  0  0
 19 20  1  0  0  0  0
 21 22  1  0  0  0  0
 22 23  1  0  0  0  0
 25 24  1  6  0  0  0
 25 23  1  0  0  0  0
 26 29  2  0  0  0  0
 27 28  1  0  0  0  0
 27 25  1  1  0  0  0
 29 27  1  0  0  0  0
 29 28  1  0  0  0  0
 31 32  1  0  0  0  0
 31 30  2  0  0  0  0
 33 39  1  0  0  0  0
 33 32  1  0  0  0  0
 34 40  2  0  0  0  0
 34 39  1  0  0  0  0
 35 42  1  0  0  0  0
 36 37  1  0  0  0  0
 36 35  2  0  0  0  0
 38 35  1  0  0  0  0
 39 38  2  0  0  0  0
 40 36  1  0  0  0  0
 41 44  1  0  0  0  0
 42 46  1  0  0  0  0
 42 41  2  0  0  0  0
 43 47  1  0  0  0  0
 44 43  2  0  0  0  0
 45 43  1  0  0  0  0
 46 45  2  0  0  0  0
 49 48  1  6  0  0  0
 49 52  1  0  0  0  0
 50 49  1  0  0  0  0
 51 50  1  0  0  0  0
 52 53  1  0  0  0  0
 53 54  2  0  0  0  0
 54 55  1  0  0  0  0
 55 56  1  0  0  0  0
 56 58  1  0  0  0  0
 58 60  1  6  0  0  0
 58 59  1  0  0  0  0
 58 57  1  0  0  0  0
 59 57  1  0  0  0  0
 59 61  1  1  0  0  0
 61 68  1  1  0  0  0
 62 63  1  6  0  0  0
 62 64  1  0  0  0  0
 62 61  1  0  0  0  0
 65 64  1  0  0  0  0
 65 66  1  0  0  0  0
 68 67  1  0  0  0  0
M  END
>  <MODEL>
8

>  <REMARK>
 VINA RESULT:      -4.2      3.139      6.731
  Name = 
  30 active torsions:
  status: ('A' for Active; 'I' for Inactive)
    1  A    between atoms: C_4  and  C_25
    2  A    between atoms: C_4  and  N_65
    3  A    between atoms: O_6  and  C_38
    4  A    between atoms: N_7  and  N_22
    5  A    between atoms: N_7  and  N_68
    6  A    between atoms: C_8  and  C_12
    7  A    between atoms: C_9  and  C_25
    8  A    between atoms: C_13  and  N_24
    9  A    between atoms: O_14  and  C_63
   10  A    between atoms: C_17  and  C_43
   11  A    between atoms: C_20  and  C_50
   12  A    between atoms: C_20  and  C_63
   13  A    between atoms: C_21  and  C_44
   14  A    between atoms: C_21  and  N_65
   15  A    between atoms: N_22  and  C_49
   16  A    between atoms: N_24  and  C_56
   17  A    between atoms: C_26  and  C_34
   18  A    between atoms: C_26  and  C_38
   19  A    between atoms: C_30  and  C_59
   20  A    between atoms: C_32  and  C_56
   21  A    between atoms: C_34  and  C_55
   22  A    between atoms: C_34  and  C_64
   23  A    between atoms: C_35  and  C_50
   24  A    between atoms: C_36  and  C_54
   25  A    between atoms: C_36  and  C_60
   26  A    between atoms: C_38  and  C_43
   27  A    between atoms: C_40  and  C_49
   28  A    between atoms: C_48  and  C_50
   29  A    between atoms: C_54  and  C_67
   30  A    between atoms: C_59  and  N_68
                            x       y       z     vdW  Elec       q    Type
                         _______ _______ _______ _____ _____    ______ ____

>  <TORSDO>
F 30

$$$$
=
 OpenBabel10232412123D

 68 74  0  0  1  0  0  0  0  0999 V2000
  189.4930  178.5130  142.0610 C   0  0  2  0  0  0  0  0  0  0  0  0
  188.6510  179.6090  141.8360 O   0  0  0  0  0  1  0  0  0  0  0  0
  189.2700  177.6050  138.2880 C   0  0  0  0  0  0  0  0  0  0  0  0
  189.7930  175.3280  137.2350 C   0  0  2  0  0  3  0  0  0  0  0  0
  189.2780  177.2970  135.8120 C   0  0  0  0  0  2  0  0  0  0  0  0
  189.0360  175.5360  139.5640 N   0  0  0  0  0  2  0  0  0  0  0  0
  190.2560  176.1540  136.0420 C   0  0  0  0  0  2  0  0  0  0  0  0
  189.0870  178.1310  137.0540 C   0  0  0  0  0  0  0  0  0  0  0  0
  189.0890  176.2600  140.8480 C   0  0  0  0  0  2  0  0  0  0  0  0
  189.0600  178.4370  139.5260 C   0  0  0  0  0  2  0  0  0  0  0  0
  189.6200  177.7090  140.7520 C   0  0  1  0  0  3  0  0  0  0  0  0
  189.8020  176.1940  138.5000 C   0  0  2  0  0  3  0  0  0  0  0  0
  188.6150  179.5430  136.8780 C   0  0  0  0  0  2  0  0  0  0  0  0
  187.1860  179.5610  136.6080 N   0  0  0  0  0  2  0  0  0  0  0  0
  186.7010  178.2870  136.9320 N   0  0  0  0  0  2  0  0  0  0  0  0
  185.6280  178.0380  136.0650 N   0  0  0  0  0  2  0  0  0  0  0  0
  185.7420  176.6590  135.6210 C   0  0  0  0  0  2  0  0  0  0  0  0
  186.3380  174.6740  136.9630 C   0  0  0  0  0  2  0  0  0  0  0  0
  185.2660  175.7150  136.7110 C   0  0  0  0  0  3  0  0  0  0  0  0
  185.1160  174.3200  136.1420 C   0  0  0  0  0  2  0  0  0  0  0  0
  190.7370  174.1500  137.4290 C   0  0  0  0  0  2  0  0  0  0  0  0
  190.9990  173.4500  136.1090 C   0  0  0  0  0  2  0  0  0  0  0  0
  189.7990  173.5090  135.2880 N   0  0  0  0  0  2  0  0  0  0  0  0
  190.5780  171.3150  135.0170 O   0  0  0  0  0  1  0  0  0  0  0  0
  189.4540  172.1460  134.9030 C   0  0  1  0  0  3  0  0  0  0  0  0
  188.1090  169.1140  135.4660 O   0  0  0  0  0  0  0  0  0  0  0  0
  188.2650  171.6540  135.7460 C   0  0  1  0  0  3  0  0  0  0  0  0
  187.1250  171.5550  134.9920 O   0  0  0  0  0  0  0  0  0  0  0  0
  187.9120  170.3570  135.4330 C   0  0  0  0  0  0  0  0  0  0  0  0
  188.8910  177.6640  143.1500 C   0  0  0  0  0  3  0  0  0  0  0  0
  188.9130  178.0610  144.4230 C   0  0  0  0  0  3  0  0  0  0  0  0
  188.2740  177.2490  145.4920 C   0  0  0  0  0  2  0  0  0  0  0  0
  187.0760  176.5290  144.9000 C   0  0  0  0  0  2  0  0  0  0  0  0
  185.4290  178.2400  145.6640 C   0  0  0  0  0  3  0  0  0  0  0  0
  184.4470  178.5550  143.0390 C   0  0  0  0  0  0  0  0  0  0  0  0
  183.9060  179.3140  144.1110 C   0  0  0  0  0  0  0  0  0  0  0  0
  182.8900  180.2900  143.9010 N   0  0  0  0  0  1  0  0  0  0  0  0
  185.4890  177.6520  143.3200 C   0  0  0  0  0  3  0  0  0  0  0  0
  185.9740  177.4900  144.6200 C   0  0  0  0  0  0  0  0  0  0  0  0
  184.4020  179.1470  145.4070 C   0  0  0  0  0  3  0  0  0  0  0  0
  182.6430  178.2960  141.3140 C   0  0  0  0  0  3  0  0  0  0  0  0
  183.9610  178.6690  141.6340 C   0  0  0  0  0  0  0  0  0  0  0  0
  183.0010  178.8890  138.9960 C   0  0  0  0  0  0  0  0  0  0  0  0
  182.1660  178.4040  140.0040 C   0  0  0  0  0  3  0  0  0  0  0  0
  184.3110  179.2670  139.2970 C   0  0  0  0  0  3  0  0  0  0  0  0
  184.7840  179.1600  140.6080 C   0  0  0  0  0  3  0  0  0  0  0  0
  182.5280  178.9880  137.6940 O   0  0  0  0  0  1  0  0  0  0  0  0
  190.8820  179.0000  142.5230 C   0  0  0  0  0  2  0  0  0  0  0  0
  191.9820  177.9370  142.6330 C   0  0  1  0  0  3  0  0  0  0  0  0
  191.9790  177.2940  143.8730 O   0  0  0  0  0  0  0  0  0  0  0  0
  191.7220  175.9520  143.5740 C   0  0  0  0  0  1  0  0  0  0  0  0
  191.8530  176.9230  141.5100 C   0  0  0  0  0  2  0  0  0  0  0  0
  192.9420  177.1380  140.5200 C   0  0  0  0  0  3  0  0  0  0  0  0
  192.7460  176.8530  139.2350 C   0  0  0  0  0  3  0  0  0  0  0  0
  193.8380  177.0610  138.2390 C   0  0  0  0  0  2  0  0  0  0  0  0
  193.5950  176.2450  137.0580 N   0  0  0  0  0  2  0  0  0  0  0  0
  194.6140  175.5380  135.0510 O   0  0  0  0  0  0  0  0  0  0  0  0
  194.7610  176.3460  136.1900 C   0  0  2  0  0  0  0  0  0  0  0  0
  195.6510  175.1820  135.9420 C   0  0  1  0  0  3  0  0  0  0  0  0
  195.1940  177.6260  135.8380 O   0  0  0  0  0  1  0  0  0  0  0  0
  195.2410  173.9290  136.7130 C   0  0  2  0  0  3  0  0  0  0  0  0
  196.3100  173.5010  137.7310 C   0  0  2  0  0  3  0  0  0  0  0  0
  195.7320  172.8820  138.8380 O   0  0  0  0  0  1  0  0  0  0  0  0
  197.1700  174.6710  138.1940 C   0  0  0  0  0  2  0  0  0  0  0  0
  198.5120  174.2900  138.2970 O   0  0  0  0  0  0  0  0  0  0  0  0
  198.6890  173.3500  137.2830 C   0  0  0  0  0  1  0  0  0  0  0  0
  195.9870  171.5010  135.5290 S   0  0  0  0  0  1  0  0  0  0  0  0
  194.7460  172.8130  135.7850 C   0  0  0  0  0  2  0  0  0  0  0  0
  1  2  1  6  0  0  0
  1 48  1  0  0  0  0
  1 30  1  0  0  0  0
  3 10  1  0  0  0  0
  4 21  1  1  0  0  0
  4 12  1  0  0  0  0
  5  7  1  0  0  0  0
  5  8  1  0  0  0  0
  6  9  1  0  0  0  0
  7  4  1  0  0  0  0
  8  3  2  0  0  0  0
 10 11  1  0  0  0  0
 11  9  1  0  0  0  0
 11  1  1  1  0  0  0
 12  3  1  6  0  0  0
 12  6  1  0  0  0  0
 13  8  1  0  0  0  0
 14 13  1  0  0  0  0
 14 15  1  0  0  0  0
 16 15  1  0  0  0  0
 17 16  1  0  0  0  0
 17 19  1  0  0  0  0
 19 18  1  0  0  0  0
 20 19  1  0  0  0  0
 20 18  1  0  0  0  0
 22 21  1  0  0  0  0
 23 22  1  0  0  0  0
 25 24  1  1  0  0  0
 25 23  1  0  0  0  0
 27 25  1  6  0  0  0
 28 29  1  0  0  0  0
 28 27  1  0  0  0  0
 29 26  2  0  0  0  0
 29 27  1  0  0  0  0
 30 31  2  0  0  0  0
 31 32  1  0  0  0  0
 33 32  1  0  0  0  0
 35 38  2  0  0  0  0
 35 36  1  0  0  0  0
 36 40  2  0  0  0  0
 37 36  1  0  0  0  0
 38 39  1  0  0  0  0
 39 33  1  0  0  0  0
 39 34  2  0  0  0  0
 40 34  1  0  0  0  0
 41 42  1  0  0  0  0
 42 35  1  0  0  0  0
 43 45  2  0  0  0  0
 43 44  1  0  0  0  0
 44 41  2  0  0  0  0
 45 46  1  0  0  0  0
 46 42  2  0  0  0  0
 47 43  1  0  0  0  0
 48 49  1  0  0  0  0
 49 52  1  6  0  0  0
 49 50  1  0  0  0  0
 51 50  1  0  0  0  0
 53 52  1  0  0  0  0
 54 53  2  0  0  0  0
 55 54  1  0  0  0  0
 56 55  1  0  0  0  0
 57 59  1  0  0  0  0
 57 58  1  0  0  0  0
 58 60  1  6  0  0  0
 58 56  1  0  0  0  0
 59 58  1  0  0  0  0
 59 61  1  1  0  0  0
 61 68  1  6  0  0  0
 61 62  1  0  0  0  0
 62 64  1  0  0  0  0
 62 63  1  1  0  0  0
 64 65  1  0  0  0  0
 66 65  1  0  0  0  0
 67 68  1  0  0  0  0
M  END
>  <MODEL>
9

>  <REMARK>
 VINA RESULT:      -4.1      3.353      8.525
  Name = 
  30 active torsions:
  status: ('A' for Active; 'I' for Inactive)
    1  A    between atoms: C_4  and  C_25
    2  A    between atoms: C_4  and  N_65
    3  A    between atoms: O_6  and  C_38
    4  A    between atoms: N_7  and  N_22
    5  A    between atoms: N_7  and  N_68
    6  A    between atoms: C_8  and  C_12
    7  A    between atoms: C_9  and  C_25
    8  A    between atoms: C_13  and  N_24
    9  A    between atoms: O_14  and  C_63
   10  A    between atoms: C_17  and  C_43
   11  A    between atoms: C_20  and  C_50
   12  A    between atoms: C_20  and  C_63
   13  A    between atoms: C_21  and  C_44
   14  A    between atoms: C_21  and  N_65
   15  A    between atoms: N_22  and  C_49
   16  A    between atoms: N_24  and  C_56
   17  A    between atoms: C_26  and  C_34
   18  A    between atoms: C_26  and  C_38
   19  A    between atoms: C_30  and  C_59
   20  A    between atoms: C_32  and  C_56
   21  A    between atoms: C_34  and  C_55
   22  A    between atoms: C_34  and  C_64
   23  A    between atoms: C_35  and  C_50
   24  A    between atoms: C_36  and  C_54
   25  A    between atoms: C_36  and  C_60
   26  A    between atoms: C_38  and  C_43
   27  A    between atoms: C_40  and  C_49
   28  A    between atoms: C_48  and  C_50
   29  A    between atoms: C_54  and  C_67
   30  A    between atoms: C_59  and  N_68
                            x       y       z     vdW  Elec       q    Type
                         _______ _______ _______ _____ _____    ______ ____

>  <TORSDO>
F 30

$$$$
