=
 OpenBabel10232408363D

 28 30  0  0  1  0  0  0  0  0999 V2000
  189.1720  177.0640  142.7860 C   0  0  0  0  0  0  0  0  0  0  0  0
  191.8030  178.0240  142.9930 C   0  0  0  0  0  3  0  0  0  0  0  0
  191.0740  177.7300  144.1460 C   0  0  0  0  0  0  0  0  0  0  0  0
  191.2260  177.8400  141.7360 C   0  0  0  0  0  3  0  0  0  0  0  0
  189.7660  177.2550  144.0390 C   0  0  0  0  0  3  0  0  0  0  0  0
  189.9100  177.3670  141.6150 C   0  0  0  0  0  0  0  0  0  0  0  0
  189.3520  177.2000  140.3070 N   0  0  0  0  0  0  0  0  0  0  0  0
  189.1020  178.9430  138.6310 C   0  0  0  0  0  2  0  0  0  0  0  0
  189.5660  177.9890  137.6230 N   0  0  0  0  0  2  0  0  0  0  0  0
  190.5970  177.1370  138.2180 C   0  0  0  0  0  2  0  0  0  0  0  0
  188.4270  178.1980  139.7810 C   0  0  0  0  0  2  0  0  0  0  0  0
  189.9970  176.3050  139.3500 C   0  0  0  0  0  2  0  0  0  0  0  0
  187.7800  176.4940  142.7740 C   0  0  1  0  0  3  0  0  0  0  0  0
  187.7510  175.1900  143.2770 O   0  0  0  0  0  1  0  0  0  0  0  0
  185.9050  178.0770  145.6770 C   0  0  0  0  0  3  0  0  0  0  0  0
  186.7570  177.3940  143.4150 C   0  0  0  0  0  0  0  0  0  0  0  0
  185.9200  178.1430  142.5910 C   0  0  0  0  0  3  0  0  0  0  0  0
  184.4130  179.4100  144.1590 C   0  0  0  0  0  0  0  0  0  0  0  0
  186.7290  177.3830  144.8040 C   0  0  0  0  0  3  0  0  0  0  0  0
  184.8840  178.9700  145.3900 C   0  0  0  0  0  3  0  0  0  0  0  0
  184.8970  179.0230  142.9160 C   0  0  0  0  0  3  0  0  0  0  0  0
  183.4630  180.2330  144.1730 O   0  0  0  0  0  0  0  0  0  0  0  0
  191.6780  177.9530  145.4870 C   0  0  0  0  0  2  0  0  0  0  0  0
  192.2180  176.7570  145.9650 O   0  0  0  0  0  0  0  0  0  0  0  0
  191.5150  176.5260  147.4910 P   0  0  1  0  0  0  0  0  0  0  0  0
  192.3510  177.2320  148.5320 O   0  0  0  0  0  1  0  0  0  0  0  0
  189.8940  177.1900  147.5090 N   0  0  0  0  0  1  0  0  0  0  0  0
  191.4540  174.8740  147.8540 O   0  0  0  0  0  0  0  0  0  0  0  0
  1  5  1  0  0  0  0
  2  3  1  0  0  0  0
  3 23  1  0  0  0  0
  4  2  2  0  0  0  0
  5  3  2  0  0  0  0
  6  4  1  0  0  0  0
  6  1  2  0  0  0  0
  7  6  1  0  0  0  0
  8 11  1  0  0  0  0
  9 10  1  0  0  0  0
  9  8  1  0  0  0  0
 10 12  1  0  0  0  0
 11  7  1  0  0  0  0
 12  7  1  0  0  0  0
 13  1  1  0  0  0  0
 13 14  1  1  0  0  0
 13 16  1  0  0  0  0
 16 19  2  0  0  0  0
 17 21  2  0  0  0  0
 17 16  1  0  0  0  0
 18 22  2  0  0  0  0
 18 20  1  0  0  0  0
 19 15  1  0  0  0  0
 20 15  2  0  0  0  0
 21 18  1  0  0  0  0
 23 24  1  0  0  0  0
 24 25  1  0  0  0  0
 25 27  1  1  0  0  0
 25 28  2  0  0  0  0
 25 26  1  0  0  0  0
M  END
>  <MODEL>
1

>  <REMARK>
 VINA RESULT:      -6.9      0.000      0.000
  Name = 
  6 active torsions:
  status: ('A' for Active; 'I' for Inactive)
    1  A    between atoms: N_2  and  C_24
    2  A    between atoms: O_3  and  P_6
    3  A    between atoms: O_3  and  C_17
    4  A    between atoms: C_4  and  C_9
    5  A    between atoms: C_8  and  C_9
    6  A    between atoms: C_12  and  C_17
                            x       y       z     vdW  Elec       q    Type
                         _______ _______ _______ _____ _____    ______ ____

>  <TORSDO>
F 6

$$$$
=
 OpenBabel10232408363D

 28 30  0  0  1  0  0  0  0  0999 V2000
  185.1420  178.5590  142.9550 C   0  0  0  0  0  0  0  0  0  0  0  0
  183.8020  178.7010  145.4200 C   0  0  0  0  0  3  0  0  0  0  0  0
  185.1900  178.5640  145.3860 C   0  0  0  0  0  0  0  0  0  0  0  0
  183.0780  178.7700  144.2290 C   0  0  0  0  0  3  0  0  0  0  0  0
  185.8530  178.4920  144.1590 C   0  0  0  0  0  3  0  0  0  0  0  0
  183.7310  178.6940  142.9890 C   0  0  0  0  0  0  0  0  0  0  0  0
  182.9510  178.7600  141.7910 N   0  0  0  0  0  0  0  0  0  0  0  0
  182.3540  176.8780  140.3740 C   0  0  0  0  0  2  0  0  0  0  0  0
  181.0040  177.4350  140.2660 N   0  0  0  0  0  2  0  0  0  0  0  0
  180.6400  178.0420  141.5460 C   0  0  0  0  0  2  0  0  0  0  0  0
  183.3610  178.0000  140.6150 C   0  0  0  0  0  2  0  0  0  0  0  0
  181.5660  179.2180  141.8490 C   0  0  0  0  0  2  0  0  0  0  0  0
  185.9500  178.5320  141.6870 C   0  0  1  0  0  3  0  0  0  0  0  0
  186.0320  179.7960  141.0980 O   0  0  0  0  0  1  0  0  0  0  0  0
  189.5600  177.7740  140.7700 C   0  0  0  0  0  3  0  0  0  0  0  0
  187.2920  177.8690  141.8460 C   0  0  0  0  0  0  0  0  0  0  0  0
  187.4680  176.9620  142.8900 C   0  0  0  0  0  3  0  0  0  0  0  0
  189.8380  176.1460  142.6610 C   0  0  0  0  0  0  0  0  0  0  0  0
  188.2520  178.2160  140.9040 C   0  0  0  0  0  3  0  0  0  0  0  0
  190.2560  176.8600  141.5460 C   0  0  0  0  0  3  0  0  0  0  0  0
  188.5790  176.2110  143.2450 C   0  0  0  0  0  3  0  0  0  0  0  0
  190.6750  175.3710  143.1900 O   0  0  0  0  0  0  0  0  0  0  0  0
  185.9610  178.4620  146.6540 C   0  0  0  0  0  2  0  0  0  0  0  0
  186.6320  177.2380  146.7000 O   0  0  0  0  0  0  0  0  0  0  0  0
  188.1960  177.6050  147.2450 P   0  0  1  0  0  0  0  0  0  0  0  0
  188.8520  176.3420  147.7520 O   0  0  0  0  0  0  0  0  0  0  0  0
  189.1490  178.2580  145.9280 N   0  0  0  0  0  1  0  0  0  0  0  0
  188.1190  178.7350  148.5020 O   0  0  0  0  0  1  0  0  0  0  0  0
  1  6  2  0  0  0  0
  1  5  1  0  0  0  0
  3  2  1  0  0  0  0
  3 23  1  0  0  0  0
  4  2  2  0  0  0  0
  5  3  2  0  0  0  0
  6  4  1  0  0  0  0
  7 12  1  0  0  0  0
  7  6  1  0  0  0  0
  8 11  1  0  0  0  0
  9  8  1  0  0  0  0
  9 10  1  0  0  0  0
 10 12  1  0  0  0  0
 11  7  1  0  0  0  0
 13 14  1  1  0  0  0
 13 16  1  0  0  0  0
 13  1  1  0  0  0  0
 15 19  1  0  0  0  0
 15 20  2  0  0  0  0
 16 17  1  0  0  0  0
 17 21  2  0  0  0  0
 18 22  2  0  0  0  0
 18 21  1  0  0  0  0
 19 16  2  0  0  0  0
 20 18  1  0  0  0  0
 23 24  1  0  0  0  0
 24 25  1  0  0  0  0
 25 27  1  6  0  0  0
 25 26  2  0  0  0  0
 25 28  1  0  0  0  0
M  END
>  <MODEL>
2

>  <REMARK>
 VINA RESULT:      -6.9      3.163      6.187
  Name = 
  6 active torsions:
  status: ('A' for Active; 'I' for Inactive)
    1  A    between atoms: N_2  and  C_24
    2  A    between atoms: O_3  and  P_6
    3  A    between atoms: O_3  and  C_17
    4  A    between atoms: C_4  and  C_9
    5  A    between atoms: C_8  and  C_9
    6  A    between atoms: C_12  and  C_17
                            x       y       z     vdW  Elec       q    Type
                         _______ _______ _______ _____ _____    ______ ____

>  <TORSDO>
F 6

$$$$
=
 OpenBabel10232408363D

 28 30  0  0  1  0  0  0  0  0999 V2000
  187.1950  177.6180  143.7910 C   0  0  0  0  0  0  0  0  0  0  0  0
  184.8750  178.9730  144.6100 C   0  0  0  0  0  3  0  0  0  0  0  0
  184.9160  178.3490  143.3630 C   0  0  0  0  0  0  0  0  0  0  0  0
  185.9870  178.9240  145.4520 C   0  0  0  0  0  3  0  0  0  0  0  0
  186.0710  177.6770  142.9580 C   0  0  0  0  0  3  0  0  0  0  0  0
  187.1560  178.2560  145.0550 C   0  0  0  0  0  0  0  0  0  0  0  0
  188.2770  178.2360  145.9450 N   0  0  0  0  0  0  0  0  0  0  0  0
  188.8500  176.4340  147.4740 C   0  0  0  0  0  2  0  0  0  0  0  0
  190.2510  176.5990  147.0820 N   0  0  0  0  0  2  0  0  0  0  0  0
  190.3080  176.9290  145.6580 C   0  0  0  0  0  2  0  0  0  0  0  0
  188.1080  177.7600  147.3140 C   0  0  0  0  0  2  0  0  0  0  0  0
  189.6340  178.2760  145.4070 C   0  0  0  0  0  2  0  0  0  0  0  0
  188.3690  176.8220  143.2900 C   0  0  1  0  0  3  0  0  0  0  0  0
  188.1560  175.4470  143.4200 O   0  0  0  0  0  1  0  0  0  0  0  0
  190.7520  176.9410  140.3310 C   0  0  0  0  0  3  0  0  0  0  0  0
  188.8180  177.2190  141.9090 C   0  0  0  0  0  0  0  0  0  0  0  0
  187.9810  178.0320  141.1450 C   0  0  0  0  0  3  0  0  0  0  0  0
  189.2200  178.4070  138.9870 C   0  0  0  0  0  0  0  0  0  0  0  0
  190.0620  176.7410  141.5170 C   0  0  0  0  0  3  0  0  0  0  0  0
  190.3780  177.6760  139.2160 C   0  0  0  0  0  3  0  0  0  0  0  0
  188.1580  178.5500  139.8700 C   0  0  0  0  0  3  0  0  0  0  0  0
  189.1240  178.9920  137.8770 O   0  0  0  0  0  0  0  0  0  0  0  0
  183.7420  178.4250  142.4520 C   0  0  0  0  0  2  0  0  0  0  0  0
  183.9820  177.6590  141.3100 O   0  0  0  0  0  0  0  0  0  0  0  0
  183.4450  178.6100  140.0120 P   0  0  1  0  0  0  0  0  0  0  0  0
  183.4200  177.7670  138.7590 O   0  0  0  0  0  0  0  0  0  0  0  0
  181.8300  179.2060  140.3350 N   0  0  0  0  0  1  0  0  0  0  0  0
  184.4950  179.9170  139.7810 O   0  0  0  0  0  1  0  0  0  0  0  0
  1  6  1  0  0  0  0
  2  4  1  0  0  0  0
  3  2  2  0  0  0  0
  5  3  1  0  0  0  0
  5  1  2  0  0  0  0
  6  4  2  0  0  0  0
  6  7  1  0  0  0  0
  7 11  1  0  0  0  0
  9  8  1  0  0  0  0
 10  9  1  0  0  0  0
 11  8  1  0  0  0  0
 12 10  1  0  0  0  0
 12  7  1  0  0  0  0
 13 14  1  6  0  0  0
 13  1  1  0  0  0  0
 15 19  1  0  0  0  0
 16 13  1  0  0  0  0
 17 16  1  0  0  0  0
 18 20  1  0  0  0  0
 18 21  1  0  0  0  0
 19 16  2  0  0  0  0
 20 15  2  0  0  0  0
 21 17  2  0  0  0  0
 22 18  2  0  0  0  0
 23  3  1  0  0  0  0
 24 23  1  0  0  0  0
 25 26  2  6  0  0  0
 25 27  1  0  0  0  0
 25 24  1  0  0  0  0
 28 25  1  0  0  0  0
M  END
>  <MODEL>
3

>  <REMARK>
 VINA RESULT:      -6.8      3.662      7.474
  Name = 
  6 active torsions:
  status: ('A' for Active; 'I' for Inactive)
    1  A    between atoms: N_2  and  C_24
    2  A    between atoms: O_3  and  P_6
    3  A    between atoms: O_3  and  C_17
    4  A    between atoms: C_4  and  C_9
    5  A    between atoms: C_8  and  C_9
    6  A    between atoms: C_12  and  C_17
                            x       y       z     vdW  Elec       q    Type
                         _______ _______ _______ _____ _____    ______ ____

>  <TORSDO>
F 6

$$$$
=
 OpenBabel10232408363D

 28 30  0  0  1  0  0  0  0  0999 V2000
  190.1600  177.0140  139.4350 C   0  0  0  0  0  0  0  0  0  0  0  0
  188.5030  177.3310  137.1890 C   0  0  0  0  0  3  0  0  0  0  0  0
  188.1120  177.8490  138.4250 C   0  0  0  0  0  0  0  0  0  0  0  0
  189.7190  176.6570  137.0680 C   0  0  0  0  0  3  0  0  0  0  0  0
  188.9370  177.6880  139.5390 C   0  0  0  0  0  3  0  0  0  0  0  0
  190.5550  176.4840  138.1810 C   0  0  0  0  0  0  0  0  0  0  0  0
  191.7900  175.7790  138.0160 N   0  0  0  0  0  0  0  0  0  0  0  0
  192.2760  174.1400  136.2880 C   0  0  0  0  0  2  0  0  0  0  0  0
  193.5930  174.7570  136.1260 N   0  0  0  0  0  2  0  0  0  0  0  0
  193.4630  176.2040  136.3020 C   0  0  0  0  0  2  0  0  0  0  0  0
  191.7760  174.3510  137.7160 C   0  0  0  0  0  2  0  0  0  0  0  0
  193.0170  176.5170  137.7280 C   0  0  0  0  0  2  0  0  0  0  0  0
  191.0040  176.9430  140.6780 C   0  0  1  0  0  3  0  0  0  0  0  0
  192.1270  177.7710  140.5890 O   0  0  0  0  0  1  0  0  0  0  0  0
  190.2930  178.4550  144.0920 C   0  0  0  0  0  3  0  0  0  0  0  0
  190.2220  177.1500  141.9470 C   0  0  0  0  0  0  0  0  0  0  0  0
  189.0500  176.4180  142.1340 C   0  0  0  0  0  3  0  0  0  0  0  0
  188.1900  177.1160  144.3940 C   0  0  0  0  0  0  0  0  0  0  0  0
  190.7590  178.0620  142.8460 C   0  0  0  0  0  3  0  0  0  0  0  0
  189.1600  178.0360  144.7720 C   0  0  0  0  0  3  0  0  0  0  0  0
  188.1650  176.4040  143.2020 C   0  0  0  0  0  3  0  0  0  0  0  0
  187.2510  176.9110  145.2040 O   0  0  0  0  0  0  0  0  0  0  0  0
  186.8040  178.5430  138.5620 C   0  0  0  0  0  2  0  0  0  0  0  0
  186.4320  178.5850  139.9070 O   0  0  0  0  0  0  0  0  0  0  0  0
  184.7530  178.8240  139.9000 P   0  0  1  0  0  0  0  0  0  0  0  0
  184.0940  177.6830  139.1610 O   0  0  0  0  0  1  0  0  0  0  0  0
  184.1490  178.8670  141.5440 N   0  0  0  0  0  1  0  0  0  0  0  0
  184.3790  180.2790  139.1220 O   0  0  0  0  0  0  0  0  0  0  0  0
  1  5  1  0  0  0  0
  1 13  1  0  0  0  0
  2  3  1  0  0  0  0
  3 23  1  0  0  0  0
  3  5  2  0  0  0  0
  4  2  2  0  0  0  0
  4  6  1  0  0  0  0
  6  1  2  0  0  0  0
  7  6  1  0  0  0  0
  8 11  1  0  0  0  0
  9  8  1  0  0  0  0
  9 10  1  0  0  0  0
 10 12  1  0  0  0  0
 11  7  1  0  0  0  0
 12  7  1  0  0  0  0
 13 14  1  6  0  0  0
 13 16  1  0  0  0  0
 15 20  2  0  0  0  0
 16 17  1  0  0  0  0
 16 19  2  0  0  0  0
 17 21  2  0  0  0  0
 18 20  1  0  0  0  0
 18 22  2  0  0  0  0
 19 15  1  0  0  0  0
 21 18  1  0  0  0  0
 23 24  1  0  0  0  0
 25 28  2  6  0  0  0
 25 24  1  0  0  0  0
 25 27  1  0  0  0  0
 26 25  1  0  0  0  0
M  END
>  <MODEL>
4

>  <REMARK>
 VINA RESULT:      -6.7      3.853      6.359
  Name = 
  6 active torsions:
  status: ('A' for Active; 'I' for Inactive)
    1  A    between atoms: N_2  and  C_24
    2  A    between atoms: O_3  and  P_6
    3  A    between atoms: O_3  and  C_17
    4  A    between atoms: C_4  and  C_9
    5  A    between atoms: C_8  and  C_9
    6  A    between atoms: C_12  and  C_17
                            x       y       z     vdW  Elec       q    Type
                         _______ _______ _______ _____ _____    ______ ____

>  <TORSDO>
F 6

$$$$
=
 OpenBabel10232408363D

 28 30  0  0  1  0  0  0  0  0999 V2000
  182.8800  179.0490  138.7430 C   0  0  0  0  0  0  0  0  0  0  0  0
  180.8640  180.0740  137.0770 C   0  0  0  0  0  3  0  0  0  0  0  0
  181.4990  180.9070  137.9980 C   0  0  0  0  0  0  0  0  0  0  0  0
  181.2300  178.7310  136.9810 C   0  0  0  0  0  3  0  0  0  0  0  0
  182.5000  180.3940  138.8260 C   0  0  0  0  0  3  0  0  0  0  0  0
  182.2310  178.2020  137.8100 C   0  0  0  0  0  0  0  0  0  0  0  0
  182.5710  176.8170  137.6860 N   0  0  0  0  0  0  0  0  0  0  0  0
  181.0820  175.0430  136.9470 C   0  0  0  0  0  2  0  0  0  0  0  0
  182.1820  174.5060  136.1440 N   0  0  0  0  0  2  0  0  0  0  0  0
  182.9620  175.6200  135.6050 C   0  0  0  0  0  2  0  0  0  0  0  0
  181.6400  175.7960  138.1530 C   0  0  0  0  0  2  0  0  0  0  0  0
  183.6090  176.4040  136.7450 C   0  0  0  0  0  2  0  0  0  0  0  0
  184.0060  178.6050  139.6360 C   0  0  1  0  0  3  0  0  0  0  0  0
  185.2160  179.2050  139.2780 O   0  0  0  0  0  1  0  0  0  0  0  0
  181.7510  178.7510  142.6920 C   0  0  0  0  0  3  0  0  0  0  0  0
  183.6960  178.7370  141.1030 C   0  0  0  0  0  0  0  0  0  0  0  0
  184.7500  178.9450  141.9900 C   0  0  0  0  0  3  0  0  0  0  0  0
  183.6760  179.1270  144.2590 C   0  0  0  0  0  0  0  0  0  0  0  0
  182.3520  178.6530  141.4460 C   0  0  0  0  0  3  0  0  0  0  0  0
  182.3370  178.9600  143.9310 C   0  0  0  0  0  3  0  0  0  0  0  0
  184.7410  179.1150  143.3670 C   0  0  0  0  0  3  0  0  0  0  0  0
  183.9480  179.3050  145.4740 O   0  0  0  0  0  0  0  0  0  0  0  0
  181.0900  182.3320  138.1210 C   0  0  0  0  0  2  0  0  0  0  0  0
  180.6110  182.7920  136.8930 O   0  0  0  0  0  0  0  0  0  0  0  0
  181.1510  184.3950  136.7730 P   0  0  1  0  0  0  0  0  0  0  0  0
  181.3020  184.7570  135.3140 O   0  0  0  0  0  0  0  0  0  0  0  0
  179.9880  185.4740  137.5150 N   0  0  0  0  0  1  0  0  0  0  0  0
  182.6480  184.5600  137.5450 O   0  0  0  0  0  1  0  0  0  0  0  0
  1  5  1  0  0  0  0
  1 13  1  0  0  0  0
  2  3  1  0  0  0  0
  3 23  1  0  0  0  0
  3  5  2  0  0  0  0
  4  2  2  0  0  0  0
  4  6  1  0  0  0  0
  6  1  2  0  0  0  0
  7  6  1  0  0  0  0
  7 11  1  0  0  0  0
  8 11  1  0  0  0  0
  9  8  1  0  0  0  0
 10  9  1  0  0  0  0
 10 12  1  0  0  0  0
 12  7  1  0  0  0  0
 13 14  1  6  0  0  0
 13 16  1  0  0  0  0
 15 20  2  0  0  0  0
 16 19  2  0  0  0  0
 16 17  1  0  0  0  0
 17 21  2  0  0  0  0
 18 22  2  0  0  0  0
 19 15  1  0  0  0  0
 20 18  1  0  0  0  0
 21 18  1  0  0  0  0
 24 23  1  0  0  0  0
 25 26  2  6  0  0  0
 25 24  1  0  0  0  0
 25 27  1  0  0  0  0
 25 28  1  0  0  0  0
M  END
>  <MODEL>
5

>  <REMARK>
 VINA RESULT:      -6.6      6.875      9.995
  Name = 
  6 active torsions:
  status: ('A' for Active; 'I' for Inactive)
    1  A    between atoms: N_2  and  C_24
    2  A    between atoms: O_3  and  P_6
    3  A    between atoms: O_3  and  C_17
    4  A    between atoms: C_4  and  C_9
    5  A    between atoms: C_8  and  C_9
    6  A    between atoms: C_12  and  C_17
                            x       y       z     vdW  Elec       q    Type
                         _______ _______ _______ _____ _____    ______ ____

>  <TORSDO>
F 6

$$$$
=
 OpenBabel10232408363D

 28 30  0  0  1  0  0  0  0  0999 V2000
  187.8990  177.4970  137.5280 C   0  0  0  0  0  0  0  0  0  0  0  0
  185.5770  176.1580  136.6880 C   0  0  0  0  0  3  0  0  0  0  0  0
  185.4750  177.3380  137.4260 C   0  0  0  0  0  0  0  0  0  0  0  0
  186.8340  175.6430  136.3660 C   0  0  0  0  0  3  0  0  0  0  0  0
  186.6310  178.0000  137.8430 C   0  0  0  0  0  3  0  0  0  0  0  0
  188.0030  176.2960  136.7830 C   0  0  0  0  0  0  0  0  0  0  0  0
  189.2720  175.7300  136.4380 N   0  0  0  0  0  0  0  0  0  0  0  0
  189.8820  173.3830  136.6140 C   0  0  0  0  0  2  0  0  0  0  0  0
  190.5370  173.4950  135.3100 N   0  0  0  0  0  2  0  0  0  0  0  0
  189.7550  174.3950  134.4630 C   0  0  0  0  0  2  0  0  0  0  0  0
  189.8880  174.7400  137.3160 C   0  0  0  0  0  2  0  0  0  0  0  0
  189.7500  175.8010  135.0600 C   0  0  0  0  0  2  0  0  0  0  0  0
  189.0820  178.3130  137.9710 C   0  0  1  0  0  3  0  0  0  0  0  0
  188.9100  179.6710  137.6910 O   0  0  0  0  0  1  0  0  0  0  0  0
  188.6250  178.2950  141.7450 C   0  0  0  0  0  3  0  0  0  0  0  0
  189.4880  178.0550  139.3980 C   0  0  0  0  0  0  0  0  0  0  0  0
  190.7520  177.5230  139.6460 C   0  0  0  0  0  3  0  0  0  0  0  0
  190.9110  177.3390  142.1500 C   0  0  0  0  0  0  0  0  0  0  0  0
  188.5480  178.3940  140.3640 C   0  0  0  0  0  3  0  0  0  0  0  0
  189.6680  177.8300  142.5300 C   0  0  0  0  0  3  0  0  0  0  0  0
  191.3720  177.2110  140.8470 C   0  0  0  0  0  3  0  0  0  0  0  0
  191.6870  176.9780  143.0710 O   0  0  0  0  0  0  0  0  0  0  0  0
  184.1370  177.8730  137.7950 C   0  0  0  0  0  2  0  0  0  0  0  0
  183.8040  177.4580  139.0860 O   0  0  0  0  0  0  0  0  0  0  0  0
  183.6610  178.8840  139.9920 P   0  0  1  0  0  0  0  0  0  0  0  0
  182.2070  179.1080  140.3350 O   0  0  0  0  0  1  0  0  0  0  0  0
  184.5850  178.7450  141.4740 N   0  0  0  0  0  1  0  0  0  0  0  0
  184.2290  180.2000  139.0930 O   0  0  0  0  0  0  0  0  0  0  0  0
  1  5  1  0  0  0  0
  1 13  1  0  0  0  0
  2  3  1  0  0  0  0
  3 23  1  0  0  0  0
  3  5  2  0  0  0  0
  4  2  2  0  0  0  0
  4  6  1  0  0  0  0
  6  1  2  0  0  0  0
  7  6  1  0  0  0  0
  7 11  1  0  0  0  0
  8 11  1  0  0  0  0
  9  8  1  0  0  0  0
 10 12  1  0  0  0  0
 10  9  1  0  0  0  0
 12  7  1  0  0  0  0
 13 14  1  1  0  0  0
 13 16  1  0  0  0  0
 15 20  2  0  0  0  0
 16 17  1  0  0  0  0
 16 19  2  0  0  0  0
 17 21  2  0  0  0  0
 18 20  1  0  0  0  0
 18 22  2  0  0  0  0
 19 15  1  0  0  0  0
 21 18  1  0  0  0  0
 23 24  1  0  0  0  0
 24 25  1  0  0  0  0
 25 28  2  6  0  0  0
 25 26  1  0  0  0  0
 25 27  1  0  0  0  0
M  END
>  <MODEL>
6

>  <REMARK>
 VINA RESULT:      -6.6      4.180      7.584
  Name = 
  6 active torsions:
  status: ('A' for Active; 'I' for Inactive)
    1  A    between atoms: N_2  and  C_24
    2  A    between atoms: O_3  and  P_6
    3  A    between atoms: O_3  and  C_17
    4  A    between atoms: C_4  and  C_9
    5  A    between atoms: C_8  and  C_9
    6  A    between atoms: C_12  and  C_17
                            x       y       z     vdW  Elec       q    Type
                         _______ _______ _______ _____ _____    ______ ____

>  <TORSDO>
F 6

$$$$
=
 OpenBabel10232408363D

 28 30  0  0  1  0  0  0  0  0999 V2000
  188.3390  178.0760  140.5150 C   0  0  0  0  0  0  0  0  0  0  0  0
  190.7610  176.6840  140.2200 C   0  0  0  0  0  3  0  0  0  0  0  0
  190.4150  177.2310  141.4570 C   0  0  0  0  0  0  0  0  0  0  0  0
  189.9030  176.8270  139.1290 C   0  0  0  0  0  3  0  0  0  0  0  0
  189.2110  177.9240  141.5990 C   0  0  0  0  0  3  0  0  0  0  0  0
  188.6920  177.5250  139.2580 C   0  0  0  0  0  0  0  0  0  0  0  0
  187.8440  177.6570  138.1120 N   0  0  0  0  0  0  0  0  0  0  0  0
  188.5830  178.0390  135.8280 C   0  0  0  0  0  2  0  0  0  0  0  0
  187.5950  177.0550  135.3830 N   0  0  0  0  0  2  0  0  0  0  0  0
  187.5140  175.9840  136.3760 C   0  0  0  0  0  2  0  0  0  0  0  0
  188.1140  178.6960  137.1240 C   0  0  0  0  0  2  0  0  0  0  0  0
  186.9970  176.5400  137.7020 C   0  0  0  0  0  2  0  0  0  0  0  0
  187.0410  178.7880  140.7820 C   0  0  1  0  0  3  0  0  0  0  0  0
  186.0790  178.4910  139.8130 O   0  0  0  0  0  1  0  0  0  0  0  0
  186.9250  177.2010  144.2340 C   0  0  0  0  0  3  0  0  0  0  0  0
  186.5360  178.6050  142.1880 C   0  0  1  0  0  3  0  0  0  0  0  0
  185.4830  179.4070  142.6270 C   0  0  0  0  0  3  0  0  0  0  0  0
  185.0280  178.6630  144.9880 C   0  0  0  0  0  0  0  0  0  0  0  0
  187.1670  177.6170  142.9340 C   0  0  0  0  0  3  0  0  0  0  0  0
  185.9810  177.6640  145.1380 C   0  0  0  0  0  2  0  0  0  0  0  0
  184.8270  179.4320  143.8490 C   0  0  0  0  0  3  0  0  0  0  0  0
  184.2810  178.8920  145.9730 O   0  0  0  0  0  0  0  0  0  0  0  0
  191.3420  177.1040  142.6130 C   0  0  0  0  0  2  0  0  0  0  0  0
  190.6630  176.5560  143.7030 O   0  0  0  0  0  0  0  0  0  0  0  0
  191.0650  177.5400  145.0240 P   0  0  1  0  0  0  0  0  0  0  0  0
  189.7950  178.0420  145.6710 O   0  0  0  0  0  1  0  0  0  0  0  0
  191.9820  176.6190  146.1980 N   0  0  0  0  0  1  0  0  0  0  0  0
  191.9820  178.8620  144.5010 O   0  0  0  0  0  0  0  0  0  0  0  0
  1 13  1  0  0  0  0
  1  5  1  0  0  0  0
  2  3  1  0  0  0  0
  3  5  2  0  0  0  0
  3 23  1  0  0  0  0
  4  6  1  0  0  0  0
  4  2  2  0  0  0  0
  6  1  2  0  0  0  0
  7  6  1  0  0  0  0
  8 11  1  0  0  0  0
  9  8  1  0  0  0  0
  9 10  1  0  0  0  0
 10 12  1  0  0  0  0
 11  7  1  0  0  0  0
 12  7  1  0  0  0  0
 13 14  1  6  0  0  0
 15 20  1  0  0  0  0
 16 13  1  6  0  0  0
 16 17  1  0  0  0  0
 16 19  1  0  0  0  0
 17 21  2  0  0  0  0
 18 20  1  0  0  0  0
 18 22  2  0  0  0  0
 19 15  2  0  0  0  0
 21 18  1  0  0  0  0
 23 24  1  0  0  0  0
 24 25  1  0  0  0  0
 25 28  2  6  0  0  0
 25 26  1  0  0  0  0
 25 27  1  0  0  0  0
M  END
>  <MODEL>
7

>  <REMARK>
 VINA RESULT:      -6.5      2.134      2.931
  Name = 
  6 active torsions:
  status: ('A' for Active; 'I' for Inactive)
    1  A    between atoms: N_2  and  C_24
    2  A    between atoms: O_3  and  P_6
    3  A    between atoms: O_3  and  C_17
    4  A    between atoms: C_4  and  C_9
    5  A    between atoms: C_8  and  C_9
    6  A    between atoms: C_12  and  C_17
                            x       y       z     vdW  Elec       q    Type
                         _______ _______ _______ _____ _____    ______ ____

>  <TORSDO>
F 6

$$$$
=
 OpenBabel10232408363D

 28 30  0  0  1  0  0  0  0  0999 V2000
  185.3230  178.7680  141.3270 C   0  0  0  0  0  0  0  0  0  0  0  0
  186.8210  178.2300  139.0120 C   0  0  0  0  0  3  0  0  0  0  0  0
  187.4670  178.4160  140.2350 C   0  0  0  0  0  0  0  0  0  0  0  0
  185.4300  178.3090  138.9380 C   0  0  0  0  0  3  0  0  0  0  0  0
  186.7200  178.6850  141.3830 C   0  0  0  0  0  3  0  0  0  0  0  0
  184.6670  178.5830  140.0840 C   0  0  0  0  0  0  0  0  0  0  0  0
  183.2430  178.6640  139.9640 N   0  0  0  0  0  0  0  0  0  0  0  0
  182.0240  179.7470  138.1610 C   0  0  0  0  0  2  0  0  0  0  0  0
  181.1040  178.6080  138.1490 N   0  0  0  0  0  2  0  0  0  0  0  0
  181.8610  177.3860  138.4220 C   0  0  0  0  0  2  0  0  0  0  0  0
  182.6190  179.9190  139.5570 C   0  0  0  0  0  2  0  0  0  0  0  0
  182.4530  177.4430  139.8290 C   0  0  0  0  0  2  0  0  0  0  0  0
  184.6040  179.0040  142.6260 C   0  0  1  0  0  3  0  0  0  0  0  0
  183.3370  178.4130  142.6320 O   0  0  0  0  0  1  0  0  0  0  0  0
  185.6040  179.1630  146.2900 C   0  0  0  0  0  3  0  0  0  0  0  0
  185.4230  178.6480  143.8380 C   0  0  1  0  0  3  0  0  0  0  0  0
  186.4850  177.7570  143.6860 C   0  0  0  0  0  3  0  0  0  0  0  0
  187.5090  177.5570  145.9760 C   0  0  0  0  0  0  0  0  0  0  0  0
  185.0480  179.2670  145.0240 C   0  0  0  0  0  3  0  0  0  0  0  0
  186.6900  178.4080  146.7070 C   0  0  0  0  0  2  0  0  0  0  0  0
  187.3940  177.2820  144.6200 C   0  0  0  0  0  3  0  0  0  0  0  0
  188.4380  176.9840  146.6010 O   0  0  0  0  0  0  0  0  0  0  0  0
  188.9510  178.3610  140.3100 C   0  0  0  0  0  2  0  0  0  0  0  0
  189.3490  178.1560  141.6320 O   0  0  0  0  0  0  0  0  0  0  0  0
  190.4980  176.9110  141.5680 P   0  0  1  0  0  0  0  0  0  0  0  0
  191.8700  177.4900  141.8230 O   0  0  0  0  0  1  0  0  0  0  0  0
  190.1460  175.7090  142.7930 N   0  0  0  0  0  1  0  0  0  0  0  0
  190.4770  176.1840  140.0400 O   0  0  0  0  0  0  0  0  0  0  0  0
  1  5  1  0  0  0  0
  1 13  1  0  0  0  0
  2  3  1  0  0  0  0
  3 23  1  0  0  0  0
  3  5  2  0  0  0  0
  4  2  2  0  0  0  0
  4  6  1  0  0  0  0
  6  1  2  0  0  0  0
  7  6  1  0  0  0  0
  8 11  1  0  0  0  0
  9  8  1  0  0  0  0
  9 10  1  0  0  0  0
 10 12  1  0  0  0  0
 11  7  1  0  0  0  0
 12  7  1  0  0  0  0
 13 14  1  6  0  0  0
 15 20  1  0  0  0  0
 16 13  1  6  0  0  0
 16 19  1  0  0  0  0
 17 16  1  0  0  0  0
 17 21  2  0  0  0  0
 18 22  2  0  0  0  0
 18 20  1  0  0  0  0
 19 15  2  0  0  0  0
 21 18  1  0  0  0  0
 23 24  1  0  0  0  0
 25 28  2  6  0  0  0
 25 24  1  0  0  0  0
 25 26  1  0  0  0  0
 25 27  1  0  0  0  0
M  END
>  <MODEL>
8

>  <REMARK>
 VINA RESULT:      -6.5      3.596      5.616
  Name = 
  6 active torsions:
  status: ('A' for Active; 'I' for Inactive)
    1  A    between atoms: N_2  and  C_24
    2  A    between atoms: O_3  and  P_6
    3  A    between atoms: O_3  and  C_17
    4  A    between atoms: C_4  and  C_9
    5  A    between atoms: C_8  and  C_9
    6  A    between atoms: C_12  and  C_17
                            x       y       z     vdW  Elec       q    Type
                         _______ _______ _______ _____ _____    ______ ____

>  <TORSDO>
F 6

$$$$
=
 OpenBabel10232408363D

 28 30  0  0  1  0  0  0  0  0999 V2000
  190.5770  176.4220  137.7110 C   0  0  0  0  0  0  0  0  0  0  0  0
  191.3950  173.9290  136.7090 C   0  0  0  0  0  3  0  0  0  0  0  0
  192.2790  174.7050  137.4590 C   0  0  0  0  0  0  0  0  0  0  0  0
  190.1020  174.3900  136.4570 C   0  0  0  0  0  3  0  0  0  0  0  0
  191.8700  175.9440  137.9540 C   0  0  0  0  0  3  0  0  0  0  0  0
  189.6800  175.6360  136.9450 C   0  0  0  0  0  0  0  0  0  0  0  0
  188.3480  176.0770  136.6570 N   0  0  0  0  0  0  0  0  0  0  0  0
  187.0590  175.5180  134.6730 C   0  0  0  0  0  2  0  0  0  0  0  0
  185.8920  175.3180  135.5340 N   0  0  0  0  0  2  0  0  0  0  0  0
  186.3320  174.7240  136.7960 C   0  0  0  0  0  2  0  0  0  0  0  0
  188.0090  176.5290  135.3120 C   0  0  0  0  0  2  0  0  0  0  0  0
  187.2490  175.6940  137.5380 C   0  0  0  0  0  2  0  0  0  0  0  0
  190.2120  177.7410  138.3340 C   0  0  1  0  0  3  0  0  0  0  0  0
  189.4520  178.5310  137.4670 O   0  0  0  0  0  1  0  0  0  0  0  0
  187.6350  178.4250  141.0430 C   0  0  0  0  0  3  0  0  0  0  0  0
  189.5940  177.6080  139.7010 C   0  0  1  0  0  3  0  0  0  0  0  0
  190.2330  176.8070  140.6450 C   0  0  0  0  0  3  0  0  0  0  0  0
  188.8160  176.9750  142.7180 C   0  0  0  0  0  0  0  0  0  0  0  0
  188.4230  178.3270  139.9070 C   0  0  0  0  0  3  0  0  0  0  0  0
  187.8110  177.8280  142.2820 C   0  0  0  0  0  2  0  0  0  0  0  0
  189.8930  176.5310  141.9620 C   0  0  0  0  0  3  0  0  0  0  0  0
  188.7440  176.5670  143.9060 O   0  0  0  0  0  0  0  0  0  0  0  0
  193.6660  174.2270  137.7040 C   0  0  0  0  0  2  0  0  0  0  0  0
  194.4480  175.2780  138.1870 O   0  0  0  0  0  0  0  0  0  0  0  0
  195.8270  174.5450  138.8470 P   0  0  1  0  0  0  0  0  0  0  0  0
  195.5530  173.0740  139.0560 O   0  0  0  0  0  0  0  0  0  0  0  0
  197.1830  174.7260  137.7530 N   0  0  0  0  0  1  0  0  0  0  0  0
  196.2030  175.2570  140.3360 O   0  0  0  0  0  1  0  0  0  0  0  0
  1  5  1  0  0  0  0
  1 13  1  0  0  0  0
  2  3  1  0  0  0  0
  3 23  1  0  0  0  0
  3  5  2  0  0  0  0
  4  2  2  0  0  0  0
  4  6  1  0  0  0  0
  6  1  2  0  0  0  0
  7  6  1  0  0  0  0
  7 12  1  0  0  0  0
  8 11  1  0  0  0  0
  8  9  1  0  0  0  0
  9 10  1  0  0  0  0
 10 12  1  0  0  0  0
 11  7  1  0  0  0  0
 13 14  1  6  0  0  0
 15 20  1  0  0  0  0
 16 13  1  1  0  0  0
 16 19  1  0  0  0  0
 16 17  1  0  0  0  0
 17 21  2  0  0  0  0
 18 22  2  0  0  0  0
 19 15  2  0  0  0  0
 20 18  1  0  0  0  0
 21 18  1  0  0  0  0
 23 24  1  0  0  0  0
 24 25  1  0  0  0  0
 25 27  1  6  0  0  0
 25 26  2  0  0  0  0
 25 28  1  0  0  0  0
M  END
>  <MODEL>
9

>  <REMARK>
 VINA RESULT:      -6.4      4.566      6.733
  Name = 
  6 active torsions:
  status: ('A' for Active; 'I' for Inactive)
    1  A    between atoms: N_2  and  C_24
    2  A    between atoms: O_3  and  P_6
    3  A    between atoms: O_3  and  C_17
    4  A    between atoms: C_4  and  C_9
    5  A    between atoms: C_8  and  C_9
    6  A    between atoms: C_12  and  C_17
                            x       y       z     vdW  Elec       q    Type
                         _______ _______ _______ _____ _____    ______ ____

>  <TORSDO>
F 6

$$$$
