=
 OpenBabel10232411003D

 42 45  0  0  1  0  0  0  0  0999 V2000
  181.3200  176.9240  138.8730 C   0  0  0  0  0  2  0  0  0  0  0  0
  180.4430  178.0160  141.3930 C   0  0  0  0  0  3  0  0  0  0  0  0
  183.1140  179.3120  144.3380 O   0  0  0  0  0  1  0  0  0  0  0  0
  179.9820  178.3760  142.6570 C   0  0  0  0  0  3  0  0  0  0  0  0
  181.8140  178.0570  141.0930 C   0  0  0  0  0  0  0  0  0  0  0  0
  184.1990  178.5330  141.7920 C   0  0  0  0  0  0  0  0  0  0  0  0
  185.0860  178.0690  142.8190 N   0  0  0  0  0  2  0  0  0  0  0  0
  184.6720  180.3000  138.7650 O   0  0  0  0  0  0  0  0  0  0  0  0
  182.2500  178.8640  143.3460 C   0  0  0  0  0  0  0  0  0  0  0  0
  182.7100  179.0060  139.0320 C   0  0  0  0  0  2  0  0  0  0  0  0
  182.3090  177.7190  139.7190 C   0  0  2  0  0  3  0  0  0  0  0  0
  184.0590  179.4750  139.4910 C   0  0  0  0  0  0  0  0  0  0  0  0
  184.7110  178.9880  140.6790 N   0  0  0  0  0  0  0  0  0  0  0  0
  182.7340  178.5020  142.0680 C   0  0  0  0  0  0  0  0  0  0  0  0
  180.8850  178.7970  143.6300 C   0  0  0  0  0  3  0  0  0  0  0  0
  186.5360  178.0200  142.6720 C   0  0  0  0  0  2  0  0  0  0  0  0
  187.1910  177.7900  143.9920 C   0  0  0  0  0  0  0  0  0  0  0  0
  188.5480  177.4560  144.0460 C   0  0  0  0  0  3  0  0  0  0  0  0
  187.0700  177.6910  146.4100 C   0  0  0  0  0  3  0  0  0  0  0  0
  188.4270  177.3550  146.4630 C   0  0  0  0  0  3  0  0  0  0  0  0
  186.4530  177.9110  145.1750 C   0  0  0  0  0  3  0  0  0  0  0  0
  189.1660  177.2390  145.2820 C   0  0  0  0  0  3  0  0  0  0  0  0
  181.9030  173.4820  137.3440 N   0  0  0  0  0  1  0  0  0  0  0  0
  181.2390  174.6370  137.8460 C   0  0  0  0  0  0  0  0  0  0  0  0
  181.9900  175.8010  138.2270 N   0  0  0  0  0  0  0  0  0  0  0  0
  179.9840  174.6230  137.9610 O   0  0  0  0  0  0  0  0  0  0  0  0
  183.4420  175.8470  138.0800 C   0  0  0  0  0  2  0  0  0  0  0  0
  185.2730  175.9880  136.4760 N   0  0  0  0  0  0  0  0  0  0  0  0
  183.1720  176.8410  135.8100 C   0  0  0  0  0  2  0  0  0  0  0  0
  183.8470  175.7670  136.6130 C   0  0  2  0  0  3  0  0  0  0  0  0
  184.1270  177.2680  134.8090 N   0  0  0  0  0  2  0  0  0  0  0  0
  185.4310  176.8060  135.2750 C   0  0  1  0  0  3  0  0  0  0  0  0
  186.3210  177.9980  135.5800 C   0  0  0  0  0  2  0  0  0  0  0  0
  187.5210  177.8840  134.8760 O   0  0  0  0  0  1  0  0  0  0  0  0
  185.8710  174.6880  136.2030 C   0  0  0  0  0  2  0  0  0  0  0  0
  187.0470  174.4420  137.1340 C   0  0  0  0  0  2  0  0  0  0  0  0
  188.6180  174.7120  136.2570 S   0  0  0  0  0  0  0  0  0  0  0  0
  189.3290  175.6380  137.6560 C   0  0  0  0  0  2  0  0  0  0  0  0
  188.6020  177.5350  139.1770 C   0  0  0  0  0  0  0  0  0  0  0  0
  187.8510  178.5250  139.3680 O   0  0  0  0  0  0  0  0  0  0  0  0
  189.5700  177.1410  140.2420 C   0  0  0  0  0  1  0  0  0  0  0  0
  188.5090  176.8030  137.9500 N   0  0  0  0  0  2  0  0  0  0  0  0
  2  4  1  0  0  0  0
  4 15  2  0  0  0  0
  5  2  2  0  0  0  0
  5 14  1  0  0  0  0
  6 14  1  0  0  0  0
  6  7  1  0  0  0  0
  8 12  2  0  0  0  0
  9 15  1  0  0  0  0
  9  3  1  0  0  0  0
 10 12  1  0  0  0  0
 10 11  1  0  0  0  0
 11  1  1  6  0  0  0
 11  5  1  0  0  0  0
 12 13  1  0  0  0  0
 13  6  2  0  0  0  0
 14  9  2  0  0  0  0
 16  7  1  0  0  0  0
 16 17  1  0  0  0  0
 17 18  2  0  0  0  0
 17 21  1  0  0  0  0
 18 22  1  0  0  0  0
 19 20  1  0  0  0  0
 21 19  2  0  0  0  0
 22 20  2  0  0  0  0
 23 24  1  0  0  0  0
 24 26  2  0  0  0  0
 24 25  1  0  0  0  0
 25  1  1  0  0  0  0
 27 25  1  0  0  0  0
 28 30  1  0  0  0  0
 29 30  1  0  0  0  0
 30 27  1  1  0  0  0
 31 32  1  0  0  0  0
 31 29  1  0  0  0  0
 32 33  1  1  0  0  0
 32 28  1  0  0  0  0
 34 33  1  0  0  0  0
 35 28  1  0  0  0  0
 35 36  1  0  0  0  0
 37 36  1  0  0  0  0
 37 38  1  0  0  0  0
 38 42  1  0  0  0  0
 39 40  2  0  0  0  0
 39 41  1  0  0  0  0
 42 39  1  0  0  0  0
M  END
>  <MODEL>
1

>  <REMARK>
 VINA RESULT:      -7.6      0.000      0.000
  Name = 
  12 active torsions:
  status: ('A' for Active; 'I' for Inactive)
    1  A    between atoms: C_1  and  C_39
    2  A    between atoms: N_6  and  C_19
    3  A    between atoms: N_6  and  C_37
    4  A    between atoms: C_10  and  C_40
    5  A    between atoms: C_12  and  N_21
    6  A    between atoms: C_12  and  C_24
    7  A    between atoms: S_13  and  C_24
    8  A    between atoms: S_13  and  C_25
    9  A    between atoms: C_19  and  C_33
   10  A    between atoms: C_25  and  N_42
   11  A    between atoms: N_26  and  C_39
   12  A    between atoms: C_28  and  C_37
                            x       y       z     vdW  Elec       q    Type
                         _______ _______ _______ _____ _____    ______ ____

>  <TORSDO>
F 12

$$$$
=
 OpenBabel10232411003D

 42 45  0  0  1  0  0  0  0  0999 V2000
  190.4270  175.7930  138.8010 C   0  0  0  0  0  2  0  0  0  0  0  0
  188.8730  174.6400  136.6640 C   0  0  0  0  0  3  0  0  0  0  0  0
  185.0840  176.0630  135.6130 O   0  0  0  0  0  1  0  0  0  0  0  0
  188.0880  173.9500  135.7440 C   0  0  0  0  0  3  0  0  0  0  0  0
  188.3970  175.8120  137.2740 C   0  0  0  0  0  0  0  0  0  0  0  0
  186.5770  177.5440  137.5730 C   0  0  0  0  0  0  0  0  0  0  0  0
  185.1990  177.5360  137.9710 N   0  0  0  0  0  2  0  0  0  0  0  0
  189.0250  180.0800  137.2860 O   0  0  0  0  0  0  0  0  0  0  0  0
  186.3400  175.6050  135.9910 C   0  0  0  0  0  0  0  0  0  0  0  0
  189.7340  177.8370  137.5210 C   0  0  0  0  0  2  0  0  0  0  0  0
  189.2570  176.5850  138.2260 C   0  0  2  0  0  3  0  0  0  0  0  0
  188.6690  178.8930  137.4980 C   0  0  0  0  0  0  0  0  0  0  0  0
  187.2790  178.6300  137.7670 N   0  0  0  0  0  0  0  0  0  0  0  0
  187.1250  176.3180  136.9270 C   0  0  0  0  0  0  0  0  0  0  0  0
  186.8240  174.4310  135.4110 C   0  0  0  0  0  3  0  0  0  0  0  0
  184.5440  178.6550  138.6370 C   0  0  0  0  0  2  0  0  0  0  0  0
  183.1780  178.2690  139.0960 C   0  0  0  0  0  0  0  0  0  0  0  0
  182.9090  176.9390  139.4360 C   0  0  0  0  0  3  0  0  0  0  0  0
  180.8880  178.8670  139.6160 C   0  0  0  0  0  3  0  0  0  0  0  0
  180.6190  177.5370  139.9550 C   0  0  0  0  0  3  0  0  0  0  0  0
  182.1680  179.2330  139.1890 C   0  0  0  0  0  3  0  0  0  0  0  0
  181.6290  176.5740  139.8660 C   0  0  0  0  0  3  0  0  0  0  0  0
  193.7950  177.3840  139.6070 N   0  0  0  0  0  1  0  0  0  0  0  0
  192.7940  176.6080  138.9570 C   0  0  0  0  0  0  0  0  0  0  0  0
  191.4210  176.6940  139.3720 N   0  0  0  0  0  0  0  0  0  0  0  0
  193.1290  175.8350  138.0190 O   0  0  0  0  0  0  0  0  0  0  0  0
  191.0080  177.6000  140.4400 C   0  0  0  0  0  2  0  0  0  0  0  0
  189.6090  177.7070  142.4340 N   0  0  0  0  0  0  0  0  0  0  0  0
  191.5080  176.3030  142.5090 C   0  0  0  0  0  2  0  0  0  0  0  0
  190.4220  176.8290  141.6160 C   0  0  2  0  0  3  0  0  0  0  0  0
  191.0050  176.3910  143.8640 N   0  0  0  0  0  2  0  0  0  0  0  0
  189.8840  177.3250  143.8170 C   0  0  1  0  0  3  0  0  0  0  0  0
  190.2100  178.5620  144.6360 C   0  0  0  0  0  2  0  0  0  0  0  0
  190.9200  179.4740  143.8530 O   0  0  0  0  0  1  0  0  0  0  0  0
  188.2200  177.3690  142.1530 C   0  0  0  0  0  2  0  0  0  0  0  0
  187.5520  178.4860  141.3670 C   0  0  0  0  0  2  0  0  0  0  0  0
  185.8800  178.8020  142.0080 S   0  0  0  0  0  0  0  0  0  0  0  0
  186.2190  177.9050  143.5570 C   0  0  0  0  0  2  0  0  0  0  0  0
  185.6630  178.3600  145.9920 C   0  0  0  0  0  0  0  0  0  0  0  0
  184.8240  178.7530  146.8420 O   0  0  0  0  0  0  0  0  0  0  0  0
  187.0030  177.8950  146.4540 C   0  0  0  0  0  1  0  0  0  0  0  0
  185.3140  178.3580  144.6030 N   0  0  0  0  0  2  0  0  0  0  0  0
  1 25  1  0  0  0  0
  2  5  1  0  0  0  0
  3  9  1  0  0  0  0
  4  2  2  0  0  0  0
  5 11  1  0  0  0  0
  6 13  2  0  0  0  0
  6  7  1  0  0  0  0
  7 16  1  0  0  0  0
  8 12  2  0  0  0  0
  9 14  1  0  0  0  0
 10 11  1  0  0  0  0
 11  1  1  6  0  0  0
 12 10  1  0  0  0  0
 12 13  1  0  0  0  0
 14  5  2  0  0  0  0
 14  6  1  0  0  0  0
 15  4  1  0  0  0  0
 15  9  2  0  0  0  0
 16 17  1  0  0  0  0
 17 21  2  0  0  0  0
 17 18  1  0  0  0  0
 18 22  2  0  0  0  0
 19 20  2  0  0  0  0
 21 19  1  0  0  0  0
 22 20  1  0  0  0  0
 24 25  1  0  0  0  0
 24 23  1  0  0  0  0
 25 27  1  0  0  0  0
 26 24  2  0  0  0  0
 28 32  1  0  0  0  0
 29 31  1  0  0  0  0
 30 27  1  6  0  0  0
 30 28  1  0  0  0  0
 30 29  1  0  0  0  0
 32 31  1  0  0  0  0
 32 33  1  1  0  0  0
 34 33  1  0  0  0  0
 35 28  1  0  0  0  0
 36 37  1  0  0  0  0
 36 35  1  0  0  0  0
 37 38  1  0  0  0  0
 38 42  1  0  0  0  0
 39 41  1  0  0  0  0
 39 40  2  0  0  0  0
 42 39  1  0  0  0  0
M  END
>  <MODEL>
2

>  <REMARK>
 VINA RESULT:      -7.5      2.875      8.580
  Name = 
  12 active torsions:
  status: ('A' for Active; 'I' for Inactive)
    1  A    between atoms: C_1  and  C_39
    2  A    between atoms: N_6  and  C_19
    3  A    between atoms: N_6  and  C_37
    4  A    between atoms: C_10  and  C_40
    5  A    between atoms: C_12  and  N_21
    6  A    between atoms: C_12  and  C_24
    7  A    between atoms: S_13  and  C_24
    8  A    between atoms: S_13  and  C_25
    9  A    between atoms: C_19  and  C_33
   10  A    between atoms: C_25  and  N_42
   11  A    between atoms: N_26  and  C_39
   12  A    between atoms: C_28  and  C_37
                            x       y       z     vdW  Elec       q    Type
                         _______ _______ _______ _____ _____    ______ ____

>  <TORSDO>
F 12

$$$$
=
 OpenBabel10232411003D

 42 45  0  0  1  0  0  0  0  0999 V2000
  186.0710  177.2270  137.8430 C   0  0  0  0  0  2  0  0  0  0  0  0
  183.5780  175.7840  137.7440 C   0  0  0  0  0  3  0  0  0  0  0  0
  180.4900  176.4310  140.4890 O   0  0  0  0  0  1  0  0  0  0  0  0
  182.4630  174.9500  137.7640 C   0  0  0  0  0  3  0  0  0  0  0  0
  183.6970  176.8420  138.6610 C   0  0  0  0  0  0  0  0  0  0  0  0
  182.7670  178.1830  140.5940 C   0  0  0  0  0  0  0  0  0  0  0  0
  182.3530  177.9050  141.9390 N   0  0  0  0  0  2  0  0  0  0  0  0
  183.5710  181.1510  138.8460 O   0  0  0  0  0  0  0  0  0  0  0  0
  181.5370  176.2300  139.5970 C   0  0  0  0  0  0  0  0  0  0  0  0
  184.4020  179.0910  138.0330 C   0  0  0  0  0  2  0  0  0  0  0  0
  184.8700  177.7730  138.6090 C   0  0  2  0  0  3  0  0  0  0  0  0
  183.6880  179.9160  139.0620 C   0  0  0  0  0  0  0  0  0  0  0  0
  183.1880  179.3860  140.3030 N   0  0  0  0  0  0  0  0  0  0  0  0
  182.6620  177.0860  139.5900 C   0  0  0  0  0  0  0  0  0  0  0  0
  181.4470  175.1720  138.6910 C   0  0  0  0  0  3  0  0  0  0  0  0
  182.4270  178.8760  143.0240 C   0  0  0  0  0  2  0  0  0  0  0  0
  183.6490  178.6510  143.8490 C   0  0  0  0  0  0  0  0  0  0  0  0
  184.8490  178.2870  143.2290 C   0  0  0  0  0  3  0  0  0  0  0  0
  184.7460  178.5910  146.0090 C   0  0  0  0  0  3  0  0  0  0  0  0
  185.9450  178.2260  145.3890 C   0  0  0  0  0  3  0  0  0  0  0  0
  183.5990  178.8060  145.2390 C   0  0  0  0  0  3  0  0  0  0  0  0
  185.9970  178.0750  144.0000 C   0  0  0  0  0  3  0  0  0  0  0  0
  188.9910  179.5160  136.9720 N   0  0  0  0  0  1  0  0  0  0  0  0
  187.7880  178.7640  136.8520 C   0  0  0  0  0  0  0  0  0  0  0  0
  187.2190  178.1130  138.0000 N   0  0  0  0  0  0  0  0  0  0  0  0
  187.2330  178.6670  135.7250 O   0  0  0  0  0  0  0  0  0  0  0  0
  187.8330  178.2320  139.3190 C   0  0  0  0  0  2  0  0  0  0  0  0
  189.8090  177.4080  140.4870 N   0  0  0  0  0  0  0  0  0  0  0  0
  189.3190  176.4680  138.3750 C   0  0  0  0  0  2  0  0  0  0  0  0
  188.7060  177.0220  139.6280 C   0  0  2  0  0  3  0  0  0  0  0  0
  190.6470  176.0120  138.7320 N   0  0  0  0  0  2  0  0  0  0  0  0
  190.9690  176.6660  139.9980 C   0  0  1  0  0  3  0  0  0  0  0  0
  192.1400  177.6130  139.8050 C   0  0  0  0  0  2  0  0  0  0  0  0
  193.2340  176.9140  139.2930 O   0  0  0  0  0  1  0  0  0  0  0  0
  189.4960  176.9050  141.8180 C   0  0  0  0  0  2  0  0  0  0  0  0
  189.5100  178.0400  142.8290 C   0  0  0  0  0  2  0  0  0  0  0  0
  191.2180  178.4340  143.3150 S   0  0  0  0  0  0  0  0  0  0  0  0
  191.2380  177.1370  144.5930 C   0  0  0  0  0  2  0  0  0  0  0  0
  190.0390  176.9120  146.8190 C   0  0  0  0  0  0  0  0  0  0  0  0
  188.9690  177.0120  147.4720 O   0  0  0  0  0  0  0  0  0  0  0  0
  191.2730  176.4450  147.5130 C   0  0  0  0  0  1  0  0  0  0  0  0
  190.0490  177.2400  145.4250 N   0  0  0  0  0  2  0  0  0  0  0  0
  1 25  1  0  0  0  0
  2  4  2  0  0  0  0
  2  5  1  0  0  0  0
  4 15  1  0  0  0  0
  5 14  2  0  0  0  0
  6  7  1  0  0  0  0
  7 16  1  0  0  0  0
  8 12  2  0  0  0  0
  9  3  1  0  0  0  0
 10 11  1  0  0  0  0
 10 12  1  0  0  0  0
 11  1  1  6  0  0  0
 11  5  1  0  0  0  0
 12 13  1  0  0  0  0
 13  6  2  0  0  0  0
 14  9  1  0  0  0  0
 14  6  1  0  0  0  0
 15  9  2  0  0  0  0
 16 17  1  0  0  0  0
 17 21  1  0  0  0  0
 18 17  2  0  0  0  0
 18 22  1  0  0  0  0
 20 19  1  0  0  0  0
 21 19  2  0  0  0  0
 22 20  2  0  0  0  0
 24 23  1  0  0  0  0
 24 25  1  0  0  0  0
 25 27  1  0  0  0  0
 26 24  2  0  0  0  0
 28 35  1  0  0  0  0
 29 31  1  0  0  0  0
 29 30  1  0  0  0  0
 30 27  1  6  0  0  0
 30 28  1  0  0  0  0
 31 32  1  0  0  0  0
 32 33  1  6  0  0  0
 32 28  1  0  0  0  0
 34 33  1  0  0  0  0
 35 36  1  0  0  0  0
 36 37  1  0  0  0  0
 37 38  1  0  0  0  0
 38 42  1  0  0  0  0
 39 40  2  0  0  0  0
 39 41  1  0  0  0  0
 42 39  1  0  0  0  0
M  END
>  <MODEL>
3

>  <REMARK>
 VINA RESULT:      -7.2      2.723      5.770
  Name = 
  12 active torsions:
  status: ('A' for Active; 'I' for Inactive)
    1  A    between atoms: C_1  and  C_39
    2  A    between atoms: N_6  and  C_19
    3  A    between atoms: N_6  and  C_37
    4  A    between atoms: C_10  and  C_40
    5  A    between atoms: C_12  and  N_21
    6  A    between atoms: C_12  and  C_24
    7  A    between atoms: S_13  and  C_24
    8  A    between atoms: S_13  and  C_25
    9  A    between atoms: C_19  and  C_33
   10  A    between atoms: C_25  and  N_42
   11  A    between atoms: N_26  and  C_39
   12  A    between atoms: C_28  and  C_37
                            x       y       z     vdW  Elec       q    Type
                         _______ _______ _______ _____ _____    ______ ____

>  <TORSDO>
F 12

$$$$
=
 OpenBabel10232411003D

 42 45  0  0  1  0  0  0  0  0999 V2000
  190.1960  177.7990  140.1870 C   0  0  0  0  0  2  0  0  0  0  0  0
  191.4080  175.9840  138.3030 C   0  0  0  0  0  3  0  0  0  0  0  0
  189.1620  173.6880  135.6240 O   0  0  0  0  0  1  0  0  0  0  0  0
  192.0180  174.9990  137.5300 C   0  0  0  0  0  3  0  0  0  0  0  0
  190.0240  176.2070  138.2140 C   0  0  0  0  0  0  0  0  0  0  0  0
  187.7720  175.6440  137.2070 C   0  0  0  0  0  0  0  0  0  0  0  0
  186.9470  174.4740  137.1120 N   0  0  0  0  0  2  0  0  0  0  0  0
  187.1800  179.0990  136.7440 O   0  0  0  0  0  0  0  0  0  0  0  0
  189.8820  174.4550  136.5320 C   0  0  0  0  0  0  0  0  0  0  0  0
  189.0280  178.4280  138.0570 C   0  0  0  0  0  2  0  0  0  0  0  0
  189.3710  177.2990  139.0050 C   0  0  2  0  0  3  0  0  0  0  0  0
  187.7790  178.1320  137.2810 C   0  0  0  0  0  0  0  0  0  0  0  0
  187.2000  176.8190  137.1720 N   0  0  0  0  0  0  0  0  0  0  0  0
  189.2470  175.4510  137.3080 C   0  0  0  0  0  0  0  0  0  0  0  0
  191.2560  174.2360  136.6500 C   0  0  0  0  0  3  0  0  0  0  0  0
  185.4920  174.5160  137.0350 C   0  0  0  0  0  2  0  0  0  0  0  0
  184.9430  173.1700  136.7020 C   0  0  0  0  0  0  0  0  0  0  0  0
  183.7410  172.7470  137.2790 C   0  0  0  0  0  3  0  0  0  0  0  0
  185.1080  171.0700  135.5050 C   0  0  0  0  0  3  0  0  0  0  0  0
  183.9080  170.6460  136.0830 C   0  0  0  0  0  3  0  0  0  0  0  0
  185.6240  172.3320  135.8120 C   0  0  0  0  0  3  0  0  0  0  0  0
  183.2240  171.4840  136.9690 C   0  0  0  0  0  3  0  0  0  0  0  0
  189.9200  176.4880  143.7550 N   0  0  0  0  0  1  0  0  0  0  0  0
  190.4600  177.0670  142.5710 C   0  0  0  0  0  0  0  0  0  0  0  0
  189.6130  177.3420  141.4430 N   0  0  0  0  0  0  0  0  0  0  0  0
  191.6930  177.3250  142.5200 O   0  0  0  0  0  0  0  0  0  0  0  0
  188.1790  177.0730  141.4890 C   0  0  0  0  0  2  0  0  0  0  0  0
  186.2600  177.8060  142.8020 N   0  0  0  0  0  0  0  0  0  0  0  0
  186.8910  179.1400  140.9560 C   0  0  0  0  0  2  0  0  0  0  0  0
  187.4160  178.2640  142.0570 C   0  0  2  0  0  3  0  0  0  0  0  0
  185.6040  179.6320  141.4010 N   0  0  0  0  0  2  0  0  0  0  0  0
  185.1890  178.7490  142.4860 C   0  0  1  0  0  3  0  0  0  0  0  0
  183.9390  177.9880  142.0810 C   0  0  0  0  0  2  0  0  0  0  0  0
  183.4110  178.5340  140.9100 O   0  0  0  0  0  1  0  0  0  0  0  0
  186.5840  177.9680  144.2130 C   0  0  0  0  0  2  0  0  0  0  0  0
  185.5850  178.8970  144.8820 C   0  0  0  0  0  2  0  0  0  0  0  0
  185.3410  178.4210  146.6210 S   0  0  0  0  0  0  0  0  0  0  0  0
  187.0000  177.6780  146.7320 C   0  0  0  0  0  2  0  0  0  0  0  0
  189.0930  177.9290  148.1470 C   0  0  0  0  0  0  0  0  0  0  0  0
  189.6570  178.4610  149.1370 O   0  0  0  0  0  0  0  0  0  0  0  0
  189.8550  176.9570  147.3110 C   0  0  0  0  0  1  0  0  0  0  0  0
  187.7310  178.2590  147.8480 N   0  0  0  0  0  2  0  0  0  0  0  0
  1 25  1  0  0  0  0
  3  9  1  0  0  0  0
  4  2  2  0  0  0  0
  5  2  1  0  0  0  0
  5 11  1  0  0  0  0
  6 14  1  0  0  0  0
  7  6  1  0  0  0  0
  8 12  2  0  0  0  0
  9 15  2  0  0  0  0
  9 14  1  0  0  0  0
 10 11  1  0  0  0  0
 11  1  1  1  0  0  0
 12 10  1  0  0  0  0
 13  6  2  0  0  0  0
 13 12  1  0  0  0  0
 14  5  2  0  0  0  0
 15  4  1  0  0  0  0
 16  7  1  0  0  0  0
 17 16  1  0  0  0  0
 17 18  1  0  0  0  0
 19 21  1  0  0  0  0
 19 20  2  0  0  0  0
 20 22  1  0  0  0  0
 21 17  2  0  0  0  0
 22 18  2  0  0  0  0
 24 23  1  0  0  0  0
 25 27  1  0  0  0  0
 25 24  1  0  0  0  0
 26 24  2  0  0  0  0
 28 35  1  0  0  0  0
 29 31  1  0  0  0  0
 29 30  1  0  0  0  0
 30 27  1  6  0  0  0
 30 28  1  0  0  0  0
 31 32  1  0  0  0  0
 32 33  1  6  0  0  0
 32 28  1  0  0  0  0
 34 33  1  0  0  0  0
 35 36  1  0  0  0  0
 36 37  1  0  0  0  0
 37 38  1  0  0  0  0
 38 42  1  0  0  0  0
 39 40  2  0  0  0  0
 41 39  1  0  0  0  0
 42 39  1  0  0  0  0
M  END
>  <MODEL>
4

>  <REMARK>
 VINA RESULT:      -7.1      3.352      9.265
  Name = 
  12 active torsions:
  status: ('A' for Active; 'I' for Inactive)
    1  A    between atoms: C_1  and  C_39
    2  A    between atoms: N_6  and  C_19
    3  A    between atoms: N_6  and  C_37
    4  A    between atoms: C_10  and  C_40
    5  A    between atoms: C_12  and  N_21
    6  A    between atoms: C_12  and  C_24
    7  A    between atoms: S_13  and  C_24
    8  A    between atoms: S_13  and  C_25
    9  A    between atoms: C_19  and  C_33
   10  A    between atoms: C_25  and  N_42
   11  A    between atoms: N_26  and  C_39
   12  A    between atoms: C_28  and  C_37
                            x       y       z     vdW  Elec       q    Type
                         _______ _______ _______ _____ _____    ______ ____

>  <TORSDO>
F 12

$$$$
=
 OpenBabel10232411003D

 42 45  0  0  1  0  0  0  0  0999 V2000
  181.4100  177.0390  138.7270 C   0  0  0  0  0  2  0  0  0  0  0  0
  180.4710  178.0590  141.2540 C   0  0  0  0  0  3  0  0  0  0  0  0
  183.0700  179.3050  144.2840 O   0  0  0  0  0  1  0  0  0  0  0  0
  179.9820  178.3840  142.5170 C   0  0  0  0  0  3  0  0  0  0  0  0
  181.8480  178.1210  140.9830 C   0  0  0  0  0  0  0  0  0  0  0  0
  184.2130  178.6020  141.7420 C   0  0  0  0  0  0  0  0  0  0  0  0
  185.0840  178.1190  142.7750 N   0  0  0  0  0  2  0  0  0  0  0  0
  184.7300  180.4480  138.7700 O   0  0  0  0  0  0  0  0  0  0  0  0
  182.2300  178.8750  143.2640 C   0  0  0  0  0  0  0  0  0  0  0  0
  182.7760  179.1300  138.9660 C   0  0  0  0  0  2  0  0  0  0  0  0
  182.3740  177.8220  139.6120 C   0  0  2  0  0  3  0  0  0  0  0  0
  184.1110  179.6000  139.4640 C   0  0  0  0  0  0  0  0  0  0  0  0
  184.7440  179.0890  140.6520 N   0  0  0  0  0  0  0  0  0  0  0  0
  182.7440  178.5490  141.9880 C   0  0  0  0  0  0  0  0  0  0  0  0
  180.8610  178.7880  143.5190 C   0  0  0  0  0  3  0  0  0  0  0  0
  186.5370  178.0880  142.6570 C   0  0  0  0  0  2  0  0  0  0  0  0
  187.1690  177.8730  143.9900 C   0  0  0  0  0  0  0  0  0  0  0  0
  186.3980  177.9810  145.1520 C   0  0  0  0  0  3  0  0  0  0  0  0
  189.1210  177.3640  145.3340 C   0  0  0  0  0  3  0  0  0  0  0  0
  188.3490  177.4730  146.4950 C   0  0  0  0  0  3  0  0  0  0  0  0
  188.5310  177.5610  144.0820 C   0  0  0  0  0  3  0  0  0  0  0  0
  186.9880  177.7810  146.4040 C   0  0  0  0  0  3  0  0  0  0  0  0
  181.6670  176.9450  134.9250 N   0  0  0  0  0  1  0  0  0  0  0  0
  181.1890  177.2320  136.2360 C   0  0  0  0  0  0  0  0  0  0  0  0
  181.9670  176.8730  137.3900 N   0  0  0  0  0  0  0  0  0  0  0  0
  180.0710  177.7960  136.3720 O   0  0  0  0  0  0  0  0  0  0  0  0
  183.2760  176.2410  137.2530 C   0  0  0  0  0  2  0  0  0  0  0  0
  184.1750  174.0180  136.8090 N   0  0  0  0  0  0  0  0  0  0  0  0
  181.8590  174.1900  137.2430 C   0  0  0  0  0  2  0  0  0  0  0  0
  183.2040  174.7570  137.5920 C   0  0  2  0  0  3  0  0  0  0  0  0
  182.0910  172.8430  136.7650 N   0  0  0  0  0  2  0  0  0  0  0  0
  183.5090  172.7760  136.4230 C   0  0  1  0  0  3  0  0  0  0  0  0
  183.6690  172.5500  134.9300 C   0  0  0  0  0  2  0  0  0  0  0  0
  182.7660  171.5770  134.5000 O   0  0  0  0  0  1  0  0  0  0  0  0
  185.2620  173.6700  137.7140 C   0  0  0  0  0  2  0  0  0  0  0  0
  186.6040  173.8400  137.0200 C   0  0  0  0  0  2  0  0  0  0  0  0
  186.5170  175.1780  135.7910 S   0  0  0  0  0  0  0  0  0  0  0  0
  187.9670  176.0260  136.4970 C   0  0  0  0  0  2  0  0  0  0  0  0
  188.0140  178.0150  138.0730 C   0  0  0  0  0  0  0  0  0  0  0  0
  187.6700  178.5160  139.1740 O   0  0  0  0  0  0  0  0  0  0  0  0
  188.8540  178.8200  137.1400 C   0  0  0  0  0  1  0  0  0  0  0  0
  187.6000  176.6850  137.7410 N   0  0  0  0  0  2  0  0  0  0  0  0
  2  4  1  0  0  0  0
  4 15  2  0  0  0  0
  5  2  2  0  0  0  0
  5 14  1  0  0  0  0
  6 14  1  0  0  0  0
  6  7  1  0  0  0  0
  8 12  2  0  0  0  0
  9 15  1  0  0  0  0
  9  3  1  0  0  0  0
 10 12  1  0  0  0  0
 10 11  1  0  0  0  0
 11  1  1  6  0  0  0
 11  5  1  0  0  0  0
 12 13  1  0  0  0  0
 13  6  2  0  0  0  0
 14  9  2  0  0  0  0
 16  7  1  0  0  0  0
 16 17  1  0  0  0  0
 17 21  2  0  0  0  0
 17 18  1  0  0  0  0
 18 22  2  0  0  0  0
 19 20  2  0  0  0  0
 21 19  1  0  0  0  0
 22 20  1  0  0  0  0
 23 24  1  0  0  0  0
 24 26  2  0  0  0  0
 24 25  1  0  0  0  0
 25  1  1  0  0  0  0
 27 25  1  0  0  0  0
 28 30  1  0  0  0  0
 28 35  1  0  0  0  0
 29 30  1  0  0  0  0
 30 27  1  6  0  0  0
 31 29  1  0  0  0  0
 32 33  1  6  0  0  0
 32 31  1  0  0  0  0
 32 28  1  0  0  0  0
 34 33  1  0  0  0  0
 36 35  1  0  0  0  0
 37 38  1  0  0  0  0
 37 36  1  0  0  0  0
 38 42  1  0  0  0  0
 39 40  2  0  0  0  0
 41 39  1  0  0  0  0
 42 39  1  0  0  0  0
M  END
>  <MODEL>
5

>  <REMARK>
 VINA RESULT:      -7.1      1.579      2.495
  Name = 
  12 active torsions:
  status: ('A' for Active; 'I' for Inactive)
    1  A    between atoms: C_1  and  C_39
    2  A    between atoms: N_6  and  C_19
    3  A    between atoms: N_6  and  C_37
    4  A    between atoms: C_10  and  C_40
    5  A    between atoms: C_12  and  N_21
    6  A    between atoms: C_12  and  C_24
    7  A    between atoms: S_13  and  C_24
    8  A    between atoms: S_13  and  C_25
    9  A    between atoms: C_19  and  C_33
   10  A    between atoms: C_25  and  N_42
   11  A    between atoms: N_26  and  C_39
   12  A    between atoms: C_28  and  C_37
                            x       y       z     vdW  Elec       q    Type
                         _______ _______ _______ _____ _____    ______ ____

>  <TORSDO>
F 12

$$$$
=
 OpenBabel10232411003D

 42 45  0  0  1  0  0  0  0  0999 V2000
  185.4660  175.5370  135.7640 C   0  0  0  0  0  2  0  0  0  0  0  0
  183.0250  177.0180  136.1600 C   0  0  0  0  0  3  0  0  0  0  0  0
  182.4790  179.6430  139.3700 O   0  0  0  0  0  1  0  0  0  0  0  0
  181.7760  177.5810  136.4090 C   0  0  0  0  0  3  0  0  0  0  0  0
  184.1170  177.3020  136.9970 C   0  0  0  0  0  0  0  0  0  0  0  0
  185.0900  178.4970  139.0030 C   0  0  0  0  0  0  0  0  0  0  0  0
  184.8140  178.5450  140.4100 N   0  0  0  0  0  2  0  0  0  0  0  0
  187.8540  179.4570  137.0180 O   0  0  0  0  0  0  0  0  0  0  0  0
  182.6840  178.7570  138.3190 C   0  0  0  0  0  0  0  0  0  0  0  0
  186.3410  177.8550  136.1610 C   0  0  0  0  0  2  0  0  0  0  0  0
  185.4740  176.7390  136.7030 C   0  0  2  0  0  3  0  0  0  0  0  0
  186.8540  178.7340  137.2620 C   0  0  0  0  0  0  0  0  0  0  0  0
  186.3050  178.7490  138.5930 N   0  0  0  0  0  0  0  0  0  0  0  0
  183.9590  178.1940  138.0800 C   0  0  0  0  0  0  0  0  0  0  0  0
  181.6070  178.4460  137.4880 C   0  0  0  0  0  3  0  0  0  0  0  0
  185.8300  178.8040  141.4240 C   0  0  0  0  0  2  0  0  0  0  0  0
  185.2320  178.7660  142.7890 C   0  0  0  0  0  0  0  0  0  0  0  0
  186.0020  178.3320  143.8740 C   0  0  0  0  0  3  0  0  0  0  0  0
  183.3490  179.1250  144.2710 C   0  0  0  0  0  3  0  0  0  0  0  0
  184.1180  178.6900  145.3540 C   0  0  0  0  0  3  0  0  0  0  0  0
  183.9060  179.1660  142.9900 C   0  0  0  0  0  3  0  0  0  0  0  0
  185.4450  178.2940  145.1560 C   0  0  0  0  0  3  0  0  0  0  0  0
  186.7420  172.6630  137.9170 N   0  0  0  0  0  1  0  0  0  0  0  0
  185.8600  173.6020  137.3100 C   0  0  0  0  0  0  0  0  0  0  0  0
  186.3330  174.4840  136.2780 N   0  0  0  0  0  0  0  0  0  0  0  0
  184.6620  173.6560  137.6950 O   0  0  0  0  0  0  0  0  0  0  0  0
  187.7120  174.4210  135.8020 C   0  0  0  0  0  2  0  0  0  0  0  0
  189.3640  175.6170  137.1370 N   0  0  0  0  0  0  0  0  0  0  0  0
  189.7650  173.3290  136.7010 C   0  0  0  0  0  2  0  0  0  0  0  0
  188.6910  174.3440  136.9670 C   0  0  2  0  0  3  0  0  0  0  0  0
  190.9840  173.8600  137.2730 N   0  0  0  0  0  2  0  0  0  0  0  0
  190.7510  175.2890  137.4610 C   0  0  1  0  0  3  0  0  0  0  0  0
  191.6880  176.0850  136.5690 C   0  0  0  0  0  2  0  0  0  0  0  0
  192.8320  176.4410  137.2840 O   0  0  0  0  0  1  0  0  0  0  0  0
  188.7760  176.2450  138.3130 C   0  0  0  0  0  2  0  0  0  0  0  0
  189.8580  176.8860  139.1670 C   0  0  0  0  0  2  0  0  0  0  0  0
  189.1310  177.6330  140.6570 S   0  0  0  0  0  0  0  0  0  0  0  0
  190.1430  176.6000  141.7650 C   0  0  0  0  0  2  0  0  0  0  0  0
  189.5480  177.1270  144.1750 C   0  0  0  0  0  0  0  0  0  0  0  0
  188.8970  176.8230  145.2080 O   0  0  0  0  0  0  0  0  0  0  0  0
  190.4530  178.3120  144.2100 C   0  0  0  0  0  1  0  0  0  0  0  0
  189.4150  176.3280  142.9950 N   0  0  0  0  0  2  0  0  0  0  0  0
  1 25  1  0  0  0  0
  2  4  2  0  0  0  0
  2  5  1  0  0  0  0
  4 15  1  0  0  0  0
  5 14  2  0  0  0  0
  6  7  1  0  0  0  0
  7 16  1  0  0  0  0
  8 12  2  0  0  0  0
  9  3  1  0  0  0  0
 10 11  1  0  0  0  0
 10 12  1  0  0  0  0
 11  1  1  6  0  0  0
 11  5  1  0  0  0  0
 12 13  1  0  0  0  0
 13  6  2  0  0  0  0
 14  9  1  0  0  0  0
 14  6  1  0  0  0  0
 15  9  2  0  0  0  0
 16 17  1  0  0  0  0
 17 21  2  0  0  0  0
 17 18  1  0  0  0  0
 18 22  2  0  0  0  0
 19 20  2  0  0  0  0
 21 19  1  0  0  0  0
 22 20  1  0  0  0  0
 24 26  2  0  0  0  0
 24 23  1  0  0  0  0
 25 24  1  0  0  0  0
 27 25  1  0  0  0  0
 28 32  1  0  0  0  0
 28 35  1  0  0  0  0
 29 30  1  0  0  0  0
 29 31  1  0  0  0  0
 30 27  1  6  0  0  0
 30 28  1  0  0  0  0
 31 32  1  0  0  0  0
 32 33  1  6  0  0  0
 33 34  1  0  0  0  0
 35 36  1  0  0  0  0
 36 37  1  0  0  0  0
 37 38  1  0  0  0  0
 38 42  1  0  0  0  0
 39 41  1  0  0  0  0
 39 40  2  0  0  0  0
 42 39  1  0  0  0  0
M  END
>  <MODEL>
6

>  <REMARK>
 VINA RESULT:      -7.1      2.553      4.858
  Name = 
  12 active torsions:
  status: ('A' for Active; 'I' for Inactive)
    1  A    between atoms: C_1  and  C_39
    2  A    between atoms: N_6  and  C_19
    3  A    between atoms: N_6  and  C_37
    4  A    between atoms: C_10  and  C_40
    5  A    between atoms: C_12  and  N_21
    6  A    between atoms: C_12  and  C_24
    7  A    between atoms: S_13  and  C_24
    8  A    between atoms: S_13  and  C_25
    9  A    between atoms: C_19  and  C_33
   10  A    between atoms: C_25  and  N_42
   11  A    between atoms: N_26  and  C_39
   12  A    between atoms: C_28  and  C_37
                            x       y       z     vdW  Elec       q    Type
                         _______ _______ _______ _____ _____    ______ ____

>  <TORSDO>
F 12

$$$$
=
 OpenBabel10232411003D

 42 45  0  0  1  0  0  0  0  0999 V2000
  183.1570  177.2850  139.8830 C   0  0  0  0  0  2  0  0  0  0  0  0
  182.0630  178.6380  142.1810 C   0  0  0  0  0  3  0  0  0  0  0  0
  184.2200  179.1640  145.7250 O   0  0  0  0  0  1  0  0  0  0  0  0
  181.4400  179.1440  143.3200 C   0  0  0  0  0  3  0  0  0  0  0  0
  183.4190  178.2720  142.2090 C   0  0  0  0  0  0  0  0  0  0  0  0
  185.6040  178.0500  143.4650 C   0  0  0  0  0  0  0  0  0  0  0  0
  186.0520  177.3690  144.6450 N   0  0  0  0  0  2  0  0  0  0  0  0
  187.2650  179.5380  140.7200 O   0  0  0  0  0  0  0  0  0  0  0  0
  183.5230  178.9660  144.5390 C   0  0  0  0  0  0  0  0  0  0  0  0
  185.0090  178.8760  140.4620 C   0  0  0  0  0  2  0  0  0  0  0  0
  184.1050  177.7760  140.9730 C   0  0  2  0  0  3  0  0  0  0  0  0
  186.2880  178.9430  141.2430 C   0  0  0  0  0  0  0  0  0  0  0  0
  186.4730  178.3130  142.5240 N   0  0  0  0  0  0  0  0  0  0  0  0
  184.1700  178.4510  143.3920 C   0  0  0  0  0  0  0  0  0  0  0  0
  182.1690  179.3040  144.4960 C   0  0  0  0  0  3  0  0  0  0  0  0
  187.4180  176.8980  144.8360 C   0  0  0  0  0  2  0  0  0  0  0  0
  187.9590  177.3680  146.1440 C   0  0  0  0  0  0  0  0  0  0  0  0
  189.3170  177.2000  146.4360 C   0  0  0  0  0  3  0  0  0  0  0  0
  187.6240  178.4140  148.3040 C   0  0  0  0  0  3  0  0  0  0  0  0
  188.9810  178.2450  148.5960 C   0  0  0  0  0  3  0  0  0  0  0  0
  187.1140  177.9780  147.0780 C   0  0  0  0  0  3  0  0  0  0  0  0
  189.8280  177.6390  147.6620 C   0  0  0  0  0  3  0  0  0  0  0  0
  181.7710  179.7520  137.3310 N   0  0  0  0  0  1  0  0  0  0  0  0
  181.8730  178.9220  138.4830 C   0  0  0  0  0  0  0  0  0  0  0  0
  183.1030  178.2440  138.7860 N   0  0  0  0  0  0  0  0  0  0  0  0
  180.8670  178.7800  139.2290 O   0  0  0  0  0  0  0  0  0  0  0  0
  184.2870  178.4140  137.9490 C   0  0  0  0  0  2  0  0  0  0  0  0
  186.1760  177.2400  136.9490 N   0  0  0  0  0  0  0  0  0  0  0  0
  184.0100  176.4260  136.4710 C   0  0  0  0  0  2  0  0  0  0  0  0
  184.8600  177.0650  137.5300 C   0  0  2  0  0  3  0  0  0  0  0  0
  184.9170  175.7390  135.5750 N   0  0  0  0  0  2  0  0  0  0  0  0
  186.2370  176.3100  135.8240 C   0  0  1  0  0  3  0  0  0  0  0  0
  186.7260  177.0370  134.5830 C   0  0  0  0  0  2  0  0  0  0  0  0
  186.7310  178.4140  134.8140 O   0  0  0  0  0  1  0  0  0  0  0  0
  187.1350  176.7850  137.9470 C   0  0  0  0  0  2  0  0  0  0  0  0
  188.5500  176.8660  137.3960 C   0  0  0  0  0  2  0  0  0  0  0  0
  189.5790  177.9380  138.4460 S   0  0  0  0  0  0  0  0  0  0  0  0
  189.2800  176.9120  139.9210 C   0  0  0  0  0  2  0  0  0  0  0  0
  190.8700  177.1810  141.8820 C   0  0  0  0  0  0  0  0  0  0  0  0
  191.9830  176.9120  142.4010 O   0  0  0  0  0  0  0  0  0  0  0  0
  189.9230  178.0710  142.6140 C   0  0  0  0  0  1  0  0  0  0  0  0
  190.5390  176.6380  140.5990 N   0  0  0  0  0  2  0  0  0  0  0  0
  2  5  2  0  0  0  0
  2  4  1  0  0  0  0
  4 15  2  0  0  0  0
  5 14  1  0  0  0  0
  6  7  1  0  0  0  0
  7 16  1  0  0  0  0
  8 12  2  0  0  0  0
  9  3  1  0  0  0  0
 10 11  1  0  0  0  0
 10 12  1  0  0  0  0
 11  1  1  6  0  0  0
 11  5  1  0  0  0  0
 12 13  1  0  0  0  0
 13  6  2  0  0  0  0
 14  6  1  0  0  0  0
 14  9  2  0  0  0  0
 15  9  1  0  0  0  0
 16 17  1  0  0  0  0
 17 18  2  0  0  0  0
 17 21  1  0  0  0  0
 18 22  1  0  0  0  0
 19 20  1  0  0  0  0
 21 19  2  0  0  0  0
 22 20  2  0  0  0  0
 23 24  1  0  0  0  0
 24 25  1  0  0  0  0
 24 26  2  0  0  0  0
 25  1  1  0  0  0  0
 27 25  1  0  0  0  0
 28 30  1  0  0  0  0
 28 35  1  0  0  0  0
 29 30  1  0  0  0  0
 30 27  1  6  0  0  0
 31 32  1  0  0  0  0
 31 29  1  0  0  0  0
 32 33  1  6  0  0  0
 32 28  1  0  0  0  0
 33 34  1  0  0  0  0
 36 35  1  0  0  0  0
 36 37  1  0  0  0  0
 37 38  1  0  0  0  0
 38 42  1  0  0  0  0
 39 40  2  0  0  0  0
 39 41  1  0  0  0  0
 42 39  1  0  0  0  0
M  END
>  <MODEL>
7

>  <REMARK>
 VINA RESULT:      -6.9      2.045      2.772
  Name = 
  12 active torsions:
  status: ('A' for Active; 'I' for Inactive)
    1  A    between atoms: C_1  and  C_39
    2  A    between atoms: N_6  and  C_19
    3  A    between atoms: N_6  and  C_37
    4  A    between atoms: C_10  and  C_40
    5  A    between atoms: C_12  and  N_21
    6  A    between atoms: C_12  and  C_24
    7  A    between atoms: S_13  and  C_24
    8  A    between atoms: S_13  and  C_25
    9  A    between atoms: C_19  and  C_33
   10  A    between atoms: C_25  and  N_42
   11  A    between atoms: N_26  and  C_39
   12  A    between atoms: C_28  and  C_37
                            x       y       z     vdW  Elec       q    Type
                         _______ _______ _______ _____ _____    ______ ____

>  <TORSDO>
F 12

$$$$
=
 OpenBabel10232411003D

 42 45  0  0  1  0  0  0  0  0999 V2000
  190.4960  176.3650  139.3600 C   0  0  0  0  0  2  0  0  0  0  0  0
  189.5010  174.6480  137.2690 C   0  0  0  0  0  3  0  0  0  0  0  0
  185.7150  175.1390  135.5620 O   0  0  0  0  0  1  0  0  0  0  0  0
  188.9940  173.6980  136.3860 C   0  0  0  0  0  3  0  0  0  0  0  0
  188.7400  175.7750  137.6210 C   0  0  0  0  0  0  0  0  0  0  0  0
  186.6180  177.1380  137.4200 C   0  0  0  0  0  0  0  0  0  0  0  0
  185.2200  176.9120  137.6480 N   0  0  0  0  0  2  0  0  0  0  0  0
  188.5930  180.0440  137.0170 O   0  0  0  0  0  0  0  0  0  0  0  0
  186.9640  174.9930  136.1540 C   0  0  0  0  0  0  0  0  0  0  0  0
  189.6460  178.0380  137.6940 C   0  0  0  0  0  2  0  0  0  0  0  0
  189.3010  176.8260  138.5310 C   0  0  2  0  0  3  0  0  0  0  0  0
  188.4260  178.8500  137.3750 C   0  0  0  0  0  0  0  0  0  0  0  0
  187.0810  178.3570  137.5170 N   0  0  0  0  0  0  0  0  0  0  0  0
  187.4630  175.9670  137.0490 C   0  0  0  0  0  0  0  0  0  0  0  0
  187.7280  173.8700  135.8330 C   0  0  0  0  0  3  0  0  0  0  0  0
  184.2860  177.9610  138.0410 C   0  0  0  0  0  2  0  0  0  0  0  0
  183.0530  177.3710  138.6360 C   0  0  0  0  0  0  0  0  0  0  0  0
  182.8190  175.9960  138.5320 C   0  0  0  0  0  3  0  0  0  0  0  0
  180.9740  177.6320  139.8530 C   0  0  0  0  0  3  0  0  0  0  0  0
  180.7400  176.2570  139.7480 C   0  0  0  0  0  3  0  0  0  0  0  0
  182.1310  178.1880  139.3000 C   0  0  0  0  0  3  0  0  0  0  0  0
  181.6620  175.4390  139.0880 C   0  0  0  0  0  3  0  0  0  0  0  0
  191.4060  177.7170  142.8050 N   0  0  0  0  0  1  0  0  0  0  0  0
  191.4840  177.4020  141.4180 C   0  0  0  0  0  0  0  0  0  0  0  0
  190.3610  176.8170  140.7400 N   0  0  0  0  0  0  0  0  0  0  0  0
  192.5550  177.6340  140.7950 O   0  0  0  0  0  0  0  0  0  0  0  0
  189.1040  176.5620  141.4380 C   0  0  0  0  0  2  0  0  0  0  0  0
  187.4530  177.5450  142.9390 N   0  0  0  0  0  0  0  0  0  0  0  0
  187.9210  178.6960  140.9280 C   0  0  0  0  0  2  0  0  0  0  0  0
  188.5250  177.8490  142.0110 C   0  0  2  0  0  3  0  0  0  0  0  0
  186.7520  179.3280  141.5040 N   0  0  0  0  0  2  0  0  0  0  0  0
  186.4260  178.5570  142.7000 C   0  0  1  0  0  3  0  0  0  0  0  0
  185.0750  177.8850  142.5270 C   0  0  0  0  0  2  0  0  0  0  0  0
  184.1020  178.5900  143.2370 O   0  0  0  0  0  1  0  0  0  0  0  0
  187.9850  177.7680  144.2770 C   0  0  0  0  0  2  0  0  0  0  0  0
  186.8880  177.6060  145.3160 C   0  0  0  0  0  2  0  0  0  0  0  0
  187.5990  177.5630  146.9890 S   0  0  0  0  0  0  0  0  0  0  0  0
  189.2410  177.0810  146.3640 C   0  0  0  0  0  2  0  0  0  0  0  0
  191.5540  176.6460  147.3130 C   0  0  0  0  0  0  0  0  0  0  0  0
  192.3470  176.7400  148.2850 O   0  0  0  0  0  0  0  0  0  0  0  0
  192.0180  175.9860  146.0590 C   0  0  0  0  0  1  0  0  0  0  0  0
  190.2250  177.1640  147.4330 N   0  0  0  0  0  2  0  0  0  0  0  0
  1 25  1  0  0  0  0
  2  5  1  0  0  0  0
  3  9  1  0  0  0  0
  4  2  2  0  0  0  0
  5 11  1  0  0  0  0
  6 13  2  0  0  0  0
  6  7  1  0  0  0  0
  7 16  1  0  0  0  0
  8 12  2  0  0  0  0
  9 14  1  0  0  0  0
 10 11  1  0  0  0  0
 11  1  1  6  0  0  0
 12 13  1  0  0  0  0
 12 10  1  0  0  0  0
 14  6  1  0  0  0  0
 14  5  2  0  0  0  0
 15  9  2  0  0  0  0
 15  4  1  0  0  0  0
 16 17  1  0  0  0  0
 17 21  1  0  0  0  0
 18 17  2  0  0  0  0
 18 22  1  0  0  0  0
 20 19  1  0  0  0  0
 21 19  2  0  0  0  0
 22 20  2  0  0  0  0
 24 23  1  0  0  0  0
 25 24  1  0  0  0  0
 25 27  1  0  0  0  0
 26 24  2  0  0  0  0
 28 35  1  0  0  0  0
 29 31  1  0  0  0  0
 29 30  1  0  0  0  0
 30 27  1  6  0  0  0
 30 28  1  0  0  0  0
 31 32  1  0  0  0  0
 32 33  1  6  0  0  0
 32 28  1  0  0  0  0
 33 34  1  0  0  0  0
 35 36  1  0  0  0  0
 36 37  1  0  0  0  0
 38 37  1  0  0  0  0
 38 42  1  0  0  0  0
 39 42  1  0  0  0  0
 39 40  2  0  0  0  0
 41 39  1  0  0  0  0
M  END
>  <MODEL>
8

>  <REMARK>
 VINA RESULT:      -6.8      3.335      8.596
  Name = 
  12 active torsions:
  status: ('A' for Active; 'I' for Inactive)
    1  A    between atoms: C_1  and  C_39
    2  A    between atoms: N_6  and  C_19
    3  A    between atoms: N_6  and  C_37
    4  A    between atoms: C_10  and  C_40
    5  A    between atoms: C_12  and  N_21
    6  A    between atoms: C_12  and  C_24
    7  A    between atoms: S_13  and  C_24
    8  A    between atoms: S_13  and  C_25
    9  A    between atoms: C_19  and  C_33
   10  A    between atoms: C_25  and  N_42
   11  A    between atoms: N_26  and  C_39
   12  A    between atoms: C_28  and  C_37
                            x       y       z     vdW  Elec       q    Type
                         _______ _______ _______ _____ _____    ______ ____

>  <TORSDO>
F 12

$$$$
=
 OpenBabel10232411003D

 42 45  0  0  1  0  0  0  0  0999 V2000
  189.4710  178.0560  139.3590 C   0  0  0  0  0  2  0  0  0  0  0  0
  190.8340  175.8960  138.0210 C   0  0  0  0  0  3  0  0  0  0  0  0
  188.7940  172.7560  136.1580 O   0  0  0  0  0  1  0  0  0  0  0  0
  191.5280  174.7900  137.5370 C   0  0  0  0  0  3  0  0  0  0  0  0
  189.4340  175.9660  137.9150 C   0  0  0  0  0  0  0  0  0  0  0  0
  187.2390  174.9510  137.1730 C   0  0  0  0  0  0  0  0  0  0  0  0
  186.5230  173.7350  137.4340 N   0  0  0  0  0  2  0  0  0  0  0  0
  186.3330  178.0730  135.7810 O   0  0  0  0  0  0  0  0  0  0  0  0
  189.4450  173.8060  136.7940 C   0  0  0  0  0  0  0  0  0  0  0  0
  188.2410  177.9590  137.1740 C   0  0  0  0  0  2  0  0  0  0  0  0
  188.6890  177.1760  138.3880 C   0  0  2  0  0  3  0  0  0  0  0  0
  187.0210  177.3510  136.5490 C   0  0  0  0  0  0  0  0  0  0  0  0
  186.5630  176.0150  136.8280 N   0  0  0  0  0  0  0  0  0  0  0  0
  188.7250  174.9220  137.2800 C   0  0  0  0  0  0  0  0  0  0  0  0
  190.8340  173.7480  136.9280 C   0  0  0  0  0  3  0  0  0  0  0  0
  185.0690  173.6290  137.3910 C   0  0  0  0  0  2  0  0  0  0  0  0
  184.6530  172.3750  136.7010 C   0  0  0  0  0  0  0  0  0  0  0  0
  183.3190  171.9580  136.7600 C   0  0  0  0  0  3  0  0  0  0  0  0
  185.1980  170.4370  135.3520 C   0  0  0  0  0  3  0  0  0  0  0  0
  183.8650  170.0200  135.4120 C   0  0  0  0  0  3  0  0  0  0  0  0
  185.5920  171.6150  135.9940 C   0  0  0  0  0  3  0  0  0  0  0  0
  182.9250  170.7810  136.1150 C   0  0  0  0  0  3  0  0  0  0  0  0
  190.6330  176.4860  142.6310 N   0  0  0  0  0  1  0  0  0  0  0  0
  190.6590  177.1680  141.3810 C   0  0  0  0  0  0  0  0  0  0  0  0
  189.4340  177.4890  140.7020 N   0  0  0  0  0  0  0  0  0  0  0  0
  191.7690  177.4770  140.8720 O   0  0  0  0  0  0  0  0  0  0  0  0
  188.1360  177.1610  141.2850 C   0  0  0  0  0  2  0  0  0  0  0  0
  186.6830  177.9230  143.0890 N   0  0  0  0  0  0  0  0  0  0  0  0
  186.6740  179.1710  141.0820 C   0  0  0  0  0  2  0  0  0  0  0  0
  187.5400  178.3640  142.0060 C   0  0  2  0  0  3  0  0  0  0  0  0
  185.5670  179.6590  141.8770 N   0  0  0  0  0  2  0  0  0  0  0  0
  185.5330  178.8250  143.0750 C   0  0  1  0  0  3  0  0  0  0  0  0
  184.2470  178.0180  143.1050 C   0  0  0  0  0  2  0  0  0  0  0  0
  183.8930  177.6450  141.8080 O   0  0  0  0  0  1  0  0  0  0  0  0
  187.4150  178.1640  144.3250 C   0  0  0  0  0  2  0  0  0  0  0  0
  186.6960  177.5220  145.5000 C   0  0  0  0  0  2  0  0  0  0  0  0
  187.5760  177.8750  147.0520 S   0  0  0  0  0  0  0  0  0  0  0  0
  189.1780  177.3640  146.3520 C   0  0  0  0  0  2  0  0  0  0  0  0
  191.4630  176.6930  147.2320 C   0  0  0  0  0  0  0  0  0  0  0  0
  192.2820  176.6880  148.1860 O   0  0  0  0  0  0  0  0  0  0  0  0
  191.8360  176.0300  145.9490 C   0  0  0  0  0  1  0  0  0  0  0  0
  190.1890  177.3260  147.3980 N   0  0  0  0  0  2  0  0  0  0  0  0
  1 25  1  0  0  0  0
  3  9  1  0  0  0  0
  4  2  2  0  0  0  0
  5  2  1  0  0  0  0
  5 11  1  0  0  0  0
  6 14  1  0  0  0  0
  6  7  1  0  0  0  0
  8 12  2  0  0  0  0
  9 15  2  0  0  0  0
  9 14  1  0  0  0  0
 10 11  1  0  0  0  0
 11  1  1  1  0  0  0
 12 13  1  0  0  0  0
 12 10  1  0  0  0  0
 13  6  2  0  0  0  0
 14  5  2  0  0  0  0
 15  4  1  0  0  0  0
 16  7  1  0  0  0  0
 17 18  1  0  0  0  0
 17 16  1  0  0  0  0
 19 20  2  0  0  0  0
 19 21  1  0  0  0  0
 20 22  1  0  0  0  0
 21 17  2  0  0  0  0
 22 18  2  0  0  0  0
 24 23  1  0  0  0  0
 25 27  1  0  0  0  0
 25 24  1  0  0  0  0
 26 24  2  0  0  0  0
 28 35  1  0  0  0  0
 29 31  1  0  0  0  0
 29 30  1  0  0  0  0
 30 27  1  6  0  0  0
 30 28  1  0  0  0  0
 31 32  1  0  0  0  0
 32 28  1  0  0  0  0
 32 33  1  6  0  0  0
 34 33  1  0  0  0  0
 35 36  1  0  0  0  0
 36 37  1  0  0  0  0
 38 37  1  0  0  0  0
 38 42  1  0  0  0  0
 39 42  1  0  0  0  0
 39 40  2  0  0  0  0
 41 39  1  0  0  0  0
M  END
>  <MODEL>
9

>  <REMARK>
 VINA RESULT:      -6.7      3.611      9.292
  Name = 
  12 active torsions:
  status: ('A' for Active; 'I' for Inactive)
    1  A    between atoms: C_1  and  C_39
    2  A    between atoms: N_6  and  C_19
    3  A    between atoms: N_6  and  C_37
    4  A    between atoms: C_10  and  C_40
    5  A    between atoms: C_12  and  N_21
    6  A    between atoms: C_12  and  C_24
    7  A    between atoms: S_13  and  C_24
    8  A    between atoms: S_13  and  C_25
    9  A    between atoms: C_19  and  C_33
   10  A    between atoms: C_25  and  N_42
   11  A    between atoms: N_26  and  C_39
   12  A    between atoms: C_28  and  C_37
                            x       y       z     vdW  Elec       q    Type
                         _______ _______ _______ _____ _____    ______ ____

>  <TORSDO>
F 12

$$$$
