=
 OpenBabel10232409093D

 44 50  0  0  1  0  0  0  0  0999 V2000
  186.0710  177.1970  144.2700 C   0  0  0  0  0  2  0  0  0  0  0  0
  186.5220  178.2410  146.9440 O   0  0  0  0  0  0  0  0  0  0  0  0
  188.8910  177.8350  146.7450 C   0  0  0  0  0  0  0  0  0  0  0  0
  185.3350  178.5180  144.1660 C   0  0  2  0  0  3  0  0  0  0  0  0
  187.6130  177.8190  146.1740 C   0  0  0  0  0  0  0  0  0  0  0  0
  184.6500  178.8050  145.4940 C   0  0  0  0  0  2  0  0  0  0  0  0
  189.9990  177.4600  145.9910 C   0  0  0  0  0  3  0  0  0  0  0  0
  189.0950  178.2790  148.1520 C   0  0  0  0  0  1  0  0  0  0  0  0
  187.4480  177.3720  144.8460 C   0  0  0  0  0  0  0  0  0  0  0  0
  189.8710  177.0450  144.6610 C   0  0  0  0  0  0  0  0  0  0  0  0
  185.6530  179.2890  146.5270 C   0  0  0  0  0  2  0  0  0  0  0  0
  188.5770  176.9900  144.0830 C   0  0  0  0  0  0  0  0  0  0  0  0
  191.4180  175.4630  143.7360 O   0  0  0  0  0  1  0  0  0  0  0  0
  191.1170  176.6670  143.9450 C   0  0  0  0  0  0  0  0  0  0  0  0
  191.9800  177.6580  143.4920 O   0  0  0  0  0  0  0  0  0  0  0  0
  184.3000  178.4080  143.0590 C   0  0  0  0  0  2  0  0  0  0  0  0
  184.8750  178.8240  141.7430 C   0  0  0  0  0  0  0  0  0  0  0  0
  184.3210  178.3380  140.5210 N   0  0  0  0  0  2  0  0  0  0  0  0
  185.8430  179.6270  141.7120 O   0  0  0  0  0  0  0  0  0  0  0  0
  183.2700  177.4120  140.5240 N   0  0  0  0  0  2  0  0  0  0  0  0
  182.8970  177.1830  139.1350 C   0  0  2  0  0  3  0  0  0  0  0  0
  181.4670  177.6950  138.9060 C   0  0  1  0  0  3  0  0  0  0  0  0
  180.8350  180.2500  140.1240 N   0  0  0  0  0  2  0  0  0  0  0  0
  180.7480  177.8400  140.2250 C   0  0  0  0  0  3  0  0  0  0  0  0
  181.6130  180.2830  138.8900 C   0  0  0  0  0  2  0  0  0  0  0  0
  181.4470  178.9960  138.1460 C   0  0  0  0  0  0  0  0  0  0  0  0
  180.4780  179.0260  140.7790 C   0  0  0  0  0  3  0  0  0  0  0  0
  181.3500  178.9980  136.9290 O   0  0  0  0  0  0  0  0  0  0  0  0
  183.8970  175.5940  137.6910 C   0  0  2  0  0  3  0  0  0  0  0  0
  182.4500  175.5510  137.4860 C   0  0  2  0  0  3  0  0  0  0  0  0
  183.3160  173.3310  137.0420 C   0  0  0  0  0  2  0  0  0  0  0  0
  184.4160  174.1670  137.6460 C   0  0  0  0  0  2  0  0  0  0  0  0
  182.9900  175.7550  138.8420 N   0  0  0  0  0  0  0  0  0  0  0  0
  182.0460  174.0990  137.3160 C   0  0  0  0  0  2  0  0  0  0  0  0
  188.3760  176.5510  142.6610 C   0  0  0  0  0  2  0  0  0  0  0  0
  188.8200  177.6510  141.7120 C   0  0  0  0  0  2  0  0  0  0  0  0
  190.1500  177.5520  139.6370 C   0  0  0  0  0  0  0  0  0  0  0  0
  189.9940  178.5620  138.6850 O   0  0  0  0  0  0  0  0  0  0  0  0
  190.9740  176.3990  139.1150 C   0  0  0  0  0  2  0  0  0  0  0  0
  187.9200  177.8940  139.4310 C   0  0  0  0  0  2  0  0  0  0  0  0
  188.6920  178.9640  138.7960 N   0  0  0  0  0  0  0  0  0  0  0  0
  191.5270  177.3030  140.2120 C   0  0  0  0  0  2  0  0  0  0  0  0
  188.8790  177.1230  140.2870 C   0  0  2  0  0  3  0  0  0  0  0  0
  188.0730  179.1440  137.1810 Cl  0  0  0  0  0  0  0  0  0  0  0  0
  1  9  1  0  0  0  0
  3  8  1  0  0  0  0
  4 16  1  6  0  0  0
  4  1  1  0  0  0  0
  4  6  1  0  0  0  0
  5  3  1  0  0  0  0
  5  2  1  0  0  0  0
  6 11  1  0  0  0  0
  7  3  2  0  0  0  0
  9  5  2  0  0  0  0
 10  7  1  0  0  0  0
 11  2  1  0  0  0  0
 12 10  2  0  0  0  0
 12  9  1  0  0  0  0
 13 14  1  0  0  0  0
 14 10  1  0  0  0  0
 15 14  2  0  0  0  0
 17 16  1  0  0  0  0
 18 20  1  0  0  0  0
 18 17  1  0  0  0  0
 19 17  2  0  0  0  0
 21 20  1  1  0  0  0
 22 21  1  1  0  0  0
 22 24  1  0  0  0  0
 23 27  1  0  0  0  0
 24 27  2  0  0  0  0
 25 23  1  0  0  0  0
 26 25  1  0  0  0  0
 26 22  1  0  0  0  0
 28 26  2  0  0  0  0
 29 32  1  1  0  0  0
 29 33  1  0  0  0  0
 30 34  1  1  0  0  0
 30 29  1  0  0  0  0
 30 33  1  0  0  0  0
 31 34  1  0  0  0  0
 31 32  1  0  0  0  0
 33 21  1  0  0  0  0
 35 12  1  0  0  0  0
 36 35  1  0  0  0  0
 37 42  1  0  0  0  0
 37 43  1  0  0  0  0
 38 41  1  0  0  0  0
 38 37  1  0  0  0  0
 39 37  1  0  0  0  0
 39 42  1  0  0  0  0
 40 43  1  0  0  0  0
 41 40  1  0  0  0  0
 43 36  1  1  0  0  0
 44 41  1  0  0  0  0
M  END
>  <MODEL>
1

>  <REMARK>
 VINA RESULT:     -10.0      0.000      0.000
  Name = 
  10 active torsions:
  status: ('A' for Active; 'I' for Inactive)
    1  A    between atoms: C_1  and  C_8
    2  A    between atoms: C_1  and  C_16
    3  A    between atoms: C_3  and  C_37
    4  A    between atoms: C_4  and  C_43
    5  A    between atoms: N_10  and  N_41
    6  A    between atoms: C_15  and  C_22
    7  A    between atoms: C_15  and  C_44
    8  A    between atoms: C_22  and  C_35
    9  A    between atoms: N_36  and  C_43
   10  A    between atoms: N_41  and  C_43
                            x       y       z     vdW  Elec       q    Type
                         _______ _______ _______ _____ _____    ______ ____

>  <TORSDO>
F 10

$$$$
=
 OpenBabel10232409093D

 44 50  0  0  1  0  0  0  0  0999 V2000
  186.2940  176.9650  143.8410 C   0  0  0  0  0  2  0  0  0  0  0  0
  186.4260  178.1310  146.5000 O   0  0  0  0  0  0  0  0  0  0  0  0
  188.8210  177.8530  146.5450 C   0  0  0  0  0  0  0  0  0  0  0  0
  185.5030  178.2380  143.6120 C   0  0  2  0  0  3  0  0  0  0  0  0
  187.6080  177.7440  145.8550 C   0  0  0  0  0  0  0  0  0  0  0  0
  184.6770  178.5340  144.8540 C   0  0  0  0  0  2  0  0  0  0  0  0
  190.0160  177.5140  145.9170 C   0  0  0  0  0  3  0  0  0  0  0  0
  188.8630  178.3590  147.9450 C   0  0  0  0  0  1  0  0  0  0  0  0
  187.5980  177.2390  144.5380 C   0  0  0  0  0  0  0  0  0  0  0  0
  190.0410  177.0430  144.6000 C   0  0  0  0  0  0  0  0  0  0  0  0
  185.5480  179.1110  145.9570 C   0  0  0  0  0  2  0  0  0  0  0  0
  188.8140  176.8940  143.9030 C   0  0  0  0  0  0  0  0  0  0  0  0
  192.0260  177.5510  143.3550 O   0  0  0  0  0  0  0  0  0  0  0  0
  191.3680  176.7110  144.0230 C   0  0  0  0  0  0  0  0  0  0  0  0
  191.9080  175.4440  144.2150 O   0  0  0  0  0  1  0  0  0  0  0  0
  184.5890  178.0290  142.4170 C   0  0  0  0  0  2  0  0  0  0  0  0
  184.9800  178.9150  141.2780 C   0  0  0  0  0  0  0  0  0  0  0  0
  184.4110  178.7300  139.9820 N   0  0  0  0  0  2  0  0  0  0  0  0
  185.8050  179.8460  141.4690 O   0  0  0  0  0  0  0  0  0  0  0  0
  183.5230  177.6770  139.7290 N   0  0  0  0  0  2  0  0  0  0  0  0
  182.6950  178.0790  138.6000 C   0  0  2  0  0  3  0  0  0  0  0  0
  183.4830  177.8720  137.2980 C   0  0  1  0  0  3  0  0  0  0  0  0
  183.8970  175.1140  136.5010 N   0  0  0  0  0  2  0  0  0  0  0  0
  184.7510  177.1010  137.5740 C   0  0  0  0  0  3  0  0  0  0  0  0
  182.5800  175.6850  136.2380 C   0  0  0  0  0  2  0  0  0  0  0  0
  182.6610  177.1790  136.2430 C   0  0  0  0  0  0  0  0  0  0  0  0
  184.9180  175.8250  137.2130 C   0  0  0  0  0  3  0  0  0  0  0  0
  182.0240  177.8310  135.4310 O   0  0  0  0  0  0  0  0  0  0  0  0
  180.9020  179.5130  139.1840 C   0  0  2  0  0  3  0  0  0  0  0  0
  181.2440  179.7550  137.7820 C   0  0  2  0  0  3  0  0  0  0  0  0
  180.3950  181.8330  138.6960 C   0  0  0  0  0  2  0  0  0  0  0  0
  180.5930  180.8540  139.8260 C   0  0  0  0  0  2  0  0  0  0  0  0
  182.3140  179.4800  138.7580 N   0  0  0  0  0  0  0  0  0  0  0  0
  181.1600  181.2490  137.5330 C   0  0  0  0  0  2  0  0  0  0  0  0
  188.7760  176.3920  142.4890 C   0  0  0  0  0  2  0  0  0  0  0  0
  188.8590  177.5610  141.5220 C   0  0  0  0  0  2  0  0  0  0  0  0
  190.1580  177.4830  139.4270 C   0  0  0  0  0  0  0  0  0  0  0  0
  189.9990  178.5090  138.4930 O   0  0  0  0  0  0  0  0  0  0  0  0
  190.9620  176.3300  138.8740 C   0  0  0  0  0  2  0  0  0  0  0  0
  187.9290  177.8510  139.2590 C   0  0  0  0  0  2  0  0  0  0  0  0
  188.7030  178.9220  138.6300 N   0  0  0  0  0  0  0  0  0  0  0  0
  191.5400  177.2100  139.9770 C   0  0  0  0  0  2  0  0  0  0  0  0
  188.8920  177.0560  140.0880 C   0  0  2  0  0  3  0  0  0  0  0  0
  188.0630  179.1360  137.0260 Cl  0  0  0  0  0  0  0  0  0  0  0  0
  1  9  1  0  0  0  0
  3  8  1  0  0  0  0
  4 16  1  6  0  0  0
  4  1  1  0  0  0  0
  4  6  1  0  0  0  0
  5  2  1  0  0  0  0
  5  3  2  0  0  0  0
  6 11  1  0  0  0  0
  7  3  1  0  0  0  0
  9  5  1  0  0  0  0
 10  7  2  0  0  0  0
 11  2  1  0  0  0  0
 12  9  2  0  0  0  0
 12 10  1  0  0  0  0
 13 14  2  0  0  0  0
 14 15  1  0  0  0  0
 14 10  1  0  0  0  0
 17 19  2  0  0  0  0
 17 16  1  0  0  0  0
 18 17  1  0  0  0  0
 20 18  1  0  0  0  0
 21 33  1  0  0  0  0
 21 20  1  1  0  0  0
 22 24  1  0  0  0  0
 22 21  1  1  0  0  0
 23 27  1  0  0  0  0
 25 26  1  0  0  0  0
 25 23  1  0  0  0  0
 26 22  1  0  0  0  0
 27 24  2  0  0  0  0
 28 26  2  0  0  0  0
 29 32  1  1  0  0  0
 30 34  1  1  0  0  0
 30 33  1  0  0  0  0
 30 29  1  0  0  0  0
 31 32  1  0  0  0  0
 33 29  1  0  0  0  0
 34 31  1  0  0  0  0
 35 12  1  0  0  0  0
 36 35  1  0  0  0  0
 37 42  1  0  0  0  0
 37 43  1  0  0  0  0
 38 41  1  0  0  0  0
 38 37  1  0  0  0  0
 39 37  1  0  0  0  0
 39 42  1  0  0  0  0
 40 43  1  0  0  0  0
 41 40  1  0  0  0  0
 43 36  1  1  0  0  0
 44 41  1  0  0  0  0
M  END
>  <MODEL>
2

>  <REMARK>
 VINA RESULT:      -9.2      1.041      3.161
  Name = 
  10 active torsions:
  status: ('A' for Active; 'I' for Inactive)
    1  A    between atoms: C_1  and  C_8
    2  A    between atoms: C_1  and  C_16
    3  A    between atoms: C_3  and  C_37
    4  A    between atoms: C_4  and  C_43
    5  A    between atoms: N_10  and  N_41
    6  A    between atoms: C_15  and  C_22
    7  A    between atoms: C_15  and  C_44
    8  A    between atoms: C_22  and  C_35
    9  A    between atoms: N_36  and  C_43
   10  A    between atoms: N_41  and  C_43
                            x       y       z     vdW  Elec       q    Type
                         _______ _______ _______ _____ _____    ______ ____

>  <TORSDO>
F 10

$$$$
=
 OpenBabel10232409093D

 44 50  0  0  1  0  0  0  0  0999 V2000
  186.0380  177.8070  143.4680 C   0  0  0  0  0  2  0  0  0  0  0  0
  186.0150  177.4170  146.3470 O   0  0  0  0  0  0  0  0  0  0  0  0
  188.4260  177.4430  146.4090 C   0  0  0  0  0  0  0  0  0  0  0  0
  185.0780  178.9070  143.8760 C   0  0  2  0  0  3  0  0  0  0  0  0
  187.2370  177.5670  145.6800 C   0  0  0  0  0  0  0  0  0  0  0  0
  184.2230  178.4090  145.0310 C   0  0  0  0  0  2  0  0  0  0  0  0
  189.6540  177.6270  145.7820 C   0  0  0  0  0  3  0  0  0  0  0  0
  188.4010  177.1430  147.8670 C   0  0  0  0  0  1  0  0  0  0  0  0
  187.2930  177.8290  144.2940 C   0  0  0  0  0  0  0  0  0  0  0  0
  189.7400  177.9220  144.4170 C   0  0  0  0  0  0  0  0  0  0  0  0
  185.0080  178.4230  146.3310 C   0  0  0  0  0  2  0  0  0  0  0  0
  188.5440  178.0150  143.6600 C   0  0  0  0  0  0  0  0  0  0  0  0
  191.7710  177.1240  143.4220 O   0  0  0  0  0  0  0  0  0  0  0  0
  191.0990  178.1010  143.8460 C   0  0  0  0  0  0  0  0  0  0  0  0
  191.6560  179.3730  143.7730 O   0  0  0  0  0  1  0  0  0  0  0  0
  184.1990  179.2470  142.6850 C   0  0  0  0  0  2  0  0  0  0  0  0
  184.9550  179.1140  141.4020 C   0  0  0  0  0  0  0  0  0  0  0  0
  184.4420  178.3180  140.3340 N   0  0  0  0  0  2  0  0  0  0  0  0
  186.0450  179.7250  141.2550 O   0  0  0  0  0  0  0  0  0  0  0  0
  183.2530  177.5930  140.4830 N   0  0  0  0  0  2  0  0  0  0  0  0
  182.7250  177.3580  139.1450 C   0  0  2  0  0  3  0  0  0  0  0  0
  183.6890  176.4420  138.3770 C   0  0  1  0  0  3  0  0  0  0  0  0
  182.6180  175.2200  135.9740 N   0  0  0  0  0  2  0  0  0  0  0  0
  183.1410  175.0370  138.3240 C   0  0  0  0  0  3  0  0  0  0  0  0
  183.0260  176.6170  135.8770 C   0  0  0  0  0  2  0  0  0  0  0  0
  183.9700  176.9540  136.9880 C   0  0  0  0  0  0  0  0  0  0  0  0
  182.6370  174.4940  137.2110 C   0  0  0  0  0  3  0  0  0  0  0  0
  184.9290  177.6790  136.7800 O   0  0  0  0  0  0  0  0  0  0  0  0
  181.5390  179.4080  139.1810 C   0  0  2  0  0  3  0  0  0  0  0  0
  181.1870  178.6970  137.9520 C   0  0  2  0  0  3  0  0  0  0  0  0
  181.0320  181.0710  137.4910 C   0  0  0  0  0  2  0  0  0  0  0  0
  181.6730  180.8820  138.8440 C   0  0  0  0  0  2  0  0  0  0  0  0
  182.5700  178.6390  138.4600 N   0  0  0  0  0  0  0  0  0  0  0  0
  181.1030  179.7160  136.8310 C   0  0  0  0  0  2  0  0  0  0  0  0
  188.5730  178.3260  142.1910 C   0  0  0  0  0  2  0  0  0  0  0  0
  189.0960  177.1270  141.4180 C   0  0  0  0  0  2  0  0  0  0  0  0
  189.1720  177.3800  138.9660 C   0  0  0  0  0  0  0  0  0  0  0  0
  189.6370  176.3160  138.1900 O   0  0  0  0  0  0  0  0  0  0  0  0
  189.0010  178.6440  138.1560 C   0  0  0  0  0  2  0  0  0  0  0  0
  191.0380  176.6100  139.9940 C   0  0  0  0  0  2  0  0  0  0  0  0
  190.5610  175.6790  138.9690 N   0  0  0  0  0  0  0  0  0  0  0  0
  187.7810  177.9150  138.7080 C   0  0  0  0  0  2  0  0  0  0  0  0
  189.9290  177.5890  140.2340 C   0  0  2  0  0  3  0  0  0  0  0  0
  191.9210  175.3080  137.9490 Cl  0  0  0  0  0  0  0  0  0  0  0  0
  1  4  1  0  0  0  0
  1  9  1  0  0  0  0
  3  8  1  0  0  0  0
  4 16  1  6  0  0  0
  4  6  1  0  0  0  0
  5  2  1  0  0  0  0
  5  3  2  0  0  0  0
  6 11  1  0  0  0  0
  7  3  1  0  0  0  0
  9  5  1  0  0  0  0
 10  7  2  0  0  0  0
 11  2  1  0  0  0  0
 12  9  2  0  0  0  0
 12 10  1  0  0  0  0
 13 14  2  0  0  0  0
 14 10  1  0  0  0  0
 15 14  1  0  0  0  0
 17 16  1  0  0  0  0
 18 20  1  0  0  0  0
 18 17  1  0  0  0  0
 19 17  2  0  0  0  0
 21 20  1  1  0  0  0
 22 21  1  6  0  0  0
 23 27  1  0  0  0  0
 24 22  1  0  0  0  0
 25 23  1  0  0  0  0
 25 26  1  0  0  0  0
 26 22  1  0  0  0  0
 27 24  2  0  0  0  0
 28 26  2  0  0  0  0
 29 32  1  6  0  0  0
 30 34  1  6  0  0  0
 30 33  1  0  0  0  0
 30 29  1  0  0  0  0
 31 32  1  0  0  0  0
 33 21  1  0  0  0  0
 33 29  1  0  0  0  0
 34 31  1  0  0  0  0
 35 12  1  0  0  0  0
 36 35  1  0  0  0  0
 37 43  1  0  0  0  0
 38 37  1  0  0  0  0
 38 41  1  0  0  0  0
 39 42  1  0  0  0  0
 39 37  1  0  0  0  0
 40 43  1  0  0  0  0
 41 40  1  0  0  0  0
 42 37  1  0  0  0  0
 43 36  1  1  0  0  0
 44 41  1  0  0  0  0
M  END
>  <MODEL>
3

>  <REMARK>
 VINA RESULT:      -8.6      1.654      3.260
  Name = 
  10 active torsions:
  status: ('A' for Active; 'I' for Inactive)
    1  A    between atoms: C_1  and  C_8
    2  A    between atoms: C_1  and  C_16
    3  A    between atoms: C_3  and  C_37
    4  A    between atoms: C_4  and  C_43
    5  A    between atoms: N_10  and  N_41
    6  A    between atoms: C_15  and  C_22
    7  A    between atoms: C_15  and  C_44
    8  A    between atoms: C_22  and  C_35
    9  A    between atoms: N_36  and  C_43
   10  A    between atoms: N_41  and  C_43
                            x       y       z     vdW  Elec       q    Type
                         _______ _______ _______ _____ _____    ______ ____

>  <TORSDO>
F 10

$$$$
=
 OpenBabel10232409093D

 44 50  0  0  1  0  0  0  0  0999 V2000
  185.4310  177.7780  141.2900 C   0  0  0  0  0  2  0  0  0  0  0  0
  182.6580  178.6220  141.0840 O   0  0  0  0  0  0  0  0  0  0  0  0
  182.5680  179.0390  143.4570 C   0  0  0  0  0  0  0  0  0  0  0  0
  185.5450  178.7870  140.1650 C   0  0  2  0  0  3  0  0  0  0  0  0
  183.3030  178.6650  142.3260 C   0  0  0  0  0  0  0  0  0  0  0  0
  184.3040  178.6900  139.2910 C   0  0  0  0  0  2  0  0  0  0  0  0
  183.1910  179.1310  144.6980 C   0  0  0  0  0  3  0  0  0  0  0  0
  181.1210  179.3730  143.3530 C   0  0  0  0  0  1  0  0  0  0  0  0
  184.6680  178.3320  142.4600 C   0  0  0  0  0  0  0  0  0  0  0  0
  184.5510  178.8400  144.8560 C   0  0  0  0  0  0  0  0  0  0  0  0
  183.1170  179.3640  139.9590 C   0  0  0  0  0  2  0  0  0  0  0  0
  185.2980  178.4260  143.7230 C   0  0  0  0  0  0  0  0  0  0  0  0
  185.9030  179.9080  146.5230 O   0  0  0  0  0  0  0  0  0  0  0  0
  185.1190  178.9710  146.2220 C   0  0  0  0  0  0  0  0  0  0  0  0
  184.7860  178.0410  147.2000 O   0  0  0  0  0  1  0  0  0  0  0  0
  186.7840  178.4620  139.3480 C   0  0  0  0  0  2  0  0  0  0  0  0
  188.0020  178.4130  140.2150 C   0  0  0  0  0  0  0  0  0  0  0  0
  188.9740  177.3830  140.0460 N   0  0  0  0  0  2  0  0  0  0  0  0
  188.1810  179.3020  141.0870 O   0  0  0  0  0  0  0  0  0  0  0  0
  188.7820  176.3570  139.1120 N   0  0  0  0  0  2  0  0  0  0  0  0
  189.7370  176.5760  138.0330 C   0  0  2  0  0  3  0  0  0  0  0  0
  189.1190  176.1040  136.7090 C   0  0  1  0  0  3  0  0  0  0  0  0
  186.4700  177.1280  136.1200 N   0  0  0  0  0  2  0  0  0  0  0  0
  187.8470  175.3370  136.9720 C   0  0  0  0  0  3  0  0  0  0  0  0
  187.5920  178.0320  135.8890 C   0  0  0  0  0  2  0  0  0  0  0  0
  188.8620  177.2500  135.7650 C   0  0  0  0  0  0  0  0  0  0  0  0
  186.6330  175.8310  136.7090 C   0  0  0  0  0  3  0  0  0  0  0  0
  189.7020  177.5720  134.9410 O   0  0  0  0  0  0  0  0  0  0  0  0
  192.0730  176.5370  137.6430 C   0  0  2  0  0  3  0  0  0  0  0  0
  191.4890  175.3400  137.0400 C   0  0  2  0  0  3  0  0  0  0  0  0
  193.7480  174.7860  137.7200 C   0  0  0  0  0  2  0  0  0  0  0  0
  193.3940  176.1410  138.2800 C   0  0  0  0  0  2  0  0  0  0  0  0
  190.9660  175.8410  138.3240 N   0  0  0  0  0  0  0  0  0  0  0  0
  192.4320  174.1800  137.2980 C   0  0  0  0  0  2  0  0  0  0  0  0
  186.7590  178.0980  143.8300 C   0  0  0  0  0  2  0  0  0  0  0  0
  186.9570  176.9090  144.7560 C   0  0  0  0  0  2  0  0  0  0  0  0
  189.0510  177.5200  145.9070 C   0  0  0  0  0  0  0  0  0  0  0  0
  189.8640  178.5110  145.3520 O   0  0  0  0  0  0  0  0  0  0  0  0
  189.7310  176.7980  147.0460 C   0  0  0  0  0  2  0  0  0  0  0  0
  189.1710  177.0770  143.6880 C   0  0  0  0  0  2  0  0  0  0  0  0
  189.6780  178.4140  144.0010 N   0  0  0  0  0  0  0  0  0  0  0  0
  188.5370  177.7080  147.3170 C   0  0  0  0  0  2  0  0  0  0  0  0
  188.4380  176.6010  144.9060 C   0  0  2  0  0  3  0  0  0  0  0  0
  191.2460  178.5470  143.2590 Cl  0  0  0  0  0  0  0  0  0  0  0  0
  1  9  1  0  0  0  0
  2  5  1  0  0  0  0
  3  7  1  0  0  0  0
  4 16  1  6  0  0  0
  4  1  1  0  0  0  0
  5  9  1  0  0  0  0
  5  3  2  0  0  0  0
  6 11  1  0  0  0  0
  6  4  1  0  0  0  0
  7 10  2  0  0  0  0
  8  3  1  0  0  0  0
  9 12  2  0  0  0  0
 10 14  1  0  0  0  0
 11  2  1  0  0  0  0
 12 35  1  0  0  0  0
 12 10  1  0  0  0  0
 14 13  2  0  0  0  0
 14 15  1  0  0  0  0
 16 17  1  0  0  0  0
 17 19  2  0  0  0  0
 18 17  1  0  0  0  0
 20 18  1  0  0  0  0
 21 33  1  0  0  0  0
 21 20  1  1  0  0  0
 22 24  1  0  0  0  0
 22 21  1  1  0  0  0
 23 27  1  0  0  0  0
 25 23  1  0  0  0  0
 26 25  1  0  0  0  0
 26 22  1  0  0  0  0
 27 24  2  0  0  0  0
 28 26  2  0  0  0  0
 29 32  1  1  0  0  0
 29 33  1  0  0  0  0
 30 34  1  1  0  0  0
 30 29  1  0  0  0  0
 30 33  1  0  0  0  0
 31 32  1  0  0  0  0
 34 31  1  0  0  0  0
 35 36  1  0  0  0  0
 37 39  1  0  0  0  0
 37 42  1  0  0  0  0
 38 37  1  0  0  0  0
 39 42  1  0  0  0  0
 40 41  1  0  0  0  0
 40 43  1  0  0  0  0
 41 38  1  0  0  0  0
 43 36  1  6  0  0  0
 43 37  1  0  0  0  0
 44 41  1  0  0  0  0
M  END
>  <MODEL>
4

>  <REMARK>
 VINA RESULT:      -8.0      2.989      6.858
  Name = 
  10 active torsions:
  status: ('A' for Active; 'I' for Inactive)
    1  A    between atoms: C_1  and  C_8
    2  A    between atoms: C_1  and  C_16
    3  A    between atoms: C_3  and  C_37
    4  A    between atoms: C_4  and  C_43
    5  A    between atoms: N_10  and  N_41
    6  A    between atoms: C_15  and  C_22
    7  A    between atoms: C_15  and  C_44
    8  A    between atoms: C_22  and  C_35
    9  A    between atoms: N_36  and  C_43
   10  A    between atoms: N_41  and  C_43
                            x       y       z     vdW  Elec       q    Type
                         _______ _______ _______ _____ _____    ______ ____

>  <TORSDO>
F 10

$$$$
=
 OpenBabel10232409093D

 44 50  0  0  1  0  0  0  0  0999 V2000
  186.1070  177.5170  143.3120 C   0  0  0  0  0  2  0  0  0  0  0  0
  185.8960  177.6510  146.2070 O   0  0  0  0  0  0  0  0  0  0  0  0
  188.2960  177.7680  146.4150 C   0  0  0  0  0  0  0  0  0  0  0  0
  185.0990  178.6400  143.4510 C   0  0  2  0  0  3  0  0  0  0  0  0
  187.1570  177.7190  145.6020 C   0  0  0  0  0  0  0  0  0  0  0  0
  184.1770  178.3300  144.6210 C   0  0  0  0  0  2  0  0  0  0  0  0
  189.5600  177.8770  145.8440 C   0  0  0  0  0  3  0  0  0  0  0  0
  188.1780  177.7350  147.8990 C   0  0  0  0  0  1  0  0  0  0  0  0
  187.3020  177.7280  144.1980 C   0  0  0  0  0  0  0  0  0  0  0  0
  189.7320  177.9230  144.4560 C   0  0  0  0  0  0  0  0  0  0  0  0
  184.8710  178.6040  145.9440 C   0  0  0  0  0  2  0  0  0  0  0  0
  188.5890  177.8380  143.6200 C   0  0  0  0  0  0  0  0  0  0  0  0
  191.6470  179.1620  143.7150 O   0  0  0  0  0  0  0  0  0  0  0  0
  191.1230  178.0410  143.9490 C   0  0  0  0  0  0  0  0  0  0  0  0
  191.8750  176.8940  143.7200 O   0  0  0  0  0  1  0  0  0  0  0  0
  184.2950  178.7300  142.1650 C   0  0  0  0  0  2  0  0  0  0  0  0
  185.1740  179.0740  141.0050 C   0  0  0  0  0  0  0  0  0  0  0  0
  184.8320  178.6560  139.6840 N   0  0  0  0  0  2  0  0  0  0  0  0
  186.2140  179.7570  141.1930 O   0  0  0  0  0  0  0  0  0  0  0  0
  183.7040  177.8600  139.4490 N   0  0  0  0  0  2  0  0  0  0  0  0
  183.7550  177.4470  138.0530 C   0  0  2  0  0  3  0  0  0  0  0  0
  182.8940  176.1890  137.8680 C   0  0  1  0  0  3  0  0  0  0  0  0
  180.1720  176.3690  138.8560 N   0  0  0  0  0  2  0  0  0  0  0  0
  182.4530  175.6570  139.2100 C   0  0  0  0  0  3  0  0  0  0  0  0
  180.4520  177.0120  137.5770 C   0  0  0  0  0  2  0  0  0  0  0  0
  181.7020  176.4440  136.9810 C   0  0  0  0  0  0  0  0  0  0  0  0
  181.1960  175.7630  139.6560 C   0  0  0  0  0  3  0  0  0  0  0  0
  181.7720  176.2400  135.7800 O   0  0  0  0  0  0  0  0  0  0  0  0
  185.2070  177.1320  136.2080 C   0  0  2  0  0  3  0  0  0  0  0  0
  185.1700  175.8890  136.9790 C   0  0  2  0  0  3  0  0  0  0  0  0
  187.3560  176.0420  135.9450 C   0  0  0  0  0  2  0  0  0  0  0  0
  186.6370  177.3540  135.7510 C   0  0  0  0  0  2  0  0  0  0  0  0
  185.1420  177.1860  137.6810 N   0  0  0  0  0  0  0  0  0  0  0  0
  186.5770  175.3230  137.0190 C   0  0  0  0  0  2  0  0  0  0  0  0
  188.7110  177.8800  142.1250 C   0  0  0  0  0  2  0  0  0  0  0  0
  189.5100  176.6830  141.6370 C   0  0  0  0  0  2  0  0  0  0  0  0
  190.5210  177.1990  139.4470 C   0  0  0  0  0  0  0  0  0  0  0  0
  190.1980  178.4050  138.8200 O   0  0  0  0  0  0  0  0  0  0  0  0
  191.2900  176.2710  138.5360 C   0  0  0  0  0  2  0  0  0  0  0  0
  188.2770  177.4380  139.6420 C   0  0  0  0  0  2  0  0  0  0  0  0
  188.9170  178.6800  139.2080 N   0  0  0  0  0  0  0  0  0  0  0  0
  191.9730  176.9010  139.7450 C   0  0  0  0  0  2  0  0  0  0  0  0
  189.3720  176.5380  140.1300 C   0  0  2  0  0  3  0  0  0  0  0  0
  188.0620  179.2240  137.7940 Cl  0  0  0  0  0  0  0  0  0  0  0  0
  1  4  1  0  0  0  0
  1  9  1  0  0  0  0
  3  8  1  0  0  0  0
  4 16  1  6  0  0  0
  4  6  1  0  0  0  0
  5  2  1  0  0  0  0
  5  3  2  0  0  0  0
  6 11  1  0  0  0  0
  7  3  1  0  0  0  0
  9  5  1  0  0  0  0
 10  7  2  0  0  0  0
 11  2  1  0  0  0  0
 12  9  2  0  0  0  0
 12 10  1  0  0  0  0
 13 14  2  0  0  0  0
 14 10  1  0  0  0  0
 15 14  1  0  0  0  0
 17 19  2  0  0  0  0
 17 16  1  0  0  0  0
 18 17  1  0  0  0  0
 20 18  1  0  0  0  0
 21 20  1  1  0  0  0
 22 21  1  1  0  0  0
 22 24  1  0  0  0  0
 23 27  1  0  0  0  0
 24 27  2  0  0  0  0
 25 23  1  0  0  0  0
 26 25  1  0  0  0  0
 26 22  1  0  0  0  0
 28 26  2  0  0  0  0
 29 32  1  1  0  0  0
 29 30  1  0  0  0  0
 29 33  1  0  0  0  0
 30 34  1  1  0  0  0
 30 33  1  0  0  0  0
 31 34  1  0  0  0  0
 32 31  1  0  0  0  0
 33 21  1  0  0  0  0
 35 12  1  0  0  0  0
 36 35  1  0  0  0  0
 37 42  1  0  0  0  0
 37 43  1  0  0  0  0
 38 41  1  0  0  0  0
 38 37  1  0  0  0  0
 39 37  1  0  0  0  0
 39 42  1  0  0  0  0
 40 43  1  0  0  0  0
 41 40  1  0  0  0  0
 43 36  1  1  0  0  0
 44 41  1  0  0  0  0
M  END
>  <MODEL>
5

>  <REMARK>
 VINA RESULT:      -8.0      1.614      2.144
  Name = 
  10 active torsions:
  status: ('A' for Active; 'I' for Inactive)
    1  A    between atoms: C_1  and  C_8
    2  A    between atoms: C_1  and  C_16
    3  A    between atoms: C_3  and  C_37
    4  A    between atoms: C_4  and  C_43
    5  A    between atoms: N_10  and  N_41
    6  A    between atoms: C_15  and  C_22
    7  A    between atoms: C_15  and  C_44
    8  A    between atoms: C_22  and  C_35
    9  A    between atoms: N_36  and  C_43
   10  A    between atoms: N_41  and  C_43
                            x       y       z     vdW  Elec       q    Type
                         _______ _______ _______ _____ _____    ______ ____

>  <TORSDO>
F 10

$$$$
=
 OpenBabel10232409093D

 44 50  0  0  1  0  0  0  0  0999 V2000
  187.4560  177.2530  142.2210 C   0  0  0  0  0  2  0  0  0  0  0  0
  184.7510  178.3120  142.1530 O   0  0  0  0  0  0  0  0  0  0  0  0
  184.7360  178.5310  144.5550 C   0  0  0  0  0  0  0  0  0  0  0  0
  187.6250  178.3430  141.1820 C   0  0  2  0  0  3  0  0  0  0  0  0
  185.4200  178.2020  143.3790 C   0  0  0  0  0  0  0  0  0  0  0  0
  186.3650  178.4120  140.3330 C   0  0  0  0  0  2  0  0  0  0  0  0
  185.3860  178.4710  145.7830 C   0  0  0  0  0  3  0  0  0  0  0  0
  183.3160  178.9780  144.5140 C   0  0  0  0  0  1  0  0  0  0  0  0
  186.7580  177.7600  143.4520 C   0  0  0  0  0  0  0  0  0  0  0  0
  186.7220  178.0690  145.8830 C   0  0  0  0  0  0  0  0  0  0  0  0
  185.2450  179.1120  141.0840 C   0  0  0  0  0  2  0  0  0  0  0  0
  187.4160  177.6990  144.7020 C   0  0  0  0  0  0  0  0  0  0  0  0
  187.9300  177.0270  147.6730 O   0  0  0  0  0  0  0  0  0  0  0  0
  187.3230  178.0410  147.2420 C   0  0  0  0  0  0  0  0  0  0  0  0
  187.2170  179.1550  148.0670 O   0  0  0  0  0  1  0  0  0  0  0  0
  188.8220  177.9990  140.3110 C   0  0  0  0  0  2  0  0  0  0  0  0
  188.7310  178.6750  138.9800 C   0  0  0  0  0  0  0  0  0  0  0  0
  188.3550  177.9410  137.8160 N   0  0  0  0  0  2  0  0  0  0  0  0
  188.9690  179.9070  138.8900 O   0  0  0  0  0  0  0  0  0  0  0  0
  188.1250  176.5610  137.8760 N   0  0  0  0  0  2  0  0  0  0  0  0
  188.8760  175.9540  136.7850 C   0  0  2  0  0  3  0  0  0  0  0  0
  187.9480  175.0250  135.9900 C   0  0  1  0  0  3  0  0  0  0  0  0
  185.2820  174.6760  137.0790 N   0  0  0  0  0  2  0  0  0  0  0  0
  187.5370  173.8470  136.8390 C   0  0  0  0  0  3  0  0  0  0  0  0
  185.5400  175.9150  136.3520 C   0  0  0  0  0  2  0  0  0  0  0  0
  186.7350  175.7500  135.4670 C   0  0  0  0  0  0  0  0  0  0  0  0
  186.3060  173.7100  137.3460 C   0  0  0  0  0  3  0  0  0  0  0  0
  186.7450  176.2440  134.3510 O   0  0  0  0  0  0  0  0  0  0  0  0
  191.2170  176.0280  137.1400 C   0  0  2  0  0  3  0  0  0  0  0  0
  190.9290  174.9270  136.2220 C   0  0  2  0  0  3  0  0  0  0  0  0
  192.9070  174.3240  137.4860 C   0  0  0  0  0  2  0  0  0  0  0  0
  192.3050  175.5670  138.0940 C   0  0  0  0  0  2  0  0  0  0  0  0
  190.0060  175.2100  137.3370 N   0  0  0  0  0  0  0  0  0  0  0  0
  191.8270  173.7620  136.5940 C   0  0  0  0  0  2  0  0  0  0  0  0
  188.8500  177.2580  144.7460 C   0  0  0  0  0  2  0  0  0  0  0  0
  189.7630  178.4360  144.4510 C   0  0  0  0  0  2  0  0  0  0  0  0
  191.3480  176.7040  143.6930 C   0  0  0  0  0  0  0  0  0  0  0  0
  191.5670  175.5870  144.5020 O   0  0  0  0  0  0  0  0  0  0  0  0
  192.3310  176.7800  142.5490 C   0  0  0  0  0  2  0  0  0  0  0  0
  191.5880  177.4850  145.8070 C   0  0  0  0  0  2  0  0  0  0  0  0
  191.4040  176.0320  145.7840 N   0  0  0  0  0  0  0  0  0  0  0  0
  190.8590  176.4920  142.2780 C   0  0  0  0  0  2  0  0  0  0  0  0
  191.2160  177.9850  144.4440 C   0  0  2  0  0  3  0  0  0  0  0  0
  192.6890  175.3440  146.7320 Cl  0  0  0  0  0  0  0  0  0  0  0  0
  1  9  1  0  0  0  0
  2  5  1  0  0  0  0
  3  7  1  0  0  0  0
  4 16  1  6  0  0  0
  4  1  1  0  0  0  0
  5  9  1  0  0  0  0
  5  3  2  0  0  0  0
  6 11  1  0  0  0  0
  6  4  1  0  0  0  0
  7 10  2  0  0  0  0
  8  3  1  0  0  0  0
  9 12  2  0  0  0  0
 10 14  1  0  0  0  0
 11  2  1  0  0  0  0
 12 35  1  0  0  0  0
 12 10  1  0  0  0  0
 14 13  2  0  0  0  0
 14 15  1  0  0  0  0
 17 16  1  0  0  0  0
 18 20  1  0  0  0  0
 18 17  1  0  0  0  0
 19 17  2  0  0  0  0
 21 33  1  0  0  0  0
 21 20  1  1  0  0  0
 22 21  1  1  0  0  0
 22 24  1  0  0  0  0
 23 27  1  0  0  0  0
 24 27  2  0  0  0  0
 25 23  1  0  0  0  0
 26 22  1  0  0  0  0
 26 25  1  0  0  0  0
 28 26  2  0  0  0  0
 29 33  1  0  0  0  0
 29 32  1  1  0  0  0
 30 34  1  1  0  0  0
 30 29  1  0  0  0  0
 30 33  1  0  0  0  0
 31 32  1  0  0  0  0
 34 31  1  0  0  0  0
 36 35  1  0  0  0  0
 37 43  1  0  0  0  0
 37 38  1  0  0  0  0
 38 41  1  0  0  0  0
 39 37  1  0  0  0  0
 41 40  1  0  0  0  0
 41 44  1  0  0  0  0
 42 39  1  0  0  0  0
 42 37  1  0  0  0  0
 43 36  1  1  0  0  0
 43 40  1  0  0  0  0
M  END
>  <MODEL>
6

>  <REMARK>
 VINA RESULT:      -7.4      3.376      6.203
  Name = 
  10 active torsions:
  status: ('A' for Active; 'I' for Inactive)
    1  A    between atoms: C_1  and  C_8
    2  A    between atoms: C_1  and  C_16
    3  A    between atoms: C_3  and  C_37
    4  A    between atoms: C_4  and  C_43
    5  A    between atoms: N_10  and  N_41
    6  A    between atoms: C_15  and  C_22
    7  A    between atoms: C_15  and  C_44
    8  A    between atoms: C_22  and  C_35
    9  A    between atoms: N_36  and  C_43
   10  A    between atoms: N_41  and  C_43
                            x       y       z     vdW  Elec       q    Type
                         _______ _______ _______ _____ _____    ______ ____

>  <TORSDO>
F 10

$$$$
=
 OpenBabel10232409093D

 44 50  0  0  1  0  0  0  0  0999 V2000
  184.8160  179.0700  139.4510 C   0  0  0  0  0  2  0  0  0  0  0  0
  182.2000  177.9260  138.9070 O   0  0  0  0  0  0  0  0  0  0  0  0
  183.0260  176.9010  136.8870 C   0  0  0  0  0  0  0  0  0  0  0  0
  184.5310  178.4120  140.7870 C   0  0  2  0  0  3  0  0  0  0  0  0
  183.2670  177.6540  138.0420 C   0  0  0  0  0  0  0  0  0  0  0  0
  183.0500  178.5560  141.1000 C   0  0  0  0  0  2  0  0  0  0  0  0
  184.0740  176.5800  136.0290 C   0  0  0  0  0  3  0  0  0  0  0  0
  181.6590  176.4050  136.5690 C   0  0  0  0  0  1  0  0  0  0  0  0
  184.5700  178.1300  138.3050 C   0  0  0  0  0  0  0  0  0  0  0  0
  185.3820  177.0080  136.2820 C   0  0  0  0  0  0  0  0  0  0  0  0
  182.2270  177.5730  140.2860 C   0  0  0  0  0  2  0  0  0  0  0  0
  185.6320  177.8020  137.4310 C   0  0  0  0  0  0  0  0  0  0  0  0
  186.8070  175.4140  135.1960 O   0  0  0  0  0  1  0  0  0  0  0  0
  186.4270  176.6100  135.3050 C   0  0  0  0  0  0  0  0  0  0  0  0
  187.0100  177.5710  134.4860 O   0  0  0  0  0  0  0  0  0  0  0  0
  185.3590  179.1090  141.8540 C   0  0  0  0  0  2  0  0  0  0  0  0
  185.0480  178.5700  143.2140 C   0  0  0  0  0  0  0  0  0  0  0  0
  185.9630  177.7000  143.8790 N   0  0  0  0  0  2  0  0  0  0  0  0
  183.9770  178.9030  143.7850 O   0  0  0  0  0  0  0  0  0  0  0  0
  187.1420  177.2790  143.2520 N   0  0  0  0  0  2  0  0  0  0  0  0
  188.2510  177.8970  143.9670 C   0  0  2  0  0  3  0  0  0  0  0  0
  189.5490  177.6690  143.1780 C   0  0  1  0  0  3  0  0  0  0  0  0
  191.9820  177.5780  144.7540 N   0  0  0  0  0  2  0  0  0  0  0  0
  190.4780  178.8450  143.3520 C   0  0  0  0  0  3  0  0  0  0  0  0
  191.1480  176.3810  144.7600 C   0  0  0  0  0  2  0  0  0  0  0  0
  190.2340  176.3870  143.5750 C   0  0  0  0  0  0  0  0  0  0  0  0
  191.5890  178.7890  144.0960 C   0  0  0  0  0  3  0  0  0  0  0  0
  190.0070  175.3530  142.9700 O   0  0  0  0  0  0  0  0  0  0  0  0
  187.4030  178.0380  146.1740 C   0  0  2  0  0  3  0  0  0  0  0  0
  188.8270  178.3720  146.2080 C   0  0  2  0  0  3  0  0  0  0  0  0
  188.2630  177.3600  148.3370 C   0  0  0  0  0  2  0  0  0  0  0  0
  187.0920  177.1980  147.4000 C   0  0  0  0  0  2  0  0  0  0  0  0
  188.3460  177.3130  145.3020 N   0  0  0  0  0  0  0  0  0  0  0  0
  189.4240  177.7390  147.4510 C   0  0  0  0  0  2  0  0  0  0  0  0
  187.0140  178.2930  137.7530 C   0  0  0  0  0  2  0  0  0  0  0  0
  187.8500  177.1540  138.3130 C   0  0  0  0  0  2  0  0  0  0  0  0
  190.0280  176.0720  137.9080 C   0  0  0  0  0  0  0  0  0  0  0  0
  190.8560  175.7880  138.9970 O   0  0  0  0  0  0  0  0  0  0  0  0
  190.7340  175.8670  136.5880 C   0  0  0  0  0  2  0  0  0  0  0  0
  190.0090  177.9180  139.2210 C   0  0  0  0  0  2  0  0  0  0  0  0
  190.5950  176.7680  139.9130 N   0  0  0  0  0  0  0  0  0  0  0  0
  189.6010  174.9360  137.0050 C   0  0  0  0  0  2  0  0  0  0  0  0
  189.3210  177.3800  138.0030 C   0  0  2  0  0  3  0  0  0  0  0  0
  192.1250  177.2880  140.5550 Cl  0  0  0  0  0  0  0  0  0  0  0  0
  1  4  1  0  0  0  0
  2 11  1  0  0  0  0
  3  5  1  0  0  0  0
  4  6  1  0  0  0  0
  4 16  1  1  0  0  0
  5  9  2  0  0  0  0
  5  2  1  0  0  0  0
  7 10  1  0  0  0  0
  7  3  2  0  0  0  0
  8  3  1  0  0  0  0
  9  1  1  0  0  0  0
 10 12  2  0  0  0  0
 11  6  1  0  0  0  0
 12 35  1  0  0  0  0
 12  9  1  0  0  0  0
 13 14  1  0  0  0  0
 14 10  1  0  0  0  0
 15 14  2  0  0  0  0
 16 17  1  0  0  0  0
 17 19  2  0  0  0  0
 17 18  1  0  0  0  0
 20 18  1  0  0  0  0
 21 20  1  6  0  0  0
 21 33  1  0  0  0  0
 22 24  1  0  0  0  0
 22 26  1  0  0  0  0
 22 21  1  1  0  0  0
 23 25  1  0  0  0  0
 24 27  2  0  0  0  0
 26 25  1  0  0  0  0
 27 23  1  0  0  0  0
 28 26  2  0  0  0  0
 29 30  1  0  0  0  0
 29 32  1  1  0  0  0
 30 34  1  1  0  0  0
 32 31  1  0  0  0  0
 33 29  1  0  0  0  0
 33 30  1  0  0  0  0
 34 31  1  0  0  0  0
 35 36  1  0  0  0  0
 37 43  1  0  0  0  0
 37 38  1  0  0  0  0
 38 41  1  0  0  0  0
 39 42  1  0  0  0  0
 39 37  1  0  0  0  0
 40 41  1  0  0  0  0
 41 44  1  0  0  0  0
 42 37  1  0  0  0  0
 43 36  1  1  0  0  0
 43 40  1  0  0  0  0
M  END
>  <MODEL>
7

>  <REMARK>
 VINA RESULT:      -7.3      2.809      8.347
  Name = 
  10 active torsions:
  status: ('A' for Active; 'I' for Inactive)
    1  A    between atoms: C_1  and  C_8
    2  A    between atoms: C_1  and  C_16
    3  A    between atoms: C_3  and  C_37
    4  A    between atoms: C_4  and  C_43
    5  A    between atoms: N_10  and  N_41
    6  A    between atoms: C_15  and  C_22
    7  A    between atoms: C_15  and  C_44
    8  A    between atoms: C_22  and  C_35
    9  A    between atoms: N_36  and  C_43
   10  A    between atoms: N_41  and  C_43
                            x       y       z     vdW  Elec       q    Type
                         _______ _______ _______ _____ _____    ______ ____

>  <TORSDO>
F 10

$$$$
=
 OpenBabel10232409093D

 44 50  0  0  1  0  0  0  0  0999 V2000
  188.5070  178.3770  141.9900 C   0  0  0  0  0  2  0  0  0  0  0  0
  189.4000  177.1540  144.4700 O   0  0  0  0  0  0  0  0  0  0  0  0
  187.2790  177.6320  145.5130 C   0  0  0  0  0  0  0  0  0  0  0  0
  189.0150  177.0500  141.4630 C   0  0  2  0  0  3  0  0  0  0  0  0
  188.0960  177.6570  144.3770 C   0  0  0  0  0  0  0  0  0  0  0  0
  190.2550  176.6520  142.2470 C   0  0  0  0  0  2  0  0  0  0  0  0
  185.9660  178.0870  145.4420 C   0  0  0  0  0  3  0  0  0  0  0  0
  187.7830  177.0930  146.8070 C   0  0  0  0  0  1  0  0  0  0  0  0
  187.5970  178.1950  143.1720 C   0  0  0  0  0  0  0  0  0  0  0  0
  185.4320  178.5930  144.2520 C   0  0  0  0  0  0  0  0  0  0  0  0
  189.8810  176.1190  143.6190 C   0  0  0  0  0  2  0  0  0  0  0  0
  186.2620  178.6580  143.1030 C   0  0  0  0  0  0  0  0  0  0  0  0
  183.0700  178.2480  144.4700 O   0  0  0  0  0  1  0  0  0  0  0  0
  184.0200  179.0520  144.2820 C   0  0  0  0  0  0  0  0  0  0  0  0
  183.7260  180.3980  144.0960 O   0  0  0  0  0  0  0  0  0  0  0  0
  189.3580  177.2140  139.9920 C   0  0  0  0  0  2  0  0  0  0  0  0
  190.8110  176.9570  139.7470 C   0  0  0  0  0  0  0  0  0  0  0  0
  191.2270  175.9320  138.8460 N   0  0  0  0  0  2  0  0  0  0  0  0
  191.6750  177.6650  140.3260 O   0  0  0  0  0  0  0  0  0  0  0  0
  190.2900  175.1000  138.2180 N   0  0  0  0  0  2  0  0  0  0  0  0
  190.6990  174.9710  136.8260 C   0  0  2  0  0  3  0  0  0  0  0  0
  189.5050  175.3000  135.9180 C   0  0  1  0  0  3  0  0  0  0  0  0
  187.7400  177.3960  136.8700 N   0  0  0  0  0  2  0  0  0  0  0  0
  188.2090  175.0380  136.6450 C   0  0  0  0  0  3  0  0  0  0  0  0
  188.9980  177.8190  136.2650 C   0  0  0  0  0  2  0  0  0  0  0  0
  189.5530  176.7200  135.4140 C   0  0  0  0  0  0  0  0  0  0  0  0
  187.4150  176.0170  137.0910 C   0  0  0  0  0  3  0  0  0  0  0  0
  190.0840  176.9790  134.3470 O   0  0  0  0  0  0  0  0  0  0  0  0
  192.5310  173.6980  136.0290 C   0  0  2  0  0  3  0  0  0  0  0  0
  191.3940  173.4700  135.1390 C   0  0  2  0  0  3  0  0  0  0  0  0
  192.7410  171.4550  135.1350 C   0  0  0  0  0  2  0  0  0  0  0  0
  193.2490  172.3740  136.2180 C   0  0  0  0  0  2  0  0  0  0  0  0
  191.1700  173.6080  136.5890 N   0  0  0  0  0  0  0  0  0  0  0  0
  191.3830  171.9990  134.7650 C   0  0  0  0  0  2  0  0  0  0  0  0
  185.7470  179.1940  141.7980 C   0  0  0  0  0  2  0  0  0  0  0  0
  184.7920  178.1940  141.1690 C   0  0  0  0  0  2  0  0  0  0  0  0
  182.7730  178.1700  139.7520 C   0  0  0  0  0  0  0  0  0  0  0  0
  182.7250  177.3030  138.6580 O   0  0  0  0  0  0  0  0  0  0  0  0
  181.6260  179.1530  139.7510 C   0  0  0  0  0  2  0  0  0  0  0  0
  184.7770  178.3470  138.7100 C   0  0  0  0  0  2  0  0  0  0  0  0
  184.0180  177.1900  138.2310 N   0  0  0  0  0  0  0  0  0  0  0  0
  181.7010  178.0610  140.8130 C   0  0  0  0  0  2  0  0  0  0  0  0
  184.1020  178.8130  139.9640 C   0  0  2  0  0  3  0  0  0  0  0  0
  183.9930  177.2860  136.4940 Cl  0  0  0  0  0  0  0  0  0  0  0  0
  1  9  1  0  0  0  0
  3  8  1  0  0  0  0
  4 16  1  6  0  0  0
  4  1  1  0  0  0  0
  4  6  1  0  0  0  0
  5  2  1  0  0  0  0
  5  3  2  0  0  0  0
  6 11  1  0  0  0  0
  7  3  1  0  0  0  0
  9  5  1  0  0  0  0
 10 14  1  0  0  0  0
 10  7  2  0  0  0  0
 11  2  1  0  0  0  0
 12  9  2  0  0  0  0
 12 10  1  0  0  0  0
 14 13  1  0  0  0  0
 15 14  2  0  0  0  0
 17 16  1  0  0  0  0
 17 19  2  0  0  0  0
 18 17  1  0  0  0  0
 20 18  1  0  0  0  0
 21 20  1  1  0  0  0
 22 24  1  0  0  0  0
 22 21  1  1  0  0  0
 23 27  1  0  0  0  0
 24 27  2  0  0  0  0
 25 23  1  0  0  0  0
 26 22  1  0  0  0  0
 26 25  1  0  0  0  0
 28 26  2  0  0  0  0
 29 32  1  1  0  0  0
 29 33  1  0  0  0  0
 30 34  1  1  0  0  0
 30 29  1  0  0  0  0
 30 33  1  0  0  0  0
 31 32  1  0  0  0  0
 33 21  1  0  0  0  0
 34 31  1  0  0  0  0
 35 12  1  0  0  0  0
 36 35  1  0  0  0  0
 37 43  1  0  0  0  0
 37 42  1  0  0  0  0
 38 37  1  0  0  0  0
 39 37  1  0  0  0  0
 39 42  1  0  0  0  0
 40 43  1  0  0  0  0
 41 38  1  0  0  0  0
 41 40  1  0  0  0  0
 43 36  1  1  0  0  0
 44 41  1  0  0  0  0
M  END
>  <MODEL>
8

>  <REMARK>
 VINA RESULT:      -7.3      3.154      7.041
  Name = 
  10 active torsions:
  status: ('A' for Active; 'I' for Inactive)
    1  A    between atoms: C_1  and  C_8
    2  A    between atoms: C_1  and  C_16
    3  A    between atoms: C_3  and  C_37
    4  A    between atoms: C_4  and  C_43
    5  A    between atoms: N_10  and  N_41
    6  A    between atoms: C_15  and  C_22
    7  A    between atoms: C_15  and  C_44
    8  A    between atoms: C_22  and  C_35
    9  A    between atoms: N_36  and  C_43
   10  A    between atoms: N_41  and  C_43
                            x       y       z     vdW  Elec       q    Type
                         _______ _______ _______ _____ _____    ______ ____

>  <TORSDO>
F 10

$$$$
=
 OpenBabel10232409093D

 44 50  0  0  1  0  0  0  0  0999 V2000
  185.2360  178.9930  139.4680 C   0  0  0  0  0  2  0  0  0  0  0  0
  182.4510  178.1660  139.4050 O   0  0  0  0  0  0  0  0  0  0  0  0
  182.7950  177.0330  137.3050 C   0  0  0  0  0  0  0  0  0  0  0  0
  185.1090  178.3850  140.8510 C   0  0  2  0  0  3  0  0  0  0  0  0
  183.3160  177.7610  138.3810 C   0  0  0  0  0  0  0  0  0  0  0  0
  183.7300  178.7080  141.4050 C   0  0  0  0  0  2  0  0  0  0  0  0
  183.6360  176.5820  136.2920 C   0  0  0  0  0  3  0  0  0  0  0  0
  181.3450  176.7010  137.2350 C   0  0  0  0  0  1  0  0  0  0  0  0
  184.6900  178.0800  138.4070 C   0  0  0  0  0  0  0  0  0  0  0  0
  185.0090  176.8520  136.3090 C   0  0  0  0  0  0  0  0  0  0  0  0
  182.6710  177.8230  140.7690 C   0  0  0  0  0  2  0  0  0  0  0  0
  185.5430  177.6200  137.3750 C   0  0  0  0  0  0  0  0  0  0  0  0
  186.3810  177.0910  134.3570 O   0  0  0  0  0  0  0  0  0  0  0  0
  185.8190  176.3240  135.1810 C   0  0  0  0  0  0  0  0  0  0  0  0
  185.9650  174.9510  135.0190 O   0  0  0  0  0  1  0  0  0  0  0  0
  186.1820  178.9860  141.7430 C   0  0  0  0  0  2  0  0  0  0  0  0
  187.5480  178.5720  141.2960 C   0  0  0  0  0  0  0  0  0  0  0  0
  188.2160  177.4760  141.9190 N   0  0  0  0  0  2  0  0  0  0  0  0
  188.1040  179.1830  140.3470 O   0  0  0  0  0  0  0  0  0  0  0  0
  187.6400  176.8030  143.0040 N   0  0  0  0  0  2  0  0  0  0  0  0
  188.2620  177.3290  144.2120 C   0  0  2  0  0  3  0  0  0  0  0  0
  189.5160  176.5020  144.5330 C   0  0  1  0  0  3  0  0  0  0  0  0
  191.9870  177.4500  143.3470 N   0  0  0  0  0  2  0  0  0  0  0  0
  190.1070  175.9380  143.2650 C   0  0  0  0  0  3  0  0  0  0  0  0
  191.5060  178.1630  144.5260 C   0  0  0  0  0  2  0  0  0  0  0  0
  190.5450  177.3050  145.2860 C   0  0  0  0  0  0  0  0  0  0  0  0
  191.2400  176.3980  142.7240 C   0  0  0  0  0  3  0  0  0  0  0  0
  190.5620  177.2970  146.5060 O   0  0  0  0  0  0  0  0  0  0  0  0
  186.4670  178.4790  145.2450 C   0  0  2  0  0  3  0  0  0  0  0  0
  187.5760  178.4130  146.1960 C   0  0  2  0  0  3  0  0  0  0  0  0
  185.5180  178.4290  147.4750 C   0  0  0  0  0  2  0  0  0  0  0  0
  185.1780  178.2540  146.0160 C   0  0  0  0  0  2  0  0  0  0  0  0
  187.3030  177.2650  145.3120 N   0  0  0  0  0  0  0  0  0  0  0  0
  186.9960  178.1400  147.5710 C   0  0  0  0  0  2  0  0  0  0  0  0
  187.0070  177.9450  137.4470 C   0  0  0  0  0  2  0  0  0  0  0  0
  187.7790  176.7420  137.9610 C   0  0  0  0  0  2  0  0  0  0  0  0
  189.7380  175.3320  137.4530 C   0  0  0  0  0  0  0  0  0  0  0  0
  190.7490  175.2090  138.4080 O   0  0  0  0  0  0  0  0  0  0  0  0
  190.1360  174.7380  136.1220 C   0  0  0  0  0  2  0  0  0  0  0  0
  190.1310  177.4210  138.2350 C   0  0  0  0  0  2  0  0  0  0  0  0
  190.7590  176.4010  139.0770 N   0  0  0  0  0  0  0  0  0  0  0  0
  189.0470  174.0790  136.9620 C   0  0  0  0  0  2  0  0  0  0  0  0
  189.1660  176.7040  137.3400 C   0  0  2  0  0  3  0  0  0  0  0  0
  192.4240  176.8620  139.2750 Cl  0  0  0  0  0  0  0  0  0  0  0  0
  1  4  1  0  0  0  0
  2 11  1  0  0  0  0
  3  5  1  0  0  0  0
  4  6  1  0  0  0  0
  4 16  1  1  0  0  0
  5  9  2  0  0  0  0
  5  2  1  0  0  0  0
  7 10  1  0  0  0  0
  7  3  2  0  0  0  0
  8  3  1  0  0  0  0
  9  1  1  0  0  0  0
 10 12  2  0  0  0  0
 11  6  1  0  0  0  0
 12 35  1  0  0  0  0
 12  9  1  0  0  0  0
 13 14  2  0  0  0  0
 14 10  1  0  0  0  0
 15 14  1  0  0  0  0
 17 16  1  0  0  0  0
 17 18  1  0  0  0  0
 18 20  1  0  0  0  0
 19 17  2  0  0  0  0
 21 20  1  6  0  0  0
 21 33  1  0  0  0  0
 22 21  1  6  0  0  0
 22 26  1  0  0  0  0
 23 25  1  0  0  0  0
 24 22  1  0  0  0  0
 25 26  1  0  0  0  0
 26 28  2  0  0  0  0
 27 24  2  0  0  0  0
 27 23  1  0  0  0  0
 29 33  1  0  0  0  0
 29 32  1  1  0  0  0
 29 30  1  0  0  0  0
 30 34  1  1  0  0  0
 31 34  1  0  0  0  0
 32 31  1  0  0  0  0
 33 30  1  0  0  0  0
 35 36  1  0  0  0  0
 37 38  1  0  0  0  0
 38 41  1  0  0  0  0
 39 42  1  0  0  0  0
 39 37  1  0  0  0  0
 40 41  1  0  0  0  0
 41 44  1  0  0  0  0
 42 37  1  0  0  0  0
 43 37  1  0  0  0  0
 43 36  1  1  0  0  0
 43 40  1  0  0  0  0
M  END
>  <MODEL>
9

>  <REMARK>
 VINA RESULT:      -7.3      2.884      8.322
  Name = 
  10 active torsions:
  status: ('A' for Active; 'I' for Inactive)
    1  A    between atoms: C_1  and  C_8
    2  A    between atoms: C_1  and  C_16
    3  A    between atoms: C_3  and  C_37
    4  A    between atoms: C_4  and  C_43
    5  A    between atoms: N_10  and  N_41
    6  A    between atoms: C_15  and  C_22
    7  A    between atoms: C_15  and  C_44
    8  A    between atoms: C_22  and  C_35
    9  A    between atoms: N_36  and  C_43
   10  A    between atoms: N_41  and  C_43
                            x       y       z     vdW  Elec       q    Type
                         _______ _______ _______ _____ _____    ______ ____

>  <TORSDO>
F 10

$$$$
