=
 OpenBabel10232408313D

 45 50  0  0  1  0  0  0  0  0999 V2000
  190.3620  177.6840  140.3540 C   0  0  2  0  0  3  0  0  0  0  0  0
  192.8360  177.7270  139.6230 C   0  0  0  0  0  2  0  0  0  0  0  0
  191.5510  175.6810  137.8430 C   0  0  2  0  0  3  0  0  0  0  0  0
  189.7670  176.8240  139.2000 C   0  0  1  0  0  3  0  0  0  0  0  0
  190.9070  175.3720  136.4830 C   0  0  0  0  0  2  0  0  0  0  0  0
  188.3860  177.0760  138.9660 O   0  0  0  0  0  0  0  0  0  0  0  0
  188.7080  176.5270  136.4590 N   0  0  0  0  0  2  0  0  0  0  0  0
  190.6820  176.9180  137.9460 C   0  0  2  0  0  3  0  0  0  0  0  0
  188.1180  177.8500  136.7020 C   0  0  2  0  0  3  0  0  0  0  0  0
  188.2420  178.2370  138.1800 C   0  0  0  0  0  2  0  0  0  0  0  0
  192.9450  176.1260  137.6970 N   0  0  0  0  0  0  0  0  0  0  0  0
  191.8170  177.2680  140.6680 C   0  0  0  0  0  2  0  0  0  0  0  0
  193.4910  176.4800  139.0170 C   0  0  0  0  0  2  0  0  0  0  0  0
  190.1530  176.6860  136.5320 C   0  0  1  0  0  3  0  0  0  0  0  0
  186.4050  176.3790  145.2670 F   0  0  0  0  0  0  0  0  0  0  0  0
  188.1490  177.8580  141.5720 C   0  0  0  0  0  3  0  0  0  0  0  0
  187.9540  177.6120  143.9790 C   0  0  0  0  0  0  0  0  0  0  0  0
  189.3450  177.3760  144.0560 C   0  0  0  0  0  0  0  0  0  0  0  0
  187.9050  177.7370  146.5210 C   0  0  0  0  0  0  0  0  0  0  0  0
  186.0670  178.7150  145.1180 C   0  0  0  0  0  1  0  0  0  0  0  0
  187.0870  177.5800  145.2280 C   0  0  2  0  0  0  0  0  0  0  0  0
  189.9910  176.9820  145.3510 C   0  0  0  0  0  2  0  0  0  0  0  0
  189.2250  177.4890  146.5370 C   0  0  0  0  0  3  0  0  0  0  0  0
  189.5460  177.6890  141.6470 C   0  0  0  0  0  0  0  0  0  0  0  0
  190.1210  177.4070  142.8980 C   0  0  0  0  0  3  0  0  0  0  0  0
  187.3630  177.8220  142.7210 C   0  0  0  0  0  3  0  0  0  0  0  0
  187.9960  178.0960  148.9990 C   0  0  0  0  0  1  0  0  0  0  0  0
  187.3100  178.0880  147.7480 O   0  0  0  0  0  0  0  0  0  0  0  0
  186.6730  177.8850  136.2110 C   0  0  1  0  0  3  0  0  0  0  0  0
  186.6370  177.9400  134.8100 O   0  0  0  0  0  1  0  0  0  0  0  0
  185.9010  176.6740  136.7360 C   0  0  0  0  0  2  0  0  0  0  0  0
  183.5930  176.3450  137.4720 N   0  0  0  0  0  1  0  0  0  0  0  0
  184.8440  177.0190  137.7890 C   0  0  2  0  0  3  0  0  0  0  0  0
  184.4050  179.1710  139.0940 C   0  0  0  0  0  0  0  0  0  0  0  0
  184.4170  178.4560  140.4030 C   0  0  0  0  0  1  0  0  0  0  0  0
  184.6410  178.4660  137.8630 N   0  0  0  0  0  2  0  0  0  0  0  0
  184.1980  180.4150  139.0690 O   0  0  0  0  0  0  0  0  0  0  0  0
  193.7250  174.9750  137.2530 C   0  0  0  0  0  2  0  0  0  0  0  0
  194.8220  175.4380  136.3530 C   0  0  0  0  0  0  0  0  0  0  0  0
  195.5970  176.7990  134.5220 C   0  0  0  0  0  3  0  0  0  0  0  0
  197.1460  175.5120  135.8470 C   0  0  0  0  0  0  0  0  0  0  0  0
  198.4150  175.1300  136.1340 F   0  0  0  0  0  0  0  0  0  0  0  0
  196.1010  175.0510  136.5960 N   0  0  0  0  0  0  0  0  0  0  0  0
  194.5420  176.3180  135.3040 C   0  0  0  0  0  3  0  0  0  0  0  0
  196.9090  176.3970  134.7930 C   0  0  0  0  0  3  0  0  0  0  0  0
  1 12  1  0  0  0  0
  1 24  1  1  0  0  0
  2 12  1  0  0  0  0
  3  5  1  6  0  0  0
  3  8  1  0  0  0  0
  4  6  1  6  0  0  0
  4  1  1  0  0  0  0
  5 14  1  0  0  0  0
  7 14  1  0  0  0  0
  7  9  1  0  0  0  0
  8  4  1  0  0  0  0
  9 10  1  0  0  0  0
 10  6  1  0  0  0  0
 11  3  1  0  0  0  0
 11 13  1  0  0  0  0
 13  2  1  0  0  0  0
 14  8  1  0  0  0  0
 16 24  2  0  0  0  0
 16 26  1  0  0  0  0
 17 18  1  0  0  0  0
 17 21  1  0  0  0  0
 18 22  1  0  0  0  0
 19 23  2  0  0  0  0
 19 28  1  0  0  0  0
 20 21  1  0  0  0  0
 21 15  1  0  0  0  0
 21 19  1  0  0  0  0
 22 23  1  0  0  0  0
 24 25  1  0  0  0  0
 25 18  2  0  0  0  0
 26 17  2  0  0  0  0
 28 27  1  0  0  0  0
 29  9  1  0  0  0  0
 29 31  1  0  0  0  0
 30 29  1  0  0  0  0
 31 33  1  0  0  0  0
 32 33  1  0  0  0  0
 33 36  1  0  0  0  0
 34 35  1  0  0  0  0
 36 34  1  0  0  0  0
 37 34  2  0  0  0  0
 38 11  1  0  0  0  0
 39 43  1  0  0  0  0
 39 38  1  0  0  0  0
 40 45  2  0  0  0  0
 40 44  1  0  0  0  0
 41 42  1  0  0  0  0
 41 43  2  0  0  0  0
 44 39  2  0  0  0  0
 45 41  1  0  0  0  0
M  END
>  <MODEL>
1

>  <REMARK>
 VINA RESULT:      -9.3      0.000      0.000
  Name = 
  8 active torsions:
  status: ('A' for Active; 'I' for Inactive)
    1  A    between atoms: C_3  and  C_19
    2  A    between atoms: C_4  and  C_36
    3  A    between atoms: C_12  and  C_34
    4  A    between atoms: C_12  and  C_41
    5  A    between atoms: C_18  and  C_34
    6  A    between atoms: C_19  and  N_25
    7  A    between atoms: C_22  and  O_38
    8  A    between atoms: N_32  and  C_41
                            x       y       z     vdW  Elec       q    Type
                         _______ _______ _______ _____ _____    ______ ____

>  <TORSDO>
F 8

$$$$
=
 OpenBabel10232408313D

 45 50  0  0  1  0  0  0  0  0999 V2000
  191.0150  177.5810  140.7510 C   0  0  2  0  0  3  0  0  0  0  0  0
  193.1410  177.5900  139.2870 C   0  0  0  0  0  2  0  0  0  0  0  0
  191.2780  175.6820  137.9130 C   0  0  2  0  0  3  0  0  0  0  0  0
  190.0550  176.8010  139.8050 C   0  0  1  0  0  3  0  0  0  0  0  0
  190.2310  175.4640  136.8100 C   0  0  0  0  0  2  0  0  0  0  0  0
  188.6820  177.1060  140.0240 O   0  0  0  0  0  0  0  0  0  0  0  0
  188.1860  176.6830  137.5210 N   0  0  0  0  0  2  0  0  0  0  0  0
  190.5390  176.9360  138.3340 C   0  0  2  0  0  3  0  0  0  0  0  0
  187.7610  178.0070  137.9910 C   0  0  2  0  0  3  0  0  0  0  0  0
  188.3530  178.3110  139.3720 C   0  0  0  0  0  2  0  0  0  0  0  0
  192.5770  176.0930  137.3590 N   0  0  0  0  0  0  0  0  0  0  0  0
  192.4770  177.1070  140.5780 C   0  0  0  0  0  2  0  0  0  0  0  0
  193.5190  176.3600  138.4560 C   0  0  0  0  0  2  0  0  0  0  0  0
  189.5890  176.7960  137.1460 C   0  0  1  0  0  3  0  0  0  0  0  0
  190.0310  178.8120  146.9970 F   0  0  0  0  0  0  0  0  0  0  0  0
  191.6710  177.4930  143.1950 C   0  0  0  0  0  3  0  0  0  0  0  0
  190.0410  177.5620  144.9930 C   0  0  0  0  0  0  0  0  0  0  0  0
  189.0080  177.6770  144.0360 C   0  0  0  0  0  0  0  0  0  0  0  0
  188.2570  177.2400  146.7800 C   0  0  0  0  0  0  0  0  0  0  0  0
  190.6360  176.5310  147.1510 C   0  0  0  0  0  1  0  0  0  0  0  0
  189.7300  177.5660  146.4810 C   0  0  2  0  0  0  0  0  0  0  0  0
  187.5880  177.9110  144.4570 C   0  0  0  0  0  2  0  0  0  0  0  0
  187.3140  177.3770  145.8320 C   0  0  0  0  0  3  0  0  0  0  0  0
  190.6420  177.5400  142.2330 C   0  0  0  0  0  0  0  0  0  0  0  0
  189.3140  177.6730  142.6760 C   0  0  0  0  0  3  0  0  0  0  0  0
  191.3760  177.5020  144.5560 C   0  0  0  0  0  3  0  0  0  0  0  0
  187.7960  177.6980  149.2000 C   0  0  0  0  0  1  0  0  0  0  0  0
  187.8190  176.8430  148.0580 O   0  0  0  0  0  0  0  0  0  0  0  0
  186.2370  178.1100  137.9770 C   0  0  1  0  0  3  0  0  0  0  0  0
  185.6740  176.9150  137.5060 O   0  0  0  0  0  1  0  0  0  0  0  0
  185.7120  178.4560  139.3700 C   0  0  0  0  0  2  0  0  0  0  0  0
  184.2710  180.3840  138.9450 N   0  0  0  0  0  1  0  0  0  0  0  0
  184.2780  178.9940  139.3790 C   0  0  2  0  0  3  0  0  0  0  0  0
  182.2810  178.6780  140.9390 C   0  0  0  0  0  0  0  0  0  0  0  0
  181.3310  178.5270  139.8000 C   0  0  0  0  0  1  0  0  0  0  0  0
  183.6870  178.8710  140.7120 N   0  0  0  0  0  2  0  0  0  0  0  0
  181.8440  178.6220  142.1220 O   0  0  0  0  0  0  0  0  0  0  0  0
  193.1290  174.9450  136.6460 C   0  0  0  0  0  2  0  0  0  0  0  0
  194.4160  175.3370  135.9990 C   0  0  0  0  0  0  0  0  0  0  0  0
  195.6960  176.8420  134.6210 C   0  0  0  0  0  3  0  0  0  0  0  0
  196.7630  175.0160  135.7770 C   0  0  0  0  0  0  0  0  0  0  0  0
  197.8820  174.3230  136.1040 F   0  0  0  0  0  0  0  0  0  0  0  0
  195.5500  174.6460  136.2830 N   0  0  0  0  0  0  0  0  0  0  0  0
  194.4650  176.4490  135.1540 C   0  0  0  0  0  3  0  0  0  0  0  0
  196.8550  176.1250  134.9340 C   0  0  0  0  0  3  0  0  0  0  0  0
  1 24  1  1  0  0  0
  2 12  1  0  0  0  0
  3  5  1  6  0  0  0
  3  8  1  0  0  0  0
  4  6  1  6  0  0  0
  4  1  1  0  0  0  0
  5 14  1  0  0  0  0
  7  9  1  0  0  0  0
  8  4  1  0  0  0  0
  9 10  1  0  0  0  0
 10  6  1  0  0  0  0
 11  3  1  0  0  0  0
 11 13  1  0  0  0  0
 12  1  1  0  0  0  0
 13  2  1  0  0  0  0
 14  7  1  0  0  0  0
 14  8  1  0  0  0  0
 16 26  1  0  0  0  0
 17 21  1  0  0  0  0
 18 22  1  0  0  0  0
 18 17  1  0  0  0  0
 19 28  1  0  0  0  0
 21 19  1  0  0  0  0
 21 15  1  0  0  0  0
 21 20  1  0  0  0  0
 22 23  1  0  0  0  0
 23 19  2  0  0  0  0
 24 25  1  0  0  0  0
 24 16  2  0  0  0  0
 25 18  2  0  0  0  0
 26 17  2  0  0  0  0
 28 27  1  0  0  0  0
 29  9  1  0  0  0  0
 29 31  1  0  0  0  0
 30 29  1  0  0  0  0
 31 33  1  0  0  0  0
 32 33  1  0  0  0  0
 33 36  1  0  0  0  0
 34 37  2  0  0  0  0
 35 34  1  0  0  0  0
 36 34  1  0  0  0  0
 38 11  1  0  0  0  0
 39 43  1  0  0  0  0
 39 38  1  0  0  0  0
 40 45  2  0  0  0  0
 40 44  1  0  0  0  0
 41 42  1  0  0  0  0
 41 43  2  0  0  0  0
 44 39  2  0  0  0  0
 45 41  1  0  0  0  0
M  END
>  <MODEL>
2

>  <REMARK>
 VINA RESULT:      -8.3      1.562      2.230
  Name = 
  8 active torsions:
  status: ('A' for Active; 'I' for Inactive)
    1  A    between atoms: C_3  and  C_19
    2  A    between atoms: C_4  and  C_36
    3  A    between atoms: C_12  and  C_34
    4  A    between atoms: C_12  and  C_41
    5  A    between atoms: C_18  and  C_34
    6  A    between atoms: C_19  and  N_25
    7  A    between atoms: C_22  and  O_38
    8  A    between atoms: N_32  and  C_41
                            x       y       z     vdW  Elec       q    Type
                         _______ _______ _______ _____ _____    ______ ____

>  <TORSDO>
F 8

$$$$
=
 OpenBabel10232408313D

 45 50  0  0  1  0  0  0  0  0999 V2000
  191.0290  177.1040  139.2120 C   0  0  2  0  0  3  0  0  0  0  0  0
  193.1920  176.8330  137.8290 C   0  0  0  0  0  2  0  0  0  0  0  0
  191.2410  174.9310  136.5730 C   0  0  2  0  0  3  0  0  0  0  0  0
  190.0440  176.3040  138.3080 C   0  0  1  0  0  3  0  0  0  0  0  0
  190.2140  174.6800  135.4580 C   0  0  0  0  0  2  0  0  0  0  0  0
  188.6900  176.7190  138.4490 O   0  0  0  0  0  0  0  0  0  0  0  0
  188.2390  176.0930  135.9800 N   0  0  0  0  0  2  0  0  0  0  0  0
  190.5800  176.2650  136.8490 C   0  0  2  0  0  3  0  0  0  0  0  0
  187.8940  177.4820  136.3100 C   0  0  2  0  0  3  0  0  0  0  0  0
  188.4660  177.8750  137.6770 C   0  0  0  0  0  2  0  0  0  0  0  0
  192.5810  175.2000  136.0290 N   0  0  0  0  0  0  0  0  0  0  0  0
  192.4580  176.5190  139.1350 C   0  0  0  0  0  2  0  0  0  0  0  0
  193.5080  175.5070  137.1300 C   0  0  0  0  0  2  0  0  0  0  0  0
  189.6570  176.0770  135.6460 C   0  0  1  0  0  3  0  0  0  0  0  0
  189.7700  179.0580  145.2200 F   0  0  0  0  0  0  0  0  0  0  0  0
  191.6090  177.3710  141.6620 C   0  0  0  0  0  3  0  0  0  0  0  0
  189.9200  177.5650  143.3950 C   0  0  0  0  0  0  0  0  0  0  0  0
  188.9130  177.4910  142.4060 C   0  0  0  0  0  0  0  0  0  0  0  0
  188.1010  177.3620  145.1640 C   0  0  0  0  0  0  0  0  0  0  0  0
  190.5060  176.8580  145.6820 C   0  0  0  0  0  1  0  0  0  0  0  0
  189.5620  177.7400  144.8620 C   0  0  2  0  0  0  0  0  0  0  0  0
  187.4690  177.6870  142.7590 C   0  0  0  0  0  2  0  0  0  0  0  0
  187.1840  177.3160  144.1840 C   0  0  0  0  0  3  0  0  0  0  0  0
  190.6110  177.2290  140.6770 C   0  0  0  0  0  0  0  0  0  0  0  0
  189.2640  177.3330  141.0660 C   0  0  0  0  0  3  0  0  0  0  0  0
  191.2700  177.5360  143.0020 C   0  0  0  0  0  3  0  0  0  0  0  0
  187.4790  178.1050  147.4740 C   0  0  0  0  0  1  0  0  0  0  0  0
  187.6470  177.1040  146.4720 O   0  0  0  0  0  0  0  0  0  0  0  0
  186.3820  177.6850  136.2320 C   0  0  1  0  0  3  0  0  0  0  0  0
  185.9510  177.6140  134.9000 O   0  0  0  0  0  1  0  0  0  0  0  0
  185.6590  176.6560  137.1010 C   0  0  0  0  0  2  0  0  0  0  0  0
  183.4480  177.6940  137.2040 N   0  0  0  0  0  1  0  0  0  0  0  0
  184.5800  177.2550  138.0080 C   0  0  2  0  0  3  0  0  0  0  0  0
  184.6950  178.6820  140.1230 C   0  0  0  0  0  0  0  0  0  0  0  0
  183.7020  177.8250  140.8340 C   0  0  0  0  0  1  0  0  0  0  0  0
  185.1190  178.3710  138.7850 N   0  0  0  0  0  2  0  0  0  0  0  0
  185.1790  179.6880  140.7110 O   0  0  0  0  0  0  0  0  0  0  0  0
  193.0720  173.9550  135.4460 C   0  0  0  0  0  2  0  0  0  0  0  0
  194.3400  173.5570  136.1260 C   0  0  0  0  0  0  0  0  0  0  0  0
  195.5060  172.2840  137.8060 C   0  0  0  0  0  3  0  0  0  0  0  0
  196.7180  173.5710  136.1680 C   0  0  0  0  0  0  0  0  0  0  0  0
  197.8930  173.9810  135.6270 F   0  0  0  0  0  0  0  0  0  0  0  0
  195.5320  173.9740  135.6270 N   0  0  0  0  0  0  0  0  0  0  0  0
  194.3020  172.7060  137.2340 C   0  0  0  0  0  3  0  0  0  0  0  0
  196.7240  172.7150  137.2720 C   0  0  0  0  0  3  0  0  0  0  0  0
  1 24  1  1  0  0  0
  2 12  1  0  0  0  0
  3  5  1  6  0  0  0
  3  8  1  0  0  0  0
  4  6  1  6  0  0  0
  4  1  1  0  0  0  0
  5 14  1  0  0  0  0
  7  9  1  0  0  0  0
  8  4  1  0  0  0  0
  9 10  1  0  0  0  0
 10  6  1  0  0  0  0
 11  3  1  0  0  0  0
 11 13  1  0  0  0  0
 12  1  1  0  0  0  0
 13  2  1  0  0  0  0
 14  7  1  0  0  0  0
 14  8  1  0  0  0  0
 16 26  1  0  0  0  0
 17 21  1  0  0  0  0
 18 22  1  0  0  0  0
 18 17  1  0  0  0  0
 19 28  1  0  0  0  0
 21 19  1  0  0  0  0
 21 15  1  0  0  0  0
 21 20  1  0  0  0  0
 22 23  1  0  0  0  0
 23 19  2  0  0  0  0
 24 25  1  0  0  0  0
 24 16  2  0  0  0  0
 25 18  2  0  0  0  0
 26 17  2  0  0  0  0
 28 27  1  0  0  0  0
 29  9  1  0  0  0  0
 29 31  1  0  0  0  0
 30 29  1  0  0  0  0
 31 33  1  0  0  0  0
 32 33  1  0  0  0  0
 33 36  1  0  0  0  0
 34 37  2  0  0  0  0
 34 35  1  0  0  0  0
 36 34  1  0  0  0  0
 38 11  1  0  0  0  0
 38 39  1  0  0  0  0
 39 44  1  0  0  0  0
 41 45  2  0  0  0  0
 42 41  1  0  0  0  0
 43 39  2  0  0  0  0
 43 41  1  0  0  0  0
 44 40  2  0  0  0  0
 45 40  1  0  0  0  0
M  END
>  <MODEL>
3

>  <REMARK>
 VINA RESULT:      -8.0      1.498      2.327
  Name = 
  8 active torsions:
  status: ('A' for Active; 'I' for Inactive)
    1  A    between atoms: C_3  and  C_19
    2  A    between atoms: C_4  and  C_36
    3  A    between atoms: C_12  and  C_34
    4  A    between atoms: C_12  and  C_41
    5  A    between atoms: C_18  and  C_34
    6  A    between atoms: C_19  and  N_25
    7  A    between atoms: C_22  and  O_38
    8  A    between atoms: N_32  and  C_41
                            x       y       z     vdW  Elec       q    Type
                         _______ _______ _______ _____ _____    ______ ____

>  <TORSDO>
F 8

$$$$
=
 OpenBabel10232408313D

 45 50  0  0  1  0  0  0  0  0999 V2000
  187.0110  178.4960  140.0870 C   0  0  2  0  0  3  0  0  0  0  0  0
  188.7360  178.6410  138.1730 C   0  0  0  0  0  2  0  0  0  0  0  0
  186.5870  176.8290  137.1250 C   0  0  2  0  0  3  0  0  0  0  0  0
  185.8490  177.7840  139.3330 C   0  0  1  0  0  3  0  0  0  0  0  0
  185.3100  176.6900  136.2830 C   0  0  0  0  0  2  0  0  0  0  0  0
  184.5680  178.0570  139.8900 O   0  0  0  0  0  0  0  0  0  0  0  0
  183.4980  177.8280  137.5450 N   0  0  0  0  0  2  0  0  0  0  0  0
  185.9780  178.0390  137.8040 C   0  0  2  0  0  3  0  0  0  0  0  0
  183.2060  179.1070  138.2050 C   0  0  2  0  0  3  0  0  0  0  0  0
  184.1080  179.3070  139.4290 C   0  0  0  0  0  2  0  0  0  0  0  0
  187.7240  177.2950  136.3170 N   0  0  0  0  0  0  0  0  0  0  0  0
  188.3870  178.0510  139.5410 C   0  0  0  0  0  2  0  0  0  0  0  0
  188.8990  177.4840  137.1830 C   0  0  0  0  0  2  0  0  0  0  0  0
  184.7760  177.9840  136.8640 C   0  0  1  0  0  3  0  0  0  0  0  0
  186.1490  176.5560  146.1690 F   0  0  0  0  0  0  0  0  0  0  0  0
  185.7720  178.4890  142.2950 C   0  0  0  0  0  3  0  0  0  0  0  0
  186.8540  177.9570  144.4030 C   0  0  0  0  0  0  0  0  0  0  0  0
  188.0660  177.7360  143.7120 C   0  0  0  0  0  0  0  0  0  0  0  0
  188.1470  177.7800  146.5890 C   0  0  0  0  0  0  0  0  0  0  0  0
  185.8960  178.8870  146.4750 C   0  0  0  0  0  1  0  0  0  0  0  0
  186.7670  177.7640  145.9090 C   0  0  2  0  0  0  0  0  0  0  0  0
  189.2740  177.2040  144.4240 C   0  0  0  0  0  2  0  0  0  0  0  0
  189.2670  177.5550  145.8820 C   0  0  0  0  0  3  0  0  0  0  0  0
  186.9930  178.3350  141.6080 C   0  0  0  0  0  0  0  0  0  0  0  0
  188.1230  177.9170  142.3310 C   0  0  0  0  0  3  0  0  0  0  0  0
  185.7020  178.3040  143.6740 C   0  0  0  0  0  3  0  0  0  0  0  0
  189.5490  178.2130  148.6190 C   0  0  0  0  0  1  0  0  0  0  0  0
  188.2980  177.9750  147.9750 O   0  0  0  0  0  0  0  0  0  0  0  0
  181.7220  179.1970  138.5550 C   0  0  1  0  0  3  0  0  0  0  0  0
  180.9410  179.0460  137.4000 O   0  0  0  0  0  1  0  0  0  0  0  0
  181.3580  178.1510  139.6080 C   0  0  0  0  0  2  0  0  0  0  0  0
  180.1890  180.0590  140.5940 N   0  0  0  0  0  1  0  0  0  0  0  0
  180.7330  178.7380  140.8770 C   0  0  2  0  0  3  0  0  0  0  0  0
  181.3830  178.6930  143.3470 C   0  0  0  0  0  0  0  0  0  0  0  0
  179.9820  178.4210  143.7780 C   0  0  0  0  0  1  0  0  0  0  0  0
  181.7210  178.8110  141.9540 N   0  0  0  0  0  2  0  0  0  0  0  0
  182.2890  178.8080  144.2180 O   0  0  0  0  0  0  0  0  0  0  0  0
  188.0840  176.2130  135.4070 C   0  0  0  0  0  2  0  0  0  0  0  0
  189.3880  175.6230  135.8310 C   0  0  0  0  0  0  0  0  0  0  0  0
  190.6430  173.9180  136.9810 C   0  0  0  0  0  3  0  0  0  0  0  0
  191.7610  175.5910  135.6540 C   0  0  0  0  0  0  0  0  0  0  0  0
  192.9000  176.1180  135.1410 F   0  0  0  0  0  0  0  0  0  0  0  0
  190.5490  176.1460  135.3570 N   0  0  0  0  0  0  0  0  0  0  0  0
  189.4120  174.4990  136.6610 C   0  0  0  0  0  3  0  0  0  0  0  0
  191.8270  174.4630  136.4750 C   0  0  0  0  0  3  0  0  0  0  0  0
  1 24  1  1  0  0  0
  2 12  1  0  0  0  0
  3  5  1  6  0  0  0
  3  8  1  0  0  0  0
  4  6  1  1  0  0  0
  4  1  1  0  0  0  0
  5 14  1  0  0  0  0
  7  9  1  0  0  0  0
  8  4  1  0  0  0  0
  9 29  1  0  0  0  0
  9 10  1  0  0  0  0
 10  6  1  0  0  0  0
 11  3  1  0  0  0  0
 11 13  1  0  0  0  0
 12  1  1  0  0  0  0
 13  2  1  0  0  0  0
 14  7  1  0  0  0  0
 14  8  1  0  0  0  0
 16 26  1  0  0  0  0
 17 21  1  0  0  0  0
 18 17  1  0  0  0  0
 18 22  1  0  0  0  0
 19 28  1  0  0  0  0
 21 15  1  0  0  0  0
 21 20  1  0  0  0  0
 21 19  1  0  0  0  0
 22 23  1  0  0  0  0
 23 19  2  0  0  0  0
 24 16  2  0  0  0  0
 24 25  1  0  0  0  0
 25 18  2  0  0  0  0
 26 17  2  0  0  0  0
 28 27  1  0  0  0  0
 29 31  1  0  0  0  0
 30 29  1  0  0  0  0
 31 33  1  0  0  0  0
 32 33  1  0  0  0  0
 33 36  1  0  0  0  0
 34 35  1  0  0  0  0
 34 37  2  0  0  0  0
 36 34  1  0  0  0  0
 38 39  1  0  0  0  0
 38 11  1  0  0  0  0
 39 44  1  0  0  0  0
 41 45  2  0  0  0  0
 42 41  1  0  0  0  0
 43 41  1  0  0  0  0
 43 39  2  0  0  0  0
 44 40  2  0  0  0  0
 45 40  1  0  0  0  0
M  END
>  <MODEL>
4

>  <REMARK>
 VINA RESULT:      -7.6      2.676      4.493
  Name = 
  8 active torsions:
  status: ('A' for Active; 'I' for Inactive)
    1  A    between atoms: C_3  and  C_19
    2  A    between atoms: C_4  and  C_36
    3  A    between atoms: C_12  and  C_34
    4  A    between atoms: C_12  and  C_41
    5  A    between atoms: C_18  and  C_34
    6  A    between atoms: C_19  and  N_25
    7  A    between atoms: C_22  and  O_38
    8  A    between atoms: N_32  and  C_41
                            x       y       z     vdW  Elec       q    Type
                         _______ _______ _______ _____ _____    ______ ____

>  <TORSDO>
F 8

$$$$
=
 OpenBabel10232408313D

 45 50  0  0  1  0  0  0  0  0999 V2000
  184.1330  178.1960  142.0820 C   0  0  2  0  0  3  0  0  0  0  0  0
  181.6280  178.1990  141.4620 C   0  0  0  0  0  2  0  0  0  0  0  0
  182.8590  180.2640  139.6670 C   0  0  2  0  0  3  0  0  0  0  0  0
  184.6870  179.0720  140.9190 C   0  0  1  0  0  3  0  0  0  0  0  0
  183.4460  180.5930  138.2860 C   0  0  0  0  0  2  0  0  0  0  0  0
  186.0530  178.8070  140.6190 O   0  0  0  0  0  0  0  0  0  0  0  0
  185.6260  179.4120  138.1400 N   0  0  0  0  0  2  0  0  0  0  0  0
  183.7160  179.0150  139.7060 C   0  0  2  0  0  3  0  0  0  0  0  0
  186.2080  178.0770  138.3300 C   0  0  2  0  0  3  0  0  0  0  0  0
  186.1450  177.6610  139.8040 C   0  0  0  0  0  2  0  0  0  0  0  0
  181.4540  179.8400  139.5750 N   0  0  0  0  0  0  0  0  0  0  0  0
  182.6980  178.6230  142.4690 C   0  0  0  0  0  2  0  0  0  0  0  0
  180.9640  179.4660  140.9110 C   0  0  0  0  0  2  0  0  0  0  0  0
  184.1830  179.2690  138.2750 C   0  0  1  0  0  3  0  0  0  0  0  0
  186.8270  176.9400  147.7970 F   0  0  0  0  0  0  0  0  0  0  0  0
  184.4710  178.6200  144.5550 C   0  0  0  0  0  3  0  0  0  0  0  0
  186.5150  178.0220  145.7200 C   0  0  0  0  0  0  0  0  0  0  0  0
  187.0320  177.4920  144.5170 C   0  0  0  0  0  0  0  0  0  0  0  0
  188.8200  177.7270  146.7600 C   0  0  0  0  0  0  0  0  0  0  0  0
  187.1170  179.2870  147.7480 C   0  0  0  0  0  1  0  0  0  0  0  0
  187.3200  177.9620  147.0090 C   0  0  2  0  0  0  0  0  0  0  0  0
  188.3420  176.7630  144.4940 C   0  0  0  0  0  2  0  0  0  0  0  0
  189.2540  177.2120  145.5980 C   0  0  0  0  0  3  0  0  0  0  0  0
  185.0050  178.1540  143.3370 C   0  0  0  0  0  0  0  0  0  0  0  0
  186.2770  177.5540  143.3470 C   0  0  0  0  0  3  0  0  0  0  0  0
  185.2140  178.5560  145.7300 C   0  0  0  0  0  3  0  0  0  0  0  0
  191.0350  177.2900  147.8440 C   0  0  0  0  0  1  0  0  0  0  0  0
  189.7930  177.9850  147.7440 O   0  0  0  0  0  0  0  0  0  0  0  0
  187.6300  178.0340  137.7740 C   0  0  1  0  0  3  0  0  0  0  0  0
  188.3350  179.1840  138.1570 O   0  0  0  0  0  1  0  0  0  0  0  0
  188.3470  176.7670  138.2380 C   0  0  0  0  0  2  0  0  0  0  0  0
  190.6710  176.6760  137.4840 N   0  0  0  0  0  1  0  0  0  0  0  0
  189.8140  176.9860  138.6190 C   0  0  2  0  0  3  0  0  0  0  0  0
  190.1130  176.6330  141.1320 C   0  0  0  0  0  0  0  0  0  0  0  0
  189.6020  177.9970  141.4500 C   0  0  0  0  0  1  0  0  0  0  0  0
  190.1770  176.1640  139.7740 N   0  0  0  0  0  2  0  0  0  0  0  0
  190.4830  175.8750  142.0700 O   0  0  0  0  0  0  0  0  0  0  0  0
  180.6710  181.0090  139.1900 C   0  0  0  0  0  2  0  0  0  0  0  0
  180.5690  181.0680  137.7010 C   0  0  0  0  0  0  0  0  0  0  0  0
  180.0810  180.0120  135.5910 C   0  0  0  0  0  3  0  0  0  0  0  0
  180.5670  182.3690  135.7100 C   0  0  0  0  0  0  0  0  0  0  0  0
  180.7040  183.5750  135.1040 F   0  0  0  0  0  0  0  0  0  0  0  0
  180.7300  182.2540  137.0610 N   0  0  0  0  0  0  0  0  0  0  0  0
  180.2470  179.9160  136.9770 C   0  0  0  0  0  3  0  0  0  0  0  0
  180.2390  181.2440  134.9510 C   0  0  0  0  0  3  0  0  0  0  0  0
  1 12  1  0  0  0  0
  1 24  1  1  0  0  0
  2 12  1  0  0  0  0
  3  5  1  6  0  0  0
  3  8  1  0  0  0  0
  4  6  1  6  0  0  0
  4  1  1  0  0  0  0
  7 14  1  0  0  0  0
  7  9  1  0  0  0  0
  8  4  1  0  0  0  0
  9 10  1  0  0  0  0
 10  6  1  0  0  0  0
 11  3  1  0  0  0  0
 11 13  1  0  0  0  0
 13  2  1  0  0  0  0
 14  5  1  0  0  0  0
 14  8  1  0  0  0  0
 16 26  1  0  0  0  0
 17 26  2  0  0  0  0
 17 21  1  0  0  0  0
 18 17  1  0  0  0  0
 19 21  1  0  0  0  0
 19 28  1  0  0  0  0
 21 20  1  0  0  0  0
 21 15  1  0  0  0  0
 22 18  1  0  0  0  0
 22 23  1  0  0  0  0
 23 19  2  0  0  0  0
 24 25  1  0  0  0  0
 24 16  2  0  0  0  0
 25 18  2  0  0  0  0
 28 27  1  0  0  0  0
 29 30  1  0  0  0  0
 29 31  1  0  0  0  0
 29  9  1  0  0  0  0
 31 33  1  0  0  0  0
 32 33  1  0  0  0  0
 33 36  1  0  0  0  0
 34 35  1  0  0  0  0
 34 37  2  0  0  0  0
 36 34  1  0  0  0  0
 38 11  1  0  0  0  0
 39 38  1  0  0  0  0
 40 44  1  0  0  0  0
 41 43  2  0  0  0  0
 42 41  1  0  0  0  0
 43 39  1  0  0  0  0
 44 39  2  0  0  0  0
 45 40  2  0  0  0  0
 45 41  1  0  0  0  0
M  END
>  <MODEL>
5

>  <REMARK>
 VINA RESULT:      -7.5      4.007      8.911
  Name = 
  8 active torsions:
  status: ('A' for Active; 'I' for Inactive)
    1  A    between atoms: C_3  and  C_19
    2  A    between atoms: C_4  and  C_36
    3  A    between atoms: C_12  and  C_34
    4  A    between atoms: C_12  and  C_41
    5  A    between atoms: C_18  and  C_34
    6  A    between atoms: C_19  and  N_25
    7  A    between atoms: C_22  and  O_38
    8  A    between atoms: N_32  and  C_41
                            x       y       z     vdW  Elec       q    Type
                         _______ _______ _______ _____ _____    ______ ____

>  <TORSDO>
F 8

$$$$
=
 OpenBabel10232408313D

 45 50  0  0  1  0  0  0  0  0999 V2000
  188.4100  178.4520  140.0750 C   0  0  2  0  0  3  0  0  0  0  0  0
  188.9870  179.1630  137.6620 C   0  0  0  0  0  2  0  0  0  0  0  0
  186.5490  177.4360  137.3850 C   0  0  2  0  0  3  0  0  0  0  0  0
  187.0080  177.8200  139.8290 C   0  0  1  0  0  3  0  0  0  0  0  0
  185.0200  177.3680  137.2530 C   0  0  0  0  0  2  0  0  0  0  0  0
  186.1690  177.8500  140.9780 O   0  0  0  0  0  0  0  0  0  0  0  0
  184.0870  178.0390  139.4550 N   0  0  0  0  0  2  0  0  0  0  0  0
  186.3830  178.4100  138.5330 C   0  0  2  0  0  3  0  0  0  0  0  0
  184.1890  179.1130  140.4510 C   0  0  2  0  0  3  0  0  0  0  0  0
  185.5780  179.1230  141.1000 C   0  0  0  0  0  2  0  0  0  0  0  0
  187.1610  178.1670  136.2640 N   0  0  0  0  0  0  0  0  0  0  0  0
  189.3320  178.2620  138.8490 C   0  0  0  0  0  2  0  0  0  0  0  0
  188.6140  178.2680  136.4760 C   0  0  0  0  0  2  0  0  0  0  0  0
  184.8740  178.4530  138.3020 C   0  0  1  0  0  3  0  0  0  0  0  0
  192.3700  177.5720  145.0800 F   0  0  0  0  0  0  0  0  0  0  0  0
  190.4110  177.3890  141.2050 C   0  0  0  0  0  3  0  0  0  0  0  0
  190.5720  177.1280  143.6130 C   0  0  0  0  0  0  0  0  0  0  0  0
  189.3180  177.7650  143.7540 C   0  0  0  0  0  0  0  0  0  0  0  0
  190.4750  176.5420  146.0880 C   0  0  0  0  0  0  0  0  0  0  0  0
  191.9820  175.3120  144.5000 C   0  0  0  0  0  1  0  0  0  0  0  0
  191.3550  176.6680  144.8320 C   0  0  2  0  0  0  0  0  0  0  0  0
  188.7700  178.1000  145.1090 C   0  0  0  0  0  2  0  0  0  0  0  0
  189.2950  177.1780  146.1700 C   0  0  0  0  0  3  0  0  0  0  0  0
  189.1310  177.9650  141.3320 C   0  0  0  0  0  0  0  0  0  0  0  0
  188.6180  178.1810  142.6230 C   0  0  0  0  0  3  0  0  0  0  0  0
  191.1220  176.9760  142.3280 C   0  0  0  0  0  3  0  0  0  0  0  0
  192.1580  175.9460  147.8460 C   0  0  0  0  0  1  0  0  0  0  0  0
  190.8830  175.8110  147.2200 O   0  0  0  0  0  0  0  0  0  0  0  0
  183.0670  178.9910  141.4800 C   0  0  1  0  0  3  0  0  0  0  0  0
  182.6150  177.6650  141.5500 O   0  0  0  0  0  1  0  0  0  0  0  0
  183.5390  179.4860  142.8470 C   0  0  0  0  0  2  0  0  0  0  0  0
  181.5150  178.8260  144.0480 N   0  0  0  0  0  1  0  0  0  0  0  0
  182.9650  178.6970  144.0270 C   0  0  2  0  0  3  0  0  0  0  0  0
  184.8250  178.7470  145.7760 C   0  0  0  0  0  0  0  0  0  0  0  0
  185.6960  177.8420  144.9710 C   0  0  0  0  0  1  0  0  0  0  0  0
  183.5390  179.1630  145.2900 N   0  0  0  0  0  2  0  0  0  0  0  0
  185.2320  179.1630  146.8960 O   0  0  0  0  0  0  0  0  0  0  0  0
  187.0010  177.3440  135.0700 C   0  0  0  0  0  2  0  0  0  0  0  0
  187.9090  176.1620  135.1580 C   0  0  0  0  0  0  0  0  0  0  0  0
  190.0000  175.0830  134.6410 C   0  0  0  0  0  3  0  0  0  0  0  0
  188.4040  174.0420  136.1180 C   0  0  0  0  0  0  0  0  0  0  0  0
  188.0490  173.0200  136.9350 F   0  0  0  0  0  0  0  0  0  0  0  0
  187.5690  175.1090  135.9450 N   0  0  0  0  0  0  0  0  0  0  0  0
  189.1330  176.1680  134.4820 C   0  0  0  0  0  3  0  0  0  0  0  0
  189.6380  174.0120  135.4650 C   0  0  0  0  0  3  0  0  0  0  0  0
  1 24  1  1  0  0  0
  2 12  1  0  0  0  0
  3  5  1  6  0  0  0
  3  8  1  0  0  0  0
  4  1  1  0  0  0  0
  4  6  1  1  0  0  0
  5 14  1  0  0  0  0
  6 10  1  0  0  0  0
  7  9  1  0  0  0  0
  8  4  1  0  0  0  0
  9 10  1  0  0  0  0
  9 29  1  0  0  0  0
 11 13  1  0  0  0  0
 11  3  1  0  0  0  0
 12  1  1  0  0  0  0
 13  2  1  0  0  0  0
 14  8  1  0  0  0  0
 14  7  1  0  0  0  0
 16 24  2  0  0  0  0
 16 26  1  0  0  0  0
 17 18  1  0  0  0  0
 17 21  1  0  0  0  0
 18 22  1  0  0  0  0
 19 23  2  0  0  0  0
 19 28  1  0  0  0  0
 20 21  1  0  0  0  0
 21 15  1  0  0  0  0
 21 19  1  0  0  0  0
 22 23  1  0  0  0  0
 24 25  1  0  0  0  0
 25 18  2  0  0  0  0
 26 17  2  0  0  0  0
 28 27  1  0  0  0  0
 29 30  1  0  0  0  0
 29 31  1  0  0  0  0
 31 33  1  0  0  0  0
 33 32  1  0  0  0  0
 33 36  1  0  0  0  0
 34 37  2  0  0  0  0
 35 34  1  0  0  0  0
 36 34  1  0  0  0  0
 38 39  1  0  0  0  0
 38 11  1  0  0  0  0
 39 43  1  0  0  0  0
 40 45  2  0  0  0  0
 41 42  1  0  0  0  0
 43 41  2  0  0  0  0
 44 40  1  0  0  0  0
 44 39  2  0  0  0  0
 45 41  1  0  0  0  0
M  END
>  <MODEL>
6

>  <REMARK>
 VINA RESULT:      -7.5      3.739      5.681
  Name = 
  8 active torsions:
  status: ('A' for Active; 'I' for Inactive)
    1  A    between atoms: C_3  and  C_19
    2  A    between atoms: C_4  and  C_36
    3  A    between atoms: C_12  and  C_34
    4  A    between atoms: C_12  and  C_41
    5  A    between atoms: C_18  and  C_34
    6  A    between atoms: C_19  and  N_25
    7  A    between atoms: C_22  and  O_38
    8  A    between atoms: N_32  and  C_41
                            x       y       z     vdW  Elec       q    Type
                         _______ _______ _______ _____ _____    ______ ____

>  <TORSDO>
F 8

$$$$
=
 OpenBabel10232408313D

 45 50  0  0  1  0  0  0  0  0999 V2000
  190.6730  177.1480  138.0410 C   0  0  2  0  0  3  0  0  0  0  0  0
  189.1420  178.8170  136.8030 C   0  0  0  0  0  2  0  0  0  0  0  0
  187.4180  177.6660  138.9720 C   0  0  2  0  0  3  0  0  0  0  0  0
  189.7770  176.8450  139.2780 C   0  0  1  0  0  3  0  0  0  0  0  0
  186.8440  177.8240  140.3880 C   0  0  0  0  0  2  0  0  0  0  0  0
  190.5180  176.4340  140.4210 O   0  0  0  0  0  0  0  0  0  0  0  0
  188.7400  177.5090  141.9630 N   0  0  0  0  0  2  0  0  0  0  0  0
  188.7880  178.0220  139.5140 C   0  0  2  0  0  3  0  0  0  0  0  0
  190.1040  177.9950  142.2070 C   0  0  2  0  0  3  0  0  0  0  0  0
  191.0450  177.5650  141.0760 C   0  0  0  0  0  2  0  0  0  0  0  0
  186.9910  178.7600  138.0860 N   0  0  0  0  0  0  0  0  0  0  0  0
  189.8160  177.4440  136.7890 C   0  0  0  0  0  2  0  0  0  0  0  0
  187.6260  178.6040  136.7680 C   0  0  0  0  0  2  0  0  0  0  0  0
  188.1870  178.3200  140.8870 C   0  0  1  0  0  3  0  0  0  0  0  0
  194.8670  172.2590  138.1060 F   0  0  0  0  0  0  0  0  0  0  0  0
  193.0060  176.1840  138.2370 C   0  0  0  0  0  3  0  0  0  0  0  0
  193.6410  174.0730  137.2190 C   0  0  0  0  0  0  0  0  0  0  0  0
  192.3210  173.9200  136.7400 C   0  0  0  0  0  0  0  0  0  0  0  0
  194.3160  172.0720  135.7980 C   0  0  0  0  0  0  0  0  0  0  0  0
  196.0110  173.7210  136.6410 C   0  0  0  0  0  1  0  0  0  0  0  0
  194.6950  173.0080  136.9580 C   0  0  2  0  0  0  0  0  0  0  0  0
  191.8910  172.6580  136.0530 C   0  0  0  0  0  2  0  0  0  0  0  0
  193.0410  171.9600  135.3900 C   0  0  0  0  0  3  0  0  0  0  0  0
  191.7050  176.0700  137.7070 C   0  0  0  0  0  0  0  0  0  0  0  0
  191.3700  174.9070  136.9930 C   0  0  0  0  0  3  0  0  0  0  0  0
  193.9620  175.2000  137.9970 C   0  0  0  0  0  3  0  0  0  0  0  0
  195.7590  170.0270  135.6820 C   0  0  0  0  0  1  0  0  0  0  0  0
  195.2640  171.2560  135.1510 O   0  0  0  0  0  0  0  0  0  0  0  0
  190.5940  177.5330  143.5780 C   0  0  1  0  0  3  0  0  0  0  0  0
  191.9260  177.9240  143.7740 O   0  0  0  0  0  1  0  0  0  0  0  0
  189.6890  178.0820  144.6810 C   0  0  0  0  0  2  0  0  0  0  0  0
  188.0520  177.1620  146.2460 N   0  0  0  0  0  1  0  0  0  0  0  0
  189.4470  177.1010  145.8320 C   0  0  2  0  0  3  0  0  0  0  0  0
  191.5250  176.6550  147.2480 C   0  0  0  0  0  0  0  0  0  0  0  0
  191.9770  175.5500  146.3540 C   0  0  0  0  0  1  0  0  0  0  0  0
  190.3290  177.3990  146.9600 N   0  0  0  0  0  2  0  0  0  0  0  0
  192.2110  176.9490  148.2650 O   0  0  0  0  0  0  0  0  0  0  0  0
  185.5600  178.5930  137.8490 C   0  0  0  0  0  2  0  0  0  0  0  0
  185.3270  177.3150  137.1130 C   0  0  0  0  0  0  0  0  0  0  0  0
  185.4430  176.0090  135.0920 C   0  0  0  0  0  3  0  0  0  0  0  0
  184.7610  175.0050  137.1740 C   0  0  0  0  0  0  0  0  0  0  0  0
  184.3750  173.9170  137.8850 F   0  0  0  0  0  0  0  0  0  0  0  0
  184.9120  176.2140  137.7910 N   0  0  0  0  0  0  0  0  0  0  0  0
  185.5960  177.2370  135.7430 C   0  0  0  0  0  3  0  0  0  0  0  0
  185.0250  174.8830  135.8080 C   0  0  0  0  0  3  0  0  0  0  0  0
  1 24  1  6  0  0  0
  1  4  1  0  0  0  0
  3  8  1  0  0  0  0
  3  5  1  1  0  0  0
  4  8  1  0  0  0  0
  4  6  1  1  0  0  0
  5 14  1  0  0  0  0
  6 10  1  0  0  0  0
  7  9  1  0  0  0  0
  8 14  1  0  0  0  0
  9 29  1  0  0  0  0
 10  9  1  0  0  0  0
 11  3  1  0  0  0  0
 12  2  1  0  0  0  0
 12  1  1  0  0  0  0
 13  2  1  0  0  0  0
 13 11  1  0  0  0  0
 14  7  1  0  0  0  0
 17 26  2  0  0  0  0
 18 25  2  0  0  0  0
 18 17  1  0  0  0  0
 19 21  1  0  0  0  0
 20 21  1  0  0  0  0
 21 17  1  0  0  0  0
 21 15  1  0  0  0  0
 22 18  1  0  0  0  0
 23 19  2  0  0  0  0
 23 22  1  0  0  0  0
 24 16  2  0  0  0  0
 25 24  1  0  0  0  0
 26 16  1  0  0  0  0
 28 27  1  0  0  0  0
 28 19  1  0  0  0  0
 29 30  1  0  0  0  0
 29 31  1  0  0  0  0
 31 33  1  0  0  0  0
 33 32  1  0  0  0  0
 33 36  1  0  0  0  0
 34 37  2  0  0  0  0
 35 34  1  0  0  0  0
 36 34  1  0  0  0  0
 38 11  1  0  0  0  0
 39 43  1  0  0  0  0
 39 38  1  0  0  0  0
 40 44  1  0  0  0  0
 40 45  2  0  0  0  0
 41 43  2  0  0  0  0
 41 42  1  0  0  0  0
 44 39  2  0  0  0  0
 45 41  1  0  0  0  0
M  END
>  <MODEL>
7

>  <REMARK>
 VINA RESULT:      -7.4      3.638      9.555
  Name = 
  8 active torsions:
  status: ('A' for Active; 'I' for Inactive)
    1  A    between atoms: C_3  and  C_19
    2  A    between atoms: C_4  and  C_36
    3  A    between atoms: C_12  and  C_34
    4  A    between atoms: C_12  and  C_41
    5  A    between atoms: C_18  and  C_34
    6  A    between atoms: C_19  and  N_25
    7  A    between atoms: C_22  and  O_38
    8  A    between atoms: N_32  and  C_41
                            x       y       z     vdW  Elec       q    Type
                         _______ _______ _______ _____ _____    ______ ____

>  <TORSDO>
F 8

$$$$
=
 OpenBabel10232408313D

 45 50  0  0  1  0  0  0  0  0999 V2000
  190.7150  176.9140  137.8720 C   0  0  2  0  0  3  0  0  0  0  0  0
  189.3050  178.6910  136.6410 C   0  0  0  0  0  2  0  0  0  0  0  0
  187.5090  177.6650  138.8150 C   0  0  2  0  0  3  0  0  0  0  0  0
  189.8030  176.6750  139.1120 C   0  0  1  0  0  3  0  0  0  0  0  0
  186.9520  177.8610  140.2330 C   0  0  0  0  0  2  0  0  0  0  0  0
  190.5150  176.2090  140.2520 O   0  0  0  0  0  0  0  0  0  0  0  0
  188.8250  177.4080  141.8000 N   0  0  0  0  0  2  0  0  0  0  0  0
  188.9020  177.9190  139.3520 C   0  0  2  0  0  3  0  0  0  0  0  0
  190.2210  177.7930  142.0410 C   0  0  2  0  0  3  0  0  0  0  0  0
  191.1260  177.2980  140.9060 C   0  0  0  0  0  2  0  0  0  0  0  0
  187.1590  178.7880  137.9310 N   0  0  0  0  0  0  0  0  0  0  0  0
  189.8780  177.2720  136.6230 C   0  0  0  0  0  2  0  0  0  0  0  0
  187.7770  178.5880  136.6110 C   0  0  0  0  0  2  0  0  0  0  0  0
  188.3290  178.2580  140.7270 C   0  0  1  0  0  3  0  0  0  0  0  0
  194.8840  172.8340  135.1390 F   0  0  0  0  0  0  0  0  0  0  0  0
  191.2920  174.8440  136.5330 C   0  0  0  0  0  3  0  0  0  0  0  0
  193.4030  173.6700  136.7780 C   0  0  0  0  0  0  0  0  0  0  0  0
  193.8110  174.6270  137.7350 C   0  0  0  0  0  0  0  0  0  0  0  0
  195.4550  172.2910  137.3860 C   0  0  0  0  0  0  0  0  0  0  0  0
  193.4770  171.2710  136.2210 C   0  0  0  0  0  1  0  0  0  0  0  0
  194.3270  172.5350  136.3680 C   0  0  2  0  0  0  0  0  0  0  0  0
  195.2010  174.6140  138.2960 C   0  0  0  0  0  2  0  0  0  0  0  0
  195.8050  173.2420  138.2670 C   0  0  0  0  0  3  0  0  0  0  0  0
  191.6650  175.7640  137.5340 C   0  0  0  0  0  0  0  0  0  0  0  0
  192.9490  175.6620  138.0960 C   0  0  0  0  0  3  0  0  0  0  0  0
  192.1480  173.8110  136.1600 C   0  0  0  0  0  3  0  0  0  0  0  0
  197.5680  170.9990  137.0100 C   0  0  0  0  0  1  0  0  0  0  0  0
  196.2010  171.0970  137.4070 O   0  0  0  0  0  0  0  0  0  0  0  0
  190.6810  177.2950  143.4100 C   0  0  1  0  0  3  0  0  0  0  0  0
  191.9820  176.7790  143.3270 O   0  0  0  0  0  1  0  0  0  0  0  0
  190.5970  178.4190  144.4430 C   0  0  0  0  0  2  0  0  0  0  0  0
  190.6180  176.8920  146.3520 N   0  0  0  0  0  1  0  0  0  0  0  0
  189.9090  178.0130  145.7490 C   0  0  2  0  0  3  0  0  0  0  0  0
  187.5060  177.6630  146.5400 C   0  0  0  0  0  0  0  0  0  0  0  0
  187.8320  178.0890  147.9310 C   0  0  0  0  0  1  0  0  0  0  0  0
  188.5090  177.6640  145.5100 N   0  0  0  0  0  2  0  0  0  0  0  0
  186.3270  177.3090  146.2600 O   0  0  0  0  0  0  0  0  0  0  0  0
  185.7200  178.7250  137.6980 C   0  0  0  0  0  2  0  0  0  0  0  0
  185.3850  177.4440  137.0090 C   0  0  0  0  0  0  0  0  0  0  0  0
  185.4200  176.0500  135.0440 C   0  0  0  0  0  3  0  0  0  0  0  0
  184.6120  175.1980  137.1490 C   0  0  0  0  0  0  0  0  0  0  0  0
  184.1160  174.1790  137.8940 F   0  0  0  0  0  0  0  0  0  0  0  0
  184.8600  176.4130  137.7200 N   0  0  0  0  0  0  0  0  0  0  0  0
  185.6710  177.2850  135.6500 C   0  0  0  0  0  3  0  0  0  0  0  0
  184.8900  174.9970  135.7950 C   0  0  0  0  0  3  0  0  0  0  0  0
  1 24  1  6  0  0  0
  1  4  1  0  0  0  0
  3  8  1  0  0  0  0
  3  5  1  1  0  0  0
  4  8  1  0  0  0  0
  4  6  1  1  0  0  0
  5 14  1  0  0  0  0
  6 10  1  0  0  0  0
  7  9  1  0  0  0  0
  8 14  1  0  0  0  0
  9 29  1  0  0  0  0
 10  9  1  0  0  0  0
 11  3  1  0  0  0  0
 12  2  1  0  0  0  0
 12  1  1  0  0  0  0
 13  2  1  0  0  0  0
 13 11  1  0  0  0  0
 14  7  1  0  0  0  0
 15 21  1  0  0  0  0
 16 24  1  0  0  0  0
 17 18  2  0  0  0  0
 18 25  1  0  0  0  0
 18 22  1  0  0  0  0
 19 28  1  0  0  0  0
 19 23  2  0  0  0  0
 20 21  1  0  0  0  0
 21 17  1  0  0  0  0
 21 19  1  0  0  0  0
 23 22  1  0  0  0  0
 24 25  2  0  0  0  0
 26 16  2  0  0  0  0
 26 17  1  0  0  0  0
 27 28  1  0  0  0  0
 29 31  1  0  0  0  0
 30 29  1  0  0  0  0
 31 33  1  0  0  0  0
 33 32  1  0  0  0  0
 34 35  1  0  0  0  0
 36 33  1  0  0  0  0
 36 34  1  0  0  0  0
 37 34  2  0  0  0  0
 38 11  1  0  0  0  0
 39 38  1  0  0  0  0
 39 43  1  0  0  0  0
 40 44  1  0  0  0  0
 40 45  2  0  0  0  0
 41 43  2  0  0  0  0
 41 42  1  0  0  0  0
 44 39  2  0  0  0  0
 45 41  1  0  0  0  0
M  END
>  <MODEL>
8

>  <REMARK>
 VINA RESULT:      -7.4      3.426      9.239
  Name = 
  8 active torsions:
  status: ('A' for Active; 'I' for Inactive)
    1  A    between atoms: C_3  and  C_19
    2  A    between atoms: C_4  and  C_36
    3  A    between atoms: C_12  and  C_34
    4  A    between atoms: C_12  and  C_41
    5  A    between atoms: C_18  and  C_34
    6  A    between atoms: C_19  and  N_25
    7  A    between atoms: C_22  and  O_38
    8  A    between atoms: N_32  and  C_41
                            x       y       z     vdW  Elec       q    Type
                         _______ _______ _______ _____ _____    ______ ____

>  <TORSDO>
F 8

$$$$
=
 OpenBabel10232408313D

 45 50  0  0  1  0  0  0  0  0999 V2000
  185.2210  178.9260  140.9810 C   0  0  2  0  0  3  0  0  0  0  0  0
  185.1480  179.7500  143.4250 C   0  0  0  0  0  2  0  0  0  0  0  0
  186.8210  177.2610  143.5110 C   0  0  2  0  0  3  0  0  0  0  0  0
  186.3200  177.8290  141.1110 C   0  0  1  0  0  3  0  0  0  0  0  0
  188.2300  176.6490  143.5090 C   0  0  0  0  0  2  0  0  0  0  0  0
  187.0110  177.5790  139.8930 O   0  0  0  0  0  0  0  0  0  0  0  0
  189.1470  176.9830  141.2250 N   0  0  0  0  0  2  0  0  0  0  0  0
  187.2240  178.1330  142.3390 C   0  0  2  0  0  3  0  0  0  0  0  0
  189.3490  178.0410  140.2270 C   0  0  2  0  0  3  0  0  0  0  0  0
  188.0050  178.5590  139.7020 C   0  0  0  0  0  2  0  0  0  0  0  0
  186.6100  178.1410  144.6710 N   0  0  0  0  0  0  0  0  0  0  0  0
  184.4020  179.0540  142.2850 C   0  0  0  0  0  2  0  0  0  0  0  0
  185.2770  178.7590  144.5850 C   0  0  0  0  0  2  0  0  0  0  0  0
  188.6630  177.6290  142.4360 C   0  0  1  0  0  3  0  0  0  0  0  0
  181.5300  179.6580  135.7520 F   0  0  0  0  0  0  0  0  0  0  0  0
  183.0190  179.4050  139.8270 C   0  0  0  0  0  3  0  0  0  0  0  0
  182.4890  178.5620  137.6120 C   0  0  0  0  0  0  0  0  0  0  0  0
  183.7650  177.9600  137.5490 C   0  0  0  0  0  0  0  0  0  0  0  0
  181.8700  177.3170  135.4800 C   0  0  0  0  0  0  0  0  0  0  0  0
  180.1170  178.2460  137.0190 C   0  0  0  0  0  1  0  0  0  0  0  0
  181.5190  178.4630  136.4450 C   0  0  2  0  0  0  0  0  0  0  0  0
  184.2430  177.2950  136.2920 C   0  0  0  0  0  2  0  0  0  0  0  0
  183.1050  176.7880  135.4570 C   0  0  0  0  0  3  0  0  0  0  0  0
  184.2670  178.7510  139.7980 C   0  0  0  0  0  0  0  0  0  0  0  0
  184.6400  178.0650  138.6290 C   0  0  0  0  0  3  0  0  0  0  0  0
  182.1410  179.3120  138.7500 C   0  0  0  0  0  3  0  0  0  0  0  0
  180.4720  175.4650  134.5360 C   0  0  0  0  0  1  0  0  0  0  0  0
  180.9450  176.8110  134.5470 O   0  0  0  0  0  0  0  0  0  0  0  0
  190.2600  177.5460  139.1050 C   0  0  1  0  0  3  0  0  0  0  0  0
  190.4270  176.1560  139.1950 O   0  0  0  0  0  1  0  0  0  0  0  0
  189.6960  177.9470  137.7430 C   0  0  0  0  0  2  0  0  0  0  0  0
  189.7950  177.1900  135.4200 N   0  0  0  0  0  1  0  0  0  0  0  0
  189.4950  176.7710  136.7820 C   0  0  2  0  0  3  0  0  0  0  0  0
  187.8070  174.8590  136.9240 C   0  0  0  0  0  0  0  0  0  0  0  0
  188.8810  173.8260  136.9570 C   0  0  0  0  0  1  0  0  0  0  0  0
  188.1260  176.2600  136.8710 N   0  0  0  0  0  2  0  0  0  0  0  0
  186.5980  174.4980  136.9580 O   0  0  0  0  0  0  0  0  0  0  0  0
  186.5680  177.2930  145.8570 C   0  0  0  0  0  2  0  0  0  0  0  0
  187.7310  177.6140  146.7360 C   0  0  0  0  0  0  0  0  0  0  0  0
  188.6200  178.3990  148.8340 C   0  0  0  0  0  3  0  0  0  0  0  0
  190.0740  177.5020  147.1340 C   0  0  0  0  0  0  0  0  0  0  0  0
  191.3140  177.1480  146.7120 F   0  0  0  0  0  0  0  0  0  0  0  0
  188.9890  177.2990  146.3310 N   0  0  0  0  0  0  0  0  0  0  0  0
  187.5210  178.1780  147.9970 C   0  0  0  0  0  3  0  0  0  0  0  0
  189.9060  178.0580  148.4040 C   0  0  0  0  0  3  0  0  0  0  0  0
  1 24  1  6  0  0  0
  1  4  1  0  0  0  0
  1 12  1  0  0  0  0
  2 13  1  0  0  0  0
  3  5  1  1  0  0  0
  3 11  1  0  0  0  0
  4  6  1  6  0  0  0
  4  8  1  0  0  0  0
  7 14  1  0  0  0  0
  8 14  1  0  0  0  0
  8  3  1  0  0  0  0
  9  7  1  0  0  0  0
 10  6  1  0  0  0  0
 10  9  1  0  0  0  0
 11 38  1  0  0  0  0
 12  2  1  0  0  0  0
 13 11  1  0  0  0  0
 14  5  1  0  0  0  0
 15 21  1  0  0  0  0
 17 26  1  0  0  0  0
 18 17  2  0  0  0  0
 18 25  1  0  0  0  0
 19 21  1  0  0  0  0
 21 20  1  0  0  0  0
 21 17  1  0  0  0  0
 22 18  1  0  0  0  0
 23 19  2  0  0  0  0
 23 22  1  0  0  0  0
 24 16  1  0  0  0  0
 25 24  2  0  0  0  0
 26 16  2  0  0  0  0
 27 28  1  0  0  0  0
 28 19  1  0  0  0  0
 29 30  1  0  0  0  0
 29  9  1  0  0  0  0
 31 29  1  0  0  0  0
 32 33  1  0  0  0  0
 33 36  1  0  0  0  0
 33 31  1  0  0  0  0
 34 35  1  0  0  0  0
 34 37  2  0  0  0  0
 36 34  1  0  0  0  0
 38 39  1  0  0  0  0
 39 44  1  0  0  0  0
 41 45  2  0  0  0  0
 42 41  1  0  0  0  0
 43 39  2  0  0  0  0
 43 41  1  0  0  0  0
 44 40  2  0  0  0  0
 45 40  1  0  0  0  0
M  END
>  <MODEL>
9

>  <REMARK>
 VINA RESULT:      -7.3      3.962      9.383
  Name = 
  8 active torsions:
  status: ('A' for Active; 'I' for Inactive)
    1  A    between atoms: C_3  and  C_19
    2  A    between atoms: C_4  and  C_36
    3  A    between atoms: C_12  and  C_34
    4  A    between atoms: C_12  and  C_41
    5  A    between atoms: C_18  and  C_34
    6  A    between atoms: C_19  and  N_25
    7  A    between atoms: C_22  and  O_38
    8  A    between atoms: N_32  and  C_41
                            x       y       z     vdW  Elec       q    Type
                         _______ _______ _______ _____ _____    ______ ____

>  <TORSDO>
F 8

$$$$
