=
 OpenBabel10232411473D

 47 55  0  0  1  0  0  0  0  0999 V2000
  189.6120  177.4480  137.1490 C   0  0  2  0  0  3  0  0  0  0  0  0
  185.5440  177.5420  137.0320 C   0  0  2  0  0  3  0  0  0  0  0  0
  189.2540  178.7650  136.4750 C   0  0  0  0  0  2  0  0  0  0  0  0
  186.0620  174.2840  136.7170 C   0  0  0  0  0  0  0  0  0  0  0  0
  184.7440  175.0740  136.7230 C   0  0  2  0  0  3  0  0  0  0  0  0
  184.1790  175.2190  135.3350 C   0  0  0  0  0  3  0  0  0  0  0  0
  181.9730  175.2990  136.2560 C   0  0  0  0  0  2  0  0  0  0  0  0
  186.8770  176.9840  136.9800 N   0  0  0  0  0  0  0  0  0  0  0  0
  187.2710  174.8010  136.2310 C   0  0  0  0  0  0  0  0  0  0  0  0
  189.5540  174.9300  136.4520 C   0  0  0  0  0  0  0  0  0  0  0  0
  183.2360  176.9430  137.7290 C   0  0  0  0  0  3  0  0  0  0  0  0
  185.9190  178.6230  138.0350 C   0  0  0  0  0  2  0  0  0  0  0  0
  187.4130  177.2020  139.4120 C   0  0  0  0  0  2  0  0  0  0  0  0
  188.4480  172.8020  136.9230 N   0  0  0  0  0  0  0  0  0  0  0  0
  182.9110  175.3450  135.1540 N   0  0  0  0  0  0  0  0  0  0  0  0
  187.6530  176.1010  136.2640 C   0  0  0  0  0  0  0  0  0  0  0  0
  189.1970  178.8780  139.0730 N   0  0  0  0  0  2  0  0  0  0  0  0
  189.0110  176.2260  136.4340 C   0  0  0  0  0  0  0  0  0  0  0  0
  188.4840  174.0470  136.3880 C   0  0  0  0  0  0  0  0  0  0  0  0
  188.5990  178.4630  137.8170 C   0  0  2  0  0  0  0  0  0  0  0  0
  188.6200  177.9260  140.0390 C   0  0  1  0  0  3  0  0  0  0  0  0
  187.2440  172.2760  137.2930 C   0  0  0  0  0  3  0  0  0  0  0  0
  182.1040  176.4970  137.1580 C   0  0  0  0  0  3  0  0  0  0  0  0
  187.2160  177.8750  138.0640 C   0  0  1  0  0  0  0  0  0  0  0  0
  186.0850  173.0050  137.1920 N   0  0  0  0  0  2  0  0  0  0  0  0
  184.6410  176.4070  137.5590 C   0  0  2  0  0  3  0  0  0  0  0  0
  191.5820  173.5120  136.6010 C   0  0  0  0  0  1  0  0  0  0  0  0
  190.7760  174.6050  137.1160 N   0  0  0  0  0  0  0  0  0  0  0  0
  191.4170  175.5840  137.9820 C   0  0  0  0  0  2  0  0  0  0  0  0
  192.8700  175.5030  137.8580 N   0  0  0  0  0  0  0  0  0  0  0  0
  193.3070  176.6190  137.0760 C   0  0  1  0  0  3  0  0  0  0  0  0
  193.3910  176.6870  138.4900 N   0  0  0  0  0  2  0  0  0  0  0  0
  194.4480  175.3230  135.4840 C   0  0  0  0  0  1  0  0  0  0  0  0
  195.0710  177.4480  135.9110 O   0  0  0  0  0  1  0  0  0  0  0  0
  194.6210  176.3270  136.5230 N   0  0  0  0  0  0  0  0  0  0  0  0
  188.2690  178.5890  141.3730 C   0  0  0  0  0  2  0  0  0  0  0  0
  188.7440  177.8080  142.5230 N   0  0  0  0  0  0  0  0  0  0  0  0
  189.8660  176.9200  142.1360 C   0  0  2  0  0  3  0  0  0  0  0  0
  189.8030  175.5900  142.8830 C   0  0  0  0  0  1  0  0  0  0  0  0
  191.2270  177.5230  142.3800 C   0  0  0  0  0  0  0  0  0  0  0  0
  191.9510  177.8070  141.4400 O   0  0  0  0  0  0  0  0  0  0  0  0
  191.4250  179.3650  143.9470 N   0  0  0  0  0  1  0  0  0  0  0  0
  191.6170  177.9350  143.7680 C   0  0  0  0  0  2  0  0  0  0  0  0
  187.6420  177.0030  143.1000 C   0  0  0  0  0  2  0  0  0  0  0  0
  187.1100  177.4870  144.4630 C   0  0  0  0  0  2  0  0  0  0  0  0
  187.6910  177.7760  146.8620 C   0  0  0  0  0  1  0  0  0  0  0  0
  188.2310  177.8060  145.4440 C   0  0  0  0  0  2  0  0  0  0  0  0
  1  3  1  6  0  0  0
  1 20  1  0  0  0  0
  2 26  1  0  0  0  0
  2 12  1  1  0  0  0
  4  5  1  0  0  0  0
  4 25  1  0  0  0  0
  5  6  1  6  0  0  0
  5 26  1  0  0  0  0
  7 23  1  0  0  0  0
  8  2  1  0  0  0  0
  8 24  1  0  0  0  0
  9 16  1  0  0  0  0
  9 19  1  0  0  0  0
  9  4  2  0  0  0  0
 10 28  1  0  0  0  0
 13 21  1  0  0  0  0
 14 22  2  0  0  0  0
 15  6  2  0  0  0  0
 15  7  1  0  0  0  0
 16 18  2  0  0  0  0
 16  8  1  0  0  0  0
 17 21  1  0  0  0  0
 18 10  1  0  0  0  0
 18  1  1  0  0  0  0
 19 10  2  0  0  0  0
 19 14  1  0  0  0  0
 20  3  1  6  0  0  0
 20 24  1  0  0  0  0
 20 17  1  0  0  0  0
 21 36  1  1  0  0  0
 23 11  2  0  0  0  0
 24 12  1  1  0  0  0
 24 13  1  0  0  0  0
 25 22  1  0  0  0  0
 26 11  1  6  0  0  0
 27 28  1  0  0  0  0
 28 29  1  0  0  0  0
 30 29  1  0  0  0  0
 30 32  1  0  0  0  0
 31 35  1  6  0  0  0
 31 30  1  0  0  0  0
 31 32  1  0  0  0  0
 33 35  1  0  0  0  0
 34 35  1  0  0  0  0
 36 37  1  0  0  0  0
 37 44  1  0  0  0  0
 38 40  1  0  0  0  0
 38 37  1  0  0  0  0
 38 39  1  1  0  0  0
 40 43  1  0  0  0  0
 41 40  2  0  0  0  0
 43 42  1  0  0  0  0
 44 45  1  0  0  0  0
 45 47  1  0  0  0  0
 47 46  1  0  0  0  0
M  END
>  <MODEL>
1

>  <REMARK>
 VINA RESULT:      -7.4      0.000      0.000
  Name = 
  12 active torsions:
  status: ('A' for Active; 'I' for Inactive)
    1  A    between atoms: C_1  and  C_5
    2  A    between atoms: C_1  and  N_15
    3  A    between atoms: C_2  and  N_15
    4  A    between atoms: C_2  and  C_23
    5  A    between atoms: C_5  and  C_42
    6  A    between atoms: C_7  and  C_23
    7  A    between atoms: N_12  and  C_45
    8  A    between atoms: N_15  and  C_41
    9  A    between atoms: C_19  and  N_38
   10  A    between atoms: C_24  and  N_36
   11  A    between atoms: N_36  and  C_45
   12  A    between atoms: C_39  and  C_41
                            x       y       z     vdW  Elec       q    Type
                         _______ _______ _______ _____ _____    ______ ____

>  <TORSDO>
F 12

$$$$
=
 OpenBabel10232411473D

 47 55  0  0  1  0  0  0  0  0999 V2000
  188.0530  177.5790  136.1930 C   0  0  2  0  0  3  0  0  0  0  0  0
  184.2850  177.6390  137.7320 C   0  0  2  0  0  3  0  0  0  0  0  0
  187.4660  178.9220  135.7810 C   0  0  0  0  0  2  0  0  0  0  0  0
  184.6000  174.4040  137.0870 C   0  0  0  0  0  0  0  0  0  0  0  0
  183.4050  175.1800  137.6590 C   0  0  2  0  0  3  0  0  0  0  0  0
  182.3290  175.3830  136.6260 C   0  0  0  0  0  3  0  0  0  0  0  0
  180.6830  175.3990  138.3610 C   0  0  0  0  0  2  0  0  0  0  0  0
  185.4780  177.0960  137.1210 N   0  0  0  0  0  0  0  0  0  0  0  0
  185.5150  174.9540  136.1780 C   0  0  0  0  0  0  0  0  0  0  0  0
  187.6940  175.0950  135.4650 C   0  0  0  0  0  0  0  0  0  0  0  0
  182.4480  176.9870  139.2730 C   0  0  0  0  0  3  0  0  0  0  0  0
  185.0430  178.6770  138.5470 C   0  0  0  0  0  2  0  0  0  0  0  0
  186.9520  177.2090  139.1380 C   0  0  0  0  0  2  0  0  0  0  0  0
  186.8520  172.9370  136.2440 N   0  0  0  0  0  0  0  0  0  0  0  0
  181.0970  175.5040  136.9770 N   0  0  0  0  0  0  0  0  0  0  0  0
  185.8910  176.2540  136.1140 C   0  0  0  0  0  0  0  0  0  0  0  0
  188.4640  178.9160  138.1840 N   0  0  0  0  0  2  0  0  0  0  0  0
  187.2030  176.3840  135.7260 C   0  0  0  0  0  0  0  0  0  0  0  0
  186.6810  174.2050  135.7970 C   0  0  0  0  0  0  0  0  0  0  0  0
  187.4060  178.5530  137.2590 C   0  0  2  0  0  0  0  0  0  0  0  0
  188.3160  177.9150  139.2560 C   0  0  1  0  0  3  0  0  0  0  0  0
  185.8950  172.3830  137.0440 C   0  0  0  0  0  3  0  0  0  0  0  0
  181.1790  176.5560  139.1870 C   0  0  0  0  0  3  0  0  0  0  0  0
  186.2340  177.9410  138.0150 C   0  0  1  0  0  0  0  0  0  0  0  0
  184.8010  173.1050  137.4530 N   0  0  0  0  0  2  0  0  0  0  0  0
  183.6610  176.4720  138.5260 C   0  0  2  0  0  3  0  0  0  0  0  0
  189.8730  174.6950  134.3490 C   0  0  0  0  0  1  0  0  0  0  0  0
  189.0780  174.7510  135.5630 N   0  0  0  0  0  0  0  0  0  0  0  0
  189.7730  174.8890  136.8350 C   0  0  0  0  0  2  0  0  0  0  0  0
  191.2120  174.7280  136.6510 N   0  0  0  0  0  0  0  0  0  0  0  0
  191.8720  175.5260  137.6400 C   0  0  1  0  0  3  0  0  0  0  0  0
  191.7060  174.1360  137.8680 N   0  0  0  0  0  2  0  0  0  0  0  0
  193.2180  175.9320  135.7580 C   0  0  0  0  0  1  0  0  0  0  0  0
  193.6060  176.9900  137.7120 O   0  0  0  0  0  1  0  0  0  0  0  0
  193.2360  175.7900  137.2060 N   0  0  0  0  0  0  0  0  0  0  0  0
  188.5390  178.5120  140.6470 C   0  0  0  0  0  2  0  0  0  0  0  0
  188.0940  177.6090  141.7170 N   0  0  0  0  0  0  0  0  0  0  0  0
  187.3940  178.3580  142.7870 C   0  0  2  0  0  3  0  0  0  0  0  0
  187.2860  177.5290  144.0650 C   0  0  0  0  0  1  0  0  0  0  0  0
  186.0040  178.8020  142.4050 C   0  0  0  0  0  0  0  0  0  0  0  0
  185.8450  179.7330  141.6330 O   0  0  0  0  0  0  0  0  0  0  0  0
  183.5930  178.5460  142.2940 N   0  0  0  0  0  1  0  0  0  0  0  0
  184.8210  177.9870  142.8350 C   0  0  0  0  0  2  0  0  0  0  0  0
  189.2450  176.8720  142.2900 C   0  0  0  0  0  2  0  0  0  0  0  0
  190.6250  177.5210  142.0700 C   0  0  0  0  0  2  0  0  0  0  0  0
  190.9520  179.0960  143.9650 C   0  0  0  0  0  1  0  0  0  0  0  0
  191.3690  177.7610  143.3770 C   0  0  0  0  0  2  0  0  0  0  0  0
  1  3  1  6  0  0  0
  1 20  1  0  0  0  0
  2 26  1  0  0  0  0
  2 12  1  1  0  0  0
  4 25  1  0  0  0  0
  4  5  1  0  0  0  0
  5  6  1  6  0  0  0
  5 26  1  0  0  0  0
  6 15  2  0  0  0  0
  7 23  1  0  0  0  0
  8  2  1  0  0  0  0
  8 24  1  0  0  0  0
  9  4  2  0  0  0  0
 10 28  1  0  0  0  0
 10 18  1  0  0  0  0
 10 19  2  0  0  0  0
 13 21  1  0  0  0  0
 14 22  2  0  0  0  0
 15  7  1  0  0  0  0
 16  9  1  0  0  0  0
 16  8  1  0  0  0  0
 17 21  1  0  0  0  0
 18 16  2  0  0  0  0
 18  1  1  0  0  0  0
 19  9  1  0  0  0  0
 19 14  1  0  0  0  0
 20  3  1  6  0  0  0
 20 24  1  0  0  0  0
 20 17  1  0  0  0  0
 21 36  1  1  0  0  0
 22 25  1  0  0  0  0
 23 11  2  0  0  0  0
 24 12  1  1  0  0  0
 24 13  1  0  0  0  0
 26 11  1  6  0  0  0
 27 28  1  0  0  0  0
 28 29  1  0  0  0  0
 30 29  1  0  0  0  0
 30 31  1  0  0  0  0
 30 32  1  0  0  0  0
 31 35  1  6  0  0  0
 31 32  1  0  0  0  0
 33 35  1  0  0  0  0
 35 34  1  0  0  0  0
 36 37  1  0  0  0  0
 37 44  1  0  0  0  0
 37 38  1  0  0  0  0
 38 39  1  1  0  0  0
 40 38  1  0  0  0  0
 40 43  1  0  0  0  0
 41 40  2  0  0  0  0
 42 43  1  0  0  0  0
 45 44  1  0  0  0  0
 45 47  1  0  0  0  0
 47 46  1  0  0  0  0
M  END
>  <MODEL>
2

>  <REMARK>
 VINA RESULT:      -6.8      1.843      2.851
  Name = 
  12 active torsions:
  status: ('A' for Active; 'I' for Inactive)
    1  A    between atoms: C_1  and  C_5
    2  A    between atoms: C_1  and  N_15
    3  A    between atoms: C_2  and  N_15
    4  A    between atoms: C_2  and  C_23
    5  A    between atoms: C_5  and  C_42
    6  A    between atoms: C_7  and  C_23
    7  A    between atoms: N_12  and  C_45
    8  A    between atoms: N_15  and  C_41
    9  A    between atoms: C_19  and  N_38
   10  A    between atoms: C_24  and  N_36
   11  A    between atoms: N_36  and  C_45
   12  A    between atoms: C_39  and  C_41
                            x       y       z     vdW  Elec       q    Type
                         _______ _______ _______ _____ _____    ______ ____

>  <TORSDO>
F 12

$$$$
=
 OpenBabel10232411473D

 47 55  0  0  1  0  0  0  0  0999 V2000
  189.5530  177.7760  136.9150 C   0  0  2  0  0  3  0  0  0  0  0  0
  185.5150  177.2670  136.9760 C   0  0  2  0  0  3  0  0  0  0  0  0
  188.9730  179.0460  136.3080 C   0  0  0  0  0  2  0  0  0  0  0  0
  186.4910  174.1340  136.5150 C   0  0  0  0  0  0  0  0  0  0  0  0
  185.0730  174.7190  136.6070 C   0  0  2  0  0  3  0  0  0  0  0  0
  184.4270  174.8220  135.2510 C   0  0  0  0  0  3  0  0  0  0  0  0
  182.2800  174.5430  136.2680 C   0  0  0  0  0  2  0  0  0  0  0  0
  186.9120  176.9150  136.8460 N   0  0  0  0  0  0  0  0  0  0  0  0
  187.5860  174.8400  135.9970 C   0  0  0  0  0  0  0  0  0  0  0  0
  189.8330  175.3010  136.1250 C   0  0  0  0  0  0  0  0  0  0  0  0
  183.3560  176.3100  137.7470 C   0  0  0  0  0  3  0  0  0  0  0  0
  185.7740  178.3600  138.0030 C   0  0  0  0  0  2  0  0  0  0  0  0
  187.5250  177.1340  139.2600 C   0  0  0  0  0  2  0  0  0  0  0  0
  189.0760  173.0180  136.5610 N   0  0  0  0  0  0  0  0  0  0  0  0
  183.1470  174.7630  135.1290 N   0  0  0  0  0  0  0  0  0  0  0  0
  187.7740  176.1810  136.0640 C   0  0  0  0  0  0  0  0  0  0  0  0
  189.0250  179.0670  138.9090 N   0  0  0  0  0  2  0  0  0  0  0  0
  189.1050  176.5010  136.1800 C   0  0  0  0  0  0  0  0  0  0  0  0
  188.9030  174.2700  136.0730 C   0  0  0  0  0  0  0  0  0  0  0  0
  188.4350  178.6080  137.6650 C   0  0  2  0  0  0  0  0  0  0  0  0
  188.6420  178.0090  139.8610 C   0  0  1  0  0  3  0  0  0  0  0  0
  187.9820  172.3070  136.9620 C   0  0  0  0  0  3  0  0  0  0  0  0
  182.2770  175.7190  137.2090 C   0  0  0  0  0  3  0  0  0  0  0  0
  187.1670  177.8130  137.9480 C   0  0  1  0  0  0  0  0  0  0  0  0
  186.7250  172.8590  136.9390 N   0  0  0  0  0  2  0  0  0  0  0  0
  184.8150  175.9940  137.4970 C   0  0  2  0  0  3  0  0  0  0  0  0
  191.2210  175.1180  138.1730 C   0  0  0  0  0  1  0  0  0  0  0  0
  191.1210  175.1400  136.7240 N   0  0  0  0  0  0  0  0  0  0  0  0
  192.2180  174.5780  135.9500 C   0  0  0  0  0  2  0  0  0  0  0  0
  193.4800  175.2140  136.3150 N   0  0  0  0  0  0  0  0  0  0  0  0
  194.2850  174.2370  136.9830 C   0  0  1  0  0  3  0  0  0  0  0  0
  194.5080  174.4960  135.6070 N   0  0  0  0  0  2  0  0  0  0  0  0
  195.7800  173.9770  138.7770 C   0  0  0  0  0  1  0  0  0  0  0  0
  196.3440  175.1960  136.9650 O   0  0  0  0  0  1  0  0  0  0  0  0
  195.2970  174.9180  137.7780 N   0  0  0  0  0  0  0  0  0  0  0  0
  188.2610  178.5700  141.2330 C   0  0  0  0  0  2  0  0  0  0  0  0
  187.6800  177.5440  142.1110 N   0  0  0  0  0  0  0  0  0  0  0  0
  186.8910  178.1630  143.2020 C   0  0  2  0  0  3  0  0  0  0  0  0
  187.0280  177.3730  144.5020 C   0  0  0  0  0  1  0  0  0  0  0  0
  185.4200  178.2870  142.8900 C   0  0  0  0  0  0  0  0  0  0  0  0
  184.5880  178.1030  143.7630 O   0  0  0  0  0  0  0  0  0  0  0  0
  183.8530  178.0480  141.0530 N   0  0  0  0  0  1  0  0  0  0  0  0
  184.9880  178.8080  141.5520 C   0  0  0  0  0  2  0  0  0  0  0  0
  188.7420  176.6840  142.6830 C   0  0  0  0  0  2  0  0  0  0  0  0
  190.1740  177.2460  142.5870 C   0  0  0  0  0  2  0  0  0  0  0  0
  190.8850  179.1710  143.9880 C   0  0  0  0  0  1  0  0  0  0  0  0
  190.7280  177.6630  143.9430 C   0  0  0  0  0  2  0  0  0  0  0  0
  1  3  1  6  0  0  0
  1 20  1  0  0  0  0
  2 26  1  0  0  0  0
  2 12  1  1  0  0  0
  4  5  1  0  0  0  0
  4 25  1  0  0  0  0
  5  6  1  6  0  0  0
  5 26  1  0  0  0  0
  7 23  1  0  0  0  0
  8  2  1  0  0  0  0
  8 24  1  0  0  0  0
  9 16  1  0  0  0  0
  9 19  1  0  0  0  0
  9  4  2  0  0  0  0
 10 18  1  0  0  0  0
 10 28  1  0  0  0  0
 13 21  1  0  0  0  0
 14 22  2  0  0  0  0
 15  6  2  0  0  0  0
 15  7  1  0  0  0  0
 16 18  2  0  0  0  0
 16  8  1  0  0  0  0
 17 21  1  0  0  0  0
 18  1  1  0  0  0  0
 19 10  2  0  0  0  0
 19 14  1  0  0  0  0
 20  3  1  6  0  0  0
 20 24  1  0  0  0  0
 20 17  1  0  0  0  0
 21 36  1  1  0  0  0
 23 11  2  0  0  0  0
 24 12  1  1  0  0  0
 24 13  1  0  0  0  0
 25 22  1  0  0  0  0
 26 11  1  6  0  0  0
 28 27  1  0  0  0  0
 29 30  1  0  0  0  0
 29 28  1  0  0  0  0
 30 31  1  0  0  0  0
 31 35  1  1  0  0  0
 32 30  1  0  0  0  0
 32 31  1  0  0  0  0
 34 35  1  0  0  0  0
 35 33  1  0  0  0  0
 36 37  1  0  0  0  0
 37 44  1  0  0  0  0
 37 38  1  0  0  0  0
 38 39  1  1  0  0  0
 40 38  1  0  0  0  0
 40 41  2  0  0  0  0
 42 43  1  0  0  0  0
 43 40  1  0  0  0  0
 45 44  1  0  0  0  0
 45 47  1  0  0  0  0
 47 46  1  0  0  0  0
M  END
>  <MODEL>
3

>  <REMARK>
 VINA RESULT:      -6.7      1.826      2.726
  Name = 
  12 active torsions:
  status: ('A' for Active; 'I' for Inactive)
    1  A    between atoms: C_1  and  C_5
    2  A    between atoms: C_1  and  N_15
    3  A    between atoms: C_2  and  N_15
    4  A    between atoms: C_2  and  C_23
    5  A    between atoms: C_5  and  C_42
    6  A    between atoms: C_7  and  C_23
    7  A    between atoms: N_12  and  C_45
    8  A    between atoms: N_15  and  C_41
    9  A    between atoms: C_19  and  N_38
   10  A    between atoms: C_24  and  N_36
   11  A    between atoms: N_36  and  C_45
   12  A    between atoms: C_39  and  C_41
                            x       y       z     vdW  Elec       q    Type
                         _______ _______ _______ _____ _____    ______ ____

>  <TORSDO>
F 12

$$$$
=
 OpenBabel10232411473D

 47 55  0  0  1  0  0  0  0  0999 V2000
  183.3130  179.1690  139.8700 C   0  0  2  0  0  3  0  0  0  0  0  0
  185.9000  177.8260  137.0280 C   0  0  2  0  0  3  0  0  0  0  0  0
  182.9400  179.9140  138.5950 C   0  0  0  0  0  2  0  0  0  0  0  0
  187.8410  177.6600  139.7090 C   0  0  0  0  0  0  0  0  0  0  0  0
  188.1610  177.3350  138.2420 C   0  0  2  0  0  3  0  0  0  0  0  0
  188.9750  178.4250  137.5970 C   0  0  0  0  0  3  0  0  0  0  0  0
  189.9700  176.8060  136.1460 C   0  0  0  0  0  2  0  0  0  0  0  0
  185.4360  178.2450  138.3320 N   0  0  0  0  0  0  0  0  0  0  0  0
  186.9190  178.6410  140.1000 C   0  0  0  0  0  0  0  0  0  0  0  0
  185.2850  179.2890  141.5800 C   0  0  0  0  0  0  0  0  0  0  0  0
  187.4960  176.2410  135.9740 C   0  0  0  0  0  3  0  0  0  0  0  0
  184.5510  177.2600  136.6100 C   0  0  0  0  0  2  0  0  0  0  0  0
  183.9880  176.2640  138.8100 C   0  0  0  0  0  2  0  0  0  0  0  0
  187.2090  178.0430  142.4270 N   0  0  0  0  0  0  0  0  0  0  0  0
  189.7750  178.1580  136.6250 N   0  0  0  0  0  0  0  0  0  0  0  0
  185.8040  179.0040  139.4190 C   0  0  0  0  0  0  0  0  0  0  0  0
  181.8750  177.5460  138.7660 N   0  0  0  0  0  2  0  0  0  0  0  0
  184.7860  179.3650  140.2690 C   0  0  0  0  0  0  0  0  0  0  0  0
  186.5780  178.7880  141.4880 C   0  0  0  0  0  0  0  0  0  0  0  0
  183.0280  178.3940  138.5210 C   0  0  2  0  0  0  0  0  0  0  0  0
  182.4910  176.2710  139.1740 C   0  0  1  0  0  3  0  0  0  0  0  0
  188.1810  177.1680  142.0330 C   0  0  0  0  0  3  0  0  0  0  0  0
  188.7390  176.2660  135.4660 C   0  0  0  0  0  3  0  0  0  0  0  0
  184.2030  177.5550  138.0370 C   0  0  1  0  0  0  0  0  0  0  0  0
  188.4810  176.9840  140.7060 N   0  0  0  0  0  2  0  0  0  0  0  0
  187.0180  176.7970  137.2980 C   0  0  2  0  0  3  0  0  0  0  0  0
  183.4720  177.9930  142.6670 C   0  0  0  0  0  1  0  0  0  0  0  0
  184.4550  179.0610  142.7200 N   0  0  0  0  0  0  0  0  0  0  0  0
  184.8610  179.5580  144.0270 C   0  0  0  0  0  2  0  0  0  0  0  0
  185.1540  178.4480  144.9290 N   0  0  0  0  0  0  0  0  0  0  0  0
  185.9490  178.9560  146.0050 C   0  0  1  0  0  3  0  0  0  0  0  0
  184.5530  178.7910  146.1920 N   0  0  0  0  0  2  0  0  0  0  0  0
  187.8570  177.5940  145.8490 C   0  0  0  0  0  1  0  0  0  0  0  0
  187.0740  178.2680  147.8540 O   0  0  0  0  0  1  0  0  0  0  0  0
  186.6590  177.8520  146.6340 N   0  0  0  0  0  0  0  0  0  0  0  0
  181.7520  175.0580  138.6040 C   0  0  0  0  0  2  0  0  0  0  0  0
  182.1230  174.7860  137.2090 N   0  0  0  0  0  0  0  0  0  0  0  0
  181.0040  175.1000  136.2900 C   0  0  2  0  0  3  0  0  0  0  0  0
  180.3760  173.8270  135.7260 C   0  0  0  0  0  1  0  0  0  0  0  0
  181.4020  175.9730  135.1260 C   0  0  0  0  0  0  0  0  0  0  0  0
  182.2770  175.6120  134.3570 O   0  0  0  0  0  0  0  0  0  0  0  0
  181.3240  178.3960  135.2240 N   0  0  0  0  0  1  0  0  0  0  0  0
  180.6020  177.2030  134.8140 C   0  0  0  0  0  2  0  0  0  0  0  0
  182.5290  173.3710  137.0430 C   0  0  0  0  0  2  0  0  0  0  0  0
  183.9780  173.1470  136.5690 C   0  0  0  0  0  2  0  0  0  0  0  0
  186.3590  172.8370  137.2110 C   0  0  0  0  0  1  0  0  0  0  0  0
  184.9310  172.8710  137.7250 C   0  0  0  0  0  2  0  0  0  0  0  0
  1  3  1  6  0  0  0
  1 18  1  0  0  0  0
  2 12  1  6  0  0  0
  2 26  1  0  0  0  0
  2  8  1  0  0  0  0
  4  9  2  0  0  0  0
  4 25  1  0  0  0  0
  5  6  1  6  0  0  0
  5  4  1  0  0  0  0
  7 15  1  0  0  0  0
  8 16  1  0  0  0  0
  9 19  1  0  0  0  0
 10 28  1  0  0  0  0
 13 21  1  0  0  0  0
 15  6  2  0  0  0  0
 16  9  1  0  0  0  0
 16 18  2  0  0  0  0
 17 21  1  0  0  0  0
 18 10  1  0  0  0  0
 19 10  2  0  0  0  0
 19 14  1  0  0  0  0
 20  3  1  6  0  0  0
 20 17  1  0  0  0  0
 20  1  1  0  0  0  0
 21 36  1  6  0  0  0
 22 14  2  0  0  0  0
 23 11  2  0  0  0  0
 23  7  1  0  0  0  0
 24 12  1  6  0  0  0
 24  8  1  0  0  0  0
 24 20  1  0  0  0  0
 24 13  1  0  0  0  0
 25 22  1  0  0  0  0
 26 11  1  6  0  0  0
 26  5  1  0  0  0  0
 27 28  1  0  0  0  0
 28 29  1  0  0  0  0
 29 30  1  0  0  0  0
 30 31  1  0  0  0  0
 30 32  1  0  0  0  0
 31 32  1  0  0  0  0
 31 35  1  1  0  0  0
 33 35  1  0  0  0  0
 35 34  1  0  0  0  0
 37 36  1  0  0  0  0
 38 39  1  6  0  0  0
 38 37  1  0  0  0  0
 40 38  1  0  0  0  0
 41 40  2  0  0  0  0
 43 40  1  0  0  0  0
 43 42  1  0  0  0  0
 44 37  1  0  0  0  0
 45 44  1  0  0  0  0
 45 47  1  0  0  0  0
 46 47  1  0  0  0  0
M  END
>  <MODEL>
4

>  <REMARK>
 VINA RESULT:      -6.2      3.395      8.742
  Name = 
  12 active torsions:
  status: ('A' for Active; 'I' for Inactive)
    1  A    between atoms: C_1  and  C_5
    2  A    between atoms: C_1  and  N_15
    3  A    between atoms: C_2  and  N_15
    4  A    between atoms: C_2  and  C_23
    5  A    between atoms: C_5  and  C_42
    6  A    between atoms: C_7  and  C_23
    7  A    between atoms: N_12  and  C_45
    8  A    between atoms: N_15  and  C_41
    9  A    between atoms: C_19  and  N_38
   10  A    between atoms: C_24  and  N_36
   11  A    between atoms: N_36  and  C_45
   12  A    between atoms: C_39  and  C_41
                            x       y       z     vdW  Elec       q    Type
                         _______ _______ _______ _____ _____    ______ ____

>  <TORSDO>
F 12

$$$$
=
 OpenBabel10232411473D

 47 55  0  0  1  0  0  0  0  0999 V2000
  186.5420  177.6200  136.9800 C   0  0  2  0  0  3  0  0  0  0  0  0
  190.1140  175.7860  136.3090 C   0  0  2  0  0  3  0  0  0  0  0  0
  186.8930  177.9290  135.5310 C   0  0  0  0  0  2  0  0  0  0  0  0
  190.4580  176.5840  139.5070 C   0  0  0  0  0  0  0  0  0  0  0  0
  191.4430  175.8880  138.5560 C   0  0  2  0  0  3  0  0  0  0  0  0
  192.5320  176.8240  138.1030 C   0  0  0  0  0  3  0  0  0  0  0  0
  194.0190  174.9650  137.8770 C   0  0  0  0  0  2  0  0  0  0  0  0
  189.0890  176.5110  137.0290 N   0  0  0  0  0  0  0  0  0  0  0  0
  189.5230  177.5400  139.0870 C   0  0  0  0  0  0  0  0  0  0  0  0
  187.4110  178.4170  139.3110 C   0  0  0  0  0  0  0  0  0  0  0  0
  191.9270  174.1330  136.6950 C   0  0  0  0  0  3  0  0  0  0  0  0
  189.1190  174.9930  135.4750 C   0  0  0  0  0  2  0  0  0  0  0  0
  187.4830  174.6150  137.3000 C   0  0  0  0  0  2  0  0  0  0  0  0
  188.5870  177.6600  141.3160 N   0  0  0  0  0  0  0  0  0  0  0  0
  193.6910  176.3710  137.7750 N   0  0  0  0  0  0  0  0  0  0  0  0
  188.9150  177.5810  137.8760 C   0  0  0  0  0  0  0  0  0  0  0  0
  185.7480  175.6150  135.8520 N   0  0  0  0  0  2  0  0  0  0  0  0
  187.6320  178.0660  137.9700 C   0  0  0  0  0  0  0  0  0  0  0  0
  188.5480  178.0410  140.0160 C   0  0  0  0  0  0  0  0  0  0  0  0
  186.9180  176.4680  135.9630 C   0  0  2  0  0  0  0  0  0  0  0  0
  186.0060  174.5770  136.8650 C   0  0  1  0  0  3  0  0  0  0  0  0
  189.5730  176.8110  141.7270 C   0  0  0  0  0  3  0  0  0  0  0  0
  193.2580  174.1350  136.8780 C   0  0  0  0  0  3  0  0  0  0  0  0
  188.1270  175.6460  136.3880 C   0  0  1  0  0  0  0  0  0  0  0  0
  190.4800  176.2870  140.8390 N   0  0  0  0  0  2  0  0  0  0  0  0
  190.8890  174.9930  137.3820 C   0  0  2  0  0  3  0  0  0  0  0  0
  185.9570  179.0590  141.2150 C   0  0  0  0  0  1  0  0  0  0  0  0
  186.1140  178.4420  139.9090 N   0  0  0  0  0  0  0  0  0  0  0  0
  184.9280  178.2700  139.0820 C   0  0  0  0  0  2  0  0  0  0  0  0
  183.9560  179.3250  139.3570 N   0  0  0  0  0  0  0  0  0  0  0  0
  182.8400  179.1310  138.4810 C   0  0  1  0  0  3  0  0  0  0  0  0
  182.7640  178.6590  139.8150 N   0  0  0  0  0  2  0  0  0  0  0  0
  180.9890  180.3260  139.2940 C   0  0  0  0  0  1  0  0  0  0  0  0
  182.9170  181.3800  138.7860 O   0  0  0  0  0  1  0  0  0  0  0  0
  182.1050  180.3820  138.3630 N   0  0  0  0  0  0  0  0  0  0  0  0
  185.5770  173.1850  136.3950 C   0  0  0  0  0  2  0  0  0  0  0  0
  184.2070  173.1750  135.8640 N   0  0  0  0  0  0  0  0  0  0  0  0
  183.2160  173.0210  136.9550 C   0  0  2  0  0  3  0  0  0  0  0  0
  182.7400  171.5740  137.0720 C   0  0  0  0  0  1  0  0  0  0  0  0
  181.9980  173.8960  136.7940 C   0  0  0  0  0  0  0  0  0  0  0  0
  181.0090  173.4750  136.2180 O   0  0  0  0  0  0  0  0  0  0  0  0
  182.9680  175.3000  138.5190 N   0  0  0  0  0  1  0  0  0  0  0  0
  181.9390  175.2200  137.4960 C   0  0  0  0  0  2  0  0  0  0  0  0
  184.0380  172.0850  134.8740 C   0  0  0  0  0  2  0  0  0  0  0  0
  185.3440  171.4590  134.3480 C   0  0  0  0  0  2  0  0  0  0  0  0
  186.7890  169.5400  134.9850 C   0  0  0  0  0  1  0  0  0  0  0  0
  185.3930  169.9510  134.5580 C   0  0  0  0  0  2  0  0  0  0  0  0
  1  3  1  6  0  0  0
  1 18  1  0  0  0  0
  2 12  1  6  0  0  0
  2  8  1  0  0  0  0
  2 26  1  0  0  0  0
  4 25  1  0  0  0  0
  5  6  1  6  0  0  0
  5  4  1  0  0  0  0
  8 16  1  0  0  0  0
  9  4  2  0  0  0  0
  9 19  1  0  0  0  0
 10 28  1  0  0  0  0
 10 19  2  0  0  0  0
 11 23  2  0  0  0  0
 14 22  2  0  0  0  0
 15  7  1  0  0  0  0
 15  6  2  0  0  0  0
 16 18  2  0  0  0  0
 16  9  1  0  0  0  0
 17 20  1  0  0  0  0
 17 21  1  0  0  0  0
 18 10  1  0  0  0  0
 19 14  1  0  0  0  0
 20  3  1  6  0  0  0
 20 24  1  0  0  0  0
 20  1  1  0  0  0  0
 21 36  1  6  0  0  0
 21 13  1  0  0  0  0
 23  7  1  0  0  0  0
 24 12  1  6  0  0  0
 24  8  1  0  0  0  0
 24 13  1  0  0  0  0
 25 22  1  0  0  0  0
 26 11  1  6  0  0  0
 26  5  1  0  0  0  0
 28 27  1  0  0  0  0
 29 30  1  0  0  0  0
 29 28  1  0  0  0  0
 30 32  1  0  0  0  0
 31 35  1  1  0  0  0
 31 30  1  0  0  0  0
 31 32  1  0  0  0  0
 35 34  1  0  0  0  0
 35 33  1  0  0  0  0
 37 36  1  0  0  0  0
 37 38  1  0  0  0  0
 38 39  1  6  0  0  0
 40 38  1  0  0  0  0
 40 43  1  0  0  0  0
 41 40  2  0  0  0  0
 43 42  1  0  0  0  0
 44 37  1  0  0  0  0
 45 47  1  0  0  0  0
 45 44  1  0  0  0  0
 47 46  1  0  0  0  0
M  END
>  <MODEL>
5

>  <REMARK>
 VINA RESULT:      -6.1      3.387      8.859
  Name = 
  12 active torsions:
  status: ('A' for Active; 'I' for Inactive)
    1  A    between atoms: C_1  and  C_5
    2  A    between atoms: C_1  and  N_15
    3  A    between atoms: C_2  and  N_15
    4  A    between atoms: C_2  and  C_23
    5  A    between atoms: C_5  and  C_42
    6  A    between atoms: C_7  and  C_23
    7  A    between atoms: N_12  and  C_45
    8  A    between atoms: N_15  and  C_41
    9  A    between atoms: C_19  and  N_38
   10  A    between atoms: C_24  and  N_36
   11  A    between atoms: N_36  and  C_45
   12  A    between atoms: C_39  and  C_41
                            x       y       z     vdW  Elec       q    Type
                         _______ _______ _______ _____ _____    ______ ____

>  <TORSDO>
F 12

$$$$
=
 OpenBabel10232411473D

 47 55  0  0  1  0  0  0  0  0999 V2000
  189.3390  178.1170  137.1040 C   0  0  2  0  0  3  0  0  0  0  0  0
  185.4380  178.3620  138.2440 C   0  0  2  0  0  3  0  0  0  0  0  0
  189.0810  179.5950  137.3590 C   0  0  0  0  0  2  0  0  0  0  0  0
  185.2700  175.8130  136.1330 C   0  0  0  0  0  0  0  0  0  0  0  0
  184.1550  176.5000  136.9350 C   0  0  2  0  0  3  0  0  0  0  0  0
  183.3230  177.4050  136.0660 C   0  0  0  0  0  3  0  0  0  0  0  0
  181.4390  177.0170  137.4860 C   0  0  0  0  0  2  0  0  0  0  0  0
  186.6000  177.8930  137.5220 N   0  0  0  0  0  0  0  0  0  0  0  0
  186.4090  176.4820  135.6630 C   0  0  0  0  0  0  0  0  0  0  0  0
  188.6660  176.4090  135.2430 C   0  0  0  0  0  0  0  0  0  0  0  0
  183.2820  177.5360  139.1590 C   0  0  0  0  0  3  0  0  0  0  0  0
  186.2230  178.6960  139.5040 C   0  0  0  0  0  2  0  0  0  0  0  0
  187.7090  176.7130  139.4270 C   0  0  0  0  0  2  0  0  0  0  0  0
  187.3300  174.4060  134.8270 N   0  0  0  0  0  0  0  0  0  0  0  0
  182.0910  177.6420  136.3550 N   0  0  0  0  0  0  0  0  0  0  0  0
  187.0180  177.5350  136.2600 C   0  0  0  0  0  0  0  0  0  0  0  0
  189.6430  178.2500  139.5150 N   0  0  0  0  0  2  0  0  0  0  0  0
  188.3780  177.5110  136.0660 C   0  0  0  0  0  0  0  0  0  0  0  0
  187.4680  175.7370  135.0400 C   0  0  0  0  0  0  0  0  0  0  0  0
  188.7080  178.6160  138.4660 C   0  0  2  0  0  0  0  0  0  0  0  0
  189.1390  176.9370  139.9560 C   0  0  1  0  0  3  0  0  0  0  0  0
  186.1680  173.7940  135.1970 C   0  0  0  0  0  3  0  0  0  0  0  0
  181.9880  177.5100  138.7980 C   0  0  0  0  0  3  0  0  0  0  0  0
  187.3350  178.0250  138.7580 C   0  0  1  0  0  0  0  0  0  0  0  0
  185.1690  174.4850  135.8360 N   0  0  0  0  0  2  0  0  0  0  0  0
  184.4900  177.1480  138.3330 C   0  0  2  0  0  3  0  0  0  0  0  0
  190.9700  176.2030  134.3480 C   0  0  0  0  0  1  0  0  0  0  0  0
  189.9290  175.7400  135.2480 N   0  0  0  0  0  0  0  0  0  0  0  0
  190.3190  174.9320  136.3950 C   0  0  0  0  0  2  0  0  0  0  0  0
  191.7740  174.8760  136.5090 N   0  0  0  0  0  0  0  0  0  0  0  0
  192.1200  175.2170  137.8560 C   0  0  1  0  0  3  0  0  0  0  0  0
  192.0590  173.8520  137.4800 N   0  0  0  0  0  2  0  0  0  0  0  0
  193.8900  176.0320  136.5420 C   0  0  0  0  0  1  0  0  0  0  0  0
  193.5730  176.7720  138.6490 O   0  0  0  0  0  1  0  0  0  0  0  0
  193.5100  175.6500  137.8940 N   0  0  0  0  0  0  0  0  0  0  0  0
  189.2280  176.7580  141.4730 C   0  0  0  0  0  2  0  0  0  0  0  0
  189.3840  178.0400  142.1750 N   0  0  0  0  0  0  0  0  0  0  0  0
  190.4010  177.9370  143.2480 C   0  0  2  0  0  3  0  0  0  0  0  0
  191.0400  179.2940  143.5380 C   0  0  0  0  0  1  0  0  0  0  0  0
  191.5090  176.9610  142.9400 C   0  0  0  0  0  0  0  0  0  0  0  0
  192.3040  177.1950  142.0450 O   0  0  0  0  0  0  0  0  0  0  0  0
  191.1540  176.0380  145.1560 N   0  0  0  0  0  1  0  0  0  0  0  0
  191.7390  175.7910  143.8480 C   0  0  0  0  0  2  0  0  0  0  0  0
  188.0910  178.4810  142.7490 C   0  0  0  0  0  2  0  0  0  0  0  0
  187.3260  177.4170  143.5580 C   0  0  0  0  0  2  0  0  0  0  0  0
  185.4140  178.2210  144.9260 C   0  0  0  0  0  1  0  0  0  0  0  0
  186.9020  177.9230  144.9310 C   0  0  0  0  0  2  0  0  0  0  0  0
  1  3  1  6  0  0  0
  1 20  1  0  0  0  0
  2 26  1  0  0  0  0
  2 12  1  1  0  0  0
  4  5  1  0  0  0  0
  5  6  1  6  0  0  0
  5 26  1  0  0  0  0
  6 15  2  0  0  0  0
  7 23  1  0  0  0  0
  8  2  1  0  0  0  0
  8 24  1  0  0  0  0
  9  4  2  0  0  0  0
  9 16  1  0  0  0  0
 10 28  1  0  0  0  0
 10 18  1  0  0  0  0
 13 21  1  0  0  0  0
 14 19  1  0  0  0  0
 14 22  2  0  0  0  0
 15  7  1  0  0  0  0
 16  8  1  0  0  0  0
 17 21  1  0  0  0  0
 18 16  2  0  0  0  0
 18  1  1  0  0  0  0
 19 10  2  0  0  0  0
 19  9  1  0  0  0  0
 20  3  1  6  0  0  0
 20 24  1  0  0  0  0
 20 17  1  0  0  0  0
 21 36  1  1  0  0  0
 22 25  1  0  0  0  0
 23 11  2  0  0  0  0
 24 13  1  1  0  0  0
 24 12  1  0  0  0  0
 25  4  1  0  0  0  0
 26 11  1  6  0  0  0
 27 28  1  0  0  0  0
 28 29  1  0  0  0  0
 29 30  1  0  0  0  0
 30 32  1  0  0  0  0
 30 31  1  0  0  0  0
 31 35  1  6  0  0  0
 32 31  1  0  0  0  0
 33 35  1  0  0  0  0
 35 34  1  0  0  0  0
 36 37  1  0  0  0  0
 37 44  1  0  0  0  0
 37 38  1  0  0  0  0
 38 39  1  6  0  0  0
 40 38  1  0  0  0  0
 40 43  1  0  0  0  0
 41 40  2  0  0  0  0
 43 42  1  0  0  0  0
 44 45  1  0  0  0  0
 45 47  1  0  0  0  0
 46 47  1  0  0  0  0
M  END
>  <MODEL>
6

>  <REMARK>
 VINA RESULT:      -6.1      1.565      2.035
  Name = 
  12 active torsions:
  status: ('A' for Active; 'I' for Inactive)
    1  A    between atoms: C_1  and  C_5
    2  A    between atoms: C_1  and  N_15
    3  A    between atoms: C_2  and  N_15
    4  A    between atoms: C_2  and  C_23
    5  A    between atoms: C_5  and  C_42
    6  A    between atoms: C_7  and  C_23
    7  A    between atoms: N_12  and  C_45
    8  A    between atoms: N_15  and  C_41
    9  A    between atoms: C_19  and  N_38
   10  A    between atoms: C_24  and  N_36
   11  A    between atoms: N_36  and  C_45
   12  A    between atoms: C_39  and  C_41
                            x       y       z     vdW  Elec       q    Type
                         _______ _______ _______ _____ _____    ______ ____

>  <TORSDO>
F 12

$$$$
=
 OpenBabel10232411473D

 47 55  0  0  1  0  0  0  0  0999 V2000
  189.5310  177.8980  137.1850 C   0  0  2  0  0  3  0  0  0  0  0  0
  185.5060  177.3250  136.9810 C   0  0  2  0  0  3  0  0  0  0  0  0
  188.9710  179.1640  136.5520 C   0  0  0  0  0  2  0  0  0  0  0  0
  186.5610  174.2120  136.5580 C   0  0  0  0  0  0  0  0  0  0  0  0
  185.1310  174.7730  136.5640 C   0  0  2  0  0  3  0  0  0  0  0  0
  184.5720  174.8780  135.1700 C   0  0  0  0  0  3  0  0  0  0  0  0
  182.3690  174.5560  136.0430 C   0  0  0  0  0  2  0  0  0  0  0  0
  186.9140  176.9960  136.9390 N   0  0  0  0  0  0  0  0  0  0  0  0
  187.6760  174.9400  136.1180 C   0  0  0  0  0  0  0  0  0  0  0  0
  189.9020  175.4350  136.3950 C   0  0  0  0  0  0  0  0  0  0  0  0
  183.3180  176.3260  137.6040 C   0  0  0  0  0  3  0  0  0  0  0  0
  185.6810  178.4120  138.0320 C   0  0  0  0  0  2  0  0  0  0  0  0
  187.3670  177.2020  139.3880 C   0  0  0  0  0  2  0  0  0  0  0  0
  189.1560  173.1370  136.7620 N   0  0  0  0  0  0  0  0  0  0  0  0
  183.3030  174.8000  134.9650 N   0  0  0  0  0  0  0  0  0  0  0  0
  187.8360  176.2830  136.2080 C   0  0  0  0  0  0  0  0  0  0  0  0
  188.8550  179.1620  139.1510 N   0  0  0  0  0  2  0  0  0  0  0  0
  189.1520  176.6230  136.4120 C   0  0  0  0  0  0  0  0  0  0  0  0
  188.9940  174.3900  136.2740 C   0  0  0  0  0  0  0  0  0  0  0  0
  188.3540  178.7050  137.8680 C   0  0  2  0  0  0  0  0  0  0  0  0
  188.4280  178.0900  140.0670 C   0  0  1  0  0  3  0  0  0  0  0  0
  188.0510  172.4050  137.0850 C   0  0  0  0  0  3  0  0  0  0  0  0
  182.2860  175.7230  136.9920 C   0  0  0  0  0  3  0  0  0  0  0  0
  187.0840  177.8880  138.0620 C   0  0  1  0  0  0  0  0  0  0  0  0
  186.7880  172.9360  136.9860 N   0  0  0  0  0  2  0  0  0  0  0  0
  184.7960  176.0360  137.4460 C   0  0  2  0  0  3  0  0  0  0  0  0
  191.1900  175.4750  138.5130 C   0  0  0  0  0  1  0  0  0  0  0  0
  191.1510  175.2890  137.0730 N   0  0  0  0  0  0  0  0  0  0  0  0
  192.2400  174.5560  136.4440 C   0  0  0  0  0  2  0  0  0  0  0  0
  193.4990  174.8170  137.1360 N   0  0  0  0  0  0  0  0  0  0  0  0
  194.1350  173.5570  137.3760 C   0  0  1  0  0  3  0  0  0  0  0  0
  194.5400  174.3380  136.2640 N   0  0  0  0  0  2  0  0  0  0  0  0
  196.3720  173.1790  137.9890 C   0  0  0  0  0  1  0  0  0  0  0  0
  195.2820  175.0350  138.6640 O   0  0  0  0  0  1  0  0  0  0  0  0
  195.1000  173.7100  138.4550 N   0  0  0  0  0  0  0  0  0  0  0  0
  187.9510  178.6320  141.4170 C   0  0  0  0  0  2  0  0  0  0  0  0
  188.3110  177.7440  142.5310 N   0  0  0  0  0  0  0  0  0  0  0  0
  187.1190  177.3930  143.3370 C   0  0  2  0  0  3  0  0  0  0  0  0
  185.8550  178.0340  142.7680 C   0  0  0  0  0  1  0  0  0  0  0  0
  187.2280  177.7950  144.7870 C   0  0  0  0  0  0  0  0  0  0  0  0
  186.5880  178.7430  145.2120 O   0  0  0  0  0  0  0  0  0  0  0  0
  188.4170  177.6920  146.9000 N   0  0  0  0  0  1  0  0  0  0  0  0
  187.9870  176.9240  145.7430 C   0  0  0  0  0  2  0  0  0  0  0  0
  189.3330  178.3800  143.3950 C   0  0  0  0  0  2  0  0  0  0  0  0
  190.7240  177.7160  143.3760 C   0  0  0  0  0  2  0  0  0  0  0  0
  191.6050  176.3310  145.2430 C   0  0  0  0  0  1  0  0  0  0  0  0
  191.4020  177.7490  144.7400 C   0  0  0  0  0  2  0  0  0  0  0  0
  1  3  1  6  0  0  0
  1 20  1  0  0  0  0
  2 26  1  0  0  0  0
  2 12  1  1  0  0  0
  4  5  1  0  0  0  0
  4 25  1  0  0  0  0
  5  6  1  6  0  0  0
  5 26  1  0  0  0  0
  7 23  1  0  0  0  0
  8  2  1  0  0  0  0
  8 24  1  0  0  0  0
  9 16  1  0  0  0  0
  9 19  1  0  0  0  0
  9  4  2  0  0  0  0
 10 18  1  0  0  0  0
 10 28  1  0  0  0  0
 13 21  1  0  0  0  0
 14 22  2  0  0  0  0
 15  6  2  0  0  0  0
 15  7  1  0  0  0  0
 16 18  2  0  0  0  0
 16  8  1  0  0  0  0
 17 21  1  0  0  0  0
 18  1  1  0  0  0  0
 19 10  2  0  0  0  0
 19 14  1  0  0  0  0
 20  3  1  6  0  0  0
 20 24  1  0  0  0  0
 20 17  1  0  0  0  0
 21 36  1  1  0  0  0
 23 11  2  0  0  0  0
 24 12  1  1  0  0  0
 24 13  1  0  0  0  0
 25 22  1  0  0  0  0
 26 11  1  6  0  0  0
 28 27  1  0  0  0  0
 29 28  1  0  0  0  0
 29 30  1  0  0  0  0
 30 31  1  0  0  0  0
 31 35  1  1  0  0  0
 32 30  1  0  0  0  0
 32 31  1  0  0  0  0
 33 35  1  0  0  0  0
 35 34  1  0  0  0  0
 36 37  1  0  0  0  0
 37 38  1  0  0  0  0
 37 44  1  0  0  0  0
 38 39  1  6  0  0  0
 38 40  1  0  0  0  0
 40 41  2  0  0  0  0
 40 43  1  0  0  0  0
 43 42  1  0  0  0  0
 45 44  1  0  0  0  0
 45 47  1  0  0  0  0
 47 46  1  0  0  0  0
M  END
>  <MODEL>
7

>  <REMARK>
 VINA RESULT:      -6.1      1.719      2.384
  Name = 
  12 active torsions:
  status: ('A' for Active; 'I' for Inactive)
    1  A    between atoms: C_1  and  C_5
    2  A    between atoms: C_1  and  N_15
    3  A    between atoms: C_2  and  N_15
    4  A    between atoms: C_2  and  C_23
    5  A    between atoms: C_5  and  C_42
    6  A    between atoms: C_7  and  C_23
    7  A    between atoms: N_12  and  C_45
    8  A    between atoms: N_15  and  C_41
    9  A    between atoms: C_19  and  N_38
   10  A    between atoms: C_24  and  N_36
   11  A    between atoms: N_36  and  C_45
   12  A    between atoms: C_39  and  C_41
                            x       y       z     vdW  Elec       q    Type
                         _______ _______ _______ _____ _____    ______ ____

>  <TORSDO>
F 12

$$$$
=
 OpenBabel10232411473D

 47 55  0  0  1  0  0  0  0  0999 V2000
  186.7760  178.5500  137.6150 C   0  0  2  0  0  3  0  0  0  0  0  0
  190.1880  176.5520  136.6470 C   0  0  2  0  0  3  0  0  0  0  0  0
  187.2260  179.1330  136.2830 C   0  0  0  0  0  2  0  0  0  0  0  0
  190.4490  176.5860  139.9500 C   0  0  0  0  0  0  0  0  0  0  0  0
  191.4090  176.0190  138.8940 C   0  0  2  0  0  3  0  0  0  0  0  0
  192.6020  176.9140  138.6910 C   0  0  0  0  0  3  0  0  0  0  0  0
  193.9170  175.0080  138.0950 C   0  0  0  0  0  2  0  0  0  0  0  0
  189.2020  177.2020  137.4830 N   0  0  0  0  0  0  0  0  0  0  0  0
  189.6290  177.7010  139.7300 C   0  0  0  0  0  0  0  0  0  0  0  0
  187.6010  178.7200  140.0890 C   0  0  0  0  0  0  0  0  0  0  0  0
  191.8160  174.6760  136.7000 C   0  0  0  0  0  3  0  0  0  0  0  0
  189.1640  176.0690  135.6300 C   0  0  0  0  0  2  0  0  0  0  0  0
  187.4130  175.4680  137.2790 C   0  0  0  0  0  2  0  0  0  0  0  0
  188.6010  177.4240  141.9040 N   0  0  0  0  0  0  0  0  0  0  0  0
  193.7290  176.4290  138.3020 N   0  0  0  0  0  0  0  0  0  0  0  0
  189.0880  178.0710  138.5440 C   0  0  0  0  0  0  0  0  0  0  0  0
  185.8530  176.9360  136.0460 N   0  0  0  0  0  2  0  0  0  0  0  0
  187.8540  178.6530  138.7090 C   0  0  0  0  0  0  0  0  0  0  0  0
  188.6620  178.0830  140.7220 C   0  0  0  0  0  0  0  0  0  0  0  0
  187.0910  177.6180  136.3770 C   0  0  2  0  0  0  0  0  0  0  0  0
  185.9610  175.6790  136.8080 C   0  0  1  0  0  3  0  0  0  0  0  0
  189.4810  176.4080  142.1400 C   0  0  0  0  0  3  0  0  0  0  0  0
  193.1310  174.5010  136.9150 C   0  0  0  0  0  3  0  0  0  0  0  0
  188.1950  176.6030  136.6390 C   0  0  1  0  0  0  0  0  0  0  0  0
  190.3780  176.0020  141.1820 N   0  0  0  0  0  2  0  0  0  0  0  0
  190.8310  175.4660  137.5350 C   0  0  2  0  0  3  0  0  0  0  0  0
  186.0510  179.5080  141.8560 C   0  0  0  0  0  1  0  0  0  0  0  0
  186.2840  178.7460  140.6420 N   0  0  0  0  0  0  0  0  0  0  0  0
  185.1390  178.4100  139.8100 C   0  0  0  0  0  2  0  0  0  0  0  0
  184.1800  179.5110  139.7900 N   0  0  0  0  0  0  0  0  0  0  0  0
  183.1140  179.1470  138.9070 C   0  0  1  0  0  3  0  0  0  0  0  0
  182.9460  178.9750  140.3040 N   0  0  0  0  0  2  0  0  0  0  0  0
  181.1770  180.4380  139.2280 C   0  0  0  0  0  1  0  0  0  0  0  0
  183.1720  181.4170  138.8460 O   0  0  0  0  0  1  0  0  0  0  0  0
  182.4200  180.3530  138.4770 N   0  0  0  0  0  0  0  0  0  0  0  0
  185.4270  174.4760  136.0260 C   0  0  0  0  0  2  0  0  0  0  0  0
  185.7860  173.1990  136.6580 N   0  0  0  0  0  0  0  0  0  0  0  0
  186.4790  172.3080  135.6990 C   0  0  2  0  0  3  0  0  0  0  0  0
  185.7170  170.9980  135.5080 C   0  0  0  0  0  1  0  0  0  0  0  0
  187.8920  171.9650  136.1040 C   0  0  0  0  0  0  0  0  0  0  0  0
  188.2320  172.0380  137.2730 O   0  0  0  0  0  0  0  0  0  0  0  0
  189.7680  172.3660  134.6180 N   0  0  0  0  0  1  0  0  0  0  0  0
  188.8270  171.3660  135.0970 C   0  0  0  0  0  2  0  0  0  0  0  0
  184.5790  172.5230  137.1910 C   0  0  0  0  0  2  0  0  0  0  0  0
  183.3100  173.3940  137.2660 C   0  0  0  0  0  2  0  0  0  0  0  0
  182.2010  171.2710  136.6020 C   0  0  0  0  0  1  0  0  0  0  0  0
  182.1410  172.7840  136.5030 C   0  0  0  0  0  2  0  0  0  0  0  0
  1  3  1  6  0  0  0
  1 18  1  0  0  0  0
  2 12  1  6  0  0  0
  2  8  1  0  0  0  0
  2 26  1  0  0  0  0
  4 25  1  0  0  0  0
  5  6  1  6  0  0  0
  5  4  1  0  0  0  0
  7 15  1  0  0  0  0
  8 16  1  0  0  0  0
  9  4  2  0  0  0  0
  9 19  1  0  0  0  0
 10 28  1  0  0  0  0
 10 19  2  0  0  0  0
 11 23  2  0  0  0  0
 14 22  2  0  0  0  0
 15  6  2  0  0  0  0
 16 18  2  0  0  0  0
 16  9  1  0  0  0  0
 17 20  1  0  0  0  0
 17 21  1  0  0  0  0
 18 10  1  0  0  0  0
 19 14  1  0  0  0  0
 20  3  1  6  0  0  0
 20 24  1  0  0  0  0
 20  1  1  0  0  0  0
 21 36  1  6  0  0  0
 21 13  1  0  0  0  0
 23  7  1  0  0  0  0
 24 12  1  6  0  0  0
 24 13  1  0  0  0  0
 24  8  1  0  0  0  0
 25 22  1  0  0  0  0
 26 11  1  6  0  0  0
 26  5  1  0  0  0  0
 28 27  1  0  0  0  0
 29 28  1  0  0  0  0
 30 29  1  0  0  0  0
 30 32  1  0  0  0  0
 31 35  1  1  0  0  0
 31 30  1  0  0  0  0
 31 32  1  0  0  0  0
 35 34  1  0  0  0  0
 35 33  1  0  0  0  0
 36 37  1  0  0  0  0
 37 44  1  0  0  0  0
 38 39  1  1  0  0  0
 38 40  1  0  0  0  0
 38 37  1  0  0  0  0
 40 41  2  0  0  0  0
 42 43  1  0  0  0  0
 43 40  1  0  0  0  0
 44 45  1  0  0  0  0
 47 46  1  0  0  0  0
 47 45  1  0  0  0  0
M  END
>  <MODEL>
8

>  <REMARK>
 VINA RESULT:      -5.7      2.950      8.384
  Name = 
  12 active torsions:
  status: ('A' for Active; 'I' for Inactive)
    1  A    between atoms: C_1  and  C_5
    2  A    between atoms: C_1  and  N_15
    3  A    between atoms: C_2  and  N_15
    4  A    between atoms: C_2  and  C_23
    5  A    between atoms: C_5  and  C_42
    6  A    between atoms: C_7  and  C_23
    7  A    between atoms: N_12  and  C_45
    8  A    between atoms: N_15  and  C_41
    9  A    between atoms: C_19  and  N_38
   10  A    between atoms: C_24  and  N_36
   11  A    between atoms: N_36  and  C_45
   12  A    between atoms: C_39  and  C_41
                            x       y       z     vdW  Elec       q    Type
                         _______ _______ _______ _____ _____    ______ ____

>  <TORSDO>
F 12

$$$$
=
 OpenBabel10232411473D

 47 55  0  0  1  0  0  0  0  0999 V2000
  186.7010  178.1420  137.3530 C   0  0  2  0  0  3  0  0  0  0  0  0
  190.1940  176.2080  136.5570 C   0  0  2  0  0  3  0  0  0  0  0  0
  187.1100  178.5970  135.9590 C   0  0  0  0  0  2  0  0  0  0  0  0
  190.4840  176.6130  139.8340 C   0  0  0  0  0  0  0  0  0  0  0  0
  191.4600  175.9790  138.8310 C   0  0  2  0  0  3  0  0  0  0  0  0
  192.6070  176.9010  138.5150 C   0  0  0  0  0  3  0  0  0  0  0  0
  194.0050  175.0040  138.1100 C   0  0  0  0  0  2  0  0  0  0  0  0
  189.1870  176.8990  137.3320 N   0  0  0  0  0  0  0  0  0  0  0  0
  189.6110  177.6590  139.5060 C   0  0  0  0  0  0  0  0  0  0  0  0
  187.5410  178.6170  139.7820 C   0  0  0  0  0  0  0  0  0  0  0  0
  191.9090  174.4260  136.7900 C   0  0  0  0  0  3  0  0  0  0  0  0
  189.1850  175.5710  135.6130 C   0  0  0  0  0  2  0  0  0  0  0  0
  187.4790  175.0730  137.3430 C   0  0  0  0  0  2  0  0  0  0  0  0
  188.6170  177.5730  141.7110 N   0  0  0  0  0  0  0  0  0  0  0  0
  193.7520  176.4280  138.1650 N   0  0  0  0  0  0  0  0  0  0  0  0
  189.0410  177.8730  138.2940 C   0  0  0  0  0  0  0  0  0  0  0  0
  185.8400  176.3260  135.9810 N   0  0  0  0  0  2  0  0  0  0  0  0
  187.7830  178.4120  138.4130 C   0  0  0  0  0  0  0  0  0  0  0  0
  188.6360  178.1020  140.4640 C   0  0  0  0  0  0  0  0  0  0  0  0
  187.0480  177.0960  136.2180 C   0  0  2  0  0  0  0  0  0  0  0  0
  186.0150  175.1650  136.8720 C   0  0  1  0  0  3  0  0  0  0  0  0
  189.5460  176.6300  142.0430 C   0  0  0  0  0  3  0  0  0  0  0  0
  193.2320  174.3360  137.0030 C   0  0  0  0  0  3  0  0  0  0  0  0
  188.2010  176.1670  136.5730 C   0  0  1  0  0  0  0  0  0  0  0  0
  190.4520  176.1640  141.1220 N   0  0  0  0  0  2  0  0  0  0  0  0
  190.8960  175.2560  137.5480 C   0  0  2  0  0  3  0  0  0  0  0  0
  185.2570  177.6580  139.9050 C   0  0  0  0  0  1  0  0  0  0  0  0
  186.2290  178.6430  140.3480 N   0  0  0  0  0  0  0  0  0  0  0  0
  185.9970  179.3160  141.6170 C   0  0  0  0  0  2  0  0  0  0  0  0
  185.3930  178.4000  142.5800 N   0  0  0  0  0  0  0  0  0  0  0  0
  185.1960  179.1170  143.8030 C   0  0  1  0  0  3  0  0  0  0  0  0
  184.1070  178.9580  142.9090 N   0  0  0  0  0  2  0  0  0  0  0  0
  186.4160  177.8010  145.3200 C   0  0  0  0  0  1  0  0  0  0  0  0
  184.4950  178.8070  145.9410 O   0  0  0  0  0  1  0  0  0  0  0  0
  185.0720  178.1650  144.8970 N   0  0  0  0  0  0  0  0  0  0  0  0
  185.5310  173.8620  136.2330 C   0  0  0  0  0  2  0  0  0  0  0  0
  184.3480  173.3160  136.9130 N   0  0  0  0  0  0  0  0  0  0  0  0
  184.1790  171.8750  136.6110 C   0  0  2  0  0  3  0  0  0  0  0  0
  184.9460  171.4790  135.3510 C   0  0  0  0  0  1  0  0  0  0  0  0
  182.7410  171.4590  136.4270 C   0  0  0  0  0  0  0  0  0  0  0  0
  181.9900  171.3990  137.3860 O   0  0  0  0  0  0  0  0  0  0  0  0
  180.7540  171.5160  135.0360 N   0  0  0  0  0  1  0  0  0  0  0  0
  182.1900  171.2900  135.0430 C   0  0  0  0  0  2  0  0  0  0  0  0
  183.1280  174.0580  136.5160 C   0  0  0  0  0  2  0  0  0  0  0  0
  182.5030  174.9410  137.6130 C   0  0  0  0  0  2  0  0  0  0  0  0
  180.1890  174.3160  138.2670 C   0  0  0  0  0  1  0  0  0  0  0  0
  181.0230  175.2100  137.3700 C   0  0  0  0  0  2  0  0  0  0  0  0
  1  3  1  6  0  0  0
  1 18  1  0  0  0  0
  2 12  1  6  0  0  0
  2  8  1  0  0  0  0
  2 26  1  0  0  0  0
  4 25  1  0  0  0  0
  5  6  1  6  0  0  0
  5  4  1  0  0  0  0
  7 15  1  0  0  0  0
  8 16  1  0  0  0  0
  9  4  2  0  0  0  0
  9 19  1  0  0  0  0
 10 28  1  0  0  0  0
 10 19  2  0  0  0  0
 11 23  2  0  0  0  0
 14 22  2  0  0  0  0
 15  6  2  0  0  0  0
 16 18  2  0  0  0  0
 16  9  1  0  0  0  0
 17 20  1  0  0  0  0
 17 21  1  0  0  0  0
 18 10  1  0  0  0  0
 19 14  1  0  0  0  0
 20  3  1  6  0  0  0
 20 24  1  0  0  0  0
 20  1  1  0  0  0  0
 21 36  1  6  0  0  0
 21 13  1  0  0  0  0
 23  7  1  0  0  0  0
 24 12  1  6  0  0  0
 24  8  1  0  0  0  0
 24 13  1  0  0  0  0
 25 22  1  0  0  0  0
 26 11  1  6  0  0  0
 26  5  1  0  0  0  0
 27 28  1  0  0  0  0
 28 29  1  0  0  0  0
 29 30  1  0  0  0  0
 30 32  1  0  0  0  0
 30 31  1  0  0  0  0
 31 35  1  1  0  0  0
 32 31  1  0  0  0  0
 35 33  1  0  0  0  0
 35 34  1  0  0  0  0
 36 37  1  0  0  0  0
 38 39  1  6  0  0  0
 38 37  1  0  0  0  0
 40 38  1  0  0  0  0
 40 41  2  0  0  0  0
 42 43  1  0  0  0  0
 43 40  1  0  0  0  0
 44 37  1  0  0  0  0
 44 45  1  0  0  0  0
 47 45  1  0  0  0  0
 47 46  1  0  0  0  0
M  END
>  <MODEL>
9

>  <REMARK>
 VINA RESULT:      -5.4      3.125      8.759
  Name = 
  12 active torsions:
  status: ('A' for Active; 'I' for Inactive)
    1  A    between atoms: C_1  and  C_5
    2  A    between atoms: C_1  and  N_15
    3  A    between atoms: C_2  and  N_15
    4  A    between atoms: C_2  and  C_23
    5  A    between atoms: C_5  and  C_42
    6  A    between atoms: C_7  and  C_23
    7  A    between atoms: N_12  and  C_45
    8  A    between atoms: N_15  and  C_41
    9  A    between atoms: C_19  and  N_38
   10  A    between atoms: C_24  and  N_36
   11  A    between atoms: N_36  and  C_45
   12  A    between atoms: C_39  and  C_41
                            x       y       z     vdW  Elec       q    Type
                         _______ _______ _______ _____ _____    ______ ____

>  <TORSDO>
F 12

$$$$
