=
 OpenBabel10232412293D

 29 32  0  0  1  0  0  0  0  0999 V2000
  185.6470  178.4450  142.8140 C   0  0  1  0  0  3  0  0  0  0  0  0
  186.5070  178.3880  146.4470 N   0  0  0  0  0  0  0  0  0  0  0  0
  184.4670  178.9050  143.6460 C   0  0  0  0  0  2  0  0  0  0  0  0
  184.9540  179.6440  144.8750 C   0  0  0  0  0  2  0  0  0  0  0  0
  190.4050  175.8940  142.8410 C   0  0  0  0  0  3  0  0  0  0  0  0
  191.2510  176.0230  143.9600 C   0  0  0  0  0  3  0  0  0  0  0  0
  189.3760  177.9500  147.5350 C   0  0  0  0  0  1  0  0  0  0  0  0
  190.7930  176.6430  145.1340 C   0  0  0  0  0  3  0  0  0  0  0  0
  184.1970  178.2690  146.6620 O   0  0  0  0  0  0  0  0  0  0  0  0
  187.4610  177.5370  144.2940 C   0  0  0  0  0  0  0  0  0  0  0  0
  189.0920  176.3880  142.8780 C   0  0  0  0  0  3  0  0  0  0  0  0
  186.3170  177.3340  143.4670 N   0  0  0  0  0  2  0  0  0  0  0  0
  187.4890  177.9950  145.6920 C   0  0  0  0  0  0  0  0  0  0  0  0
  185.1830  178.7010  146.0090 C   0  0  0  0  0  0  0  0  0  0  0  0
  189.4860  177.1340  145.1540 C   0  0  0  0  0  0  0  0  0  0  0  0
  188.6570  177.0170  144.0470 C   0  0  0  0  0  0  0  0  0  0  0  0
  188.8390  177.7030  146.1650 C   0  0  0  0  0  0  0  0  0  0  0  0
  185.1550  178.0060  141.4450 C   0  0  0  0  0  2  0  0  0  0  0  0
  184.6470  179.8450  140.0130 O   0  0  0  0  0  1  0  0  0  0  0  0
  185.6600  178.9540  140.3710 C   0  0  2  0  0  3  0  0  0  0  0  0
  186.0990  178.1580  139.1540 C   0  0  0  0  0  2  0  0  0  0  0  0
  187.5320  176.3450  137.3080 O   0  0  0  0  0  1  0  0  0  0  0  0
  187.5770  177.8990  139.1420 C   0  0  0  0  0  0  0  0  0  0  0  0
  189.5930  177.0520  138.5740 C   0  0  0  0  0  0  0  0  0  0  0  0
  188.5940  178.4990  140.0650 C   0  0  0  0  0  2  0  0  0  0  0  0
  188.1730  177.0760  138.3020 C   0  0  0  0  0  0  0  0  0  0  0  0
  189.8670  177.8750  139.5740 C   0  0  0  0  0  3  0  0  0  0  0  0
  190.8310  175.0520  138.4130 O   0  0  0  0  0  1  0  0  0  0  0  0
  190.6130  176.2880  137.8050 C   0  0  0  0  0  2  0  0  0  0  0  0
  1 18  1  6  0  0  0
  1 12  1  0  0  0  0
  1  3  1  0  0  0  0
  3  4  1  0  0  0  0
  4 14  1  0  0  0  0
  5 11  2  0  0  0  0
  5  6  1  0  0  0  0
  6  8  2  0  0  0  0
  8 15  1  0  0  0  0
 10 13  1  0  0  0  0
 11 16  1  0  0  0  0
 12 10  1  0  0  0  0
 13 17  1  0  0  0  0
 13  2  2  0  0  0  0
 14  2  1  0  0  0  0
 14  9  2  0  0  0  0
 15 17  2  0  0  0  0
 16 10  2  0  0  0  0
 16 15  1  0  0  0  0
 17  7  1  0  0  0  0
 20 19  1  6  0  0  0
 20 18  1  0  0  0  0
 21 20  1  0  0  0  0
 22 26  1  0  0  0  0
 23 21  1  0  0  0  0
 23 25  1  0  0  0  0
 24 27  2  0  0  0  0
 26 24  1  0  0  0  0
 26 23  2  0  0  0  0
 27 25  1  0  0  0  0
 29 28  1  0  0  0  0
 29 24  1  0  0  0  0
M  END
>  <MODEL>
1

>  <REMARK>
 VINA RESULT:      -9.2      0.000      0.000
  Name = 
  5 active torsions:
  status: ('A' for Active; 'I' for Inactive)
    1  A    between atoms: C_1  and  C_13
    2  A    between atoms: C_8  and  C_28
    3  A    between atoms: C_9  and  C_15
    4  A    between atoms: C_13  and  C_18
    5  A    between atoms: C_18  and  C_28
                            x       y       z     vdW  Elec       q    Type
                         _______ _______ _______ _____ _____    ______ ____

>  <TORSDO>
F 5

$$$$
=
 OpenBabel10232412293D

 29 32  0  0  1  0  0  0  0  0999 V2000
  186.8360  178.6630  141.9980 C   0  0  1  0  0  3  0  0  0  0  0  0
  185.7510  178.4400  145.5640 N   0  0  0  0  0  0  0  0  0  0  0  0
  185.3640  179.0000  142.1270 C   0  0  0  0  0  2  0  0  0  0  0  0
  185.1020  179.6920  143.4490 C   0  0  0  0  0  2  0  0  0  0  0  0
  191.1260  176.4080  144.3780 C   0  0  0  0  0  3  0  0  0  0  0  0
  191.2780  176.5210  145.7740 C   0  0  0  0  0  3  0  0  0  0  0  0
  187.7070  178.1120  147.9460 C   0  0  0  0  0  1  0  0  0  0  0  0
  190.2420  177.0400  146.5670 C   0  0  0  0  0  3  0  0  0  0  0  0
  183.6660  178.1690  144.5770 O   0  0  0  0  0  0  0  0  0  0  0  0
  187.7260  177.7790  144.1740 C   0  0  0  0  0  0  0  0  0  0  0  0
  189.9360  176.8190  143.7550 C   0  0  0  0  0  3  0  0  0  0  0  0
  187.1750  177.5570  142.8770 N   0  0  0  0  0  2  0  0  0  0  0  0
  187.0080  178.1530  145.4020 C   0  0  0  0  0  0  0  0  0  0  0  0
  184.8070  178.6980  144.5220 C   0  0  0  0  0  0  0  0  0  0  0  0
  189.0670  177.4490  145.9320 C   0  0  0  0  0  0  0  0  0  0  0  0
  188.9220  177.3490  144.5560 C   0  0  0  0  0  0  0  0  0  0  0  0
  187.9550  177.9160  146.4880 C   0  0  0  0  0  0  0  0  0  0  0  0
  187.1380  178.2780  140.5600 C   0  0  0  0  0  2  0  0  0  0  0  0
  188.8660  179.0570  139.1100 O   0  0  0  0  0  1  0  0  0  0  0  0
  188.6320  178.3540  140.2940 C   0  0  2  0  0  3  0  0  0  0  0  0
  189.2020  176.9490  140.1790 C   0  0  0  0  0  2  0  0  0  0  0  0
  190.3280  175.7930  137.7020 O   0  0  0  0  0  1  0  0  0  0  0  0
  190.6490  176.9500  139.7850 C   0  0  0  0  0  0  0  0  0  0  0  0
  192.5440  176.5800  138.6110 C   0  0  0  0  0  0  0  0  0  0  0  0
  191.7880  177.5240  140.5740 C   0  0  0  0  0  2  0  0  0  0  0  0
  191.1080  176.4160  138.6700 C   0  0  0  0  0  0  0  0  0  0  0  0
  192.9610  177.2290  139.6860 C   0  0  0  0  0  3  0  0  0  0  0  0
  194.5430  175.5000  137.9820 O   0  0  0  0  0  1  0  0  0  0  0  0
  193.4200  176.1610  137.4830 C   0  0  0  0  0  2  0  0  0  0  0  0
  1 18  1  6  0  0  0
  1  3  1  0  0  0  0
  1 12  1  0  0  0  0
  3  4  1  0  0  0  0
  4 14  1  0  0  0  0
  5  6  1  0  0  0  0
  6  8  2  0  0  0  0
 10 16  2  0  0  0  0
 10 13  1  0  0  0  0
 11  5  2  0  0  0  0
 11 16  1  0  0  0  0
 12 10  1  0  0  0  0
 13  2  2  0  0  0  0
 13 17  1  0  0  0  0
 14  9  2  0  0  0  0
 14  2  1  0  0  0  0
 15 17  2  0  0  0  0
 15  8  1  0  0  0  0
 16 15  1  0  0  0  0
 17  7  1  0  0  0  0
 20 19  1  6  0  0  0
 20 18  1  0  0  0  0
 21 20  1  0  0  0  0
 22 26  1  0  0  0  0
 23 21  1  0  0  0  0
 23 25  1  0  0  0  0
 24 26  1  0  0  0  0
 24 27  2  0  0  0  0
 26 23  2  0  0  0  0
 27 25  1  0  0  0  0
 29 28  1  0  0  0  0
 29 24  1  0  0  0  0
M  END
>  <MODEL>
2

>  <REMARK>
 VINA RESULT:      -9.1      1.701      2.345
  Name = 
  5 active torsions:
  status: ('A' for Active; 'I' for Inactive)
    1  A    between atoms: C_1  and  C_13
    2  A    between atoms: C_8  and  C_28
    3  A    between atoms: C_9  and  C_15
    4  A    between atoms: C_13  and  C_18
    5  A    between atoms: C_18  and  C_28
                            x       y       z     vdW  Elec       q    Type
                         _______ _______ _______ _____ _____    ______ ____

>  <TORSDO>
F 5

$$$$
=
 OpenBabel10232412293D

 29 32  0  0  1  0  0  0  0  0999 V2000
  190.1560  176.9090  145.0300 C   0  0  1  0  0  3  0  0  0  0  0  0
  187.5160  177.9800  147.4440 N   0  0  0  0  0  2  0  0  0  0  0  0
  190.7130  176.9580  146.4390 C   0  0  0  0  0  2  0  0  0  0  0  0
  189.6380  176.5810  147.4370 C   0  0  0  0  0  2  0  0  0  0  0  0
  186.1470  178.4480  141.7570 C   0  0  0  0  0  3  0  0  0  0  0  0
  184.8370  178.5390  142.2670 C   0  0  0  0  0  3  0  0  0  0  0  0
  184.5130  178.2300  146.7180 C   0  0  0  0  0  1  0  0  0  0  0  0
  184.5970  178.4210  143.6460 C   0  0  0  0  0  3  0  0  0  0  0  0
  189.3700  178.5690  148.7140 O   0  0  0  0  0  0  0  0  0  0  0  0
  187.8530  177.9090  144.9640 C   0  0  0  0  0  0  0  0  0  0  0  0
  187.2350  178.2320  142.6190 C   0  0  0  0  0  2  0  0  0  0  0  0
  189.2650  178.0340  144.8050 N   0  0  0  0  0  2  0  0  0  0  0  0
  187.0850  177.9290  146.2180 C   0  0  0  0  0  0  0  0  0  0  0  0
  188.8660  177.7820  147.8690 C   0  0  0  0  0  0  0  0  0  0  0  0
  185.6880  178.2020  144.4890 C   0  0  0  0  0  0  0  0  0  0  0  0
  186.9770  178.1010  143.9860 C   0  0  0  0  0  0  0  0  0  0  0  0
  185.6940  178.1130  145.8150 C   0  0  0  0  0  0  0  0  0  0  0  0
  191.3030  176.9640  144.0350 C   0  0  0  0  0  2  0  0  0  0  0  0
  190.4970  175.7630  142.1370 O   0  0  0  0  0  1  0  0  0  0  0  0
  190.7690  177.0470  142.6150 C   0  0  2  0  0  3  0  0  0  0  0  0
  191.7970  177.7210  141.7220 C   0  0  0  0  0  2  0  0  0  0  0  0
  194.0300  176.8540  139.9890 O   0  0  0  0  0  1  0  0  0  0  0  0
  191.6840  177.2870  140.2910 C   0  0  0  0  0  0  0  0  0  0  0  0
  192.2530  176.5730  138.2240 C   0  0  0  0  0  0  0  0  0  0  0  0
  190.4280  177.2220  139.4760 C   0  0  0  0  0  3  0  0  0  0  0  0
  192.7110  176.9130  139.5530 C   0  0  2  0  0  3  0  0  0  0  0  0
  190.9400  176.7260  138.1550 C   0  0  0  0  0  3  0  0  0  0  0  0
  194.0880  176.9870  136.8040 O   0  0  0  0  0  1  0  0  0  0  0  0
  193.1020  176.0520  137.1180 C   0  0  0  0  0  2  0  0  0  0  0  0
  1 18  1  6  0  0  0
  1  3  1  0  0  0  0
  2 14  1  0  0  0  0
  3  4  1  0  0  0  0
  4 14  1  0  0  0  0
  5  6  2  0  0  0  0
  5 11  1  0  0  0  0
  6  8  1  0  0  0  0
  8 15  2  0  0  0  0
 10 13  1  0  0  0  0
 11 16  1  0  0  0  0
 12 10  1  0  0  0  0
 12  1  1  0  0  0  0
 13  2  1  0  0  0  0
 14  9  2  0  0  0  0
 15 17  1  0  0  0  0
 16 15  1  0  0  0  0
 16 10  2  0  0  0  0
 17 13  2  0  0  0  0
 17  7  1  0  0  0  0
 20 19  1  6  0  0  0
 20 18  1  0  0  0  0
 21 20  1  0  0  0  0
 23 21  1  0  0  0  0
 24 26  1  0  0  0  0
 25 23  2  0  0  0  0
 26 22  1  1  0  0  0
 26 23  1  0  0  0  0
 27 24  2  0  0  0  0
 27 25  1  0  0  0  0
 28 29  1  0  0  0  0
 29 24  1  0  0  0  0
M  END
>  <MODEL>
3

>  <REMARK>
 VINA RESULT:      -9.1      2.611      4.796
  Name = 
  5 active torsions:
  status: ('A' for Active; 'I' for Inactive)
    1  A    between atoms: C_1  and  C_13
    2  A    between atoms: C_8  and  C_28
    3  A    between atoms: C_9  and  C_15
    4  A    between atoms: C_13  and  C_18
    5  A    between atoms: C_18  and  C_28
                            x       y       z     vdW  Elec       q    Type
                         _______ _______ _______ _____ _____    ______ ____

>  <TORSDO>
F 5

$$$$
=
 OpenBabel10232412293D

 29 32  0  0  1  0  0  0  0  0999 V2000
  185.9220  178.6410  141.2050 C   0  0  1  0  0  3  0  0  0  0  0  0
  188.2820  177.7120  138.4650 N   0  0  0  0  0  2  0  0  0  0  0  0
  185.2550  178.8020  139.8540 C   0  0  0  0  0  2  0  0  0  0  0  0
  185.7760  177.7570  138.8890 C   0  0  0  0  0  2  0  0  0  0  0  0
  190.6030  178.0970  143.8400 C   0  0  0  0  0  3  0  0  0  0  0  0
  191.6500  177.3690  143.2420 C   0  0  0  0  0  3  0  0  0  0  0  0
  191.0180  176.3330  138.9370 C   0  0  0  0  0  1  0  0  0  0  0  0
  191.5580  176.9520  141.9040 C   0  0  0  0  0  3  0  0  0  0  0  0
  186.8580  179.0590  137.2190 O   0  0  0  0  0  0  0  0  0  0  0  0
  188.3740  178.1780  140.9230 C   0  0  0  0  0  0  0  0  0  0  0  0
  189.4460  178.4130  143.1100 C   0  0  0  0  0  3  0  0  0  0  0  0
  187.3010  179.0920  141.1400 N   0  0  0  0  0  2  0  0  0  0  0  0
  188.8120  177.5950  139.6460 C   0  0  0  0  0  0  0  0  0  0  0  0
  186.9900  178.2480  138.1730 C   0  0  0  0  0  0  0  0  0  0  0  0
  190.4000  177.2700  141.1930 C   0  0  0  0  0  0  0  0  0  0  0  0
  189.3630  177.9760  141.7850 C   0  0  2  0  0  3  0  0  0  0  0  0
  190.1280  177.0210  139.9160 C   0  0  0  0  0  0  0  0  0  0  0  0
  185.1680  179.4620  142.2370 C   0  0  0  0  0  2  0  0  0  0  0  0
  183.1420  178.4580  143.0010 O   0  0  0  0  0  1  0  0  0  0  0  0
  184.5110  178.5520  143.2610 C   0  0  2  0  0  3  0  0  0  0  0  0
  184.7320  179.1120  144.6570 C   0  0  0  0  0  2  0  0  0  0  0  0
  185.5680  179.6170  147.4480 O   0  0  0  0  0  1  0  0  0  0  0  0
  185.8380  178.4100  145.3860 C   0  0  0  0  0  0  0  0  0  0  0  0
  187.2890  177.8270  147.0170 C   0  0  0  0  0  0  0  0  0  0  0  0
  186.7280  177.3360  144.8350 C   0  0  0  0  0  3  0  0  0  0  0  0
  186.1810  178.6720  146.6320 C   0  0  2  0  0  3  0  0  0  0  0  0
  187.6150  177.0350  146.0070 C   0  0  0  0  0  3  0  0  0  0  0  0
  189.1030  178.5290  148.3500 O   0  0  0  0  0  1  0  0  0  0  0  0
  187.9230  177.7840  148.3630 C   0  0  0  0  0  2  0  0  0  0  0  0
  1 18  1  1  0  0  0
  2 13  1  0  0  0  0
  3  1  1  0  0  0  0
  4  3  1  0  0  0  0
  6  5  1  0  0  0  0
  7 17  1  0  0  0  0
  8  6  2  0  0  0  0
  9 14  2  0  0  0  0
 10 12  1  0  0  0  0
 10 16  1  0  0  0  0
 11  5  2  0  0  0  0
 12  1  1  0  0  0  0
 13 17  1  0  0  0  0
 13 10  2  0  0  0  0
 14  2  1  0  0  0  0
 14  4  1  0  0  0  0
 15 16  1  0  0  0  0
 15  8  1  0  0  0  0
 16 11  1  6  0  0  0
 17 15  2  0  0  0  0
 18 20  1  0  0  0  0
 20 19  1  6  0  0  0
 20 21  1  0  0  0  0
 21 23  1  0  0  0  0
 23 26  1  0  0  0  0
 24 29  1  0  0  0  0
 25 23  2  0  0  0  0
 25 27  1  0  0  0  0
 26 24  1  0  0  0  0
 26 22  1  1  0  0  0
 27 24  2  0  0  0  0
 28 29  1  0  0  0  0
M  END
>  <MODEL>
4

>  <REMARK>
 VINA RESULT:      -9.0      2.188      6.421
  Name = 
  5 active torsions:
  status: ('A' for Active; 'I' for Inactive)
    1  A    between atoms: C_1  and  C_13
    2  A    between atoms: C_8  and  C_28
    3  A    between atoms: C_9  and  C_15
    4  A    between atoms: C_13  and  C_18
    5  A    between atoms: C_18  and  C_28
                            x       y       z     vdW  Elec       q    Type
                         _______ _______ _______ _____ _____    ______ ____

>  <TORSDO>
F 5

$$$$
=
 OpenBabel10232412293D

 29 32  0  0  1  0  0  0  0  0999 V2000
  188.7420  176.9750  141.8340 C   0  0  1  0  0  3  0  0  0  0  0  0
  190.0190  177.4050  145.3160 N   0  0  0  0  0  0  0  0  0  0  0  0
  190.2510  176.8300  141.8670 C   0  0  0  0  0  2  0  0  0  0  0  0
  190.6840  176.2040  143.1770 C   0  0  0  0  0  2  0  0  0  0  0  0
  184.3630  178.7140  144.4690 C   0  0  0  0  0  3  0  0  0  0  0  0
  184.3160  178.6110  145.8730 C   0  0  0  0  0  3  0  0  0  0  0  0
  188.1960  177.5290  147.8200 C   0  0  0  0  0  1  0  0  0  0  0  0
  185.4600  178.2430  146.6010 C   0  0  0  0  0  3  0  0  0  0  0  0
  191.9840  177.9190  144.1890 O   0  0  0  0  0  0  0  0  0  0  0  0
  187.8890  177.7820  144.0540 C   0  0  0  0  0  0  0  0  0  0  0  0
  185.5520  178.4450  143.7720 C   0  0  0  0  0  3  0  0  0  0  0  0
  188.3220  178.0460  142.7210 N   0  0  0  0  0  2  0  0  0  0  0  0
  188.7270  177.5260  145.2360 C   0  0  0  0  0  0  0  0  0  0  0  0
  190.9180  177.2480  144.2170 C   0  0  0  0  0  0  0  0  0  0  0  0
  186.6330  177.9740  145.8940 C   0  0  0  0  0  0  0  0  0  0  0  0
  186.6750  178.0640  144.5090 C   0  0  0  0  0  0  0  0  0  0  0  0
  187.8300  177.6630  146.3800 C   0  0  0  0  0  0  0  0  0  0  0  0
  188.3000  177.2900  140.4150 C   0  0  0  0  0  2  0  0  0  0  0  0
  189.3570  178.8150  138.9140 O   0  0  0  0  0  1  0  0  0  0  0  0
  189.5060  177.5730  139.5340 C   0  0  2  0  0  3  0  0  0  0  0  0
  189.6350  176.4840  138.4820 C   0  0  0  0  0  2  0  0  0  0  0  0
  190.5560  173.9130  137.3480 O   0  0  0  0  0  1  0  0  0  0  0  0
  191.0620  176.0860  138.2430 C   0  0  0  0  0  0  0  0  0  0  0  0
  192.8700  174.8640  137.6570 C   0  0  0  0  0  0  0  0  0  0  0  0
  192.2790  176.9090  138.5440 C   0  0  0  0  0  2  0  0  0  0  0  0
  191.4270  174.9240  137.7390 C   0  0  0  0  0  0  0  0  0  0  0  0
  193.3870  176.0000  138.0980 C   0  0  0  0  0  3  0  0  0  0  0  0
  194.6120  173.3190  138.0200 O   0  0  0  0  0  1  0  0  0  0  0  0
  193.6620  173.7400  137.0900 C   0  0  0  0  0  2  0  0  0  0  0  0
  1 18  1  6  0  0  0
  1  3  1  0  0  0  0
  1 12  1  0  0  0  0
  3  4  1  0  0  0  0
  4 14  1  0  0  0  0
  5  6  1  0  0  0  0
  6  8  2  0  0  0  0
  9 14  2  0  0  0  0
 10 16  2  0  0  0  0
 10 13  1  0  0  0  0
 11  5  2  0  0  0  0
 11 16  1  0  0  0  0
 12 10  1  0  0  0  0
 13  2  2  0  0  0  0
 13 17  1  0  0  0  0
 14  2  1  0  0  0  0
 15 17  2  0  0  0  0
 15  8  1  0  0  0  0
 16 15  1  0  0  0  0
 17  7  1  0  0  0  0
 20 19  1  6  0  0  0
 20 18  1  0  0  0  0
 21 20  1  0  0  0  0
 22 26  1  0  0  0  0
 23 21  1  0  0  0  0
 23 25  1  0  0  0  0
 24 26  1  0  0  0  0
 24 27  2  0  0  0  0
 26 23  2  0  0  0  0
 27 25  1  0  0  0  0
 29 24  1  0  0  0  0
 29 28  1  0  0  0  0
M  END
>  <MODEL>
5

>  <REMARK>
 VINA RESULT:      -8.9      2.415      4.565
  Name = 
  5 active torsions:
  status: ('A' for Active; 'I' for Inactive)
    1  A    between atoms: C_1  and  C_13
    2  A    between atoms: C_8  and  C_28
    3  A    between atoms: C_9  and  C_15
    4  A    between atoms: C_13  and  C_18
    5  A    between atoms: C_18  and  C_28
                            x       y       z     vdW  Elec       q    Type
                         _______ _______ _______ _____ _____    ______ ____

>  <TORSDO>
F 5

$$$$
=
 OpenBabel10232412293D

 29 32  0  0  1  0  0  0  0  0999 V2000
  185.8690  178.0390  142.0690 C   0  0  1  0  0  3  0  0  0  0  0  0
  185.5210  178.7880  138.4280 N   0  0  0  0  0  2  0  0  0  0  0  0
  184.5260  178.6810  141.7860 C   0  0  0  0  0  2  0  0  0  0  0  0
  184.0280  178.2630  140.4170 C   0  0  0  0  0  2  0  0  0  0  0  0
  190.8480  177.0930  140.2090 C   0  0  0  0  0  3  0  0  0  0  0  0
  191.0390  176.8720  138.8300 C   0  0  0  0  0  3  0  0  0  0  0  0
  187.4900  177.7720  136.2610 C   0  0  0  0  0  1  0  0  0  0  0  0
  189.9900  177.0830  137.9210 C   0  0  0  0  0  3  0  0  0  0  0  0
  183.9620  180.3170  139.2200 O   0  0  0  0  0  0  0  0  0  0  0  0
  187.3290  178.1230  140.0270 C   0  0  0  0  0  0  0  0  0  0  0  0
  189.6040  177.5220  140.6970 C   0  0  0  0  0  2  0  0  0  0  0  0
  186.9050  178.6740  141.2730 N   0  0  0  0  0  2  0  0  0  0  0  0
  186.6630  178.2400  138.7210 C   0  0  0  0  0  0  0  0  0  0  0  0
  184.5200  179.1970  139.3620 C   0  0  0  0  0  0  0  0  0  0  0  0
  188.7570  177.5060  138.4220 C   0  0  0  0  0  0  0  0  0  0  0  0
  188.5660  177.7110  139.7810 C   0  0  0  0  0  0  0  0  0  0  0  0
  187.6570  177.8110  137.7420 C   0  0  0  0  0  0  0  0  0  0  0  0
  186.1970  178.1930  143.5440 C   0  0  0  0  0  2  0  0  0  0  0  0
  187.4830  176.1860  143.6630 O   0  0  0  0  0  1  0  0  0  0  0  0
  187.5460  177.5680  143.8560 C   0  0  2  0  0  3  0  0  0  0  0  0
  187.9280  177.8700  145.2950 C   0  0  0  0  0  2  0  0  0  0  0  0
  188.8250  176.6560  147.8380 O   0  0  0  0  0  1  0  0  0  0  0  0
  189.3260  177.4340  145.6190 C   0  0  0  0  0  0  0  0  0  0  0  0
  191.0990  176.6110  146.7530 C   0  0  0  0  0  0  0  0  0  0  0  0
  190.5240  177.5410  144.7230 C   0  0  0  0  0  3  0  0  0  0  0  0
  189.6820  176.9010  146.7720 C   0  0  2  0  0  3  0  0  0  0  0  0
  191.6070  176.9540  145.5800 C   0  0  0  0  0  3  0  0  0  0  0  0
  192.5370  176.9180  148.5960 O   0  0  0  0  0  1  0  0  0  0  0  0
  191.8660  175.9530  147.8460 C   0  0  0  0  0  2  0  0  0  0  0  0
  1 18  1  1  0  0  0
  2 13  1  0  0  0  0
  2 14  1  0  0  0  0
  3  1  1  0  0  0  0
  4  3  1  0  0  0  0
  5 11  1  0  0  0  0
  6  5  2  0  0  0  0
  7 17  1  0  0  0  0
  8 15  2  0  0  0  0
  8  6  1  0  0  0  0
  9 14  2  0  0  0  0
 10 12  1  0  0  0  0
 12  1  1  0  0  0  0
 13 10  1  0  0  0  0
 14  4  1  0  0  0  0
 15 16  1  0  0  0  0
 16 10  2  0  0  0  0
 16 11  1  0  0  0  0
 17 15  1  0  0  0  0
 17 13  2  0  0  0  0
 18 20  1  0  0  0  0
 20 19  1  1  0  0  0
 20 21  1  0  0  0  0
 21 23  1  0  0  0  0
 23 26  1  0  0  0  0
 24 26  1  0  0  0  0
 24 29  1  0  0  0  0
 25 27  1  0  0  0  0
 25 23  2  0  0  0  0
 26 22  1  6  0  0  0
 27 24  2  0  0  0  0
 29 28  1  0  0  0  0
M  END
>  <MODEL>
6

>  <REMARK>
 VINA RESULT:      -8.8      2.621      6.730
  Name = 
  5 active torsions:
  status: ('A' for Active; 'I' for Inactive)
    1  A    between atoms: C_1  and  C_13
    2  A    between atoms: C_8  and  C_28
    3  A    between atoms: C_9  and  C_15
    4  A    between atoms: C_13  and  C_18
    5  A    between atoms: C_18  and  C_28
                            x       y       z     vdW  Elec       q    Type
                         _______ _______ _______ _____ _____    ______ ____

>  <TORSDO>
F 5

$$$$
=
 OpenBabel10232412293D

 29 32  0  0  1  0  0  0  0  0999 V2000
  188.9640  176.7590  142.1980 C   0  0  1  0  0  3  0  0  0  0  0  0
  189.9310  177.5580  145.7150 N   0  0  0  0  0  0  0  0  0  0  0  0
  190.4670  176.6590  142.3710 C   0  0  0  0  0  2  0  0  0  0  0  0
  190.7980  176.1740  143.7670 C   0  0  0  0  0  2  0  0  0  0  0  0
  184.3440  178.6280  144.2750 C   0  0  0  0  0  3  0  0  0  0  0  0
  184.1800  178.6590  145.6740 C   0  0  0  0  0  3  0  0  0  0  0  0
  187.8980  177.8750  148.0340 C   0  0  0  0  0  1  0  0  0  0  0  0
  185.2640  178.3940  146.5270 C   0  0  0  0  0  3  0  0  0  0  0  0
  191.9750  178.0120  144.7100 O   0  0  0  0  0  0  0  0  0  0  0  0
  187.9100  177.7540  144.2490 C   0  0  0  0  0  0  0  0  0  0  0  0
  185.5930  178.3240  143.7100 C   0  0  0  0  0  3  0  0  0  0  0  0
  188.4500  177.9000  142.9370 N   0  0  0  0  0  2  0  0  0  0  0  0
  188.6480  177.6360  145.5160 C   0  0  0  0  0  0  0  0  0  0  0  0
  190.9230  177.3190  144.7150 C   0  0  0  0  0  0  0  0  0  0  0  0
  186.4980  178.0900  145.9500 C   0  0  0  0  0  0  0  0  0  0  0  0
  186.6570  178.0460  144.5720 C   0  0  0  0  0  0  0  0  0  0  0  0
  187.6540  177.8590  146.5620 C   0  0  0  0  0  0  0  0  0  0  0  0
  188.6390  176.9240  140.7230 C   0  0  0  0  0  2  0  0  0  0  0  0
  187.0500  178.5970  140.1150 O   0  0  0  0  0  1  0  0  0  0  0  0
  188.4030  178.3880  140.3920 C   0  0  2  0  0  3  0  0  0  0  0  0
  189.2420  178.7800  139.1870 C   0  0  0  0  0  2  0  0  0  0  0  0
  191.4630  176.8720  138.7740 O   0  0  0  0  0  1  0  0  0  0  0  0
  189.2930  177.6980  138.1490 C   0  0  0  0  0  0  0  0  0  0  0  0
  190.0380  175.9680  136.9020 C   0  0  0  0  0  0  0  0  0  0  0  0
  188.2390  177.3920  137.1280 C   0  0  0  0  0  3  0  0  0  0  0  0
  190.3090  176.8720  137.9980 C   0  0  1  0  0  3  0  0  0  0  0  0
  188.8450  176.2330  136.3930 C   0  0  0  0  0  3  0  0  0  0  0  0
  191.0070  173.8940  137.4660 O   0  0  0  0  0  1  0  0  0  0  0  0
  190.9170  174.8530  136.4570 C   0  0  0  0  0  2  0  0  0  0  0  0
  1 18  1  6  0  0  0
  1  3  1  0  0  0  0
  1 12  1  0  0  0  0
  3  4  1  0  0  0  0
  4 14  1  0  0  0  0
  5  6  1  0  0  0  0
  6  8  2  0  0  0  0
  9 14  2  0  0  0  0
 10 16  2  0  0  0  0
 10 13  1  0  0  0  0
 11  5  2  0  0  0  0
 11 16  1  0  0  0  0
 12 10  1  0  0  0  0
 13  2  2  0  0  0  0
 13 17  1  0  0  0  0
 14  2  1  0  0  0  0
 15  8  1  0  0  0  0
 15 17  2  0  0  0  0
 16 15  1  0  0  0  0
 17  7  1  0  0  0  0
 20 19  1  6  0  0  0
 20 18  1  0  0  0  0
 21 20  1  0  0  0  0
 23 21  1  0  0  0  0
 24 26  1  0  0  0  0
 25 23  2  0  0  0  0
 26 23  1  0  0  0  0
 26 22  1  6  0  0  0
 27 24  2  0  0  0  0
 27 25  1  0  0  0  0
 29 24  1  0  0  0  0
 29 28  1  0  0  0  0
M  END
>  <MODEL>
7

>  <REMARK>
 VINA RESULT:      -8.8      2.124      4.166
  Name = 
  5 active torsions:
  status: ('A' for Active; 'I' for Inactive)
    1  A    between atoms: C_1  and  C_13
    2  A    between atoms: C_8  and  C_28
    3  A    between atoms: C_9  and  C_15
    4  A    between atoms: C_13  and  C_18
    5  A    between atoms: C_18  and  C_28
                            x       y       z     vdW  Elec       q    Type
                         _______ _______ _______ _____ _____    ______ ____

>  <TORSDO>
F 5

$$$$
=
 OpenBabel10232412293D

 29 32  0  0  1  0  0  0  0  0999 V2000
  186.6980  177.1810  143.7140 C   0  0  1  0  0  3  0  0  0  0  0  0
  183.8990  179.0190  145.3640 N   0  0  0  0  0  2  0  0  0  0  0  0
  187.0430  177.4870  145.1580 C   0  0  0  0  0  2  0  0  0  0  0  0
  185.7920  177.4500  146.0100 C   0  0  0  0  0  2  0  0  0  0  0  0
  183.4590  178.3400  139.5530 C   0  0  0  0  0  3  0  0  0  0  0  0
  182.1120  178.6720  139.7990 C   0  0  0  0  0  3  0  0  0  0  0  0
  181.0960  179.3970  144.0950 C   0  0  0  0  0  1  0  0  0  0  0  0
  181.6580  178.8890  141.1100 C   0  0  0  0  0  3  0  0  0  0  0  0
  185.6070  179.6890  146.7890 O   0  0  0  0  0  0  0  0  0  0  0  0
  184.5860  178.3640  143.0480 C   0  0  0  0  0  0  0  0  0  0  0  0
  184.3690  178.2150  140.6150 C   0  0  0  0  0  2  0  0  0  0  0  0
  186.0100  178.3100  143.1130 N   0  0  0  0  0  2  0  0  0  0  0  0
  183.6510  178.7380  144.1200 C   0  0  0  0  0  0  0  0  0  0  0  0
  185.1320  178.7880  146.0490 C   0  0  0  0  0  0  0  0  0  0  0  0
  182.5730  178.7570  142.1560 C   0  0  0  0  0  0  0  0  0  0  0  0
  183.8970  178.4180  141.9150 C   0  0  0  0  0  0  0  0  0  0  0  0
  182.3720  178.9660  143.4530 C   0  0  0  0  0  0  0  0  0  0  0  0
  187.9760  176.8980  142.9430 C   0  0  0  0  0  2  0  0  0  0  0  0
  188.6420  178.7320  141.5700 O   0  0  0  0  0  1  0  0  0  0  0  0
  188.8180  178.1580  142.8310 C   0  0  2  0  0  3  0  0  0  0  0  0
  190.2830  177.8130  143.0390 C   0  0  0  0  0  2  0  0  0  0  0  0
  191.9830  175.5710  143.9500 O   0  0  0  0  0  1  0  0  0  0  0  0
  190.5900  177.4620  144.4650 C   0  0  0  0  0  0  0  0  0  0  0  0
  191.4250  176.3870  146.2680 C   0  0  0  0  0  0  0  0  0  0  0  0
  190.0860  178.1710  145.6860 C   0  0  0  0  0  2  0  0  0  0  0  0
  191.3510  176.4470  144.8250 C   0  0  0  0  0  0  0  0  0  0  0  0
  190.7200  177.3780  146.7910 C   0  0  0  0  0  3  0  0  0  0  0  0
  192.7360  176.0430  148.1980 O   0  0  0  0  0  1  0  0  0  0  0  0
  192.2330  175.4170  147.0570 C   0  0  0  0  0  2  0  0  0  0  0  0
  1 18  1  6  0  0  0
  1  3  1  0  0  0  0
  2 14  1  0  0  0  0
  3  4  1  0  0  0  0
  4 14  1  0  0  0  0
  5  6  2  0  0  0  0
  5 11  1  0  0  0  0
  6  8  1  0  0  0  0
  8 15  2  0  0  0  0
 10 12  1  0  0  0  0
 10 13  1  0  0  0  0
 11 16  1  0  0  0  0
 12  1  1  0  0  0  0
 13  2  1  0  0  0  0
 14  9  2  0  0  0  0
 15 17  1  0  0  0  0
 16 15  1  0  0  0  0
 16 10  2  0  0  0  0
 17  7  1  0  0  0  0
 17 13  2  0  0  0  0
 20 19  1  6  0  0  0
 20 18  1  0  0  0  0
 20 21  1  0  0  0  0
 21 23  1  0  0  0  0
 22 26  1  0  0  0  0
 23 26  2  0  0  0  0
 23 25  1  0  0  0  0
 24 27  2  0  0  0  0
 24 29  1  0  0  0  0
 25 27  1  0  0  0  0
 26 24  1  0  0  0  0
 29 28  1  0  0  0  0
M  END
>  <MODEL>
8

>  <REMARK>
 VINA RESULT:      -8.7      2.820      6.347
  Name = 
  5 active torsions:
  status: ('A' for Active; 'I' for Inactive)
    1  A    between atoms: C_1  and  C_13
    2  A    between atoms: C_8  and  C_28
    3  A    between atoms: C_9  and  C_15
    4  A    between atoms: C_13  and  C_18
    5  A    between atoms: C_18  and  C_28
                            x       y       z     vdW  Elec       q    Type
                         _______ _______ _______ _____ _____    ______ ____

>  <TORSDO>
F 5

$$$$
=
 OpenBabel10232412293D

 29 32  0  0  1  0  0  0  0  0999 V2000
  188.2110  178.2840  141.7390 C   0  0  1  0  0  3  0  0  0  0  0  0
  185.0100  178.3100  143.6620 N   0  0  0  0  0  2  0  0  0  0  0  0
  187.0300  178.4280  140.8010 C   0  0  0  0  0  2  0  0  0  0  0  0
  185.9260  179.2190  141.4710 C   0  0  0  0  0  2  0  0  0  0  0  0
  189.8290  176.9180  146.7050 C   0  0  0  0  0  3  0  0  0  0  0  0
  188.9970  177.2040  147.8050 C   0  0  0  0  0  3  0  0  0  0  0  0
  184.8540  178.5200  146.7500 C   0  0  0  0  0  1  0  0  0  0  0  0
  187.6830  177.6610  147.6080 C   0  0  0  0  0  3  0  0  0  0  0  0
  184.1460  177.6480  141.6100 O   0  0  0  0  0  0  0  0  0  0  0  0
  187.4230  177.7780  144.0690 C   0  0  0  0  0  0  0  0  0  0  0  0
  189.3620  177.0900  145.3920 C   0  0  0  0  0  3  0  0  0  0  0  0
  187.8980  177.3400  142.7970 N   0  0  0  0  0  2  0  0  0  0  0  0
  186.0550  178.1830  144.4260 C   0  0  0  0  0  0  0  0  0  0  0  0
  185.0100  178.3190  142.2320 C   0  0  0  0  0  0  0  0  0  0  0  0
  187.2350  177.8310  146.2960 C   0  0  0  0  0  0  0  0  0  0  0  0
  188.0590  177.5610  145.2130 C   0  0  2  0  0  3  0  0  0  0  0  0
  186.0260  178.2000  145.8850 C   0  0  0  0  0  0  0  0  0  0  0  0
  189.4150  177.7880  140.9570 C   0  0  0  0  0  2  0  0  0  0  0  0
  189.6430  176.1450  139.2410 O   0  0  0  0  0  1  0  0  0  0  0  0
  188.9960  177.3390  139.5670 C   0  0  2  0  0  3  0  0  0  0  0  0
  189.3580  178.4130  138.5540 C   0  0  0  0  0  2  0  0  0  0  0  0
  186.7330  179.0370  137.3450 O   0  0  0  0  0  1  0  0  0  0  0  0
  188.9210  178.0580  137.1640 C   0  0  0  0  0  0  0  0  0  0  0  0
  187.6410  177.8540  135.3130 C   0  0  0  0  0  0  0  0  0  0  0  0
  189.7250  177.3150  136.1390 C   0  0  0  0  0  3  0  0  0  0  0  0
  187.7350  178.3520  136.6680 C   0  0  2  0  0  3  0  0  0  0  0  0
  188.7780  177.2670  134.9760 C   0  0  0  0  0  3  0  0  0  0  0  0
  185.4320  177.2120  134.7990 O   0  0  0  0  0  1  0  0  0  0  0  0
  186.4820  178.0380  134.3980 C   0  0  0  0  0  2  0  0  0  0  0  0
  1 18  1  6  0  0  0
  1 12  1  0  0  0  0
  2 13  1  0  0  0  0
  3  4  1  0  0  0  0
  3  1  1  0  0  0  0
  4 14  1  0  0  0  0
  5  6  1  0  0  0  0
  8  6  2  0  0  0  0
  9 14  2  0  0  0  0
 10 13  2  0  0  0  0
 10 16  1  0  0  0  0
 11  5  2  0  0  0  0
 12 10  1  0  0  0  0
 13 17  1  0  0  0  0
 14  2  1  0  0  0  0
 15  8  1  0  0  0  0
 16 11  1  6  0  0  0
 16 15  1  0  0  0  0
 17 15  2  0  0  0  0
 17  7  1  0  0  0  0
 20 19  1  6  0  0  0
 20 18  1  0  0  0  0
 21 20  1  0  0  0  0
 23 21  1  0  0  0  0
 24 26  1  0  0  0  0
 25 23  2  0  0  0  0
 26 23  1  0  0  0  0
 26 22  1  6  0  0  0
 27 24  2  0  0  0  0
 27 25  1  0  0  0  0
 29 28  1  0  0  0  0
 29 24  1  0  0  0  0
M  END
>  <MODEL>
9

>  <REMARK>
 VINA RESULT:      -8.6      1.966      3.842
  Name = 
  5 active torsions:
  status: ('A' for Active; 'I' for Inactive)
    1  A    between atoms: C_1  and  C_13
    2  A    between atoms: C_8  and  C_28
    3  A    between atoms: C_9  and  C_15
    4  A    between atoms: C_13  and  C_18
    5  A    between atoms: C_18  and  C_28
                            x       y       z     vdW  Elec       q    Type
                         _______ _______ _______ _____ _____    ______ ____

>  <TORSDO>
F 5

$$$$
