=
 OpenBabel10232410223D

 68 73  0  0  1  0  0  0  0  0999 V2000
  180.3430  179.0960  139.8350 C   0  0  0  0  0  2  0  0  0  0  0  0
  183.5430  176.0170  137.4290 C   0  0  0  0  0  2  0  0  0  0  0  0
  183.1910  179.8000  139.0140 C   0  0  0  0  0  0  0  0  0  0  0  0
  184.7200  178.0590  138.3070 C   0  0  0  0  0  0  0  0  0  0  0  0
  180.7910  179.8360  138.5800 C   0  0  0  0  0  2  0  0  0  0  0  0
  182.5570  175.6930  138.5420 C   0  0  0  0  0  2  0  0  0  0  0  0
  180.1600  175.3480  139.1600 C   0  0  0  0  0  2  0  0  0  0  0  0
  182.1140  180.5000  138.7740 C   0  0  0  0  0  3  0  0  0  0  0  0
  184.2620  179.0920  139.2620 C   0  0  0  0  0  0  0  0  0  0  0  0
  181.0990  175.8670  138.1010 C   0  0  1  0  0  0  0  0  0  0  0  0
  180.1630  176.8310  138.8170 C   0  0  2  0  0  3  0  0  0  0  0  0
  183.7560  177.5160  137.2780 C   0  0  0  0  0  2  0  0  0  0  0  0
  180.7110  177.1590  141.1390 F   0  0  0  0  0  0  0  0  0  0  0  0
  186.0150  177.7110  138.2980 C   0  0  0  0  0  3  0  0  0  0  0  0
  180.8850  177.6760  139.8700 C   0  0  2  0  0  3  0  0  0  0  0  0
  185.1120  179.5090  140.4170 C   0  0  0  0  0  2  0  0  0  0  0  0
  184.4540  179.1650  141.7500 C   0  0  0  0  0  2  0  0  0  0  0  0
  185.4440  179.1770  142.9130 C   0  0  0  0  0  2  0  0  0  0  0  0
  185.8160  177.7690  143.3480 C   0  0  0  0  0  2  0  0  0  0  0  0
  186.8430  179.1820  146.2150 N   0  0  0  0  0  0  0  0  0  0  0  0
  185.7400  177.6650  144.8590 C   0  0  1  0  0  3  0  0  0  0  0  0
  187.0100  178.1260  145.4880 C   0  0  0  0  0  0  0  0  0  0  0  0
  184.8590  178.7310  145.4120 C   0  0  0  0  0  0  0  0  0  0  0  0
  185.4970  179.5520  146.1750 N   0  0  0  0  0  0  0  0  0  0  0  0
  183.4500  178.8020  145.2060 N   0  0  0  0  0  1  0  0  0  0  0  0
  188.2800  177.4920  145.3030 N   0  0  0  0  0  2  0  0  0  0  0  0
  189.4930  177.9560  145.9670 C   0  0  1  0  0  3  0  0  0  0  0  0
  189.7840  177.1860  147.2530 C   0  0  2  0  0  0  0  0  0  0  0  0
  189.2090  177.9470  148.4360 C   0  0  0  0  0  1  0  0  0  0  0  0
  191.7940  175.6800  145.5410 O   0  0  0  0  0  1  0  0  0  0  0  0
  191.2480  177.1320  147.3440 N   0  0  2  0  0  0  0  0  0  0  0  0
  191.7240  177.0180  145.9560 C   0  0  2  0  0  3  0  0  0  0  0  0
  190.7090  177.7390  145.0860 C   0  0  0  0  0  2  0  0  0  0  0  0
  189.2290  175.8970  147.2040 O   0  0  0  0  0  1  0  0  0  0  0  0
  192.8040  176.5660  149.1410 C   0  0  0  0  0  2  0  0  0  0  0  0
  193.2050  175.7880  147.9100 C   0  0  0  0  0  2  0  0  0  0  0  0
  191.7360  176.0390  148.1960 C   0  0  0  0  0  3  0  0  0  0  0  0
  180.6560  175.4540  136.7060 C   0  0  0  0  0  2  0  0  0  0  0  0
  180.4180  174.0550  136.6540 O   0  0  0  0  0  0  0  0  0  0  0  0
  180.0700  172.0160  135.4290 O   0  0  0  0  0  1  0  0  0  0  0  0
  180.2610  173.3910  135.4380 C   0  0  0  0  0  0  0  0  0  0  0  0
  180.2710  174.0240  134.3460 O   0  0  0  0  0  0  0  0  0  0  0  0
  186.6100  176.7260  137.3310 C   0  0  1  0  0  3  0  0  0  0  0  0
  187.4000  177.4330  135.0430 C   0  0  0  0  0  3  0  0  0  0  0  0
  186.4150  177.1250  135.8910 C   0  0  0  0  0  3  0  0  0  0  0  0
  188.8500  177.4390  135.3440 C   0  0  0  0  0  0  0  0  0  0  0  0
  189.6560  176.2990  135.0380 N   0  0  0  0  0  2  0  0  0  0  0  0
  189.3980  178.4500  135.8580 O   0  0  0  0  0  0  0  0  0  0  0  0
  189.1350  175.1290  134.3470 C   0  0  0  0  0  2  0  0  0  0  0  0
  189.3260  173.8960  135.2040 C   0  0  1  0  0  3  0  0  0  0  0  0
  187.4820  173.3210  136.6020 O   0  0  0  0  0  1  0  0  0  0  0  0
  188.0000  173.2500  135.4570 C   0  0  0  0  0  0  0  0  0  0  0  0
  187.3360  172.5770  134.4380 O   0  0  0  0  0  0  0  0  0  0  0  0
  190.3070  172.9410  134.5040 C   0  0  0  0  0  2  0  0  0  0  0  0
  194.6270  170.8420  135.3560 C   0  0  0  0  0  1  0  0  0  0  0  0
  193.9430  172.0960  134.8480 C   0  0  2  0  0  3  0  0  0  0  0  0
  193.2590  173.5480  136.8030 C   0  0  0  0  0  2  0  0  0  0  0  0
  191.8740  173.7870  136.1680 C   0  0  0  0  0  2  0  0  0  0  0  0
  191.7220  173.1480  134.8430 N   0  0  0  0  0  0  0  0  0  0  0  0
  194.3150  173.2940  135.7320 C   0  0  0  0  0  2  0  0  0  0  0  0
  192.4300  171.8670  134.7820 C   0  0  0  0  0  2  0  0  0  0  0  0
  187.9440  176.3860  137.6460 O   0  0  0  0  0  0  0  0  0  0  0  0
  188.2130  176.7060  138.9900 C   0  0  0  0  0  2  0  0  0  0  0  0
  189.3270  177.7380  139.0740 C   0  0  0  0  0  2  0  0  0  0  0  0
  190.4400  177.2900  140.0120 C   0  0  0  0  0  2  0  0  0  0  0  0
  189.9520  177.1990  141.4540 C   0  0  0  0  0  2  0  0  0  0  0  0
  190.7470  176.1690  142.2430 C   0  0  0  0  0  2  0  0  0  0  0  0
  189.8870  175.2840  142.8900 O   0  0  0  0  0  1  0  0  0  0  0  0
  1 15  1  0  0  0  0
  2  6  1  0  0  0  0
  3  9  2  0  0  0  0
  4  9  1  0  0  0  0
  5  8  1  0  0  0  0
  5  1  1  0  0  0  0
  8  3  2  0  0  0  0
  9 16  1  0  0  0  0
 10 38  1  6  0  0  0
 10  6  1  0  0  0  0
 10 11  1  0  0  0  0
 10  7  1  0  0  0  0
 11  7  1  1  0  0  0
 11 15  1  0  0  0  0
 12  2  1  0  0  0  0
 12  4  1  0  0  0  0
 14  4  2  0  0  0  0
 15 13  1  1  0  0  0
 16 17  1  0  0  0  0
 17 18  1  0  0  0  0
 18 19  1  0  0  0  0
 21 19  1  6  0  0  0
 21 23  1  0  0  0  0
 21 22  1  0  0  0  0
 22 20  2  0  0  0  0
 23 24  2  0  0  0  0
 24 20  1  0  0  0  0
 25 23  1  0  0  0  0
 26 22  1  0  0  0  0
 27 26  1  6  0  0  0
 27 28  1  0  0  0  0
 28 31  1  0  0  0  0
 28 29  1  1  0  0  0
 31 37  1  1  0  0  0
 32 30  1  6  0  0  0
 32 31  1  0  0  0  0
 33 32  1  0  0  0  0
 33 27  1  0  0  0  0
 34 28  1  0  0  0  0
 36 37  1  0  0  0  0
 36 35  1  0  0  0  0
 37 35  1  0  0  0  0
 39 38  1  0  0  0  0
 40 41  1  0  0  0  0
 41 39  1  0  0  0  0
 42 41  2  0  0  0  0
 43 45  1  6  0  0  0
 43 62  1  0  0  0  0
 43 14  1  0  0  0  0
 44 46  1  0  0  0  0
 44 45  2  0  0  0  0
 46 48  2  0  0  0  0
 47 46  1  0  0  0  0
 49 47  1  0  0  0  0
 50 49  1  6  0  0  0
 50 52  1  0  0  0  0
 52 51  1  0  0  0  0
 53 52  2  0  0  0  0
 54 59  1  0  0  0  0
 54 50  1  0  0  0  0
 56 55  1  1  0  0  0
 56 60  1  0  0  0  0
 58 57  1  0  0  0  0
 59 58  1  0  0  0  0
 60 57  1  0  0  0  0
 61 59  1  0  0  0  0
 61 56  1  0  0  0  0
 62 63  1  0  0  0  0
 63 64  1  0  0  0  0
 64 65  1  0  0  0  0
 65 66  1  0  0  0  0
 66 67  1  0  0  0  0
 67 68  1  0  0  0  0
M  END
>  <MODEL>
1

>  <REMARK>
 VINA RESULT:      -5.9      0.000      0.000
  Name = 
  24 active torsions:
  status: ('A' for Active; 'I' for Inactive)
    1  A    between atoms: C_1  and  C_38
    2  A    between atoms: C_1  and  O_52
    3  A    between atoms: C_2  and  C_4
    4  A    between atoms: C_3  and  N_61
    5  A    between atoms: C_5  and  C_35
    6  A    between atoms: C_5  and  N_42
    7  A    between atoms: C_10  and  C_31
    8  A    between atoms: C_10  and  C_58
    9  A    between atoms: C_16  and  C_18
   10  A    between atoms: C_16  and  C_25
   11  A    between atoms: C_18  and  C_27
   12  A    between atoms: C_22  and  C_33
   13  A    between atoms: C_27  and  C_33
   14  A    between atoms: C_29  and  O_52
   15  A    between atoms: C_31  and  C_34
   16  A    between atoms: C_32  and  C_58
   17  A    between atoms: C_34  and  O_56
   18  A    between atoms: C_35  and  C_37
   19  A    between atoms: C_35  and  C_47
   20  A    between atoms: N_36  and  C_67
   21  A    between atoms: C_37  and  N_60
   22  A    between atoms: C_55  and  C_57
   23  A    between atoms: O_56  and  C_57
   24  A    between atoms: C_57  and  C_64
                            x       y       z     vdW  Elec       q    Type
                         _______ _______ _______ _____ _____    ______ ____

>  <TORSDO>
F 24

$$$$
=
 OpenBabel10232410223D

 68 73  0  0  1  0  0  0  0  0999 V2000
  191.9140  176.4640  142.7170 C   0  0  0  0  0  2  0  0  0  0  0  0
  187.5870  178.1760  140.7550 C   0  0  0  0  0  2  0  0  0  0  0  0
  191.5230  177.3940  139.8420 C   0  0  0  0  0  0  0  0  0  0  0  0
  189.2910  177.7240  138.9610 C   0  0  0  0  0  0  0  0  0  0  0  0
  192.2190  177.8400  142.1370 C   0  0  0  0  0  2  0  0  0  0  0  0
  187.8080  177.0260  141.7270 C   0  0  0  0  0  2  0  0  0  0  0  0
  188.3530  176.3650  144.0750 C   0  0  0  0  0  2  0  0  0  0  0  0
  192.4630  177.7770  140.6660 C   0  0  0  0  0  3  0  0  0  0  0  0
  190.5810  177.0000  139.0260 C   0  0  0  0  0  0  0  0  0  0  0  0
  188.3380  177.5020  143.0850 C   0  0  1  0  0  0  0  0  0  0  0  0
  189.6650  177.0020  143.6390 C   0  0  2  0  0  3  0  0  0  0  0  0
  188.8850  178.6270  140.1030 C   0  0  0  0  0  2  0  0  0  0  0  0
  190.2520  174.7920  142.8840 F   0  0  0  0  0  0  0  0  0  0  0  0
  188.5630  177.6540  137.8380 C   0  0  0  0  0  3  0  0  0  0  0  0
  190.4320  176.1390  142.6340 C   0  0  2  0  0  3  0  0  0  0  0  0
  190.9290  175.9490  138.0240 C   0  0  0  0  0  2  0  0  0  0  0  0
  189.9040  174.8200  138.0190 C   0  0  0  0  0  2  0  0  0  0  0  0
  190.1530  173.8080  136.9010 C   0  0  0  0  0  2  0  0  0  0  0  0
  191.6370  173.5640  136.6840 C   0  0  0  0  0  2  0  0  0  0  0  0
  192.0000  170.7630  134.8690 N   0  0  0  0  0  0  0  0  0  0  0  0
  191.8680  173.0370  135.2810 C   0  0  1  0  0  3  0  0  0  0  0  0
  192.6670  171.7790  135.3110 C   0  0  0  0  0  0  0  0  0  0  0  0
  190.6140  172.4500  134.7310 C   0  0  0  0  0  0  0  0  0  0  0  0
  190.7210  171.1870  134.4970 N   0  0  0  0  0  0  0  0  0  0  0  0
  189.4460  173.2010  134.4080 N   0  0  0  0  0  1  0  0  0  0  0  0
  194.0120  171.6870  135.7880 N   0  0  0  0  0  2  0  0  0  0  0  0
  194.7700  170.4410  135.7660 C   0  0  1  0  0  3  0  0  0  0  0  0
  196.1330  170.5740  136.4410 C   0  0  2  0  0  0  0  0  0  0  0  0
  197.1870  170.8800  135.3920 C   0  0  0  0  0  1  0  0  0  0  0  0
  194.7640  169.2160  138.7920 O   0  0  0  0  0  1  0  0  0  0  0  0
  196.3870  169.2640  137.0530 N   0  0  2  0  0  0  0  0  0  0  0  0
  195.0710  168.7750  137.4950 C   0  0  2  0  0  3  0  0  0  0  0  0
  194.0460  169.3530  136.5350 C   0  0  0  0  0  2  0  0  0  0  0  0
  196.1160  171.5930  137.4090 O   0  0  0  0  0  1  0  0  0  0  0  0
  198.6190  168.5560  137.7500 C   0  0  0  0  0  2  0  0  0  0  0  0
  197.6130  167.9130  138.6750 C   0  0  0  0  0  2  0  0  0  0  0  0
  197.3640  169.3160  138.1490 C   0  0  0  0  0  3  0  0  0  0  0  0
  187.8200  178.7860  143.7130 C   0  0  0  0  0  2  0  0  0  0  0  0
  187.0190  178.4970  144.8490 O   0  0  0  0  0  0  0  0  0  0  0  0
  184.8570  178.1340  145.8350 O   0  0  0  0  0  1  0  0  0  0  0  0
  185.6380  178.6910  144.8330 C   0  0  0  0  0  0  0  0  0  0  0  0
  185.0910  179.3830  143.9290 O   0  0  0  0  0  0  0  0  0  0  0  0
  187.2740  178.3980  137.6290 C   0  0  1  0  0  3  0  0  0  0  0  0
  186.8490  178.0700  135.1650 C   0  0  0  0  0  3  0  0  0  0  0  0
  187.0890  178.8680  136.2100 C   0  0  0  0  0  3  0  0  0  0  0  0
  186.7170  176.5960  135.1960 C   0  0  0  0  0  0  0  0  0  0  0  0
  185.4340  175.9900  135.3680 N   0  0  0  0  0  2  0  0  0  0  0  0
  187.7260  175.8550  135.0580 O   0  0  0  0  0  0  0  0  0  0  0  0
  184.2000  176.7600  135.4280 C   0  0  0  0  0  2  0  0  0  0  0  0
  183.0070  175.8310  135.3510 C   0  0  1  0  0  3  0  0  0  0  0  0
  181.8440  177.8340  134.7880 O   0  0  0  0  0  1  0  0  0  0  0  0
  181.8250  176.5760  134.8160 C   0  0  0  0  0  0  0  0  0  0  0  0
  180.7100  175.8900  134.3470 O   0  0  0  0  0  0  0  0  0  0  0  0
  183.3670  174.6180  134.4770 C   0  0  0  0  0  2  0  0  0  0  0  0
  180.5880  171.7420  137.2700 C   0  0  0  0  0  1  0  0  0  0  0  0
  181.6480  171.7590  136.1850 C   0  0  2  0  0  3  0  0  0  0  0  0
  183.9330  172.0690  137.2250 C   0  0  0  0  0  2  0  0  0  0  0  0
  184.3010  173.1150  136.1540 C   0  0  0  0  0  2  0  0  0  0  0  0
  183.2390  173.3150  135.1430 N   0  0  0  0  0  0  0  0  0  0  0  0
  182.9220  171.0630  136.6810 C   0  0  0  0  0  2  0  0  0  0  0  0
  181.9050  173.2010  135.7380 C   0  0  0  0  0  2  0  0  0  0  0  0
  186.1530  177.7090  138.1460 O   0  0  0  0  0  0  0  0  0  0  0  0
  185.1330  178.6270  138.4600 C   0  0  0  0  0  2  0  0  0  0  0  0
  184.0230  177.9360  139.2380 C   0  0  0  0  0  2  0  0  0  0  0  0
  182.9350  178.9150  139.6560 C   0  0  0  0  0  2  0  0  0  0  0  0
  181.9780  179.2100  138.5060 C   0  0  0  0  0  2  0  0  0  0  0  0
  181.6870  180.7000  138.3970 C   0  0  0  0  0  2  0  0  0  0  0  0
  181.2070  181.0080  137.1250 O   0  0  0  0  0  1  0  0  0  0  0  0
  2  6  1  0  0  0  0
  3  8  2  0  0  0  0
  4  9  1  0  0  0  0
  4 12  1  0  0  0  0
  5  1  1  0  0  0  0
  6 10  1  0  0  0  0
  8  5  1  0  0  0  0
  9  3  2  0  0  0  0
 10 11  1  0  0  0  0
 10 38  1  1  0  0  0
 10  7  1  0  0  0  0
 11  7  1  1  0  0  0
 12  2  1  0  0  0  0
 14  4  2  0  0  0  0
 15  1  1  0  0  0  0
 15 13  1  1  0  0  0
 15 11  1  0  0  0  0
 16  9  1  0  0  0  0
 17 16  1  0  0  0  0
 18 17  1  0  0  0  0
 19 18  1  0  0  0  0
 20 22  2  0  0  0  0
 21 22  1  0  0  0  0
 21 19  1  1  0  0  0
 22 26  1  0  0  0  0
 23 21  1  0  0  0  0
 24 23  2  0  0  0  0
 24 20  1  0  0  0  0
 25 23  1  0  0  0  0
 27 26  1  1  0  0  0
 27 28  1  0  0  0  0
 27 33  1  0  0  0  0
 28 29  1  6  0  0  0
 28 31  1  0  0  0  0
 28 34  1  0  0  0  0
 31 32  1  0  0  0  0
 31 37  1  1  0  0  0
 32 30  1  1  0  0  0
 33 32  1  0  0  0  0
 35 37  1  0  0  0  0
 35 36  1  0  0  0  0
 37 36  1  0  0  0  0
 38 39  1  0  0  0  0
 41 39  1  0  0  0  0
 41 40  1  0  0  0  0
 42 41  2  0  0  0  0
 43 45  1  6  0  0  0
 43 14  1  0  0  0  0
 43 62  1  0  0  0  0
 44 46  1  0  0  0  0
 44 45  2  0  0  0  0
 46 47  1  0  0  0  0
 47 49  1  0  0  0  0
 48 46  2  0  0  0  0
 50 54  1  6  0  0  0
 50 49  1  0  0  0  0
 51 52  1  0  0  0  0
 52 50  1  0  0  0  0
 53 52  2  0  0  0  0
 54 59  1  0  0  0  0
 56 60  1  0  0  0  0
 56 55  1  1  0  0  0
 58 57  1  0  0  0  0
 59 61  1  0  0  0  0
 59 58  1  0  0  0  0
 60 57  1  0  0  0  0
 61 56  1  0  0  0  0
 62 63  1  0  0  0  0
 63 64  1  0  0  0  0
 64 65  1  0  0  0  0
 66 65  1  0  0  0  0
 67 66  1  0  0  0  0
 68 67  1  0  0  0  0
M  END
>  <MODEL>
2

>  <REMARK>
 VINA RESULT:      -4.4      4.194     10.189
  Name = 
  24 active torsions:
  status: ('A' for Active; 'I' for Inactive)
    1  A    between atoms: C_1  and  C_38
    2  A    between atoms: C_1  and  O_52
    3  A    between atoms: C_2  and  C_4
    4  A    between atoms: C_3  and  N_61
    5  A    between atoms: C_5  and  C_35
    6  A    between atoms: C_5  and  N_42
    7  A    between atoms: C_10  and  C_31
    8  A    between atoms: C_10  and  C_58
    9  A    between atoms: C_16  and  C_18
   10  A    between atoms: C_16  and  C_25
   11  A    between atoms: C_18  and  C_27
   12  A    between atoms: C_22  and  C_33
   13  A    between atoms: C_27  and  C_33
   14  A    between atoms: C_29  and  O_52
   15  A    between atoms: C_31  and  C_34
   16  A    between atoms: C_32  and  C_58
   17  A    between atoms: C_34  and  O_56
   18  A    between atoms: C_35  and  C_37
   19  A    between atoms: C_35  and  C_47
   20  A    between atoms: N_36  and  C_67
   21  A    between atoms: C_37  and  N_60
   22  A    between atoms: C_55  and  C_57
   23  A    between atoms: O_56  and  C_57
   24  A    between atoms: C_57  and  C_64
                            x       y       z     vdW  Elec       q    Type
                         _______ _______ _______ _____ _____    ______ ____

>  <TORSDO>
F 24

$$$$
=
 OpenBabel10232410223D

 68 73  0  0  1  0  0  0  0  0999 V2000
  185.5150  178.4380  147.5770 C   0  0  0  0  0  2  0  0  0  0  0  0
  189.1680  177.3460  144.2650 C   0  0  0  0  0  2  0  0  0  0  0  0
  185.1150  177.9810  144.5910 C   0  0  0  0  0  0  0  0  0  0  0  0
  187.0220  177.9430  143.0980 C   0  0  0  0  0  0  0  0  0  0  0  0
  185.0960  177.1470  146.8840 C   0  0  0  0  0  2  0  0  0  0  0  0
  189.1970  178.3180  145.4360 C   0  0  0  0  0  2  0  0  0  0  0  0
  189.3100  178.5790  147.9190 C   0  0  0  0  0  2  0  0  0  0  0  0
  184.4510  177.4130  145.5640 C   0  0  0  0  0  3  0  0  0  0  0  0
  185.7830  178.5570  143.6270 C   0  0  0  0  0  0  0  0  0  0  0  0
  189.0780  177.6080  146.7890 C   0  0  1  0  0  0  0  0  0  0  0  0
  187.9450  177.9250  147.7550 C   0  0  2  0  0  3  0  0  0  0  0  0
  187.7510  176.9090  143.9230 C   0  0  0  0  0  2  0  0  0  0  0  0
  187.1160  180.1770  147.5600 F   0  0  0  0  0  0  0  0  0  0  0  0
  187.4070  178.2320  141.8470 C   0  0  0  0  0  3  0  0  0  0  0  0
  186.9070  178.8740  147.1510 C   0  0  2  0  0  3  0  0  0  0  0  0
  185.1440  179.7200  142.9430 C   0  0  0  0  0  2  0  0  0  0  0  0
  183.6610  179.8250  143.2860 C   0  0  0  0  0  2  0  0  0  0  0  0
  182.8110  178.8050  142.5290 C   0  0  0  0  0  2  0  0  0  0  0  0
  183.2280  178.6980  141.0710 C   0  0  0  0  0  2  0  0  0  0  0  0
  180.5960  178.0690  139.0850 N   0  0  0  0  0  0  0  0  0  0  0  0
  182.1770  179.3460  140.1920 C   0  0  1  0  0  3  0  0  0  0  0  0
  181.8260  178.4630  139.0430 C   0  0  0  0  0  0  0  0  0  0  0  0
  180.8470  179.3210  140.8610 C   0  0  0  0  0  0  0  0  0  0  0  0
  179.9820  178.6150  140.2160 N   0  0  0  0  0  0  0  0  0  0  0  0
  180.5200  180.0590  142.0370 N   0  0  0  0  0  1  0  0  0  0  0  0
  182.7410  178.0730  138.0150 N   0  0  0  0  0  2  0  0  0  0  0  0
  182.3450  177.2350  136.8880 C   0  0  1  0  0  3  0  0  0  0  0  0
  182.8960  175.8150  136.9950 C   0  0  2  0  0  0  0  0  0  0  0  0
  184.1970  175.7200  136.2170 C   0  0  0  0  0  1  0  0  0  0  0  0
  180.0970  175.1240  137.9580 O   0  0  0  0  0  1  0  0  0  0  0  0
  181.8730  174.9600  136.3830 N   0  0  2  0  0  0  0  0  0  0  0  0
  180.5840  175.5840  136.7250 C   0  0  2  0  0  3  0  0  0  0  0  0
  180.8380  177.0770  136.8350 C   0  0  0  0  0  2  0  0  0  0  0  0
  183.1190  175.4620  138.3360 O   0  0  0  0  0  1  0  0  0  0  0  0
  181.5570  172.6440  135.6700 C   0  0  0  0  0  2  0  0  0  0  0  0
  180.5680  172.9340  136.7750 C   0  0  0  0  0  2  0  0  0  0  0  0
  181.9510  173.5590  136.8190 C   0  0  0  0  0  3  0  0  0  0  0  0
  189.7820  176.2820  147.0340 C   0  0  0  0  0  2  0  0  0  0  0  0
  191.0010  176.4890  147.7330 O   0  0  0  0  0  0  0  0  0  0  0  0
  192.2680  175.3500  146.0370 O   0  0  0  0  0  0  0  0  0  0  0  0
  192.1890  175.8910  147.3130 C   0  0  0  0  0  0  0  0  0  0  0  0
  193.1980  175.8500  148.0700 O   0  0  0  0  0  1  0  0  0  0  0  0
  188.6060  177.6190  141.1790 C   0  0  1  0  0  3  0  0  0  0  0  0
  188.4340  178.5090  138.8250 C   0  0  0  0  0  3  0  0  0  0  0  0
  189.0840  178.4100  139.9890 C   0  0  0  0  0  3  0  0  0  0  0  0
  187.1400  177.8770  138.4840 C   0  0  0  0  0  0  0  0  0  0  0  0
  187.1060  176.6400  137.7690 N   0  0  0  0  0  2  0  0  0  0  0  0
  186.0510  178.4080  138.8300 O   0  0  0  0  0  0  0  0  0  0  0  0
  188.3090  175.8980  137.4210 C   0  0  0  0  0  2  0  0  0  0  0  0
  188.4500  175.8210  135.9150 C   0  0  1  0  0  3  0  0  0  0  0  0
  189.7510  177.8100  136.1060 O   0  0  0  0  0  1  0  0  0  0  0  0
  189.5340  176.7500  135.4640 C   0  0  0  0  0  0  0  0  0  0  0  0
  190.3030  176.4490  134.3460 O   0  0  0  0  0  0  0  0  0  0  0  0
  188.7340  174.3650  135.5090 C   0  0  0  0  0  2  0  0  0  0  0  0
  187.1150  169.7900  135.0120 C   0  0  0  0  0  1  0  0  0  0  0  0
  186.9430  171.0840  135.7850 C   0  0  2  0  0  3  0  0  0  0  0  0
  185.5020  172.6860  134.4580 C   0  0  0  0  0  2  0  0  0  0  0  0
  186.4720  173.8450  134.7660 C   0  0  0  0  0  2  0  0  0  0  0  0
  187.5920  173.4500  135.6460 N   0  0  0  0  0  0  0  0  0  0  0  0
  185.5290  171.6410  135.5710 C   0  0  0  0  0  2  0  0  0  0  0  0
  188.0320  172.0790  135.3720 C   0  0  0  0  0  2  0  0  0  0  0  0
  189.6350  177.2940  142.0900 O   0  0  0  0  0  0  0  0  0  0  0  0
  190.6040  176.4980  141.4500 C   0  0  0  0  0  2  0  0  0  0  0  0
  191.3980  177.3320  140.4550 C   0  0  0  0  0  2  0  0  0  0  0  0
  191.6790  176.5610  139.1730 C   0  0  0  0  0  2  0  0  0  0  0  0
  193.1390  176.6910  138.7530 C   0  0  0  0  0  2  0  0  0  0  0  0
  193.4890  175.6970  137.6550 C   0  0  0  0  0  2  0  0  0  0  0  0
  193.6720  176.3580  136.4420 O   0  0  0  0  0  1  0  0  0  0  0  0
  2  6  1  0  0  0  0
  3  8  2  0  0  0  0
  4  9  1  0  0  0  0
  4 12  1  0  0  0  0
  5  1  1  0  0  0  0
  6 10  1  0  0  0  0
  8  5  1  0  0  0  0
  9  3  2  0  0  0  0
 10 38  1  1  0  0  0
 10 11  1  0  0  0  0
 10  7  1  0  0  0  0
 11  7  1  1  0  0  0
 12  2  1  0  0  0  0
 14  4  2  0  0  0  0
 15 13  1  1  0  0  0
 15  1  1  0  0  0  0
 15 11  1  0  0  0  0
 16 17  1  0  0  0  0
 16  9  1  0  0  0  0
 18 17  1  0  0  0  0
 19 18  1  0  0  0  0
 20 24  1  0  0  0  0
 21 23  1  0  0  0  0
 21 19  1  1  0  0  0
 22 20  2  0  0  0  0
 22 21  1  0  0  0  0
 23 25  1  0  0  0  0
 24 23  2  0  0  0  0
 26 22  1  0  0  0  0
 27 28  1  0  0  0  0
 27 26  1  1  0  0  0
 28 29  1  6  0  0  0
 28 34  1  0  0  0  0
 31 32  1  0  0  0  0
 31 37  1  1  0  0  0
 31 28  1  0  0  0  0
 32 33  1  0  0  0  0
 32 30  1  1  0  0  0
 33 27  1  0  0  0  0
 35 36  1  0  0  0  0
 35 37  1  0  0  0  0
 36 37  1  0  0  0  0
 38 39  1  0  0  0  0
 40 41  2  0  0  0  0
 41 39  1  0  0  0  0
 41 42  1  0  0  0  0
 43 45  1  6  0  0  0
 43 14  1  0  0  0  0
 43 62  1  0  0  0  0
 44 45  2  0  0  0  0
 46 44  1  0  0  0  0
 46 48  2  0  0  0  0
 47 46  1  0  0  0  0
 49 47  1  0  0  0  0
 50 54  1  1  0  0  0
 50 49  1  0  0  0  0
 52 50  1  0  0  0  0
 52 51  1  0  0  0  0
 53 52  2  0  0  0  0
 54 59  1  0  0  0  0
 56 55  1  6  0  0  0
 57 58  1  0  0  0  0
 57 60  1  0  0  0  0
 58 59  1  0  0  0  0
 60 56  1  0  0  0  0
 61 59  1  0  0  0  0
 61 56  1  0  0  0  0
 63 62  1  0  0  0  0
 64 63  1  0  0  0  0
 65 64  1  0  0  0  0
 66 65  1  0  0  0  0
 67 66  1  0  0  0  0
 68 67  1  0  0  0  0
M  END
>  <MODEL>
3

>  <REMARK>
 VINA RESULT:      -3.7      3.222      9.306
  Name = 
  24 active torsions:
  status: ('A' for Active; 'I' for Inactive)
    1  A    between atoms: C_1  and  C_38
    2  A    between atoms: C_1  and  O_52
    3  A    between atoms: C_2  and  C_4
    4  A    between atoms: C_3  and  N_61
    5  A    between atoms: C_5  and  C_35
    6  A    between atoms: C_5  and  N_42
    7  A    between atoms: C_10  and  C_31
    8  A    between atoms: C_10  and  C_58
    9  A    between atoms: C_16  and  C_18
   10  A    between atoms: C_16  and  C_25
   11  A    between atoms: C_18  and  C_27
   12  A    between atoms: C_22  and  C_33
   13  A    between atoms: C_27  and  C_33
   14  A    between atoms: C_29  and  O_52
   15  A    between atoms: C_31  and  C_34
   16  A    between atoms: C_32  and  C_58
   17  A    between atoms: C_34  and  O_56
   18  A    between atoms: C_35  and  C_37
   19  A    between atoms: C_35  and  C_47
   20  A    between atoms: N_36  and  C_67
   21  A    between atoms: C_37  and  N_60
   22  A    between atoms: C_55  and  C_57
   23  A    between atoms: O_56  and  C_57
   24  A    between atoms: C_57  and  C_64
                            x       y       z     vdW  Elec       q    Type
                         _______ _______ _______ _____ _____    ______ ____

>  <TORSDO>
F 24

$$$$
=
 OpenBabel10232410223D

 68 73  0  0  1  0  0  0  0  0999 V2000
  191.8100  176.6750  142.7660 C   0  0  0  0  0  2  0  0  0  0  0  0
  187.2900  178.0410  140.9720 C   0  0  0  0  0  2  0  0  0  0  0  0
  191.2280  177.5130  139.8950 C   0  0  0  0  0  0  0  0  0  0  0  0
  188.9410  177.6680  139.1110 C   0  0  0  0  0  0  0  0  0  0  0  0
  191.9920  178.0560  142.1470 C   0  0  0  0  0  2  0  0  0  0  0  0
  187.6350  176.9300  141.9550 C   0  0  0  0  0  2  0  0  0  0  0  0
  188.3280  176.3590  144.2870 C   0  0  0  0  0  2  0  0  0  0  0  0
  192.1740  177.9770  140.6680 C   0  0  0  0  0  3  0  0  0  0  0  0
  190.2800  177.0370  139.1300 C   0  0  0  0  0  0  0  0  0  0  0  0
  188.1890  177.4700  143.2770 C   0  0  1  0  0  0  0  0  0  0  0  0
  189.5710  177.0760  143.7790 C   0  0  2  0  0  3  0  0  0  0  0  0
  188.5240  178.5650  140.2530 C   0  0  0  0  0  2  0  0  0  0  0  0
  190.2770  174.8960  143.0400 F   0  0  0  0  0  0  0  0  0  0  0  0
  188.1710  177.5240  138.0240 C   0  0  0  0  0  3  0  0  0  0  0  0
  190.3520  176.2460  142.7570 C   0  0  2  0  0  3  0  0  0  0  0  0
  190.6560  175.9910  138.1340 C   0  0  0  0  0  2  0  0  0  0  0  0
  189.4750  175.0860  137.7990 C   0  0  0  0  0  2  0  0  0  0  0  0
  189.7800  174.1240  136.6510 C   0  0  0  0  0  2  0  0  0  0  0  0
  191.1190  173.4300  136.8420 C   0  0  0  0  0  2  0  0  0  0  0  0
  193.1340  171.2490  135.2760 N   0  0  0  0  0  0  0  0  0  0  0  0
  191.6910  173.0460  135.4910 C   0  0  1  0  0  3  0  0  0  0  0  0
  193.0660  172.4890  135.6360 C   0  0  0  0  0  0  0  0  0  0  0  0
  191.0400  171.8070  134.9800 C   0  0  0  0  0  0  0  0  0  0  0  0
  191.8690  170.8280  134.8560 N   0  0  0  0  0  0  0  0  0  0  0  0
  189.6730  171.7190  134.5840 N   0  0  0  0  0  1  0  0  0  0  0  0
  194.1880  173.2250  136.1320 N   0  0  0  0  0  2  0  0  0  0  0  0
  195.5260  172.6500  136.2230 C   0  0  1  0  0  3  0  0  0  0  0  0
  196.6150  173.6410  135.8190 C   0  0  2  0  0  0  0  0  0  0  0  0
  196.9590  173.4420  134.3540 C   0  0  0  0  0  1  0  0  0  0  0  0
  197.0040  173.9730  138.8160 O   0  0  0  0  0  1  0  0  0  0  0  0
  197.7680  173.3080  136.6640 N   0  0  2  0  0  0  0  0  0  0  0  0
  197.2010  172.8830  137.9540 C   0  0  2  0  0  3  0  0  0  0  0  0
  195.8500  172.2580  137.6520 C   0  0  0  0  0  2  0  0  0  0  0  0
  196.1940  174.9640  136.0320 O   0  0  0  0  0  1  0  0  0  0  0  0
  200.1390  173.8680  136.8610 C   0  0  0  0  0  2  0  0  0  0  0  0
  199.4480  174.2940  138.1350 C   0  0  0  0  0  2  0  0  0  0  0  0
  198.7220  174.4160  136.8080 C   0  0  0  0  0  3  0  0  0  0  0  0
  187.6110  178.7300  143.9040 C   0  0  0  0  0  2  0  0  0  0  0  0
  186.8390  178.4050  145.0510 O   0  0  0  0  0  0  0  0  0  0  0  0
  184.8970  178.6910  146.4380 O   0  0  0  0  0  1  0  0  0  0  0  0
  185.5860  178.9770  145.2680 C   0  0  0  0  0  0  0  0  0  0  0  0
  185.0770  179.7650  144.4230 O   0  0  0  0  0  0  0  0  0  0  0  0
  186.8240  178.1720  137.8600 C   0  0  1  0  0  3  0  0  0  0  0  0
  186.1940  177.4930  135.5150 C   0  0  0  0  0  3  0  0  0  0  0  0
  186.4690  178.4370  136.4200 C   0  0  0  0  0  3  0  0  0  0  0  0
  186.1800  176.0310  135.7450 C   0  0  0  0  0  0  0  0  0  0  0  0
  184.9950  175.3850  136.2150 N   0  0  0  0  0  2  0  0  0  0  0  0
  187.2030  175.3320  135.5180 O   0  0  0  0  0  0  0  0  0  0  0  0
  183.7360  176.0900  136.4030 C   0  0  0  0  0  2  0  0  0  0  0  0
  182.6050  175.3030  135.7760 C   0  0  1  0  0  3  0  0  0  0  0  0
  180.4130  176.0630  135.2260 O   0  0  0  0  0  1  0  0  0  0  0  0
  181.6530  176.2410  135.1040 C   0  0  0  0  0  0  0  0  0  0  0  0
  182.1270  177.3090  134.3500 O   0  0  0  0  0  0  0  0  0  0  0  0
  183.1890  174.2740  134.7930 C   0  0  0  0  0  2  0  0  0  0  0  0
  185.7810  170.1500  135.0650 C   0  0  0  0  0  1  0  0  0  0  0  0
  184.7450  171.0060  135.7680 C   0  0  2  0  0  3  0  0  0  0  0  0
  182.4560  170.5550  134.7880 C   0  0  0  0  0  2  0  0  0  0  0  0
  182.1570  172.0670  134.7390 C   0  0  0  0  0  2  0  0  0  0  0  0
  183.2450  172.8960  135.3000 N   0  0  0  0  0  0  0  0  0  0  0  0
  183.4310  170.2270  135.9160 C   0  0  0  0  0  2  0  0  0  0  0  0
  184.5610  172.3220  135.0070 C   0  0  0  0  0  2  0  0  0  0  0  0
  185.8050  177.5090  138.5800 O   0  0  0  0  0  0  0  0  0  0  0  0
  184.5530  178.0610  138.2510 C   0  0  0  0  0  2  0  0  0  0  0  0
  184.2200  179.2100  139.1920 C   0  0  0  0  0  2  0  0  0  0  0  0
  182.7530  179.1960  139.5990 C   0  0  0  0  0  2  0  0  0  0  0  0
  181.8900  179.9630  138.6030 C   0  0  0  0  0  2  0  0  0  0  0  0
  182.0390  181.4670  138.7840 C   0  0  0  0  0  2  0  0  0  0  0  0
  180.9190  182.1290  138.2860 O   0  0  0  0  0  1  0  0  0  0  0  0
  2  6  1  0  0  0  0
  3  8  2  0  0  0  0
  4  9  1  0  0  0  0
  4 12  1  0  0  0  0
  5  1  1  0  0  0  0
  6 10  1  0  0  0  0
  8  5  1  0  0  0  0
  9  3  2  0  0  0  0
 10 11  1  0  0  0  0
 10 38  1  1  0  0  0
 10  7  1  0  0  0  0
 11  7  1  1  0  0  0
 12  2  1  0  0  0  0
 14  4  2  0  0  0  0
 15  1  1  0  0  0  0
 15 13  1  1  0  0  0
 15 11  1  0  0  0  0
 16  9  1  0  0  0  0
 17 16  1  0  0  0  0
 18 19  1  0  0  0  0
 18 17  1  0  0  0  0
 20 22  2  0  0  0  0
 21 22  1  0  0  0  0
 21 19  1  1  0  0  0
 22 26  1  0  0  0  0
 23 21  1  0  0  0  0
 24 23  2  0  0  0  0
 24 20  1  0  0  0  0
 25 23  1  0  0  0  0
 27 26  1  1  0  0  0
 27 33  1  0  0  0  0
 28 29  1  6  0  0  0
 28 34  1  0  0  0  0
 28 27  1  0  0  0  0
 28 31  1  0  0  0  0
 31 37  1  1  0  0  0
 31 32  1  0  0  0  0
 32 30  1  1  0  0  0
 33 32  1  0  0  0  0
 35 36  1  0  0  0  0
 37 35  1  0  0  0  0
 37 36  1  0  0  0  0
 38 39  1  0  0  0  0
 39 41  1  0  0  0  0
 41 40  1  0  0  0  0
 42 41  2  0  0  0  0
 43 45  1  6  0  0  0
 43 14  1  0  0  0  0
 43 62  1  0  0  0  0
 44 46  1  0  0  0  0
 44 45  2  0  0  0  0
 46 47  1  0  0  0  0
 47 49  1  0  0  0  0
 48 46  2  0  0  0  0
 50 54  1  6  0  0  0
 50 49  1  0  0  0  0
 52 51  1  0  0  0  0
 52 50  1  0  0  0  0
 53 52  2  0  0  0  0
 54 59  1  0  0  0  0
 56 55  1  6  0  0  0
 56 60  1  0  0  0  0
 57 60  1  0  0  0  0
 58 57  1  0  0  0  0
 58 59  1  0  0  0  0
 61 59  1  0  0  0  0
 61 56  1  0  0  0  0
 63 62  1  0  0  0  0
 63 64  1  0  0  0  0
 64 65  1  0  0  0  0
 66 67  1  0  0  0  0
 66 65  1  0  0  0  0
 68 67  1  0  0  0  0
M  END
>  <MODEL>
4

>  <REMARK>
 VINA RESULT:      -3.6      4.070      9.941
  Name = 
  24 active torsions:
  status: ('A' for Active; 'I' for Inactive)
    1  A    between atoms: C_1  and  C_38
    2  A    between atoms: C_1  and  O_52
    3  A    between atoms: C_2  and  C_4
    4  A    between atoms: C_3  and  N_61
    5  A    between atoms: C_5  and  C_35
    6  A    between atoms: C_5  and  N_42
    7  A    between atoms: C_10  and  C_31
    8  A    between atoms: C_10  and  C_58
    9  A    between atoms: C_16  and  C_18
   10  A    between atoms: C_16  and  C_25
   11  A    between atoms: C_18  and  C_27
   12  A    between atoms: C_22  and  C_33
   13  A    between atoms: C_27  and  C_33
   14  A    between atoms: C_29  and  O_52
   15  A    between atoms: C_31  and  C_34
   16  A    between atoms: C_32  and  C_58
   17  A    between atoms: C_34  and  O_56
   18  A    between atoms: C_35  and  C_37
   19  A    between atoms: C_35  and  C_47
   20  A    between atoms: N_36  and  C_67
   21  A    between atoms: C_37  and  N_60
   22  A    between atoms: C_55  and  C_57
   23  A    between atoms: O_56  and  C_57
   24  A    between atoms: C_57  and  C_64
                            x       y       z     vdW  Elec       q    Type
                         _______ _______ _______ _____ _____    ______ ____

>  <TORSDO>
F 24

$$$$
=
 OpenBabel10232410223D

 68 73  0  0  1  0  0  0  0  0999 V2000
  185.2160  178.6720  147.8660 C   0  0  0  0  0  2  0  0  0  0  0  0
  188.8110  177.3840  144.5610 C   0  0  0  0  0  2  0  0  0  0  0  0
  184.7530  177.9570  144.9410 C   0  0  0  0  0  0  0  0  0  0  0  0
  186.6230  177.8350  143.4060 C   0  0  0  0  0  0  0  0  0  0  0  0
  184.8100  177.3180  147.2940 C   0  0  0  0  0  2  0  0  0  0  0  0
  188.8450  178.4520  145.6460 C   0  0  0  0  0  2  0  0  0  0  0  0
  189.0140  178.9220  148.0940 C   0  0  0  0  0  2  0  0  0  0  0  0
  184.1270  177.4600  145.9750 C   0  0  0  0  0  3  0  0  0  0  0  0
  185.3840  178.4650  143.9140 C   0  0  0  0  0  0  0  0  0  0  0  0
  188.7770  177.8550  147.0560 C   0  0  1  0  0  0  0  0  0  0  0  0
  187.6610  178.2280  148.0220 C   0  0  2  0  0  3  0  0  0  0  0  0
  187.3970  176.8900  144.2950 C   0  0  0  0  0  2  0  0  0  0  0  0
  186.7740  180.4370  147.6620 F   0  0  0  0  0  0  0  0  0  0  0  0
  186.9700  178.0260  142.1250 C   0  0  0  0  0  3  0  0  0  0  0  0
  186.5860  179.1010  147.3680 C   0  0  2  0  0  3  0  0  0  0  0  0
  184.7000  179.5520  143.1530 C   0  0  0  0  0  2  0  0  0  0  0  0
  183.2100  179.6080  143.4720 C   0  0  0  0  0  2  0  0  0  0  0  0
  182.3710  178.7750  142.5030 C   0  0  0  0  0  2  0  0  0  0  0  0
  183.0210  178.6860  141.1320 C   0  0  0  0  0  2  0  0  0  0  0  0
  180.7460  178.3640  138.6850 N   0  0  0  0  0  0  0  0  0  0  0  0
  182.1920  179.4570  140.1240 C   0  0  1  0  0  3  0  0  0  0  0  0
  181.9900  178.6600  138.8810 C   0  0  0  0  0  0  0  0  0  0  0  0
  180.7650  179.5070  140.5490 C   0  0  0  0  0  0  0  0  0  0  0  0
  179.9820  178.9040  139.7220 N   0  0  0  0  0  0  0  0  0  0  0  0
  180.2880  180.2130  141.6920 N   0  0  0  0  0  1  0  0  0  0  0  0
  183.0430  178.2460  138.0060 N   0  0  0  0  0  2  0  0  0  0  0  0
  182.7960  177.4960  136.7790 C   0  0  1  0  0  3  0  0  0  0  0  0
  183.8740  176.4510  136.5070 C   0  0  2  0  0  0  0  0  0  0  0  0
  184.9210  177.0370  135.5770 C   0  0  0  0  0  1  0  0  0  0  0  0
  181.8330  174.4940  137.6240 O   0  0  0  0  0  1  0  0  0  0  0  0
  183.1740  175.3400  135.8500 N   0  0  2  0  0  0  0  0  0  0  0  0
  181.8400  175.2940  136.4710 C   0  0  2  0  0  3  0  0  0  0  0  0
  181.4970  176.7180  136.8730 C   0  0  0  0  0  2  0  0  0  0  0  0
  184.4810  176.0320  137.7020 O   0  0  0  0  0  1  0  0  0  0  0  0
  184.7310  173.8400  134.7120 C   0  0  0  0  0  2  0  0  0  0  0  0
  183.4120  173.1200  134.8640 C   0  0  0  0  0  2  0  0  0  0  0  0
  183.8870  174.0600  135.9570 C   0  0  0  0  0  3  0  0  0  0  0  0
  189.5180  176.5700  147.3920 C   0  0  0  0  0  2  0  0  0  0  0  0
  190.8260  176.8600  147.8650 O   0  0  0  0  0  0  0  0  0  0  0  0
  191.7200  174.8970  146.8060 O   0  0  0  0  0  0  0  0  0  0  0  0
  191.8810  175.9690  147.6710 C   0  0  0  0  0  0  0  0  0  0  0  0
  192.9870  176.1360  148.2570 O   0  0  0  0  0  1  0  0  0  0  0  0
  188.1660  177.3850  141.4790 C   0  0  1  0  0  3  0  0  0  0  0  0
  188.6640  178.5640  139.3060 C   0  0  0  0  0  3  0  0  0  0  0  0
  188.9350  178.3320  140.5940 C   0  0  0  0  0  3  0  0  0  0  0  0
  187.5750  177.9530  138.5120 C   0  0  0  0  0  0  0  0  0  0  0  0
  187.8320  176.8070  137.6970 N   0  0  0  0  0  2  0  0  0  0  0  0
  186.4060  178.4210  138.5520 O   0  0  0  0  0  0  0  0  0  0  0  0
  189.1210  176.1330  137.6700 C   0  0  0  0  0  2  0  0  0  0  0  0
  189.0850  174.9910  136.6750 C   0  0  1  0  0  3  0  0  0  0  0  0
  189.5230  174.7250  134.3470 O   0  0  0  0  0  0  0  0  0  0  0  0
  189.2960  175.5230  135.2930 C   0  0  0  0  0  0  0  0  0  0  0  0
  189.2400  176.8910  135.0460 O   0  0  0  0  0  1  0  0  0  0  0  0
  190.1510  173.9520  137.0610 C   0  0  0  0  0  2  0  0  0  0  0  0
  194.4940  172.3000  135.5740 C   0  0  0  0  0  1  0  0  0  0  0  0
  193.5410  173.4790  135.5320 C   0  0  2  0  0  3  0  0  0  0  0  0
  193.7870  174.8510  137.6440 C   0  0  0  0  0  2  0  0  0  0  0  0
  192.2550  174.9490  137.7830 C   0  0  0  0  0  2  0  0  0  0  0  0
  191.5250  174.3010  136.6720 N   0  0  0  0  0  0  0  0  0  0  0  0
  194.1950  174.7070  136.1800 C   0  0  0  0  0  2  0  0  0  0  0  0
  192.2190  173.0980  136.2050 C   0  0  0  0  0  2  0  0  0  0  0  0
  188.9800  176.6880  142.4000 O   0  0  0  0  0  0  0  0  0  0  0  0
  190.0670  176.1000  141.7260 C   0  0  0  0  0  2  0  0  0  0  0  0
  191.3740  176.4620  142.4160 C   0  0  0  0  0  2  0  0  0  0  0  0
  191.5840  177.9690  142.4670 C   0  0  0  0  0  2  0  0  0  0  0  0
  192.3870  178.3790  143.6970 C   0  0  0  0  0  2  0  0  0  0  0  0
  191.5480  179.2160  144.6510 C   0  0  0  0  0  2  0  0  0  0  0  0
  191.0600  180.3490  144.0030 O   0  0  0  0  0  1  0  0  0  0  0  0
  2  6  1  0  0  0  0
  3  8  2  0  0  0  0
  4  9  1  0  0  0  0
  4 12  1  0  0  0  0
  5  1  1  0  0  0  0
  6 10  1  0  0  0  0
  8  5  1  0  0  0  0
  9  3  2  0  0  0  0
 10 38  1  1  0  0  0
 10 11  1  0  0  0  0
 10  7  1  0  0  0  0
 11  7  1  1  0  0  0
 12  2  1  0  0  0  0
 14  4  2  0  0  0  0
 15 13  1  1  0  0  0
 15  1  1  0  0  0  0
 15 11  1  0  0  0  0
 16 17  1  0  0  0  0
 16  9  1  0  0  0  0
 18 17  1  0  0  0  0
 19 18  1  0  0  0  0
 20 22  2  0  0  0  0
 20 24  1  0  0  0  0
 21 23  1  0  0  0  0
 21 19  1  1  0  0  0
 22 21  1  0  0  0  0
 23 25  1  0  0  0  0
 24 23  2  0  0  0  0
 26 22  1  0  0  0  0
 27 33  1  0  0  0  0
 27 26  1  1  0  0  0
 28 29  1  6  0  0  0
 28 27  1  0  0  0  0
 28 34  1  0  0  0  0
 31 37  1  1  0  0  0
 31 32  1  0  0  0  0
 31 28  1  0  0  0  0
 32 33  1  0  0  0  0
 32 30  1  1  0  0  0
 35 36  1  0  0  0  0
 35 37  1  0  0  0  0
 36 37  1  0  0  0  0
 38 39  1  0  0  0  0
 40 41  2  0  0  0  0
 41 39  1  0  0  0  0
 41 42  1  0  0  0  0
 43 45  1  1  0  0  0
 43 14  1  0  0  0  0
 43 62  1  0  0  0  0
 44 45  2  0  0  0  0
 46 48  2  0  0  0  0
 46 44  1  0  0  0  0
 47 46  1  0  0  0  0
 49 47  1  0  0  0  0
 50 54  1  1  0  0  0
 50 49  1  0  0  0  0
 51 52  2  0  0  0  0
 52 50  1  0  0  0  0
 53 52  1  0  0  0  0
 56 55  1  1  0  0  0
 56 60  1  0  0  0  0
 56 61  1  0  0  0  0
 57 58  1  0  0  0  0
 59 54  1  0  0  0  0
 59 58  1  0  0  0  0
 60 57  1  0  0  0  0
 61 59  1  0  0  0  0
 63 62  1  0  0  0  0
 63 64  1  0  0  0  0
 64 65  1  0  0  0  0
 65 66  1  0  0  0  0
 66 67  1  0  0  0  0
 68 67  1  0  0  0  0
M  END
>  <MODEL>
5

>  <REMARK>
 VINA RESULT:      -3.4      3.007      8.931
  Name = 
  24 active torsions:
  status: ('A' for Active; 'I' for Inactive)
    1  A    between atoms: C_1  and  C_38
    2  A    between atoms: C_1  and  O_52
    3  A    between atoms: C_2  and  C_4
    4  A    between atoms: C_3  and  N_61
    5  A    between atoms: C_5  and  C_35
    6  A    between atoms: C_5  and  N_42
    7  A    between atoms: C_10  and  C_31
    8  A    between atoms: C_10  and  C_58
    9  A    between atoms: C_16  and  C_18
   10  A    between atoms: C_16  and  C_25
   11  A    between atoms: C_18  and  C_27
   12  A    between atoms: C_22  and  C_33
   13  A    between atoms: C_27  and  C_33
   14  A    between atoms: C_29  and  O_52
   15  A    between atoms: C_31  and  C_34
   16  A    between atoms: C_32  and  C_58
   17  A    between atoms: C_34  and  O_56
   18  A    between atoms: C_35  and  C_37
   19  A    between atoms: C_35  and  C_47
   20  A    between atoms: N_36  and  C_67
   21  A    between atoms: C_37  and  N_60
   22  A    between atoms: C_55  and  C_57
   23  A    between atoms: O_56  and  C_57
   24  A    between atoms: C_57  and  C_64
                            x       y       z     vdW  Elec       q    Type
                         _______ _______ _______ _____ _____    ______ ____

>  <TORSDO>
F 24

$$$$
=
 OpenBabel10232410223D

 68 73  0  0  1  0  0  0  0  0999 V2000
  194.7880  171.8150  135.8250 C   0  0  0  0  0  2  0  0  0  0  0  0
  193.7020  176.1780  138.1250 C   0  0  0  0  0  2  0  0  0  0  0  0
  192.1260  173.2870  135.6560 C   0  0  0  0  0  0  0  0  0  0  0  0
  191.6330  175.0940  137.1920 C   0  0  0  0  0  0  0  0  0  0  0  0
  194.3250  172.7730  134.7340 C   0  0  0  0  0  2  0  0  0  0  0  0
  194.4970  174.9900  138.6500 C   0  0  0  0  0  2  0  0  0  0  0  0
  196.6480  173.7210  138.5530 C   0  0  0  0  0  2  0  0  0  0  0  0
  192.8360  172.8400  134.6540 C   0  0  0  0  0  3  0  0  0  0  0  0
  191.4230  173.7260  136.6660 C   0  0  0  0  0  0  0  0  0  0  0  0
  195.8030  174.7730  137.8790 C   0  0  1  0  0  0  0  0  0  0  0  0
  196.0920  173.4630  137.1590 C   0  0  2  0  0  3  0  0  0  0  0  0
  192.9160  175.8250  136.8710 C   0  0  0  0  0  2  0  0  0  0  0  0
  195.0170  171.5560  138.1630 F   0  0  0  0  0  0  0  0  0  0  0  0
  190.6320  175.7000  137.8440 C   0  0  0  0  0  3  0  0  0  0  0  0
  194.8930  172.5100  137.1720 C   0  0  2  0  0  3  0  0  0  0  0  0
  190.2700  172.8930  137.1200 C   0  0  0  0  0  2  0  0  0  0  0  0
  189.1480  172.8790  136.0870 C   0  0  0  0  0  2  0  0  0  0  0  0
  187.8420  173.4560  136.6320 C   0  0  0  0  0  2  0  0  0  0  0  0
  187.7330  174.9490  136.3670 C   0  0  0  0  0  2  0  0  0  0  0  0
  185.1760  175.9500  134.4370 N   0  0  0  0  0  0  0  0  0  0  0  0
  187.3030  175.1830  134.9330 C   0  0  1  0  0  3  0  0  0  0  0  0
  185.8500  174.8950  134.7600 C   0  0  0  0  0  0  0  0  0  0  0  0
  187.2410  176.6420  134.6370 C   0  0  0  0  0  0  0  0  0  0  0  0
  186.0480  177.0380  134.3500 N   0  0  0  0  0  0  0  0  0  0  0  0
  188.3760  177.5030  134.5850 N   0  0  0  0  0  1  0  0  0  0  0  0
  185.2540  173.6080  134.9450 N   0  0  0  0  0  2  0  0  0  0  0  0
  183.8320  173.3630  134.7300 C   0  0  1  0  0  3  0  0  0  0  0  0
  183.3540  172.0780  135.4010 C   0  0  2  0  0  0  0  0  0  0  0  0
  183.3910  170.9410  134.3940 C   0  0  0  0  0  1  0  0  0  0  0  0
  182.2830  173.9500  137.5430 O   0  0  0  0  0  1  0  0  0  0  0  0
  181.9710  172.3510  135.8100 N   0  0  2  0  0  0  0  0  0  0  0  0
  181.9480  173.7720  136.1920 C   0  0  2  0  0  3  0  0  0  0  0  0
  182.9940  174.4700  135.3410 C   0  0  0  0  0  2  0  0  0  0  0  0
  184.1580  171.7590  136.5070 O   0  0  0  0  0  1  0  0  0  0  0  0
  180.2440  170.7410  136.4420 C   0  0  0  0  0  2  0  0  0  0  0  0
  180.1340  171.9330  137.3630 C   0  0  0  0  0  2  0  0  0  0  0  0
  181.5010  171.4710  136.8890 C   0  0  0  0  0  3  0  0  0  0  0  0
  196.6400  175.9570  137.4220 C   0  0  0  0  0  2  0  0  0  0  0  0
  196.1210  176.4970  136.2150 O   0  0  0  0  0  0  0  0  0  0  0  0
  197.5800  177.3830  134.5230 O   0  0  0  0  0  1  0  0  0  0  0  0
  196.7940  176.3450  135.0030 C   0  0  0  0  0  0  0  0  0  0  0  0
  196.7120  175.2700  134.3460 O   0  0  0  0  0  0  0  0  0  0  0  0
  190.7040  177.1100  138.3630 C   0  0  1  0  0  3  0  0  0  0  0  0
  188.8530  178.8050  138.1180 C   0  0  0  0  0  3  0  0  0  0  0  0
  189.8330  178.0660  137.5890 C   0  0  0  0  0  3  0  0  0  0  0  0
  188.4410  178.8330  139.5390 C   0  0  0  0  0  0  0  0  0  0  0  0
  187.1210  178.4340  139.9150 N   0  0  0  0  0  2  0  0  0  0  0  0
  189.2460  179.1920  140.4380 O   0  0  0  0  0  0  0  0  0  0  0  0
  186.1570  177.9040  138.9630 C   0  0  0  0  0  2  0  0  0  0  0  0
  184.7550  178.3100  139.3670 C   0  0  1  0  0  3  0  0  0  0  0  0
  182.8480  178.7520  138.0060 O   0  0  0  0  0  1  0  0  0  0  0  0
  183.7980  177.9700  138.2670 C   0  0  0  0  0  0  0  0  0  0  0  0
  183.9530  176.8000  137.5320 O   0  0  0  0  0  0  0  0  0  0  0  0
  184.3870  177.6120  140.6860 C   0  0  0  0  0  2  0  0  0  0  0  0
  184.9820  178.5730  145.4320 C   0  0  0  0  0  1  0  0  0  0  0  0
  184.7360  179.1910  144.0690 C   0  0  2  0  0  3  0  0  0  0  0  0
  182.2770  179.0400  143.4940 C   0  0  0  0  0  2  0  0  0  0  0  0
  182.6190  178.5670  142.0660 C   0  0  0  0  0  2  0  0  0  0  0  0
  184.0720  178.5190  141.8000 N   0  0  0  0  0  0  0  0  0  0  0  0
  183.3870  179.9220  144.0570 C   0  0  0  0  0  2  0  0  0  0  0  0
  184.8220  178.1070  142.9890 C   0  0  0  0  0  2  0  0  0  0  0  0
  190.5240  177.1890  139.7620 O   0  0  0  0  0  0  0  0  0  0  0  0
  191.7580  176.9950  140.4120 C   0  0  0  0  0  2  0  0  0  0  0  0
  191.5320  176.5690  141.8550 C   0  0  0  0  0  2  0  0  0  0  0  0
  190.0690  176.2470  142.1240 C   0  0  0  0  0  2  0  0  0  0  0  0
  189.6140  176.8010  143.4700 C   0  0  0  0  0  2  0  0  0  0  0  0
  189.7670  178.3140  143.5260 C   0  0  0  0  0  2  0  0  0  0  0  0
  191.1070  178.6600  143.6950 O   0  0  0  0  0  1  0  0  0  0  0  0
  1 15  1  0  0  0  0
  2  6  1  0  0  0  0
  3  9  2  0  0  0  0
  4 14  2  0  0  0  0
  5  1  1  0  0  0  0
  8  5  1  0  0  0  0
  8  3  2  0  0  0  0
  9 16  1  0  0  0  0
  9  4  1  0  0  0  0
 10 38  1  6  0  0  0
 10  7  1  0  0  0  0
 10  6  1  0  0  0  0
 11 15  1  0  0  0  0
 11 10  1  0  0  0  0
 11  7  1  1  0  0  0
 12  4  1  0  0  0  0
 12  2  1  0  0  0  0
 14 43  1  0  0  0  0
 15 13  1  1  0  0  0
 17 18  1  0  0  0  0
 17 16  1  0  0  0  0
 19 18  1  0  0  0  0
 20 22  2  0  0  0  0
 21 19  1  1  0  0  0
 22 21  1  0  0  0  0
 22 26  1  0  0  0  0
 23 21  1  0  0  0  0
 24 20  1  0  0  0  0
 24 23  2  0  0  0  0
 25 23  1  0  0  0  0
 27 26  1  1  0  0  0
 27 33  1  0  0  0  0
 27 28  1  0  0  0  0
 28 29  1  6  0  0  0
 28 31  1  0  0  0  0
 28 34  1  0  0  0  0
 31 32  1  0  0  0  0
 31 37  1  1  0  0  0
 32 30  1  1  0  0  0
 33 32  1  0  0  0  0
 35 37  1  0  0  0  0
 35 36  1  0  0  0  0
 37 36  1  0  0  0  0
 39 38  1  0  0  0  0
 40 41  1  0  0  0  0
 41 39  1  0  0  0  0
 42 41  2  0  0  0  0
 43 45  1  6  0  0  0
 43 62  1  0  0  0  0
 44 46  1  0  0  0  0
 45 44  2  0  0  0  0
 46 47  1  0  0  0  0
 46 48  2  0  0  0  0
 49 47  1  0  0  0  0
 50 49  1  6  0  0  0
 50 54  1  0  0  0  0
 51 52  1  0  0  0  0
 52 50  1  0  0  0  0
 53 52  2  0  0  0  0
 54 59  1  0  0  0  0
 56 55  1  1  0  0  0
 57 60  1  0  0  0  0
 58 57  1  0  0  0  0
 59 58  1  0  0  0  0
 59 61  1  0  0  0  0
 60 56  1  0  0  0  0
 61 56  1  0  0  0  0
 62 63  1  0  0  0  0
 63 64  1  0  0  0  0
 64 65  1  0  0  0  0
 65 66  1  0  0  0  0
 66 67  1  0  0  0  0
 67 68  1  0  0  0  0
M  END
>  <MODEL>
6

>  <REMARK>
 VINA RESULT:      -3.2      3.753     11.878
  Name = 
  24 active torsions:
  status: ('A' for Active; 'I' for Inactive)
    1  A    between atoms: C_1  and  C_38
    2  A    between atoms: C_1  and  O_52
    3  A    between atoms: C_2  and  C_4
    4  A    between atoms: C_3  and  N_61
    5  A    between atoms: C_5  and  C_35
    6  A    between atoms: C_5  and  N_42
    7  A    between atoms: C_10  and  C_31
    8  A    between atoms: C_10  and  C_58
    9  A    between atoms: C_16  and  C_18
   10  A    between atoms: C_16  and  C_25
   11  A    between atoms: C_18  and  C_27
   12  A    between atoms: C_22  and  C_33
   13  A    between atoms: C_27  and  C_33
   14  A    between atoms: C_29  and  O_52
   15  A    between atoms: C_31  and  C_34
   16  A    between atoms: C_32  and  C_58
   17  A    between atoms: C_34  and  O_56
   18  A    between atoms: C_35  and  C_37
   19  A    between atoms: C_35  and  C_47
   20  A    between atoms: N_36  and  C_67
   21  A    between atoms: C_37  and  N_60
   22  A    between atoms: C_55  and  C_57
   23  A    between atoms: O_56  and  C_57
   24  A    between atoms: C_57  and  C_64
                            x       y       z     vdW  Elec       q    Type
                         _______ _______ _______ _____ _____    ______ ____

>  <TORSDO>
F 24

$$$$
=
 OpenBabel10232410223D

 68 73  0  0  1  0  0  0  0  0999 V2000
  186.9210  178.0420  147.3200 C   0  0  0  0  0  2  0  0  0  0  0  0
  190.5300  176.7990  144.0130 C   0  0  0  0  0  2  0  0  0  0  0  0
  186.4830  177.4620  144.3610 C   0  0  0  0  0  0  0  0  0  0  0  0
  188.3710  177.3560  142.8480 C   0  0  0  0  0  0  0  0  0  0  0  0
  186.4890  176.7240  146.6860 C   0  0  0  0  0  2  0  0  0  0  0  0
  190.5760  177.8190  145.1420 C   0  0  0  0  0  2  0  0  0  0  0  0
  190.7200  178.1820  147.6110 C   0  0  0  0  0  2  0  0  0  0  0  0
  185.8290  176.9390  145.3650 C   0  0  0  0  0  3  0  0  0  0  0  0
  187.1410  177.9960  143.3660 C   0  0  0  0  0  0  0  0  0  0  0  0
  190.4710  177.1660  146.5250 C   0  0  1  0  0  0  0  0  0  0  0  0
  189.3510  177.5270  147.4910 C   0  0  2  0  0  3  0  0  0  0  0  0
  189.1080  176.3540  143.7070 C   0  0  0  0  0  2  0  0  0  0  0  0
  188.5260  179.7730  147.2120 F   0  0  0  0  0  0  0  0  0  0  0  0
  188.7420  177.5910  141.5820 C   0  0  0  0  0  3  0  0  0  0  0  0
  188.3090  178.4550  146.8600 C   0  0  2  0  0  3  0  0  0  0  0  0
  186.4970  179.1320  142.6420 C   0  0  0  0  0  2  0  0  0  0  0  0
  185.9870  178.7040  141.2700 C   0  0  0  0  0  2  0  0  0  0  0  0
  184.5950  179.2570  140.9640 C   0  0  0  0  0  2  0  0  0  0  0  0
  183.5010  178.3770  141.5480 C   0  0  0  0  0  2  0  0  0  0  0  0
  180.3900  177.6550  140.5130 N   0  0  0  0  0  0  0  0  0  0  0  0
  182.1440  178.9790  141.2400 C   0  0  1  0  0  3  0  0  0  0  0  0
  181.4760  178.2430  140.1290 C   0  0  0  0  0  0  0  0  0  0  0  0
  181.1650  178.6340  142.3090 C   0  0  0  0  0  0  0  0  0  0  0  0
  180.1920  177.9090  141.8730 N   0  0  0  0  0  0  0  0  0  0  0  0
  181.2310  179.1140  143.6500 N   0  0  0  0  0  1  0  0  0  0  0  0
  181.9760  178.1720  138.7910 N   0  0  0  0  0  2  0  0  0  0  0  0
  181.2700  177.4710  137.7240 C   0  0  1  0  0  3  0  0  0  0  0  0
  182.1650  176.4760  136.9900 C   0  0  2  0  0  0  0  0  0  0  0  0
  182.7470  177.1390  135.7540 C   0  0  0  0  0  1  0  0  0  0  0  0
  180.7640  174.4020  138.7160 O   0  0  0  0  0  1  0  0  0  0  0  0
  181.2750  175.3730  136.6050 N   0  0  2  0  0  0  0  0  0  0  0  0
  180.3000  175.2540  137.7020 C   0  0  2  0  0  3  0  0  0  0  0  0
  180.1270  176.6450  138.2840 C   0  0  0  0  0  2  0  0  0  0  0  0
  183.2040  176.0250  137.8200 O   0  0  0  0  0  1  0  0  0  0  0  0
  181.9200  173.7800  134.8680 C   0  0  0  0  0  2  0  0  0  0  0  0
  181.0120  173.0680  135.8430 C   0  0  0  0  0  2  0  0  0  0  0  0
  181.9890  174.1140  136.3500 C   0  0  0  0  0  3  0  0  0  0  0  0
  191.1730  175.8500  146.8170 C   0  0  0  0  0  2  0  0  0  0  0  0
  192.4920  176.0840  147.2920 O   0  0  0  0  0  0  0  0  0  0  0  0
  193.5070  176.7710  149.3590 O   0  0  0  0  0  1  0  0  0  0  0  0
  192.8480  175.8060  148.6110 C   0  0  0  0  0  0  0  0  0  0  0  0
  192.5640  174.6950  149.1400 O   0  0  0  0  0  0  0  0  0  0  0  0
  189.9310  176.9460  140.9250 C   0  0  1  0  0  3  0  0  0  0  0  0
  189.1230  176.8610  138.5380 C   0  0  0  0  0  3  0  0  0  0  0  0
  189.5850  176.2520  139.6340 C   0  0  0  0  0  3  0  0  0  0  0  0
  188.8680  178.3110  138.3790 C   0  0  0  0  0  0  0  0  0  0  0  0
  187.9090  178.7750  137.4260 N   0  0  0  0  0  2  0  0  0  0  0  0
  189.4790  179.1550  139.0880 O   0  0  0  0  0  0  0  0  0  0  0  0
  187.0800  177.8740  136.6400 C   0  0  0  0  0  2  0  0  0  0  0  0
  187.7770  176.5390  136.4800 C   0  0  1  0  0  3  0  0  0  0  0  0
  186.8510  174.5740  137.4630 O   0  0  0  0  0  1  0  0  0  0  0  0
  186.7690  175.4360  136.5500 C   0  0  0  0  0  0  0  0  0  0  0  0
  185.7410  175.3570  135.6160 O   0  0  0  0  0  0  0  0  0  0  0  0
  188.5510  176.5290  135.1510 C   0  0  0  0  0  2  0  0  0  0  0  0
  189.5380  171.7590  134.8940 C   0  0  0  0  0  1  0  0  0  0  0  0
  190.0200  173.1420  134.5030 C   0  0  2  0  0  3  0  0  0  0  0  0
  191.2480  174.2010  136.4450 C   0  0  0  0  0  2  0  0  0  0  0  0
  190.5020  175.5310  136.2180 C   0  0  0  0  0  2  0  0  0  0  0  0
  189.5950  175.5000  135.0500 N   0  0  0  0  0  0  0  0  0  0  0  0
  191.3880  173.4230  135.1390 C   0  0  0  0  0  2  0  0  0  0  0  0
  188.9690  174.1850  134.8940 C   0  0  0  0  0  2  0  0  0  0  0  0
  191.0380  177.8180  140.8180 O   0  0  0  0  0  0  0  0  0  0  0  0
  192.1920  177.0850  140.4810 C   0  0  0  0  0  2  0  0  0  0  0  0
  192.9450  177.7750  139.3540 C   0  0  0  0  0  2  0  0  0  0  0  0
  193.3410  176.7940  138.2590 C   0  0  0  0  0  2  0  0  0  0  0  0
  193.6730  175.4210  138.8330 C   0  0  0  0  0  2  0  0  0  0  0  0
  194.6460  174.6680  137.9370 C   0  0  0  0  0  2  0  0  0  0  0  0
  195.0140  175.4580  136.8490 O   0  0  0  0  0  1  0  0  0  0  0  0
  2  6  1  0  0  0  0
  3  8  2  0  0  0  0
  4  9  1  0  0  0  0
  4 12  1  0  0  0  0
  5  1  1  0  0  0  0
  6 10  1  0  0  0  0
  8  5  1  0  0  0  0
  9  3  2  0  0  0  0
 10 38  1  1  0  0  0
 10 11  1  0  0  0  0
 10  7  1  0  0  0  0
 11  7  1  1  0  0  0
 12  2  1  0  0  0  0
 14  4  2  0  0  0  0
 15 13  1  1  0  0  0
 15  1  1  0  0  0  0
 15 11  1  0  0  0  0
 16  9  1  0  0  0  0
 17 16  1  0  0  0  0
 18 17  1  0  0  0  0
 18 19  1  0  0  0  0
 20 24  1  0  0  0  0
 21 19  1  1  0  0  0
 21 23  1  0  0  0  0
 22 20  2  0  0  0  0
 22 21  1  0  0  0  0
 23 25  1  0  0  0  0
 24 23  2  0  0  0  0
 26 22  1  0  0  0  0
 27 33  1  0  0  0  0
 27 26  1  1  0  0  0
 28 29  1  6  0  0  0
 28 27  1  0  0  0  0
 28 34  1  0  0  0  0
 31 37  1  1  0  0  0
 31 28  1  0  0  0  0
 31 32  1  0  0  0  0
 32 33  1  0  0  0  0
 32 30  1  1  0  0  0
 35 36  1  0  0  0  0
 35 37  1  0  0  0  0
 36 37  1  0  0  0  0
 38 39  1  0  0  0  0
 39 41  1  0  0  0  0
 41 42  2  0  0  0  0
 41 40  1  0  0  0  0
 43 45  1  6  0  0  0
 43 14  1  0  0  0  0
 44 45  2  0  0  0  0
 46 44  1  0  0  0  0
 46 48  2  0  0  0  0
 47 46  1  0  0  0  0
 49 47  1  0  0  0  0
 50 54  1  6  0  0  0
 50 52  1  0  0  0  0
 50 49  1  0  0  0  0
 52 51  1  0  0  0  0
 53 52  2  0  0  0  0
 56 61  1  0  0  0  0
 56 55  1  1  0  0  0
 56 60  1  0  0  0  0
 58 57  1  0  0  0  0
 59 54  1  0  0  0  0
 59 58  1  0  0  0  0
 60 57  1  0  0  0  0
 61 59  1  0  0  0  0
 62 43  1  0  0  0  0
 63 62  1  0  0  0  0
 64 63  1  0  0  0  0
 65 66  1  0  0  0  0
 65 64  1  0  0  0  0
 67 66  1  0  0  0  0
 68 67  1  0  0  0  0
M  END
>  <MODEL>
7

>  <REMARK>
 VINA RESULT:      -3.2      2.919      9.410
  Name = 
  24 active torsions:
  status: ('A' for Active; 'I' for Inactive)
    1  A    between atoms: C_1  and  C_38
    2  A    between atoms: C_1  and  O_52
    3  A    between atoms: C_2  and  C_4
    4  A    between atoms: C_3  and  N_61
    5  A    between atoms: C_5  and  C_35
    6  A    between atoms: C_5  and  N_42
    7  A    between atoms: C_10  and  C_31
    8  A    between atoms: C_10  and  C_58
    9  A    between atoms: C_16  and  C_18
   10  A    between atoms: C_16  and  C_25
   11  A    between atoms: C_18  and  C_27
   12  A    between atoms: C_22  and  C_33
   13  A    between atoms: C_27  and  C_33
   14  A    between atoms: C_29  and  O_52
   15  A    between atoms: C_31  and  C_34
   16  A    between atoms: C_32  and  C_58
   17  A    between atoms: C_34  and  O_56
   18  A    between atoms: C_35  and  C_37
   19  A    between atoms: C_35  and  C_47
   20  A    between atoms: N_36  and  C_67
   21  A    between atoms: C_37  and  N_60
   22  A    between atoms: C_55  and  C_57
   23  A    between atoms: O_56  and  C_57
   24  A    between atoms: C_57  and  C_64
                            x       y       z     vdW  Elec       q    Type
                         _______ _______ _______ _____ _____    ______ ____

>  <TORSDO>
F 24

$$$$
=
 OpenBabel10232410223D

 68 73  0  0  1  0  0  0  0  0999 V2000
  187.2560  177.3720  145.8280 C   0  0  0  0  0  2  0  0  0  0  0  0
  191.5850  176.8170  143.2850 C   0  0  0  0  0  2  0  0  0  0  0  0
  187.4950  176.9070  142.8260 C   0  0  0  0  0  0  0  0  0  0  0  0
  189.6390  177.1430  141.7240 C   0  0  0  0  0  0  0  0  0  0  0  0
  187.1510  176.0460  145.0830 C   0  0  0  0  0  2  0  0  0  0  0  0
  191.2610  177.7680  144.4290 C   0  0  0  0  0  2  0  0  0  0  0  0
  190.8640  178.0070  146.8850 C   0  0  0  0  0  2  0  0  0  0  0  0
  186.7390  176.2440  143.6620 C   0  0  0  0  0  3  0  0  0  0  0  0
  188.2530  177.5800  142.0000 C   0  0  0  0  0  0  0  0  0  0  0  0
  190.9810  177.0300  145.7430 C   0  0  1  0  0  0  0  0  0  0  0  0
  189.6530  177.1810  146.4720 C   0  0  2  0  0  3  0  0  0  0  0  0
  190.3290  176.2030  142.6850 C   0  0  0  0  0  2  0  0  0  0  0  0
  188.5860  179.3070  146.0960 F   0  0  0  0  0  0  0  0  0  0  0  0
  190.2140  177.4970  140.5660 C   0  0  0  0  0  3  0  0  0  0  0  0
  188.6330  177.9940  145.6700 C   0  0  2  0  0  3  0  0  0  0  0  0
  187.6070  178.6590  141.1940 C   0  0  0  0  0  2  0  0  0  0  0  0
  186.7080  179.5390  142.0550 C   0  0  0  0  0  2  0  0  0  0  0  0
  185.2360  179.4450  141.6530 C   0  0  0  0  0  2  0  0  0  0  0  0
  184.9920  178.3020  140.6800 C   0  0  0  0  0  2  0  0  0  0  0  0
  183.9140  177.5240  137.5980 N   0  0  0  0  0  0  0  0  0  0  0  0
  184.1470  178.7910  139.5210 C   0  0  1  0  0  3  0  0  0  0  0  0
  184.7110  178.3300  138.2200 C   0  0  0  0  0  0  0  0  0  0  0  0
  182.8670  178.0310  139.4500 C   0  0  0  0  0  0  0  0  0  0  0  0
  182.7590  177.3460  138.3630 N   0  0  0  0  0  0  0  0  0  0  0  0
  181.8280  178.1070  140.4230 N   0  0  0  0  0  1  0  0  0  0  0  0
  185.9930  178.7140  137.7150 N   0  0  0  0  0  2  0  0  0  0  0  0
  186.4910  178.2670  136.4180 C   0  0  1  0  0  3  0  0  0  0  0  0
  187.7740  177.4490  136.5370 C   0  0  2  0  0  0  0  0  0  0  0  0
  188.9730  178.3620  136.3430 C   0  0  0  0  0  1  0  0  0  0  0  0
  185.9280  175.0600  136.1850 O   0  0  0  0  0  1  0  0  0  0  0  0
  187.7030  176.4640  135.4510 N   0  0  2  0  0  0  0  0  0  0  0  0
  186.2770  176.1160  135.3300 C   0  0  2  0  0  3  0  0  0  0  0  0
  185.4910  177.3490  135.7410 C   0  0  0  0  0  2  0  0  0  0  0  0
  187.8550  176.8200  137.7900 O   0  0  0  0  0  1  0  0  0  0  0  0
  189.6850  175.2690  134.6680 C   0  0  0  0  0  2  0  0  0  0  0  0
  188.4860  174.3700  134.4700 C   0  0  0  0  0  2  0  0  0  0  0  0
  188.5500  175.2860  135.6800 C   0  0  0  0  0  3  0  0  0  0  0  0
  191.7950  175.8060  146.1330 C   0  0  0  0  0  2  0  0  0  0  0  0
  191.8590  175.6810  147.5470 O   0  0  0  0  0  0  0  0  0  0  0  0
  193.0070  176.8080  149.3320 O   0  0  0  0  0  1  0  0  0  0  0  0
  193.0360  175.9440  148.2460 C   0  0  0  0  0  0  0  0  0  0  0  0
  194.1230  175.3940  147.9170 O   0  0  0  0  0  0  0  0  0  0  0  0
  191.5880  177.0570  140.1450 C   0  0  1  0  0  3  0  0  0  0  0  0
  191.7810  176.4090  137.7160 C   0  0  0  0  0  3  0  0  0  0  0  0
  191.8700  177.3210  138.6890 C   0  0  0  0  0  3  0  0  0  0  0  0
  191.3910  174.9900  137.8740 C   0  0  0  0  0  0  0  0  0  0  0  0
  192.3560  173.9510  137.6940 N   0  0  0  0  0  2  0  0  0  0  0  0
  190.2100  174.6760  138.1820 O   0  0  0  0  0  0  0  0  0  0  0  0
  193.7640  174.2200  137.4430 C   0  0  0  0  0  2  0  0  0  0  0  0
  194.0070  174.3530  135.9550 C   0  0  1  0  0  3  0  0  0  0  0  0
  194.7620  176.6130  135.8790 O   0  0  0  0  0  1  0  0  0  0  0  0
  195.0480  175.4000  135.7080 C   0  0  0  0  0  0  0  0  0  0  0  0
  196.3260  175.0420  135.2950 O   0  0  0  0  0  0  0  0  0  0  0  0
  194.4200  172.9850  135.3860 C   0  0  0  0  0  2  0  0  0  0  0  0
  197.7230  169.9060  137.2320 C   0  0  0  0  0  1  0  0  0  0  0  0
  196.4970  170.7400  137.5530 C   0  0  2  0  0  3  0  0  0  0  0  0
  194.4090  169.4920  136.8580 C   0  0  0  0  0  2  0  0  0  0  0  0
  193.8320  170.7720  136.2200 C   0  0  0  0  0  2  0  0  0  0  0  0
  194.7020  171.9540  136.3950 N   0  0  0  0  0  0  0  0  0  0  0  0
  195.3480  169.8320  138.0110 C   0  0  0  0  0  2  0  0  0  0  0  0
  196.1200  171.5900  136.3360 C   0  0  0  0  0  2  0  0  0  0  0  0
  192.6030  177.5260  141.0100 O   0  0  0  0  0  0  0  0  0  0  0  0
  193.6000  176.5420  141.1530 C   0  0  0  0  0  2  0  0  0  0  0  0
  194.8340  176.9220  140.3470 C   0  0  0  0  0  2  0  0  0  0  0  0
  195.5830  175.6920  139.8530 C   0  0  0  0  0  2  0  0  0  0  0  0
  196.8080  175.4020  140.7130 C   0  0  0  0  0  2  0  0  0  0  0  0
  198.0970  175.6660  139.9470 C   0  0  0  0  0  2  0  0  0  0  0  0
  198.0150  175.1330  138.6620 O   0  0  0  0  0  1  0  0  0  0  0  0
  2  6  1  0  0  0  0
  3  8  2  0  0  0  0
  4  9  1  0  0  0  0
  4 12  1  0  0  0  0
  5  1  1  0  0  0  0
  6 10  1  0  0  0  0
  8  5  1  0  0  0  0
  9  3  2  0  0  0  0
 10 38  1  1  0  0  0
 10 11  1  0  0  0  0
 10  7  1  0  0  0  0
 11  7  1  1  0  0  0
 12  2  1  0  0  0  0
 14  4  2  0  0  0  0
 15  1  1  0  0  0  0
 15 13  1  1  0  0  0
 15 11  1  0  0  0  0
 16  9  1  0  0  0  0
 16 17  1  0  0  0  0
 18 17  1  0  0  0  0
 19 18  1  0  0  0  0
 20 22  2  0  0  0  0
 20 24  1  0  0  0  0
 21 19  1  1  0  0  0
 22 21  1  0  0  0  0
 23 21  1  0  0  0  0
 23 25  1  0  0  0  0
 24 23  2  0  0  0  0
 26 22  1  0  0  0  0
 27 28  1  0  0  0  0
 27 26  1  1  0  0  0
 28 29  1  6  0  0  0
 28 34  1  0  0  0  0
 31 37  1  1  0  0  0
 31 28  1  0  0  0  0
 32 31  1  0  0  0  0
 32 33  1  0  0  0  0
 32 30  1  1  0  0  0
 33 27  1  0  0  0  0
 35 37  1  0  0  0  0
 36 35  1  0  0  0  0
 36 37  1  0  0  0  0
 38 39  1  0  0  0  0
 39 41  1  0  0  0  0
 41 40  1  0  0  0  0
 42 41  2  0  0  0  0
 43 45  1  6  0  0  0
 43 14  1  0  0  0  0
 43 62  1  0  0  0  0
 44 46  1  0  0  0  0
 44 45  2  0  0  0  0
 46 48  2  0  0  0  0
 47 46  1  0  0  0  0
 49 47  1  0  0  0  0
 50 54  1  1  0  0  0
 50 49  1  0  0  0  0
 52 51  1  0  0  0  0
 52 50  1  0  0  0  0
 53 52  2  0  0  0  0
 54 59  1  0  0  0  0
 56 55  1  6  0  0  0
 56 60  1  0  0  0  0
 57 60  1  0  0  0  0
 58 59  1  0  0  0  0
 58 57  1  0  0  0  0
 61 59  1  0  0  0  0
 61 56  1  0  0  0  0
 62 63  1  0  0  0  0
 64 63  1  0  0  0  0
 65 64  1  0  0  0  0
 65 66  1  0  0  0  0
 67 66  1  0  0  0  0
 68 67  1  0  0  0  0
M  END
>  <MODEL>
8

>  <REMARK>
 VINA RESULT:      -3.0      3.404      9.195
  Name = 
  24 active torsions:
  status: ('A' for Active; 'I' for Inactive)
    1  A    between atoms: C_1  and  C_38
    2  A    between atoms: C_1  and  O_52
    3  A    between atoms: C_2  and  C_4
    4  A    between atoms: C_3  and  N_61
    5  A    between atoms: C_5  and  C_35
    6  A    between atoms: C_5  and  N_42
    7  A    between atoms: C_10  and  C_31
    8  A    between atoms: C_10  and  C_58
    9  A    between atoms: C_16  and  C_18
   10  A    between atoms: C_16  and  C_25
   11  A    between atoms: C_18  and  C_27
   12  A    between atoms: C_22  and  C_33
   13  A    between atoms: C_27  and  C_33
   14  A    between atoms: C_29  and  O_52
   15  A    between atoms: C_31  and  C_34
   16  A    between atoms: C_32  and  C_58
   17  A    between atoms: C_34  and  O_56
   18  A    between atoms: C_35  and  C_37
   19  A    between atoms: C_35  and  C_47
   20  A    between atoms: N_36  and  C_67
   21  A    between atoms: C_37  and  N_60
   22  A    between atoms: C_55  and  C_57
   23  A    between atoms: O_56  and  C_57
   24  A    between atoms: C_57  and  C_64
                            x       y       z     vdW  Elec       q    Type
                         _______ _______ _______ _____ _____    ______ ____

>  <TORSDO>
F 24

$$$$
