=
 OpenBabel10232411403D

 52 60  0  0  1  0  0  0  0  0999 V2000
  187.7590  177.1810  144.2620 C   0  0  0  0  0  2  0  0  0  0  0  0
  191.3980  178.2990  144.3450 C   0  0  0  0  0  0  0  0  0  0  0  0
  190.0610  178.1800  143.9400 C   0  0  0  0  0  0  0  0  0  0  0  0
  189.5630  178.9330  142.8270 N   0  0  0  0  0  2  0  0  0  0  0  0
  192.2930  179.1590  143.6450 N   0  0  0  0  0  1  0  0  0  0  0  0
  191.8490  177.5830  145.4100 N   0  0  0  0  0  0  0  0  0  0  0  0
  187.2690  178.3880  143.4560 C   0  0  1  0  0  3  0  0  0  0  0  0
  191.0370  176.7380  146.1010 C   0  0  0  0  0  0  0  0  0  0  0  0
  188.2200  178.7070  142.2890 C   0  0  2  0  0  3  0  0  0  0  0  0
  189.6940  176.6020  145.7400 C   0  0  0  0  0  3  0  0  0  0  0  0
  189.1970  177.3380  144.6650 C   0  0  0  0  0  0  0  0  0  0  0  0
  189.6210  177.0960  141.0570 N   0  0  0  0  0  2  0  0  0  0  0  0
  188.2590  177.5880  141.2350 C   0  0  2  0  0  3  0  0  0  0  0  0
  189.6320  177.6650  139.7160 C   0  0  1  0  0  3  0  0  0  0  0  0
  188.5310  177.0580  138.8670 C   0  0  1  0  0  3  0  0  0  0  0  0
  188.2140  178.1670  139.8410 C   0  0  1  0  0  3  0  0  0  0  0  0
  189.2620  177.4220  135.3040 O   0  0  0  0  0  0  0  0  0  0  0  0
  189.6280  175.5310  136.6300 N   0  0  0  0  0  2  0  0  0  0  0  0
  189.1690  176.8740  136.4350 C   0  0  0  0  0  0  0  0  0  0  0  0
  188.5990  177.6040  137.5220 N   0  0  0  0  0  2  0  0  0  0  0  0
  190.3960  174.7890  135.6370 C   0  0  1  0  0  0  0  0  0  0  0  0
  189.1680  171.5880  134.3460 C   0  0  0  0  0  1  0  0  0  0  0  0
  190.2460  173.2920  135.7880 C   0  0  1  0  0  3  0  0  0  0  0  0
  189.6150  174.0080  134.6010 C   0  0  2  0  0  3  0  0  0  0  0  0
  190.2520  172.6440  134.4160 C   0  0  2  0  0  3  0  0  0  0  0  0
  194.1940  175.4080  135.9230 C   0  0  0  0  0  3  0  0  0  0  0  0
  194.8260  174.9630  137.0070 C   0  0  0  0  0  2  0  0  0  0  0  0
  193.9130  174.3050  137.8890 N   0  0  0  0  0  0  0  0  0  0  0  0
  192.8190  175.0010  136.1530 C   0  0  0  0  0  0  0  0  0  0  0  0
  192.7440  174.3250  137.3950 N   0  0  0  0  0  0  0  0  0  0  0  0
  191.7930  175.2400  135.3400 C   0  0  0  0  0  2  0  0  0  0  0  0
  183.3930  178.5030  143.9590 O   0  0  0  0  0  0  0  0  0  0  0  0
  185.9030  178.1770  143.0090 N   0  0  0  0  0  0  0  0  0  0  0  0
  184.3890  178.2570  143.2310 C   0  0  0  0  0  0  0  0  0  0  0  0
  184.9620  177.8980  142.0170 C   0  0  1  0  0  3  0  0  0  0  0  0
  184.9230  179.0510  141.0320 C   0  0  0  0  0  2  0  0  0  0  0  0
  183.6010  179.0740  140.2790 C   0  0  0  0  0  2  0  0  0  0  0  0
  182.2800  175.4730  138.1040 C   0  0  0  0  0  2  0  0  0  0  0  0
  184.0280  177.1080  137.2310 C   0  0  0  0  0  2  0  0  0  0  0  0
  183.4110  178.2090  138.1000 C   0  0  0  0  0  2  0  0  0  0  0  0
  182.1240  177.3190  139.8320 C   0  0  0  0  0  2  0  0  0  0  0  0
  183.4470  177.8470  139.5130 N   0  0  0  0  0  0  0  0  0  0  0  0
  183.7440  175.6820  137.7210 C   0  0  2  0  0  3  0  0  0  0  0  0
  182.0660  175.8120  139.5790 C   0  0  0  0  0  2  0  0  0  0  0  0
  184.1290  174.7310  136.6900 N   0  0  0  0  0  2  0  0  0  0  0  0
  184.9310  173.6970  137.3350 C   0  0  1  0  0  3  0  0  0  0  0  0
  184.2420  172.3470  137.2130 C   0  0  0  0  0  1  0  0  0  0  0  0
  187.1870  172.5370  137.3680 C   0  0  0  0  0  1  0  0  0  0  0  0
  186.2820  173.4670  135.3680 O   0  0  0  0  0  1  0  0  0  0  0  0
  186.3440  173.6430  136.7510 C   0  0  1  0  0  3  0  0  0  0  0  0
  191.5540  176.0040  147.2200 C   0  0  0  0  0  0  0  0  0  0  0  0
  191.9680  175.4120  148.1250 N   0  0  0  0  0  0  0  0  0  0  0  0
  1 11  1  0  0  0  0
  2  6  1  0  0  0  0
  3  2  2  0  0  0  0
  3 11  1  0  0  0  0
  4  3  1  0  0  0  0
  5  2  1  0  0  0  0
  6  8  2  0  0  0  0
  7 33  1  6  0  0  0
  7  1  1  0  0  0  0
  8 51  1  0  0  0  0
  9  4  1  1  0  0  0
  9  7  1  0  0  0  0
 10  8  1  0  0  0  0
 11 10  2  0  0  0  0
 13 12  1  6  0  0  0
 13  9  1  0  0  0  0
 14 16  1  0  0  0  0
 14 12  1  1  0  0  0
 15 20  1  6  0  0  0
 15 14  1  0  0  0  0
 15 16  1  0  0  0  0
 16 13  1  0  0  0  0
 17 19  2  0  0  0  0
 19 18  1  0  0  0  0
 19 20  1  0  0  0  0
 21 23  1  0  0  0  0
 21 18  1  0  0  0  0
 22 25  1  0  0  0  0
 24 21  1  0  0  0  0
 24 23  1  0  0  0  0
 25 24  1  0  0  0  0
 25 23  1  0  0  0  0
 26 29  2  0  0  0  0
 26 27  1  0  0  0  0
 27 28  1  0  0  0  0
 29 30  1  0  0  0  0
 30 28  2  0  0  0  0
 31 21  1  0  0  0  0
 31 29  1  0  0  0  0
 33 34  1  0  0  0  0
 34 32  2  0  0  0  0
 35 33  1  0  0  0  0
 35 34  1  0  0  0  0
 36 35  1  0  0  0  0
 37 36  1  0  0  0  0
 38 44  1  0  0  0  0
 39 43  1  0  0  0  0
 39 40  1  0  0  0  0
 40 42  1  0  0  0  0
 42 41  1  0  0  0  0
 42 37  1  0  0  0  0
 43 38  1  0  0  0  0
 44 41  1  0  0  0  0
 45 46  1  0  0  0  0
 45 43  1  0  0  0  0
 47 46  1  0  0  0  0
 49 50  1  0  0  0  0
 50 46  1  0  0  0  0
 50 48  1  0  0  0  0
 51 52  3  0  0  0  0
M  END
>  <MODEL>
1

>  <REMARK>
 VINA RESULT:      -7.1      0.000      0.000
  Name = 
  12 active torsions:
  status: ('A' for Active; 'I' for Inactive)
    1  A    between atoms: C_2  and  N_19
    2  A    between atoms: C_2  and  C_52
    3  A    between atoms: N_6  and  C_29
    4  A    between atoms: N_9  and  C_13
    5  A    between atoms: N_9  and  C_43
    6  A    between atoms: C_10  and  C_30
    7  A    between atoms: C_12  and  C_32
    8  A    between atoms: C_13  and  C_41
    9  A    between atoms: C_26  and  C_33
   10  A    between atoms: C_26  and  N_37
   11  A    between atoms: C_33  and  CA_44
   12  A    between atoms: C_42  and  N_47
                            x       y       z     vdW  Elec       q    Type
                         _______ _______ _______ _____ _____    ______ ____

>  <TORSDO>
F 12

$$$$
=
 OpenBabel10232411403D

 52 60  0  0  1  0  0  0  0  0999 V2000
  187.6760  177.6930  140.4600 C   0  0  0  0  0  2  0  0  0  0  0  0
  190.5240  177.9360  142.9760 C   0  0  0  0  0  0  0  0  0  0  0  0
  189.8420  177.8960  141.7520 C   0  0  0  0  0  0  0  0  0  0  0  0
  190.5490  178.0470  140.5140 N   0  0  0  0  0  2  0  0  0  0  0  0
  191.9370  178.1100  143.0130 N   0  0  0  0  0  1  0  0  0  0  0  0
  189.8340  177.8000  144.1400 N   0  0  0  0  0  0  0  0  0  0  0  0
  188.4430  178.3790  139.3260 C   0  0  1  0  0  3  0  0  0  0  0  0
  188.4850  177.6170  144.1570 C   0  0  0  0  0  0  0  0  0  0  0  0
  189.8850  177.8510  139.2250 C   0  0  2  0  0  3  0  0  0  0  0  0
  187.7660  177.5870  142.9590 C   0  0  0  0  0  3  0  0  0  0  0  0
  188.4430  177.7440  141.7500 C   0  0  0  0  0  0  0  0  0  0  0  0
  191.1620  175.7460  139.3330 N   0  0  0  0  0  2  0  0  0  0  0  0
  189.9440  176.3670  138.8250 C   0  0  2  0  0  3  0  0  0  0  0  0
  191.6420  175.6090  137.9650 C   0  0  1  0  0  3  0  0  0  0  0  0
  190.6900  174.7600  137.1450 C   0  0  1  0  0  3  0  0  0  0  0  0
  190.3880  176.2180  137.3900 C   0  0  1  0  0  3  0  0  0  0  0  0
  192.7750  173.6710  134.3470 O   0  0  0  0  0  0  0  0  0  0  0  0
  192.8760  172.9120  136.5570 N   0  0  0  0  0  2  0  0  0  0  0  0
  192.3130  173.7220  135.5180 C   0  0  0  0  0  0  0  0  0  0  0  0
  191.2200  174.5970  135.8010 N   0  0  0  0  0  2  0  0  0  0  0  0
  194.1080  172.1460  136.4040 C   0  0  1  0  0  0  0  0  0  0  0  0
  194.0660  168.4900  136.6270 C   0  0  0  0  0  1  0  0  0  0  0  0
  194.1180  170.8900  137.2440 C   0  0  1  0  0  3  0  0  0  0  0  0
  194.0030  170.7940  135.7290 C   0  0  2  0  0  3  0  0  0  0  0  0
  194.8390  169.7860  136.4940 C   0  0  2  0  0  3  0  0  0  0  0  0
  197.1810  174.1830  137.5380 C   0  0  0  0  0  3  0  0  0  0  0  0
  197.2540  174.5580  138.8140 C   0  0  0  0  0  2  0  0  0  0  0  0
  196.1130  174.0970  139.5410 N   0  0  0  0  0  0  0  0  0  0  0  0
  195.9290  173.4520  137.4810 C   0  0  0  0  0  0  0  0  0  0  0  0
  195.3390  173.4530  138.7690 N   0  0  0  0  0  0  0  0  0  0  0  0
  195.4070  172.8900  136.3930 C   0  0  0  0  0  2  0  0  0  0  0  0
  188.2570  178.2380  135.4230 O   0  0  0  0  0  0  0  0  0  0  0  0
  187.7210  178.2470  138.0730 N   0  0  0  0  0  0  0  0  0  0  0  0
  187.6870  178.1750  136.5430 C   0  0  0  0  0  0  0  0  0  0  0  0
  186.5720  177.9440  137.3400 C   0  0  1  0  0  3  0  0  0  0  0  0
  186.2840  176.4600  137.4620 C   0  0  0  0  0  2  0  0  0  0  0  0
  184.9800  176.1040  136.7650 C   0  0  0  0  0  2  0  0  0  0  0  0
  181.1480  177.7090  138.2440 C   0  0  0  0  0  2  0  0  0  0  0  0
  182.5670  176.0100  139.5040 C   0  0  0  0  0  2  0  0  0  0  0  0
  183.1790  175.5560  138.1750 C   0  0  0  0  0  2  0  0  0  0  0  0
  182.9160  177.1710  136.5100 C   0  0  0  0  0  2  0  0  0  0  0  0
  183.8560  176.6600  137.5030 N   0  0  0  0  0  0  0  0  0  0  0  0
  181.9950  177.4340  139.4840 C   0  0  2  0  0  3  0  0  0  0  0  0
  182.0240  178.2550  137.1160 C   0  0  0  0  0  2  0  0  0  0  0  0
  181.2050  177.6540  140.6850 N   0  0  0  0  0  2  0  0  0  0  0  0
  181.7590  178.8250  141.3560 C   0  0  1  0  0  3  0  0  0  0  0  0
  180.6460  179.6280  142.0120 C   0  0  0  0  0  1  0  0  0  0  0  0
  184.2360  178.7300  141.9000 C   0  0  0  0  0  1  0  0  0  0  0  0
  182.5910  179.0880  143.5890 O   0  0  0  0  0  1  0  0  0  0  0  0
  182.8240  178.4290  142.3810 C   0  0  1  0  0  3  0  0  0  0  0  0
  187.7960  177.4810  145.4080 C   0  0  0  0  0  0  0  0  0  0  0  0
  187.2390  177.3740  146.4170 N   0  0  0  0  0  0  0  0  0  0  0  0
  1 11  1  0  0  0  0
  2  5  1  0  0  0  0
  2  6  1  0  0  0  0
  3  2  2  0  0  0  0
  4  3  1  0  0  0  0
  6  8  2  0  0  0  0
  7 33  1  6  0  0  0
  7  1  1  0  0  0  0
  8 51  1  0  0  0  0
  9  7  1  0  0  0  0
  9  4  1  1  0  0  0
 10  8  1  0  0  0  0
 11  3  1  0  0  0  0
 11 10  2  0  0  0  0
 13  9  1  0  0  0  0
 13 12  1  1  0  0  0
 14 12  1  1  0  0  0
 15 20  1  6  0  0  0
 15 16  1  0  0  0  0
 15 14  1  0  0  0  0
 16 14  1  0  0  0  0
 16 13  1  0  0  0  0
 17 19  2  0  0  0  0
 19 20  1  0  0  0  0
 19 18  1  0  0  0  0
 21 18  1  0  0  0  0
 21 23  1  0  0  0  0
 24 21  1  0  0  0  0
 24 25  1  0  0  0  0
 24 23  1  0  0  0  0
 25 22  1  0  0  0  0
 25 23  1  0  0  0  0
 26 27  1  0  0  0  0
 27 28  1  0  0  0  0
 29 26  2  0  0  0  0
 29 30  1  0  0  0  0
 30 28  2  0  0  0  0
 31 21  1  0  0  0  0
 31 29  1  0  0  0  0
 32 34  2  0  0  0  0
 34 35  1  0  0  0  0
 34 33  1  0  0  0  0
 35 36  1  0  0  0  0
 35 33  1  0  0  0  0
 37 36  1  0  0  0  0
 37 42  1  0  0  0  0
 38 43  1  0  0  0  0
 40 39  1  0  0  0  0
 41 44  1  0  0  0  0
 41 42  1  0  0  0  0
 42 40  1  0  0  0  0
 43 39  1  0  0  0  0
 43 45  1  0  0  0  0
 44 38  1  0  0  0  0
 45 46  1  0  0  0  0
 46 47  1  0  0  0  0
 46 50  1  0  0  0  0
 48 50  1  0  0  0  0
 50 49  1  0  0  0  0
 51 52  3  0  0  0  0
M  END
>  <MODEL>
2

>  <REMARK>
 VINA RESULT:      -6.7      2.382      4.886
  Name = 
  12 active torsions:
  status: ('A' for Active; 'I' for Inactive)
    1  A    between atoms: C_2  and  N_19
    2  A    between atoms: C_2  and  C_52
    3  A    between atoms: N_6  and  C_29
    4  A    between atoms: N_9  and  C_13
    5  A    between atoms: N_9  and  C_43
    6  A    between atoms: C_10  and  C_30
    7  A    between atoms: C_12  and  C_32
    8  A    between atoms: C_13  and  C_41
    9  A    between atoms: C_26  and  C_33
   10  A    between atoms: C_26  and  N_37
   11  A    between atoms: C_33  and  CA_44
   12  A    between atoms: C_42  and  N_47
                            x       y       z     vdW  Elec       q    Type
                         _______ _______ _______ _____ _____    ______ ____

>  <TORSDO>
F 12

$$$$
=
 OpenBabel10232411403D

 52 60  0  0  1  0  0  0  0  0999 V2000
  187.7810  177.1910  144.6690 C   0  0  0  0  0  2  0  0  0  0  0  0
  191.4290  178.2770  144.5650 C   0  0  0  0  0  0  0  0  0  0  0  0
  190.0710  178.1760  144.2340 C   0  0  0  0  0  0  0  0  0  0  0  0
  189.5180  178.9490  143.1620 N   0  0  0  0  0  2  0  0  0  0  0  0
  192.2920  179.1400  143.8290 N   0  0  0  0  0  1  0  0  0  0  0  0
  191.9330  177.5420  145.5930 N   0  0  0  0  0  0  0  0  0  0  0  0
  187.2590  178.4140  143.9100 C   0  0  1  0  0  3  0  0  0  0  0  0
  191.1530  176.6930  146.3160 C   0  0  0  0  0  0  0  0  0  0  0  0
  188.1460  178.7420  142.6970 C   0  0  2  0  0  3  0  0  0  0  0  0
  189.7910  176.5740  146.0290 C   0  0  0  0  0  3  0  0  0  0  0  0
  189.2410  177.3300  144.9940 C   0  0  0  0  0  0  0  0  0  0  0  0
  189.4430  177.0640  141.4420 N   0  0  0  0  0  2  0  0  0  0  0  0
  188.1150  177.6400  141.6260 C   0  0  2  0  0  3  0  0  0  0  0  0
  189.4930  177.6510  140.1090 C   0  0  1  0  0  3  0  0  0  0  0  0
  188.3580  177.1280  139.2510 C   0  0  1  0  0  3  0  0  0  0  0  0
  188.1110  178.2410  140.2410 C   0  0  1  0  0  3  0  0  0  0  0  0
  188.5480  177.4070  135.6110 O   0  0  0  0  0  0  0  0  0  0  0  0
  188.1160  175.4740  136.8550 N   0  0  0  0  0  2  0  0  0  0  0  0
  188.3830  176.8770  136.7430 C   0  0  0  0  0  0  0  0  0  0  0  0
  188.4640  177.6890  137.9140 N   0  0  0  0  0  2  0  0  0  0  0  0
  188.2120  174.5420  135.7360 C   0  0  1  0  0  0  0  0  0  0  0  0
  185.3380  172.4820  134.7780 C   0  0  0  0  0  1  0  0  0  0  0  0
  187.3680  173.3040  135.9380 C   0  0  1  0  0  3  0  0  0  0  0  0
  186.9680  174.3400  134.8960 C   0  0  2  0  0  3  0  0  0  0  0  0
  186.7940  172.8610  134.6050 C   0  0  2  0  0  3  0  0  0  0  0  0
  191.9890  173.8340  135.3890 C   0  0  0  0  0  3  0  0  0  0  0  0
  192.7200  173.7520  136.4990 C   0  0  0  0  0  2  0  0  0  0  0  0
  191.9040  173.9500  137.6570 N   0  0  0  0  0  0  0  0  0  0  0  0
  190.6530  174.0970  135.8940 C   0  0  0  0  0  0  0  0  0  0  0  0
  190.7010  174.1510  137.3080 N   0  0  0  0  0  0  0  0  0  0  0  0
  189.5640  174.2760  135.1500 C   0  0  0  0  0  2  0  0  0  0  0  0
  183.4200  178.4950  144.6530 O   0  0  0  0  0  0  0  0  0  0  0  0
  185.8670  178.2220  143.5370 N   0  0  0  0  0  0  0  0  0  0  0  0
  184.3700  178.2870  143.8550 C   0  0  0  0  0  0  0  0  0  0  0  0
  184.8680  177.9880  142.5920 C   0  0  1  0  0  3  0  0  0  0  0  0
  184.7700  179.1860  141.6670 C   0  0  0  0  0  2  0  0  0  0  0  0
  184.8200  178.7500  140.2110 C   0  0  0  0  0  2  0  0  0  0  0  0
  180.8610  177.0580  139.2620 C   0  0  0  0  0  2  0  0  0  0  0  0
  183.0180  176.3940  138.0810 C   0  0  0  0  0  2  0  0  0  0  0  0
  183.6210  177.7530  138.4500 C   0  0  0  0  0  2  0  0  0  0  0  0
  182.4840  178.7450  140.2300 C   0  0  0  0  0  2  0  0  0  0  0  0
  183.6540  177.9390  139.8970 N   0  0  0  0  0  0  0  0  0  0  0  0
  181.8690  175.9440  138.9920 C   0  0  2  0  0  3  0  0  0  0  0  0
  181.2710  177.8540  140.5010 C   0  0  0  0  0  2  0  0  0  0  0  0
  181.1990  174.8000  138.3960 N   0  0  0  0  0  2  0  0  0  0  0  0
  181.7800  174.6000  137.0720 C   0  0  1  0  0  3  0  0  0  0  0  0
  182.3190  173.1840  136.9440 C   0  0  0  0  0  1  0  0  0  0  0  0
  181.4310  175.3530  134.6740 C   0  0  0  0  0  1  0  0  0  0  0  0
  179.9820  173.7730  135.7200 O   0  0  0  0  0  1  0  0  0  0  0  0
  180.7660  174.9010  135.9670 C   0  0  1  0  0  3  0  0  0  0  0  0
  191.7250  175.9370  147.3940 C   0  0  0  0  0  0  0  0  0  0  0  0
  192.1890  175.3270  148.2610 N   0  0  0  0  0  0  0  0  0  0  0  0
  1 11  1  0  0  0  0
  2  6  1  0  0  0  0
  3  2  2  0  0  0  0
  3 11  1  0  0  0  0
  4  3  1  0  0  0  0
  5  2  1  0  0  0  0
  6  8  2  0  0  0  0
  7 33  1  6  0  0  0
  7  1  1  0  0  0  0
  8 51  1  0  0  0  0
  9  4  1  1  0  0  0
  9  7  1  0  0  0  0
 10  8  1  0  0  0  0
 11 10  2  0  0  0  0
 13 12  1  6  0  0  0
 13  9  1  0  0  0  0
 14 16  1  0  0  0  0
 14 12  1  1  0  0  0
 15 20  1  6  0  0  0
 15 14  1  0  0  0  0
 15 16  1  0  0  0  0
 16 13  1  0  0  0  0
 17 19  2  0  0  0  0
 19 18  1  0  0  0  0
 19 20  1  0  0  0  0
 21 23  1  0  0  0  0
 21 18  1  0  0  0  0
 24 21  1  0  0  0  0
 24 23  1  0  0  0  0
 25 22  1  0  0  0  0
 25 24  1  0  0  0  0
 25 23  1  0  0  0  0
 26 29  2  0  0  0  0
 26 27  1  0  0  0  0
 27 28  1  0  0  0  0
 29 30  1  0  0  0  0
 30 28  2  0  0  0  0
 31 21  1  0  0  0  0
 31 29  1  0  0  0  0
 33 34  1  0  0  0  0
 34 32  2  0  0  0  0
 35 33  1  0  0  0  0
 35 34  1  0  0  0  0
 36 35  1  0  0  0  0
 37 36  1  0  0  0  0
 38 44  1  0  0  0  0
 39 40  1  0  0  0  0
 39 43  1  0  0  0  0
 40 42  1  0  0  0  0
 41 44  1  0  0  0  0
 42 37  1  0  0  0  0
 42 41  1  0  0  0  0
 43 38  1  0  0  0  0
 45 43  1  0  0  0  0
 46 45  1  0  0  0  0
 47 46  1  0  0  0  0
 48 50  1  0  0  0  0
 49 50  1  0  0  0  0
 50 46  1  0  0  0  0
 51 52  3  0  0  0  0
M  END
>  <MODEL>
3

>  <REMARK>
 VINA RESULT:      -6.2      1.543      2.243
  Name = 
  12 active torsions:
  status: ('A' for Active; 'I' for Inactive)
    1  A    between atoms: C_2  and  N_19
    2  A    between atoms: C_2  and  C_52
    3  A    between atoms: N_6  and  C_29
    4  A    between atoms: N_9  and  C_13
    5  A    between atoms: N_9  and  C_43
    6  A    between atoms: C_10  and  C_30
    7  A    between atoms: C_12  and  C_32
    8  A    between atoms: C_13  and  C_41
    9  A    between atoms: C_26  and  C_33
   10  A    between atoms: C_26  and  N_37
   11  A    between atoms: C_33  and  CA_44
   12  A    between atoms: C_42  and  N_47
                            x       y       z     vdW  Elec       q    Type
                         _______ _______ _______ _____ _____    ______ ____

>  <TORSDO>
F 12

$$$$
=
 OpenBabel10232411403D

 52 60  0  0  1  0  0  0  0  0999 V2000
  187.9900  177.6650  139.7330 C   0  0  0  0  0  2  0  0  0  0  0  0
  190.6610  177.5920  142.4450 C   0  0  0  0  0  0  0  0  0  0  0  0
  190.0680  177.6380  141.1760 C   0  0  0  0  0  0  0  0  0  0  0  0
  190.8720  177.7380  139.9940 N   0  0  0  0  0  2  0  0  0  0  0  0
  192.0780  177.6280  142.5840 N   0  0  0  0  0  1  0  0  0  0  0  0
  189.8800  177.5060  143.5560 N   0  0  0  0  0  0  0  0  0  0  0  0
  188.8980  178.2910  138.6710 C   0  0  1  0  0  3  0  0  0  0  0  0
  188.5220  177.4550  143.4740 C   0  0  0  0  0  0  0  0  0  0  0  0
  190.2860  177.6270  138.6580 C   0  0  2  0  0  3  0  0  0  0  0  0
  187.8910  177.5120  142.2300 C   0  0  0  0  0  3  0  0  0  0  0  0
  188.6640  177.6220  141.0740 C   0  0  0  0  0  0  0  0  0  0  0  0
  191.2360  175.3710  138.9450 N   0  0  0  0  0  2  0  0  0  0  0  0
  190.2320  176.1510  138.2300 C   0  0  2  0  0  3  0  0  0  0  0  0
  191.9540  175.1800  137.6920 C   0  0  1  0  0  3  0  0  0  0  0  0
  191.0800  174.4690  136.6770 C   0  0  1  0  0  3  0  0  0  0  0  0
  190.9260  175.9540  136.9040 C   0  0  1  0  0  3  0  0  0  0  0  0
  193.6290  173.2700  134.3470 O   0  0  0  0  0  0  0  0  0  0  0  0
  193.3470  172.6270  136.5780 N   0  0  0  0  0  2  0  0  0  0  0  0
  192.9690  173.3750  135.4160 C   0  0  0  0  0  0  0  0  0  0  0  0
  191.8380  174.2460  135.4570 N   0  0  0  0  0  2  0  0  0  0  0  0
  194.5910  171.8740  136.6840 C   0  0  1  0  0  0  0  0  0  0  0  0
  194.5370  168.2860  137.4220 C   0  0  0  0  0  1  0  0  0  0  0  0
  194.5050  170.7500  137.6910 C   0  0  1  0  0  3  0  0  0  0  0  0
  194.5730  170.4380  136.2020 C   0  0  2  0  0  3  0  0  0  0  0  0
  195.3150  169.5660  137.1970 C   0  0  2  0  0  3  0  0  0  0  0  0
  197.4950  174.1200  137.8700 C   0  0  0  0  0  3  0  0  0  0  0  0
  197.4100  174.6770  139.0760 C   0  0  0  0  0  2  0  0  0  0  0  0
  196.1900  174.3020  139.7200 N   0  0  0  0  0  0  0  0  0  0  0  0
  196.2620  173.3620  137.7690 C   0  0  0  0  0  0  0  0  0  0  0  0
  195.5190  173.5360  138.9630 N   0  0  0  0  0  0  0  0  0  0  0  0
  195.8790  172.6360  136.7210 C   0  0  0  0  0  2  0  0  0  0  0  0
  188.8550  177.4760  134.8460 O   0  0  0  0  0  0  0  0  0  0  0  0
  188.2570  178.2490  137.3670 N   0  0  0  0  0  0  0  0  0  0  0  0
  188.2670  177.8980  135.8770 C   0  0  0  0  0  0  0  0  0  0  0  0
  187.1360  178.3520  136.5440 C   0  0  1  0  0  3  0  0  0  0  0  0
  186.1880  177.2090  136.8540 C   0  0  0  0  0  2  0  0  0  0  0  0
  185.0030  177.6970  137.6750 C   0  0  0  0  0  2  0  0  0  0  0  0
  181.2650  175.3700  137.8980 C   0  0  0  0  0  2  0  0  0  0  0  0
  182.6550  175.6390  135.7810 C   0  0  0  0  0  2  0  0  0  0  0  0
  183.2190  176.9510  136.3360 C   0  0  0  0  0  2  0  0  0  0  0  0
  182.9720  177.0830  138.6530 C   0  0  0  0  0  2  0  0  0  0  0  0
  183.9170  176.7320  137.5980 N   0  0  0  0  0  0  0  0  0  0  0  0
  182.1310  174.6730  136.8510 C   0  0  2  0  0  3  0  0  0  0  0  0
  182.1320  175.8700  139.0540 C   0  0  0  0  0  2  0  0  0  0  0  0
  181.3780  173.6060  136.2120 N   0  0  0  0  0  2  0  0  0  0  0  0
  181.7560  172.3590  136.8670 C   0  0  1  0  0  3  0  0  0  0  0  0
  180.5740  171.7920  137.6370 C   0  0  0  0  0  1  0  0  0  0  0  0
  183.6020  170.7100  136.3080 C   0  0  0  0  0  1  0  0  0  0  0  0
  181.3420  170.3390  135.6440 O   0  0  0  0  0  1  0  0  0  0  0  0
  182.2910  171.3390  135.8600 C   0  0  1  0  0  3  0  0  0  0  0  0
  187.7360  177.3660  144.6720 C   0  0  0  0  0  0  0  0  0  0  0  0
  187.1020  177.2990  145.6380 N   0  0  0  0  0  0  0  0  0  0  0  0
  1 11  1  0  0  0  0
  2  5  1  0  0  0  0
  2  6  1  0  0  0  0
  3  2  2  0  0  0  0
  4  3  1  0  0  0  0
  7 33  1  6  0  0  0
  7  1  1  0  0  0  0
  8  6  2  0  0  0  0
  8 51  1  0  0  0  0
  9  7  1  0  0  0  0
  9  4  1  1  0  0  0
 10  8  1  0  0  0  0
 11  3  1  0  0  0  0
 11 10  2  0  0  0  0
 13  9  1  0  0  0  0
 13 12  1  1  0  0  0
 14 12  1  1  0  0  0
 15 20  1  6  0  0  0
 15 16  1  0  0  0  0
 15 14  1  0  0  0  0
 16 14  1  0  0  0  0
 16 13  1  0  0  0  0
 17 19  2  0  0  0  0
 18 21  1  0  0  0  0
 19 20  1  0  0  0  0
 19 18  1  0  0  0  0
 21 31  1  0  0  0  0
 21 23  1  0  0  0  0
 24 21  1  0  0  0  0
 24 25  1  0  0  0  0
 24 23  1  0  0  0  0
 25 22  1  0  0  0  0
 25 23  1  0  0  0  0
 26 27  1  0  0  0  0
 27 28  1  0  0  0  0
 29 26  2  0  0  0  0
 29 30  1  0  0  0  0
 30 28  2  0  0  0  0
 31 29  1  0  0  0  0
 32 34  2  0  0  0  0
 34 35  1  0  0  0  0
 34 33  1  0  0  0  0
 35 36  1  0  0  0  0
 35 33  1  0  0  0  0
 36 37  1  0  0  0  0
 38 44  1  0  0  0  0
 39 40  1  0  0  0  0
 39 43  1  0  0  0  0
 40 42  1  0  0  0  0
 41 44  1  0  0  0  0
 42 37  1  0  0  0  0
 42 41  1  0  0  0  0
 43 38  1  0  0  0  0
 45 43  1  0  0  0  0
 45 46  1  0  0  0  0
 46 47  1  0  0  0  0
 49 50  1  0  0  0  0
 50 48  1  0  0  0  0
 50 46  1  0  0  0  0
 51 52  3  0  0  0  0
M  END
>  <MODEL>
4

>  <REMARK>
 VINA RESULT:      -6.1      2.877      4.579
  Name = 
  12 active torsions:
  status: ('A' for Active; 'I' for Inactive)
    1  A    between atoms: C_2  and  N_19
    2  A    between atoms: C_2  and  C_52
    3  A    between atoms: N_6  and  C_29
    4  A    between atoms: N_9  and  C_13
    5  A    between atoms: N_9  and  C_43
    6  A    between atoms: C_10  and  C_30
    7  A    between atoms: C_12  and  C_32
    8  A    between atoms: C_13  and  C_41
    9  A    between atoms: C_26  and  C_33
   10  A    between atoms: C_26  and  N_37
   11  A    between atoms: C_33  and  CA_44
   12  A    between atoms: C_42  and  N_47
                            x       y       z     vdW  Elec       q    Type
                         _______ _______ _______ _____ _____    ______ ____

>  <TORSDO>
F 12

$$$$
=
 OpenBabel10232411403D

 52 60  0  0  1  0  0  0  0  0999 V2000
  190.8860  175.4570  139.1290 C   0  0  0  0  0  2  0  0  0  0  0  0
  191.2260  175.8950  135.3610 C   0  0  0  0  0  0  0  0  0  0  0  0
  190.9190  176.1700  136.7010 C   0  0  0  0  0  0  0  0  0  0  0  0
  190.3590  177.4340  137.0790 N   0  0  0  0  0  2  0  0  0  0  0  0
  190.9700  176.8610  134.3460 N   0  0  0  0  0  1  0  0  0  0  0  0
  191.7660  174.6930  135.0230 N   0  0  0  0  0  0  0  0  0  0  0  0
  190.8150  176.9570  139.4290 C   0  0  1  0  0  3  0  0  0  0  0  0
  192.0150  173.7320  135.9540 C   0  0  0  0  0  0  0  0  0  0  0  0
  189.8850  177.6840  138.4410 C   0  0  2  0  0  3  0  0  0  0  0  0
  191.7380  173.9720  137.3020 C   0  0  0  0  0  3  0  0  0  0  0  0
  191.2030  175.2030  137.6830 C   0  0  0  0  0  0  0  0  0  0  0  0
  187.7740  177.1920  137.2680 N   0  0  0  0  0  2  0  0  0  0  0  0
  188.4190  177.2410  138.5760 C   0  0  2  0  0  3  0  0  0  0  0  0
  186.9380  178.3200  137.6580 C   0  0  1  0  0  3  0  0  0  0  0  0
  186.1100  177.9760  138.8800 C   0  0  1  0  0  3  0  0  0  0  0  0
  187.5540  178.3900  139.0330 C   0  0  1  0  0  3  0  0  0  0  0  0
  183.1550  180.1000  139.2190 O   0  0  0  0  0  0  0  0  0  0  0  0
  183.2210  177.8910  138.4530 N   0  0  0  0  0  2  0  0  0  0  0  0
  183.8420  179.0730  138.9720 C   0  0  0  0  0  0  0  0  0  0  0  0
  185.2490  179.0990  139.2150 N   0  0  0  0  0  2  0  0  0  0  0  0
  181.8380  177.8430  137.9930 C   0  0  1  0  0  0  0  0  0  0  0  0
  180.5240  180.4420  135.7700 C   0  0  0  0  0  1  0  0  0  0  0  0
  181.2410  179.2190  137.8040 C   0  0  1  0  0  3  0  0  0  0  0  0
  181.5560  178.3500  136.5940 C   0  0  2  0  0  3  0  0  0  0  0  0
  180.3020  179.2030  136.6120 C   0  0  2  0  0  3  0  0  0  0  0  0
  179.9860  174.5680  138.8490 C   0  0  0  0  0  3  0  0  0  0  0  0
  180.2830  173.4740  138.1490 C   0  0  0  0  0  3  0  0  0  0  0  0
  181.2880  173.7570  137.1730 N   0  0  0  0  0  0  0  0  0  0  0  0
  180.8570  175.5750  138.2700 C   0  0  0  0  0  0  0  0  0  0  0  0
  181.6250  174.9790  137.2400 N   0  0  0  0  0  0  0  0  0  0  0  0
  180.9130  176.8550  138.6320 C   0  0  0  0  0  3  0  0  0  0  0  0
  188.1900  177.0810  142.3250 O   0  0  0  0  0  0  0  0  0  0  0  0
  190.4290  177.1790  140.8120 N   0  0  0  0  0  0  0  0  0  0  0  0
  189.3790  177.1970  141.9270 C   0  0  0  0  0  0  0  0  0  0  0  0
  190.7360  177.3890  142.1570 C   0  0  1  0  0  3  0  0  0  0  0  0
  191.3780  176.1350  142.7190 C   0  0  0  0  0  2  0  0  0  0  0  0
  192.0280  176.4180  144.0650 C   0  0  0  0  0  2  0  0  0  0  0  0
  189.5940  177.2310  147.6510 C   0  0  0  0  0  2  0  0  0  0  0  0
  189.2780  178.4070  145.4140 C   0  0  0  0  0  2  0  0  0  0  0  0
  190.7420  178.1120  145.0690 C   0  0  0  0  0  2  0  0  0  0  0  0
  191.5960  176.3670  146.3610 C   0  0  0  0  0  2  0  0  0  0  0  0
  191.0030  176.6770  145.0650 N   0  0  0  0  0  0  0  0  0  0  0  0
  188.6710  177.4590  146.4560 C   0  0  2  0  0  3  0  0  0  0  0  0
  190.5120  176.0370  147.3890 C   0  0  0  0  0  2  0  0  0  0  0  0
  187.3950  177.9910  146.9070 N   0  0  0  0  0  2  0  0  0  0  0  0
  186.5790  178.2230  145.7200 C   0  0  1  0  0  3  0  0  0  0  0  0
  186.0370  176.9040  145.1910 C   0  0  0  0  0  1  0  0  0  0  0  0
  184.5300  179.4080  144.8060 C   0  0  0  0  0  1  0  0  0  0  0  0
  184.6910  178.7590  147.0960 O   0  0  0  0  0  1  0  0  0  0  0  0
  185.4420  179.2050  146.0080 C   0  0  1  0  0  3  0  0  0  0  0  0
  192.5880  172.4780  135.5540 C   0  0  0  0  0  0  0  0  0  0  0  0
  193.0520  171.4680  135.2340 N   0  0  0  0  0  0  0  0  0  0  0  0
  2  3  1  0  0  0  0
  3  4  1  0  0  0  0
  3 11  2  0  0  0  0
  5  2  1  0  0  0  0
  6  2  2  0  0  0  0
  6  8  1  0  0  0  0
  7  1  1  6  0  0  0
  7 33  1  0  0  0  0
  8 10  2  0  0  0  0
  9  4  1  6  0  0  0
  9 13  1  0  0  0  0
  9  7  1  0  0  0  0
 10 11  1  0  0  0  0
 11  1  1  0  0  0  0
 13 12  1  6  0  0  0
 13 16  1  0  0  0  0
 14 12  1  6  0  0  0
 14 15  1  0  0  0  0
 14 16  1  0  0  0  0
 15 16  1  0  0  0  0
 15 20  1  1  0  0  0
 18 19  1  0  0  0  0
 19 20  1  0  0  0  0
 19 17  2  0  0  0  0
 21 18  1  0  0  0  0
 21 31  1  0  0  0  0
 22 25  1  0  0  0  0
 23 21  1  0  0  0  0
 24 25  1  0  0  0  0
 24 23  1  0  0  0  0
 24 21  1  0  0  0  0
 25 23  1  0  0  0  0
 27 26  2  0  0  0  0
 28 30  2  0  0  0  0
 28 27  1  0  0  0  0
 29 31  2  0  0  0  0
 29 26  1  0  0  0  0
 30 29  1  0  0  0  0
 33 34  1  0  0  0  0
 33 35  1  0  0  0  0
 34 35  1  0  0  0  0
 34 32  2  0  0  0  0
 35 36  1  0  0  0  0
 36 37  1  0  0  0  0
 37 42  1  0  0  0  0
 39 43  1  0  0  0  0
 40 39  1  0  0  0  0
 41 44  1  0  0  0  0
 42 40  1  0  0  0  0
 42 41  1  0  0  0  0
 43 45  1  0  0  0  0
 43 38  1  0  0  0  0
 44 38  1  0  0  0  0
 46 50  1  0  0  0  0
 46 45  1  0  0  0  0
 47 46  1  0  0  0  0
 48 50  1  0  0  0  0
 50 49  1  0  0  0  0
 51  8  1  0  0  0  0
 52 51  3  0  0  0  0
M  END
>  <MODEL>
5

>  <REMARK>
 VINA RESULT:      -6.1      2.839      9.435
  Name = 
  12 active torsions:
  status: ('A' for Active; 'I' for Inactive)
    1  A    between atoms: C_2  and  N_19
    2  A    between atoms: C_2  and  C_52
    3  A    between atoms: N_6  and  C_29
    4  A    between atoms: N_9  and  C_13
    5  A    between atoms: N_9  and  C_43
    6  A    between atoms: C_10  and  C_30
    7  A    between atoms: C_12  and  C_32
    8  A    between atoms: C_13  and  C_41
    9  A    between atoms: C_26  and  C_33
   10  A    between atoms: C_26  and  N_37
   11  A    between atoms: C_33  and  CA_44
   12  A    between atoms: C_42  and  N_47
                            x       y       z     vdW  Elec       q    Type
                         _______ _______ _______ _____ _____    ______ ____

>  <TORSDO>
F 12

$$$$
=
 OpenBabel10232411403D

 52 60  0  0  1  0  0  0  0  0999 V2000
  187.6840  177.7400  140.3010 C   0  0  0  0  0  2  0  0  0  0  0  0
  190.3690  177.9360  142.9940 C   0  0  0  0  0  0  0  0  0  0  0  0
  189.7650  177.9190  141.7300 C   0  0  0  0  0  0  0  0  0  0  0  0
  190.5480  178.0940  140.5410 N   0  0  0  0  0  2  0  0  0  0  0  0
  191.7770  178.1100  143.1230 N   0  0  0  0  0  1  0  0  0  0  0  0
  189.6070  177.7790  144.1110 N   0  0  0  0  0  0  0  0  0  0  0  0
  188.5200  178.4480  139.2310 C   0  0  1  0  0  3  0  0  0  0  0  0
  188.2610  177.5960  144.0390 C   0  0  0  0  0  0  0  0  0  0  0  0
  189.9660  177.9210  139.2100 C   0  0  2  0  0  3  0  0  0  0  0  0
  187.6180  177.5870  142.7990 C   0  0  0  0  0  3  0  0  0  0  0  0
  188.3690  177.7670  141.6380 C   0  0  0  0  0  0  0  0  0  0  0  0
  191.1740  175.7860  139.4460 N   0  0  0  0  0  2  0  0  0  0  0  0
  190.0520  176.4460  138.7870 C   0  0  2  0  0  3  0  0  0  0  0  0
  191.8390  175.6670  138.1550 C   0  0  1  0  0  3  0  0  0  0  0  0
  190.9950  174.8570  137.1900 C   0  0  1  0  0  3  0  0  0  0  0  0
  190.6900  176.3170  137.4250 C   0  0  1  0  0  3  0  0  0  0  0  0
  193.5010  173.8820  134.7140 O   0  0  0  0  0  0  0  0  0  0  0  0
  193.3720  173.1760  136.9410 N   0  0  0  0  0  2  0  0  0  0  0  0
  192.8890  173.9200  135.8150 C   0  0  0  0  0  0  0  0  0  0  0  0
  191.7060  174.7100  135.9300 N   0  0  0  0  0  2  0  0  0  0  0  0
  194.6680  172.5080  136.9690 C   0  0  1  0  0  0  0  0  0  0  0  0
  197.6370  174.2570  138.2130 C   0  0  0  0  0  1  0  0  0  0  0  0
  195.8180  173.4600  136.7300 C   0  0  1  0  0  3  0  0  0  0  0  0
  195.6010  172.8560  138.1110 C   0  0  2  0  0  3  0  0  0  0  0  0
  197.0070  173.0380  137.5720 C   0  0  2  0  0  3  0  0  0  0  0  0
  195.0760  168.7320  136.2900 C   0  0  0  0  0  3  0  0  0  0  0  0
  195.2070  167.9140  137.3330 C   0  0  0  0  0  2  0  0  0  0  0  0
  195.1610  168.6480  138.5590 N   0  0  0  0  0  0  0  0  0  0  0  0
  194.9430  170.0370  136.9100 C   0  0  0  0  0  0  0  0  0  0  0  0
  195.0080  169.8840  138.3170 N   0  0  0  0  0  0  0  0  0  0  0  0
  194.8030  171.1930  136.2660 C   0  0  0  0  0  2  0  0  0  0  0  0
  188.4760  177.4540  135.4490 O   0  0  0  0  0  0  0  0  0  0  0  0
  187.8770  178.3390  137.9320 N   0  0  0  0  0  0  0  0  0  0  0  0
  187.8870  177.9180  136.4600 C   0  0  0  0  0  0  0  0  0  0  0  0
  186.7530  178.3930  137.1070 C   0  0  1  0  0  3  0  0  0  0  0  0
  185.8150  177.2580  137.4730 C   0  0  0  0  0  2  0  0  0  0  0  0
  184.5170  177.3560  136.6860 C   0  0  0  0  0  2  0  0  0  0  0  0
  180.6470  177.8000  138.7510 C   0  0  0  0  0  2  0  0  0  0  0  0
  182.6640  176.5990  139.7400 C   0  0  0  0  0  2  0  0  0  0  0  0
  183.1780  176.3260  138.3230 C   0  0  0  0  0  2  0  0  0  0  0  0
  182.2200  177.7770  136.7650 C   0  0  0  0  0  2  0  0  0  0  0  0
  183.4020  177.5710  137.5950 N   0  0  0  0  0  0  0  0  0  0  0  0
  181.7100  177.7950  139.8470 C   0  0  2  0  0  3  0  0  0  0  0  0
  181.1530  178.5630  137.5270 C   0  0  0  0  0  2  0  0  0  0  0  0
  181.0750  177.7920  141.1550 N   0  0  0  0  0  2  0  0  0  0  0  0
  181.6200  178.9210  141.9020 C   0  0  1  0  0  3  0  0  0  0  0  0
  180.5050  179.6520  142.6340 C   0  0  0  0  0  1  0  0  0  0  0  0
  184.1100  178.7870  142.3720 C   0  0  0  0  0  1  0  0  0  0  0  0
  182.5140  179.0720  144.1210 O   0  0  0  0  0  1  0  0  0  0  0  0
  182.7100  178.4710  142.8770 C   0  0  1  0  0  3  0  0  0  0  0  0
  187.4950  177.4360  145.2420 C   0  0  0  0  0  0  0  0  0  0  0  0
  186.8750  177.3050  146.2110 N   0  0  0  0  0  0  0  0  0  0  0  0
  1 11  1  0  0  0  0
  2  5  1  0  0  0  0
  2  6  1  0  0  0  0
  3  2  2  0  0  0  0
  4  3  1  0  0  0  0
  7 33  1  6  0  0  0
  7  1  1  0  0  0  0
  8  6  2  0  0  0  0
  8 51  1  0  0  0  0
  9  7  1  0  0  0  0
  9  4  1  1  0  0  0
 10  8  1  0  0  0  0
 11  3  1  0  0  0  0
 11 10  2  0  0  0  0
 13  9  1  0  0  0  0
 13 12  1  1  0  0  0
 14 12  1  1  0  0  0
 15 20  1  6  0  0  0
 15 16  1  0  0  0  0
 15 14  1  0  0  0  0
 16 14  1  0  0  0  0
 16 13  1  0  0  0  0
 17 19  2  0  0  0  0
 18 21  1  0  0  0  0
 19 20  1  0  0  0  0
 19 18  1  0  0  0  0
 21 24  1  0  0  0  0
 23 21  1  0  0  0  0
 23 25  1  0  0  0  0
 23 24  1  0  0  0  0
 25 24  1  0  0  0  0
 25 22  1  0  0  0  0
 26 29  2  0  0  0  0
 26 27  1  0  0  0  0
 27 28  1  0  0  0  0
 29 30  1  0  0  0  0
 30 28  2  0  0  0  0
 31 29  1  0  0  0  0
 31 21  1  0  0  0  0
 32 34  2  0  0  0  0
 34 35  1  0  0  0  0
 34 33  1  0  0  0  0
 35 36  1  0  0  0  0
 35 33  1  0  0  0  0
 37 36  1  0  0  0  0
 37 42  1  0  0  0  0
 38 43  1  0  0  0  0
 39 43  1  0  0  0  0
 40 39  1  0  0  0  0
 41 44  1  0  0  0  0
 41 42  1  0  0  0  0
 42 40  1  0  0  0  0
 43 45  1  0  0  0  0
 44 38  1  0  0  0  0
 45 46  1  0  0  0  0
 46 47  1  0  0  0  0
 46 50  1  0  0  0  0
 48 50  1  0  0  0  0
 50 49  1  0  0  0  0
 51 52  3  0  0  0  0
M  END
>  <MODEL>
6

>  <REMARK>
 VINA RESULT:      -6.0      2.681      5.469
  Name = 
  12 active torsions:
  status: ('A' for Active; 'I' for Inactive)
    1  A    between atoms: C_2  and  N_19
    2  A    between atoms: C_2  and  C_52
    3  A    between atoms: N_6  and  C_29
    4  A    between atoms: N_9  and  C_13
    5  A    between atoms: N_9  and  C_43
    6  A    between atoms: C_10  and  C_30
    7  A    between atoms: C_12  and  C_32
    8  A    between atoms: C_13  and  C_41
    9  A    between atoms: C_26  and  C_33
   10  A    between atoms: C_26  and  N_37
   11  A    between atoms: C_33  and  CA_44
   12  A    between atoms: C_42  and  N_47
                            x       y       z     vdW  Elec       q    Type
                         _______ _______ _______ _____ _____    ______ ____

>  <TORSDO>
F 12

$$$$
=
 OpenBabel10232411403D

 52 60  0  0  1  0  0  0  0  0999 V2000
  187.3960  177.5270  141.3290 C   0  0  0  0  0  2  0  0  0  0  0  0
  190.6020  178.1040  143.3010 C   0  0  0  0  0  0  0  0  0  0  0  0
  189.7090  178.0320  142.2230 C   0  0  0  0  0  0  0  0  0  0  0  0
  190.1210  178.4090  140.9030 N   0  0  0  0  0  2  0  0  0  0  0  0
  191.9450  178.5370  143.1020 N   0  0  0  0  0  1  0  0  0  0  0  0
  190.1900  177.7510  144.5480 N   0  0  0  0  0  0  0  0  0  0  0  0
  187.7970  178.4310  140.1610 C   0  0  1  0  0  3  0  0  0  0  0  0
  188.9220  177.3170  144.7870 C   0  0  0  0  0  0  0  0  0  0  0  0
  189.2580  178.1920  139.7410 C   0  0  2  0  0  3  0  0  0  0  0  0
  187.9960  177.2450  143.7440 C   0  0  0  0  0  3  0  0  0  0  0  0
  188.3840  177.6200  142.4580 C   0  0  0  0  0  0  0  0  0  0  0  0
  190.6590  176.1650  139.7860 N   0  0  0  0  0  2  0  0  0  0  0  0
  189.4870  176.7820  139.1730 C   0  0  2  0  0  3  0  0  0  0  0  0
  191.3470  176.2420  138.5040 C   0  0  1  0  0  3  0  0  0  0  0  0
  190.5950  175.4600  137.4450 C   0  0  1  0  0  3  0  0  0  0  0  0
  190.1500  176.8540  137.8190 C   0  0  1  0  0  3  0  0  0  0  0  0
  193.2090  174.9800  134.9360 O   0  0  0  0  0  0  0  0  0  0  0  0
  193.1220  174.0400  137.0760 N   0  0  0  0  0  2  0  0  0  0  0  0
  192.5840  174.8480  136.0220 C   0  0  0  0  0  0  0  0  0  0  0  0
  191.3300  175.5100  136.1910 N   0  0  0  0  0  2  0  0  0  0  0  0
  194.4740  173.4950  137.0630 C   0  0  1  0  0  0  0  0  0  0  0  0
  196.9570  174.6190  139.5120 C   0  0  0  0  0  1  0  0  0  0  0  0
  195.5110  174.5040  137.5020 C   0  0  1  0  0  3  0  0  0  0  0  0
  195.1640  173.3260  138.4010 C   0  0  2  0  0  3  0  0  0  0  0  0
  196.6000  173.8000  138.2890 C   0  0  2  0  0  3  0  0  0  0  0  0
  194.9310  170.5040  134.6700 C   0  0  0  0  0  3  0  0  0  0  0  0
  194.3980  169.3330  135.0140 C   0  0  0  0  0  3  0  0  0  0  0  0
  193.7240  169.4360  136.2700 N   0  0  0  0  0  0  0  0  0  0  0  0
  194.5640  171.3710  135.7740 C   0  0  0  0  0  0  0  0  0  0  0  0
  193.8180  170.6200  136.7160 N   0  0  0  0  0  0  0  0  0  0  0  0
  194.8890  172.6550  135.8950 C   0  0  0  0  0  3  0  0  0  0  0  0
  186.5270  176.6070  136.9430 O   0  0  0  0  0  0  0  0  0  0  0  0
  186.8730  178.2640  139.0510 N   0  0  0  0  0  0  0  0  0  0  0  0
  186.3910  177.5130  137.8060 C   0  0  0  0  0  0  0  0  0  0  0  0
  185.6800  178.5560  138.3880 C   0  0  1  0  0  3  0  0  0  0  0  0
  184.5170  178.0340  139.2090 C   0  0  0  0  0  2  0  0  0  0  0  0
  183.5120  179.1420  139.4860 C   0  0  0  0  0  2  0  0  0  0  0  0
  181.7440  178.7630  143.5080 C   0  0  0  0  0  2  0  0  0  0  0  0
  184.1870  178.2840  142.9710 C   0  0  0  0  0  2  0  0  0  0  0  0
  183.7960  177.9930  141.5190 C   0  0  0  0  0  2  0  0  0  0  0  0
  181.7270  178.9300  140.9800 C   0  0  0  0  0  2  0  0  0  0  0  0
  183.1670  179.1550  140.9000 N   0  0  0  0  0  0  0  0  0  0  0  0
  183.1970  179.1800  143.7250 C   0  0  2  0  0  3  0  0  0  0  0  0
  181.1640  179.4820  142.2900 C   0  0  0  0  0  2  0  0  0  0  0  0
  183.5130  179.1620  145.1440 N   0  0  0  0  0  2  0  0  0  0  0  0
  184.9020  178.7360  145.2720 C   0  0  1  0  0  3  0  0  0  0  0  0
  185.8300  179.7920  144.6940 C   0  0  0  0  0  1  0  0  0  0  0  0
  186.0360  179.5640  147.3860 C   0  0  0  0  0  1  0  0  0  0  0  0
  184.1010  178.1720  147.4600 O   0  0  0  0  0  1  0  0  0  0  0  0
  185.2600  178.4310  146.7280 C   0  0  1  0  0  3  0  0  0  0  0  0
  188.5280  176.9560  146.1190 C   0  0  0  0  0  0  0  0  0  0  0  0
  188.2110  176.6620  147.1930 N   0  0  0  0  0  0  0  0  0  0  0  0
  1 11  1  0  0  0  0
  2  6  1  0  0  0  0
  3 11  1  0  0  0  0
  3  2  2  0  0  0  0
  4  3  1  0  0  0  0
  5  2  1  0  0  0  0
  6  8  2  0  0  0  0
  7 33  1  6  0  0  0
  7  1  1  0  0  0  0
  8 51  1  0  0  0  0
  9  7  1  0  0  0  0
  9  4  1  1  0  0  0
 10  8  1  0  0  0  0
 11 10  2  0  0  0  0
 13  9  1  0  0  0  0
 13 12  1  1  0  0  0
 14 12  1  1  0  0  0
 15 20  1  6  0  0  0
 15 16  1  0  0  0  0
 15 14  1  0  0  0  0
 16 14  1  0  0  0  0
 16 13  1  0  0  0  0
 17 19  2  0  0  0  0
 19 20  1  0  0  0  0
 19 18  1  0  0  0  0
 21 18  1  0  0  0  0
 21 23  1  0  0  0  0
 21 24  1  0  0  0  0
 23 25  1  0  0  0  0
 23 24  1  0  0  0  0
 25 24  1  0  0  0  0
 25 22  1  0  0  0  0
 26 27  2  0  0  0  0
 26 29  1  0  0  0  0
 27 28  1  0  0  0  0
 28 30  2  0  0  0  0
 29 31  2  0  0  0  0
 29 30  1  0  0  0  0
 31 21  1  0  0  0  0
 32 34  2  0  0  0  0
 34 35  1  0  0  0  0
 34 33  1  0  0  0  0
 35 33  1  0  0  0  0
 35 36  1  0  0  0  0
 36 37  1  0  0  0  0
 37 42  1  0  0  0  0
 38 43  1  0  0  0  0
 39 43  1  0  0  0  0
 40 39  1  0  0  0  0
 41 44  1  0  0  0  0
 42 41  1  0  0  0  0
 42 40  1  0  0  0  0
 43 45  1  0  0  0  0
 44 38  1  0  0  0  0
 45 46  1  0  0  0  0
 46 50  1  0  0  0  0
 47 46  1  0  0  0  0
 50 48  1  0  0  0  0
 50 49  1  0  0  0  0
 51 52  3  0  0  0  0
M  END
>  <MODEL>
7

>  <REMARK>
 VINA RESULT:      -5.9      2.573      5.575
  Name = 
  12 active torsions:
  status: ('A' for Active; 'I' for Inactive)
    1  A    between atoms: C_2  and  N_19
    2  A    between atoms: C_2  and  C_52
    3  A    between atoms: N_6  and  C_29
    4  A    between atoms: N_9  and  C_13
    5  A    between atoms: N_9  and  C_43
    6  A    between atoms: C_10  and  C_30
    7  A    between atoms: C_12  and  C_32
    8  A    between atoms: C_13  and  C_41
    9  A    between atoms: C_26  and  C_33
   10  A    between atoms: C_26  and  N_37
   11  A    between atoms: C_33  and  CA_44
   12  A    between atoms: C_42  and  N_47
                            x       y       z     vdW  Elec       q    Type
                         _______ _______ _______ _____ _____    ______ ____

>  <TORSDO>
F 12

$$$$
=
 OpenBabel10232411403D

 52 60  0  0  1  0  0  0  0  0999 V2000
  187.6010  177.5020  140.4940 C   0  0  0  0  0  2  0  0  0  0  0  0
  190.5900  177.8680  142.8260 C   0  0  0  0  0  0  0  0  0  0  0  0
  189.8300  177.8250  141.6490 C   0  0  0  0  0  0  0  0  0  0  0  0
  190.4350  178.0830  140.3760 N   0  0  0  0  0  2  0  0  0  0  0  0
  191.9840  178.1540  142.7780 N   0  0  0  0  0  1  0  0  0  0  0  0
  189.9940  177.6290  144.0260 N   0  0  0  0  0  0  0  0  0  0  0  0
  188.2330  178.2950  139.3460 C   0  0  1  0  0  3  0  0  0  0  0  0
  188.6690  177.3380  144.1220 C   0  0  0  0  0  0  0  0  0  0  0  0
  189.7010  177.8880  139.1250 C   0  0  2  0  0  3  0  0  0  0  0  0
  187.8730  177.3000  142.9740 C   0  0  0  0  0  3  0  0  0  0  0  0
  188.4500  177.5610  141.7320 C   0  0  0  0  0  0  0  0  0  0  0  0
  191.0010  175.8010  139.2830 N   0  0  0  0  0  2  0  0  0  0  0  0
  189.8470  176.4320  138.6530 C   0  0  2  0  0  3  0  0  0  0  0  0
  191.6610  175.7530  137.9840 C   0  0  1  0  0  3  0  0  0  0  0  0
  190.8450  174.9390  136.9980 C   0  0  1  0  0  3  0  0  0  0  0  0
  190.4790  176.3760  137.2830 C   0  0  1  0  0  3  0  0  0  0  0  0
  193.2570  173.9890  134.4220 O   0  0  0  0  0  0  0  0  0  0  0  0
  193.0190  173.0400  136.5460 N   0  0  0  0  0  2  0  0  0  0  0  0
  192.6380  173.9640  135.5200 C   0  0  0  0  0  0  0  0  0  0  0  0
  191.5510  174.8650  135.7300 N   0  0  0  0  0  2  0  0  0  0  0  0
  194.2300  172.2290  136.4930 C   0  0  1  0  0  0  0  0  0  0  0  0
  194.1740  168.8990  134.9680 C   0  0  0  0  0  1  0  0  0  0  0  0
  193.9420  170.7490  136.6010 C   0  0  1  0  0  3  0  0  0  0  0  0
  194.4150  171.3410  135.2800 C   0  0  2  0  0  3  0  0  0  0  0  0
  194.9150  169.9800  135.7260 C   0  0  2  0  0  3  0  0  0  0  0  0
  197.5460  173.9400  137.4760 C   0  0  0  0  0  3  0  0  0  0  0  0
  198.1840  174.6560  136.5520 C   0  0  0  0  0  3  0  0  0  0  0  0
  197.4630  174.6450  135.3180 N   0  0  0  0  0  0  0  0  0  0  0  0
  196.3700  173.4650  136.7690 C   0  0  0  0  0  0  0  0  0  0  0  0
  196.4070  173.9530  135.4410 N   0  0  0  0  0  0  0  0  0  0  0  0
  195.4210  172.6830  137.2790 C   0  0  0  0  0  3  0  0  0  0  0  0
  187.4890  176.7420  135.8350 O   0  0  0  0  0  0  0  0  0  0  0  0
  187.4370  178.1570  138.1380 N   0  0  0  0  0  0  0  0  0  0  0  0
  187.1650  177.5130  136.7750 C   0  0  0  0  0  0  0  0  0  0  0  0
  186.2790  178.3870  137.3950 C   0  0  1  0  0  3  0  0  0  0  0  0
  185.1250  177.6360  138.0320 C   0  0  0  0  0  2  0  0  0  0  0  0
  183.8420  178.4510  137.9530 C   0  0  0  0  0  2  0  0  0  0  0  0
  181.4430  178.7940  141.6370 C   0  0  0  0  0  2  0  0  0  0  0  0
  183.7500  177.7190  141.5300 C   0  0  0  0  0  2  0  0  0  0  0  0
  183.5260  177.4200  140.0440 C   0  0  0  0  0  2  0  0  0  0  0  0
  181.8530  178.7720  139.1370 C   0  0  0  0  0  2  0  0  0  0  0  0
  183.2990  178.6480  139.2890 N   0  0  0  0  0  0  0  0  0  0  0  0
  182.9030  178.8750  142.0770 C   0  0  2  0  0  3  0  0  0  0  0  0
  181.2480  179.5370  140.3150 C   0  0  0  0  0  2  0  0  0  0  0  0
  182.9850  178.8880  143.5290 N   0  0  0  0  0  2  0  0  0  0  0  0
  184.3910  178.7260  143.8840 C   0  0  1  0  0  3  0  0  0  0  0  0
  185.2050  179.8940  143.3510 C   0  0  0  0  0  1  0  0  0  0  0  0
  185.6130  179.5380  145.9540 C   0  0  0  0  0  1  0  0  0  0  0  0
  183.3510  178.7860  146.0430 O   0  0  0  0  0  1  0  0  0  0  0  0
  184.5710  178.5790  145.3960 C   0  0  1  0  0  3  0  0  0  0  0  0
  188.0810  177.0940  145.4080 C   0  0  0  0  0  0  0  0  0  0  0  0
  187.6080  176.9010  146.4470 N   0  0  0  0  0  0  0  0  0  0  0  0
  1 11  1  0  0  0  0
  2  6  1  0  0  0  0
  3 11  1  0  0  0  0
  3  2  2  0  0  0  0
  4  3  1  0  0  0  0
  5  2  1  0  0  0  0
  6  8  2  0  0  0  0
  7 33  1  6  0  0  0
  7  1  1  0  0  0  0
  8 51  1  0  0  0  0
  9  7  1  0  0  0  0
  9  4  1  1  0  0  0
 10  8  1  0  0  0  0
 11 10  2  0  0  0  0
 13  9  1  0  0  0  0
 13 12  1  1  0  0  0
 14 12  1  1  0  0  0
 15 20  1  6  0  0  0
 15 16  1  0  0  0  0
 15 14  1  0  0  0  0
 16 14  1  0  0  0  0
 16 13  1  0  0  0  0
 17 19  2  0  0  0  0
 19 20  1  0  0  0  0
 19 18  1  0  0  0  0
 21 18  1  0  0  0  0
 21 23  1  0  0  0  0
 21 31  1  0  0  0  0
 22 25  1  0  0  0  0
 24 25  1  0  0  0  0
 24 21  1  0  0  0  0
 24 23  1  0  0  0  0
 25 23  1  0  0  0  0
 27 26  2  0  0  0  0
 28 30  2  0  0  0  0
 28 27  1  0  0  0  0
 29 31  2  0  0  0  0
 29 26  1  0  0  0  0
 30 29  1  0  0  0  0
 32 34  2  0  0  0  0
 34 35  1  0  0  0  0
 34 33  1  0  0  0  0
 35 36  1  0  0  0  0
 35 33  1  0  0  0  0
 37 36  1  0  0  0  0
 37 42  1  0  0  0  0
 38 43  1  0  0  0  0
 39 43  1  0  0  0  0
 40 39  1  0  0  0  0
 41 42  1  0  0  0  0
 41 44  1  0  0  0  0
 42 40  1  0  0  0  0
 43 45  1  0  0  0  0
 44 38  1  0  0  0  0
 45 46  1  0  0  0  0
 46 50  1  0  0  0  0
 47 46  1  0  0  0  0
 50 48  1  0  0  0  0
 50 49  1  0  0  0  0
 51 52  3  0  0  0  0
M  END
>  <MODEL>
8

>  <REMARK>
 VINA RESULT:      -5.9      2.504      5.240
  Name = 
  12 active torsions:
  status: ('A' for Active; 'I' for Inactive)
    1  A    between atoms: C_2  and  N_19
    2  A    between atoms: C_2  and  C_52
    3  A    between atoms: N_6  and  C_29
    4  A    between atoms: N_9  and  C_13
    5  A    between atoms: N_9  and  C_43
    6  A    between atoms: C_10  and  C_30
    7  A    between atoms: C_12  and  C_32
    8  A    between atoms: C_13  and  C_41
    9  A    between atoms: C_26  and  C_33
   10  A    between atoms: C_26  and  N_37
   11  A    between atoms: C_33  and  CA_44
   12  A    between atoms: C_42  and  N_47
                            x       y       z     vdW  Elec       q    Type
                         _______ _______ _______ _____ _____    ______ ____

>  <TORSDO>
F 12

$$$$
=
 OpenBabel10232411403D

 52 60  0  0  1  0  0  0  0  0999 V2000
  191.1300  175.6720  139.2010 C   0  0  0  0  0  2  0  0  0  0  0  0
  192.0050  175.8960  135.5020 C   0  0  0  0  0  0  0  0  0  0  0  0
  191.4060  176.1780  136.7370 C   0  0  0  0  0  0  0  0  0  0  0  0
  190.4820  177.2650  136.8720 N   0  0  0  0  0  2  0  0  0  0  0  0
  191.6930  176.6740  134.3500 N   0  0  0  0  0  1  0  0  0  0  0  0
  192.8880  174.8650  135.3960 N   0  0  0  0  0  0  0  0  0  0  0  0
  190.6230  177.1130  139.3030 C   0  0  1  0  0  3  0  0  0  0  0  0
  193.2070  174.0840  136.4640 C   0  0  0  0  0  0  0  0  0  0  0  0
  189.7270  177.4790  138.1070 C   0  0  2  0  0  3  0  0  0  0  0  0
  192.6440  174.3410  137.7160 C   0  0  0  0  0  3  0  0  0  0  0  0
  191.7520  175.4040  137.8600 C   0  0  0  0  0  0  0  0  0  0  0  0
  188.3730  175.8250  136.8800 N   0  0  0  0  0  2  0  0  0  0  0  0
  188.4240  176.6630  138.0730 C   0  0  2  0  0  3  0  0  0  0  0  0
  187.2770  176.6430  136.3760 C   0  0  1  0  0  3  0  0  0  0  0  0
  186.0990  176.6070  137.3300 C   0  0  1  0  0  3  0  0  0  0  0  0
  187.2710  177.5180  137.6040 C   0  0  1  0  0  3  0  0  0  0  0  0
  182.8000  178.1120  136.8690 O   0  0  0  0  0  0  0  0  0  0  0  0
  183.5300  176.8550  138.7000 N   0  0  0  0  0  2  0  0  0  0  0  0
  183.7350  177.4770  137.4270 C   0  0  0  0  0  0  0  0  0  0  0  0
  185.0030  177.3860  136.7770 N   0  0  0  0  0  2  0  0  0  0  0  0
  182.2240  176.7300  139.3360 C   0  0  1  0  0  0  0  0  0  0  0  0
  180.9590  179.3830  141.5240 C   0  0  0  0  0  1  0  0  0  0  0  0
  182.1760  177.3880  140.6960 C   0  0  1  0  0  3  0  0  0  0  0  0
  181.4220  178.0010  139.5240 C   0  0  2  0  0  3  0  0  0  0  0  0
  180.8060  178.0070  140.9100 C   0  0  2  0  0  3  0  0  0  0  0  0
  180.7100  173.4420  138.0020 C   0  0  0  0  0  3  0  0  0  0  0  0
  180.7980  173.1910  136.6970 C   0  0  0  0  0  3  0  0  0  0  0  0
  181.4780  174.2520  136.0230 N   0  0  0  0  0  0  0  0  0  0  0  0
  181.3730  174.7260  138.1350 C   0  0  0  0  0  0  0  0  0  0  0  0
  181.8150  175.1480  136.8570 N   0  0  0  0  0  0  0  0  0  0  0  0
  181.5260  175.4080  139.2680 C   0  0  0  0  0  3  0  0  0  0  0  0
  190.6110  177.9500  143.1230 O   0  0  0  0  0  0  0  0  0  0  0  0
  189.9550  177.3260  140.5760 N   0  0  0  0  0  0  0  0  0  0  0  0
  189.9840  177.6790  142.0660 C   0  0  0  0  0  0  0  0  0  0  0  0
  188.8070  177.5150  141.3460 C   0  0  1  0  0  3  0  0  0  0  0  0
  188.1890  178.8550  140.9950 C   0  0  0  0  0  2  0  0  0  0  0  0
  186.6720  178.7930  141.0950 C   0  0  0  0  0  2  0  0  0  0  0  0
  184.6490  178.4860  145.0010 C   0  0  0  0  0  2  0  0  0  0  0  0
  186.6370  177.0540  144.3060 C   0  0  0  0  0  2  0  0  0  0  0  0
  186.2590  177.2670  142.8370 C   0  0  0  0  0  2  0  0  0  0  0  0
  184.8860  179.1350  142.5630 C   0  0  0  0  0  2  0  0  0  0  0  0
  186.2730  178.6840  142.4900 N   0  0  0  0  0  0  0  0  0  0  0  0
  186.1130  178.1360  145.2580 C   0  0  2  0  0  3  0  0  0  0  0  0
  184.5470  179.6140  143.9750 C   0  0  0  0  0  2  0  0  0  0  0  0
  186.2860  177.6970  146.6330 N   0  0  0  0  0  2  0  0  0  0  0  0
  187.1860  178.6460  147.2800 C   0  0  1  0  0  3  0  0  0  0  0  0
  186.3860  179.7370  147.9740 C   0  0  0  0  0  1  0  0  0  0  0  0
  188.6740  176.6370  147.7140 C   0  0  0  0  0  1  0  0  0  0  0  0
  189.1760  178.7910  148.6080 O   0  0  0  0  0  1  0  0  0  0  0  0
  188.1210  177.9430  148.2660 C   0  0  1  0  0  3  0  0  0  0  0  0
  194.1450  173.0090  136.3090 C   0  0  0  0  0  0  0  0  0  0  0  0
  194.9020  172.1410  136.1880 N   0  0  0  0  0  0  0  0  0  0  0  0
  2  3  1  0  0  0  0
  3  4  1  0  0  0  0
  3 11  2  0  0  0  0
  5  2  1  0  0  0  0
  6  2  2  0  0  0  0
  6  8  1  0  0  0  0
  7  1  1  6  0  0  0
  7 33  1  0  0  0  0
  8 10  2  0  0  0  0
  9  4  1  6  0  0  0
  9  7  1  0  0  0  0
 10 11  1  0  0  0  0
 11  1  1  0  0  0  0
 13 12  1  6  0  0  0
 13  9  1  0  0  0  0
 14 12  1  1  0  0  0
 14 15  1  0  0  0  0
 14 16  1  0  0  0  0
 15 20  1  6  0  0  0
 15 16  1  0  0  0  0
 16 13  1  0  0  0  0
 17 19  2  0  0  0  0
 18 21  1  0  0  0  0
 19 18  1  0  0  0  0
 20 19  1  0  0  0  0
 21 24  1  0  0  0  0
 21 23  1  0  0  0  0
 23 25  1  0  0  0  0
 24 23  1  0  0  0  0
 24 25  1  0  0  0  0
 25 22  1  0  0  0  0
 26 29  1  0  0  0  0
 27 26  2  0  0  0  0
 28 27  1  0  0  0  0
 28 30  2  0  0  0  0
 29 31  2  0  0  0  0
 30 29  1  0  0  0  0
 31 21  1  0  0  0  0
 33 35  1  0  0  0  0
 33 34  1  0  0  0  0
 34 32  2  0  0  0  0
 35 34  1  0  0  0  0
 36 37  1  0  0  0  0
 36 35  1  0  0  0  0
 37 42  1  0  0  0  0
 38 43  1  0  0  0  0
 39 43  1  0  0  0  0
 40 39  1  0  0  0  0
 41 44  1  0  0  0  0
 42 41  1  0  0  0  0
 42 40  1  0  0  0  0
 43 45  1  0  0  0  0
 44 38  1  0  0  0  0
 45 46  1  0  0  0  0
 46 47  1  0  0  0  0
 46 50  1  0  0  0  0
 48 50  1  0  0  0  0
 50 49  1  0  0  0  0
 51  8  1  0  0  0  0
 52 51  3  0  0  0  0
M  END
>  <MODEL>
9

>  <REMARK>
 VINA RESULT:      -5.7      2.924      8.897
  Name = 
  12 active torsions:
  status: ('A' for Active; 'I' for Inactive)
    1  A    between atoms: C_2  and  N_19
    2  A    between atoms: C_2  and  C_52
    3  A    between atoms: N_6  and  C_29
    4  A    between atoms: N_9  and  C_13
    5  A    between atoms: N_9  and  C_43
    6  A    between atoms: C_10  and  C_30
    7  A    between atoms: C_12  and  C_32
    8  A    between atoms: C_13  and  C_41
    9  A    between atoms: C_26  and  C_33
   10  A    between atoms: C_26  and  N_37
   11  A    between atoms: C_33  and  CA_44
   12  A    between atoms: C_42  and  N_47
                            x       y       z     vdW  Elec       q    Type
                         _______ _______ _______ _____ _____    ______ ____

>  <TORSDO>
F 12

$$$$
