=
 OpenBabel10232411243D

 36 39  0  0  1  0  0  0  0  0999 V2000
  188.9500  179.0200  138.4400 N   0  0  0  0  0  2  0  0  0  0  0  0
  190.0540  176.9700  138.3440 C   0  0  0  0  0  0  0  0  0  0  0  0
  188.8950  178.4790  137.0700 C   0  0  1  0  0  3  0  0  0  0  0  0
  190.8340  175.7900  138.8250 C   0  0  0  0  0  1  0  0  0  0  0  0
  189.6330  177.1770  137.1130 C   0  0  0  0  0  0  0  0  0  0  0  0
  189.6720  178.0550  139.1590 N   0  0  0  0  0  0  0  0  0  0  0  0
  188.7420  177.3860  143.1900 N   0  0  0  0  0  0  0  0  0  0  0  0
  189.8950  176.6400  142.6700 C   0  0  0  0  0  2  0  0  0  0  0  0
  187.8190  178.0320  142.2530 C   0  0  0  0  0  2  0  0  0  0  0  0
  189.9270  176.6460  141.1430 C   0  0  0  0  0  2  0  0  0  0  0  0
  189.7840  178.0760  140.6110 C   0  0  2  0  0  3  0  0  0  0  0  0
  188.6020  178.8490  141.2230 C   0  0  0  0  0  2  0  0  0  0  0  0
  189.4040  176.8790  145.5150 C   0  0  0  0  0  3  0  0  0  0  0  0
  187.8160  177.6000  148.7560 O   0  0  0  0  0  1  0  0  0  0  0  0
  188.0140  177.5610  147.3810 C   0  0  0  0  0  0  0  0  0  0  0  0
  188.4970  177.4470  144.6090 C   0  0  0  0  0  0  0  0  0  0  0  0
  187.0860  178.1380  146.4860 C   0  0  0  0  0  0  0  0  0  0  0  0
  187.3450  178.0720  145.1090 C   0  0  0  0  0  3  0  0  0  0  0  0
  189.1630  176.9360  146.8890 C   0  0  0  0  0  3  0  0  0  0  0  0
  185.9050  179.8920  147.5960 O   0  0  0  0  0  0  0  0  0  0  0  0
  184.5750  178.2480  146.6590 N   0  0  0  0  0  1  0  0  0  0  0  0
  185.8510  178.8140  146.9470 C   0  0  0  0  0  0  0  0  0  0  0  0
  191.3210  176.0120  135.6860 C   0  0  0  0  0  2  0  0  0  0  0  0
  189.8520  176.2950  135.9180 C   0  0  1  0  0  3  0  0  0  0  0  0
  191.3870  174.7320  134.8910 C   0  0  2  0  0  3  0  0  0  0  0  0
  190.4060  173.7700  135.5220 C   0  0  0  0  0  2  0  0  0  0  0  0
  192.7870  174.1570  134.9470 C   0  0  0  0  0  1  0  0  0  0  0  0
  188.9520  174.7160  136.0670 S   0  0  0  0  0  0  0  0  0  0  0  0
  187.4460  178.2440  136.6580 C   0  0  0  0  0  2  0  0  0  0  0  0
  184.6490  179.3300  139.0310 N   0  0  0  0  0  2  0  0  0  0  0  0
  185.1100  177.2380  138.0070 N   0  0  0  0  0  2  0  0  0  0  0  0
  186.5410  179.0410  137.4770 N   0  0  0  0  0  2  0  0  0  0  0  0
  185.4420  178.4750  138.1960 C   0  0  0  0  0  0  0  0  0  0  0  0
  183.6700  178.8990  139.9470 N   0  0  0  0  0  2  0  0  0  0  0  0
  183.9370  178.6120  141.2960 C   0  0  0  0  0  0  0  0  0  0  0  0
  184.1690  178.3650  142.4530 C   0  0  0  0  0  3  0  0  0  0  0  0
  1  6  1  0  0  0  0
  2  4  1  0  0  0  0
  2  6  1  0  0  0  0
  3 29  1  1  0  0  0
  3  5  1  0  0  0  0
  3  1  1  0  0  0  0
  5  2  2  0  0  0  0
  7 16  1  0  0  0  0
  8  7  1  0  0  0  0
  9  7  1  0  0  0  0
 10  8  1  0  0  0  0
 11  6  1  6  0  0  0
 11 10  1  0  0  0  0
 11 12  1  0  0  0  0
 12  9  1  0  0  0  0
 13 19  1  0  0  0  0
 15 14  1  0  0  0  0
 16 18  1  0  0  0  0
 16 13  2  0  0  0  0
 17 22  1  0  0  0  0
 17 15  1  0  0  0  0
 18 17  2  0  0  0  0
 19 15  2  0  0  0  0
 21 22  1  0  0  0  0
 22 20  2  0  0  0  0
 23 24  1  0  0  0  0
 24 28  1  0  0  0  0
 24  5  1  1  0  0  0
 25 27  1  1  0  0  0
 25 26  1  0  0  0  0
 25 23  1  0  0  0  0
 26 28  1  0  0  0  0
 29 32  1  0  0  0  0
 30 34  1  0  0  0  0
 31 33  2  0  0  0  0
 32 33  1  0  0  0  0
 33 30  1  0  0  0  0
 34 35  1  0  0  0  0
 35 36  3  0  0  0  0
M  END
>  <MODEL>
1

>  <REMARK>
 VINA RESULT:      -8.6      0.000      0.000
  Name = 
  8 active torsions:
  status: ('A' for Active; 'I' for Inactive)
    1  A    between atoms: N_1  and  C_28
    2  A    between atoms: N_10  and  N_20
    3  A    between atoms: C_12  and  C_17
    4  A    between atoms: C_13  and  C_26
    5  A    between atoms: C_18  and  N_20
    6  A    between atoms: N_19  and  C_26
    7  A    between atoms: C_21  and  N_22
    8  A    between atoms: C_27  and  C_29
                            x       y       z     vdW  Elec       q    Type
                         _______ _______ _______ _____ _____    ______ ____

>  <TORSDO>
F 8

$$$$
=
 OpenBabel10232411243D

 36 39  0  0  1  0  0  0  0  0999 V2000
  188.9670  179.1540  137.8770 N   0  0  0  0  0  2  0  0  0  0  0  0
  189.8430  176.9960  137.9740 C   0  0  0  0  0  0  0  0  0  0  0  0
  188.8000  178.4820  136.5770 C   0  0  1  0  0  3  0  0  0  0  0  0
  190.5110  175.7950  138.5580 C   0  0  0  0  0  1  0  0  0  0  0  0
  189.3970  177.1180  136.7400 C   0  0  0  0  0  0  0  0  0  0  0  0
  189.6110  178.1970  138.6760 N   0  0  0  0  0  0  0  0  0  0  0  0
  189.5010  177.3350  142.7760 N   0  0  0  0  0  0  0  0  0  0  0  0
  190.8370  177.3650  142.1670 C   0  0  0  0  0  2  0  0  0  0  0  0
  188.3170  177.2770  141.9140 C   0  0  0  0  0  2  0  0  0  0  0  0
  190.7620  177.3050  140.6430 C   0  0  0  0  0  2  0  0  0  0  0  0
  189.7820  178.3570  140.1140 C   0  0  2  0  0  3  0  0  0  0  0  0
  188.4130  178.3380  140.8170 C   0  0  0  0  0  2  0  0  0  0  0  0
  188.1310  177.6440  144.8080 C   0  0  0  0  0  3  0  0  0  0  0  0
  188.8970  177.2920  148.3900 O   0  0  0  0  0  1  0  0  0  0  0  0
  189.0780  177.2960  147.0120 C   0  0  0  0  0  0  0  0  0  0  0  0
  189.3570  177.3200  144.2090 C   0  0  0  0  0  0  0  0  0  0  0  0
  190.3230  176.9680  146.4310 C   0  0  0  0  0  0  0  0  0  0  0  0
  190.4420  176.9850  145.0340 C   0  0  0  0  0  3  0  0  0  0  0  0
  187.9930  177.6310  146.1970 C   0  0  0  0  0  3  0  0  0  0  0  0
  191.8510  177.2990  148.2360 O   0  0  0  0  0  0  0  0  0  0  0  0
  192.2800  175.4540  146.9070 N   0  0  0  0  0  1  0  0  0  0  0  0
  191.5080  176.6050  147.2430 C   0  0  0  0  0  0  0  0  0  0  0  0
  190.8950  175.6440  135.3890 C   0  0  0  0  0  2  0  0  0  0  0  0
  189.4720  176.0970  135.6420 C   0  0  1  0  0  3  0  0  0  0  0  0
  190.7990  174.2870  134.7370 C   0  0  2  0  0  3  0  0  0  0  0  0
  189.7610  173.5010  135.5060 C   0  0  0  0  0  2  0  0  0  0  0  0
  192.1380  173.5820  134.8050 C   0  0  0  0  0  1  0  0  0  0  0  0
  188.4330  174.6420  135.9970 S   0  0  0  0  0  0  0  0  0  0  0  0
  187.3190  178.3650  136.2340 C   0  0  0  0  0  2  0  0  0  0  0  0
  184.8430  179.1480  139.0430 N   0  0  0  0  0  2  0  0  0  0  0  0
  185.2500  177.1520  137.8260 N   0  0  0  0  0  2  0  0  0  0  0  0
  186.5040  179.0600  137.2240 N   0  0  0  0  0  2  0  0  0  0  0  0
  185.5480  178.3910  138.0500 C   0  0  0  0  0  0  0  0  0  0  0  0
  184.0270  178.6090  140.0560 N   0  0  0  0  0  2  0  0  0  0  0  0
  184.4490  178.4260  141.3830 C   0  0  0  0  0  0  0  0  0  0  0  0
  184.8130  178.2720  142.5220 C   0  0  0  0  0  3  0  0  0  0  0  0
  1  6  1  0  0  0  0
  2  4  1  0  0  0  0
  2  6  1  0  0  0  0
  3 29  1  1  0  0  0
  3  5  1  0  0  0  0
  3  1  1  0  0  0  0
  5  2  2  0  0  0  0
  7 16  1  0  0  0  0
  8  7  1  0  0  0  0
  9  7  1  0  0  0  0
 10  8  1  0  0  0  0
 11  6  1  6  0  0  0
 11 10  1  0  0  0  0
 11 12  1  0  0  0  0
 12  9  1  0  0  0  0
 13 19  1  0  0  0  0
 15 14  1  0  0  0  0
 16 13  2  0  0  0  0
 16 18  1  0  0  0  0
 17 15  1  0  0  0  0
 17 22  1  0  0  0  0
 18 17  2  0  0  0  0
 19 15  2  0  0  0  0
 21 22  1  0  0  0  0
 22 20  2  0  0  0  0
 23 24  1  0  0  0  0
 24 28  1  0  0  0  0
 24  5  1  1  0  0  0
 25 27  1  1  0  0  0
 25 23  1  0  0  0  0
 25 26  1  0  0  0  0
 26 28  1  0  0  0  0
 29 32  1  0  0  0  0
 30 34  1  0  0  0  0
 31 33  2  0  0  0  0
 32 33  1  0  0  0  0
 33 30  1  0  0  0  0
 34 35  1  0  0  0  0
 35 36  3  0  0  0  0
M  END
>  <MODEL>
2

>  <REMARK>
 VINA RESULT:      -8.4      1.497      2.292
  Name = 
  8 active torsions:
  status: ('A' for Active; 'I' for Inactive)
    1  A    between atoms: N_1  and  C_28
    2  A    between atoms: N_10  and  N_20
    3  A    between atoms: C_12  and  C_17
    4  A    between atoms: C_13  and  C_26
    5  A    between atoms: C_18  and  N_20
    6  A    between atoms: N_19  and  C_26
    7  A    between atoms: C_21  and  N_22
    8  A    between atoms: C_27  and  C_29
                            x       y       z     vdW  Elec       q    Type
                         _______ _______ _______ _____ _____    ______ ____

>  <TORSDO>
F 8

$$$$
=
 OpenBabel10232411243D

 36 39  0  0  1  0  0  0  0  0999 V2000
  188.5110  177.0010  138.8170 N   0  0  0  0  0  2  0  0  0  0  0  0
  190.8330  176.8230  138.7190 C   0  0  0  0  0  0  0  0  0  0  0  0
  188.9210  176.4480  137.5140 C   0  0  1  0  0  3  0  0  0  0  0  0
  192.2530  176.9280  139.1710 C   0  0  0  0  0  1  0  0  0  0  0  0
  190.4160  176.3820  137.5490 C   0  0  0  0  0  0  0  0  0  0  0  0
  189.7210  177.2100  139.4960 N   0  0  0  0  0  0  0  0  0  0  0  0
  188.9840  177.0540  143.6180 N   0  0  0  0  0  0  0  0  0  0  0  0
  190.3370  176.6690  143.1980 C   0  0  0  0  0  2  0  0  0  0  0  0
  187.9170  177.1450  142.6180 C   0  0  0  0  0  2  0  0  0  0  0  0
  190.4030  176.3910  141.6980 C   0  0  0  0  0  2  0  0  0  0  0  0
  189.7820  177.5490  140.9110 C   0  0  2  0  0  3  0  0  0  0  0  0
  188.3900  177.9660  141.4170 C   0  0  0  0  0  2  0  0  0  0  0  0
  189.6120  176.9240  146.0030 C   0  0  0  0  0  3  0  0  0  0  0  0
  187.8990  177.9950  149.0790 O   0  0  0  0  0  1  0  0  0  0  0  0
  188.1360  177.7750  147.7270 C   0  0  0  0  0  0  0  0  0  0  0  0
  188.6980  177.3000  145.0090 C   0  0  0  0  0  0  0  0  0  0  0  0
  187.1990  178.1600  146.7420 C   0  0  0  0  0  0  0  0  0  0  0  0
  187.4970  177.9160  145.3940 C   0  0  0  0  0  3  0  0  0  0  0  0
  189.3320  177.1610  147.3500 C   0  0  0  0  0  3  0  0  0  0  0  0
  184.8140  178.2910  146.7590 O   0  0  0  0  0  0  0  0  0  0  0  0
  185.9050  180.0560  147.7820 N   0  0  0  0  0  1  0  0  0  0  0  0
  185.9140  178.8150  147.0810 C   0  0  0  0  0  0  0  0  0  0  0  0
  191.7600  174.4910  136.6200 C   0  0  0  0  0  2  0  0  0  0  0  0
  191.2640  175.9050  136.4050 C   0  0  1  0  0  3  0  0  0  0  0  0
  192.0720  173.9370  135.2530 C   0  0  2  0  0  3  0  0  0  0  0  0
  190.9250  174.3260  134.3470 C   0  0  0  0  0  2  0  0  0  0  0  0
  192.1920  172.4290  135.3170 C   0  0  0  0  0  1  0  0  0  0  0  0
  190.3690  175.9930  134.8180 S   0  0  0  0  0  0  0  0  0  0  0  0
  188.3420  175.0480  137.3340 C   0  0  0  0  0  2  0  0  0  0  0  0
  184.6210  174.2810  136.8810 N   0  0  0  0  0  2  0  0  0  0  0  0
  186.3960  172.9690  137.7560 N   0  0  0  0  0  2  0  0  0  0  0  0
  186.9400  175.1180  136.9400 N   0  0  0  0  0  2  0  0  0  0  0  0
  185.9940  174.0910  137.2500 C   0  0  0  0  0  0  0  0  0  0  0  0
  183.5460  173.4680  137.2860 N   0  0  0  0  0  2  0  0  0  0  0  0
  183.4040  172.1210  136.9140 C   0  0  0  0  0  0  0  0  0  0  0  0
  183.2840  170.9650  136.5930 C   0  0  0  0  0  3  0  0  0  0  0  0
  1  6  1  0  0  0  0
  2  4  1  0  0  0  0
  2  6  1  0  0  0  0
  3 29  1  1  0  0  0
  3  5  1  0  0  0  0
  3  1  1  0  0  0  0
  5  2  2  0  0  0  0
  7 16  1  0  0  0  0
  8  7  1  0  0  0  0
  9  7  1  0  0  0  0
 10  8  1  0  0  0  0
 11  6  1  6  0  0  0
 11 12  1  0  0  0  0
 11 10  1  0  0  0  0
 12  9  1  0  0  0  0
 13 19  1  0  0  0  0
 15 14  1  0  0  0  0
 16 18  1  0  0  0  0
 16 13  2  0  0  0  0
 17 22  1  0  0  0  0
 17 15  1  0  0  0  0
 18 17  2  0  0  0  0
 19 15  2  0  0  0  0
 20 22  2  0  0  0  0
 22 21  1  0  0  0  0
 24 23  1  0  0  0  0
 24  5  1  1  0  0  0
 25 27  1  1  0  0  0
 25 23  1  0  0  0  0
 26 28  1  0  0  0  0
 26 25  1  0  0  0  0
 28 24  1  0  0  0  0
 30 33  1  0  0  0  0
 30 34  1  0  0  0  0
 32 33  1  0  0  0  0
 32 29  1  0  0  0  0
 33 31  2  0  0  0  0
 35 34  1  0  0  0  0
 36 35  3  0  0  0  0
M  END
>  <MODEL>
3

>  <REMARK>
 VINA RESULT:      -8.1      2.513      3.048
  Name = 
  8 active torsions:
  status: ('A' for Active; 'I' for Inactive)
    1  A    between atoms: N_1  and  C_28
    2  A    between atoms: N_10  and  N_20
    3  A    between atoms: C_12  and  C_17
    4  A    between atoms: C_13  and  C_26
    5  A    between atoms: C_18  and  N_20
    6  A    between atoms: N_19  and  C_26
    7  A    between atoms: C_21  and  N_22
    8  A    between atoms: C_27  and  C_29
                            x       y       z     vdW  Elec       q    Type
                         _______ _______ _______ _____ _____    ______ ____

>  <TORSDO>
F 8

$$$$
=
 OpenBabel10232411243D

 36 39  0  0  1  0  0  0  0  0999 V2000
  186.5040  178.6330  138.9480 N   0  0  0  0  0  2  0  0  0  0  0  0
  187.9530  177.1630  137.8650 C   0  0  0  0  0  0  0  0  0  0  0  0
  185.8820  178.1290  137.7110 C   0  0  1  0  0  3  0  0  0  0  0  0
  189.1920  176.3660  137.6190 C   0  0  0  0  0  1  0  0  0  0  0  0
  186.8870  177.2080  137.0920 C   0  0  0  0  0  0  0  0  0  0  0  0
  187.7610  178.0110  138.9770 N   0  0  0  0  0  0  0  0  0  0  0  0
  189.4230  177.0200  142.6940 N   0  0  0  0  0  0  0  0  0  0  0  0
  190.2610  176.7290  141.5240 C   0  0  0  0  0  2  0  0  0  0  0  0
  187.9990  177.3120  142.5070 C   0  0  0  0  0  2  0  0  0  0  0  0
  189.4510  176.7610  140.2300 C   0  0  0  0  0  2  0  0  0  0  0  0
  188.6360  178.0550  140.1410 C   0  0  2  0  0  3  0  0  0  0  0  0
  187.8170  178.3600  141.4080 C   0  0  0  0  0  2  0  0  0  0  0  0
  191.3030  176.5400  144.2210 C   0  0  0  0  0  3  0  0  0  0  0  0
  191.6680  176.8370  147.8710 O   0  0  0  0  0  1  0  0  0  0  0  0
  191.0870  176.8910  146.6100 C   0  0  0  0  0  0  0  0  0  0  0  0
  189.9870  176.9780  144.0190 C   0  0  0  0  0  0  0  0  0  0  0  0
  189.7570  177.3330  146.4300 C   0  0  0  0  0  0  0  0  0  0  0  0
  189.2270  177.3710  145.1320 C   0  0  0  0  0  3  0  0  0  0  0  0
  191.8470  176.4980  145.5060 C   0  0  0  0  0  3  0  0  0  0  0  0
  189.3340  178.5600  148.4350 O   0  0  0  0  0  0  0  0  0  0  0  0
  187.5680  177.2740  147.6760 N   0  0  0  0  0  1  0  0  0  0  0  0
  188.9020  177.7620  147.5620 C   0  0  0  0  0  0  0  0  0  0  0  0
  186.2500  175.0550  135.9960 C   0  0  0  0  0  2  0  0  0  0  0  0
  186.6800  176.4920  135.7890 C   0  0  1  0  0  3  0  0  0  0  0  0
  185.5420  174.6370  134.7320 C   0  0  2  0  0  3  0  0  0  0  0  0
  184.6200  175.7720  134.3460 C   0  0  0  0  0  2  0  0  0  0  0  0
  184.7370  173.3780  134.9790 C   0  0  0  0  0  1  0  0  0  0  0  0
  185.4560  177.3400  134.7370 S   0  0  0  0  0  0  0  0  0  0  0  0
  184.6060  177.3620  138.0410 C   0  0  0  0  0  2  0  0  0  0  0  0
  181.8210  179.0100  140.0810 N   0  0  0  0  0  2  0  0  0  0  0  0
  182.8570  176.8830  140.2770 N   0  0  0  0  0  2  0  0  0  0  0  0
  183.5630  178.2700  138.5000 N   0  0  0  0  0  2  0  0  0  0  0  0
  182.7780  178.0230  139.6700 C   0  0  0  0  0  0  0  0  0  0  0  0
  181.1220  179.0110  141.3030 N   0  0  0  0  0  2  0  0  0  0  0  0
  181.7480  179.0000  142.5600 C   0  0  0  0  0  0  0  0  0  0  0  0
  182.2840  178.9920  143.6400 C   0  0  0  0  0  3  0  0  0  0  0  0
  1  6  1  0  0  0  0
  2  6  1  0  0  0  0
  3 29  1  1  0  0  0
  3  1  1  0  0  0  0
  4  2  1  0  0  0  0
  5  3  1  0  0  0  0
  5  2  2  0  0  0  0
  7 16  1  0  0  0  0
  8  7  1  0  0  0  0
  9  7  1  0  0  0  0
 10  8  1  0  0  0  0
 11  6  1  6  0  0  0
 11 10  1  0  0  0  0
 11 12  1  0  0  0  0
 12  9  1  0  0  0  0
 13 19  1  0  0  0  0
 15 14  1  0  0  0  0
 16 13  2  0  0  0  0
 16 18  1  0  0  0  0
 17 15  1  0  0  0  0
 17 22  1  0  0  0  0
 18 17  2  0  0  0  0
 19 15  2  0  0  0  0
 22 21  1  0  0  0  0
 22 20  2  0  0  0  0
 24 23  1  0  0  0  0
 24  5  1  1  0  0  0
 25 27  1  1  0  0  0
 25 23  1  0  0  0  0
 26 25  1  0  0  0  0
 26 28  1  0  0  0  0
 28 24  1  0  0  0  0
 29 32  1  0  0  0  0
 30 34  1  0  0  0  0
 32 33  1  0  0  0  0
 33 30  1  0  0  0  0
 33 31  2  0  0  0  0
 34 35  1  0  0  0  0
 35 36  3  0  0  0  0
M  END
>  <MODEL>
4

>  <REMARK>
 VINA RESULT:      -7.7      2.425      3.340
  Name = 
  8 active torsions:
  status: ('A' for Active; 'I' for Inactive)
    1  A    between atoms: N_1  and  C_28
    2  A    between atoms: N_10  and  N_20
    3  A    between atoms: C_12  and  C_17
    4  A    between atoms: C_13  and  C_26
    5  A    between atoms: C_18  and  N_20
    6  A    between atoms: N_19  and  C_26
    7  A    between atoms: C_21  and  N_22
    8  A    between atoms: C_27  and  C_29
                            x       y       z     vdW  Elec       q    Type
                         _______ _______ _______ _____ _____    ______ ____

>  <TORSDO>
F 8

$$$$
=
 OpenBabel10232411243D

 36 39  0  0  1  0  0  0  0  0999 V2000
  187.6980  178.6520  140.5890 N   0  0  0  0  0  2  0  0  0  0  0  0
  186.0290  178.3200  138.9960 C   0  0  0  0  0  0  0  0  0  0  0  0
  186.3740  178.9050  141.1840 C   0  0  1  0  0  3  0  0  0  0  0  0
  185.4200  177.9970  137.6710 C   0  0  0  0  0  1  0  0  0  0  0  0
  185.3810  178.6750  140.0870 C   0  0  0  0  0  0  0  0  0  0  0  0
  187.4150  178.3060  139.2590 N   0  0  0  0  0  0  0  0  0  0  0  0
  190.4930  175.8670  137.7990 N   0  0  0  0  0  0  0  0  0  0  0  0
  189.1840  175.6910  137.1590 C   0  0  0  0  0  2  0  0  0  0  0  0
  190.5840  176.5970  139.0660 C   0  0  0  0  0  2  0  0  0  0  0  0
  188.0650  176.3200  137.9850 C   0  0  0  0  0  2  0  0  0  0  0  0
  188.4200  177.7640  138.3540 C   0  0  2  0  0  3  0  0  0  0  0  0
  189.8230  177.9200  138.9660 C   0  0  0  0  0  2  0  0  0  0  0  0
  191.7340  175.0420  135.8280 C   0  0  0  0  0  3  0  0  0  0  0  0
  195.0980  173.6030  135.4430 O   0  0  0  0  0  1  0  0  0  0  0  0
  193.9790  174.1560  136.0530 C   0  0  0  0  0  0  0  0  0  0  0  0
  191.6730  175.2890  137.2070 C   0  0  0  0  0  0  0  0  0  0  0  0
  193.9400  174.3950  137.4450 C   0  0  0  0  0  0  0  0  0  0  0  0
  192.7830  174.9600  138.0010 C   0  0  0  0  0  3  0  0  0  0  0  0
  192.8770  174.4800  135.2570 C   0  0  0  0  0  3  0  0  0  0  0  0
  195.8400  174.9760  138.7690 O   0  0  0  0  0  0  0  0  0  0  0  0
  195.3200  172.7220  138.7280 N   0  0  0  0  0  1  0  0  0  0  0  0
  195.0760  174.0720  138.3390 C   0  0  0  0  0  0  0  0  0  0  0  0
  183.3340  179.8160  139.2200 C   0  0  0  0  0  2  0  0  0  0  0  0
  183.8980  178.8550  140.2450 C   0  0  1  0  0  3  0  0  0  0  0  0
  181.8670  179.4870  139.0910 C   0  0  2  0  0  3  0  0  0  0  0  0
  181.7590  177.9800  139.0200 C   0  0  0  0  0  2  0  0  0  0  0  0
  181.3050  180.1060  137.8290 C   0  0  0  0  0  1  0  0  0  0  0  0
  183.0080  177.2670  140.1330 S   0  0  0  0  0  0  0  0  0  0  0  0
  186.1200  177.9320  142.3300 C   0  0  0  0  0  2  0  0  0  0  0  0
  188.7550  177.2240  145.0100 N   0  0  0  0  0  0  0  0  0  0  0  0
  186.5700  178.1380  145.1660 N   0  0  0  0  0  2  0  0  0  0  0  0
  187.3660  177.5980  143.0080 N   0  0  0  0  0  2  0  0  0  0  0  0
  187.5100  177.6370  144.4310 C   0  0  0  0  0  0  0  0  0  0  0  0
  188.9890  177.0150  146.3830 N   0  0  0  0  0  0  0  0  0  0  0  0
  190.2630  176.8020  146.9330 C   0  0  0  0  0  0  0  0  0  0  0  0
  191.3560  176.6200  147.4090 C   0  0  0  0  0  3  0  0  0  0  0  0
  1  3  1  0  0  0  0
  2  6  1  0  0  0  0
  2  5  2  0  0  0  0
  3 29  1  1  0  0  0
  4  2  1  0  0  0  0
  5  3  1  0  0  0  0
  6  1  1  0  0  0  0
  7  9  1  0  0  0  0
  8  7  1  0  0  0  0
  8 10  1  0  0  0  0
 11 10  1  1  0  0  0
 11 12  1  0  0  0  0
 11  6  1  0  0  0  0
 12  9  1  0  0  0  0
 13 16  1  0  0  0  0
 14 15  1  0  0  0  0
 15 17  2  0  0  0  0
 16  7  1  0  0  0  0
 16 18  2  0  0  0  0
 17 18  1  0  0  0  0
 17 22  1  0  0  0  0
 19 13  2  0  0  0  0
 19 15  1  0  0  0  0
 22 21  1  0  0  0  0
 22 20  2  0  0  0  0
 23 24  1  0  0  0  0
 24  5  1  6  0  0  0
 25 27  1  6  0  0  0
 25 23  1  0  0  0  0
 26 25  1  0  0  0  0
 26 28  1  0  0  0  0
 28 24  1  0  0  0  0
 29 32  1  0  0  0  0
 30 34  2  0  0  0  0
 32 33  1  0  0  0  0
 33 30  1  0  0  0  0
 33 31  2  0  0  0  0
 34 35  1  0  0  0  0
 35 36  3  0  0  0  0
M  END
>  <MODEL>
5

>  <REMARK>
 VINA RESULT:      -7.5      4.375      8.938
  Name = 
  8 active torsions:
  status: ('A' for Active; 'I' for Inactive)
    1  A    between atoms: N_1  and  C_28
    2  A    between atoms: N_10  and  N_20
    3  A    between atoms: C_12  and  C_17
    4  A    between atoms: C_13  and  C_26
    5  A    between atoms: C_18  and  N_20
    6  A    between atoms: N_19  and  C_26
    7  A    between atoms: C_21  and  N_22
    8  A    between atoms: C_27  and  C_29
                            x       y       z     vdW  Elec       q    Type
                         _______ _______ _______ _____ _____    ______ ____

>  <TORSDO>
F 8

$$$$
=
 OpenBabel10232411243D

 36 39  0  0  1  0  0  0  0  0999 V2000
  188.9870  178.1930  137.3880 N   0  0  0  0  0  2  0  0  0  0  0  0
  190.7840  176.7260  137.6120 C   0  0  0  0  0  0  0  0  0  0  0  0
  189.2820  177.5530  136.0940 C   0  0  1  0  0  3  0  0  0  0  0  0
  191.8960  175.9850  138.2810 C   0  0  0  0  0  1  0  0  0  0  0  0
  190.4460  176.6450  136.3410 C   0  0  0  0  0  0  0  0  0  0  0  0
  189.9400  177.6490  138.2630 N   0  0  0  0  0  0  0  0  0  0  0  0
  188.6390  177.3140  142.2330 N   0  0  0  0  0  0  0  0  0  0  0  0
  189.9170  176.6600  141.9240 C   0  0  0  0  0  2  0  0  0  0  0  0
  187.7630  177.7390  141.1370 C   0  0  0  0  0  2  0  0  0  0  0  0
  190.1200  176.5050  140.4180 C   0  0  0  0  0  2  0  0  0  0  0  0
  189.8840  177.8400  139.7060 C   0  0  2  0  0  3  0  0  0  0  0  0
  188.5640  178.5270  140.0990 C   0  0  0  0  0  2  0  0  0  0  0  0
  186.9040  177.8320  143.9130 C   0  0  0  0  0  3  0  0  0  0  0  0
  186.9980  178.0460  147.5850 O   0  0  0  0  0  1  0  0  0  0  0  0
  187.4330  177.8620  146.2780 C   0  0  0  0  0  0  0  0  0  0  0  0
  188.2300  177.4980  143.6020 C   0  0  0  0  0  0  0  0  0  0  0  0
  188.7750  177.5280  145.9880 C   0  0  0  0  0  0  0  0  0  0  0  0
  189.1520  177.3490  144.6490 C   0  0  0  0  0  3  0  0  0  0  0  0
  186.5110  178.0120  145.2400 C   0  0  0  0  0  3  0  0  0  0  0  0
  189.5970  177.7730  148.2170 O   0  0  0  0  0  0  0  0  0  0  0  0
  191.0320  176.7070  146.7490 N   0  0  0  0  0  1  0  0  0  0  0  0
  189.7980  177.3550  147.0460 C   0  0  0  0  0  0  0  0  0  0  0  0
  192.5980  176.0480  135.2200 C   0  0  0  0  0  2  0  0  0  0  0  0
  191.1040  175.8120  135.2780 C   0  0  1  0  0  3  0  0  0  0  0  0
  193.1980  174.8200  134.5820 C   0  0  2  0  0  3  0  0  0  0  0  0
  192.5320  173.6220  135.2220 C   0  0  0  0  0  2  0  0  0  0  0  0
  194.6900  174.7800  134.8340 C   0  0  0  0  0  1  0  0  0  0  0  0
  190.7860  174.0330  135.5180 S   0  0  0  0  0  0  0  0  0  0  0  0
  188.0780  176.7420  135.6240 C   0  0  0  0  0  2  0  0  0  0  0  0
  184.7760  176.2890  137.5010 N   0  0  0  0  0  0  0  0  0  0  0  0
  185.6660  175.1720  135.6040 N   0  0  0  0  0  2  0  0  0  0  0  0
  186.9480  176.9290  136.5250 N   0  0  0  0  0  2  0  0  0  0  0  0
  185.8080  176.0660  136.5300 C   0  0  0  0  0  0  0  0  0  0  0  0
  183.7000  175.4210  137.7650 N   0  0  0  0  0  0  0  0  0  0  0  0
  182.7260  175.6620  138.7470 C   0  0  0  0  0  0  0  0  0  0  0  0
  181.8880  175.8700  139.5890 C   0  0  0  0  0  3  0  0  0  0  0  0
  1  6  1  0  0  0  0
  2  6  1  0  0  0  0
  2  4  1  0  0  0  0
  3 29  1  1  0  0  0
  3  5  1  0  0  0  0
  3  1  1  0  0  0  0
  5  2  2  0  0  0  0
  7 16  1  0  0  0  0
  8  7  1  0  0  0  0
  9  7  1  0  0  0  0
 10  8  1  0  0  0  0
 11  6  1  6  0  0  0
 11 12  1  0  0  0  0
 11 10  1  0  0  0  0
 12  9  1  0  0  0  0
 13 19  1  0  0  0  0
 15 14  1  0  0  0  0
 16 13  2  0  0  0  0
 16 18  1  0  0  0  0
 17 15  1  0  0  0  0
 17 22  1  0  0  0  0
 18 17  2  0  0  0  0
 19 15  2  0  0  0  0
 21 22  1  0  0  0  0
 22 20  2  0  0  0  0
 23 24  1  0  0  0  0
 24 28  1  0  0  0  0
 24  5  1  1  0  0  0
 25 27  1  1  0  0  0
 25 23  1  0  0  0  0
 25 26  1  0  0  0  0
 26 28  1  0  0  0  0
 29 32  1  0  0  0  0
 30 34  2  0  0  0  0
 31 33  2  0  0  0  0
 32 33  1  0  0  0  0
 33 30  1  0  0  0  0
 34 35  1  0  0  0  0
 35 36  3  0  0  0  0
M  END
>  <MODEL>
6

>  <REMARK>
 VINA RESULT:      -7.1      2.025      2.589
  Name = 
  8 active torsions:
  status: ('A' for Active; 'I' for Inactive)
    1  A    between atoms: N_1  and  C_28
    2  A    between atoms: N_10  and  N_20
    3  A    between atoms: C_12  and  C_17
    4  A    between atoms: C_13  and  C_26
    5  A    between atoms: C_18  and  N_20
    6  A    between atoms: N_19  and  C_26
    7  A    between atoms: C_21  and  N_22
    8  A    between atoms: C_27  and  C_29
                            x       y       z     vdW  Elec       q    Type
                         _______ _______ _______ _____ _____    ______ ____

>  <TORSDO>
F 8

$$$$
=
 OpenBabel10232411243D

 36 39  0  0  1  0  0  0  0  0999 V2000
  186.3340  178.5940  138.1880 N   0  0  0  0  0  2  0  0  0  0  0  0
  185.1710  176.6720  137.5680 C   0  0  0  0  0  0  0  0  0  0  0  0
  184.8840  178.8130  138.3300 C   0  0  1  0  0  3  0  0  0  0  0  0
  184.9570  175.2750  137.0840 C   0  0  0  0  0  1  0  0  0  0  0  0
  184.2330  177.5340  137.9030 C   0  0  0  0  0  0  0  0  0  0  0  0
  186.4370  177.2760  137.7170 N   0  0  0  0  0  0  0  0  0  0  0  0
  190.5360  176.5770  137.1960 N   0  0  0  0  0  0  0  0  0  0  0  0
  190.0350  176.4370  138.5700 C   0  0  0  0  0  2  0  0  0  0  0  0
  189.7030  177.2420  136.1900 C   0  0  0  0  0  2  0  0  0  0  0  0
  188.6540  177.0670  138.7320 C   0  0  0  0  0  2  0  0  0  0  0  0
  187.7050  176.5640  137.6390 C   0  0  2  0  0  3  0  0  0  0  0  0
  188.2860  176.6690  136.2180 C   0  0  0  0  0  2  0  0  0  0  0  0
  192.3110  176.1700  135.5290 C   0  0  0  0  0  3  0  0  0  0  0  0
  195.6850  174.7260  135.8050 O   0  0  0  0  0  1  0  0  0  0  0  0
  194.4220  175.1700  136.1780 C   0  0  0  0  0  0  0  0  0  0  0  0
  191.8520  176.1030  136.8520 C   0  0  0  0  0  0  0  0  0  0  0  0
  193.9790  175.0910  137.5170 C   0  0  0  0  0  0  0  0  0  0  0  0
  192.6960  175.5620  137.8330 C   0  0  0  0  0  3  0  0  0  0  0  0
  193.5860  175.7080  135.1960 C   0  0  0  0  0  3  0  0  0  0  0  0
  195.0440  173.2960  138.6760 O   0  0  0  0  0  0  0  0  0  0  0  0
  195.3930  175.3960  139.5810 N   0  0  0  0  0  1  0  0  0  0  0  0
  194.8200  174.5330  138.6010 C   0  0  0  0  0  0  0  0  0  0  0  0
  182.2070  176.8230  139.1820 C   0  0  0  0  0  2  0  0  0  0  0  0
  182.7470  177.3210  137.8580 C   0  0  1  0  0  3  0  0  0  0  0  0
  180.7450  177.1900  139.2100 C   0  0  2  0  0  3  0  0  0  0  0  0
  180.6370  178.6130  138.7090 C   0  0  0  0  0  2  0  0  0  0  0  0
  180.2120  177.0970  140.6250 C   0  0  0  0  0  1  0  0  0  0  0  0
  181.8600  178.8420  137.3820 S   0  0  0  0  0  0  0  0  0  0  0  0
  184.5390  179.1140  139.7840 C   0  0  0  0  0  2  0  0  0  0  0  0
  186.9240  178.3240  142.6690 N   0  0  0  0  0  0  0  0  0  0  0  0
  184.5620  178.1620  142.5010 N   0  0  0  0  0  2  0  0  0  0  0  0
  185.7240  179.0090  140.6270 N   0  0  0  0  0  2  0  0  0  0  0  0
  185.6940  178.4480  141.9420 C   0  0  0  0  0  0  0  0  0  0  0  0
  187.0940  177.6200  143.8760 N   0  0  0  0  0  0  0  0  0  0  0  0
  188.3390  177.4200  144.4940 C   0  0  0  0  0  0  0  0  0  0  0  0
  189.4090  177.2500  145.0230 C   0  0  0  0  0  3  0  0  0  0  0  0
  1  3  1  0  0  0  0
  2  6  1  0  0  0  0
  2  5  2  0  0  0  0
  3 29  1  1  0  0  0
  4  2  1  0  0  0  0
  5  3  1  0  0  0  0
  6  1  1  0  0  0  0
  7  8  1  0  0  0  0
  8 10  1  0  0  0  0
  9 12  1  0  0  0  0
  9  7  1  0  0  0  0
 11 12  1  6  0  0  0
 11  6  1  0  0  0  0
 11 10  1  0  0  0  0
 13 16  1  0  0  0  0
 14 15  1  0  0  0  0
 15 17  2  0  0  0  0
 16  7  1  0  0  0  0
 16 18  2  0  0  0  0
 17 18  1  0  0  0  0
 17 22  1  0  0  0  0
 19 13  2  0  0  0  0
 19 15  1  0  0  0  0
 22 20  2  0  0  0  0
 22 21  1  0  0  0  0
 23 25  1  0  0  0  0
 24  5  1  1  0  0  0
 24 23  1  0  0  0  0
 25 27  1  1  0  0  0
 26 25  1  0  0  0  0
 28 24  1  0  0  0  0
 28 26  1  0  0  0  0
 29 32  1  0  0  0  0
 30 34  2  0  0  0  0
 32 33  1  0  0  0  0
 33 31  2  0  0  0  0
 33 30  1  0  0  0  0
 34 35  1  0  0  0  0
 35 36  3  0  0  0  0
M  END
>  <MODEL>
7

>  <REMARK>
 VINA RESULT:      -7.1      4.391      8.615
  Name = 
  8 active torsions:
  status: ('A' for Active; 'I' for Inactive)
    1  A    between atoms: N_1  and  C_28
    2  A    between atoms: N_10  and  N_20
    3  A    between atoms: C_12  and  C_17
    4  A    between atoms: C_13  and  C_26
    5  A    between atoms: C_18  and  N_20
    6  A    between atoms: N_19  and  C_26
    7  A    between atoms: C_21  and  N_22
    8  A    between atoms: C_27  and  C_29
                            x       y       z     vdW  Elec       q    Type
                         _______ _______ _______ _____ _____    ______ ____

>  <TORSDO>
F 8

$$$$
=
 OpenBabel10232411243D

 36 39  0  0  1  0  0  0  0  0999 V2000
  186.9010  178.4880  142.0360 N   0  0  0  0  0  2  0  0  0  0  0  0
  185.3420  178.3100  143.7590 C   0  0  0  0  0  0  0  0  0  0  0  0
  187.5510  177.9750  143.2540 C   0  0  1  0  0  3  0  0  0  0  0  0
  184.0200  178.3980  144.4490 C   0  0  0  0  0  1  0  0  0  0  0  0
  186.4760  177.9060  144.2940 C   0  0  0  0  0  0  0  0  0  0  0  0
  185.5630  178.6750  142.4150 N   0  0  0  0  0  0  0  0  0  0  0  0
  183.1050  178.3450  139.0370 N   0  0  0  0  0  0  0  0  0  0  0  0
  182.4620  178.0480  140.3230 C   0  0  0  0  0  2  0  0  0  0  0  0
  184.5670  178.4100  138.9590 C   0  0  0  0  0  2  0  0  0  0  0  0
  183.4930  177.8220  141.4270 C   0  0  0  0  0  2  0  0  0  0  0  0
  184.5060  178.9700  141.4560 C   0  0  2  0  0  3  0  0  0  0  0  0
  185.1140  179.2950  140.0800 C   0  0  0  0  0  2  0  0  0  0  0  0
  182.0800  177.4620  136.9700 C   0  0  0  0  0  3  0  0  0  0  0  0
  179.9820  179.0260  134.3820 O   0  0  0  0  0  1  0  0  0  0  0  0
  180.7480  178.8900  135.5340 C   0  0  0  0  0  0  0  0  0  0  0  0
  182.3060  178.5290  137.8520 C   0  0  0  0  0  0  0  0  0  0  0  0
  180.9640  179.9790  136.4070 C   0  0  0  0  0  0  0  0  0  0  0  0
  181.7420  179.7800  137.5570 C   0  0  0  0  0  3  0  0  0  0  0  0
  181.3080  177.6430  135.8210 C   0  0  0  0  0  3  0  0  0  0  0  0
  179.9830  182.0420  137.1040 O   0  0  0  0  0  0  0  0  0  0  0  0
  180.3120  181.8280  134.8250 N   0  0  0  0  0  1  0  0  0  0  0  0
  180.3970  181.3250  136.1560 C   0  0  0  0  0  0  0  0  0  0  0  0
  188.1780  177.3080  146.0240 C   0  0  0  0  0  2  0  0  0  0  0  0
  186.7040  177.4620  145.7110 C   0  0  1  0  0  3  0  0  0  0  0  0
  188.3100  177.4360  147.5210 C   0  0  2  0  0  3  0  0  0  0  0  0
  187.4510  178.6080  147.9410 C   0  0  0  0  0  2  0  0  0  0  0  0
  189.7550  177.6920  147.8950 C   0  0  0  0  0  1  0  0  0  0  0  0
  185.9530  178.6130  146.9100 S   0  0  0  0  0  0  0  0  0  0  0  0
  188.1190  176.5830  142.9980 C   0  0  0  0  0  2  0  0  0  0  0  0
  191.6190  177.0910  141.5410 N   0  0  0  0  0  2  0  0  0  0  0  0
  189.4770  177.1200  140.5170 N   0  0  0  0  0  2  0  0  0  0  0  0
  189.5650  176.6390  142.8280 N   0  0  0  0  0  2  0  0  0  0  0  0
  190.1890  176.9950  141.5910 C   0  0  0  0  0  0  0  0  0  0  0  0
  192.3660  177.6170  140.4700 N   0  0  0  0  0  2  0  0  0  0  0  0
  192.6070  176.9230  139.2730 C   0  0  0  0  0  0  0  0  0  0  0  0
  192.8120  176.3280  138.2440 C   0  0  0  0  0  3  0  0  0  0  0  0
  1  6  1  0  0  0  0
  1  3  1  0  0  0  0
  2  5  2  0  0  0  0
  2  4  1  0  0  0  0
  3 29  1  6  0  0  0
  3  5  1  0  0  0  0
  6  2  1  0  0  0  0
  7  8  1  0  0  0  0
  8 10  1  0  0  0  0
  9  7  1  0  0  0  0
  9 12  1  0  0  0  0
 10 11  1  0  0  0  0
 11 12  1  6  0  0  0
 11  6  1  0  0  0  0
 13 16  1  0  0  0  0
 14 15  1  0  0  0  0
 15 19  1  0  0  0  0
 15 17  2  0  0  0  0
 16  7  1  0  0  0  0
 17 18  1  0  0  0  0
 18 16  2  0  0  0  0
 19 13  2  0  0  0  0
 21 22  1  0  0  0  0
 22 17  1  0  0  0  0
 22 20  2  0  0  0  0
 23 25  1  0  0  0  0
 24  5  1  6  0  0  0
 24 23  1  0  0  0  0
 24 28  1  0  0  0  0
 25 27  1  6  0  0  0
 25 26  1  0  0  0  0
 28 26  1  0  0  0  0
 30 33  1  0  0  0  0
 31 33  2  0  0  0  0
 32 29  1  0  0  0  0
 33 32  1  0  0  0  0
 34 30  1  0  0  0  0
 35 34  1  0  0  0  0
 36 35  3  0  0  0  0
M  END
>  <MODEL>
8

>  <REMARK>
 VINA RESULT:      -7.0      4.652      9.802
  Name = 
  8 active torsions:
  status: ('A' for Active; 'I' for Inactive)
    1  A    between atoms: N_1  and  C_28
    2  A    between atoms: N_10  and  N_20
    3  A    between atoms: C_12  and  C_17
    4  A    between atoms: C_13  and  C_26
    5  A    between atoms: C_18  and  N_20
    6  A    between atoms: N_19  and  C_26
    7  A    between atoms: C_21  and  N_22
    8  A    between atoms: C_27  and  C_29
                            x       y       z     vdW  Elec       q    Type
                         _______ _______ _______ _____ _____    ______ ____

>  <TORSDO>
F 8

$$$$
=
 OpenBabel10232411243D

 36 39  0  0  1  0  0  0  0  0999 V2000
  183.2600  177.7660  140.0590 N   0  0  0  0  0  2  0  0  0  0  0  0
  181.6710  179.1740  141.0200 C   0  0  0  0  0  0  0  0  0  0  0  0
  182.4920  178.4540  139.0070 C   0  0  1  0  0  3  0  0  0  0  0  0
  180.8900  179.8560  142.0960 C   0  0  0  0  0  1  0  0  0  0  0  0
  181.5010  179.3200  139.7220 C   0  0  0  0  0  0  0  0  0  0  0  0
  182.7060  178.2460  141.2560 N   0  0  0  0  0  0  0  0  0  0  0  0
  185.1850  178.6970  144.6040 N   0  0  0  0  0  0  0  0  0  0  0  0
  183.7610  178.9830  144.8230 C   0  0  0  0  0  2  0  0  0  0  0  0
  185.6990  178.6010  143.2350 C   0  0  0  0  0  2  0  0  0  0  0  0
  183.0150  179.1640  143.5030 C   0  0  0  0  0  2  0  0  0  0  0  0
  183.3060  177.9930  142.5590 C   0  0  2  0  0  3  0  0  0  0  0  0
  184.8050  177.6830  142.4010 C   0  0  0  0  0  2  0  0  0  0  0  0
  185.6840  178.9670  147.0080 C   0  0  0  0  0  3  0  0  0  0  0  0
  188.6520  178.1590  149.0270 O   0  0  0  0  0  1  0  0  0  0  0  0
  187.8230  178.2810  147.9190 C   0  0  0  0  0  0  0  0  0  0  0  0
  186.0770  178.5550  145.7270 C   0  0  0  0  0  0  0  0  0  0  0  0
  188.2410  177.8600  146.6370 C   0  0  0  0  0  0  0  0  0  0  0  0
  187.3570  178.0040  145.5570 C   0  0  0  0  0  3  0  0  0  0  0  0
  186.5510  178.8300  148.0940 C   0  0  0  0  0  3  0  0  0  0  0  0
  190.0490  176.3890  147.1550 O   0  0  0  0  0  0  0  0  0  0  0  0
  190.3510  177.6950  145.2710 N   0  0  0  0  0  1  0  0  0  0  0  0
  189.5770  177.2700  146.3890 C   0  0  0  0  0  0  0  0  0  0  0  0
  180.9880  181.5940  138.8210 C   0  0  0  0  0  2  0  0  0  0  0  0
  180.4840  180.1810  139.0300 C   0  0  1  0  0  3  0  0  0  0  0  0
  180.1920  182.1640  137.6740 C   0  0  2  0  0  3  0  0  0  0  0  0
  180.1340  181.0960  136.6040 C   0  0  0  0  0  2  0  0  0  0  0  0
  180.8740  183.4020  137.1330 C   0  0  0  0  0  1  0  0  0  0  0  0
  179.9830  179.4790  137.4230 S   0  0  0  0  0  0  0  0  0  0  0  0
  183.4210  179.3160  138.1590 C   0  0  0  0  0  2  0  0  0  0  0  0
  187.1170  178.4510  138.6330 N   0  0  0  0  0  2  0  0  0  0  0  0
  185.4530  177.4990  137.2330 N   0  0  0  0  0  2  0  0  0  0  0  0
  184.7860  179.2540  138.6660 N   0  0  0  0  0  2  0  0  0  0  0  0
  185.7820  178.3910  138.1110 C   0  0  0  0  0  0  0  0  0  0  0  0
  188.2440  177.8210  138.0710 N   0  0  0  0  0  2  0  0  0  0  0  0
  189.3470  177.3830  138.8210 C   0  0  0  0  0  0  0  0  0  0  0  0
  190.2960  177.0090  139.4650 C   0  0  0  0  0  3  0  0  0  0  0  0
  1  6  1  0  0  0  0
  2  6  1  0  0  0  0
  2  4  1  0  0  0  0
  3 29  1  1  0  0  0
  3  5  1  0  0  0  0
  3  1  1  0  0  0  0
  5  2  2  0  0  0  0
  7  8  1  0  0  0  0
  7 16  1  0  0  0  0
  9  7  1  0  0  0  0
 10  8  1  0  0  0  0
 11  6  1  6  0  0  0
 11 10  1  0  0  0  0
 12 11  1  0  0  0  0
 12  9  1  0  0  0  0
 13 19  1  0  0  0  0
 15 19  2  0  0  0  0
 15 14  1  0  0  0  0
 16 13  2  0  0  0  0
 17 15  1  0  0  0  0
 18 16  1  0  0  0  0
 18 17  2  0  0  0  0
 21 22  1  0  0  0  0
 22 17  1  0  0  0  0
 22 20  2  0  0  0  0
 23 24  1  0  0  0  0
 24  5  1  6  0  0  0
 25 27  1  6  0  0  0
 25 23  1  0  0  0  0
 26 28  1  0  0  0  0
 26 25  1  0  0  0  0
 28 24  1  0  0  0  0
 29 32  1  0  0  0  0
 31 33  2  0  0  0  0
 33 30  1  0  0  0  0
 33 32  1  0  0  0  0
 34 30  1  0  0  0  0
 34 35  1  0  0  0  0
 35 36  3  0  0  0  0
M  END
>  <MODEL>
9

>  <REMARK>
 VINA RESULT:      -6.9      3.177      7.125
  Name = 
  8 active torsions:
  status: ('A' for Active; 'I' for Inactive)
    1  A    between atoms: N_1  and  C_28
    2  A    between atoms: N_10  and  N_20
    3  A    between atoms: C_12  and  C_17
    4  A    between atoms: C_13  and  C_26
    5  A    between atoms: C_18  and  N_20
    6  A    between atoms: N_19  and  C_26
    7  A    between atoms: C_21  and  N_22
    8  A    between atoms: C_27  and  C_29
                            x       y       z     vdW  Elec       q    Type
                         _______ _______ _______ _____ _____    ______ ____

>  <TORSDO>
F 8

$$$$
