=
 OpenBabel10232411433D

 27 31  0  0  1  0  0  0  0  0999 V2000
  186.7540  178.0400  146.5740 C   0  0  0  0  0  3  0  0  0  0  0  0
  185.4080  178.4120  146.5950 C   0  0  0  0  0  3  0  0  0  0  0  0
  185.3960  178.5200  144.1710 C   0  0  0  0  0  0  0  0  0  0  0  0
  187.4380  177.8920  145.3570 C   0  0  0  0  0  0  0  0  0  0  0  0
  186.7450  178.1450  144.1610 C   0  0  0  0  0  3  0  0  0  0  0  0
  184.7310  178.6490  145.3980 C   0  0  0  0  0  3  0  0  0  0  0  0
  190.9950  177.0420  144.1900 C   0  0  0  0  0  0  0  0  0  0  0  0
  191.5720  176.7920  145.3930 N   0  0  0  0  0  0  0  0  0  0  0  0
  189.8490  177.6000  141.6980 C   0  0  0  0  0  3  0  0  0  0  0  0
  191.7600  176.9360  143.0250 C   0  0  0  0  0  3  0  0  0  0  0  0
  189.6300  177.4210  144.1160 C   0  0  0  0  0  0  0  0  0  0  0  0
  189.0780  177.7070  142.8570 C   0  0  0  0  0  3  0  0  0  0  0  0
  188.8800  177.5240  145.3160 C   0  0  0  0  0  0  0  0  0  0  0  0
  191.1880  177.2120  141.7810 C   0  0  0  0  0  3  0  0  0  0  0  0
  189.5300  177.2640  146.5310 C   0  0  0  0  0  3  0  0  0  0  0  0
  190.8770  176.9040  146.5540 C   0  0  0  0  0  0  0  0  0  0  0  0
  191.5430  176.6040  147.8490 C   0  0  0  0  0  2  0  0  0  0  0  0
  192.7370  175.8110  147.6150 N   0  0  0  0  0  1  0  0  0  0  0  0
  183.3600  178.2400  141.3100 C   0  0  1  0  0  3  0  0  0  0  0  0
  185.3350  179.2790  141.7700 C   0  0  0  0  0  2  0  0  0  0  0  0
  183.4280  178.3480  142.7170 O   0  0  0  0  0  0  0  0  0  0  0  0
  182.0930  178.8290  140.7460 C   0  0  0  0  0  3  0  0  0  0  0  0
  182.1100  179.5380  139.6060 C   0  0  0  0  0  3  0  0  0  0  0  0
  184.5360  178.9810  140.7890 C   0  0  2  0  0  3  0  0  0  0  0  0
  184.7110  178.7630  142.9340 N   0  0  0  0  0  0  0  0  0  0  0  0
  184.5330  179.6190  139.5120 N   0  0  0  0  0  0  0  0  0  0  0  0
  183.3930  179.8640  138.9330 C   0  0  0  0  0  3  0  0  0  0  0  0
  1  2  1  0  0  0  0
  3  6  1  0  0  0  0
  4  1  2  0  0  0  0
  5  3  2  0  0  0  0
  5  4  1  0  0  0  0
  6  2  2  0  0  0  0
  7  8  2  0  0  0  0
  8 16  1  0  0  0  0
  9 14  1  0  0  0  0
  9 12  2  0  0  0  0
 10  7  1  0  0  0  0
 11  7  1  0  0  0  0
 11 13  2  0  0  0  0
 12 11  1  0  0  0  0
 13  4  1  0  0  0  0
 13 15  1  0  0  0  0
 14 10  2  0  0  0  0
 15 16  2  0  0  0  0
 16 17  1  0  0  0  0
 18 17  1  0  0  0  0
 19 22  1  6  0  0  0
 19 21  1  0  0  0  0
 20 25  1  0  0  0  0
 21 25  1  0  0  0  0
 23 22  2  0  0  0  0
 24 19  1  0  0  0  0
 24 20  1  1  0  0  0
 25  3  1  0  0  0  0
 26 24  1  0  0  0  0
 27 26  2  0  0  0  0
 27 23  1  0  0  0  0
M  END
>  <MODEL>
1

>  <REMARK>
 VINA RESULT:     -10.7      0.000      0.000
  Name = 
  3 active torsions:
  status: ('A' for Active; 'I' for Inactive)
    1  A    between atoms: C_14  and  N_19
    2  A    between atoms: C_15  and  C_18
    3  A    between atoms: C_23  and  C_25
                            x       y       z     vdW  Elec       q    Type
                         _______ _______ _______ _____ _____    ______ ____

>  <TORSDO>
F 3

$$$$
=
 OpenBabel10232411433D

 27 31  0  0  1  0  0  0  0  0999 V2000
  186.4840  178.0860  146.1660 C   0  0  0  0  0  3  0  0  0  0  0  0
  185.2130  178.4930  146.5770 C   0  0  0  0  0  3  0  0  0  0  0  0
  184.4920  178.5980  144.2630 C   0  0  0  0  0  0  0  0  0  0  0  0
  186.7760  177.9180  144.8030 C   0  0  0  0  0  0  0  0  0  0  0  0
  185.7690  178.1870  143.8600 C   0  0  0  0  0  3  0  0  0  0  0  0
  184.2200  178.7460  145.6300 C   0  0  0  0  0  3  0  0  0  0  0  0
  190.4680  176.8740  144.6760 C   0  0  0  0  0  0  0  0  0  0  0  0
  190.6320  176.7970  143.3300 N   0  0  0  0  0  0  0  0  0  0  0  0
  190.1480  176.9740  147.4550 C   0  0  0  0  0  3  0  0  0  0  0  0
  191.5460  176.5870  145.5180 C   0  0  0  0  0  3  0  0  0  0  0  0
  189.2090  177.2300  145.2230 C   0  0  0  0  0  0  0  0  0  0  0  0
  189.0670  177.2650  146.6190 C   0  0  0  0  0  3  0  0  0  0  0  0
  188.1330  177.5130  144.3430 C   0  0  0  0  0  0  0  0  0  0  0  0
  191.3870  176.6380  146.9040 C   0  0  0  0  0  3  0  0  0  0  0  0
  188.3580  177.4080  142.9620 C   0  0  0  0  0  3  0  0  0  0  0  0
  189.6110  177.0450  142.4720 C   0  0  0  0  0  0  0  0  0  0  0  0
  189.8390  176.9650  141.0040 C   0  0  0  0  0  2  0  0  0  0  0  0
  188.7570  177.6360  140.3040 N   0  0  0  0  0  1  0  0  0  0  0  0
  181.4580  178.7590  142.4800 C   0  0  1  0  0  3  0  0  0  0  0  0
  183.6560  178.6530  141.8880 C   0  0  0  0  0  2  0  0  0  0  0  0
  182.1920  179.1560  143.6210 O   0  0  0  0  0  0  0  0  0  0  0  0
  180.4210  179.7750  142.0780 C   0  0  0  0  0  3  0  0  0  0  0  0
  180.1980  180.0580  140.7850 C   0  0  0  0  0  3  0  0  0  0  0  0
  182.4550  178.5990  141.3920 C   0  0  2  0  0  3  0  0  0  0  0  0
  183.4800  178.8570  143.2800 N   0  0  0  0  0  0  0  0  0  0  0  0
  182.1270  178.8020  140.0180 N   0  0  0  0  0  0  0  0  0  0  0  0
  181.0490  179.4680  139.7200 C   0  0  0  0  0  3  0  0  0  0  0  0
  1  2  1  0  0  0  0
  3  6  1  0  0  0  0
  4  1  2  0  0  0  0
  5  3  2  0  0  0  0
  5  4  1  0  0  0  0
  6  2  2  0  0  0  0
  7 11  2  0  0  0  0
  7 10  1  0  0  0  0
  8  7  1  0  0  0  0
 10 14  2  0  0  0  0
 11 12  1  0  0  0  0
 12  9  2  0  0  0  0
 13  4  1  0  0  0  0
 13 11  1  0  0  0  0
 14  9  1  0  0  0  0
 15 13  2  0  0  0  0
 16 15  1  0  0  0  0
 16  8  2  0  0  0  0
 17 16  1  0  0  0  0
 18 17  1  0  0  0  0
 19 22  1  6  0  0  0
 19 21  1  0  0  0  0
 20 25  1  0  0  0  0
 23 22  2  0  0  0  0
 24 20  1  1  0  0  0
 24 19  1  0  0  0  0
 25 21  1  0  0  0  0
 25  3  1  0  0  0  0
 26 24  1  0  0  0  0
 27 26  2  0  0  0  0
 27 23  1  0  0  0  0
M  END
>  <MODEL>
2

>  <REMARK>
 VINA RESULT:     -10.7      1.591      3.274
  Name = 
  3 active torsions:
  status: ('A' for Active; 'I' for Inactive)
    1  A    between atoms: C_14  and  N_19
    2  A    between atoms: C_15  and  C_18
    3  A    between atoms: C_23  and  C_25
                            x       y       z     vdW  Elec       q    Type
                         _______ _______ _______ _____ _____    ______ ____

>  <TORSDO>
F 3

$$$$
=
 OpenBabel10232411433D

 27 31  0  0  1  0  0  0  0  0999 V2000
  189.9830  176.5950  144.1630 C   0  0  0  0  0  3  0  0  0  0  0  0
  190.8800  176.2120  143.1630 C   0  0  0  0  0  3  0  0  0  0  0  0
  189.3800  177.0960  141.4730 C   0  0  0  0  0  0  0  0  0  0  0  0
  188.7800  177.2410  143.8370 C   0  0  0  0  0  0  0  0  0  0  0  0
  188.4880  177.4770  142.4820 C   0  0  0  0  0  3  0  0  0  0  0  0
  190.5810  176.4630  141.8230 C   0  0  0  0  0  3  0  0  0  0  0  0
  185.6170  178.3930  145.6820 C   0  0  0  0  0  0  0  0  0  0  0  0
  186.0800  178.3660  146.9570 N   0  0  0  0  0  0  0  0  0  0  0  0
  184.6180  178.4120  143.0670 C   0  0  0  0  0  3  0  0  0  0  0  0
  184.2960  178.7790  145.4370 C   0  0  0  0  0  3  0  0  0  0  0  0
  186.4630  178.0210  144.6060 C   0  0  0  0  0  0  0  0  0  0  0  0
  185.9390  178.0270  143.3040 C   0  0  0  0  0  3  0  0  0  0  0  0
  187.7980  177.6300  144.8850 C   0  0  0  0  0  0  0  0  0  0  0  0
  183.7970  178.7900  144.1330 C   0  0  0  0  0  3  0  0  0  0  0  0
  188.2190  177.6110  146.2240 C   0  0  0  0  0  3  0  0  0  0  0  0
  187.3470  177.9770  147.2480 C   0  0  0  0  0  0  0  0  0  0  0  0
  187.8190  177.9780  148.6590 C   0  0  0  0  0  2  0  0  0  0  0  0
  189.2400  178.2750  148.7000 N   0  0  0  0  0  1  0  0  0  0  0  0
  189.5230  177.9950  138.0690 C   0  0  1  0  0  3  0  0  0  0  0  0
  187.9050  178.0580  139.6720 C   0  0  0  0  0  2  0  0  0  0  0  0
  189.9410  177.1050  139.0850 O   0  0  0  0  0  0  0  0  0  0  0  0
  189.4810  177.3430  136.7120 C   0  0  0  0  0  3  0  0  0  0  0  0
  188.4850  177.6080  135.8510 C   0  0  0  0  0  3  0  0  0  0  0  0
  188.1610  178.4410  138.4570 C   0  0  2  0  0  3  0  0  0  0  0  0
  189.0610  177.3570  140.0990 N   0  0  0  0  0  0  0  0  0  0  0  0
  187.1790  178.8240  137.4940 N   0  0  0  0  0  0  0  0  0  0  0  0
  187.3350  178.4570  136.2550 C   0  0  0  0  0  3  0  0  0  0  0  0
  2  1  2  0  0  0  0
  3  6  2  0  0  0  0
  3  5  1  0  0  0  0
  4  1  1  0  0  0  0
  4 13  1  0  0  0  0
  5  4  2  0  0  0  0
  6  2  1  0  0  0  0
  7  8  2  0  0  0  0
  8 16  1  0  0  0  0
  9 12  2  0  0  0  0
  9 14  1  0  0  0  0
 10  7  1  0  0  0  0
 11 13  2  0  0  0  0
 11  7  1  0  0  0  0
 12 11  1  0  0  0  0
 13 15  1  0  0  0  0
 14 10  2  0  0  0  0
 15 16  2  0  0  0  0
 16 17  1  0  0  0  0
 17 18  1  0  0  0  0
 19 22  1  6  0  0  0
 19 24  1  0  0  0  0
 19 21  1  0  0  0  0
 20 25  1  0  0  0  0
 21 25  1  0  0  0  0
 23 27  1  0  0  0  0
 23 22  2  0  0  0  0
 24 20  1  6  0  0  0
 25  3  1  0  0  0  0
 26 24  1  0  0  0  0
 27 26  2  0  0  0  0
M  END
>  <MODEL>
3

>  <REMARK>
 VINA RESULT:     -10.5      3.179      5.396
  Name = 
  3 active torsions:
  status: ('A' for Active; 'I' for Inactive)
    1  A    between atoms: C_14  and  N_19
    2  A    between atoms: C_15  and  C_18
    3  A    between atoms: C_23  and  C_25
                            x       y       z     vdW  Elec       q    Type
                         _______ _______ _______ _____ _____    ______ ____

>  <TORSDO>
F 3

$$$$
=
 OpenBabel10232411433D

 27 31  0  0  1  0  0  0  0  0999 V2000
  185.0300  178.5290  145.4580 C   0  0  0  0  0  3  0  0  0  0  0  0
  183.7340  178.9740  145.1900 C   0  0  0  0  0  3  0  0  0  0  0  0
  184.0490  178.4890  142.8340 C   0  0  0  0  0  0  0  0  0  0  0  0
  185.8500  178.0490  144.4250 C   0  0  0  0  0  0  0  0  0  0  0  0
  185.3470  178.0440  143.1130 C   0  0  0  0  0  3  0  0  0  0  0  0
  183.2430  178.9520  143.8830 C   0  0  0  0  0  3  0  0  0  0  0  0
  189.2250  177.2670  146.0790 C   0  0  0  0  0  0  0  0  0  0  0  0
  189.8790  176.7380  145.0140 N   0  0  0  0  0  0  0  0  0  0  0  0
  187.8870  178.3070  148.3080 C   0  0  0  0  0  3  0  0  0  0  0  0
  189.8790  177.3610  147.3110 C   0  0  0  0  0  3  0  0  0  0  0  0
  187.8840  177.7090  145.9470 C   0  0  0  0  0  0  0  0  0  0  0  0
  187.2280  178.2180  147.0800 C   0  0  0  0  0  3  0  0  0  0  0  0
  187.2450  177.5980  144.6860 C   0  0  0  0  0  0  0  0  0  0  0  0
  189.2130  177.8820  148.4230 C   0  0  0  0  0  3  0  0  0  0  0  0
  187.9660  177.0340  143.6220 C   0  0  0  0  0  3  0  0  0  0  0  0
  189.2800  176.6050  143.8030 C   0  0  0  0  0  0  0  0  0  0  0  0
  190.0380  176.0350  142.6580 C   0  0  0  0  0  2  0  0  0  0  0  0
  189.9310  176.9200  141.5110 N   0  0  0  0  0  1  0  0  0  0  0  0
  183.6080  178.9880  139.3740 C   0  0  1  0  0  3  0  0  0  0  0  0
  182.1980  178.6610  141.1340 C   0  0  0  0  0  2  0  0  0  0  0  0
  184.3920  178.4240  140.4060 O   0  0  0  0  0  0  0  0  0  0  0  0
  183.7050  178.2140  138.0860 C   0  0  0  0  0  3  0  0  0  0  0  0
  182.6210  178.0130  137.3200 C   0  0  0  0  0  3  0  0  0  0  0  0
  182.2100  178.9690  139.8710 C   0  0  2  0  0  3  0  0  0  0  0  0
  183.5570  178.4640  141.4870 N   0  0  0  0  0  0  0  0  0  0  0  0
  181.0880  178.8710  138.9940 N   0  0  0  0  0  0  0  0  0  0  0  0
  181.2750  178.4440  137.7780 C   0  0  0  0  0  3  0  0  0  0  0  0
  2  1  1  0  0  0  0
  3  5  2  0  0  0  0
  3  6  1  0  0  0  0
  4 13  1  0  0  0  0
  4  1  2  0  0  0  0
  5  4  1  0  0  0  0
  6  2  2  0  0  0  0
  7 10  1  0  0  0  0
  8  7  1  0  0  0  0
  9 14  1  0  0  0  0
 10 14  2  0  0  0  0
 11  7  2  0  0  0  0
 11 12  1  0  0  0  0
 12  9  2  0  0  0  0
 13 11  1  0  0  0  0
 15 16  1  0  0  0  0
 15 13  2  0  0  0  0
 16  8  2  0  0  0  0
 17 16  1  0  0  0  0
 18 17  1  0  0  0  0
 19 22  1  6  0  0  0
 19 24  1  0  0  0  0
 19 21  1  0  0  0  0
 20 25  1  0  0  0  0
 21 25  1  0  0  0  0
 23 27  1  0  0  0  0
 23 22  2  0  0  0  0
 24 20  1  1  0  0  0
 25  3  1  0  0  0  0
 26 24  1  0  0  0  0
 27 26  2  0  0  0  0
M  END
>  <MODEL>
4

>  <REMARK>
 VINA RESULT:     -10.4      1.811      3.601
  Name = 
  3 active torsions:
  status: ('A' for Active; 'I' for Inactive)
    1  A    between atoms: C_14  and  N_19
    2  A    between atoms: C_15  and  C_18
    3  A    between atoms: C_23  and  C_25
                            x       y       z     vdW  Elec       q    Type
                         _______ _______ _______ _____ _____    ______ ____

>  <TORSDO>
F 3

$$$$
=
 OpenBabel10232411433D

 27 31  0  0  1  0  0  0  0  0999 V2000
  189.7950  176.6220  143.9400 C   0  0  0  0  0  3  0  0  0  0  0  0
  190.7100  176.2040  142.9700 C   0  0  0  0  0  3  0  0  0  0  0  0
  189.2770  177.0970  141.2280 C   0  0  0  0  0  0  0  0  0  0  0  0
  188.6170  177.2890  143.5720 C   0  0  0  0  0  0  0  0  0  0  0  0
  188.3670  177.5130  142.2070 C   0  0  0  0  0  3  0  0  0  0  0  0
  190.4540  176.4430  141.6190 C   0  0  0  0  0  3  0  0  0  0  0  0
  186.8590  178.2070  146.8590 C   0  0  0  0  0  0  0  0  0  0  0  0
  185.6240  178.4980  146.3790 N   0  0  0  0  0  0  0  0  0  0  0  0
  189.4100  177.6610  147.8760 C   0  0  0  0  0  3  0  0  0  0  0  0
  187.1070  178.3120  148.2310 C   0  0  0  0  0  3  0  0  0  0  0  0
  187.8950  177.8100  145.9760 C   0  0  0  0  0  0  0  0  0  0  0  0
  189.1700  177.5510  146.5050 C   0  0  0  0  0  3  0  0  0  0  0  0
  187.6150  177.7150  144.5880 C   0  0  0  0  0  0  0  0  0  0  0  0
  188.3780  178.0380  148.7390 C   0  0  0  0  0  3  0  0  0  0  0  0
  186.3230  178.0390  144.1470 C   0  0  0  0  0  3  0  0  0  0  0  0
  185.3400  178.4320  145.0530 C   0  0  0  0  0  0  0  0  0  0  0  0
  183.9690  178.7440  144.5710 C   0  0  0  0  0  2  0  0  0  0  0  0
  183.8760  178.4700  143.1470 N   0  0  0  0  0  1  0  0  0  0  0  0
  189.5260  177.9680  137.8230 C   0  0  1  0  0  3  0  0  0  0  0  0
  187.8570  178.0400  139.3730 C   0  0  0  0  0  2  0  0  0  0  0  0
  189.9140  177.0890  138.8590 O   0  0  0  0  0  0  0  0  0  0  0  0
  189.5300  177.3050  136.4710 C   0  0  0  0  0  3  0  0  0  0  0  0
  188.5620  177.5600  135.5760 C   0  0  0  0  0  3  0  0  0  0  0  0
  188.1520  178.4140  138.1630 C   0  0  2  0  0  3  0  0  0  0  0  0
  189.0010  177.3460  139.8420 N   0  0  0  0  0  0  0  0  0  0  0  0
  187.2000  178.7850  137.1660 N   0  0  0  0  0  0  0  0  0  0  0  0
  187.3970  178.4080  135.9360 C   0  0  0  0  0  3  0  0  0  0  0  0
  2  1  2  0  0  0  0
  3  6  2  0  0  0  0
  3  5  1  0  0  0  0
  4  1  1  0  0  0  0
  4 13  1  0  0  0  0
  5  4  2  0  0  0  0
  6  2  1  0  0  0  0
  7 10  1  0  0  0  0
  8  7  1  0  0  0  0
  9 14  1  0  0  0  0
 10 14  2  0  0  0  0
 11 12  1  0  0  0  0
 11  7  2  0  0  0  0
 12  9  2  0  0  0  0
 13 11  1  0  0  0  0
 15 13  2  0  0  0  0
 15 16  1  0  0  0  0
 16  8  2  0  0  0  0
 17 16  1  0  0  0  0
 18 17  1  0  0  0  0
 19 22  1  6  0  0  0
 19 24  1  0  0  0  0
 19 21  1  0  0  0  0
 20 25  1  0  0  0  0
 21 25  1  0  0  0  0
 23 27  1  0  0  0  0
 23 22  2  0  0  0  0
 24 20  1  6  0  0  0
 25  3  1  0  0  0  0
 26 24  1  0  0  0  0
 27 26  2  0  0  0  0
M  END
>  <MODEL>
5

>  <REMARK>
 VINA RESULT:     -10.1      3.308      5.986
  Name = 
  3 active torsions:
  status: ('A' for Active; 'I' for Inactive)
    1  A    between atoms: C_14  and  N_19
    2  A    between atoms: C_15  and  C_18
    3  A    between atoms: C_23  and  C_25
                            x       y       z     vdW  Elec       q    Type
                         _______ _______ _______ _____ _____    ______ ____

>  <TORSDO>
F 3

$$$$
=
 OpenBabel10232411433D

 27 31  0  0  1  0  0  0  0  0999 V2000
  184.1500  178.9120  145.0540 C   0  0  0  0  0  3  0  0  0  0  0  0
  184.7780  178.7890  146.2960 C   0  0  0  0  0  3  0  0  0  0  0  0
  186.7640  177.9160  145.2110 C   0  0  0  0  0  0  0  0  0  0  0  0
  184.8190  178.5510  143.8740 C   0  0  0  0  0  0  0  0  0  0  0  0
  186.1270  178.0450  143.9700 C   0  0  0  0  0  3  0  0  0  0  0  0
  186.0800  178.2950  146.3750 C   0  0  0  0  0  3  0  0  0  0  0  0
  182.2270  178.8230  141.0570 C   0  0  0  0  0  0  0  0  0  0  0  0
  183.0580  178.7850  139.9840 N   0  0  0  0  0  0  0  0  0  0  0  0
  180.4910  178.9530  143.2480 C   0  0  0  0  0  3  0  0  0  0  0  0
  180.8490  178.9370  140.8550 C   0  0  0  0  0  3  0  0  0  0  0  0
  182.7540  178.7590  142.3720 C   0  0  0  0  0  0  0  0  0  0  0  0
  181.8670  178.8370  143.4570 C   0  0  0  0  0  3  0  0  0  0  0  0
  184.1580  178.6470  142.5450 C   0  0  0  0  0  0  0  0  0  0  0  0
  179.9820  179.0000  141.9480 C   0  0  0  0  0  3  0  0  0  0  0  0
  184.9690  178.6230  141.4000 C   0  0  0  0  0  3  0  0  0  0  0  0
  184.4050  178.6970  140.1280 C   0  0  0  0  0  0  0  0  0  0  0  0
  185.2780  178.6420  138.9250 C   0  0  0  0  0  2  0  0  0  0  0  0
  186.6550  178.4140  139.3290 N   0  0  0  0  0  1  0  0  0  0  0  0
  190.1940  177.4680  145.8810 C   0  0  1  0  0  3  0  0  0  0  0  0
  188.8120  176.8870  144.1650 C   0  0  0  0  0  2  0  0  0  0  0  0
  188.8790  177.5390  146.3950 O   0  0  0  0  0  0  0  0  0  0  0  0
  191.0910  176.5870  146.7100 C   0  0  0  0  0  3  0  0  0  0  0  0
  191.9810  175.7670  146.1270 C   0  0  0  0  0  3  0  0  0  0  0  0
  190.0650  176.9110  144.5110 C   0  0  2  0  0  3  0  0  0  0  0  0
  188.1030  177.4050  145.2790 N   0  0  0  0  0  0  0  0  0  0  0  0
  191.0990  176.1420  143.8990 N   0  0  0  0  0  0  0  0  0  0  0  0
  192.0240  175.6170  144.6500 C   0  0  0  0  0  3  0  0  0  0  0  0
  1  2  1  0  0  0  0
  2  6  2  0  0  0  0
  3 25  1  0  0  0  0
  3  6  1  0  0  0  0
  4  5  1  0  0  0  0
  4  1  2  0  0  0  0
  5  3  2  0  0  0  0
  7 11  1  0  0  0  0
  8 16  2  0  0  0  0
  8  7  1  0  0  0  0
  9 12  1  0  0  0  0
 10  7  2  0  0  0  0
 10 14  1  0  0  0  0
 11 13  1  0  0  0  0
 11 12  2  0  0  0  0
 13  4  1  0  0  0  0
 14  9  2  0  0  0  0
 15 13  2  0  0  0  0
 16 15  1  0  0  0  0
 17 18  1  0  0  0  0
 17 16  1  0  0  0  0
 19 21  1  0  0  0  0
 19 22  1  1  0  0  0
 20 25  1  0  0  0  0
 23 22  2  0  0  0  0
 24 20  1  1  0  0  0
 24 19  1  0  0  0  0
 25 21  1  0  0  0  0
 26 24  1  0  0  0  0
 26 27  2  0  0  0  0
 27 23  1  0  0  0  0
M  END
>  <MODEL>
6

>  <REMARK>
 VINA RESULT:      -9.9      2.105      8.067
  Name = 
  3 active torsions:
  status: ('A' for Active; 'I' for Inactive)
    1  A    between atoms: C_14  and  N_19
    2  A    between atoms: C_15  and  C_18
    3  A    between atoms: C_23  and  C_25
                            x       y       z     vdW  Elec       q    Type
                         _______ _______ _______ _____ _____    ______ ____

>  <TORSDO>
F 3

$$$$
=
 OpenBabel10232411433D

 27 31  0  0  1  0  0  0  0  0999 V2000
  186.7740  178.4010  146.2080 C   0  0  0  0  0  3  0  0  0  0  0  0
  185.4810  178.7730  146.5820 C   0  0  0  0  0  3  0  0  0  0  0  0
  184.7110  178.3950  144.3120 C   0  0  0  0  0  0  0  0  0  0  0  0
  187.0540  178.0120  144.8890 C   0  0  0  0  0  0  0  0  0  0  0  0
  186.0110  178.0220  143.9470 C   0  0  0  0  0  3  0  0  0  0  0  0
  184.4520  178.7680  145.6390 C   0  0  0  0  0  3  0  0  0  0  0  0
  190.1870  177.2220  142.8170 C   0  0  0  0  0  0  0  0  0  0  0  0
  191.0410  176.8900  143.8190 N   0  0  0  0  0  0  0  0  0  0  0  0
  188.4680  177.9490  140.7310 C   0  0  0  0  0  3  0  0  0  0  0  0
  190.6350  177.1880  141.4930 C   0  0  0  0  0  3  0  0  0  0  0  0
  188.8560  177.6120  143.1110 C   0  0  0  0  0  0  0  0  0  0  0  0
  188.0130  177.9830  142.0510 C   0  0  0  0  0  3  0  0  0  0  0  0
  188.4320  177.6400  144.4640 C   0  0  0  0  0  0  0  0  0  0  0  0
  189.7770  177.5500  140.4520 C   0  0  0  0  0  3  0  0  0  0  0  0
  189.3590  177.2970  145.4590 C   0  0  0  0  0  3  0  0  0  0  0  0
  190.6600  176.9280  145.1210 C   0  0  0  0  0  0  0  0  0  0  0  0
  191.6220  176.5400  146.1870 C   0  0  0  0  0  2  0  0  0  0  0  0
  190.9600  176.5720  147.4800 N   0  0  0  0  0  1  0  0  0  0  0  0
  182.8430  178.7030  141.3410 C   0  0  1  0  0  3  0  0  0  0  0  0
  182.3620  178.9060  143.5590 C   0  0  0  0  0  2  0  0  0  0  0  0
  183.8830  178.0400  142.0310 O   0  0  0  0  0  0  0  0  0  0  0  0
  182.1830  177.8260  140.3090 C   0  0  0  0  0  3  0  0  0  0  0  0
  180.8530  177.8540  140.1300 C   0  0  0  0  0  3  0  0  0  0  0  0
  181.8550  179.0940  142.3770 C   0  0  2  0  0  3  0  0  0  0  0  0
  183.6630  178.3880  143.3330 N   0  0  0  0  0  0  0  0  0  0  0  0
  180.4610  179.2210  142.0950 N   0  0  0  0  0  0  0  0  0  0  0  0
  179.9820  178.6610  141.0220 C   0  0  0  0  0  3  0  0  0  0  0  0
  1  2  1  0  0  0  0
  3  6  1  0  0  0  0
  4  1  2  0  0  0  0
  5  3  2  0  0  0  0
  5  4  1  0  0  0  0
  6  2  2  0  0  0  0
  7 11  1  0  0  0  0
  7  8  2  0  0  0  0
  8 16  1  0  0  0  0
  9 12  2  0  0  0  0
 10  7  1  0  0  0  0
 11 13  2  0  0  0  0
 12 11  1  0  0  0  0
 13  4  1  0  0  0  0
 13 15  1  0  0  0  0
 14  9  1  0  0  0  0
 14 10  2  0  0  0  0
 16 15  2  0  0  0  0
 16 17  1  0  0  0  0
 17 18  1  0  0  0  0
 19 22  1  6  0  0  0
 19 21  1  0  0  0  0
 19 24  1  0  0  0  0
 21 25  1  0  0  0  0
 23 22  2  0  0  0  0
 23 27  1  0  0  0  0
 24 20  1  1  0  0  0
 25 20  1  0  0  0  0
 25  3  1  0  0  0  0
 26 24  1  0  0  0  0
 27 26  2  0  0  0  0
M  END
>  <MODEL>
7

>  <REMARK>
 VINA RESULT:      -9.8      1.509      1.958
  Name = 
  3 active torsions:
  status: ('A' for Active; 'I' for Inactive)
    1  A    between atoms: C_14  and  N_19
    2  A    between atoms: C_15  and  C_18
    3  A    between atoms: C_23  and  C_25
                            x       y       z     vdW  Elec       q    Type
                         _______ _______ _______ _____ _____    ______ ____

>  <TORSDO>
F 3

$$$$
=
 OpenBabel10232411433D

 27 31  0  0  1  0  0  0  0  0999 V2000
  187.2030  178.2990  142.1450 C   0  0  0  0  0  3  0  0  0  0  0  0
  186.9800  178.4520  140.7740 C   0  0  0  0  0  3  0  0  0  0  0  0
  189.1490  177.4720  140.3060 C   0  0  0  0  0  0  0  0  0  0  0  0
  188.3930  177.7230  142.6160 C   0  0  0  0  0  0  0  0  0  0  0  0
  189.3640  177.3220  141.6820 C   0  0  0  0  0  3  0  0  0  0  0  0
  187.9470  178.0380  139.8580 C   0  0  0  0  0  3  0  0  0  0  0  0
  188.0800  177.7180  146.4420 C   0  0  0  0  0  0  0  0  0  0  0  0
  189.3260  177.2910  146.7680 N   0  0  0  0  0  0  0  0  0  0  0  0
  185.4860  178.5530  145.8020 C   0  0  0  0  0  3  0  0  0  0  0  0
  187.1600  177.9950  147.4570 C   0  0  0  0  0  3  0  0  0  0  0  0
  187.7090  177.8710  145.0810 C   0  0  0  0  0  0  0  0  0  0  0  0
  186.4000  178.2810  144.7820 C   0  0  0  0  0  3  0  0  0  0  0  0
  188.6630  177.5790  144.0730 C   0  0  0  0  0  0  0  0  0  0  0  0
  185.8660  178.4140  147.1380 C   0  0  0  0  0  3  0  0  0  0  0  0
  189.9330  177.1310  144.4680 C   0  0  0  0  0  3  0  0  0  0  0  0
  190.2470  176.9880  145.8190 C   0  0  0  0  0  0  0  0  0  0  0  0
  191.6070  176.5380  146.2200 C   0  0  0  0  0  2  0  0  0  0  0  0
  191.8400  176.8680  147.6160 N   0  0  0  0  0  1  0  0  0  0  0  0
  191.1140  175.6020  138.0580 C   0  0  1  0  0  3  0  0  0  0  0  0
  191.5410  177.2800  139.5400 C   0  0  0  0  0  2  0  0  0  0  0  0
  189.8700  176.2150  138.3270 O   0  0  0  0  0  0  0  0  0  0  0  0
  191.4230  175.5440  136.5850 C   0  0  0  0  0  3  0  0  0  0  0  0
  192.6660  175.7750  136.1320 C   0  0  0  0  0  3  0  0  0  0  0  0
  192.1320  176.4290  138.7550 C   0  0  2  0  0  3  0  0  0  0  0  0
  190.1520  177.0450  139.3740 N   0  0  0  0  0  0  0  0  0  0  0  0
  193.4750  176.5430  138.2860 N   0  0  0  0  0  0  0  0  0  0  0  0
  193.7430  176.2130  137.0560 C   0  0  0  0  0  3  0  0  0  0  0  0
  1  4  1  0  0  0  0
  2  1  2  0  0  0  0
  3  5  1  0  0  0  0
  4 13  1  0  0  0  0
  5  4  2  0  0  0  0
  6  3  2  0  0  0  0
  6  2  1  0  0  0  0
  7  8  1  0  0  0  0
  7 10  1  0  0  0  0
  9 14  1  0  0  0  0
 11  7  2  0  0  0  0
 12 11  1  0  0  0  0
 12  9  2  0  0  0  0
 13 15  2  0  0  0  0
 13 11  1  0  0  0  0
 14 10  2  0  0  0  0
 15 16  1  0  0  0  0
 16 17  1  0  0  0  0
 16  8  2  0  0  0  0
 17 18  1  0  0  0  0
 19 22  1  6  0  0  0
 19 21  1  0  0  0  0
 19 24  1  0  0  0  0
 21 25  1  0  0  0  0
 23 22  2  0  0  0  0
 23 27  1  0  0  0  0
 24 20  1  6  0  0  0
 25 20  1  0  0  0  0
 25  3  1  0  0  0  0
 26 24  1  0  0  0  0
 27 26  2  0  0  0  0
M  END
>  <MODEL>
8

>  <REMARK>
 VINA RESULT:      -9.7      3.451      6.405
  Name = 
  3 active torsions:
  status: ('A' for Active; 'I' for Inactive)
    1  A    between atoms: C_14  and  N_19
    2  A    between atoms: C_15  and  C_18
    3  A    between atoms: C_23  and  C_25
                            x       y       z     vdW  Elec       q    Type
                         _______ _______ _______ _____ _____    ______ ____

>  <TORSDO>
F 3

$$$$
=
 OpenBabel10232411433D

 27 31  0  0  1  0  0  0  0  0999 V2000
  186.5030  178.6080  142.0870 C   0  0  0  0  0  3  0  0  0  0  0  0
  186.3960  178.7520  140.7020 C   0  0  0  0  0  3  0  0  0  0  0  0
  188.5740  177.7190  140.4230 C   0  0  0  0  0  0  0  0  0  0  0  0
  187.6360  178.0100  142.6610 C   0  0  0  0  0  0  0  0  0  0  0  0
  188.6710  177.5780  141.8130 C   0  0  0  0  0  3  0  0  0  0  0  0
  187.4270  178.3070  139.8720 C   0  0  0  0  0  3  0  0  0  0  0  0
  188.9960  177.3310  146.1850 C   0  0  0  0  0  0  0  0  0  0  0  0
  187.8920  177.6360  146.9140 N   0  0  0  0  0  0  0  0  0  0  0  0
  191.3040  176.7420  144.7160 C   0  0  0  0  0  3  0  0  0  0  0  0
  190.1580  176.9140  146.8400 C   0  0  0  0  0  3  0  0  0  0  0  0
  188.9740  177.4460  144.7720 C   0  0  0  0  0  0  0  0  0  0  0  0
  190.1460  177.1560  144.0550 C   0  0  0  0  0  3  0  0  0  0  0  0
  187.7810  177.8750  144.1360 C   0  0  0  0  0  0  0  0  0  0  0  0
  191.3100  176.6190  146.1080 C   0  0  0  0  0  3  0  0  0  0  0  0
  186.6740  178.1860  144.9390 C   0  0  0  0  0  3  0  0  0  0  0  0
  186.7460  178.0660  146.3260 C   0  0  0  0  0  0  0  0  0  0  0  0
  185.5540  178.3750  147.1610 C   0  0  0  0  0  2  0  0  0  0  0  0
  184.4520  178.7830  146.3070 N   0  0  0  0  0  1  0  0  0  0  0  0
  190.6350  175.8120  138.2950 C   0  0  1  0  0  3  0  0  0  0  0  0
  191.0160  177.3750  139.9080 C   0  0  0  0  0  2  0  0  0  0  0  0
  189.4160  176.5080  138.4640 O   0  0  0  0  0  0  0  0  0  0  0  0
  191.1010  175.8020  136.8630 C   0  0  0  0  0  3  0  0  0  0  0  0
  192.3990  175.9570  136.5590 C   0  0  0  0  0  3  0  0  0  0  0  0
  191.6260  176.5200  139.1430 C   0  0  2  0  0  3  0  0  0  0  0  0
  189.6410  177.2600  139.5810 N   0  0  0  0  0  0  0  0  0  0  0  0
  193.0180  176.5500  138.8280 N   0  0  0  0  0  0  0  0  0  0  0  0
  193.3970  176.2610  137.6170 C   0  0  0  0  0  3  0  0  0  0  0  0
  1  4  1  0  0  0  0
  2  1  2  0  0  0  0
  3  5  1  0  0  0  0
  4 13  1  0  0  0  0
  5  4  2  0  0  0  0
  6  3  2  0  0  0  0
  6  2  1  0  0  0  0
  7 10  1  0  0  0  0
  7  8  2  0  0  0  0
  9 14  1  0  0  0  0
 11  7  1  0  0  0  0
 12  9  2  0  0  0  0
 12 11  1  0  0  0  0
 13 11  2  0  0  0  0
 13 15  1  0  0  0  0
 14 10  2  0  0  0  0
 15 16  2  0  0  0  0
 16  8  1  0  0  0  0
 16 17  1  0  0  0  0
 18 17  1  0  0  0  0
 19 22  1  6  0  0  0
 19 21  1  0  0  0  0
 19 24  1  0  0  0  0
 21 25  1  0  0  0  0
 23 22  2  0  0  0  0
 23 27  1  0  0  0  0
 24 20  1  6  0  0  0
 25 20  1  0  0  0  0
 25  3  1  0  0  0  0
 26 24  1  0  0  0  0
 27 26  2  0  0  0  0
M  END
>  <MODEL>
9

>  <REMARK>
 VINA RESULT:      -9.4      3.291      6.252
  Name = 
  3 active torsions:
  status: ('A' for Active; 'I' for Inactive)
    1  A    between atoms: C_14  and  N_19
    2  A    between atoms: C_15  and  C_18
    3  A    between atoms: C_23  and  C_25
                            x       y       z     vdW  Elec       q    Type
                         _______ _______ _______ _____ _____    ______ ____

>  <TORSDO>
F 3

$$$$
