=
 OpenBabel10232410053D

 68 73  0  0  1  0  0  0  0  0999 V2000
  187.3020  179.1890  141.3790 C   0  0  0  0  0  1  0  0  0  0  0  0
  187.2640  177.5400  143.3700 C   0  0  1  0  0  3  0  0  0  0  0  0
  187.0720  178.9900  142.8760 C   0  0  2  0  0  3  0  0  0  0  0  0
  185.8620  178.1200  143.1990 C   0  0  1  0  0  0  0  0  0  0  0  0
  185.1020  177.7370  142.0770 O   0  0  0  0  0  0  0  0  0  0  0  0
  183.8440  177.9550  142.4020 O   0  0  0  0  0  0  0  0  0  0  0  0
  183.3720  178.8390  141.4320 C   0  0  0  0  0  2  0  0  0  0  0  0
  183.8020  176.9980  138.3060 C   0  0  0  0  0  0  0  0  0  0  0  0
  183.2220  177.1980  139.4760 C   0  0  0  0  0  0  0  0  0  0  0  0
  183.7370  178.3550  140.1110 N   0  0  0  0  0  0  0  0  0  0  0  0
  184.7800  178.9420  139.2900 C   0  0  0  0  0  3  0  0  0  0  0  0
  184.8670  178.0250  138.0640 C   0  0  0  0  0  3  0  0  0  0  0  0
  183.6960  174.5320  138.2140 C   0  0  2  0  0  3  0  0  0  0  0  0
  184.3300  173.4880  137.2890 C   0  0  0  0  0  2  0  0  0  0  0  0
  182.2960  175.0630  137.8640 C   0  0  1  0  0  3  0  0  0  0  0  0
  183.5330  175.8210  137.4160 C   0  0  1  0  0  3  0  0  0  0  0  0
  182.3970  173.5310  135.7520 C   0  0  0  0  0  2  0  0  0  0  0  0
  183.3070  172.6260  136.5610 C   0  0  1  0  0  3  0  0  0  0  0  0
  181.5490  174.3630  136.7060 C   0  0  2  0  0  3  0  0  0  0  0  0
  180.3310  176.5800  136.5280 N   0  0  0  0  0  1  0  0  0  0  0  0
  180.2810  175.0280  134.8010 O   0  0  0  0  0  0  0  0  0  0  0  0
  180.6920  175.3270  135.9520 C   0  0  0  0  0  0  0  0  0  0  0  0
  183.7640  171.8190  134.3590 O   0  0  0  0  0  1  0  0  0  0  0  0
  183.9690  171.5180  135.7110 C   0  0  2  0  0  0  0  0  0  0  0  0
  183.3510  170.1380  136.0070 C   0  0  2  0  0  3  0  0  0  0  0  0
  184.1100  169.1220  135.4540 F   0  0  0  0  0  0  0  0  0  0  0  0
  181.9280  170.0320  135.4790 C   0  0  0  0  0  1  0  0  0  0  0  0
  185.3750  171.4610  135.9740 O   0  0  0  0  0  0  0  0  0  0  0  0
  186.4610  173.1500  134.4270 C   0  0  0  0  0  1  0  0  0  0  0  0
  187.2580  170.9430  134.7710 O   0  0  0  0  0  0  0  0  0  0  0  0
  186.3830  171.7980  135.0580 C   0  0  0  0  0  0  0  0  0  0  0  0
  180.8390  177.0820  140.1210 C   0  0  0  0  0  1  0  0  0  0  0  0
  182.1530  176.3290  140.0650 C   0  0  0  0  0  2  0  0  0  0  0  0
  185.1240  178.5750  144.4510 C   0  0  0  0  0  2  0  0  0  0  0  0
  185.6700  177.8730  145.6820 C   0  0  0  0  0  2  0  0  0  0  0  0
  186.6840  178.7010  146.3110 N   0  0  0  0  0  2  0  0  0  0  0  0
  186.3420  178.8010  147.7190 C   0  0  0  0  0  2  0  0  0  0  0  0
  187.4690  178.2390  148.5710 C   0  0  0  0  0  2  0  0  0  0  0  0
  188.5320  177.5820  147.7060 C   0  0  2  0  0  3  0  0  0  0  0  0
  188.3270  176.2020  147.6590 O   0  0  0  0  0  1  0  0  0  0  0  0
  189.9020  177.8710  148.2950 C   0  0  0  0  0  2  0  0  0  0  0  0
  190.9470  177.4280  147.3830 N   0  0  0  0  0  0  0  0  0  0  0  0
  192.1480  174.1790  145.2580 C   0  0  0  0  0  1  0  0  0  0  0  0
  192.3930  175.5580  145.8450 C   0  0  1  0  0  3  0  0  0  0  0  0
  191.5510  176.5950  145.1420 C   0  0  0  0  0  0  0  0  0  0  0  0
  192.0790  175.5250  147.3520 C   0  0  0  0  0  2  0  0  0  0  0  0
  189.9900  178.3700  145.4510 O   0  0  0  0  0  0  0  0  0  0  0  0
  191.5340  176.6720  143.8850 O   0  0  0  0  0  0  0  0  0  0  0  0
  190.7860  177.5380  145.9640 C   0  0  0  0  0  0  0  0  0  0  0  0
  192.0750  176.8360  147.8680 O   0  0  0  0  0  0  0  0  0  0  0  0
  187.6110  176.5190  142.2830 C   0  0  0  0  0  2  0  0  0  0  0  0
  189.1070  176.5390  142.0100 C   0  0  0  0  0  2  0  0  0  0  0  0
  191.3520  177.9020  140.8830 O   0  0  0  0  0  0  0  0  0  0  0  0
  189.3500  176.7380  140.5890 N   0  0  0  0  0  2  0  0  0  0  0  0
  190.5520  177.3310  140.0950 C   0  0  0  0  0  0  0  0  0  0  0  0
  190.8930  177.2500  138.6370 C   0  0  2  0  0  3  0  0  0  0  0  0
  189.2320  176.5690  136.8420 C   0  0  0  0  0  0  0  0  0  0  0  0
  189.0880  178.7830  137.5820 C   0  0  0  0  0  3  0  0  0  0  0  0
  188.1760  177.1310  135.9790 C   0  0  0  0  0  2  0  0  0  0  0  0
  189.7290  177.4940  137.7840 N   0  0  0  0  0  0  0  0  0  0  0  0
  188.0220  178.5620  136.5010 C   0  0  0  0  0  3  0  0  0  0  0  0
  189.6590  175.3880  136.7460 O   0  0  0  0  0  0  0  0  0  0  0  0
  191.5930  175.9380  138.2830 C   0  0  0  0  0  2  0  0  0  0  0  0
  192.6780  176.1640  137.4260 O   0  0  0  0  0  0  0  0  0  0  0  0
  192.0670  173.5320  136.8010 O   0  0  0  0  0  0  0  0  0  0  0  0
  194.4250  174.6970  135.6570 C   0  0  0  0  0  1  0  0  0  0  0  0
  194.1160  174.1620  138.2960 O   0  0  0  0  0  1  0  0  0  0  0  0
  193.3220  174.6300  137.0970 P   0  0  1  0  0  0  0  0  0  0  0  0
  2 51  1  6  0  0  0
  3  1  1  6  0  0  0
  3  4  1  0  0  0  0
  3  2  1  0  0  0  0
  4  2  1  0  0  0  0
  4 34  1  1  0  0  0
  5  6  1  0  0  0  0
  5  4  1  0  0  0  0
  7  6  1  0  0  0  0
  8  9  2  0  0  0  0
  9 33  1  0  0  0  0
  9 10  1  0  0  0  0
 10  7  1  0  0  0  0
 11 10  1  0  0  0  0
 12  8  1  0  0  0  0
 12 11  2  0  0  0  0
 13 14  1  6  0  0  0
 15 13  1  0  0  0  0
 16 15  1  0  0  0  0
 16 13  1  0  0  0  0
 16  8  1  0  0  0  0
 17 18  1  0  0  0  0
 17 19  1  0  0  0  0
 18 14  1  0  0  0  0
 19 15  1  0  0  0  0
 21 22  2  0  0  0  0
 22 20  1  0  0  0  0
 22 19  1  0  0  0  0
 23 24  1  0  0  0  0
 24 28  1  0  0  0  0
 24 25  1  0  0  0  0
 24 18  1  0  0  0  0
 26 25  1  0  0  0  0
 27 25  1  0  0  0  0
 29 31  1  0  0  0  0
 30 31  2  0  0  0  0
 31 28  1  0  0  0  0
 33 32  1  0  0  0  0
 34 35  1  0  0  0  0
 35 36  1  0  0  0  0
 36 37  1  0  0  0  0
 37 38  1  0  0  0  0
 39 41  1  0  0  0  0
 39 38  1  0  0  0  0
 40 39  1  0  0  0  0
 42 50  1  0  0  0  0
 42 41  1  0  0  0  0
 43 44  1  0  0  0  0
 44 46  1  0  0  0  0
 45 44  1  0  0  0  0
 45 49  1  0  0  0  0
 46 50  1  0  0  0  0
 47 49  2  0  0  0  0
 48 45  2  0  0  0  0
 49 42  1  0  0  0  0
 52 51  1  0  0  0  0
 54 52  1  0  0  0  0
 55 54  1  0  0  0  0
 55 53  2  0  0  0  0
 56 55  1  0  0  0  0
 57 60  1  0  0  0  0
 58 60  1  0  0  0  0
 59 61  1  0  0  0  0
 59 57  1  0  0  0  0
 60 56  1  0  0  0  0
 61 58  2  0  0  0  0
 62 57  2  0  0  0  0
 63 56  1  0  0  0  0
 64 63  1  0  0  0  0
 65 68  2  0  0  0  0
 66 68  1  0  0  0  0
 68 64  1  0  0  0  0
 68 67  1  0  0  0  0
M  END
>  <MODEL>
1

>  <REMARK>
 VINA RESULT:      -5.0      0.000      0.000
  Name = 
  27 active torsions:
  status: ('A' for Active; 'I' for Inactive)
    1  A    between atoms: C_5  and  C_20
    2  A    between atoms: C_5  and  N_47
    3  A    between atoms: C_6  and  N_7
    4  A    between atoms: C_6  and  C_23
    5  A    between atoms: O_10  and  O_52
    6  A    between atoms: O_10  and  C_60
    7  A    between atoms: C_11  and  C_56
    8  A    between atoms: C_16  and  C_24
    9  A    between atoms: C_16  and  O_44
   10  A    between atoms: C_18  and  C_29
   11  A    between atoms: C_20  and  C_35
   12  A    between atoms: C_22  and  N_37
   13  A    between atoms: C_22  and  C_40
   14  A    between atoms: C_23  and  C_40
   15  A    between atoms: C_24  and  N_36
   16  A    between atoms: C_24  and  C_54
   17  A    between atoms: C_31  and  C_56
   18  A    between atoms: C_32  and  C_33
   19  A    between atoms: C_34  and  N_37
   20  A    between atoms: C_34  and  C_57
   21  A    between atoms: O_42  and  C_56
   22  A    between atoms: O_42  and  C_62
   23  A    between atoms: O_44  and  P_65
   24  A    between atoms: N_46  and  C_60
   25  A    between atoms: C_50  and  C_67
   26  A    between atoms: O_52  and  C_63
   27  A    between atoms: C_57  and  C_63
                            x       y       z     vdW  Elec       q    Type
                         _______ _______ _______ _____ _____    ______ ____

>  <TORSDO>
F 27

$$$$
=
 OpenBabel10232410053D

 68 73  0  0  1  0  0  0  0  0999 V2000
  187.1790  179.2520  141.4910 C   0  0  0  0  0  1  0  0  0  0  0  0
  187.2650  177.6410  143.5120 C   0  0  1  0  0  3  0  0  0  0  0  0
  187.0080  179.0750  143.0000 C   0  0  2  0  0  3  0  0  0  0  0  0
  185.8390  178.1720  143.3810 C   0  0  1  0  0  0  0  0  0  0  0  0
  185.0540  177.7420  142.2930 O   0  0  0  0  0  0  0  0  0  0  0  0
  183.8020  177.9610  142.6440 O   0  0  0  0  0  0  0  0  0  0  0  0
  183.3200  178.8670  141.6990 C   0  0  0  0  0  2  0  0  0  0  0  0
  183.6890  177.1360  138.5030 C   0  0  0  0  0  0  0  0  0  0  0  0
  183.1020  177.3230  139.6720 C   0  0  0  0  0  0  0  0  0  0  0  0
  183.6770  178.4180  140.3640 N   0  0  0  0  0  0  0  0  0  0  0  0
  184.7690  178.9720  139.5850 C   0  0  0  0  0  3  0  0  0  0  0  0
  184.8200  178.1030  138.3220 C   0  0  0  0  0  3  0  0  0  0  0  0
  183.4310  174.6890  138.3030 C   0  0  2  0  0  3  0  0  0  0  0  0
  184.0150  173.6470  137.3430 C   0  0  0  0  0  2  0  0  0  0  0  0
  182.0740  175.3210  137.9550 C   0  0  1  0  0  3  0  0  0  0  0  0
  183.3630  176.0180  137.5590 C   0  0  1  0  0  3  0  0  0  0  0  0
  182.1160  173.8760  135.7810 C   0  0  0  0  0  2  0  0  0  0  0  0
  182.9530  172.8820  136.5630 C   0  0  1  0  0  3  0  0  0  0  0  0
  181.3040  174.7190  136.7580 C   0  0  2  0  0  3  0  0  0  0  0  0
  180.2650  177.0290  136.6430 N   0  0  0  0  0  1  0  0  0  0  0  0
  180.0820  175.5290  134.8790 O   0  0  0  0  0  0  0  0  0  0  0  0
  180.5220  175.7660  136.0340 C   0  0  0  0  0  0  0  0  0  0  0  0
  183.5420  172.2110  134.3460 O   0  0  0  0  0  1  0  0  0  0  0  0
  183.5590  171.7720  135.6750 C   0  0  2  0  0  0  0  0  0  0  0  0
  182.7440  170.4670  135.7730 C   0  0  2  0  0  3  0  0  0  0  0  0
  183.1930  169.5300  134.8600 F   0  0  0  0  0  0  0  0  0  0  0  0
  181.2610  170.7100  135.5400 C   0  0  0  0  0  1  0  0  0  0  0  0
  184.9100  171.5030  136.0670 O   0  0  0  0  0  0  0  0  0  0  0  0
  186.6450  170.8260  134.3460 C   0  0  0  0  0  1  0  0  0  0  0  0
  186.5710  172.9430  135.4120 O   0  0  0  0  0  0  0  0  0  0  0  0
  186.0470  171.8060  135.3030 C   0  0  0  0  0  0  0  0  0  0  0  0
  180.7520  177.3700  140.4340 C   0  0  0  0  0  1  0  0  0  0  0  0
  181.9710  176.4990  140.2070 C   0  0  0  0  0  2  0  0  0  0  0  0
  185.1310  178.6260  144.6490 C   0  0  0  0  0  2  0  0  0  0  0  0
  185.7140  177.9340  145.8690 C   0  0  0  0  0  2  0  0  0  0  0  0
  186.6940  178.7980  146.5030 N   0  0  0  0  0  2  0  0  0  0  0  0
  186.5210  178.6600  147.9390 C   0  0  0  0  0  2  0  0  0  0  0  0
  187.5830  177.7310  148.5050 C   0  0  0  0  0  2  0  0  0  0  0  0
  188.6110  177.3670  147.4460 C   0  0  2  0  0  3  0  0  0  0  0  0
  188.7900  175.9820  147.4070 O   0  0  0  0  0  1  0  0  0  0  0  0
  189.9310  178.0390  147.7830 C   0  0  0  0  0  2  0  0  0  0  0  0
  191.0050  177.4680  146.9820 N   0  0  0  0  0  0  0  0  0  0  0  0
  192.0980  174.0290  145.1130 C   0  0  0  0  0  1  0  0  0  0  0  0
  192.4090  175.4120  145.6570 C   0  0  1  0  0  3  0  0  0  0  0  0
  191.7170  176.4760  144.8400 C   0  0  0  0  0  0  0  0  0  0  0  0
  191.9720  175.4820  147.1320 C   0  0  0  0  0  2  0  0  0  0  0  0
  190.2900  178.3840  144.9370 O   0  0  0  0  0  0  0  0  0  0  0  0
  191.8080  176.4900  143.5830 O   0  0  0  0  0  0  0  0  0  0  0  0
  190.9690  177.5170  145.5510 C   0  0  0  0  0  0  0  0  0  0  0  0
  192.0370  176.8130  147.5870 O   0  0  0  0  0  0  0  0  0  0  0  0
  187.6080  176.6110  142.4320 C   0  0  0  0  0  2  0  0  0  0  0  0
  189.0440  176.8000  141.9720 C   0  0  0  0  0  2  0  0  0  0  0  0
  191.2940  177.4550  140.3360 O   0  0  0  0  0  0  0  0  0  0  0  0
  189.1390  176.5800  140.5370 N   0  0  0  0  0  2  0  0  0  0  0  0
  190.3400  176.8280  139.8020 C   0  0  0  0  0  0  0  0  0  0  0  0
  190.4910  176.3170  138.4020 C   0  0  2  0  0  3  0  0  0  0  0  0
  193.0240  176.1560  138.3550 C   0  0  0  0  0  0  0  0  0  0  0  0
  191.8650  174.2650  137.6110 C   0  0  0  0  0  3  0  0  0  0  0  0
  194.1120  175.2580  137.9250 C   0  0  0  0  0  2  0  0  0  0  0  0
  191.7420  175.5820  138.2150 N   0  0  0  0  0  0  0  0  0  0  0  0
  193.3700  173.9870  137.5020 C   0  0  0  0  0  3  0  0  0  0  0  0
  193.2110  177.3220  138.7920 O   0  0  0  0  0  0  0  0  0  0  0  0
  190.3210  177.4260  137.3640 C   0  0  0  0  0  2  0  0  0  0  0  0
  188.9690  177.7520  137.1950 O   0  0  0  0  0  0  0  0  0  0  0  0
  188.7700  175.5210  135.5600 O   0  0  0  0  0  1  0  0  0  0  0  0
  186.8380  177.6190  135.2530 C   0  0  0  0  0  1  0  0  0  0  0  0
  189.4640  177.8630  134.6310 O   0  0  0  0  0  0  0  0  0  0  0  0
  188.5600  177.2000  135.6450 P   0  0  1  0  0  0  0  0  0  0  0  0
  2 51  1  6  0  0  0
  3  1  1  6  0  0  0
  3  4  1  0  0  0  0
  3  2  1  0  0  0  0
  4  2  1  0  0  0  0
  4 34  1  1  0  0  0
  5  6  1  0  0  0  0
  5  4  1  0  0  0  0
  7  6  1  0  0  0  0
  8  9  2  0  0  0  0
  9 33  1  0  0  0  0
  9 10  1  0  0  0  0
 10  7  1  0  0  0  0
 11 10  1  0  0  0  0
 12  8  1  0  0  0  0
 12 11  2  0  0  0  0
 13 14  1  6  0  0  0
 15 13  1  0  0  0  0
 16 15  1  0  0  0  0
 16 13  1  0  0  0  0
 16  8  1  0  0  0  0
 17 18  1  0  0  0  0
 17 19  1  0  0  0  0
 18 14  1  0  0  0  0
 19 15  1  0  0  0  0
 21 22  2  0  0  0  0
 22 20  1  0  0  0  0
 22 19  1  0  0  0  0
 23 24  1  0  0  0  0
 24 25  1  0  0  0  0
 24 28  1  0  0  0  0
 24 18  1  0  0  0  0
 26 25  1  0  0  0  0
 27 25  1  0  0  0  0
 29 31  1  0  0  0  0
 31 30  2  0  0  0  0
 31 28  1  0  0  0  0
 33 32  1  0  0  0  0
 34 35  1  0  0  0  0
 35 36  1  0  0  0  0
 36 37  1  0  0  0  0
 37 38  1  0  0  0  0
 39 41  1  0  0  0  0
 39 38  1  0  0  0  0
 40 39  1  0  0  0  0
 42 50  1  0  0  0  0
 42 41  1  0  0  0  0
 43 44  1  0  0  0  0
 44 46  1  0  0  0  0
 45 49  1  0  0  0  0
 45 44  1  0  0  0  0
 46 50  1  0  0  0  0
 47 49  2  0  0  0  0
 48 45  2  0  0  0  0
 49 42  1  0  0  0  0
 52 51  1  0  0  0  0
 54 52  1  0  0  0  0
 55 53  2  0  0  0  0
 55 54  1  0  0  0  0
 56 55  1  0  0  0  0
 57 62  2  0  0  0  0
 58 60  1  0  0  0  0
 59 57  1  0  0  0  0
 60 57  1  0  0  0  0
 60 56  1  0  0  0  0
 61 58  2  0  0  0  0
 61 59  1  0  0  0  0
 63 56  1  0  0  0  0
 64 63  1  0  0  0  0
 65 68  1  0  0  0  0
 66 68  1  0  0  0  0
 67 68  2  0  0  0  0
 68 64  1  0  0  0  0
M  END
>  <MODEL>
2

>  <REMARK>
 VINA RESULT:      -4.6      1.269      2.338
  Name = 
  27 active torsions:
  status: ('A' for Active; 'I' for Inactive)
    1  A    between atoms: C_5  and  C_20
    2  A    between atoms: C_5  and  N_47
    3  A    between atoms: C_6  and  N_7
    4  A    between atoms: C_6  and  C_23
    5  A    between atoms: O_10  and  O_52
    6  A    between atoms: O_10  and  C_60
    7  A    between atoms: C_11  and  C_56
    8  A    between atoms: C_16  and  C_24
    9  A    between atoms: C_16  and  O_44
   10  A    between atoms: C_18  and  C_29
   11  A    between atoms: C_20  and  C_35
   12  A    between atoms: C_22  and  N_37
   13  A    between atoms: C_22  and  C_40
   14  A    between atoms: C_23  and  C_40
   15  A    between atoms: C_24  and  N_36
   16  A    between atoms: C_24  and  C_54
   17  A    between atoms: C_31  and  C_56
   18  A    between atoms: C_32  and  C_33
   19  A    between atoms: C_34  and  N_37
   20  A    between atoms: C_34  and  C_57
   21  A    between atoms: O_42  and  C_56
   22  A    between atoms: O_42  and  C_62
   23  A    between atoms: O_44  and  P_65
   24  A    between atoms: N_46  and  C_60
   25  A    between atoms: C_50  and  C_67
   26  A    between atoms: O_52  and  C_63
   27  A    between atoms: C_57  and  C_63
                            x       y       z     vdW  Elec       q    Type
                         _______ _______ _______ _____ _____    ______ ____

>  <TORSDO>
F 27

$$$$
=
 OpenBabel10232410053D

 68 73  0  0  1  0  0  0  0  0999 V2000
  192.0910  176.7490  138.8800 C   0  0  0  0  0  1  0  0  0  0  0  0
  189.5780  176.1560  138.7310 C   0  0  1  0  0  3  0  0  0  0  0  0
  190.6480  177.2350  139.0070 C   0  0  2  0  0  3  0  0  0  0  0  0
  189.8820  177.2290  137.6890 C   0  0  1  0  0  0  0  0  0  0  0  0
  190.6560  176.8810  136.5650 O   0  0  0  0  0  0  0  0  0  0  0  0
  189.8410  176.9480  135.5310 O   0  0  0  0  0  0  0  0  0  0  0  0
  190.6020  176.5080  134.4470 C   0  0  0  0  0  2  0  0  0  0  0  0
  193.6570  175.0120  135.7810 C   0  0  0  0  0  0  0  0  0  0  0  0
  192.3900  174.9530  135.4100 C   0  0  0  0  0  0  0  0  0  0  0  0
  191.9500  176.1960  134.8910 N   0  0  0  0  0  0  0  0  0  0  0  0
  193.0260  177.1680  134.9680 C   0  0  0  0  0  3  0  0  0  0  0  0
  194.1950  176.3990  135.5940 C   0  0  0  0  0  3  0  0  0  0  0  0
  195.0170  172.9940  135.3620 C   0  0  2  0  0  3  0  0  0  0  0  0
  194.9250  171.5460  135.8540 C   0  0  0  0  0  2  0  0  0  0  0  0
  195.8920  173.9790  136.1540 C   0  0  1  0  0  3  0  0  0  0  0  0
  194.4030  173.8880  136.4340 C   0  0  1  0  0  3  0  0  0  0  0  0
  196.3820  172.0060  137.7930 C   0  0  0  0  0  2  0  0  0  0  0  0
  196.1640  171.0840  136.6090 C   0  0  1  0  0  3  0  0  0  0  0  0
  196.7690  173.3890  137.2820 C   0  0  2  0  0  3  0  0  0  0  0  0
  196.1640  174.1840  139.6120 N   0  0  0  0  0  1  0  0  0  0  0  0
  197.7090  175.3250  138.3060 O   0  0  0  0  0  0  0  0  0  0  0  0
  196.9170  174.3520  138.4140 C   0  0  0  0  0  0  0  0  0  0  0  0
  195.7100  169.5170  138.3550 O   0  0  0  0  0  1  0  0  0  0  0  0
  196.0900  169.5940  137.0100 C   0  0  2  0  0  0  0  0  0  0  0  0
  197.4540  168.8980  136.8420 C   0  0  2  0  0  3  0  0  0  0  0  0
  198.2740  169.1400  137.9290 F   0  0  0  0  0  0  0  0  0  0  0  0
  198.1670  169.3530  135.5770 C   0  0  0  0  0  1  0  0  0  0  0  0
  195.1210  168.9100  136.2070 O   0  0  0  0  0  0  0  0  0  0  0  0
  192.7180  168.4130  135.5680 C   0  0  0  0  0  1  0  0  0  0  0  0
  193.4890  168.6530  137.7980 O   0  0  0  0  0  0  0  0  0  0  0  0
  193.7890  168.6700  136.5780 C   0  0  0  0  0  0  0  0  0  0  0  0
  191.7870  172.8050  134.3480 C   0  0  0  0  0  1  0  0  0  0  0  0
  191.5200  173.7380  135.5120 C   0  0  0  0  0  2  0  0  0  0  0  0
  188.9090  178.3940  137.5650 C   0  0  0  0  0  2  0  0  0  0  0  0
  187.4760  177.9180  137.7210 C   0  0  0  0  0  2  0  0  0  0  0  0
  186.7520  178.8180  138.6020 N   0  0  0  0  0  2  0  0  0  0  0  0
  187.4860  178.8740  139.8540 C   0  0  0  0  0  2  0  0  0  0  0  0
  186.5180  178.8720  141.0270 C   0  0  0  0  0  2  0  0  0  0  0  0
  186.9590  177.8870  142.0970 C   0  0  2  0  0  3  0  0  0  0  0  0
  186.0000  177.8190  143.1100 O   0  0  0  0  0  1  0  0  0  0  0  0
  188.2830  178.3470  142.6820 C   0  0  0  0  0  2  0  0  0  0  0  0
  188.7580  177.3870  143.6690 N   0  0  0  0  0  0  0  0  0  0  0  0
  191.8420  176.7180  146.2280 C   0  0  0  0  0  1  0  0  0  0  0  0
  190.6090  176.2580  145.4730 C   0  0  1  0  0  3  0  0  0  0  0  0
  189.3690  176.9280  146.0130 C   0  0  0  0  0  0  0  0  0  0  0  0
  190.7920  176.5690  143.9750 C   0  0  0  0  0  2  0  0  0  0  0  0
  187.4300  178.1890  145.4380 O   0  0  0  0  0  0  0  0  0  0  0  0
  189.1240  176.9360  147.2490 O   0  0  0  0  0  0  0  0  0  0  0  0
  188.4370  177.5330  145.0570 C   0  0  0  0  0  0  0  0  0  0  0  0
  189.5770  176.3650  143.2930 O   0  0  0  0  0  0  0  0  0  0  0  0
  190.1230  174.7820  138.3320 C   0  0  0  0  0  2  0  0  0  0  0  0
  189.2840  174.1970  137.2070 C   0  0  0  0  0  2  0  0  0  0  0  0
  187.1750  175.4500  135.7410 O   0  0  0  0  0  0  0  0  0  0  0  0
  187.8780  174.2000  137.5830 N   0  0  0  0  0  2  0  0  0  0  0  0
  186.8630  174.7500  136.7420 C   0  0  0  0  0  0  0  0  0  0  0  0
  185.4160  174.4740  137.0200 C   0  0  2  0  0  3  0  0  0  0  0  0
  185.0780  172.6370  135.3010 C   0  0  0  0  0  0  0  0  0  0  0  0
  184.2980  172.1760  137.4570 C   0  0  0  0  0  3  0  0  0  0  0  0
  184.4520  171.3110  135.1420 C   0  0  0  0  0  2  0  0  0  0  0  0
  185.0280  173.1190  136.6260 N   0  0  0  0  0  0  0  0  0  0  0  0
  183.9990  170.9650  136.5630 C   0  0  0  0  0  3  0  0  0  0  0  0
  185.5960  173.2840  134.3530 O   0  0  0  0  0  0  0  0  0  0  0  0
  184.5010  175.5310  136.4030 C   0  0  0  0  0  2  0  0  0  0  0  0
  184.0340  176.4210  137.3790 O   0  0  0  0  0  0  0  0  0  0  0  0
  181.9090  177.6640  136.1020 O   0  0  0  0  0  0  0  0  0  0  0  0
  181.7450  174.8440  136.6020 C   0  0  0  0  0  1  0  0  0  0  0  0
  181.7130  176.7400  138.5390 O   0  0  0  0  0  1  0  0  0  0  0  0
  182.3490  176.4490  137.1980 P   0  0  1  0  0  0  0  0  0  0  0  0
  2 51  1  6  0  0  0
  2  3  1  0  0  0  0
  3  1  1  6  0  0  0
  4 34  1  6  0  0  0
  4  2  1  0  0  0  0
  4  3  1  0  0  0  0
  5  4  1  0  0  0  0
  6  5  1  0  0  0  0
  7 10  1  0  0  0  0
  7  6  1  0  0  0  0
  8 16  1  0  0  0  0
  9 33  1  0  0  0  0
  9  8  2  0  0  0  0
 10 11  1  0  0  0  0
 10  9  1  0  0  0  0
 11 12  2  0  0  0  0
 12  8  1  0  0  0  0
 13 14  1  1  0  0  0
 13 15  1  0  0  0  0
 13 16  1  0  0  0  0
 14 18  1  0  0  0  0
 15 16  1  0  0  0  0
 15 19  1  0  0  0  0
 18 24  1  0  0  0  0
 18 17  1  0  0  0  0
 19 17  1  0  0  0  0
 19 22  1  0  0  0  0
 21 22  2  0  0  0  0
 22 20  1  0  0  0  0
 24 23  1  0  0  0  0
 25 24  1  0  0  0  0
 25 26  1  0  0  0  0
 27 25  1  0  0  0  0
 28 31  1  0  0  0  0
 28 24  1  0  0  0  0
 29 31  1  0  0  0  0
 31 30  2  0  0  0  0
 32 33  1  0  0  0  0
 34 35  1  0  0  0  0
 35 36  1  0  0  0  0
 36 37  1  0  0  0  0
 37 38  1  0  0  0  0
 38 39  1  0  0  0  0
 39 41  1  0  0  0  0
 39 40  1  0  0  0  0
 41 42  1  0  0  0  0
 42 49  1  0  0  0  0
 44 45  1  0  0  0  0
 44 43  1  0  0  0  0
 45 48  2  0  0  0  0
 46 44  1  0  0  0  0
 49 47  2  0  0  0  0
 49 45  1  0  0  0  0
 50 42  1  0  0  0  0
 50 46  1  0  0  0  0
 52 54  1  0  0  0  0
 52 51  1  0  0  0  0
 53 55  2  0  0  0  0
 55 56  1  0  0  0  0
 55 54  1  0  0  0  0
 57 60  1  0  0  0  0
 59 57  1  0  0  0  0
 59 61  1  0  0  0  0
 60 56  1  0  0  0  0
 60 58  1  0  0  0  0
 61 58  2  0  0  0  0
 62 57  2  0  0  0  0
 63 56  1  0  0  0  0
 63 64  1  0  0  0  0
 65 68  2  0  0  0  0
 66 68  1  0  0  0  0
 68 64  1  0  0  0  0
 68 67  1  0  0  0  0
M  END
>  <MODEL>
3

>  <REMARK>
 VINA RESULT:      -4.4      3.880      9.526
  Name = 
  27 active torsions:
  status: ('A' for Active; 'I' for Inactive)
    1  A    between atoms: C_5  and  C_20
    2  A    between atoms: C_5  and  N_47
    3  A    between atoms: C_6  and  N_7
    4  A    between atoms: C_6  and  C_23
    5  A    between atoms: O_10  and  O_52
    6  A    between atoms: O_10  and  C_60
    7  A    between atoms: C_11  and  C_56
    8  A    between atoms: C_16  and  C_24
    9  A    between atoms: C_16  and  O_44
   10  A    between atoms: C_18  and  C_29
   11  A    between atoms: C_20  and  C_35
   12  A    between atoms: C_22  and  N_37
   13  A    between atoms: C_22  and  C_40
   14  A    between atoms: C_23  and  C_40
   15  A    between atoms: C_24  and  N_36
   16  A    between atoms: C_24  and  C_54
   17  A    between atoms: C_31  and  C_56
   18  A    between atoms: C_32  and  C_33
   19  A    between atoms: C_34  and  N_37
   20  A    between atoms: C_34  and  C_57
   21  A    between atoms: O_42  and  C_56
   22  A    between atoms: O_42  and  C_62
   23  A    between atoms: O_44  and  P_65
   24  A    between atoms: N_46  and  C_60
   25  A    between atoms: C_50  and  C_67
   26  A    between atoms: O_52  and  C_63
   27  A    between atoms: C_57  and  C_63
                            x       y       z     vdW  Elec       q    Type
                         _______ _______ _______ _____ _____    ______ ____

>  <TORSDO>
F 27

$$$$
=
 OpenBabel10232410053D

 68 73  0  0  1  0  0  0  0  0999 V2000
  193.0120  176.8680  138.6690 C   0  0  0  0  0  1  0  0  0  0  0  0
  190.5970  175.9490  138.7680 C   0  0  1  0  0  3  0  0  0  0  0  0
  191.5290  177.1760  138.8710 C   0  0  2  0  0  3  0  0  0  0  0  0
  190.6830  176.9540  137.6220 C   0  0  1  0  0  0  0  0  0  0  0  0
  191.4180  176.6080  136.4710 O   0  0  0  0  0  0  0  0  0  0  0  0
  190.5510  176.5940  135.4790 O   0  0  0  0  0  0  0  0  0  0  0  0
  191.3050  176.2760  134.3490 C   0  0  0  0  0  2  0  0  0  0  0  0
  194.3500  174.6610  135.5620 C   0  0  0  0  0  0  0  0  0  0  0  0
  193.0730  174.6470  135.2240 C   0  0  0  0  0  0  0  0  0  0  0  0
  192.6550  175.9150  134.7490 N   0  0  0  0  0  0  0  0  0  0  0  0
  193.7590  176.8540  134.8220 C   0  0  0  0  0  3  0  0  0  0  0  0
  194.9230  176.0370  135.3970 C   0  0  0  0  0  3  0  0  0  0  0  0
  195.7860  172.7140  135.0650 C   0  0  2  0  0  3  0  0  0  0  0  0
  195.7000  171.2270  135.4230 C   0  0  0  0  0  2  0  0  0  0  0  0
  196.5820  173.6440  135.9940 C   0  0  1  0  0  3  0  0  0  0  0  0
  195.0810  173.4990  136.1650 C   0  0  1  0  0  3  0  0  0  0  0  0
  197.0160  171.5470  137.4880 C   0  0  0  0  0  2  0  0  0  0  0  0
  196.8990  170.7270  136.2180 C   0  0  1  0  0  3  0  0  0  0  0  0
  197.3990  172.9760  137.1240 C   0  0  2  0  0  3  0  0  0  0  0  0
  198.6660  174.4660  138.7380 N   0  0  0  0  0  1  0  0  0  0  0  0
  196.4060  174.0130  139.0260 O   0  0  0  0  0  0  0  0  0  0  0  0
  197.4480  173.8410  138.3410 C   0  0  0  0  0  0  0  0  0  0  0  0
  197.1950  168.5370  135.3080 O   0  0  0  0  0  1  0  0  0  0  0  0
  196.8370  169.2060  136.4840 C   0  0  2  0  0  0  0  0  0  0  0  0
  195.4170  168.7640  136.8900 C   0  0  2  0  0  3  0  0  0  0  0  0
  195.4490  167.9550  138.0120 F   0  0  0  0  0  0  0  0  0  0  0  0
  194.7170  168.0170  135.7650 C   0  0  0  0  0  1  0  0  0  0  0  0
  197.7490  168.8460  137.5280 O   0  0  0  0  0  0  0  0  0  0  0  0
  199.9540  168.7900  136.2790 C   0  0  0  0  0  1  0  0  0  0  0  0
  199.7040  169.5110  138.5250 O   0  0  0  0  0  0  0  0  0  0  0  0
  199.1350  169.0600  137.4990 C   0  0  0  0  0  0  0  0  0  0  0  0
  192.6360  172.3720  134.3610 C   0  0  0  0  0  1  0  0  0  0  0  0
  192.1720  173.4540  135.3170 C   0  0  0  0  0  2  0  0  0  0  0  0
  189.5570  177.9690  137.4820 C   0  0  0  0  0  2  0  0  0  0  0  0
  188.2290  177.3630  137.9000 C   0  0  0  0  0  2  0  0  0  0  0  0
  187.5630  178.2410  138.8460 N   0  0  0  0  0  2  0  0  0  0  0  0
  188.4540  178.4000  139.9820 C   0  0  0  0  0  2  0  0  0  0  0  0
  187.6450  178.5700  141.2580 C   0  0  0  0  0  2  0  0  0  0  0  0
  188.2050  177.7090  142.3790 C   0  0  2  0  0  3  0  0  0  0  0  0
  187.7860  178.2010  143.6170 O   0  0  0  0  0  1  0  0  0  0  0  0
  189.7220  177.7290  142.3110 C   0  0  0  0  0  2  0  0  0  0  0  0
  190.2850  177.7510  143.6540 N   0  0  0  0  0  0  0  0  0  0  0  0
  189.6100  176.3560  147.4100 C   0  0  0  0  0  1  0  0  0  0  0  0
  190.3240  177.2730  146.4330 C   0  0  1  0  0  3  0  0  0  0  0  0
  191.2490  176.4850  145.5380 C   0  0  0  0  0  0  0  0  0  0  0  0
  189.2740  178.0360  145.6030 C   0  0  0  0  0  2  0  0  0  0  0  0
  191.8630  176.0470  143.2770 O   0  0  0  0  0  0  0  0  0  0  0  0
  192.0740  175.6650  146.0210 O   0  0  0  0  0  0  0  0  0  0  0  0
  191.1890  176.7310  144.0940 C   0  0  0  0  0  0  0  0  0  0  0  0
  189.9050  178.7130  144.5420 O   0  0  0  0  0  0  0  0  0  0  0  0
  191.2920  174.6250  138.4390 C   0  0  0  0  0  2  0  0  0  0  0  0
  190.5530  173.9160  137.3150 C   0  0  0  0  0  2  0  0  0  0  0  0
  188.6890  174.0860  135.1560 O   0  0  0  0  0  0  0  0  0  0  0  0
  189.1200  174.1300  137.4500 N   0  0  0  0  0  2  0  0  0  0  0  0
  188.2330  174.0910  136.3310 C   0  0  0  0  0  0  0  0  0  0  0  0
  186.7500  174.0210  136.5420 C   0  0  2  0  0  3  0  0  0  0  0  0
  185.0250  172.1600  136.4830 C   0  0  0  0  0  0  0  0  0  0  0  0
  186.8070  171.9510  134.9820 C   0  0  0  0  0  3  0  0  0  0  0  0
  184.7600  170.8570  135.8460 C   0  0  0  0  0  2  0  0  0  0  0  0
  186.1680  172.8070  135.9680 N   0  0  0  0  0  0  0  0  0  0  0  0
  185.8810  170.7390  134.8090 C   0  0  0  0  0  3  0  0  0  0  0  0
  184.3140  172.6470  137.4010 O   0  0  0  0  0  0  0  0  0  0  0  0
  186.0400  175.2810  136.0470 C   0  0  0  0  0  2  0  0  0  0  0  0
  184.8830  175.5310  136.7970 O   0  0  0  0  0  0  0  0  0  0  0  0
  185.3070  177.6330  135.0380 O   0  0  0  0  0  0  0  0  0  0  0  0
  182.6400  176.6200  135.3420 C   0  0  0  0  0  1  0  0  0  0  0  0
  183.9980  177.9430  137.2790 O   0  0  0  0  0  1  0  0  0  0  0  0
  184.2280  176.9570  136.1550 P   0  0  1  0  0  0  0  0  0  0  0  0
  2 51  1  6  0  0  0
  2  3  1  0  0  0  0
  3  1  1  6  0  0  0
  4 34  1  6  0  0  0
  4  2  1  0  0  0  0
  4  3  1  0  0  0  0
  5  4  1  0  0  0  0
  6  5  1  0  0  0  0
  7 10  1  0  0  0  0
  7  6  1  0  0  0  0
  8 16  1  0  0  0  0
  9 33  1  0  0  0  0
  9  8  2  0  0  0  0
 10 11  1  0  0  0  0
 10  9  1  0  0  0  0
 11 12  2  0  0  0  0
 12  8  1  0  0  0  0
 13 14  1  1  0  0  0
 13 15  1  0  0  0  0
 13 16  1  0  0  0  0
 14 18  1  0  0  0  0
 15 16  1  0  0  0  0
 15 19  1  0  0  0  0
 18 24  1  0  0  0  0
 18 17  1  0  0  0  0
 19 17  1  0  0  0  0
 19 22  1  0  0  0  0
 22 20  1  0  0  0  0
 22 21  2  0  0  0  0
 23 24  1  0  0  0  0
 24 25  1  0  0  0  0
 24 28  1  0  0  0  0
 25 26  1  0  0  0  0
 27 25  1  0  0  0  0
 29 31  1  0  0  0  0
 31 28  1  0  0  0  0
 31 30  2  0  0  0  0
 32 33  1  0  0  0  0
 34 35  1  0  0  0  0
 35 36  1  0  0  0  0
 36 37  1  0  0  0  0
 37 38  1  0  0  0  0
 38 39  1  0  0  0  0
 39 40  1  0  0  0  0
 41 39  1  0  0  0  0
 41 42  1  0  0  0  0
 42 49  1  0  0  0  0
 42 50  1  0  0  0  0
 44 43  1  0  0  0  0
 45 48  2  0  0  0  0
 45 44  1  0  0  0  0
 46 44  1  0  0  0  0
 47 49  2  0  0  0  0
 49 45  1  0  0  0  0
 50 46  1  0  0  0  0
 52 54  1  0  0  0  0
 52 51  1  0  0  0  0
 53 55  2  0  0  0  0
 55 56  1  0  0  0  0
 55 54  1  0  0  0  0
 57 62  2  0  0  0  0
 58 60  1  0  0  0  0
 59 57  1  0  0  0  0
 60 57  1  0  0  0  0
 60 56  1  0  0  0  0
 61 58  2  0  0  0  0
 61 59  1  0  0  0  0
 63 56  1  0  0  0  0
 63 64  1  0  0  0  0
 65 68  2  0  0  0  0
 66 68  1  0  0  0  0
 68 64  1  0  0  0  0
 68 67  1  0  0  0  0
M  END
>  <MODEL>
4

>  <REMARK>
 VINA RESULT:      -4.3      4.019      9.860
  Name = 
  27 active torsions:
  status: ('A' for Active; 'I' for Inactive)
    1  A    between atoms: C_5  and  C_20
    2  A    between atoms: C_5  and  N_47
    3  A    between atoms: C_6  and  N_7
    4  A    between atoms: C_6  and  C_23
    5  A    between atoms: O_10  and  O_52
    6  A    between atoms: O_10  and  C_60
    7  A    between atoms: C_11  and  C_56
    8  A    between atoms: C_16  and  C_24
    9  A    between atoms: C_16  and  O_44
   10  A    between atoms: C_18  and  C_29
   11  A    between atoms: C_20  and  C_35
   12  A    between atoms: C_22  and  N_37
   13  A    between atoms: C_22  and  C_40
   14  A    between atoms: C_23  and  C_40
   15  A    between atoms: C_24  and  N_36
   16  A    between atoms: C_24  and  C_54
   17  A    between atoms: C_31  and  C_56
   18  A    between atoms: C_32  and  C_33
   19  A    between atoms: C_34  and  N_37
   20  A    between atoms: C_34  and  C_57
   21  A    between atoms: O_42  and  C_56
   22  A    between atoms: O_42  and  C_62
   23  A    between atoms: O_44  and  P_65
   24  A    between atoms: N_46  and  C_60
   25  A    between atoms: C_50  and  C_67
   26  A    between atoms: O_52  and  C_63
   27  A    between atoms: C_57  and  C_63
                            x       y       z     vdW  Elec       q    Type
                         _______ _______ _______ _____ _____    ______ ____

>  <TORSDO>
F 27

$$$$
=
 OpenBabel10232410053D

 68 73  0  0  1  0  0  0  0  0999 V2000
  190.9380  175.6290  141.7460 C   0  0  0  0  0  1  0  0  0  0  0  0
  190.6710  177.7160  140.2420 C   0  0  1  0  0  3  0  0  0  0  0  0
  191.6090  176.6230  140.7990 C   0  0  2  0  0  3  0  0  0  0  0  0
  191.0990  176.5420  139.3650 C   0  0  1  0  0  0  0  0  0  0  0  0
  190.1790  175.5010  139.1300 O   0  0  0  0  0  0  0  0  0  0  0  0
  189.9070  175.5440  137.8410 O   0  0  0  0  0  0  0  0  0  0  0  0
  189.9760  174.2170  137.4160 C   0  0  0  0  0  2  0  0  0  0  0  0
  186.6020  173.9400  136.0420 C   0  0  0  0  0  0  0  0  0  0  0  0
  187.5160  174.5310  136.7910 C   0  0  0  0  0  0  0  0  0  0  0  0
  188.7670  173.8740  136.6860 N   0  0  0  0  0  0  0  0  0  0  0  0
  188.6440  172.7200  135.8140 C   0  0  0  0  0  3  0  0  0  0  0  0
  187.1730  172.7220  135.3790 C   0  0  0  0  0  3  0  0  0  0  0  0
  184.9770  175.4240  134.9220 C   0  0  2  0  0  3  0  0  0  0  0  0
  183.9320  176.4160  135.4410 C   0  0  0  0  0  2  0  0  0  0  0  0
  184.5370  173.9760  134.6500 C   0  0  1  0  0  3  0  0  0  0  0  0
  185.1600  174.3460  135.9850 C   0  0  1  0  0  3  0  0  0  0  0  0
  182.1690  174.6880  135.4900 C   0  0  0  0  0  2  0  0  0  0  0  0
  182.5120  176.0830  135.0030 C   0  0  1  0  0  3  0  0  0  0  0  0
  183.0240  173.6740  134.7370 C   0  0  2  0  0  3  0  0  0  0  0  0
  182.3510  172.0740  136.5860 N   0  0  0  0  0  1  0  0  0  0  0  0
  182.9500  171.3060  134.4770 O   0  0  0  0  0  0  0  0  0  0  0  0
  182.7760  172.2900  135.2430 C   0  0  0  0  0  0  0  0  0  0  0  0
  180.2620  176.5140  135.6820 O   0  0  0  0  0  1  0  0  0  0  0  0
  181.4890  177.1490  135.4540 C   0  0  2  0  0  0  0  0  0  0  0  0
  181.2910  178.2300  134.3750 C   0  0  2  0  0  3  0  0  0  0  0  0
  182.3590  179.1090  134.3470 F   0  0  0  0  0  0  0  0  0  0  0  0
  180.0100  179.0200  134.5970 C   0  0  0  0  0  1  0  0  0  0  0  0
  181.9270  177.7780  136.6640 O   0  0  0  0  0  0  0  0  0  0  0  0
  181.5880  176.5750  138.8700 C   0  0  0  0  0  1  0  0  0  0  0  0
  180.4360  178.5460  138.2290 O   0  0  0  0  0  0  0  0  0  0  0  0
  181.2830  177.6750  137.9060 C   0  0  0  0  0  0  0  0  0  0  0  0
  187.5210  177.0020  136.8320 C   0  0  0  0  0  1  0  0  0  0  0  0
  187.2790  175.7430  137.6400 C   0  0  0  0  0  2  0  0  0  0  0  0
  192.1920  176.7870  138.3340 C   0  0  0  0  0  2  0  0  0  0  0  0
  193.0220  175.5340  138.1200 C   0  0  0  0  0  2  0  0  0  0  0  0
  194.0080  175.7680  137.0800 N   0  0  0  0  0  2  0  0  0  0  0  0
  195.1030  174.8420  137.3120 C   0  0  0  0  0  2  0  0  0  0  0  0
  196.3620  175.3400  136.6200 C   0  0  0  0  0  2  0  0  0  0  0  0
  197.3240  174.1950  136.3460 C   0  0  2  0  0  3  0  0  0  0  0  0
  198.5970  174.6960  136.0630 O   0  0  0  0  0  1  0  0  0  0  0  0
  196.8190  173.3950  135.1580 C   0  0  0  0  0  2  0  0  0  0  0  0
  197.2340  172.0030  135.2750 N   0  0  0  0  0  0  0  0  0  0  0  0
  198.8600  169.3810  137.9190 C   0  0  0  0  0  1  0  0  0  0  0  0
  198.4480  169.7790  136.5130 C   0  0  1  0  0  3  0  0  0  0  0  0
  196.9450  169.8220  136.3880 C   0  0  0  0  0  0  0  0  0  0  0  0
  199.0660  171.1500  136.1780 C   0  0  0  0  0  2  0  0  0  0  0  0
  195.0850  171.1510  135.7110 O   0  0  0  0  0  0  0  0  0  0  0  0
  196.2340  168.8560  136.7730 O   0  0  0  0  0  0  0  0  0  0  0  0
  196.3350  171.0020  135.7670 C   0  0  0  0  0  0  0  0  0  0  0  0
  198.5150  171.6430  134.9800 O   0  0  0  0  0  0  0  0  0  0  0  0
  189.2090  177.6120  140.6860 C   0  0  0  0  0  2  0  0  0  0  0  0
  188.6360  179.0010  140.9140 C   0  0  0  0  0  2  0  0  0  0  0  0
  188.1190  176.7450  142.5900 O   0  0  0  0  0  0  0  0  0  0  0  0
  187.8520  179.0200  142.1400 N   0  0  0  0  0  2  0  0  0  0  0  0
  187.7310  177.8760  142.9870 C   0  0  0  0  0  0  0  0  0  0  0  0
  187.1700  178.0130  144.3710 C   0  0  2  0  0  3  0  0  0  0  0  0
  187.9670  177.8190  146.7730 C   0  0  0  0  0  0  0  0  0  0  0  0
  189.4360  177.0140  145.1400 C   0  0  0  0  0  3  0  0  0  0  0  0
  189.1450  177.4180  147.5660 C   0  0  0  0  0  2  0  0  0  0  0  0
  188.1110  177.5560  145.3950 N   0  0  0  0  0  0  0  0  0  0  0  0
  190.0870  176.8230  146.5160 C   0  0  0  0  0  3  0  0  0  0  0  0
  186.9390  178.3530  147.2680 O   0  0  0  0  0  0  0  0  0  0  0  0
  185.8070  177.3370  144.5080 C   0  0  0  0  0  2  0  0  0  0  0  0
  184.9080  177.8210  143.5490 O   0  0  0  0  0  0  0  0  0  0  0  0
  184.5740  180.5240  144.0770 O   0  0  0  0  0  0  0  0  0  0  0  0
  182.2360  178.8860  143.7900 C   0  0  0  0  0  1  0  0  0  0  0  0
  183.9960  178.6840  145.8420 O   0  0  0  0  0  1  0  0  0  0  0  0
  183.9590  178.9700  144.3570 P   0  0  1  0  0  0  0  0  0  0  0  0
  2 51  1  1  0  0  0
  2  3  1  0  0  0  0
  3  1  1  1  0  0  0
  4 34  1  6  0  0  0
  4  2  1  0  0  0  0
  4  3  1  0  0  0  0
  5  4  1  0  0  0  0
  6  5  1  0  0  0  0
  7  6  1  0  0  0  0
  8  9  2  0  0  0  0
  9 33  1  0  0  0  0
 10  9  1  0  0  0  0
 10  7  1  0  0  0  0
 11 10  1  0  0  0  0
 12 11  2  0  0  0  0
 12  8  1  0  0  0  0
 13 14  1  1  0  0  0
 13 16  1  0  0  0  0
 15 19  1  0  0  0  0
 15 13  1  0  0  0  0
 15 16  1  0  0  0  0
 16  8  1  0  0  0  0
 18 14  1  0  0  0  0
 18 24  1  0  0  0  0
 18 17  1  0  0  0  0
 19 22  1  0  0  0  0
 19 17  1  0  0  0  0
 21 22  2  0  0  0  0
 22 20  1  0  0  0  0
 24 23  1  0  0  0  0
 24 28  1  0  0  0  0
 25 27  1  0  0  0  0
 25 24  1  0  0  0  0
 26 25  1  0  0  0  0
 28 31  1  0  0  0  0
 31 30  2  0  0  0  0
 31 29  1  0  0  0  0
 32 33  1  0  0  0  0
 35 34  1  0  0  0  0
 36 37  1  0  0  0  0
 36 35  1  0  0  0  0
 38 37  1  0  0  0  0
 39 38  1  0  0  0  0
 40 39  1  0  0  0  0
 41 42  1  0  0  0  0
 41 39  1  0  0  0  0
 42 49  1  0  0  0  0
 44 43  1  0  0  0  0
 45 44  1  0  0  0  0
 45 48  2  0  0  0  0
 46 44  1  0  0  0  0
 47 49  2  0  0  0  0
 49 45  1  0  0  0  0
 50 42  1  0  0  0  0
 50 46  1  0  0  0  0
 51 52  1  0  0  0  0
 52 54  1  0  0  0  0
 53 55  2  0  0  0  0
 54 55  1  0  0  0  0
 55 56  1  0  0  0  0
 56 63  1  0  0  0  0
 56 60  1  0  0  0  0
 57 62  2  0  0  0  0
 57 59  1  0  0  0  0
 58 60  1  0  0  0  0
 58 61  2  0  0  0  0
 60 57  1  0  0  0  0
 61 59  1  0  0  0  0
 64 68  1  0  0  0  0
 64 63  1  0  0  0  0
 65 68  2  0  0  0  0
 66 68  1  0  0  0  0
 68 67  1  0  0  0  0
M  END
>  <MODEL>
5

>  <REMARK>
 VINA RESULT:      -4.2      3.771      9.405
  Name = 
  27 active torsions:
  status: ('A' for Active; 'I' for Inactive)
    1  A    between atoms: C_5  and  C_20
    2  A    between atoms: C_5  and  N_47
    3  A    between atoms: C_6  and  N_7
    4  A    between atoms: C_6  and  C_23
    5  A    between atoms: O_10  and  O_52
    6  A    between atoms: O_10  and  C_60
    7  A    between atoms: C_11  and  C_56
    8  A    between atoms: C_16  and  C_24
    9  A    between atoms: C_16  and  O_44
   10  A    between atoms: C_18  and  C_29
   11  A    between atoms: C_20  and  C_35
   12  A    between atoms: C_22  and  N_37
   13  A    between atoms: C_22  and  C_40
   14  A    between atoms: C_23  and  C_40
   15  A    between atoms: C_24  and  N_36
   16  A    between atoms: C_24  and  C_54
   17  A    between atoms: C_31  and  C_56
   18  A    between atoms: C_32  and  C_33
   19  A    between atoms: C_34  and  N_37
   20  A    between atoms: C_34  and  C_57
   21  A    between atoms: O_42  and  C_56
   22  A    between atoms: O_42  and  C_62
   23  A    between atoms: O_44  and  P_65
   24  A    between atoms: N_46  and  C_60
   25  A    between atoms: C_50  and  C_67
   26  A    between atoms: O_52  and  C_63
   27  A    between atoms: C_57  and  C_63
                            x       y       z     vdW  Elec       q    Type
                         _______ _______ _______ _____ _____    ______ ____

>  <TORSDO>
F 27

$$$$
=
 OpenBabel10232410053D

 68 73  0  0  1  0  0  0  0  0999 V2000
  182.1390  177.9380  143.9100 C   0  0  0  0  0  1  0  0  0  0  0  0
  183.6660  179.9320  143.2950 C   0  0  1  0  0  3  0  0  0  0  0  0
  183.1390  178.9870  144.3960 C   0  0  2  0  0  3  0  0  0  0  0  0
  184.5430  178.8020  143.8310 C   0  0  1  0  0  0  0  0  0  0  0  0
  184.7090  177.6440  143.0460 O   0  0  0  0  0  0  0  0  0  0  0  0
  185.9990  177.3730  143.0730 O   0  0  0  0  0  0  0  0  0  0  0  0
  186.5610  178.2160  142.1130 C   0  0  0  0  0  2  0  0  0  0  0  0
  189.5080  177.1530  140.2340 C   0  0  0  0  0  0  0  0  0  0  0  0
  188.3910  177.8460  140.3660 C   0  0  0  0  0  0  0  0  0  0  0  0
  187.8180  177.6560  141.6470 N   0  0  0  0  0  0  0  0  0  0  0  0
  188.6210  176.7170  142.4090 C   0  0  0  0  0  3  0  0  0  0  0  0
  189.7670  176.3350  141.4640 C   0  0  0  0  0  3  0  0  0  0  0  0
  190.8420  175.6610  138.7870 C   0  0  2  0  0  3  0  0  0  0  0  0
  192.2520  175.7580  138.1960 C   0  0  0  0  0  2  0  0  0  0  0  0
  189.6620  176.1790  137.9470 C   0  0  1  0  0  3  0  0  0  0  0  0
  190.3200  177.0820  138.9760 C   0  0  1  0  0  3  0  0  0  0  0  0
  191.4250  176.8500  136.1420 C   0  0  0  0  0  2  0  0  0  0  0  0
  192.2740  175.7120  136.6740 C   0  0  1  0  0  3  0  0  0  0  0  0
  189.9640  176.5850  136.4870 C   0  0  2  0  0  3  0  0  0  0  0  0
  188.0950  177.5290  135.0570 N   0  0  0  0  0  1  0  0  0  0  0  0
  189.2640  178.8610  136.5590 O   0  0  0  0  0  0  0  0  0  0  0  0
  189.1000  177.7220  136.0500 C   0  0  0  0  0  0  0  0  0  0  0  0
  193.6460  175.3920  134.7430 O   0  0  0  0  0  1  0  0  0  0  0  0
  193.7110  175.7120  136.1040 C   0  0  2  0  0  0  0  0  0  0  0  0
  194.5970  174.6700  136.8140 C   0  0  2  0  0  3  0  0  0  0  0  0
  195.6350  174.2600  135.9980 F   0  0  0  0  0  0  0  0  0  0  0  0
  193.7970  173.4490  137.2440 C   0  0  0  0  0  1  0  0  0  0  0  0
  194.3060  177.0050  136.2570 O   0  0  0  0  0  0  0  0  0  0  0  0
  196.0080  176.7060  134.4010 C   0  0  0  0  0  1  0  0  0  0  0  0
  195.6280  178.7440  135.5550 O   0  0  0  0  0  0  0  0  0  0  0  0
  195.3130  177.5330  135.4340 C   0  0  0  0  0  0  0  0  0  0  0  0
  186.7420  177.9730  138.5290 C   0  0  0  0  0  1  0  0  0  0  0  0
  187.7980  178.7290  139.3100 C   0  0  0  0  0  2  0  0  0  0  0  0
  185.6340  179.1620  144.8290 C   0  0  0  0  0  2  0  0  0  0  0  0
  185.3590  178.5250  146.1800 C   0  0  0  0  0  2  0  0  0  0  0  0
  186.3270  179.0000  147.1540 N   0  0  0  0  0  2  0  0  0  0  0  0
  186.9970  177.8310  147.6970 C   0  0  0  0  0  2  0  0  0  0  0  0
  187.9450  178.2450  148.8110 C   0  0  0  0  0  2  0  0  0  0  0  0
  189.3390  177.6860  148.5770 C   0  0  2  0  0  3  0  0  0  0  0  0
  190.1460  178.6490  147.9660 O   0  0  0  0  0  1  0  0  0  0  0  0
  189.2420  176.4640  147.6810 C   0  0  0  0  0  2  0  0  0  0  0  0
  189.6130  176.8090  146.3160 N   0  0  0  0  0  0  0  0  0  0  0  0
  191.2460  179.8180  144.1280 C   0  0  0  0  0  1  0  0  0  0  0  0
  190.4880  178.5080  144.2420 C   0  0  1  0  0  3  0  0  0  0  0  0
  191.3970  177.4030  144.7220 C   0  0  0  0  0  0  0  0  0  0  0  0
  189.3000  178.6980  145.2050 C   0  0  0  0  0  2  0  0  0  0  0  0
  191.6720  175.6700  146.3350 O   0  0  0  0  0  0  0  0  0  0  0  0
  192.5110  177.1960  144.1700 O   0  0  0  0  0  0  0  0  0  0  0  0
  190.9320  176.5520  145.8200 C   0  0  0  0  0  0  0  0  0  0  0  0
  188.7240  177.4480  145.5040 O   0  0  0  0  0  0  0  0  0  0  0  0
  183.1440  179.6490  141.8840 C   0  0  0  0  0  2  0  0  0  0  0  0
  184.3100  179.4110  140.9370 C   0  0  0  0  0  2  0  0  0  0  0  0
  182.7920  177.0630  140.3460 O   0  0  0  0  0  0  0  0  0  0  0  0
  183.8130  179.0340  139.6230 N   0  0  0  0  0  2  0  0  0  0  0  0
  182.9630  177.9030  139.4220 C   0  0  0  0  0  0  0  0  0  0  0  0
  182.2390  177.7190  138.1220 C   0  0  2  0  0  3  0  0  0  0  0  0
  182.1950  175.4610  136.9620 C   0  0  0  0  0  0  0  0  0  0  0  0
  184.2470  176.5840  136.9380 C   0  0  0  0  0  3  0  0  0  0  0  0
  183.0840  174.4950  136.2920 C   0  0  0  0  0  2  0  0  0  0  0  0
  182.8420  176.6690  137.2990 N   0  0  0  0  0  0  0  0  0  0  0  0
  184.4160  175.2460  136.2050 C   0  0  0  0  0  3  0  0  0  0  0  0
  180.9840  175.2340  137.2220 O   0  0  0  0  0  0  0  0  0  0  0  0
  182.0960  179.0330  137.3540 C   0  0  0  0  0  2  0  0  0  0  0  0
  180.7700  179.4820  137.3730 O   0  0  0  0  0  0  0  0  0  0  0  0
  180.1500  180.7960  139.7350 O   0  0  0  0  0  1  0  0  0  0  0  0
  182.5100  181.5860  138.3090 C   0  0  0  0  0  1  0  0  0  0  0  0
  179.9840  181.9750  137.4080 O   0  0  0  0  0  0  0  0  0  0  0  0
  180.8070  180.9700  138.1830 P   0  0  1  0  0  0  0  0  0  0  0  0
  2 51  1  6  0  0  0
  2  4  1  0  0  0  0
  2  3  1  0  0  0  0
  3  1  1  6  0  0  0
  4  3  1  0  0  0  0
  4 34  1  1  0  0  0
  5  6  1  0  0  0  0
  5  4  1  0  0  0  0
  7  6  1  0  0  0  0
  8  9  2  0  0  0  0
  8 12  1  0  0  0  0
  9 10  1  0  0  0  0
 10  7  1  0  0  0  0
 10 11  1  0  0  0  0
 12 11  2  0  0  0  0
 13 14  1  6  0  0  0
 13 16  1  0  0  0  0
 15 13  1  0  0  0  0
 15 16  1  0  0  0  0
 16  8  1  0  0  0  0
 17 19  1  0  0  0  0
 17 18  1  0  0  0  0
 18 14  1  0  0  0  0
 19 15  1  0  0  0  0
 20 22  1  0  0  0  0
 22 19  1  0  0  0  0
 22 21  2  0  0  0  0
 23 24  1  0  0  0  0
 24 28  1  0  0  0  0
 24 18  1  0  0  0  0
 24 25  1  0  0  0  0
 25 27  1  0  0  0  0
 26 25  1  0  0  0  0
 29 31  1  0  0  0  0
 31 30  2  0  0  0  0
 31 28  1  0  0  0  0
 32 33  1  0  0  0  0
 33  9  1  0  0  0  0
 34 35  1  0  0  0  0
 35 36  1  0  0  0  0
 36 37  1  0  0  0  0
 37 38  1  0  0  0  0
 39 38  1  0  0  0  0
 40 39  1  0  0  0  0
 41 39  1  0  0  0  0
 42 41  1  0  0  0  0
 43 44  1  0  0  0  0
 44 45  1  0  0  0  0
 44 46  1  0  0  0  0
 45 49  1  0  0  0  0
 46 50  1  0  0  0  0
 48 45  2  0  0  0  0
 49 42  1  0  0  0  0
 49 47  2  0  0  0  0
 50 42  1  0  0  0  0
 52 51  1  0  0  0  0
 54 52  1  0  0  0  0
 55 54  1  0  0  0  0
 55 53  2  0  0  0  0
 56 55  1  0  0  0  0
 57 62  2  0  0  0  0
 57 60  1  0  0  0  0
 58 60  1  0  0  0  0
 59 57  1  0  0  0  0
 60 56  1  0  0  0  0
 61 59  1  0  0  0  0
 61 58  2  0  0  0  0
 63 64  1  0  0  0  0
 63 56  1  0  0  0  0
 64 68  1  0  0  0  0
 67 68  2  0  0  0  0
 68 66  1  0  0  0  0
 68 65  1  0  0  0  0
M  END
>  <MODEL>
6

>  <REMARK>
 VINA RESULT:      -3.9      3.308      7.661
  Name = 
  27 active torsions:
  status: ('A' for Active; 'I' for Inactive)
    1  A    between atoms: C_5  and  C_20
    2  A    between atoms: C_5  and  N_47
    3  A    between atoms: C_6  and  N_7
    4  A    between atoms: C_6  and  C_23
    5  A    between atoms: O_10  and  O_52
    6  A    between atoms: O_10  and  C_60
    7  A    between atoms: C_11  and  C_56
    8  A    between atoms: C_16  and  C_24
    9  A    between atoms: C_16  and  O_44
   10  A    between atoms: C_18  and  C_29
   11  A    between atoms: C_20  and  C_35
   12  A    between atoms: C_22  and  N_37
   13  A    between atoms: C_22  and  C_40
   14  A    between atoms: C_23  and  C_40
   15  A    between atoms: C_24  and  N_36
   16  A    between atoms: C_24  and  C_54
   17  A    between atoms: C_31  and  C_56
   18  A    between atoms: C_32  and  C_33
   19  A    between atoms: C_34  and  N_37
   20  A    between atoms: C_34  and  C_57
   21  A    between atoms: O_42  and  C_56
   22  A    between atoms: O_42  and  C_62
   23  A    between atoms: O_44  and  P_65
   24  A    between atoms: N_46  and  C_60
   25  A    between atoms: C_50  and  C_67
   26  A    between atoms: O_52  and  C_63
   27  A    between atoms: C_57  and  C_63
                            x       y       z     vdW  Elec       q    Type
                         _______ _______ _______ _____ _____    ______ ____

>  <TORSDO>
F 27

$$$$
=
 OpenBabel10232410053D

 68 73  0  0  1  0  0  0  0  0999 V2000
  190.4850  175.3080  139.7780 C   0  0  0  0  0  1  0  0  0  0  0  0
  191.4570  175.9650  137.4730 C   0  0  1  0  0  3  0  0  0  0  0  0
  190.1990  175.7180  138.3330 C   0  0  2  0  0  3  0  0  0  0  0  0
  190.6390  177.1400  138.0030 C   0  0  1  0  0  0  0  0  0  0  0  0
  191.1340  177.8690  139.1020 O   0  0  0  0  0  0  0  0  0  0  0  0
  191.2080  177.0110  140.1000 O   0  0  0  0  0  0  0  0  0  0  0  0
  191.4990  177.7900  141.2200 C   0  0  0  0  0  2  0  0  0  0  0  0
  188.4670  177.8150  143.2580 C   0  0  0  0  0  0  0  0  0  0  0  0
  189.1400  178.1000  142.1570 C   0  0  0  0  0  0  0  0  0  0  0  0
  190.4660  177.6060  142.2260 N   0  0  0  0  0  0  0  0  0  0  0  0
  190.6880  176.9720  143.5120 C   0  0  0  0  0  3  0  0  0  0  0  0
  189.3520  177.1210  144.2500 C   0  0  0  0  0  3  0  0  0  0  0  0
  186.0900  177.3820  142.7470 C   0  0  2  0  0  3  0  0  0  0  0  0
  184.9400  178.2740  142.2690 C   0  0  0  0  0  2  0  0  0  0  0  0
  186.2770  177.1810  144.2600 C   0  0  1  0  0  3  0  0  0  0  0  0
  187.0610  178.2580  143.5320 C   0  0  1  0  0  3  0  0  0  0  0  0
  184.2470  178.7920  144.5820 C   0  0  0  0  0  2  0  0  0  0  0  0
  183.7600  178.3050  143.2300 C   0  0  1  0  0  3  0  0  0  0  0  0
  185.1720  177.7410  145.1850 C   0  0  2  0  0  3  0  0  0  0  0  0
  186.8360  177.5320  147.0860 N   0  0  0  0  0  1  0  0  0  0  0  0
  185.2410  179.2200  147.0520 O   0  0  0  0  0  0  0  0  0  0  0  0
  185.7400  178.2140  146.4830 C   0  0  0  0  0  0  0  0  0  0  0  0
  182.6040  180.3960  143.2830 O   0  0  0  0  0  1  0  0  0  0  0  0
  182.5740  179.1320  142.6830 C   0  0  2  0  0  0  0  0  0  0  0  0
  181.2250  178.4630  143.0090 C   0  0  2  0  0  3  0  0  0  0  0  0
  180.1720  179.1640  142.4490 F   0  0  0  0  0  0  0  0  0  0  0  0
  180.9990  178.3510  144.5090 C   0  0  0  0  0  1  0  0  0  0  0  0
  182.6850  179.2800  141.2630 O   0  0  0  0  0  0  0  0  0  0  0  0
  183.6830  178.0370  139.2910 C   0  0  0  0  0  1  0  0  0  0  0  0
  181.6780  177.4120  140.3920 O   0  0  0  0  0  0  0  0  0  0  0  0
  182.6310  178.2290  140.3340 C   0  0  0  0  0  0  0  0  0  0  0  0
  187.8600  177.8860  140.0540 C   0  0  0  0  0  1  0  0  0  0  0  0
  188.5860  178.8420  140.9790 C   0  0  0  0  0  2  0  0  0  0  0  0
  189.6950  177.8420  137.0360 C   0  0  0  0  0  2  0  0  0  0  0  0
  188.5150  176.9500  136.6930 C   0  0  0  0  0  2  0  0  0  0  0  0
  188.6820  176.4060  135.3560 N   0  0  0  0  0  2  0  0  0  0  0  0
  188.7890  174.9630  135.4920 C   0  0  0  0  0  2  0  0  0  0  0  0
  187.7820  174.2780  134.5820 C   0  0  0  0  0  2  0  0  0  0  0  0
  186.4440  174.1010  135.2820 C   0  0  2  0  0  3  0  0  0  0  0  0
  185.9620  172.8070  135.0730 O   0  0  0  0  0  1  0  0  0  0  0  0
  185.4530  175.1080  134.7250 C   0  0  0  0  0  2  0  0  0  0  0  0
  184.1770  174.9940  135.4170 N   0  0  0  0  0  0  0  0  0  0  0  0
  181.9080  172.3370  137.4900 C   0  0  0  0  0  1  0  0  0  0  0  0
  182.0860  173.6490  136.7480 C   0  0  1  0  0  3  0  0  0  0  0  0
  182.9720  174.5890  137.5290 C   0  0  0  0  0  0  0  0  0  0  0  0
  182.6810  173.3620  135.3570 C   0  0  0  0  0  2  0  0  0  0  0  0
  184.9060  175.9790  137.4250 O   0  0  0  0  0  0  0  0  0  0  0  0
  182.7530  174.8230  138.7480 O   0  0  0  0  0  0  0  0  0  0  0  0
  184.0700  175.2540  136.8210 C   0  0  0  0  0  0  0  0  0  0  0  0
  183.0690  174.5700  134.7450 O   0  0  0  0  0  0  0  0  0  0  0  0
  192.7920  175.8040  138.2050 C   0  0  0  0  0  2  0  0  0  0  0  0
  193.9370  175.8190  137.2050 C   0  0  0  0  0  2  0  0  0  0  0  0
  195.6620  174.9860  135.0850 O   0  0  0  0  0  0  0  0  0  0  0  0
  194.4360  174.4670  137.0020 N   0  0  0  0  0  2  0  0  0  0  0  0
  195.3870  174.1470  135.9840 C   0  0  0  0  0  0  0  0  0  0  0  0
  196.0930  172.8250  135.9950 C   0  0  2  0  0  3  0  0  0  0  0  0
  195.6180  170.3930  135.4430 C   0  0  0  0  0  0  0  0  0  0  0  0
  193.7910  171.8480  135.3080 C   0  0  0  0  0  3  0  0  0  0  0  0
  194.5380  169.5130  134.9590 C   0  0  0  0  0  2  0  0  0  0  0  0
  195.1900  171.7160  135.6810 N   0  0  0  0  0  0  0  0  0  0  0  0
  193.3180  170.4370  134.9340 C   0  0  0  0  0  3  0  0  0  0  0  0
  196.8060  170.0120  135.6180 O   0  0  0  0  0  0  0  0  0  0  0  0
  196.8520  172.5890  137.3000 C   0  0  0  0  0  2  0  0  0  0  0  0
  198.2360  172.6530  137.0930 O   0  0  0  0  0  0  0  0  0  0  0  0
  197.3580  175.0150  138.2520 O   0  0  0  0  0  1  0  0  0  0  0  0
  199.9590  174.0300  138.9550 C   0  0  0  0  0  1  0  0  0  0  0  0
  199.2970  174.9670  136.5000 O   0  0  0  0  0  0  0  0  0  0  0  0
  198.7060  174.1840  137.6500 P   0  0  1  0  0  0  0  0  0  0  0  0
  2  4  1  0  0  0  0
  2 51  1  1  0  0  0
  2  3  1  0  0  0  0
  3  1  1  1  0  0  0
  4 34  1  6  0  0  0
  4  3  1  0  0  0  0
  4  5  1  0  0  0  0
  5  6  1  0  0  0  0
  6  7  1  0  0  0  0
  7 10  1  0  0  0  0
  8 16  1  0  0  0  0
  8 12  1  0  0  0  0
  9 10  1  0  0  0  0
  9  8  2  0  0  0  0
 10 11  1  0  0  0  0
 11 12  2  0  0  0  0
 13 14  1  1  0  0  0
 13 16  1  0  0  0  0
 13 15  1  0  0  0  0
 14 18  1  0  0  0  0
 15 19  1  0  0  0  0
 16 15  1  0  0  0  0
 17 19  1  0  0  0  0
 18 17  1  0  0  0  0
 19 22  1  0  0  0  0
 22 21  2  0  0  0  0
 22 20  1  0  0  0  0
 24 25  1  0  0  0  0
 24 18  1  0  0  0  0
 24 23  1  0  0  0  0
 25 27  1  0  0  0  0
 26 25  1  0  0  0  0
 28 24  1  0  0  0  0
 29 31  1  0  0  0  0
 31 30  2  0  0  0  0
 31 28  1  0  0  0  0
 32 33  1  0  0  0  0
 33  9  1  0  0  0  0
 35 34  1  0  0  0  0
 36 37  1  0  0  0  0
 36 35  1  0  0  0  0
 38 39  1  0  0  0  0
 38 37  1  0  0  0  0
 40 39  1  0  0  0  0
 41 39  1  0  0  0  0
 41 42  1  0  0  0  0
 42 49  1  0  0  0  0
 44 43  1  0  0  0  0
 44 45  1  0  0  0  0
 45 48  2  0  0  0  0
 46 44  1  0  0  0  0
 49 47  2  0  0  0  0
 49 45  1  0  0  0  0
 50 46  1  0  0  0  0
 50 42  1  0  0  0  0
 52 51  1  0  0  0  0
 53 55  2  0  0  0  0
 54 52  1  0  0  0  0
 55 56  1  0  0  0  0
 55 54  1  0  0  0  0
 56 63  1  0  0  0  0
 57 62  2  0  0  0  0
 57 60  1  0  0  0  0
 58 60  1  0  0  0  0
 59 57  1  0  0  0  0
 60 56  1  0  0  0  0
 61 59  1  0  0  0  0
 61 58  2  0  0  0  0
 64 63  1  0  0  0  0
 64 68  1  0  0  0  0
 67 68  2  0  0  0  0
 68 65  1  0  0  0  0
 68 66  1  0  0  0  0
M  END
>  <MODEL>
7

>  <REMARK>
 VINA RESULT:      -3.0      3.362      9.773
  Name = 
  27 active torsions:
  status: ('A' for Active; 'I' for Inactive)
    1  A    between atoms: C_5  and  C_20
    2  A    between atoms: C_5  and  N_47
    3  A    between atoms: C_6  and  N_7
    4  A    between atoms: C_6  and  C_23
    5  A    between atoms: O_10  and  O_52
    6  A    between atoms: O_10  and  C_60
    7  A    between atoms: C_11  and  C_56
    8  A    between atoms: C_16  and  C_24
    9  A    between atoms: C_16  and  O_44
   10  A    between atoms: C_18  and  C_29
   11  A    between atoms: C_20  and  C_35
   12  A    between atoms: C_22  and  N_37
   13  A    between atoms: C_22  and  C_40
   14  A    between atoms: C_23  and  C_40
   15  A    between atoms: C_24  and  N_36
   16  A    between atoms: C_24  and  C_54
   17  A    between atoms: C_31  and  C_56
   18  A    between atoms: C_32  and  C_33
   19  A    between atoms: C_34  and  N_37
   20  A    between atoms: C_34  and  C_57
   21  A    between atoms: O_42  and  C_56
   22  A    between atoms: O_42  and  C_62
   23  A    between atoms: O_44  and  P_65
   24  A    between atoms: N_46  and  C_60
   25  A    between atoms: C_50  and  C_67
   26  A    between atoms: O_52  and  C_63
   27  A    between atoms: C_57  and  C_63
                            x       y       z     vdW  Elec       q    Type
                         _______ _______ _______ _____ _____    ______ ____

>  <TORSDO>
F 27

$$$$
=
 OpenBabel10232410053D

 68 73  0  0  1  0  0  0  0  0999 V2000
  193.4440  178.3220  140.0440 C   0  0  0  0  0  1  0  0  0  0  0  0
  192.4130  175.9810  139.6580 C   0  0  1  0  0  3  0  0  0  0  0  0
  192.4390  177.2680  140.5110 C   0  0  2  0  0  3  0  0  0  0  0  0
  191.3060  177.0230  139.5220 C   0  0  1  0  0  0  0  0  0  0  0  0
  191.3130  177.8760  138.4010 O   0  0  0  0  0  0  0  0  0  0  0  0
  190.1120  177.7790  137.8660 O   0  0  0  0  0  0  0  0  0  0  0  0
  190.2950  177.0060  136.7180 C   0  0  0  0  0  2  0  0  0  0  0  0
  186.9820  175.4690  136.6250 C   0  0  0  0  0  0  0  0  0  0  0  0
  187.8040  176.4620  136.9170 C   0  0  0  0  0  0  0  0  0  0  0  0
  189.1270  176.1680  136.5030 N   0  0  0  0  0  0  0  0  0  0  0  0
  189.1760  174.8390  135.9220 C   0  0  0  0  0  3  0  0  0  0  0  0
  187.7340  174.3250  136.0140 C   0  0  0  0  0  3  0  0  0  0  0  0
  184.8880  176.7790  136.6600 C   0  0  2  0  0  3  0  0  0  0  0  0
  183.8640  177.0910  137.7550 C   0  0  0  0  0  2  0  0  0  0  0  0
  184.6470  175.5540  135.7620 C   0  0  1  0  0  3  0  0  0  0  0  0
  185.5280  175.4350  136.9920 C   0  0  1  0  0  3  0  0  0  0  0  0
  182.5010  175.1130  137.1830 C   0  0  0  0  0  2  0  0  0  0  0  0
  182.4580  176.6100  137.4220 C   0  0  1  0  0  3  0  0  0  0  0  0
  183.2860  174.8360  135.9060 C   0  0  2  0  0  3  0  0  0  0  0  0
  182.6770  172.4370  136.4560 N   0  0  0  0  0  1  0  0  0  0  0  0
  184.2050  172.9450  134.7820 O   0  0  0  0  0  0  0  0  0  0  0  0
  183.4220  173.3660  135.6730 C   0  0  0  0  0  0  0  0  0  0  0  0
  182.0580  177.0180  139.7420 O   0  0  0  0  0  1  0  0  0  0  0  0
  181.4240  177.0200  138.4940 C   0  0  2  0  0  0  0  0  0  0  0  0
  180.2400  176.0340  138.5400 C   0  0  2  0  0  3  0  0  0  0  0  0
  180.4440  175.0560  139.4970 F   0  0  0  0  0  0  0  0  0  0  0  0
  180.0110  175.3660  137.1930 C   0  0  0  0  0  1  0  0  0  0  0  0
  180.9200  178.3340  138.2230 O   0  0  0  0  0  0  0  0  0  0  0  0
  181.1900  180.7900  138.7890 C   0  0  0  0  0  1  0  0  0  0  0  0
  180.4820  179.1310  140.3290 O   0  0  0  0  0  0  0  0  0  0  0  0
  180.8540  179.3810  139.1550 C   0  0  0  0  0  0  0  0  0  0  0  0
  187.6210  178.9120  136.6540 C   0  0  0  0  0  1  0  0  0  0  0  0
  187.4040  177.7390  137.5890 C   0  0  0  0  0  2  0  0  0  0  0  0
  189.9760  176.7390  140.2060 C   0  0  0  0  0  2  0  0  0  0  0  0
  190.1850  175.9440  141.4820 C   0  0  0  0  0  2  0  0  0  0  0  0
  189.5480  176.6250  142.5960 N   0  0  0  0  0  2  0  0  0  0  0  0
  189.9760  175.9510  143.8100 C   0  0  0  0  0  2  0  0  0  0  0  0
  190.2650  176.9720  144.8990 C   0  0  0  0  0  2  0  0  0  0  0  0
  189.0540  177.8540  145.1560 C   0  0  2  0  0  3  0  0  0  0  0  0
  188.9160  178.0910  146.5260 O   0  0  0  0  0  1  0  0  0  0  0  0
  187.8100  177.1560  144.6350 C   0  0  0  0  0  2  0  0  0  0  0  0
  186.7510  178.1260  144.3940 N   0  0  0  0  0  0  0  0  0  0  0  0
  182.8330  178.3650  143.3440 C   0  0  0  0  0  1  0  0  0  0  0  0
  184.1980  178.9920  143.5670 C   0  0  1  0  0  3  0  0  0  0  0  0
  184.5420  179.0140  145.0360 C   0  0  0  0  0  0  0  0  0  0  0  0
  185.2500  178.2010  142.7680 C   0  0  0  0  0  2  0  0  0  0  0  0
  186.1900  178.4330  146.6580 O   0  0  0  0  0  0  0  0  0  0  0  0
  183.7290  179.4670  145.8860 O   0  0  0  0  0  0  0  0  0  0  0  0
  185.8650  178.5310  145.4440 C   0  0  0  0  0  0  0  0  0  0  0  0
  186.5440  178.6170  143.1390 O   0  0  0  0  0  0  0  0  0  0  0  0
  193.3610  175.9730  138.4560 C   0  0  0  0  0  2  0  0  0  0  0  0
  194.6720  175.3010  138.8320 C   0  0  0  0  0  2  0  0  0  0  0  0
  193.5500  175.0880  136.2120 O   0  0  0  0  0  0  0  0  0  0  0  0
  195.0070  174.2820  137.8490 N   0  0  0  0  0  2  0  0  0  0  0  0
  194.4900  174.3050  136.5170 C   0  0  0  0  0  0  0  0  0  0  0  0
  195.0810  173.4220  135.4590 C   0  0  2  0  0  3  0  0  0  0  0  0
  194.8060  171.1340  136.5250 C   0  0  0  0  0  0  0  0  0  0  0  0
  193.8580  171.3950  134.4020 C   0  0  0  0  0  3  0  0  0  0  0  0
  194.2890  169.7840  136.2330 C   0  0  0  0  0  2  0  0  0  0  0  0
  194.5310  172.0670  135.5020 N   0  0  0  0  0  0  0  0  0  0  0  0
  193.6020  169.9580  134.8760 C   0  0  0  0  0  3  0  0  0  0  0  0
  195.4410  171.4290  137.5710 O   0  0  0  0  0  0  0  0  0  0  0  0
  196.6080  173.4180  135.5020 C   0  0  0  0  0  2  0  0  0  0  0  0
  197.1030  174.6770  135.8670 O   0  0  0  0  0  0  0  0  0  0  0  0
  198.6860  175.4000  138.0270 O   0  0  0  0  0  1  0  0  0  0  0  0
  198.6270  172.6430  137.2370 C   0  0  0  0  0  1  0  0  0  0  0  0
  199.7140  174.6320  135.7500 O   0  0  0  0  0  0  0  0  0  0  0  0
  198.5550  174.3720  136.6870 P   0  0  1  0  0  0  0  0  0  0  0  0
  2 51  1  6  0  0  0
  2  3  1  0  0  0  0
  3  1  1  6  0  0  0
  4  2  1  0  0  0  0
  4 34  1  1  0  0  0
  4  3  1  0  0  0  0
  5  4  1  0  0  0  0
  6  5  1  0  0  0  0
  7  6  1  0  0  0  0
  8  9  2  0  0  0  0
  8 16  1  0  0  0  0
  9 33  1  0  0  0  0
 10  7  1  0  0  0  0
 10  9  1  0  0  0  0
 11 12  2  0  0  0  0
 11 10  1  0  0  0  0
 12  8  1  0  0  0  0
 13 16  1  0  0  0  0
 13 14  1  1  0  0  0
 15 19  1  0  0  0  0
 15 13  1  0  0  0  0
 15 16  1  0  0  0  0
 17 18  1  0  0  0  0
 18 14  1  0  0  0  0
 18 24  1  0  0  0  0
 19 17  1  0  0  0  0
 21 22  2  0  0  0  0
 22 19  1  0  0  0  0
 22 20  1  0  0  0  0
 24 25  1  0  0  0  0
 24 23  1  0  0  0  0
 25 26  1  0  0  0  0
 27 25  1  0  0  0  0
 28 24  1  0  0  0  0
 28 31  1  0  0  0  0
 29 31  1  0  0  0  0
 31 30  2  0  0  0  0
 32 33  1  0  0  0  0
 34 35  1  0  0  0  0
 35 36  1  0  0  0  0
 36 37  1  0  0  0  0
 37 38  1  0  0  0  0
 38 39  1  0  0  0  0
 39 40  1  0  0  0  0
 41 39  1  0  0  0  0
 42 41  1  0  0  0  0
 42 49  1  0  0  0  0
 43 44  1  0  0  0  0
 44 45  1  0  0  0  0
 45 49  1  0  0  0  0
 45 48  2  0  0  0  0
 46 50  1  0  0  0  0
 46 44  1  0  0  0  0
 49 47  2  0  0  0  0
 50 42  1  0  0  0  0
 51 52  1  0  0  0  0
 53 55  2  0  0  0  0
 54 52  1  0  0  0  0
 55 54  1  0  0  0  0
 56 60  1  0  0  0  0
 56 63  1  0  0  0  0
 56 55  1  0  0  0  0
 57 62  2  0  0  0  0
 58 61  2  0  0  0  0
 58 60  1  0  0  0  0
 59 57  1  0  0  0  0
 60 57  1  0  0  0  0
 61 59  1  0  0  0  0
 63 64  1  0  0  0  0
 64 68  1  0  0  0  0
 67 68  2  0  0  0  0
 68 66  1  0  0  0  0
 68 65  1  0  0  0  0
M  END
>  <MODEL>
8

>  <REMARK>
 VINA RESULT:      -2.9      3.062      6.683
  Name = 
  27 active torsions:
  status: ('A' for Active; 'I' for Inactive)
    1  A    between atoms: C_5  and  C_20
    2  A    between atoms: C_5  and  N_47
    3  A    between atoms: C_6  and  N_7
    4  A    between atoms: C_6  and  C_23
    5  A    between atoms: O_10  and  O_52
    6  A    between atoms: O_10  and  C_60
    7  A    between atoms: C_11  and  C_56
    8  A    between atoms: C_16  and  C_24
    9  A    between atoms: C_16  and  O_44
   10  A    between atoms: C_18  and  C_29
   11  A    between atoms: C_20  and  C_35
   12  A    between atoms: C_22  and  N_37
   13  A    between atoms: C_22  and  C_40
   14  A    between atoms: C_23  and  C_40
   15  A    between atoms: C_24  and  N_36
   16  A    between atoms: C_24  and  C_54
   17  A    between atoms: C_31  and  C_56
   18  A    between atoms: C_32  and  C_33
   19  A    between atoms: C_34  and  N_37
   20  A    between atoms: C_34  and  C_57
   21  A    between atoms: O_42  and  C_56
   22  A    between atoms: O_42  and  C_62
   23  A    between atoms: O_44  and  P_65
   24  A    between atoms: N_46  and  C_60
   25  A    between atoms: C_50  and  C_67
   26  A    between atoms: O_52  and  C_63
   27  A    between atoms: C_57  and  C_63
                            x       y       z     vdW  Elec       q    Type
                         _______ _______ _______ _____ _____    ______ ____

>  <TORSDO>
F 27

$$$$
=
 OpenBabel10232410053D

 68 73  0  0  1  0  0  0  0  0999 V2000
  190.4840  175.3070  139.7750 C   0  0  0  0  0  1  0  0  0  0  0  0
  191.5020  175.9590  137.4890 C   0  0  1  0  0  3  0  0  0  0  0  0
  190.2270  175.7200  138.3260 C   0  0  2  0  0  3  0  0  0  0  0  0
  190.6820  177.1400  138.0050 C   0  0  1  0  0  0  0  0  0  0  0  0
  191.1620  177.8640  139.1130 O   0  0  0  0  0  0  0  0  0  0  0  0
  191.2550  176.9950  140.0990 O   0  0  0  0  0  0  0  0  0  0  0  0
  191.5520  177.7630  141.2260 C   0  0  0  0  0  2  0  0  0  0  0  0
  188.5440  177.7820  143.2990 C   0  0  0  0  0  0  0  0  0  0  0  0
  189.2110  178.0920  142.2010 C   0  0  0  0  0  0  0  0  0  0  0  0
  190.5260  177.5660  142.2360 N   0  0  0  0  0  0  0  0  0  0  0  0
  190.7470  176.8800  143.4960 C   0  0  0  0  0  3  0  0  0  0  0  0
  189.4230  177.0320  144.2540 C   0  0  0  0  0  3  0  0  0  0  0  0
  186.1590  177.4880  142.7300 C   0  0  2  0  0  3  0  0  0  0  0  0
  185.0460  178.4630  142.3340 C   0  0  0  0  0  2  0  0  0  0  0  0
  186.3220  177.1310  144.2160 C   0  0  1  0  0  3  0  0  0  0  0  0
  187.1510  178.2460  143.6050 C   0  0  1  0  0  3  0  0  0  0  0  0
  184.3470  178.7740  144.6820 C   0  0  0  0  0  2  0  0  0  0  0  0
  183.8570  178.4420  143.2850 C   0  0  1  0  0  3  0  0  0  0  0  0
  185.2270  177.6350  145.1840 C   0  0  2  0  0  3  0  0  0  0  0  0
  185.1680  178.9180  147.3700 N   0  0  0  0  0  1  0  0  0  0  0  0
  186.8450  177.3770  146.9150 O   0  0  0  0  0  0  0  0  0  0  0  0
  185.7970  177.9560  146.5270 C   0  0  0  0  0  0  0  0  0  0  0  0
  182.7850  180.5640  143.5250 O   0  0  0  0  0  1  0  0  0  0  0  0
  182.7080  179.3610  142.8140 C   0  0  2  0  0  0  0  0  0  0  0  0
  181.3310  178.7200  143.0790 C   0  0  2  0  0  3  0  0  0  0  0  0
  180.3080  179.6160  142.8290 F   0  0  0  0  0  0  0  0  0  0  0  0
  181.2090  178.2190  144.5100 C   0  0  0  0  0  1  0  0  0  0  0  0
  182.8290  179.6320  141.4130 O   0  0  0  0  0  0  0  0  0  0  0  0
  181.3620  179.2660  139.3780 C   0  0  0  0  0  1  0  0  0  0  0  0
  182.8090  177.6270  140.2980 O   0  0  0  0  0  0  0  0  0  0  0  0
  182.3610  178.7990  140.3860 C   0  0  0  0  0  0  0  0  0  0  0  0
  187.9960  177.9690  140.0530 C   0  0  0  0  0  1  0  0  0  0  0  0
  188.6610  178.8880  141.0570 C   0  0  0  0  0  2  0  0  0  0  0  0
  189.7610  177.8480  137.0220 C   0  0  0  0  0  2  0  0  0  0  0  0
  188.4980  177.0380  136.7880 C   0  0  0  0  0  2  0  0  0  0  0  0
  188.3890  176.6910  135.3810 N   0  0  0  0  0  2  0  0  0  0  0  0
  188.1690  175.2570  135.3090 C   0  0  0  0  0  2  0  0  0  0  0  0
  187.0140  174.9530  134.3690 C   0  0  0  0  0  2  0  0  0  0  0  0
  186.0500  173.9570  134.9920 C   0  0  2  0  0  3  0  0  0  0  0  0
  184.7800  174.1040  134.4300 O   0  0  0  0  0  1  0  0  0  0  0  0
  185.9740  174.2070  136.4880 C   0  0  0  0  0  2  0  0  0  0  0  0
  184.5840  174.3010  136.9130 N   0  0  0  0  0  0  0  0  0  0  0  0
  180.8160  174.6050  135.4250 C   0  0  0  0  0  1  0  0  0  0  0  0
  181.8110  174.6800  136.5690 C   0  0  1  0  0  3  0  0  0  0  0  0
  182.3280  173.3060  136.9200 C   0  0  0  0  0  0  0  0  0  0  0  0
  182.9670  175.6160  136.1670 C   0  0  0  0  0  2  0  0  0  0  0  0
  184.2880  171.9940  137.2650 O   0  0  0  0  0  0  0  0  0  0  0  0
  181.5360  172.3470  137.1170 O   0  0  0  0  0  0  0  0  0  0  0  0
  183.7760  173.1280  137.0650 C   0  0  0  0  0  0  0  0  0  0  0  0
  184.0090  175.5200  137.1110 O   0  0  0  0  0  0  0  0  0  0  0  0
  192.8230  175.7890  138.2440 C   0  0  0  0  0  2  0  0  0  0  0  0
  193.9920  176.0880  137.3200 C   0  0  0  0  0  2  0  0  0  0  0  0
  193.8570  174.4170  135.0060 O   0  0  0  0  0  0  0  0  0  0  0  0
  194.7740  174.8800  137.1020 N   0  0  0  0  0  2  0  0  0  0  0  0
  194.7360  174.1560  135.8700 C   0  0  0  0  0  0  0  0  0  0  0  0
  195.7620  173.1030  135.5780 C   0  0  2  0  0  3  0  0  0  0  0  0
  198.1870  173.5110  136.2090 C   0  0  0  0  0  0  0  0  0  0  0  0
  197.4010  174.6930  134.3500 C   0  0  0  0  0  3  0  0  0  0  0  0
  199.3460  174.3450  135.8420 C   0  0  0  0  0  2  0  0  0  0  0  0
  197.0880  173.6760  135.3400 N   0  0  0  0  0  0  0  0  0  0  0  0
  198.8700  175.0730  134.5820 C   0  0  0  0  0  3  0  0  0  0  0  0
  198.1680  172.7380  137.2030 O   0  0  0  0  0  0  0  0  0  0  0  0
  195.3280  172.1790  134.4410 C   0  0  0  0  0  2  0  0  0  0  0  0
  195.7650  170.8670  134.6680 O   0  0  0  0  0  0  0  0  0  0  0  0
  193.8330  168.9600  135.2350 O   0  0  0  0  0  0  0  0  0  0  0  0
  195.6940  169.6770  137.2970 C   0  0  0  0  0  1  0  0  0  0  0  0
  193.7910  171.3400  136.3160 O   0  0  0  0  0  1  0  0  0  0  0  0
  194.7360  170.2480  135.8640 P   0  0  1  0  0  0  0  0  0  0  0  0
  2  4  1  0  0  0  0
  2 51  1  1  0  0  0
  2  3  1  0  0  0  0
  3  1  1  1  0  0  0
  4 34  1  6  0  0  0
  4  3  1  0  0  0  0
  4  5  1  0  0  0  0
  5  6  1  0  0  0  0
  6  7  1  0  0  0  0
  7 10  1  0  0  0  0
  8 16  1  0  0  0  0
  8 12  1  0  0  0  0
  9 10  1  0  0  0  0
  9  8  2  0  0  0  0
 10 11  1  0  0  0  0
 11 12  2  0  0  0  0
 13 14  1  1  0  0  0
 13 16  1  0  0  0  0
 13 15  1  0  0  0  0
 14 18  1  0  0  0  0
 15 19  1  0  0  0  0
 16 15  1  0  0  0  0
 17 19  1  0  0  0  0
 18 17  1  0  0  0  0
 19 22  1  0  0  0  0
 22 21  2  0  0  0  0
 22 20  1  0  0  0  0
 24 25  1  0  0  0  0
 24 18  1  0  0  0  0
 24 23  1  0  0  0  0
 25 27  1  0  0  0  0
 26 25  1  0  0  0  0
 28 24  1  0  0  0  0
 29 31  1  0  0  0  0
 30 31  2  0  0  0  0
 31 28  1  0  0  0  0
 32 33  1  0  0  0  0
 33  9  1  0  0  0  0
 35 34  1  0  0  0  0
 36 35  1  0  0  0  0
 37 36  1  0  0  0  0
 38 39  1  0  0  0  0
 38 37  1  0  0  0  0
 39 41  1  0  0  0  0
 40 39  1  0  0  0  0
 41 42  1  0  0  0  0
 42 49  1  0  0  0  0
 42 50  1  0  0  0  0
 43 44  1  0  0  0  0
 44 45  1  0  0  0  0
 45 49  1  0  0  0  0
 45 48  2  0  0  0  0
 46 44  1  0  0  0  0
 46 50  1  0  0  0  0
 49 47  2  0  0  0  0
 52 51  1  0  0  0  0
 53 55  2  0  0  0  0
 54 52  1  0  0  0  0
 55 54  1  0  0  0  0
 56 55  1  0  0  0  0
 57 62  2  0  0  0  0
 58 61  2  0  0  0  0
 58 60  1  0  0  0  0
 59 57  1  0  0  0  0
 60 56  1  0  0  0  0
 60 57  1  0  0  0  0
 61 59  1  0  0  0  0
 63 64  1  0  0  0  0
 63 56  1  0  0  0  0
 64 68  1  0  0  0  0
 65 68  2  0  0  0  0
 68 67  1  0  0  0  0
 68 66  1  0  0  0  0
M  END
>  <MODEL>
9

>  <REMARK>
 VINA RESULT:      -2.8      3.244      9.908
  Name = 
  27 active torsions:
  status: ('A' for Active; 'I' for Inactive)
    1  A    between atoms: C_5  and  C_20
    2  A    between atoms: C_5  and  N_47
    3  A    between atoms: C_6  and  N_7
    4  A    between atoms: C_6  and  C_23
    5  A    between atoms: O_10  and  O_52
    6  A    between atoms: O_10  and  C_60
    7  A    between atoms: C_11  and  C_56
    8  A    between atoms: C_16  and  C_24
    9  A    between atoms: C_16  and  O_44
   10  A    between atoms: C_18  and  C_29
   11  A    between atoms: C_20  and  C_35
   12  A    between atoms: C_22  and  N_37
   13  A    between atoms: C_22  and  C_40
   14  A    between atoms: C_23  and  C_40
   15  A    between atoms: C_24  and  N_36
   16  A    between atoms: C_24  and  C_54
   17  A    between atoms: C_31  and  C_56
   18  A    between atoms: C_32  and  C_33
   19  A    between atoms: C_34  and  N_37
   20  A    between atoms: C_34  and  C_57
   21  A    between atoms: O_42  and  C_56
   22  A    between atoms: O_42  and  C_62
   23  A    between atoms: O_44  and  P_65
   24  A    between atoms: N_46  and  C_60
   25  A    between atoms: C_50  and  C_67
   26  A    between atoms: O_52  and  C_63
   27  A    between atoms: C_57  and  C_63
                            x       y       z     vdW  Elec       q    Type
                         _______ _______ _______ _____ _____    ______ ____

>  <TORSDO>
F 27

$$$$
