=
 OpenBabel10232410013D

 26 29  0  0  0  0  0  0  0  0999 V2000
  185.1080  178.5470  145.6610 C   0  0  0  0  0  3  0  0  0  0  0  0
  189.1790  178.0270  139.7040 C   0  0  0  0  0  0  0  0  0  0  0  0
  191.5050  177.3210  139.7980 O   0  0  0  0  0  1  0  0  0  0  0  0
  186.4420  178.2950  143.6350 C   0  0  0  0  0  0  0  0  0  0  0  0
  188.7580  177.4870  143.8720 O   0  0  0  0  0  0  0  0  0  0  0  0
  187.9530  178.2020  141.7510 C   0  0  0  0  0  0  0  0  0  0  0  0
  190.2130  177.4390  141.8630 C   0  0  0  0  0  0  0  0  0  0  0  0
  189.2260  178.1360  138.2170 C   0  0  0  0  0  1  0  0  0  0  0  0
  186.1050  177.9350  146.4150 C   0  0  0  0  0  3  0  0  0  0  0  0
  188.9960  177.7210  142.5120 C   0  0  0  0  0  0  0  0  0  0  0  0
  185.2590  178.7450  144.2810 C   0  0  0  0  0  0  0  0  0  0  0  0
  187.4970  177.7670  144.4460 C   0  0  0  0  0  0  0  0  0  0  0  0
  190.3070  177.6020  140.4510 C   0  0  0  0  0  0  0  0  0  0  0  0
  191.3800  176.9400  142.6480 C   0  0  0  0  0  1  0  0  0  0  0  0
  186.0080  178.6260  141.0610 C   0  0  0  0  0  0  0  0  0  0  0  0
  186.7240  178.4310  142.2130 N   0  0  0  0  0  0  0  0  0  0  0  0
  187.3030  177.5550  145.8170 C   0  0  0  0  0  0  0  0  0  0  0  0
  186.7740  178.5700  139.9330 N   0  0  0  0  0  0  0  0  0  0  0  0
  184.5260  178.6580  140.9540 C   0  0  0  0  0  1  0  0  0  0  0  0
  188.0050  178.3110  140.4080 C   0  0  0  0  0  0  0  0  0  0  0  0
  188.3730  176.9380  146.6600 C   0  0  0  0  0  2  0  0  0  0  0  0
  188.1720  177.2660  148.1310 C   0  0  0  0  0  2  0  0  0  0  0  0
  189.1030  178.3850  148.5610 C   0  0  0  0  0  1  0  0  0  0  0  0
  184.2280  179.5920  143.6100 C   0  0  0  0  0  2  0  0  0  0  0  0
  181.8060  178.7060  144.1080 N   0  0  0  0  0  0  0  0  0  0  0  0
  182.8730  179.0970  143.8890 C   0  0  0  0  0  0  0  0  0  0  0  0
  1  9  1  0  0  0  0
  2 20  2  0  0  0  0
  2 13  1  0  0  0  0
  3 13  1  0  0  0  0
  4 11  1  0  0  0  0
  4 12  2  0  0  0  0
  5 12  1  0  0  0  0
  6 16  1  0  0  0  0
  6 10  2  0  0  0  0
  7 10  1  0  0  0  0
  7 14  1  0  0  0  0
  8  2  1  0  0  0  0
 10  5  1  0  0  0  0
 11  1  2  0  0  0  0
 12 17  1  0  0  0  0
 13  7  2  0  0  0  0
 15 16  1  0  0  0  0
 16  4  1  0  0  0  0
 17  9  2  0  0  0  0
 17 21  1  0  0  0  0
 18 20  1  0  0  0  0
 18 15  2  0  0  0  0
 19 15  1  0  0  0  0
 20  6  1  0  0  0  0
 21 22  1  0  0  0  0
 22 23  1  0  0  0  0
 24 26  1  0  0  0  0
 24 11  1  0  0  0  0
 26 25  3  0  0  0  0
M  END
>  <MODEL>
1

>  <REMARK>
 VINA RESULT:      -9.4      0.000      0.000
  Name = 
  4 active torsions:
  status: ('A' for Active; 'I' for Inactive)
    1  A    between atoms: C_3  and  C_12
    2  A    between atoms: C_8  and  C_25
    3  A    between atoms: C_12  and  C_22
    4  A    between atoms: C_16  and  C_25
                            x       y       z     vdW  Elec       q    Type
                         _______ _______ _______ _____ _____    ______ ____

>  <TORSDO>
F 4

$$$$
=
 OpenBabel10232410013D

 26 29  0  0  0  0  0  0  0  0999 V2000
  186.7670  177.8050  146.1120 C   0  0  0  0  0  3  0  0  0  0  0  0
  191.1100  177.3310  140.3470 C   0  0  0  0  0  0  0  0  0  0  0  0
  190.2500  177.4910  138.0770 O   0  0  0  0  0  1  0  0  0  0  0  0
  188.2540  177.7280  144.1820 C   0  0  0  0  0  0  0  0  0  0  0  0
  187.2560  177.9920  141.9440 O   0  0  0  0  0  0  0  0  0  0  0  0
  189.5630  177.4580  142.1680 C   0  0  0  0  0  0  0  0  0  0  0  0
  188.7030  177.6890  139.9510 C   0  0  0  0  0  0  0  0  0  0  0  0
  192.5120  177.1990  139.8540 C   0  0  0  0  0  1  0  0  0  0  0  0
  185.7020  178.1820  145.2990 C   0  0  0  0  0  3  0  0  0  0  0  0
  188.4850  177.6970  141.3430 C   0  0  0  0  0  0  0  0  0  0  0  0
  188.0400  177.5640  145.5770 C   0  0  0  0  0  0  0  0  0  0  0  0
  187.1240  178.0100  143.3520 C   0  0  0  0  0  0  0  0  0  0  0  0
  190.0220  177.4950  139.4510 C   0  0  0  0  0  0  0  0  0  0  0  0
  187.5640  177.9180  139.0170 C   0  0  0  0  0  1  0  0  0  0  0  0
  190.8520  177.4790  143.8350 C   0  0  0  0  0  0  0  0  0  0  0  0
  189.5240  177.5180  143.4990 N   0  0  0  0  0  0  0  0  0  0  0  0
  185.8710  178.2750  143.9200 C   0  0  0  0  0  0  0  0  0  0  0  0
  191.6770  177.3490  142.7570 N   0  0  0  0  0  0  0  0  0  0  0  0
  191.4170  177.7830  145.1750 C   0  0  0  0  0  1  0  0  0  0  0  0
  190.8270  177.3270  141.7160 C   0  0  0  0  0  0  0  0  0  0  0  0
  184.6980  178.6410  143.0670 C   0  0  0  0  0  2  0  0  0  0  0  0
  183.6910  179.4740  143.8440 C   0  0  0  0  0  2  0  0  0  0  0  0
  182.3120  178.8440  143.7760 C   0  0  0  0  0  1  0  0  0  0  0  0
  189.0520  176.9670  146.4990 C   0  0  0  0  0  2  0  0  0  0  0  0
  189.0710  178.2060  148.8150 N   0  0  0  0  0  0  0  0  0  0  0  0
  189.0630  177.6610  147.7940 C   0  0  0  0  0  0  0  0  0  0  0  0
  2 20  1  0  0  0  0
  3 13  1  0  0  0  0
  4 11  2  0  0  0  0
  5 12  1  0  0  0  0
  6 16  1  0  0  0  0
  7 10  2  0  0  0  0
  8  2  1  0  0  0  0
  9  1  2  0  0  0  0
 10  5  1  0  0  0  0
 10  6  1  0  0  0  0
 11  1  1  0  0  0  0
 11 24  1  0  0  0  0
 12 17  2  0  0  0  0
 12  4  1  0  0  0  0
 13  7  1  0  0  0  0
 13  2  2  0  0  0  0
 14  7  1  0  0  0  0
 15 19  1  0  0  0  0
 16 15  1  0  0  0  0
 16  4  1  0  0  0  0
 17  9  1  0  0  0  0
 18 15  2  0  0  0  0
 20  6  2  0  0  0  0
 20 18  1  0  0  0  0
 21 22  1  0  0  0  0
 21 17  1  0  0  0  0
 23 22  1  0  0  0  0
 24 26  1  0  0  0  0
 26 25  3  0  0  0  0
M  END
>  <MODEL>
2

>  <REMARK>
 VINA RESULT:      -9.3      2.224      4.649
  Name = 
  4 active torsions:
  status: ('A' for Active; 'I' for Inactive)
    1  A    between atoms: C_3  and  C_12
    2  A    between atoms: C_8  and  C_25
    3  A    between atoms: C_12  and  C_22
    4  A    between atoms: C_16  and  C_25
                            x       y       z     vdW  Elec       q    Type
                         _______ _______ _______ _____ _____    ______ ____

>  <TORSDO>
F 4

$$$$
=
 OpenBabel10232410013D

 26 29  0  0  0  0  0  0  0  0999 V2000
  189.2300  177.0340  147.0990 C   0  0  0  0  0  3  0  0  0  0  0  0
  188.2650  178.2340  140.0310 C   0  0  0  0  0  0  0  0  0  0  0  0
  186.0620  178.6630  139.0930 O   0  0  0  0  0  1  0  0  0  0  0  0
  188.9330  177.5210  144.7290 C   0  0  0  0  0  0  0  0  0  0  0  0
  186.6560  178.0240  143.9310 O   0  0  0  0  0  0  0  0  0  0  0  0
  188.4440  177.8070  142.3790 C   0  0  0  0  0  0  0  0  0  0  0  0
  186.2810  178.2960  141.4930 C   0  0  0  0  0  0  0  0  0  0  0  0
  188.9140  178.4000  138.6980 C   0  0  0  0  0  1  0  0  0  0  0  0
  187.9090  177.3870  147.3560 C   0  0  0  0  0  3  0  0  0  0  0  0
  187.1030  178.0250  142.6050 C   0  0  0  0  0  0  0  0  0  0  0  0
  189.7570  177.0830  145.8000 C   0  0  0  0  0  0  0  0  0  0  0  0
  187.5500  177.7740  144.9970 C   0  0  0  0  0  0  0  0  0  0  0  0
  186.8650  178.3910  140.1980 C   0  0  0  0  0  0  0  0  0  0  0  0
  184.8180  178.5150  141.6840 C   0  0  0  0  0  1  0  0  0  0  0  0
  190.5330  177.7240  142.6490 C   0  0  0  0  0  0  0  0  0  0  0  0
  189.3520  177.6250  143.3370 N   0  0  0  0  0  0  0  0  0  0  0  0
  187.0630  177.7450  146.3100 C   0  0  0  0  0  0  0  0  0  0  0  0
  190.3610  177.9100  141.3080 N   0  0  0  0  0  0  0  0  0  0  0  0
  191.8820  177.8670  143.2540 C   0  0  0  0  0  1  0  0  0  0  0  0
  189.0250  177.9470  141.1690 C   0  0  0  0  0  0  0  0  0  0  0  0
  185.6360  178.0780  146.6110 C   0  0  0  0  0  2  0  0  0  0  0  0
  185.1520  179.2440  145.7630 C   0  0  0  0  0  2  0  0  0  0  0  0
  183.7560  178.9760  145.2330 C   0  0  0  0  0  1  0  0  0  0  0  0
  191.1130  176.4890  145.6050 C   0  0  0  0  0  2  0  0  0  0  0  0
  192.3530  176.1810  147.8990 N   0  0  0  0  0  0  0  0  0  0  0  0
  191.8060  176.3170  146.8880 C   0  0  0  0  0  0  0  0  0  0  0  0
  1  9  1  0  0  0  0
  2 13  2  0  0  0  0
  2 20  1  0  0  0  0
  3 13  1  0  0  0  0
  4 12  2  0  0  0  0
  4 11  1  0  0  0  0
  5 12  1  0  0  0  0
  6 10  1  0  0  0  0
  6 16  1  0  0  0  0
  7 14  1  0  0  0  0
  7 10  2  0  0  0  0
  8  2  1  0  0  0  0
 10  5  1  0  0  0  0
 11  1  2  0  0  0  0
 12 17  1  0  0  0  0
 13  7  1  0  0  0  0
 15 19  1  0  0  0  0
 15 16  1  0  0  0  0
 16  4  1  0  0  0  0
 17 21  1  0  0  0  0
 17  9  2  0  0  0  0
 18 15  2  0  0  0  0
 20 18  1  0  0  0  0
 20  6  2  0  0  0  0
 22 21  1  0  0  0  0
 23 22  1  0  0  0  0
 24 11  1  0  0  0  0
 24 26  1  0  0  0  0
 26 25  3  0  0  0  0
M  END
>  <MODEL>
3

>  <REMARK>
 VINA RESULT:      -9.2      2.544      4.978
  Name = 
  4 active torsions:
  status: ('A' for Active; 'I' for Inactive)
    1  A    between atoms: C_3  and  C_12
    2  A    between atoms: C_8  and  C_25
    3  A    between atoms: C_12  and  C_22
    4  A    between atoms: C_16  and  C_25
                            x       y       z     vdW  Elec       q    Type
                         _______ _______ _______ _____ _____    ______ ____

>  <TORSDO>
F 4

$$$$
=
 OpenBabel10232410013D

 26 29  0  0  0  0  0  0  0  0999 V2000
  191.1020  177.2800  141.5200 C   0  0  0  0  0  3  0  0  0  0  0  0
  184.7080  178.4810  144.6820 C   0  0  0  0  0  0  0  0  0  0  0  0
  184.4550  178.4850  147.1010 O   0  0  0  0  0  1  0  0  0  0  0  0
  188.9580  177.7700  142.5710 C   0  0  0  0  0  0  0  0  0  0  0  0
  188.8670  177.8280  145.0330 O   0  0  0  0  0  0  0  0  0  0  0  0
  186.8680  178.0250  143.7590 C   0  0  0  0  0  0  0  0  0  0  0  0
  186.6600  178.0950  146.1370 C   0  0  0  0  0  0  0  0  0  0  0  0
  183.2680  178.8160  144.4860 C   0  0  0  0  0  1  0  0  0  0  0  0
  191.7440  177.3500  142.7530 C   0  0  0  0  0  3  0  0  0  0  0  0
  187.4740  177.9610  144.9950 C   0  0  0  0  0  0  0  0  0  0  0  0
  189.7180  177.4740  141.4070 C   0  0  0  0  0  0  0  0  0  0  0  0
  189.6180  177.7310  143.8400 C   0  0  0  0  0  0  0  0  0  0  0  0
  185.2680  178.3470  145.9790 C   0  0  0  0  0  0  0  0  0  0  0  0
  187.2650  178.0080  147.4980 C   0  0  0  0  0  1  0  0  0  0  0  0
  186.5440  178.3580  141.7030 C   0  0  0  0  0  0  0  0  0  0  0  0
  187.5200  178.0000  142.5960 N   0  0  0  0  0  0  0  0  0  0  0  0
  191.0070  177.5630  143.9150 C   0  0  0  0  0  0  0  0  0  0  0  0
  185.3240  178.5470  142.2850 N   0  0  0  0  0  0  0  0  0  0  0  0
  186.7640  178.7510  140.2880 C   0  0  0  0  0  1  0  0  0  0  0  0
  185.5630  178.3170  143.5880 C   0  0  0  0  0  0  0  0  0  0  0  0
  191.7180  177.5910  145.2310 C   0  0  0  0  0  2  0  0  0  0  0  0
  191.8090  176.2000  145.8370 C   0  0  0  0  0  2  0  0  0  0  0  0
  191.6200  176.2600  147.3420 C   0  0  0  0  0  1  0  0  0  0  0  0
  189.1050  177.1730  140.0800 C   0  0  0  0  0  2  0  0  0  0  0  0
  190.7230  175.7330  138.5950 N   0  0  0  0  0  0  0  0  0  0  0  0
  190.0100  176.3680  139.2490 C   0  0  0  0  0  0  0  0  0  0  0  0
  1  9  1  0  0  0  0
  2 13  1  0  0  0  0
  4 16  1  0  0  0  0
  4 12  2  0  0  0  0
  6 10  2  0  0  0  0
  7 14  1  0  0  0  0
  8  2  1  0  0  0  0
  9 17  2  0  0  0  0
 10  5  1  0  0  0  0
 10  7  1  0  0  0  0
 11  1  2  0  0  0  0
 11  4  1  0  0  0  0
 12 17  1  0  0  0  0
 12  5  1  0  0  0  0
 13  7  2  0  0  0  0
 13  3  1  0  0  0  0
 15 18  2  0  0  0  0
 15 16  1  0  0  0  0
 16  6  1  0  0  0  0
 17 21  1  0  0  0  0
 18 20  1  0  0  0  0
 19 15  1  0  0  0  0
 20  6  1  0  0  0  0
 20  2  2  0  0  0  0
 21 22  1  0  0  0  0
 22 23  1  0  0  0  0
 24 11  1  0  0  0  0
 25 26  3  0  0  0  0
 26 24  1  0  0  0  0
M  END
>  <MODEL>
4

>  <REMARK>
 VINA RESULT:      -9.1      2.020      5.706
  Name = 
  4 active torsions:
  status: ('A' for Active; 'I' for Inactive)
    1  A    between atoms: C_3  and  C_12
    2  A    between atoms: C_8  and  C_25
    3  A    between atoms: C_12  and  C_22
    4  A    between atoms: C_16  and  C_25
                            x       y       z     vdW  Elec       q    Type
                         _______ _______ _______ _____ _____    ______ ____

>  <TORSDO>
F 4

$$$$
=
 OpenBabel10232410013D

 26 29  0  0  0  0  0  0  0  0999 V2000
  191.5270  176.7050  143.1840 C   0  0  0  0  0  3  0  0  0  0  0  0
  184.5970  178.7480  143.5350 C   0  0  0  0  0  0  0  0  0  0  0  0
  183.4270  178.9520  145.6570 O   0  0  0  0  0  1  0  0  0  0  0  0
  189.2170  177.4760  143.2910 C   0  0  0  0  0  0  0  0  0  0  0  0
  188.1840  177.7210  145.5150 O   0  0  0  0  0  0  0  0  0  0  0  0
  186.8760  178.0190  143.5510 C   0  0  0  0  0  0  0  0  0  0  0  0
  185.7700  178.2800  145.6520 C   0  0  0  0  0  0  0  0  0  0  0  0
  183.3960  179.2070  142.7780 C   0  0  0  0  0  1  0  0  0  0  0  0
  191.6420  176.8010  144.5680 C   0  0  0  0  0  3  0  0  0  0  0  0
  186.9410  177.9860  144.9270 C   0  0  0  0  0  0  0  0  0  0  0  0
  190.3290  177.0250  142.5300 C   0  0  0  0  0  0  0  0  0  0  0  0
  189.3230  177.4650  144.7180 C   0  0  0  0  0  0  0  0  0  0  0  0
  184.5890  178.6540  144.9510 C   0  0  0  0  0  0  0  0  0  0  0  0
  185.7840  178.2340  147.1430 C   0  0  0  0  0  1  0  0  0  0  0  0
  187.4170  178.2310  141.5250 C   0  0  0  0  0  0  0  0  0  0  0  0
  187.9200  177.8460  142.7410 N   0  0  0  0  0  0  0  0  0  0  0  0
  190.5430  177.1690  145.3390 C   0  0  0  0  0  0  0  0  0  0  0  0
  186.0980  178.5800  141.5740 N   0  0  0  0  0  0  0  0  0  0  0  0
  188.2140  178.4980  140.3010 C   0  0  0  0  0  1  0  0  0  0  0  0
  185.7840  178.4230  142.8710 C   0  0  0  0  0  0  0  0  0  0  0  0
  190.6850  177.2230  146.8270 C   0  0  0  0  0  2  0  0  0  0  0  0
  191.0490  175.8610  147.3960 C   0  0  0  0  0  2  0  0  0  0  0  0
  192.4770  175.8610  147.9080 C   0  0  0  0  0  1  0  0  0  0  0  0
  190.2480  176.6890  141.0770 C   0  0  0  0  0  2  0  0  0  0  0  0
  192.4560  177.3690  139.8270 N   0  0  0  0  0  0  0  0  0  0  0  0
  191.4830  177.0690  140.3770 C   0  0  0  0  0  0  0  0  0  0  0  0
  1  9  1  0  0  0  0
  2 13  1  0  0  0  0
  4 12  2  0  0  0  0
  6 10  2  0  0  0  0
  7 14  1  0  0  0  0
  8  2  1  0  0  0  0
  9 17  2  0  0  0  0
 10  5  1  0  0  0  0
 10  7  1  0  0  0  0
 11  1  2  0  0  0  0
 11  4  1  0  0  0  0
 12 17  1  0  0  0  0
 12  5  1  0  0  0  0
 13  7  2  0  0  0  0
 13  3  1  0  0  0  0
 15 18  2  0  0  0  0
 15 16  1  0  0  0  0
 16  4  1  0  0  0  0
 16  6  1  0  0  0  0
 17 21  1  0  0  0  0
 18 20  1  0  0  0  0
 19 15  1  0  0  0  0
 20  2  2  0  0  0  0
 20  6  1  0  0  0  0
 21 22  1  0  0  0  0
 22 23  1  0  0  0  0
 24 11  1  0  0  0  0
 25 26  3  0  0  0  0
 26 24  1  0  0  0  0
M  END
>  <MODEL>
5

>  <REMARK>
 VINA RESULT:      -9.0      2.245      5.674
  Name = 
  4 active torsions:
  status: ('A' for Active; 'I' for Inactive)
    1  A    between atoms: C_3  and  C_12
    2  A    between atoms: C_8  and  C_25
    3  A    between atoms: C_12  and  C_22
    4  A    between atoms: C_16  and  C_25
                            x       y       z     vdW  Elec       q    Type
                         _______ _______ _______ _____ _____    ______ ____

>  <TORSDO>
F 4

$$$$
=
 OpenBabel10232410013D

 26 29  0  0  0  0  0  0  0  0999 V2000
  187.6200  177.8370  145.9190 C   0  0  0  0  0  3  0  0  0  0  0  0
  188.1340  178.1710  138.7120 C   0  0  0  0  0  0  0  0  0  0  0  0
  190.2210  177.7060  137.5530 O   0  0  0  0  0  1  0  0  0  0  0  0
  187.7550  177.8710  143.4860 C   0  0  0  0  0  0  0  0  0  0  0  0
  189.9120  177.2940  142.4420 O   0  0  0  0  0  0  0  0  0  0  0  0
  188.1070  178.0710  141.1030 C   0  0  0  0  0  0  0  0  0  0  0  0
  190.1490  177.5410  139.9840 C   0  0  0  0  0  0  0  0  0  0  0  0
  187.4160  178.3920  137.4230 C   0  0  0  0  0  1  0  0  0  0  0  0
  188.8920  177.2800  146.0010 C   0  0  0  0  0  3  0  0  0  0  0  0
  189.4150  177.6480  141.1820 C   0  0  0  0  0  0  0  0  0  0  0  0
  187.0400  178.1490  144.6820 C   0  0  0  0  0  0  0  0  0  0  0  0
  189.1020  177.3990  143.5960 C   0  0  0  0  0  0  0  0  0  0  0  0
  189.5070  177.8140  138.7430 C   0  0  0  0  0  0  0  0  0  0  0  0
  191.5770  177.1100  140.0200 C   0  0  0  0  0  1  0  0  0  0  0  0
  186.0600  178.3400  141.5280 C   0  0  0  0  0  0  0  0  0  0  0  0
  187.2700  178.1380  142.1380 N   0  0  0  0  0  0  0  0  0  0  0  0
  189.6410  177.0700  144.8460 C   0  0  0  0  0  0  0  0  0  0  0  0
  186.1520  178.4450  140.1700 N   0  0  0  0  0  0  0  0  0  0  0  0
  184.7300  178.2250  142.1780 C   0  0  0  0  0  1  0  0  0  0  0  0
  187.4650  178.2810  139.9350 C   0  0  0  0  0  0  0  0  0  0  0  0
  191.0220  176.5080  144.9670 C   0  0  0  0  0  2  0  0  0  0  0  0
  191.6190  176.8040  146.3330 C   0  0  0  0  0  2  0  0  0  0  0  0
  192.2830  175.5650  146.9050 C   0  0  0  0  0  1  0  0  0  0  0  0
  185.7680  178.9300  144.7160 C   0  0  0  0  0  2  0  0  0  0  0  0
  184.4480  178.4940  146.9440 N   0  0  0  0  0  0  0  0  0  0  0  0
  185.0290  178.6850  145.9620 C   0  0  0  0  0  0  0  0  0  0  0  0
  1  9  1  0  0  0  0
  2 13  2  0  0  0  0
  2 20  1  0  0  0  0
  3 13  1  0  0  0  0
  4 12  2  0  0  0  0
  4 11  1  0  0  0  0
  5 12  1  0  0  0  0
  6 10  1  0  0  0  0
  6 16  1  0  0  0  0
  7 14  1  0  0  0  0
  7 10  2  0  0  0  0
  8  2  1  0  0  0  0
 10  5  1  0  0  0  0
 11 24  1  0  0  0  0
 11  1  2  0  0  0  0
 12 17  1  0  0  0  0
 13  7  1  0  0  0  0
 15 16  1  0  0  0  0
 15 19  1  0  0  0  0
 16  4  1  0  0  0  0
 17 21  1  0  0  0  0
 17  9  2  0  0  0  0
 18 15  2  0  0  0  0
 20 18  1  0  0  0  0
 20  6  2  0  0  0  0
 21 22  1  0  0  0  0
 22 23  1  0  0  0  0
 24 26  1  0  0  0  0
 26 25  3  0  0  0  0
M  END
>  <MODEL>
6

>  <REMARK>
 VINA RESULT:      -8.8      1.768      2.334
  Name = 
  4 active torsions:
  status: ('A' for Active; 'I' for Inactive)
    1  A    between atoms: C_3  and  C_12
    2  A    between atoms: C_8  and  C_25
    3  A    between atoms: C_12  and  C_22
    4  A    between atoms: C_16  and  C_25
                            x       y       z     vdW  Elec       q    Type
                         _______ _______ _______ _____ _____    ______ ____

>  <TORSDO>
F 4

$$$$
=
 OpenBabel10232410013D

 26 29  0  0  0  0  0  0  0  0999 V2000
  191.5400  176.5920  144.5990 C   0  0  0  0  0  3  0  0  0  0  0  0
  184.6100  178.6630  144.5160 C   0  0  0  0  0  0  0  0  0  0  0  0
  183.4290  179.1040  142.4360 O   0  0  0  0  0  1  0  0  0  0  0  0
  189.1810  177.2070  144.5850 C   0  0  0  0  0  0  0  0  0  0  0  0
  188.0890  177.5380  142.4000 O   0  0  0  0  0  0  0  0  0  0  0  0
  186.9150  178.0280  144.4100 C   0  0  0  0  0  0  0  0  0  0  0  0
  185.7580  178.3870  142.3520 C   0  0  0  0  0  0  0  0  0  0  0  0
  183.3870  178.9440  145.3230 C   0  0  0  0  0  1  0  0  0  0  0  0
  191.5260  176.4300  143.2170 C   0  0  0  0  0  3  0  0  0  0  0  0
  186.9290  178.0020  143.0330 C   0  0  0  0  0  0  0  0  0  0  0  0
  190.3910  176.9870  145.2980 C   0  0  0  0  0  0  0  0  0  0  0  0
  189.2160  177.1400  143.1560 C   0  0  0  0  0  0  0  0  0  0  0  0
  184.5950  178.7280  143.0990 C   0  0  0  0  0  0  0  0  0  0  0  0
  185.7310  178.3990  140.8610 C   0  0  0  0  0  1  0  0  0  0  0  0
  187.3380  177.5800  146.4260 C   0  0  0  0  0  0  0  0  0  0  0  0
  187.9170  177.6120  145.1840 N   0  0  0  0  0  0  0  0  0  0  0  0
  190.3730  176.7140  142.4900 C   0  0  0  0  0  0  0  0  0  0  0  0
  186.0420  178.0080  146.4270 N   0  0  0  0  0  0  0  0  0  0  0  0
  187.9120  176.9370  147.6350 C   0  0  0  0  0  1  0  0  0  0  0  0
  185.8090  178.2950  145.1350 C   0  0  0  0  0  0  0  0  0  0  0  0
  190.3980  176.5720  141.0020 C   0  0  0  0  0  2  0  0  0  0  0  0
  191.5770  177.3180  140.3980 C   0  0  0  0  0  2  0  0  0  0  0  0
  191.8040  176.8850  138.9610 C   0  0  0  0  0  1  0  0  0  0  0  0
  190.5680  177.3300  146.7400 C   0  0  0  0  0  2  0  0  0  0  0  0
  192.5280  175.9470  147.8100 N   0  0  0  0  0  0  0  0  0  0  0  0
  191.6640  176.5560  147.3380 C   0  0  0  0  0  0  0  0  0  0  0  0
  1 11  1  0  0  0  0
  2 20  1  0  0  0  0
  2  8  1  0  0  0  0
  3 13  1  0  0  0  0
  4 16  1  0  0  0  0
  4 11  2  0  0  0  0
  5 10  1  0  0  0  0
  5 12  1  0  0  0  0
  6 20  2  0  0  0  0
  6 16  1  0  0  0  0
  7 10  2  0  0  0  0
  7 13  1  0  0  0  0
  9  1  2  0  0  0  0
 10  6  1  0  0  0  0
 11 24  1  0  0  0  0
 12  4  1  0  0  0  0
 13  2  2  0  0  0  0
 14  7  1  0  0  0  0
 15 18  2  0  0  0  0
 15 19  1  0  0  0  0
 16 15  1  0  0  0  0
 17 12  2  0  0  0  0
 17  9  1  0  0  0  0
 20 18  1  0  0  0  0
 21 17  1  0  0  0  0
 22 21  1  0  0  0  0
 23 22  1  0  0  0  0
 24 26  1  0  0  0  0
 26 25  3  0  0  0  0
M  END
>  <MODEL>
7

>  <REMARK>
 VINA RESULT:      -8.8      2.665      6.628
  Name = 
  4 active torsions:
  status: ('A' for Active; 'I' for Inactive)
    1  A    between atoms: C_3  and  C_12
    2  A    between atoms: C_8  and  C_25
    3  A    between atoms: C_12  and  C_22
    4  A    between atoms: C_16  and  C_25
                            x       y       z     vdW  Elec       q    Type
                         _______ _______ _______ _____ _____    ______ ____

>  <TORSDO>
F 4

$$$$
=
 OpenBabel10232410013D

 26 29  0  0  0  0  0  0  0  0999 V2000
  184.9520  178.6430  140.7010 C   0  0  0  0  0  3  0  0  0  0  0  0
  188.1570  177.4980  147.0840 C   0  0  0  0  0  0  0  0  0  0  0  0
  190.5190  176.9400  147.2510 O   0  0  0  0  0  1  0  0  0  0  0  0
  186.0360  178.3440  142.8640 C   0  0  0  0  0  0  0  0  0  0  0  0
  188.4540  177.8680  142.8860 O   0  0  0  0  0  0  0  0  0  0  0  0
  187.2060  177.8080  144.9100 C   0  0  0  0  0  0  0  0  0  0  0  0
  189.5420  177.3310  145.0510 C   0  0  0  0  0  0  0  0  0  0  0  0
  188.0040  177.4880  148.5680 C   0  0  0  0  0  1  0  0  0  0  0  0
  186.1860  178.6190  140.0590 C   0  0  0  0  0  3  0  0  0  0  0  0
  188.4150  177.6470  144.2680 C   0  0  0  0  0  0  0  0  0  0  0  0
  184.8530  178.4980  142.0920 C   0  0  0  0  0  0  0  0  0  0  0  0
  187.2830  178.2140  142.1740 C   0  0  0  0  0  0  0  0  0  0  0  0
  189.4100  177.2470  146.4660 C   0  0  0  0  0  0  0  0  0  0  0  0
  190.8680  177.1230  144.4000 C   0  0  0  0  0  1  0  0  0  0  0  0
  185.2570  178.4620  145.3760 C   0  0  0  0  0  0  0  0  0  0  0  0
  186.0780  178.1890  144.3120 N   0  0  0  0  0  0  0  0  0  0  0  0
  187.3510  178.3940  140.7870 C   0  0  0  0  0  0  0  0  0  0  0  0
  185.8400  178.2110  146.5840 N   0  0  0  0  0  0  0  0  0  0  0  0
  183.9600  179.1810  145.3090 C   0  0  0  0  0  1  0  0  0  0  0  0
  187.0710  177.7860  146.2520 C   0  0  0  0  0  0  0  0  0  0  0  0
  188.6590  178.3310  140.0640 C   0  0  0  0  0  2  0  0  0  0  0  0
  188.4840  177.7880  138.6550 C   0  0  0  0  0  2  0  0  0  0  0  0
  189.0460  178.7600  137.6340 C   0  0  0  0  0  1  0  0  0  0  0  0
  183.4790  178.3300  142.6520 C   0  0  0  0  0  2  0  0  0  0  0  0
  181.6500  178.9000  140.8550 N   0  0  0  0  0  0  0  0  0  0  0  0
  182.4550  178.6490  141.6480 C   0  0  0  0  0  0  0  0  0  0  0  0
  1 11  1  0  0  0  0
  2  8  1  0  0  0  0
  4 16  1  0  0  0  0
  5 10  1  0  0  0  0
  6 20  1  0  0  0  0
  7 13  2  0  0  0  0
  9  1  2  0  0  0  0
  9 17  1  0  0  0  0
 10  6  2  0  0  0  0
 10  7  1  0  0  0  0
 11 24  1  0  0  0  0
 11  4  2  0  0  0  0
 12  4  1  0  0  0  0
 12  5  1  0  0  0  0
 13  2  1  0  0  0  0
 13  3  1  0  0  0  0
 14  7  1  0  0  0  0
 15 18  2  0  0  0  0
 16  6  1  0  0  0  0
 16 15  1  0  0  0  0
 17 12  2  0  0  0  0
 19 15  1  0  0  0  0
 20 18  1  0  0  0  0
 20  2  2  0  0  0  0
 21 17  1  0  0  0  0
 22 21  1  0  0  0  0
 23 22  1  0  0  0  0
 25 26  3  0  0  0  0
 26 24  1  0  0  0  0
M  END
>  <MODEL>
8

>  <REMARK>
 VINA RESULT:      -8.8      1.840      5.509
  Name = 
  4 active torsions:
  status: ('A' for Active; 'I' for Inactive)
    1  A    between atoms: C_3  and  C_12
    2  A    between atoms: C_8  and  C_25
    3  A    between atoms: C_12  and  C_22
    4  A    between atoms: C_16  and  C_25
                            x       y       z     vdW  Elec       q    Type
                         _______ _______ _______ _____ _____    ______ ____

>  <TORSDO>
F 4

$$$$
=
 OpenBabel10232410013D

 26 29  0  0  0  0  0  0  0  0999 V2000
  189.8800  177.0190  144.0540 C   0  0  0  0  0  3  0  0  0  0  0  0
  183.7120  178.9620  140.8150 C   0  0  0  0  0  0  0  0  0  0  0  0
  181.6550  179.2980  142.0700 O   0  0  0  0  0  1  0  0  0  0  0  0
  187.8310  177.7560  142.9600 C   0  0  0  0  0  0  0  0  0  0  0  0
  185.8450  178.1410  144.3680 O   0  0  0  0  0  0  0  0  0  0  0  0
  185.6740  178.2760  141.9990 C   0  0  0  0  0  0  0  0  0  0  0  0
  183.6860  178.6680  143.2630 C   0  0  0  0  0  0  0  0  0  0  0  0
  183.0460  179.3450  139.5360 C   0  0  0  0  0  1  0  0  0  0  0  0
  189.3050  177.2160  145.3060 C   0  0  0  0  0  3  0  0  0  0  0  0
  185.0560  178.3430  143.2280 C   0  0  0  0  0  0  0  0  0  0  0  0
  189.1640  177.2700  142.8760 C   0  0  0  0  0  0  0  0  0  0  0  0
  187.2230  177.8490  144.2520 C   0  0  0  0  0  0  0  0  0  0  0  0
  183.0080  178.9700  142.0480 C   0  0  0  0  0  0  0  0  0  0  0  0
  182.9660  178.7280  144.5680 C   0  0  0  0  0  1  0  0  0  0  0  0
  187.1440  178.3520  140.4900 C   0  0  0  0  0  0  0  0  0  0  0  0
  186.9780  178.0640  141.8190 N   0  0  0  0  0  0  0  0  0  0  0  0
  187.9760  177.6190  145.4110 C   0  0  0  0  0  0  0  0  0  0  0  0
  185.9780  178.6810  139.8600 N   0  0  0  0  0  0  0  0  0  0  0  0
  188.4440  178.5440  139.7980 C   0  0  0  0  0  1  0  0  0  0  0  0
  185.0650  178.6120  140.8440 C   0  0  0  0  0  0  0  0  0  0  0  0
  187.3710  177.7820  146.7690 C   0  0  0  0  0  2  0  0  0  0  0  0
  188.2640  177.1860  147.8450 C   0  0  0  0  0  2  0  0  0  0  0  0
  188.9000  178.2820  148.6790 C   0  0  0  0  0  1  0  0  0  0  0  0
  189.7990  176.8310  141.5990 C   0  0  0  0  0  2  0  0  0  0  0  0
  192.3290  177.5310  141.5070 N   0  0  0  0  0  0  0  0  0  0  0  0
  191.2140  177.2230  141.5490 C   0  0  0  0  0  0  0  0  0  0  0  0
  1  9  1  0  0  0  0
  2 20  2  0  0  0  0
  2 13  1  0  0  0  0
  4 12  2  0  0  0  0
  6 10  2  0  0  0  0
  7 14  1  0  0  0  0
  8  2  1  0  0  0  0
  9 17  2  0  0  0  0
 10  7  1  0  0  0  0
 10  5  1  0  0  0  0
 11  4  1  0  0  0  0
 11  1  2  0  0  0  0
 12  5  1  0  0  0  0
 12 17  1  0  0  0  0
 13  3  1  0  0  0  0
 13  7  2  0  0  0  0
 15 16  1  0  0  0  0
 16  6  1  0  0  0  0
 16  4  1  0  0  0  0
 17 21  1  0  0  0  0
 18 15  2  0  0  0  0
 18 20  1  0  0  0  0
 19 15  1  0  0  0  0
 20  6  1  0  0  0  0
 21 22  1  0  0  0  0
 22 23  1  0  0  0  0
 24 11  1  0  0  0  0
 25 26  3  0  0  0  0
 26 24  1  0  0  0  0
M  END
>  <MODEL>
9

>  <REMARK>
 VINA RESULT:      -8.6      2.207      5.279
  Name = 
  4 active torsions:
  status: ('A' for Active; 'I' for Inactive)
    1  A    between atoms: C_3  and  C_12
    2  A    between atoms: C_8  and  C_25
    3  A    between atoms: C_12  and  C_22
    4  A    between atoms: C_16  and  C_25
                            x       y       z     vdW  Elec       q    Type
                         _______ _______ _______ _____ _____    ______ ____

>  <TORSDO>
F 4

$$$$
