=
 OpenBabel10222421393D

 60 68  0  0  1  0  0  0  0  0999 V2000
  184.7920  172.4420  137.2660 C   0  0  1  0  0  3  0  0  0  0  0  0
  182.2400  179.2660  140.7580 C   0  0  1  0  0  3  0  0  0  0  0  0
  189.0820  174.4030  135.5570 C   0  0  0  0  0  2  0  0  0  0  0  0
  189.4060  177.6400  135.7690 C   0  0  0  0  0  2  0  0  0  0  0  0
  185.5160  178.0280  138.4050 C   0  0  0  0  0  0  0  0  0  0  0  0
  183.5360  171.5970  136.9440 C   0  0  2  0  0  3  0  0  0  0  0  0
  183.1530  174.5390  137.5130 C   0  0  1  0  0  3  0  0  0  0  0  0
  186.8280  178.9380  141.7180 C   0  0  0  0  0  1  0  0  0  0  0  0
  183.7010  178.7870  140.8260 C   0  0  0  0  0  2  0  0  0  0  0  0
  181.5490  178.8850  139.4780 C   0  0  0  0  0  0  0  0  0  0  0  0
  188.2210  178.1570  139.8120 C   0  0  0  0  0  0  0  0  0  0  0  0
  184.5490  173.9430  137.2250 C   0  0  0  0  0  0  0  0  0  0  0  0
  188.0850  177.3530  136.1410 O   0  0  0  0  0  0  0  0  0  0  0  0
  183.2110  176.0010  137.9240 C   0  0  1  0  0  3  0  0  0  0  0  0
  188.1740  171.8730  135.5810 C   0  0  0  0  0  0  0  0  0  0  0  0
  190.6560  175.9990  134.3700 C   0  0  0  0  0  2  0  0  0  0  0  0
  185.5740  174.7460  136.9080 C   0  0  0  0  0  3  0  0  0  0  0  0
  183.1820  170.7770  135.7230 C   0  0  2  0  0  0  0  0  0  0  0  0
  180.6740  179.7820  138.8850 O   0  0  0  0  0  1  0  0  0  0  0  0
  186.3610  176.9140  137.9360 C   0  0  1  0  0  3  0  0  0  0  0  0
  181.7030  172.0950  135.0840 C   0  0  2  0  0  0  0  0  0  0  0  0
  189.6470  177.1420  134.3460 C   0  0  0  0  0  2  0  0  0  0  0  0
  185.3170  172.0390  138.5060 O   0  0  0  0  0  1  0  0  0  0  0  0
  186.2180  170.3890  135.9170 C   0  0  0  0  0  2  0  0  0  0  0  0
  188.5700  173.0180  135.5410 C   0  0  0  0  0  0  0  0  0  0  0  0
  181.7290  170.6160  135.2680 C   0  0  0  0  0  2  0  0  0  0  0  0
  185.5010  176.2580  136.8370 C   0  0  2  0  0  3  0  0  0  0  0  0
  184.2990  170.0000  134.9230 C   0  0  0  0  0  2  0  0  0  0  0  0
  184.3330  178.0920  137.6850 O   0  0  0  0  0  0  0  0  0  0  0  0
  187.6960  177.4210  137.4870 C   0  0  0  0  0  0  0  0  0  0  0  0
  180.6900  172.7800  134.3480 O   0  0  0  0  0  1  0  0  0  0  0  0
  184.0950  176.8710  137.0130 C   0  0  2  0  0  0  0  0  0  0  0  0
  183.0390  172.3130  135.6600 C   0  0  2  0  0  0  0  0  0  0  0  0
  189.1990  178.1440  140.6140 O   0  0  0  0  0  0  0  0  0  0  0  0
  184.6150  179.6340  139.9630 C   0  0  0  0  0  2  0  0  0  0  0  0
  187.7200  170.4820  135.6610 C   0  0  0  0  0  2  0  0  0  0  0  0
  182.1030  174.2500  136.3890 C   0  0  0  0  0  2  0  0  0  0  0  0
  181.8390  172.7980  136.3560 N   0  0  1  0  0  0  0  0  0  0  0  0
  183.4560  177.1500  135.6560 C   0  0  0  0  0  1  0  0  0  0  0  0
  185.4780  170.7340  134.7930 O   0  0  0  0  0  0  0  0  0  0  0  0
  181.7300  177.7230  138.9040 C   0  0  0  0  0  0  0  0  0  0  0  0
  188.5300  177.9480  138.3970 C   0  0  0  0  0  3  0  0  0  0  0  0
  181.8690  176.5850  138.2800 C   0  0  0  0  0  3  0  0  0  0  0  0
  185.7520  178.7850  139.4800 C   0  0  0  0  0  0  0  0  0  0  0  0
  186.9250  178.5830  140.3040 N   0  0  0  0  0  0  0  0  0  0  0  0
  190.0030  174.6120  134.3660 C   0  0  0  0  0  2  0  0  0  0  0  0
  180.6720  177.7570  141.7340 O   0  0  0  0  0  0  0  0  0  0  0  0
  181.4810  178.7200  141.9190 C   0  0  0  0  0  0  0  0  0  0  0  0
  181.6730  179.2710  143.1810 O   0  0  0  0  0  0  0  0  0  0  0  0
  184.1620  180.3320  144.1290 O   0  0  0  0  0  0  0  0  0  0  0  0
  182.5130  178.6620  144.1010 N   0  0  0  0  0  2  0  0  0  0  0  0
  183.8260  179.1440  144.3900 C   0  0  0  0  0  0  0  0  0  0  0  0
  184.8060  178.1970  145.0250 C   0  0  2  0  0  3  0  0  0  0  0  0
  184.3960  177.5350  147.2890 O   0  0  0  0  0  1  0  0  0  0  0  0
  184.8750  178.4040  146.5010 C   0  0  0  0  0  0  0  0  0  0  0  0
  185.5200  179.5180  147.0380 O   0  0  0  0  0  0  0  0  0  0  0  0
  186.2040  178.3610  144.4100 C   0  0  0  0  0  2  0  0  0  0  0  0
  188.0650  177.3320  145.7730 O   0  0  0  0  0  1  0  0  0  0  0  0
  187.1460  176.2050  143.9810 O   0  0  0  0  0  0  0  0  0  0  0  0
  187.1310  177.2230  144.7350 C   0  0  0  0  0  0  0  0  0  0  0  0
  1 23  1  1  0  0  0
  2  9  1  0  0  0  0
  2 48  1  1  0  0  0
  4 13  1  0  0  0  0
  5 44  2  0  0  0  0
  6  1  1  0  0  0  0
  7 14  1  0  0  0  0
 10  2  1  0  0  0  0
 11 45  1  0  0  0  0
 11 34  2  0  0  0  0
 12  1  1  0  0  0  0
 12  7  1  0  0  0  0
 13 30  1  0  0  0  0
 14 43  1  0  0  0  0
 15 36  1  0  0  0  0
 17 12  2  0  0  0  0
 18  6  1  0  0  0  0
 19 10  1  0  0  0  0
 20  5  1  0  0  0  0
 21 26  1  0  0  0  0
 21 33  1  0  0  0  0
 21 38  1  0  0  0  0
 22 16  1  0  0  0  0
 22  4  1  0  0  0  0
 25  3  1  0  0  0  0
 25 15  3  0  0  0  0
 26 18  1  0  0  0  0
 27 17  1  0  0  0  0
 27 32  1  0  0  0  0
 27 20  1  0  0  0  0
 28 18  1  0  0  0  0
 29  5  1  0  0  0  0
 30 20  1  0  0  0  0
 30 42  2  0  0  0  0
 31 21  1  0  0  0  0
 32 29  1  0  0  0  0
 32 14  1  0  0  0  0
 33 18  1  0  0  0  0
 33 38  1  0  0  0  0
 33  6  1  0  0  0  0
 35  9  1  0  0  0  0
 36 24  1  0  0  0  0
 37  7  1  0  0  0  0
 38 37  1  0  0  0  0
 39 32  1  0  0  0  0
 40 28  1  0  0  0  0
 40 24  1  0  0  0  0
 41 10  2  0  0  0  0
 42 11  1  0  0  0  0
 43 41  2  0  0  0  0
 44 35  1  0  0  0  0
 44 45  1  0  0  0  0
 45  8  1  0  0  0  0
 46 16  1  0  0  0  0
 46  3  1  0  0  0  0
 47 48  2  0  0  0  0
 48 49  1  0  0  0  0
 49 51  1  0  0  0  0
 50 52  2  0  0  0  0
 51 52  1  0  0  0  0
 52 53  1  0  0  0  0
 53 55  1  0  0  0  0
 55 56  2  0  0  0  0
 55 54  1  0  0  0  0
 57 60  1  0  0  0  0
 57 53  1  0  0  0  0
 59 60  2  0  0  0  0
 60 58  1  0  0  0  0
M  END
>  <MODEL>
1

>  <REMARK>
 VINA RESULT:      -7.0      0.000      0.000
  Name = 
  7 active torsions:
  status: ('A' for Active; 'I' for Inactive)
    1  A    between atoms: C_2  and  C_36
    2  A    between atoms: C_3  and  C_20
    3  A    between atoms: C_3  and  C_22
    4  A    between atoms: C_3  and  C_23
    5  A    between atoms: O_4  and  N_11
    6  A    between atoms: O_4  and  C_36
    7  A    between atoms: C_20  and  C_58
                            x       y       z     vdW  Elec       q    Type
                         _______ _______ _______ _____ _____    ______ ____

>  <TORSDO>
F 7

$$$$
=
 OpenBabel10222421393D

 60 68  0  0  1  0  0  0  0  0999 V2000
  188.3190  176.5300  143.1230 C   0  0  1  0  0  3  0  0  0  0  0  0
  191.5650  174.6200  135.9750 C   0  0  1  0  0  3  0  0  0  0  0  0
  184.0730  178.3800  141.1950 C   0  0  0  0  0  2  0  0  0  0  0  0
  183.9910  178.8100  137.9640 C   0  0  0  0  0  2  0  0  0  0  0  0
  188.0640  176.5060  137.3820 C   0  0  0  0  0  0  0  0  0  0  0  0
  189.4900  176.7370  144.1150 C   0  0  2  0  0  3  0  0  0  0  0  0
  190.1130  176.7940  141.1590 C   0  0  1  0  0  3  0  0  0  0  0  0
  187.0390  173.3830  135.7320 C   0  0  0  0  0  1  0  0  0  0  0  0
  190.0820  174.3840  136.3110 C   0  0  0  0  0  2  0  0  0  0  0  0
  192.1430  175.8300  136.6560 C   0  0  0  0  0  0  0  0  0  0  0  0
  185.4720  175.0190  136.7580 C   0  0  0  0  0  0  0  0  0  0  0  0
  188.6630  176.8860  141.6840 C   0  0  0  0  0  0  0  0  0  0  0  0
  185.3090  178.4550  138.2790 O   0  0  0  0  0  0  0  0  0  0  0  0
  190.1850  176.6850  139.6450 C   0  0  1  0  0  3  0  0  0  0  0  0
  184.8030  177.8930  143.7360 C   0  0  0  0  0  0  0  0  0  0  0  0
  182.5400  179.7840  139.7410 C   0  0  0  0  0  2  0  0  0  0  0  0
  187.6780  177.3060  140.8790 C   0  0  0  0  0  3  0  0  0  0  0  0
  189.7040  177.7840  145.1850 C   0  0  2  0  0  0  0  0  0  0  0  0
  193.0370  176.6360  135.9690 O   0  0  0  0  0  1  0  0  0  0  0  0
  187.1130  176.6980  138.4940 C   0  0  1  0  0  3  0  0  0  0  0  0
  191.2260  178.7500  144.1450 C   0  0  2  0  0  0  0  0  0  0  0  0
  183.6220  180.0890  138.7120 C   0  0  0  0  0  2  0  0  0  0  0  0
  187.8500  175.2090  143.2290 O   0  0  0  0  0  1  0  0  0  0  0  0
  186.6680  177.3630  145.2790 C   0  0  0  0  0  2  0  0  0  0  0  0
  184.4850  178.1430  142.5930 C   0  0  0  0  0  0  0  0  0  0  0  0
  191.1090  178.2710  145.5510 C   0  0  0  0  0  2  0  0  0  0  0  0
  187.8520  177.6840  139.4220 C   0  0  2  0  0  3  0  0  0  0  0  0
  188.4850  178.3540  146.0120 C   0  0  0  0  0  2  0  0  0  0  0  0
  189.1980  177.2840  137.5590 O   0  0  0  0  0  0  0  0  0  0  0  0
  185.7910  177.1710  137.9780 C   0  0  0  0  0  0  0  0  0  0  0  0
  192.2330  179.6600  143.7030 O   0  0  0  0  0  1  0  0  0  0  0  0
  189.3060  177.7060  138.9030 C   0  0  2  0  0  0  0  0  0  0  0  0
  189.9490  178.1630  143.7080 C   0  0  2  0  0  0  0  0  0  0  0  0
  184.5510  174.1830  136.5320 O   0  0  0  0  0  0  0  0  0  0  0  0
  189.1750  175.3530  135.5790 C   0  0  0  0  0  2  0  0  0  0  0  0
  185.1620  177.5570  145.1160 C   0  0  0  0  0  2  0  0  0  0  0  0
  191.0640  177.8890  141.7490 C   0  0  0  0  0  2  0  0  0  0  0  0
  191.2230  177.6410  143.1960 N   0  0  1  0  0  0  0  0  0  0  0  0
  189.8720  179.1220  138.9500 C   0  0  0  0  0  1  0  0  0  0  0  0
  187.3540  178.5690  145.2240 O   0  0  0  0  0  0  0  0  0  0  0  0
  191.8440  176.1480  137.8900 C   0  0  0  0  0  0  0  0  0  0  0  0
  185.0570  176.3460  137.2170 C   0  0  0  0  0  3  0  0  0  0  0  0
  191.5840  176.5220  139.1130 C   0  0  0  0  0  3  0  0  0  0  0  0
  187.9520  175.5960  136.4110 C   0  0  0  0  0  0  0  0  0  0  0  0
  186.8240  174.6900  136.3500 N   0  0  0  0  0  0  0  0  0  0  0  0
  183.0930  179.5410  141.1510 C   0  0  0  0  0  2  0  0  0  0  0  0
  192.1820  172.3340  135.6940 O   0  0  0  0  0  0  0  0  0  0  0  0
  192.3590  173.4130  136.3410 C   0  0  0  0  0  0  0  0  0  0  0  0
  193.2780  173.4890  137.3820 O   0  0  0  0  0  0  0  0  0  0  0  0
  195.4660  172.2180  138.7290 O   0  0  0  0  0  0  0  0  0  0  0  0
  194.6230  173.7090  137.1250 N   0  0  0  0  0  2  0  0  0  0  0  0
  195.6650  173.1930  137.9540 C   0  0  0  0  0  0  0  0  0  0  0  0
  197.0200  173.8410  137.8770 C   0  0  2  0  0  3  0  0  0  0  0  0
  198.2780  175.5040  139.0550 O   0  0  0  0  0  0  0  0  0  0  0  0
  197.2070  174.8300  138.9790 C   0  0  0  0  0  0  0  0  0  0  0  0
  196.1890  175.0750  139.9010 O   0  0  0  0  0  1  0  0  0  0  0  0
  197.2210  174.5310  136.5190 C   0  0  0  0  0  2  0  0  0  0  0  0
  198.8260  172.9250  135.4130 O   0  0  0  0  0  0  0  0  0  0  0  0
  199.4590  175.0920  135.8930 O   0  0  0  0  0  1  0  0  0  0  0  0
  198.5460  174.2140  135.8850 C   0  0  0  0  0  0  0  0  0  0  0  0
  1 23  1  6  0  0  0
  1  6  1  0  0  0  0
  2  9  1  0  0  0  0
  2 48  1  1  0  0  0
  2 10  1  0  0  0  0
  3 25  1  0  0  0  0
  4 13  1  0  0  0  0
  4 22  1  0  0  0  0
  5 29  1  0  0  0  0
  5 20  1  0  0  0  0
  6 18  1  0  0  0  0
  7 12  1  0  0  0  0
  7 37  1  0  0  0  0
  8 45  1  0  0  0  0
 10 41  2  0  0  0  0
 11 42  1  0  0  0  0
 12  1  1  0  0  0  0
 14  7  1  0  0  0  0
 15 36  1  0  0  0  0
 16 46  1  0  0  0  0
 17 12  2  0  0  0  0
 18 26  1  0  0  0  0
 18 28  1  0  0  0  0
 19 10  1  0  0  0  0
 20 27  1  0  0  0  0
 21 26  1  0  0  0  0
 22 16  1  0  0  0  0
 25 15  3  0  0  0  0
 27 17  1  0  0  0  0
 29 32  1  0  0  0  0
 30 13  1  0  0  0  0
 30 20  1  0  0  0  0
 31 21  1  0  0  0  0
 32 39  1  0  0  0  0
 32 27  1  0  0  0  0
 32 14  1  0  0  0  0
 33  6  1  0  0  0  0
 33 21  1  0  0  0  0
 33 18  1  0  0  0  0
 34 11  2  0  0  0  0
 35  9  1  0  0  0  0
 35 44  1  0  0  0  0
 36 24  1  0  0  0  0
 37 38  1  0  0  0  0
 38 33  1  0  0  0  0
 38 21  1  0  0  0  0
 40 24  1  0  0  0  0
 40 28  1  0  0  0  0
 41 43  2  0  0  0  0
 42 30  2  0  0  0  0
 43 14  1  0  0  0  0
 44  5  2  0  0  0  0
 45 44  1  0  0  0  0
 45 11  1  0  0  0  0
 46  3  1  0  0  0  0
 47 48  2  0  0  0  0
 48 49  1  0  0  0  0
 51 49  1  0  0  0  0
 51 52  1  0  0  0  0
 52 50  2  0  0  0  0
 53 52  1  0  0  0  0
 53 55  1  0  0  0  0
 55 54  2  0  0  0  0
 55 56  1  0  0  0  0
 57 53  1  0  0  0  0
 58 60  2  0  0  0  0
 60 59  1  0  0  0  0
 60 57  1  0  0  0  0
M  END
>  <MODEL>
2

>  <REMARK>
 VINA RESULT:      -5.8      4.593     10.935
  Name = 
  7 active torsions:
  status: ('A' for Active; 'I' for Inactive)
    1  A    between atoms: C_2  and  C_36
    2  A    between atoms: C_3  and  C_20
    3  A    between atoms: C_3  and  C_22
    4  A    between atoms: C_3  and  C_23
    5  A    between atoms: O_4  and  N_11
    6  A    between atoms: O_4  and  C_36
    7  A    between atoms: C_20  and  C_58
                            x       y       z     vdW  Elec       q    Type
                         _______ _______ _______ _____ _____    ______ ____

>  <TORSDO>
F 7

$$$$
=
 OpenBabel10222421393D

 60 68  0  0  1  0  0  0  0  0999 V2000
  185.6000  172.5290  137.1370 C   0  0  1  0  0  3  0  0  0  0  0  0
  184.8140  179.4110  141.2960 C   0  0  1  0  0  3  0  0  0  0  0  0
  190.2500  173.5170  135.5320 C   0  0  0  0  0  2  0  0  0  0  0  0
  191.3680  176.5380  136.0360 C   0  0  0  0  0  2  0  0  0  0  0  0
  187.6870  177.6280  138.7740 C   0  0  0  0  0  0  0  0  0  0  0  0
  184.1740  172.0570  136.7640 C   0  0  2  0  0  3  0  0  0  0  0  0
  184.5330  174.9340  137.6110 C   0  0  1  0  0  3  0  0  0  0  0  0
  189.1730  177.8660  142.1300 C   0  0  0  0  0  1  0  0  0  0  0  0
  186.1100  178.5800  141.2900 C   0  0  0  0  0  2  0  0  0  0  0  0
  184.0540  179.3370  140.0010 C   0  0  0  0  0  0  0  0  0  0  0  0
  190.3340  176.9470  140.1320 C   0  0  0  0  0  0  0  0  0  0  0  0
  185.7390  174.0410  137.2400 C   0  0  0  0  0  0  0  0  0  0  0  0
  190.0160  176.5530  136.4060 O   0  0  0  0  0  0  0  0  0  0  0  0
  184.9520  176.2900  138.1530 C   0  0  1  0  0  3  0  0  0  0  0  0
  188.7400  171.3020  135.3390 C   0  0  0  0  0  0  0  0  0  0  0  0
  192.1760  174.7780  134.4670 C   0  0  0  0  0  2  0  0  0  0  0  0
  186.9320  174.5910  136.9780 C   0  0  0  0  0  3  0  0  0  0  0  0
  183.6320  171.4700  135.4800 C   0  0  2  0  0  0  0  0  0  0  0  0
  183.4330  180.4740  139.5100 O   0  0  0  0  0  1  0  0  0  0  0  0
  188.2310  176.3880  138.1870 C   0  0  1  0  0  3  0  0  0  0  0  0
  182.5300  173.1670  134.9950 C   0  0  2  0  0  0  0  0  0  0  0  0
  191.4830  176.1320  134.5680 C   0  0  0  0  0  2  0  0  0  0  0  0
  186.0040  171.8930  138.3240 O   0  0  0  0  0  1  0  0  0  0  0  0
  186.4750  170.3240  135.5760 C   0  0  0  0  0  2  0  0  0  0  0  0
  189.4090  172.3100  135.3980 C   0  0  0  0  0  0  0  0  0  0  0  0
  182.1870  171.7170  135.0400 C   0  0  0  0  0  2  0  0  0  0  0  0
  187.2380  176.0730  137.0490 C   0  0  2  0  0  3  0  0  0  0  0  0
  184.5230  170.5190  134.5890 C   0  0  0  0  0  2  0  0  0  0  0  0
  186.5600  178.0500  138.0860 O   0  0  0  0  0  0  0  0  0  0  0  0
  189.6510  176.5880  137.7600 C   0  0  0  0  0  0  0  0  0  0  0  0
  181.7230  174.1490  134.3460 O   0  0  0  0  0  1  0  0  0  0  0  0
  186.0280  176.9960  137.3090 C   0  0  2  0  0  0  0  0  0  0  0  0
  183.8760  172.9920  135.5620 C   0  0  2  0  0  0  0  0  0  0  0  0
  191.2750  176.6170  140.9100 O   0  0  0  0  0  0  0  0  0  0  0  0
  187.2090  179.2520  140.4910 C   0  0  0  0  0  2  0  0  0  0  0  0
  187.9540  170.0650  135.2990 C   0  0  0  0  0  2  0  0  0  0  0  0
  183.4490  175.0220  136.4850 C   0  0  0  0  0  2  0  0  0  0  0  0
  182.8320  173.6910  136.3240 N   0  0  1  0  0  0  0  0  0  0  0  0
  185.4840  177.5520  135.9970 C   0  0  0  0  0  1  0  0  0  0  0  0
  185.8490  170.9460  134.5040 O   0  0  0  0  0  0  0  0  0  0  0  0
  183.9430  178.2260  139.3180 C   0  0  0  0  0  0  0  0  0  0  0  0
  190.5870  176.8030  138.6970 C   0  0  0  0  0  3  0  0  0  0  0  0
  183.7970  177.1530  138.5890 C   0  0  0  0  0  3  0  0  0  0  0  0
  188.1000  178.1970  139.9090 C   0  0  0  0  0  0  0  0  0  0  0  0
  189.1840  177.6330  140.6870 N   0  0  0  0  0  0  0  0  0  0  0  0
  191.1970  173.6030  134.3460 C   0  0  0  0  0  2  0  0  0  0  0  0
  182.7910  179.4900  142.5560 O   0  0  0  0  0  0  0  0  0  0  0  0
  183.9390  178.9630  142.4170 C   0  0  0  0  0  0  0  0  0  0  0  0
  184.3930  177.9780  143.2860 O   0  0  0  0  0  0  0  0  0  0  0  0
  186.8590  176.8130  144.1700 O   0  0  0  0  0  0  0  0  0  0  0  0
  185.0770  178.3150  144.4450 N   0  0  0  0  0  2  0  0  0  0  0  0
  186.1960  177.5710  144.9300 C   0  0  0  0  0  0  0  0  0  0  0  0
  186.5720  177.7170  146.3780 C   0  0  2  0  0  3  0  0  0  0  0  0
  184.4770  178.3740  147.3330 O   0  0  0  0  0  0  0  0  0  0  0  0
  185.6760  178.6890  147.0700 C   0  0  0  0  0  0  0  0  0  0  0  0
  186.1560  179.9280  147.4940 O   0  0  0  0  0  1  0  0  0  0  0  0
  188.0350  178.1640  146.5210 C   0  0  0  0  0  2  0  0  0  0  0  0
  188.5030  177.8820  148.9870 O   0  0  0  0  0  1  0  0  0  0  0  0
  189.6670  176.6600  147.4120 O   0  0  0  0  0  0  0  0  0  0  0  0
  188.7480  177.4950  147.6630 C   0  0  0  0  0  0  0  0  0  0  0  0
  1 12  1  0  0  0  0
  1 23  1  1  0  0  0
  2 48  1  1  0  0  0
  4 13  1  0  0  0  0
  5 44  2  0  0  0  0
  6  1  1  0  0  0  0
  7 14  1  0  0  0  0
  9  2  1  0  0  0  0
 10  2  1  0  0  0  0
 11 45  1  0  0  0  0
 11 34  2  0  0  0  0
 12  7  1  0  0  0  0
 13 30  1  0  0  0  0
 14 43  1  0  0  0  0
 15 25  3  0  0  0  0
 16 22  1  0  0  0  0
 17 27  1  0  0  0  0
 17 12  2  0  0  0  0
 18 33  1  0  0  0  0
 18  6  1  0  0  0  0
 19 10  1  0  0  0  0
 20  5  1  0  0  0  0
 21 26  1  0  0  0  0
 21 33  1  0  0  0  0
 21 38  1  0  0  0  0
 22  4  1  0  0  0  0
 25  3  1  0  0  0  0
 26 18  1  0  0  0  0
 27 32  1  0  0  0  0
 27 20  1  0  0  0  0
 28 18  1  0  0  0  0
 29  5  1  0  0  0  0
 30 20  1  0  0  0  0
 30 42  2  0  0  0  0
 31 21  1  0  0  0  0
 32 29  1  0  0  0  0
 32 14  1  0  0  0  0
 33 38  1  0  0  0  0
 33  6  1  0  0  0  0
 35  9  1  0  0  0  0
 36 15  1  0  0  0  0
 36 24  1  0  0  0  0
 37  7  1  0  0  0  0
 38 37  1  0  0  0  0
 39 32  1  0  0  0  0
 40 28  1  0  0  0  0
 40 24  1  0  0  0  0
 41 10  2  0  0  0  0
 42 11  1  0  0  0  0
 43 41  2  0  0  0  0
 44 35  1  0  0  0  0
 44 45  1  0  0  0  0
 45  8  1  0  0  0  0
 46 16  1  0  0  0  0
 46  3  1  0  0  0  0
 48 47  2  0  0  0  0
 48 49  1  0  0  0  0
 49 51  1  0  0  0  0
 50 52  2  0  0  0  0
 51 52  1  0  0  0  0
 52 53  1  0  0  0  0
 53 57  1  0  0  0  0
 53 55  1  0  0  0  0
 55 54  2  0  0  0  0
 55 56  1  0  0  0  0
 57 60  1  0  0  0  0
 59 60  2  0  0  0  0
 60 58  1  0  0  0  0
M  END
>  <MODEL>
3

>  <REMARK>
 VINA RESULT:      -5.7      1.636      2.141
  Name = 
  7 active torsions:
  status: ('A' for Active; 'I' for Inactive)
    1  A    between atoms: C_2  and  C_36
    2  A    between atoms: C_3  and  C_20
    3  A    between atoms: C_3  and  C_22
    4  A    between atoms: C_3  and  C_23
    5  A    between atoms: O_4  and  N_11
    6  A    between atoms: O_4  and  C_36
    7  A    between atoms: C_20  and  C_58
                            x       y       z     vdW  Elec       q    Type
                         _______ _______ _______ _____ _____    ______ ____

>  <TORSDO>
F 7

$$$$
=
 OpenBabel10222421393D

 60 68  0  0  1  0  0  0  0  0999 V2000
  188.4540  176.4580  143.0150 C   0  0  1  0  0  3  0  0  0  0  0  0
  191.5440  174.5800  135.7900 C   0  0  1  0  0  3  0  0  0  0  0  0
  184.1840  178.3540  141.1840 C   0  0  0  0  0  2  0  0  0  0  0  0
  184.0420  178.8100  137.9590 C   0  0  0  0  0  2  0  0  0  0  0  0
  188.0850  176.4810  137.2800 C   0  0  0  0  0  0  0  0  0  0  0  0
  189.6440  176.6490  143.9840 C   0  0  2  0  0  3  0  0  0  0  0  0
  190.2110  176.7240  141.0180 C   0  0  1  0  0  3  0  0  0  0  0  0
  187.0050  173.3790  135.6260 C   0  0  0  0  0  1  0  0  0  0  0  0
  190.0670  174.3520  136.1530 C   0  0  0  0  0  2  0  0  0  0  0  0
  192.1440  175.7810  136.4690 C   0  0  0  0  0  0  0  0  0  0  0  0
  185.4710  175.0180  136.6950 C   0  0  0  0  0  0  0  0  0  0  0  0
  188.7710  176.8230  141.5720 C   0  0  0  0  0  0  0  0  0  0  0  0
  185.3640  178.4430  138.2460 O   0  0  0  0  0  0  0  0  0  0  0  0
  190.2510  176.6260  139.5020 C   0  0  1  0  0  3  0  0  0  0  0  0
  184.9600  177.8420  143.7060 C   0  0  0  0  0  0  0  0  0  0  0  0
  182.6330  179.7810  139.7720 C   0  0  0  0  0  2  0  0  0  0  0  0
  187.7740  177.2560  140.7900 C   0  0  0  0  0  3  0  0  0  0  0  0
  189.8880  177.6860  145.0590 C   0  0  2  0  0  0  0  0  0  0  0  0
  193.0300  176.5860  135.7700 O   0  0  0  0  0  1  0  0  0  0  0  0
  187.1580  176.6710  138.4110 C   0  0  1  0  0  3  0  0  0  0  0  0
  191.3960  178.6490  143.9960 C   0  0  2  0  0  0  0  0  0  0  0  0
  183.6980  180.0860  138.7240 C   0  0  0  0  0  2  0  0  0  0  0  0
  187.9760  175.1400  143.1200 O   0  0  0  0  0  1  0  0  0  0  0  0
  186.8510  177.2860  145.2090 C   0  0  0  0  0  2  0  0  0  0  0  0
  184.6220  178.1030  142.5720 C   0  0  0  0  0  0  0  0  0  0  0  0
  191.3030  178.1600  145.4010 C   0  0  0  0  0  2  0  0  0  0  0  0
  187.9220  177.6450  139.3320 C   0  0  2  0  0  3  0  0  0  0  0  0
  188.6900  178.2580  145.9130 C   0  0  0  0  0  2  0  0  0  0  0  0
  189.2290  177.2490  137.4400 O   0  0  0  0  0  0  0  0  0  0  0  0
  185.8290  177.1580  137.9250 C   0  0  0  0  0  0  0  0  0  0  0  0
  192.4010  179.5540  143.5420 O   0  0  0  0  0  1  0  0  0  0  0  0
  189.3660  177.6600  138.7850 C   0  0  2  0  0  0  0  0  0  0  0  0
  190.1070  178.0750  143.5800 C   0  0  2  0  0  0  0  0  0  0  0  0
  184.5390  174.1910  136.4810 O   0  0  0  0  0  0  0  0  0  0  0  0
  189.1520  175.3340  135.4460 C   0  0  0  0  0  2  0  0  0  0  0  0
  185.3440  177.4930  145.0770 C   0  0  0  0  0  2  0  0  0  0  0  0
  191.1810  177.8080  141.5970 C   0  0  0  0  0  2  0  0  0  0  0  0
  191.3660  177.5470  143.0390 N   0  0  1  0  0  0  0  0  0  0  0  0
  189.9430  179.0720  138.8320 C   0  0  0  0  0  1  0  0  0  0  0  0
  187.5450  178.4880  145.1490 O   0  0  0  0  0  0  0  0  0  0  0  0
  191.8720  176.0910  137.7110 C   0  0  0  0  0  0  0  0  0  0  0  0
  185.0750  176.3450  137.1720 C   0  0  0  0  0  3  0  0  0  0  0  0
  191.6390  176.4570  138.9420 C   0  0  0  0  0  3  0  0  0  0  0  0
  187.9480  175.5800  136.3040 C   0  0  0  0  0  0  0  0  0  0  0  0
  186.8120  174.6820  136.2580 N   0  0  0  0  0  0  0  0  0  0  0  0
  183.2120  179.5230  141.1680 C   0  0  0  0  0  2  0  0  0  0  0  0
  191.7860  172.2220  136.0470 O   0  0  0  0  0  0  0  0  0  0  0  0
  192.3360  173.3650  136.1310 C   0  0  0  0  0  0  0  0  0  0  0  0
  193.6600  173.5020  136.5330 O   0  0  0  0  0  0  0  0  0  0  0  0
  195.2500  173.0080  138.8680 O   0  0  0  0  0  0  0  0  0  0  0  0
  194.4540  172.3860  136.7490 N   0  0  0  0  0  2  0  0  0  0  0  0
  195.3700  172.2840  137.8410 C   0  0  0  0  0  0  0  0  0  0  0  0
  196.4850  171.2820  137.7420 C   0  0  2  0  0  3  0  0  0  0  0  0
  198.0690  170.9990  135.9680 O   0  0  0  0  0  0  0  0  0  0  0  0
  197.5690  171.7710  136.8400 C   0  0  0  0  0  0  0  0  0  0  0  0
  198.0040  173.0950  136.8970 O   0  0  0  0  0  1  0  0  0  0  0  0
  195.9620  169.9280  137.2380 C   0  0  0  0  0  2  0  0  0  0  0  0
  194.9000  168.9360  139.3040 O   0  0  0  0  0  1  0  0  0  0  0  0
  196.8150  168.0190  138.4000 O   0  0  0  0  0  0  0  0  0  0  0  0
  195.8920  168.8830  138.3170 C   0  0  0  0  0  0  0  0  0  0  0  0
  1 23  1  6  0  0  0
  1  6  1  0  0  0  0
  2 48  1  1  0  0  0
  2  9  1  0  0  0  0
  2 10  1  0  0  0  0
  3 25  1  0  0  0  0
  4 13  1  0  0  0  0
  4 22  1  0  0  0  0
  5 29  1  0  0  0  0
  5 20  1  0  0  0  0
  6 18  1  0  0  0  0
  7 12  1  0  0  0  0
  7 37  1  0  0  0  0
  8 45  1  0  0  0  0
 10 41  2  0  0  0  0
 11 42  1  0  0  0  0
 12  1  1  0  0  0  0
 14  7  1  0  0  0  0
 15 36  1  0  0  0  0
 16 46  1  0  0  0  0
 17 12  2  0  0  0  0
 18 26  1  0  0  0  0
 18 28  1  0  0  0  0
 19 10  1  0  0  0  0
 20 27  1  0  0  0  0
 21 26  1  0  0  0  0
 22 16  1  0  0  0  0
 25 15  3  0  0  0  0
 27 17  1  0  0  0  0
 29 32  1  0  0  0  0
 30 13  1  0  0  0  0
 30 20  1  0  0  0  0
 31 21  1  0  0  0  0
 32 39  1  0  0  0  0
 32 27  1  0  0  0  0
 32 14  1  0  0  0  0
 33  6  1  0  0  0  0
 33 21  1  0  0  0  0
 33 18  1  0  0  0  0
 34 11  2  0  0  0  0
 35  9  1  0  0  0  0
 35 44  1  0  0  0  0
 36 24  1  0  0  0  0
 37 38  1  0  0  0  0
 38 33  1  0  0  0  0
 38 21  1  0  0  0  0
 40 24  1  0  0  0  0
 40 28  1  0  0  0  0
 41 43  2  0  0  0  0
 42 30  2  0  0  0  0
 43 14  1  0  0  0  0
 44  5  2  0  0  0  0
 45 44  1  0  0  0  0
 45 11  1  0  0  0  0
 46  3  1  0  0  0  0
 47 48  2  0  0  0  0
 48 49  1  0  0  0  0
 49 51  1  0  0  0  0
 51 52  1  0  0  0  0
 52 50  2  0  0  0  0
 53 52  1  0  0  0  0
 54 55  2  0  0  0  0
 55 56  1  0  0  0  0
 55 53  1  0  0  0  0
 57 53  1  0  0  0  0
 57 60  1  0  0  0  0
 60 59  2  0  0  0  0
 60 58  1  0  0  0  0
M  END
>  <MODEL>
4

>  <REMARK>
 VINA RESULT:      -5.1      4.826     11.073
  Name = 
  7 active torsions:
  status: ('A' for Active; 'I' for Inactive)
    1  A    between atoms: C_2  and  C_36
    2  A    between atoms: C_3  and  C_20
    3  A    between atoms: C_3  and  C_22
    4  A    between atoms: C_3  and  C_23
    5  A    between atoms: O_4  and  N_11
    6  A    between atoms: O_4  and  C_36
    7  A    between atoms: C_20  and  C_58
                            x       y       z     vdW  Elec       q    Type
                         _______ _______ _______ _____ _____    ______ ____

>  <TORSDO>
F 7

$$$$
