=
 OpenBabel10232410043D

 49 55  0  0  1  0  0  0  0  0999 V2000
  186.4140  173.9830  135.8100 N   0  0  0  0  0  0  0  0  0  0  0  0
  187.4160  174.2980  135.0510 C   0  0  0  0  0  3  0  0  0  0  0  0
  191.3630  176.8440  139.3870 C   0  0  0  0  0  1  0  0  0  0  0  0
  188.9790  176.8730  138.5900 C   0  0  0  0  0  0  0  0  0  0  0  0
  187.4220  175.8440  136.8030 C   0  0  0  0  0  0  0  0  0  0  0  0
  186.3040  174.8630  136.9780 C   0  0  1  0  0  3  0  0  0  0  0  0
  189.2450  175.9150  135.1490 N   0  0  0  0  0  0  0  0  0  0  0  0
  188.1110  176.3470  137.7800 C   0  0  0  0  0  0  0  0  0  0  0  0
  190.3980  176.7240  138.2840 N   0  0  0  0  0  0  0  0  0  0  0  0
  189.9750  177.0390  135.7540 C   0  0  0  0  0  2  0  0  0  0  0  0
  188.1110  175.4440  135.5930 C   0  0  0  0  0  0  0  0  0  0  0  0
  190.9480  176.6070  136.8960 C   0  0  2  0  0  3  0  0  0  0  0  0
  182.5390  176.9290  137.1430 C   0  0  0  0  0  0  0  0  0  0  0  0
  183.7800  173.0510  137.2740 S   0  0  0  0  0  1  0  0  0  0  0  0
  184.9090  176.9630  136.9680 C   0  0  0  0  0  3  0  0  0  0  0  0
  182.5530  175.5280  137.2340 C   0  0  0  0  0  0  0  0  0  0  0  0
  183.7710  174.8420  137.1600 C   0  0  0  0  0  0  0  0  0  0  0  0
  181.3980  174.8400  137.4180 F   0  0  0  0  0  0  0  0  0  0  0  0
  184.9710  175.5640  137.0110 C   0  0  0  0  0  0  0  0  0  0  0  0
  183.7150  177.6040  137.0330 N   0  0  0  0  0  0  0  0  0  0  0  0
  181.5520  179.1940  137.2280 C   0  0  0  0  0  2  0  0  0  0  0  0
  181.2580  177.7040  137.2880 C   0  0  0  0  0  3  0  0  0  0  0  0
  180.9600  178.5000  136.0270 C   0  0  0  0  0  2  0  0  0  0  0  0
  193.7570  175.0860  137.6950 C   0  0  0  0  0  0  0  0  0  0  0  0
  191.6550  175.3230  136.6500 N   0  0  0  0  0  0  0  0  0  0  0  0
  195.6550  174.3180  137.1420 N   0  0  0  0  0  0  0  0  0  0  0  0
  192.3130  174.8930  137.9050 C   0  0  0  0  0  2  0  0  0  0  0  0
  194.7820  174.3390  138.1470 N   0  0  0  0  0  0  0  0  0  0  0  0
  194.0070  175.4500  136.4430 C   0  0  0  0  0  0  0  0  0  0  0  0
  195.1880  174.9260  136.0570 N   0  0  0  0  0  0  0  0  0  0  0  0
  192.7560  175.5290  135.6720 C   0  0  0  0  0  2  0  0  0  0  0  0
  196.9870  173.7250  137.2610 C   0  0  0  0  0  2  0  0  0  0  0  0
  198.0970  174.7680  137.4290 C   0  0  0  0  0  2  0  0  0  0  0  0
  198.9900  175.1370  139.4290 C   0  0  0  0  0  1  0  0  0  0  0  0
  197.9210  175.4910  138.6110 O   0  0  0  0  0  0  0  0  0  0  0  0
  188.8070  179.1460  139.2770 O   0  0  0  0  0  0  0  0  0  0  0  0
  188.5210  177.9370  139.5050 C   0  0  0  0  0  0  0  0  0  0  0  0
  187.7700  177.5950  140.6310 O   0  0  0  0  0  0  0  0  0  0  0  0
  189.2510  177.5570  144.5700 C   0  0  0  0  0  0  0  0  0  0  0  0
  187.5590  176.9360  142.9400 C   0  0  0  0  0  3  0  0  0  0  0  0
  188.0400  176.9240  144.2530 C   0  0  0  0  0  3  0  0  0  0  0  0
  189.4740  178.2600  142.2690 C   0  0  0  0  0  3  0  0  0  0  0  0
  188.2820  177.5900  141.9330 C   0  0  0  0  0  0  0  0  0  0  0  0
  189.9580  178.2380  143.5760 C   0  0  0  0  0  3  0  0  0  0  0  0
  189.8120  177.4960  145.9340 C   0  0  0  0  0  0  0  0  0  0  0  0
  191.4310  176.5330  147.6160 C   0  0  0  0  0  1  0  0  0  0  0  0
  190.9570  176.6510  146.2410 N   0  0  0  0  0  0  0  0  0  0  0  0
  191.8620  176.2110  145.1950 C   0  0  0  0  0  1  0  0  0  0  0  0
  189.2930  178.2320  146.8390 O   0  0  0  0  0  0  0  0  0  0  0  0
  1  6  1  0  0  0  0
  2 11  1  0  0  0  0
  2  1  2  0  0  0  0
  4 37  1  0  0  0  0
  5  6  1  0  0  0  0
  5  8  2  0  0  0  0
  6 19  1  6  0  0  0
  7 11  2  0  0  0  0
  7 10  1  0  0  0  0
  8  4  2  0  0  0  0
  9  4  1  0  0  0  0
  9  3  1  0  0  0  0
 11  5  1  0  0  0  0
 12 10  1  6  0  0  0
 12  9  1  0  0  0  0
 13 16  1  0  0  0  0
 13 22  1  0  0  0  0
 15 19  2  0  0  0  0
 15 20  1  0  0  0  0
 16 18  1  0  0  0  0
 17 16  2  0  0  0  0
 17 14  1  0  0  0  0
 19 17  1  0  0  0  0
 20 13  2  0  0  0  0
 21 22  1  0  0  0  0
 23 21  1  0  0  0  0
 23 22  1  0  0  0  0
 24 27  1  0  0  0  0
 24 28  2  0  0  0  0
 25 12  1  0  0  0  0
 25 27  1  0  0  0  0
 26 32  1  0  0  0  0
 26 28  1  0  0  0  0
 29 24  1  0  0  0  0
 30 29  2  0  0  0  0
 30 26  1  0  0  0  0
 31 29  1  0  0  0  0
 31 25  1  0  0  0  0
 32 33  1  0  0  0  0
 33 35  1  0  0  0  0
 35 34  1  0  0  0  0
 36 37  2  0  0  0  0
 37 38  1  0  0  0  0
 38 43  1  0  0  0  0
 39 45  1  0  0  0  0
 40 41  2  0  0  0  0
 41 39  1  0  0  0  0
 42 44  1  0  0  0  0
 43 42  2  0  0  0  0
 43 40  1  0  0  0  0
 44 39  2  0  0  0  0
 45 47  1  0  0  0  0
 45 49  2  0  0  0  0
 47 46  1  0  0  0  0
 48 47  1  0  0  0  0
M  END
>  <MODEL>
1

>  <REMARK>
 VINA RESULT:      -8.1      0.000      0.000
  Name = 
  10 active torsions:
  status: ('A' for Active; 'I' for Inactive)
    1  A    between atoms: C_1  and  C_7
    2  A    between atoms: C_2  and  C_10
    3  A    between atoms: N_5  and  C_47
    4  A    between atoms: C_11  and  C_18
    5  A    between atoms: C_11  and  O_29
    6  A    between atoms: O_12  and  C_32
    7  A    between atoms: O_12  and  C_42
    8  A    between atoms: N_14  and  C_18
    9  A    between atoms: C_16  and  C_42
   10  A    between atoms: C_22  and  C_39
                            x       y       z     vdW  Elec       q    Type
                         _______ _______ _______ _____ _____    ______ ____

>  <TORSDO>
F 10

$$$$
=
 OpenBabel10232410043D

 49 55  0  0  1  0  0  0  0  0999 V2000
  191.9950  175.7490  134.5640 N   0  0  0  0  0  0  0  0  0  0  0  0
  190.7780  175.3020  134.5810 C   0  0  0  0  0  3  0  0  0  0  0  0
  188.5000  178.4050  139.6840 C   0  0  0  0  0  1  0  0  0  0  0  0
  190.4510  177.0390  138.8790 C   0  0  0  0  0  0  0  0  0  0  0  0
  191.3240  175.7710  136.8040 C   0  0  0  0  0  0  0  0  0  0  0  0
  192.4710  176.1120  135.9030 C   0  0  1  0  0  3  0  0  0  0  0  0
  189.0360  175.0310  136.2720 N   0  0  0  0  0  0  0  0  0  0  0  0
  191.0020  176.4480  137.8620 C   0  0  0  0  0  0  0  0  0  0  0  0
  189.0220  177.3290  138.8280 N   0  0  0  0  0  0  0  0  0  0  0  0
  188.5200  175.0860  137.6480 C   0  0  0  0  0  2  0  0  0  0  0  0
  190.2720  175.2850  135.9350 C   0  0  0  0  0  0  0  0  0  0  0  0
  188.0260  176.5050  138.0730 C   0  0  2  0  0  3  0  0  0  0  0  0
  195.9480  173.8700  137.0660 C   0  0  0  0  0  0  0  0  0  0  0  0
  195.2070  177.2680  134.9460 S   0  0  0  0  0  1  0  0  0  0  0  0
  193.5910  174.1750  137.0640 C   0  0  0  0  0  3  0  0  0  0  0  0
  196.1130  175.0430  136.3140 C   0  0  0  0  0  0  0  0  0  0  0  0
  194.9870  175.7710  135.9110 C   0  0  0  0  0  0  0  0  0  0  0  0
  197.3560  175.4870  135.9970 F   0  0  0  0  0  0  0  0  0  0  0  0
  193.7020  175.3270  136.2770 C   0  0  0  0  0  0  0  0  0  0  0  0
  194.6980  173.4820  137.4350 N   0  0  0  0  0  0  0  0  0  0  0  0
  196.8210  171.6130  137.5760 C   0  0  0  0  0  2  0  0  0  0  0  0
  197.1360  173.1010  137.5760 C   0  0  0  0  0  3  0  0  0  0  0  0
  197.6990  172.1920  136.4950 C   0  0  0  0  0  2  0  0  0  0  0  0
  184.9760  177.3370  137.1510 C   0  0  0  0  0  0  0  0  0  0  0  0
  187.3300  177.2610  136.9980 N   0  0  0  0  0  0  0  0  0  0  0  0
  183.3560  177.1740  135.7930 N   0  0  0  0  0  0  0  0  0  0  0  0
  186.2050  178.0140  137.5970 C   0  0  0  0  0  2  0  0  0  0  0  0
  183.7830  177.8760  136.8390 N   0  0  0  0  0  0  0  0  0  0  0  0
  185.2580  176.3780  136.2770 C   0  0  0  0  0  0  0  0  0  0  0  0
  184.2610  176.2950  135.3740 N   0  0  0  0  0  0  0  0  0  0  0  0
  186.7080  176.3140  136.0340 C   0  0  0  0  0  2  0  0  0  0  0  0
  182.0220  177.3410  135.2160 C   0  0  0  0  0  2  0  0  0  0  0  0
  181.0540  178.0840  136.1430 C   0  0  0  0  0  2  0  0  0  0  0  0
  180.4190  177.5220  138.1960 C   0  0  0  0  0  1  0  0  0  0  0  0
  180.2610  177.1810  136.8550 O   0  0  0  0  0  0  0  0  0  0  0  0
  192.1540  177.7430  140.3870 O   0  0  0  0  0  0  0  0  0  0  0  0
  191.1570  176.9960  140.1740 C   0  0  0  0  0  0  0  0  0  0  0  0
  190.7160  176.1170  141.1650 O   0  0  0  0  0  0  0  0  0  0  0  0
  188.8090  177.3400  144.7120 C   0  0  0  0  0  0  0  0  0  0  0  0
  188.7920  176.1110  142.6160 C   0  0  0  0  0  3  0  0  0  0  0  0
  188.1470  176.5170  143.7880 C   0  0  0  0  0  3  0  0  0  0  0  0
  190.7430  177.3920  143.2640 C   0  0  0  0  0  3  0  0  0  0  0  0
  190.1020  176.5310  142.3520 C   0  0  0  0  0  0  0  0  0  0  0  0
  190.1040  177.7880  144.4370 C   0  0  0  0  0  3  0  0  0  0  0  0
  188.1740  177.7230  145.9880 C   0  0  0  0  0  0  0  0  0  0  0  0
  188.0550  177.6390  148.5100 C   0  0  0  0  0  1  0  0  0  0  0  0
  188.7540  177.3330  147.2650 N   0  0  0  0  0  0  0  0  0  0  0  0
  190.1580  176.9780  147.3700 C   0  0  0  0  0  1  0  0  0  0  0  0
  187.1180  178.4390  145.9510 O   0  0  0  0  0  0  0  0  0  0  0  0
  1  2  2  0  0  0  0
  1  6  1  0  0  0  0
  2 11  1  0  0  0  0
  4 37  1  0  0  0  0
  5  8  2  0  0  0  0
  6 19  1  1  0  0  0
  6  5  1  0  0  0  0
  7 10  1  0  0  0  0
  8  4  2  0  0  0  0
  9  4  1  0  0  0  0
  9  3  1  0  0  0  0
 10 12  1  0  0  0  0
 11  7  2  0  0  0  0
 11  5  1  0  0  0  0
 12 25  1  6  0  0  0
 12  9  1  0  0  0  0
 13 20  1  0  0  0  0
 13 22  1  0  0  0  0
 14 17  1  0  0  0  0
 15 20  2  0  0  0  0
 16 13  2  0  0  0  0
 17 19  2  0  0  0  0
 17 16  1  0  0  0  0
 18 16  1  0  0  0  0
 19 15  1  0  0  0  0
 21 22  1  0  0  0  0
 23 21  1  0  0  0  0
 23 22  1  0  0  0  0
 24 27  1  0  0  0  0
 25 27  1  0  0  0  0
 26 28  1  0  0  0  0
 28 24  2  0  0  0  0
 29 24  1  0  0  0  0
 30 26  1  0  0  0  0
 30 29  2  0  0  0  0
 31 29  1  0  0  0  0
 31 25  1  0  0  0  0
 32 26  1  0  0  0  0
 32 33  1  0  0  0  0
 33 35  1  0  0  0  0
 35 34  1  0  0  0  0
 37 36  2  0  0  0  0
 37 38  1  0  0  0  0
 38 43  1  0  0  0  0
 39 45  1  0  0  0  0
 40 41  1  0  0  0  0
 41 39  2  0  0  0  0
 42 44  2  0  0  0  0
 43 40  2  0  0  0  0
 43 42  1  0  0  0  0
 44 39  1  0  0  0  0
 45 47  1  0  0  0  0
 47 48  1  0  0  0  0
 47 46  1  0  0  0  0
 49 45  2  0  0  0  0
M  END
>  <MODEL>
2

>  <REMARK>
 VINA RESULT:      -7.9      3.525      9.293
  Name = 
  10 active torsions:
  status: ('A' for Active; 'I' for Inactive)
    1  A    between atoms: C_1  and  C_7
    2  A    between atoms: C_2  and  C_10
    3  A    between atoms: N_5  and  C_47
    4  A    between atoms: C_11  and  C_18
    5  A    between atoms: C_11  and  O_29
    6  A    between atoms: O_12  and  C_32
    7  A    between atoms: O_12  and  C_42
    8  A    between atoms: N_14  and  C_18
    9  A    between atoms: C_16  and  C_42
   10  A    between atoms: C_22  and  C_39
                            x       y       z     vdW  Elec       q    Type
                         _______ _______ _______ _____ _____    ______ ____

>  <TORSDO>
F 10

$$$$
=
 OpenBabel10232410043D

 49 55  0  0  1  0  0  0  0  0999 V2000
  191.3110  177.7820  141.5730 N   0  0  0  0  0  0  0  0  0  0  0  0
  191.7700  176.8600  140.7840 C   0  0  0  0  0  3  0  0  0  0  0  0
  188.2450  177.9750  135.5690 C   0  0  0  0  0  1  0  0  0  0  0  0
  188.0960  177.6940  138.0630 C   0  0  0  0  0  0  0  0  0  0  0  0
  189.5510  177.2120  140.1440 C   0  0  0  0  0  0  0  0  0  0  0  0
  189.9190  178.1280  141.2700 C   0  0  1  0  0  3  0  0  0  0  0  0
  190.9310  175.6470  138.8370 N   0  0  0  0  0  0  0  0  0  0  0  0
  188.7600  177.5370  139.1680 C   0  0  0  0  0  0  0  0  0  0  0  0
  188.7470  177.3510  136.8030 N   0  0  0  0  0  0  0  0  0  0  0  0
  189.8950  175.2900  137.8560 C   0  0  0  0  0  2  0  0  0  0  0  0
  190.7450  176.4460  139.8520 C   0  0  0  0  0  0  0  0  0  0  0  0
  189.7950  176.2910  136.6620 C   0  0  2  0  0  3  0  0  0  0  0  0
  187.3040  177.5390  144.6300 C   0  0  0  0  0  0  0  0  0  0  0  0
  191.2050  178.5730  144.0790 S   0  0  0  0  0  1  0  0  0  0  0  0
  187.6800  177.5650  142.2830 C   0  0  0  0  0  3  0  0  0  0  0  0
  188.6360  177.9170  144.8600 C   0  0  0  0  0  0  0  0  0  0  0  0
  189.5030  178.0920  143.7750 C   0  0  0  0  0  0  0  0  0  0  0  0
  189.0790  178.1390  146.1230 F   0  0  0  0  0  0  0  0  0  0  0  0
  189.0280  177.9000  142.4630 C   0  0  0  0  0  0  0  0  0  0  0  0
  186.8610  177.3940  143.3520 N   0  0  0  0  0  0  0  0  0  0  0  0
  186.5300  178.5520  146.7480 C   0  0  0  0  0  2  0  0  0  0  0  0
  186.3250  177.4110  145.7640 C   0  0  0  0  0  3  0  0  0  0  0  0
  185.3660  178.5910  145.7890 C   0  0  0  0  0  2  0  0  0  0  0  0
  192.5220  175.2500  135.1390 C   0  0  0  0  0  0  0  0  0  0  0  0
  191.1030  176.8160  136.1880 N   0  0  0  0  0  0  0  0  0  0  0  0
  194.5960  174.8100  135.1760 N   0  0  0  0  0  0  0  0  0  0  0  0
  191.4210  176.1930  134.8840 C   0  0  0  0  0  2  0  0  0  0  0  0
  193.5640  174.9350  134.3460 N   0  0  0  0  0  0  0  0  0  0  0  0
  192.9480  175.3520  136.3920 C   0  0  0  0  0  0  0  0  0  0  0  0
  194.2770  175.1260  136.4270 N   0  0  0  0  0  0  0  0  0  0  0  0
  192.1870  176.3850  137.1120 C   0  0  0  0  0  2  0  0  0  0  0  0
  195.9100  174.3340  134.7430 C   0  0  0  0  0  2  0  0  0  0  0  0
  197.0560  175.2530  135.1780 C   0  0  0  0  0  2  0  0  0  0  0  0
  197.5440  174.1590  137.0490 C   0  0  0  0  0  1  0  0  0  0  0  0
  198.0640  174.5200  135.8090 O   0  0  0  0  0  0  0  0  0  0  0  0
  185.9010  176.8580  137.6760 O   0  0  0  0  0  0  0  0  0  0  0  0
  186.6250  177.7820  138.1430 C   0  0  0  0  0  0  0  0  0  0  0  0
  186.0370  178.9010  138.7360 O   0  0  0  0  0  0  0  0  0  0  0  0
  182.4390  178.7220  140.9110 C   0  0  0  0  0  0  0  0  0  0  0  0
  184.7440  178.0320  140.5750 C   0  0  0  0  0  3  0  0  0  0  0  0
  183.5510  177.9600  141.3000 C   0  0  0  0  0  3  0  0  0  0  0  0
  183.6980  179.5870  139.0390 C   0  0  0  0  0  3  0  0  0  0  0  0
  184.8330  178.8600  139.4480 C   0  0  0  0  0  0  0  0  0  0  0  0
  182.5130  179.5230  139.7690 C   0  0  0  0  0  3  0  0  0  0  0  0
  181.1930  178.7160  141.7020 C   0  0  0  0  0  0  0  0  0  0  0  0
  179.9820  178.7020  143.9190 C   0  0  0  0  0  1  0  0  0  0  0  0
  181.2220  178.8100  143.1550 N   0  0  0  0  0  0  0  0  0  0  0  0
  182.3730  179.3620  143.8450 C   0  0  0  0  0  1  0  0  0  0  0  0
  180.0790  178.6630  141.0810 O   0  0  0  0  0  0  0  0  0  0  0  0
  2  1  2  0  0  0  0
  3  9  1  0  0  0  0
  4 37  1  0  0  0  0
  4  8  2  0  0  0  0
  5  6  1  0  0  0  0
  6  1  1  0  0  0  0
  6 19  1  1  0  0  0
  7 11  2  0  0  0  0
  8  5  2  0  0  0  0
  9  4  1  0  0  0  0
 10  7  1  0  0  0  0
 11  5  1  0  0  0  0
 11  2  1  0  0  0  0
 12 25  1  1  0  0  0
 12  9  1  0  0  0  0
 12 10  1  0  0  0  0
 13 16  1  0  0  0  0
 13 22  1  0  0  0  0
 15 19  2  0  0  0  0
 15 20  1  0  0  0  0
 16 18  1  0  0  0  0
 17 14  1  0  0  0  0
 17 16  2  0  0  0  0
 19 17  1  0  0  0  0
 20 13  2  0  0  0  0
 22 23  1  0  0  0  0
 22 21  1  0  0  0  0
 23 21  1  0  0  0  0
 24 29  1  0  0  0  0
 25 31  1  0  0  0  0
 26 30  1  0  0  0  0
 27 24  1  0  0  0  0
 27 25  1  0  0  0  0
 28 24  2  0  0  0  0
 28 26  1  0  0  0  0
 29 30  2  0  0  0  0
 29 31  1  0  0  0  0
 32 26  1  0  0  0  0
 32 33  1  0  0  0  0
 33 35  1  0  0  0  0
 35 34  1  0  0  0  0
 36 37  2  0  0  0  0
 37 38  1  0  0  0  0
 38 43  1  0  0  0  0
 39 41  1  0  0  0  0
 39 45  1  0  0  0  0
 40 41  2  0  0  0  0
 42 43  2  0  0  0  0
 42 44  1  0  0  0  0
 43 40  1  0  0  0  0
 44 39  2  0  0  0  0
 45 47  1  0  0  0  0
 47 48  1  0  0  0  0
 47 46  1  0  0  0  0
 49 45  2  0  0  0  0
M  END
>  <MODEL>
3

>  <REMARK>
 VINA RESULT:      -6.8      3.822      6.722
  Name = 
  10 active torsions:
  status: ('A' for Active; 'I' for Inactive)
    1  A    between atoms: C_1  and  C_7
    2  A    between atoms: C_2  and  C_10
    3  A    between atoms: N_5  and  C_47
    4  A    between atoms: C_11  and  C_18
    5  A    between atoms: C_11  and  O_29
    6  A    between atoms: O_12  and  C_32
    7  A    between atoms: O_12  and  C_42
    8  A    between atoms: N_14  and  C_18
    9  A    between atoms: C_16  and  C_42
   10  A    between atoms: C_22  and  C_39
                            x       y       z     vdW  Elec       q    Type
                         _______ _______ _______ _____ _____    ______ ____

>  <TORSDO>
F 10

$$$$
=
 OpenBabel10232410043D

 49 55  0  0  1  0  0  0  0  0999 V2000
  190.1990  178.2830  141.6080 N   0  0  0  0  0  0  0  0  0  0  0  0
  190.9210  177.3050  141.1560 C   0  0  0  0  0  3  0  0  0  0  0  0
  189.3620  177.5180  134.9610 C   0  0  0  0  0  1  0  0  0  0  0  0
  188.3770  177.5380  137.2740 C   0  0  0  0  0  0  0  0  0  0  0  0
  189.0470  177.4190  139.7670 C   0  0  0  0  0  0  0  0  0  0  0  0
  188.9860  178.4910  140.8120 C   0  0  1  0  0  3  0  0  0  0  0  0
  190.8260  175.8050  139.2310 N   0  0  0  0  0  0  0  0  0  0  0  0
  188.6280  177.5650  138.5480 C   0  0  0  0  0  0  0  0  0  0  0  0
  189.4270  177.0880  136.3660 N   0  0  0  0  0  0  0  0  0  0  0  0
  190.1960  175.2580  138.0210 C   0  0  0  0  0  2  0  0  0  0  0  0
  190.2860  176.7080  140.0030 C   0  0  0  0  0  0  0  0  0  0  0  0
  190.4850  176.0940  136.7340 C   0  0  2  0  0  3  0  0  0  0  0  0
  185.4310  178.1930  143.2100 C   0  0  0  0  0  0  0  0  0  0  0  0
  189.3250  177.0470  143.5580 S   0  0  0  0  0  1  0  0  0  0  0  0
  186.5340  178.9050  141.2280 C   0  0  0  0  0  3  0  0  0  0  0  0
  186.6330  177.6610  143.7020 C   0  0  0  0  0  0  0  0  0  0  0  0
  187.7930  177.7330  142.9220 C   0  0  0  0  0  0  0  0  0  0  0  0
  186.6820  177.1020  144.9380 F   0  0  0  0  0  0  0  0  0  0  0  0
  187.7470  178.3510  141.6570 C   0  0  0  0  0  0  0  0  0  0  0  0
  185.4220  178.8150  142.0000 N   0  0  0  0  0  0  0  0  0  0  0  0
  184.4250  178.9880  145.3230 C   0  0  0  0  0  2  0  0  0  0  0  0
  184.1830  178.1980  144.0480 C   0  0  0  0  0  3  0  0  0  0  0  0
  183.6360  179.6090  144.1980 C   0  0  0  0  0  2  0  0  0  0  0  0
  193.5560  175.1130  136.0640 C   0  0  0  0  0  0  0  0  0  0  0  0
  191.8630  176.6470  136.6560 N   0  0  0  0  0  0  0  0  0  0  0  0
  195.5390  174.7140  136.6980 N   0  0  0  0  0  0  0  0  0  0  0  0
  192.5570  176.0360  135.5000 C   0  0  0  0  0  2  0  0  0  0  0  0
  194.7880  174.8220  135.6060 N   0  0  0  0  0  0  0  0  0  0  0  0
  193.6000  175.2180  137.3860 C   0  0  0  0  0  0  0  0  0  0  0  0
  194.8670  175.0180  137.8040 N   0  0  0  0  0  0  0  0  0  0  0  0
  192.6430  176.2330  137.8540 C   0  0  0  0  0  2  0  0  0  0  0  0
  196.9310  174.2650  136.6630 C   0  0  0  0  0  2  0  0  0  0  0  0
  197.5780  174.2000  138.0510 C   0  0  0  0  0  2  0  0  0  0  0  0
  199.2170  174.9910  139.3240 C   0  0  0  0  0  1  0  0  0  0  0  0
  198.3540  175.3370  138.2880 O   0  0  0  0  0  0  0  0  0  0  0  0
  186.1160  178.2690  137.4180 O   0  0  0  0  0  0  0  0  0  0  0  0
  186.9650  177.5310  136.8440 C   0  0  0  0  0  0  0  0  0  0  0  0
  186.5730  176.6960  135.7960 O   0  0  0  0  0  0  0  0  0  0  0  0
  184.6520  172.9880  136.3130 C   0  0  0  0  0  0  0  0  0  0  0  0
  184.9340  175.0730  135.0980 C   0  0  0  0  0  3  0  0  0  0  0  0
  184.2850  173.8460  135.2660 C   0  0  0  0  0  3  0  0  0  0  0  0
  186.2820  174.6090  137.0580 C   0  0  0  0  0  3  0  0  0  0  0  0
  185.9510  175.4570  135.9820 C   0  0  0  0  0  0  0  0  0  0  0  0
  185.6420  173.3820  137.2170 C   0  0  0  0  0  3  0  0  0  0  0  0
  184.0300  171.6580  136.4670 C   0  0  0  0  0  0  0  0  0  0  0  0
  183.7690  169.2460  135.7650 C   0  0  0  0  0  1  0  0  0  0  0  0
  184.4670  170.5240  135.6650 N   0  0  0  0  0  0  0  0  0  0  0  0
  185.7780  170.5100  135.0430 C   0  0  0  0  0  1  0  0  0  0  0  0
  183.1200  171.5110  137.3500 O   0  0  0  0  0  0  0  0  0  0  0  0
  2  1  2  0  0  0  0
  3  9  1  0  0  0  0
  4  8  2  0  0  0  0
  5 11  1  0  0  0  0
  5  6  1  0  0  0  0
  6  1  1  0  0  0  0
  6 19  1  1  0  0  0
  7 11  2  0  0  0  0
  8  5  2  0  0  0  0
  9 12  1  0  0  0  0
  9  4  1  0  0  0  0
 10  7  1  0  0  0  0
 11  2  1  0  0  0  0
 12 25  1  1  0  0  0
 12 10  1  0  0  0  0
 13 16  1  0  0  0  0
 13 22  1  0  0  0  0
 15 19  2  0  0  0  0
 15 20  1  0  0  0  0
 16 18  1  0  0  0  0
 17 14  1  0  0  0  0
 17 16  2  0  0  0  0
 19 17  1  0  0  0  0
 20 13  2  0  0  0  0
 22 23  1  0  0  0  0
 22 21  1  0  0  0  0
 23 21  1  0  0  0  0
 24 29  1  0  0  0  0
 25 31  1  0  0  0  0
 26 30  1  0  0  0  0
 27 24  1  0  0  0  0
 27 25  1  0  0  0  0
 28 24  2  0  0  0  0
 28 26  1  0  0  0  0
 29 30  2  0  0  0  0
 29 31  1  0  0  0  0
 32 26  1  0  0  0  0
 32 33  1  0  0  0  0
 33 35  1  0  0  0  0
 35 34  1  0  0  0  0
 37  4  1  0  0  0  0
 37 36  2  0  0  0  0
 38 43  1  0  0  0  0
 38 37  1  0  0  0  0
 39 45  1  0  0  0  0
 39 44  1  0  0  0  0
 40 41  1  0  0  0  0
 40 43  2  0  0  0  0
 41 39  2  0  0  0  0
 42 44  2  0  0  0  0
 43 42  1  0  0  0  0
 45 49  2  0  0  0  0
 47 46  1  0  0  0  0
 47 45  1  0  0  0  0
 48 47  1  0  0  0  0
M  END
>  <MODEL>
4

>  <REMARK>
 VINA RESULT:      -6.7      3.515      6.981
  Name = 
  10 active torsions:
  status: ('A' for Active; 'I' for Inactive)
    1  A    between atoms: C_1  and  C_7
    2  A    between atoms: C_2  and  C_10
    3  A    between atoms: N_5  and  C_47
    4  A    between atoms: C_11  and  C_18
    5  A    between atoms: C_11  and  O_29
    6  A    between atoms: O_12  and  C_32
    7  A    between atoms: O_12  and  C_42
    8  A    between atoms: N_14  and  C_18
    9  A    between atoms: C_16  and  C_42
   10  A    between atoms: C_22  and  C_39
                            x       y       z     vdW  Elec       q    Type
                         _______ _______ _______ _____ _____    ______ ____

>  <TORSDO>
F 10

$$$$
=
 OpenBabel10232410043D

 49 55  0  0  1  0  0  0  0  0999 V2000
  185.5200  176.6970  135.0460 N   0  0  0  0  0  0  0  0  0  0  0  0
  184.3840  176.1800  135.3970 C   0  0  0  0  0  3  0  0  0  0  0  0
  183.0920  179.6960  140.5770 C   0  0  0  0  0  1  0  0  0  0  0  0
  184.9140  178.3710  139.4610 C   0  0  0  0  0  0  0  0  0  0  0  0
  185.3880  176.9310  137.3680 C   0  0  0  0  0  0  0  0  0  0  0  0
  186.2600  177.2380  136.1900 C   0  0  1  0  0  3  0  0  0  0  0  0
  183.1130  175.9960  137.4750 N   0  0  0  0  0  0  0  0  0  0  0  0
  185.2630  177.7030  138.4030 C   0  0  0  0  0  0  0  0  0  0  0  0
  183.4920  178.5650  139.7270 N   0  0  0  0  0  0  0  0  0  0  0  0
  182.9270  176.1750  138.9220 C   0  0  0  0  0  2  0  0  0  0  0  0
  184.2090  176.2860  136.8280 C   0  0  0  0  0  0  0  0  0  0  0  0
  182.4240  177.6000  139.3160 C   0  0  2  0  0  3  0  0  0  0  0  0
  190.0590  175.2800  136.6430 C   0  0  0  0  0  0  0  0  0  0  0  0
  188.6050  179.0470  137.1750 S   0  0  0  0  0  1  0  0  0  0  0  0
  187.7510  175.2080  136.0800 C   0  0  0  0  0  3  0  0  0  0  0  0
  189.9550  176.6460  136.9480 C   0  0  0  0  0  0  0  0  0  0  0  0
  188.7280  177.3000  136.7850 C   0  0  0  0  0  0  0  0  0  0  0  0
  191.0280  177.3270  137.4240 F   0  0  0  0  0  0  0  0  0  0  0  0
  187.6080  176.5790  136.3300 C   0  0  0  0  0  0  0  0  0  0  0  0
  188.9530  174.5990  136.2390 N   0  0  0  0  0  0  0  0  0  0  0  0
  191.3050  173.2110  136.1130 C   0  0  0  0  0  2  0  0  0  0  0  0
  191.3410  174.5270  136.8730 C   0  0  0  0  0  3  0  0  0  0  0  0
  192.1140  174.3640  135.5740 C   0  0  0  0  0  2  0  0  0  0  0  0
  181.7510  180.4580  137.8270 C   0  0  0  0  0  0  0  0  0  0  0  0
  181.4340  178.1840  138.3720 N   0  0  0  0  0  0  0  0  0  0  0  0
  180.5010  182.1530  137.5770 N   0  0  0  0  0  0  0  0  0  0  0  0
  182.1420  179.0920  137.4420 C   0  0  0  0  0  2  0  0  0  0  0  0
  181.5460  181.5310  137.0380 N   0  0  0  0  0  0  0  0  0  0  0  0
  180.8180  180.4320  138.7710 C   0  0  0  0  0  0  0  0  0  0  0  0
  179.9820  181.4760  138.5960 N   0  0  0  0  0  0  0  0  0  0  0  0
  180.4730  179.0440  139.1150 C   0  0  0  0  0  2  0  0  0  0  0  0
  180.0250  183.4540  137.1090 C   0  0  0  0  0  2  0  0  0  0  0  0
  181.0640  184.5690  137.2690 C   0  0  0  0  0  2  0  0  0  0  0  0
  180.5910  184.4950  135.1000 C   0  0  0  0  0  1  0  0  0  0  0  0
  181.2370  185.2590  136.0670 O   0  0  0  0  0  0  0  0  0  0  0  0
  187.1130  178.7660  140.2830 O   0  0  0  0  0  0  0  0  0  0  0  0
  185.9030  178.5190  140.5470 C   0  0  0  0  0  0  0  0  0  0  0  0
  185.4890  178.3790  141.8730 O   0  0  0  0  0  0  0  0  0  0  0  0
  188.1070  177.2650  144.9740 C   0  0  0  0  0  0  0  0  0  0  0  0
  187.6410  177.5840  142.6100 C   0  0  0  0  0  3  0  0  0  0  0  0
  188.5150  177.2050  143.6330 C   0  0  0  0  0  3  0  0  0  0  0  0
  185.9280  178.0330  144.2640 C   0  0  0  0  0  3  0  0  0  0  0  0
  186.3450  178.0180  142.9190 C   0  0  0  0  0  0  0  0  0  0  0  0
  186.8050  177.6660  145.2830 C   0  0  0  0  0  3  0  0  0  0  0  0
  189.0360  176.9380  146.0730 C   0  0  0  0  0  0  0  0  0  0  0  0
  191.3720  176.5490  146.9500 C   0  0  0  0  0  1  0  0  0  0  0  0
  190.4780  176.9720  145.8770 N   0  0  0  0  0  0  0  0  0  0  0  0
  191.0660  177.7440  144.7980 C   0  0  0  0  0  1  0  0  0  0  0  0
  188.5470  176.6560  147.2180 O   0  0  0  0  0  0  0  0  0  0  0  0
  1  2  2  0  0  0  0
  1  6  1  0  0  0  0
  2 11  1  0  0  0  0
  4  9  1  0  0  0  0
  4 37  1  0  0  0  0
  5  8  2  0  0  0  0
  6 19  1  1  0  0  0
  6  5  1  0  0  0  0
  7 10  1  0  0  0  0
  8  4  2  0  0  0  0
  9  3  1  0  0  0  0
 10 12  1  0  0  0  0
 11  5  1  0  0  0  0
 11  7  2  0  0  0  0
 12 25  1  6  0  0  0
 12  9  1  0  0  0  0
 13 22  1  0  0  0  0
 13 16  1  0  0  0  0
 15 20  1  0  0  0  0
 15 19  2  0  0  0  0
 16 18  1  0  0  0  0
 17 16  2  0  0  0  0
 17 14  1  0  0  0  0
 19 17  1  0  0  0  0
 20 13  2  0  0  0  0
 21 22  1  0  0  0  0
 23 21  1  0  0  0  0
 23 22  1  0  0  0  0
 24 29  1  0  0  0  0
 25 31  1  0  0  0  0
 26 30  1  0  0  0  0
 27 24  1  0  0  0  0
 27 25  1  0  0  0  0
 28 26  1  0  0  0  0
 28 24  2  0  0  0  0
 29 31  1  0  0  0  0
 30 29  2  0  0  0  0
 32 33  1  0  0  0  0
 32 26  1  0  0  0  0
 34 35  1  0  0  0  0
 35 33  1  0  0  0  0
 36 37  2  0  0  0  0
 37 38  1  0  0  0  0
 38 43  1  0  0  0  0
 39 44  1  0  0  0  0
 39 45  1  0  0  0  0
 40 43  2  0  0  0  0
 40 41  1  0  0  0  0
 41 39  2  0  0  0  0
 42 44  2  0  0  0  0
 43 42  1  0  0  0  0
 45 49  2  0  0  0  0
 47 45  1  0  0  0  0
 47 46  1  0  0  0  0
 48 47  1  0  0  0  0
M  END
>  <MODEL>
5

>  <REMARK>
 VINA RESULT:      -6.5      3.672      9.466
  Name = 
  10 active torsions:
  status: ('A' for Active; 'I' for Inactive)
    1  A    between atoms: C_1  and  C_7
    2  A    between atoms: C_2  and  C_10
    3  A    between atoms: N_5  and  C_47
    4  A    between atoms: C_11  and  C_18
    5  A    between atoms: C_11  and  O_29
    6  A    between atoms: O_12  and  C_32
    7  A    between atoms: O_12  and  C_42
    8  A    between atoms: N_14  and  C_18
    9  A    between atoms: C_16  and  C_42
   10  A    between atoms: C_22  and  C_39
                            x       y       z     vdW  Elec       q    Type
                         _______ _______ _______ _____ _____    ______ ____

>  <TORSDO>
F 10

$$$$
=
 OpenBabel10232410043D

 49 55  0  0  1  0  0  0  0  0999 V2000
  190.9260  177.7500  141.7140 N   0  0  0  0  0  0  0  0  0  0  0  0
  191.2750  176.8340  140.8640 C   0  0  0  0  0  3  0  0  0  0  0  0
  187.6300  178.4720  135.8750 C   0  0  0  0  0  1  0  0  0  0  0  0
  187.5660  178.0850  138.3580 C   0  0  0  0  0  0  0  0  0  0  0  0
  189.0660  177.3900  140.3450 C   0  0  0  0  0  0  0  0  0  0  0  0
  189.5550  178.2190  141.4920 C   0  0  1  0  0  3  0  0  0  0  0  0
  190.2570  175.7850  138.9070 N   0  0  0  0  0  0  0  0  0  0  0  0
  188.2620  177.8230  139.4230 C   0  0  0  0  0  0  0  0  0  0  0  0
  188.1330  177.7520  137.0550 N   0  0  0  0  0  0  0  0  0  0  0  0
  189.1540  175.5580  137.9610 C   0  0  0  0  0  2  0  0  0  0  0  0
  190.1800  176.5470  139.9640 C   0  0  0  0  0  0  0  0  0  0  0  0
  189.0840  176.6200  136.8190 C   0  0  2  0  0  3  0  0  0  0  0  0
  187.0510  177.6830  144.9440 C   0  0  0  0  0  0  0  0  0  0  0  0
  191.0220  178.2610  144.2460 S   0  0  0  0  0  1  0  0  0  0  0  0
  187.3130  177.8590  142.5890 C   0  0  0  0  0  3  0  0  0  0  0  0
  188.4310  177.8710  145.1240 C   0  0  0  0  0  0  0  0  0  0  0  0
  189.2600  178.0250  144.0070 C   0  0  0  0  0  0  0  0  0  0  0  0
  188.9590  177.9280  146.3730 F   0  0  0  0  0  0  0  0  0  0  0  0
  188.7000  178.0060  142.7150 C   0  0  0  0  0  0  0  0  0  0  0  0
  186.5320  177.7030  143.6870 N   0  0  0  0  0  0  0  0  0  0  0  0
  186.0220  178.9350  146.8110 C   0  0  0  0  0  2  0  0  0  0  0  0
  186.1200  177.5840  146.1210 C   0  0  0  0  0  3  0  0  0  0  0  0
  184.8980  178.4660  145.9210 C   0  0  0  0  0  2  0  0  0  0  0  0
  191.6770  175.4220  135.1810 C   0  0  0  0  0  0  0  0  0  0  0  0
  190.4080  177.0620  136.3070 N   0  0  0  0  0  0  0  0  0  0  0  0
  193.7150  174.8390  135.1360 N   0  0  0  0  0  0  0  0  0  0  0  0
  190.6370  176.4450  134.9820 C   0  0  0  0  0  2  0  0  0  0  0  0
  192.6660  175.0520  134.3460 N   0  0  0  0  0  0  0  0  0  0  0  0
  192.1520  175.4690  136.4200 C   0  0  0  0  0  0  0  0  0  0  0  0
  193.4620  175.1510  136.4030 N   0  0  0  0  0  0  0  0  0  0  0  0
  191.4900  176.5380  137.1840 C   0  0  0  0  0  2  0  0  0  0  0  0
  194.9760  174.2810  134.6480 C   0  0  0  0  0  2  0  0  0  0  0  0
  195.7800  173.5650  135.7390 C   0  0  0  0  0  2  0  0  0  0  0  0
  197.3000  175.1580  136.0350 C   0  0  0  0  0  1  0  0  0  0  0  0
  196.2660  174.4800  136.6760 O   0  0  0  0  0  0  0  0  0  0  0  0
  185.6370  178.7520  139.5840 O   0  0  0  0  0  0  0  0  0  0  0  0
  186.1120  178.2840  138.5100 C   0  0  0  0  0  0  0  0  0  0  0  0
  185.2610  177.9470  137.4560 O   0  0  0  0  0  0  0  0  0  0  0  0
  183.4520  174.1760  136.9910 C   0  0  0  0  0  0  0  0  0  0  0  0
  185.0350  175.8670  136.2590 C   0  0  0  0  0  3  0  0  0  0  0  0
  184.4350  174.6160  136.0920 C   0  0  0  0  0  3  0  0  0  0  0  0
  183.6310  176.2640  138.1940 C   0  0  0  0  0  3  0  0  0  0  0  0
  184.6510  176.6950  137.3220 C   0  0  0  0  0  0  0  0  0  0  0  0
  183.0420  175.0110  138.0330 C   0  0  0  0  0  3  0  0  0  0  0  0
  182.8560  172.8300  136.8760 C   0  0  0  0  0  0  0  0  0  0  0  0
  180.9330  171.3090  136.2680 C   0  0  0  0  0  1  0  0  0  0  0  0
  181.5420  172.6360  136.2800 N   0  0  0  0  0  0  0  0  0  0  0  0
  180.9740  173.6270  135.3850 C   0  0  0  0  0  1  0  0  0  0  0  0
  183.5360  171.8270  137.2790 O   0  0  0  0  0  0  0  0  0  0  0  0
  2  1  2  0  0  0  0
  3  9  1  0  0  0  0
  4 37  1  0  0  0  0
  4  8  2  0  0  0  0
  5  6  1  0  0  0  0
  6  1  1  0  0  0  0
  6 19  1  1  0  0  0
  7 11  2  0  0  0  0
  8  5  2  0  0  0  0
  9  4  1  0  0  0  0
 10  7  1  0  0  0  0
 11  5  1  0  0  0  0
 11  2  1  0  0  0  0
 12 25  1  1  0  0  0
 12  9  1  0  0  0  0
 12 10  1  0  0  0  0
 13 16  1  0  0  0  0
 13 22  1  0  0  0  0
 15 19  2  0  0  0  0
 15 20  1  0  0  0  0
 16 18  1  0  0  0  0
 17 14  1  0  0  0  0
 17 16  2  0  0  0  0
 19 17  1  0  0  0  0
 20 13  2  0  0  0  0
 22 21  1  0  0  0  0
 23 22  1  0  0  0  0
 23 21  1  0  0  0  0
 24 29  1  0  0  0  0
 25 31  1  0  0  0  0
 26 30  1  0  0  0  0
 27 24  1  0  0  0  0
 27 25  1  0  0  0  0
 28 26  1  0  0  0  0
 28 24  2  0  0  0  0
 29 31  1  0  0  0  0
 30 29  2  0  0  0  0
 32 26  1  0  0  0  0
 32 33  1  0  0  0  0
 33 35  1  0  0  0  0
 34 35  1  0  0  0  0
 37 36  2  0  0  0  0
 38 37  1  0  0  0  0
 39 44  1  0  0  0  0
 40 43  2  0  0  0  0
 41 40  1  0  0  0  0
 41 39  2  0  0  0  0
 43 38  1  0  0  0  0
 43 42  1  0  0  0  0
 44 42  2  0  0  0  0
 45 39  1  0  0  0  0
 45 49  2  0  0  0  0
 46 47  1  0  0  0  0
 47 45  1  0  0  0  0
 48 47  1  0  0  0  0
M  END
>  <MODEL>
6

>  <REMARK>
 VINA RESULT:      -6.3      3.471      7.652
  Name = 
  10 active torsions:
  status: ('A' for Active; 'I' for Inactive)
    1  A    between atoms: C_1  and  C_7
    2  A    between atoms: C_2  and  C_10
    3  A    between atoms: N_5  and  C_47
    4  A    between atoms: C_11  and  C_18
    5  A    between atoms: C_11  and  O_29
    6  A    between atoms: O_12  and  C_32
    7  A    between atoms: O_12  and  C_42
    8  A    between atoms: N_14  and  C_18
    9  A    between atoms: C_16  and  C_42
   10  A    between atoms: C_22  and  C_39
                            x       y       z     vdW  Elec       q    Type
                         _______ _______ _______ _____ _____    ______ ____

>  <TORSDO>
F 10

$$$$
=
 OpenBabel10232410043D

 49 55  0  0  1  0  0  0  0  0999 V2000
  190.7880  178.0010  141.1870 N   0  0  0  0  0  0  0  0  0  0  0  0
  191.4570  177.0060  140.6930 C   0  0  0  0  0  3  0  0  0  0  0  0
  189.6090  177.3210  134.5820 C   0  0  0  0  0  1  0  0  0  0  0  0
  188.7380  177.3500  136.9410 C   0  0  0  0  0  0  0  0  0  0  0  0
  189.5220  177.1890  139.3980 C   0  0  0  0  0  0  0  0  0  0  0  0
  189.5450  178.2520  140.4520 C   0  0  1  0  0  3  0  0  0  0  0  0
  191.2240  175.5260  138.7640 N   0  0  0  0  0  0  0  0  0  0  0  0
  189.0500  177.3580  138.2010 C   0  0  0  0  0  0  0  0  0  0  0  0
  189.7280  176.8770  135.9790 N   0  0  0  0  0  0  0  0  0  0  0  0
  190.5190  175.0100  137.5810 C   0  0  0  0  0  2  0  0  0  0  0  0
  190.7490  176.4390  139.5670 C   0  0  0  0  0  0  0  0  0  0  0  0
  190.7720  175.8480  136.2880 C   0  0  2  0  0  3  0  0  0  0  0  0
  186.1140  178.0430  143.0320 C   0  0  0  0  0  0  0  0  0  0  0  0
  189.8210  176.3590  142.9170 S   0  0  0  0  0  1  0  0  0  0  0  0
  187.2010  178.9110  141.1040 C   0  0  0  0  0  3  0  0  0  0  0  0
  187.2530  177.2880  143.3490 C   0  0  0  0  0  0  0  0  0  0  0  0
  188.3700  177.3310  142.5050 C   0  0  0  0  0  0  0  0  0  0  0  0
  187.2870  176.5380  144.4800 F   0  0  0  0  0  0  0  0  0  0  0  0
  188.3440  178.1430  141.3550 C   0  0  0  0  0  0  0  0  0  0  0  0
  186.1280  178.8460  141.9340 N   0  0  0  0  0  0  0  0  0  0  0  0
  185.3680  178.4690  145.3500 C   0  0  0  0  0  2  0  0  0  0  0  0
  184.9230  178.0780  143.9500 C   0  0  0  0  0  3  0  0  0  0  0  0
  184.6810  179.4850  144.4720 C   0  0  0  0  0  2  0  0  0  0  0  0
  193.7420  174.8250  135.3040 C   0  0  0  0  0  0  0  0  0  0  0  0
  192.1610  176.3590  136.1480 N   0  0  0  0  0  0  0  0  0  0  0  0
  195.7500  174.3080  135.7470 N   0  0  0  0  0  0  0  0  0  0  0  0
  192.7410  175.8240  134.8960 C   0  0  0  0  0  2  0  0  0  0  0  0
  194.9240  174.5320  134.7290 N   0  0  0  0  0  0  0  0  0  0  0  0
  193.8900  174.8180  136.6230 C   0  0  0  0  0  0  0  0  0  0  0  0
  195.1750  174.5410  136.9230 N   0  0  0  0  0  0  0  0  0  0  0  0
  193.0110  175.8210  137.2440 C   0  0  0  0  0  2  0  0  0  0  0  0
  197.1170  173.8190  135.5680 C   0  0  0  0  0  2  0  0  0  0  0  0
  198.1710  174.7250  136.2130 C   0  0  0  0  0  2  0  0  0  0  0  0
  199.6210  173.2640  137.0490 C   0  0  0  0  0  1  0  0  0  0  0  0
  198.6300  174.1730  137.4110 O   0  0  0  0  0  0  0  0  0  0  0  0
  186.9170  178.0610  135.5820 O   0  0  0  0  0  0  0  0  0  0  0  0
  187.3080  177.3910  136.5790 C   0  0  0  0  0  0  0  0  0  0  0  0
  186.3850  176.6840  137.3530 O   0  0  0  0  0  0  0  0  0  0  0  0
  182.8760  178.4120  138.9050 C   0  0  0  0  0  0  0  0  0  0  0  0
  185.2630  178.5060  138.4610 C   0  0  0  0  0  3  0  0  0  0  0  0
  184.1040  179.0850  138.9850 C   0  0  0  0  0  3  0  0  0  0  0  0
  183.9780  176.5540  137.8210 C   0  0  0  0  0  3  0  0  0  0  0  0
  185.2060  177.2430  137.8580 C   0  0  0  0  0  0  0  0  0  0  0  0
  182.8210  177.1380  138.3340 C   0  0  0  0  0  3  0  0  0  0  0  0
  181.6280  179.0340  139.3880 C   0  0  0  0  0  0  0  0  0  0  0  0
  179.9830  179.5430  141.2360 C   0  0  0  0  0  1  0  0  0  0  0  0
  181.2690  179.0080  140.7980 N   0  0  0  0  0  0  0  0  0  0  0  0
  182.2780  178.8040  141.8210 C   0  0  0  0  0  1  0  0  0  0  0  0
  180.8800  179.6320  138.5430 O   0  0  0  0  0  0  0  0  0  0  0  0
  2  1  2  0  0  0  0
  3  9  1  0  0  0  0
  4  8  2  0  0  0  0
  5 11  1  0  0  0  0
  5  6  1  0  0  0  0
  6  1  1  0  0  0  0
  6 19  1  1  0  0  0
  7 11  2  0  0  0  0
  8  5  2  0  0  0  0
  9 12  1  0  0  0  0
  9  4  1  0  0  0  0
 10  7  1  0  0  0  0
 11  2  1  0  0  0  0
 12 25  1  1  0  0  0
 12 10  1  0  0  0  0
 13 16  1  0  0  0  0
 13 22  1  0  0  0  0
 15 19  2  0  0  0  0
 15 20  1  0  0  0  0
 16 18  1  0  0  0  0
 17 14  1  0  0  0  0
 17 16  2  0  0  0  0
 19 17  1  0  0  0  0
 20 13  2  0  0  0  0
 22 23  1  0  0  0  0
 22 21  1  0  0  0  0
 23 21  1  0  0  0  0
 24 29  1  0  0  0  0
 25 31  1  0  0  0  0
 26 30  1  0  0  0  0
 27 24  1  0  0  0  0
 27 25  1  0  0  0  0
 28 24  2  0  0  0  0
 28 26  1  0  0  0  0
 29 30  2  0  0  0  0
 29 31  1  0  0  0  0
 32 26  1  0  0  0  0
 32 33  1  0  0  0  0
 33 35  1  0  0  0  0
 34 35  1  0  0  0  0
 36 37  2  0  0  0  0
 37  4  1  0  0  0  0
 37 38  1  0  0  0  0
 38 43  1  0  0  0  0
 39 41  1  0  0  0  0
 39 45  1  0  0  0  0
 40 41  2  0  0  0  0
 42 43  2  0  0  0  0
 42 44  1  0  0  0  0
 43 40  1  0  0  0  0
 44 39  2  0  0  0  0
 45 47  1  0  0  0  0
 47 46  1  0  0  0  0
 47 48  1  0  0  0  0
 49 45  2  0  0  0  0
M  END
>  <MODEL>
7

>  <REMARK>
 VINA RESULT:      -6.1      3.337      6.362
  Name = 
  10 active torsions:
  status: ('A' for Active; 'I' for Inactive)
    1  A    between atoms: C_1  and  C_7
    2  A    between atoms: C_2  and  C_10
    3  A    between atoms: N_5  and  C_47
    4  A    between atoms: C_11  and  C_18
    5  A    between atoms: C_11  and  O_29
    6  A    between atoms: O_12  and  C_32
    7  A    between atoms: O_12  and  C_42
    8  A    between atoms: N_14  and  C_18
    9  A    between atoms: C_16  and  C_42
   10  A    between atoms: C_22  and  C_39
                            x       y       z     vdW  Elec       q    Type
                         _______ _______ _______ _____ _____    ______ ____

>  <TORSDO>
F 10

$$$$
=
 OpenBabel10232410043D

 49 55  0  0  1  0  0  0  0  0999 V2000
  190.4860  177.7580  141.4440 N   0  0  0  0  0  0  0  0  0  0  0  0
  191.0720  176.7250  140.9250 C   0  0  0  0  0  3  0  0  0  0  0  0
  189.7390  177.6570  134.7430 C   0  0  0  0  0  1  0  0  0  0  0  0
  188.7010  177.6360  137.0330 C   0  0  0  0  0  0  0  0  0  0  0  0
  189.2740  177.2230  139.5180 C   0  0  0  0  0  0  0  0  0  0  0  0
  189.3390  178.2050  140.6470 C   0  0  1  0  0  3  0  0  0  0  0  0
  190.8160  175.4130  138.8800 N   0  0  0  0  0  0  0  0  0  0  0  0
  188.9160  177.5250  138.3080 C   0  0  0  0  0  0  0  0  0  0  0  0
  189.7010  177.1110  136.1080 N   0  0  0  0  0  0  0  0  0  0  0  0
  190.1480  175.0620  137.6180 C   0  0  0  0  0  2  0  0  0  0  0  0
  190.3900  176.3210  139.7150 C   0  0  0  0  0  0  0  0  0  0  0  0
  190.5930  175.9470  136.4100 C   0  0  2  0  0  3  0  0  0  0  0  0
  185.7030  178.2390  142.9380 C   0  0  0  0  0  0  0  0  0  0  0  0
  189.5030  176.8710  143.4640 S   0  0  0  0  0  1  0  0  0  0  0  0
  186.9070  178.7890  140.9640 C   0  0  0  0  0  3  0  0  0  0  0  0
  186.8530  177.6570  143.4930 C   0  0  0  0  0  0  0  0  0  0  0  0
  188.0380  177.6200  142.7480 C   0  0  0  0  0  0  0  0  0  0  0  0
  186.8290  177.1530  144.7530 F   0  0  0  0  0  0  0  0  0  0  0  0
  188.0690  178.1810  141.4570 C   0  0  0  0  0  0  0  0  0  0  0  0
  185.7690  178.8040  141.7030 N   0  0  0  0  0  0  0  0  0  0  0  0
  184.7540  178.8260  145.1440 C   0  0  0  0  0  2  0  0  0  0  0  0
  184.4320  178.3600  143.7340 C   0  0  0  0  0  3  0  0  0  0  0  0
  184.1850  179.8030  144.1450 C   0  0  0  0  0  2  0  0  0  0  0  0
  193.4370  174.8590  135.1580 C   0  0  0  0  0  0  0  0  0  0  0  0
  192.0380  176.2960  136.4020 N   0  0  0  0  0  0  0  0  0  0  0  0
  195.3520  173.9910  135.4270 N   0  0  0  0  0  0  0  0  0  0  0  0
  192.5790  176.0510  135.0460 C   0  0  0  0  0  2  0  0  0  0  0  0
  194.5880  174.5860  134.5150 N   0  0  0  0  0  0  0  0  0  0  0  0
  193.5480  174.4760  136.4240 C   0  0  0  0  0  0  0  0  0  0  0  0
  194.7800  173.9680  136.6260 N   0  0  0  0  0  0  0  0  0  0  0  0
  192.7850  175.3770  137.3030 C   0  0  0  0  0  2  0  0  0  0  0  0
  196.6520  173.3980  135.1080 C   0  0  0  0  0  2  0  0  0  0  0  0
  197.8290  174.3300  135.4150 C   0  0  0  0  0  2  0  0  0  0  0  0
  198.3670  173.1180  137.1980 C   0  0  0  0  0  1  0  0  0  0  0  0
  198.8790  173.6210  136.0040 O   0  0  0  0  0  0  0  0  0  0  0  0
  186.6950  178.9140  136.9300 O   0  0  0  0  0  0  0  0  0  0  0  0
  187.3170  177.8720  136.5790 C   0  0  0  0  0  0  0  0  0  0  0  0
  186.6940  176.9270  135.7610 O   0  0  0  0  0  0  0  0  0  0  0  0
  183.1240  174.9450  136.7790 C   0  0  0  0  0  0  0  0  0  0  0  0
  185.5280  175.2230  137.0020 C   0  0  0  0  0  3  0  0  0  0  0  0
  184.3480  174.5540  137.3420 C   0  0  0  0  0  3  0  0  0  0  0  0
  184.2700  176.6420  135.4950 C   0  0  0  0  0  3  0  0  0  0  0  0
  185.4960  176.2850  136.0890 C   0  0  0  0  0  0  0  0  0  0  0  0
  183.0930  175.9820  135.8430 C   0  0  0  0  0  3  0  0  0  0  0  0
  181.8570  174.3000  137.1760 C   0  0  0  0  0  0  0  0  0  0  0  0
  179.9830  173.9440  138.8310 C   0  0  0  0  0  1  0  0  0  0  0  0
  181.1810  174.6660  138.4120 N   0  0  0  0  0  0  0  0  0  0  0  0
  181.4370  175.9410  139.0540 C   0  0  0  0  0  1  0  0  0  0  0  0
  181.3430  173.4350  136.3910 O   0  0  0  0  0  0  0  0  0  0  0  0
  2  1  2  0  0  0  0
  3  9  1  0  0  0  0
  4  8  2  0  0  0  0
  5 11  1  0  0  0  0
  5  6  1  0  0  0  0
  6  1  1  0  0  0  0
  6 19  1  1  0  0  0
  7 11  2  0  0  0  0
  8  5  2  0  0  0  0
  9 12  1  0  0  0  0
  9  4  1  0  0  0  0
 10  7  1  0  0  0  0
 11  2  1  0  0  0  0
 12 25  1  1  0  0  0
 12 10  1  0  0  0  0
 13 16  1  0  0  0  0
 13 22  1  0  0  0  0
 15 19  2  0  0  0  0
 15 20  1  0  0  0  0
 16 18  1  0  0  0  0
 17 14  1  0  0  0  0
 17 16  2  0  0  0  0
 19 17  1  0  0  0  0
 20 13  2  0  0  0  0
 22 23  1  0  0  0  0
 22 21  1  0  0  0  0
 23 21  1  0  0  0  0
 24 29  1  0  0  0  0
 25 31  1  0  0  0  0
 26 30  1  0  0  0  0
 27 24  1  0  0  0  0
 27 25  1  0  0  0  0
 28 24  2  0  0  0  0
 28 26  1  0  0  0  0
 29 30  2  0  0  0  0
 29 31  1  0  0  0  0
 32 33  1  0  0  0  0
 32 26  1  0  0  0  0
 33 35  1  0  0  0  0
 35 34  1  0  0  0  0
 37 36  2  0  0  0  0
 37  4  1  0  0  0  0
 38 43  1  0  0  0  0
 38 37  1  0  0  0  0
 39 45  1  0  0  0  0
 39 41  1  0  0  0  0
 40 41  2  0  0  0  0
 42 44  1  0  0  0  0
 42 43  2  0  0  0  0
 43 40  1  0  0  0  0
 44 39  2  0  0  0  0
 45 47  1  0  0  0  0
 47 46  1  0  0  0  0
 47 48  1  0  0  0  0
 49 45  2  0  0  0  0
M  END
>  <MODEL>
8

>  <REMARK>
 VINA RESULT:      -6.0      3.377      6.856
  Name = 
  10 active torsions:
  status: ('A' for Active; 'I' for Inactive)
    1  A    between atoms: C_1  and  C_7
    2  A    between atoms: C_2  and  C_10
    3  A    between atoms: N_5  and  C_47
    4  A    between atoms: C_11  and  C_18
    5  A    between atoms: C_11  and  O_29
    6  A    between atoms: O_12  and  C_32
    7  A    between atoms: O_12  and  C_42
    8  A    between atoms: N_14  and  C_18
    9  A    between atoms: C_16  and  C_42
   10  A    between atoms: C_22  and  C_39
                            x       y       z     vdW  Elec       q    Type
                         _______ _______ _______ _____ _____    ______ ____

>  <TORSDO>
F 10

$$$$
=
 OpenBabel10232410043D

 49 55  0  0  1  0  0  0  0  0999 V2000
  191.6190  178.0680  140.4210 N   0  0  0  0  0  0  0  0  0  0  0  0
  192.4190  177.1850  139.9100 C   0  0  0  0  0  3  0  0  0  0  0  0
  189.2070  175.6930  134.5880 C   0  0  0  0  0  1  0  0  0  0  0  0
  188.9320  176.0220  137.0660 C   0  0  0  0  0  0  0  0  0  0  0  0
  190.2720  176.6000  139.1990 C   0  0  0  0  0  0  0  0  0  0  0  0
  190.2220  177.8400  140.0360 C   0  0  1  0  0  3  0  0  0  0  0  0
  192.1940  175.3090  138.3620 N   0  0  0  0  0  0  0  0  0  0  0  0
  189.5090  176.3820  138.1720 C   0  0  0  0  0  0  0  0  0  0  0  0
  189.7700  175.6080  135.9440 N   0  0  0  0  0  0  0  0  0  0  0  0
  191.4210  174.3890  137.5140 C   0  0  0  0  0  2  0  0  0  0  0  0
  191.6700  176.2290  139.1240 C   0  0  0  0  0  0  0  0  0  0  0  0
  191.1110  174.9610  136.0940 C   0  0  2  0  0  3  0  0  0  0  0  0
  187.7690  177.1710  143.5020 C   0  0  0  0  0  0  0  0  0  0  0  0
  187.1940  178.5190  139.7010 S   0  0  0  0  0  1  0  0  0  0  0  0
  189.8890  177.1150  142.4280 C   0  0  0  0  0  3  0  0  0  0  0  0
  187.1730  177.6550  142.3270 C   0  0  0  0  0  0  0  0  0  0  0  0
  187.9650  177.8970  141.1980 C   0  0  0  0  0  0  0  0  0  0  0  0
  185.8330  177.8650  142.2730 F   0  0  0  0  0  0  0  0  0  0  0  0
  189.3480  177.6390  141.2470 C   0  0  0  0  0  0  0  0  0  0  0  0
  189.1010  176.8970  143.5110 N   0  0  0  0  0  0  0  0  0  0  0  0
  187.6360  177.3380  145.9650 C   0  0  0  0  0  2  0  0  0  0  0  0
  186.9420  176.8320  144.7110 C   0  0  0  0  0  3  0  0  0  0  0  0
  186.4570  178.0950  145.4070 C   0  0  0  0  0  2  0  0  0  0  0  0
  194.1880  174.5570  134.9940 C   0  0  0  0  0  0  0  0  0  0  0  0
  192.2170  175.7540  135.4960 N   0  0  0  0  0  0  0  0  0  0  0  0
  196.2710  174.9040  135.1860 N   0  0  0  0  0  0  0  0  0  0  0  0
  192.8750  174.9400  134.4490 C   0  0  0  0  0  2  0  0  0  0  0  0
  195.3610  174.4170  134.3470 N   0  0  0  0  0  0  0  0  0  0  0  0
  194.4060  175.1540  136.1590 C   0  0  0  0  0  0  0  0  0  0  0  0
  195.7210  175.4290  136.2770 N   0  0  0  0  0  0  0  0  0  0  0  0
  193.2660  176.0120  136.5190 C   0  0  0  0  0  2  0  0  0  0  0  0
  197.7100  174.8180  134.9340 C   0  0  0  0  0  2  0  0  0  0  0  0
  198.2630  173.3970  135.0860 C   0  0  0  0  0  2  0  0  0  0  0  0
  199.0390  174.1860  137.0120 C   0  0  0  0  0  1  0  0  0  0  0  0
  199.3810  173.3890  135.9230 O   0  0  0  0  0  0  0  0  0  0  0  0
  186.6010  176.4900  136.9470 O   0  0  0  0  0  0  0  0  0  0  0  0
  187.5100  175.6300  137.1190 C   0  0  0  0  0  0  0  0  0  0  0  0
  187.1770  174.2970  137.3670 O   0  0  0  0  0  0  0  0  0  0  0  0
  183.7420  172.4460  135.7900 C   0  0  0  0  0  0  0  0  0  0  0  0
  185.9860  173.3350  135.5060 C   0  0  0  0  0  3  0  0  0  0  0  0
  184.8460  172.7260  134.9710 C   0  0  0  0  0  3  0  0  0  0  0  0
  184.8970  173.4340  137.6690 C   0  0  0  0  0  3  0  0  0  0  0  0
  186.0270  173.6780  136.8640 C   0  0  0  0  0  0  0  0  0  0  0  0
  183.7670  172.8170  137.1370 C   0  0  0  0  0  3  0  0  0  0  0  0
  182.5580  171.7410  135.2630 C   0  0  0  0  0  0  0  0  0  0  0  0
  181.4050  169.6300  134.4900 C   0  0  0  0  0  1  0  0  0  0  0  0
  182.5510  170.2930  135.1050 N   0  0  0  0  0  0  0  0  0  0  0  0
  183.4690  169.4560  135.8550 C   0  0  0  0  0  1  0  0  0  0  0  0
  181.5180  172.4250  134.9800 O   0  0  0  0  0  0  0  0  0  0  0  0
  2  1  2  0  0  0  0
  3  9  1  0  0  0  0
  4 37  1  0  0  0  0
  4  8  2  0  0  0  0
  5  6  1  0  0  0  0
  6  1  1  0  0  0  0
  6 19  1  1  0  0  0
  7 11  2  0  0  0  0
  8  5  2  0  0  0  0
  9 12  1  0  0  0  0
  9  4  1  0  0  0  0
 10  7  1  0  0  0  0
 11  5  1  0  0  0  0
 11  2  1  0  0  0  0
 12 25  1  1  0  0  0
 12 10  1  0  0  0  0
 13 20  1  0  0  0  0
 13 22  1  0  0  0  0
 14 17  1  0  0  0  0
 15 20  2  0  0  0  0
 16 13  2  0  0  0  0
 17 19  2  0  0  0  0
 17 16  1  0  0  0  0
 18 16  1  0  0  0  0
 19 15  1  0  0  0  0
 22 23  1  0  0  0  0
 22 21  1  0  0  0  0
 23 21  1  0  0  0  0
 24 29  1  0  0  0  0
 25 31  1  0  0  0  0
 26 30  1  0  0  0  0
 27 24  1  0  0  0  0
 27 25  1  0  0  0  0
 28 24  2  0  0  0  0
 28 26  1  0  0  0  0
 29 30  2  0  0  0  0
 29 31  1  0  0  0  0
 32 33  1  0  0  0  0
 32 26  1  0  0  0  0
 33 35  1  0  0  0  0
 35 34  1  0  0  0  0
 36 37  2  0  0  0  0
 37 38  1  0  0  0  0
 39 44  1  0  0  0  0
 40 43  2  0  0  0  0
 41 40  1  0  0  0  0
 41 39  2  0  0  0  0
 43 38  1  0  0  0  0
 43 42  1  0  0  0  0
 44 42  2  0  0  0  0
 45 39  1  0  0  0  0
 46 47  1  0  0  0  0
 47 45  1  0  0  0  0
 47 48  1  0  0  0  0
 49 45  2  0  0  0  0
M  END
>  <MODEL>
9

>  <REMARK>
 VINA RESULT:      -6.0      3.441      7.676
  Name = 
  10 active torsions:
  status: ('A' for Active; 'I' for Inactive)
    1  A    between atoms: C_1  and  C_7
    2  A    between atoms: C_2  and  C_10
    3  A    between atoms: N_5  and  C_47
    4  A    between atoms: C_11  and  C_18
    5  A    between atoms: C_11  and  O_29
    6  A    between atoms: O_12  and  C_32
    7  A    between atoms: O_12  and  C_42
    8  A    between atoms: N_14  and  C_18
    9  A    between atoms: C_16  and  C_42
   10  A    between atoms: C_22  and  C_39
                            x       y       z     vdW  Elec       q    Type
                         _______ _______ _______ _____ _____    ______ ____

>  <TORSDO>
F 10

$$$$
