=
 OpenBabel10232408583D

 46 50  0  0  1  0  0  0  0  0999 V2000
  189.7270  177.6970  141.4740 C   0  0  0  0  0  0  0  0  0  0  0  0
  189.0760  177.9070  140.2470 C   0  0  0  0  0  3  0  0  0  0  0  0
  189.7430  177.5400  139.0830 C   0  0  0  0  0  0  0  0  0  0  0  0
  191.6340  176.7910  140.3140 N   0  0  0  0  0  0  0  0  0  0  0  0
  190.4900  177.0830  136.8580 C   0  0  0  0  0  2  0  0  0  0  0  0
  189.3080  177.6800  137.6640 C   0  0  1  0  0  3  0  0  0  0  0  0
  191.0170  177.1290  141.4850 C   0  0  0  0  0  3  0  0  0  0  0  0
  190.9940  177.0050  139.1350 C   0  0  0  0  0  0  0  0  0  0  0  0
  191.4940  176.6880  137.8520 N   0  0  0  0  0  0  0  0  0  0  0  0
  194.4720  173.2950  136.1950 C   0  0  2  0  0  3  0  0  0  0  0  0
  193.1500  175.0500  137.0870 C   0  0  0  0  0  0  0  0  0  0  0  0
  193.0490  172.7690  136.4050 C   0  0  1  0  0  3  0  0  0  0  0  0
  195.4790  172.3650  136.8490 C   0  0  0  0  0  1  0  0  0  0  0  0
  192.1880  173.9770  136.7550 C   0  0  0  0  0  2  0  0  0  0  0  0
  192.8330  176.2400  137.6030 C   0  0  0  0  0  3  0  0  0  0  0  0
  194.5550  174.6680  136.8350 C   0  0  0  0  0  2  0  0  0  0  0  0
  192.5100  172.0650  135.1530 C   0  0  0  0  0  3  0  0  0  0  0  0
  191.0250  172.3470  134.9960 C   0  0  0  0  0  1  0  0  0  0  0  0
  192.6900  170.5610  135.2470 C   0  0  0  0  0  1  0  0  0  0  0  0
  186.7080  178.8870  137.3540 O   0  0  0  0  0  0  0  0  0  0  0  0
  188.0530  176.9690  137.4020 N   0  0  0  0  0  0  0  0  0  0  0  0
  186.7700  177.6270  137.3670 C   0  0  0  0  0  0  0  0  0  0  0  0
  185.5030  176.8120  137.3840 C   0  0  2  0  0  3  0  0  0  0  0  0
  184.7100  177.0810  136.1860 C   0  0  0  0  0  2  0  0  0  0  0  0
  184.3150  177.6830  137.4690 N   0  0  0  0  0  0  0  0  0  0  0  0
  183.2490  176.8580  138.0090 C   0  0  0  0  0  2  0  0  0  0  0  0
  182.2160  177.7290  138.7050 C   0  0  0  0  0  2  0  0  0  0  0  0
  181.7210  180.0680  138.6730 O   0  0  0  0  0  1  0  0  0  0  0  0
  182.7390  179.1390  138.9070 C   0  0  0  0  0  2  0  0  0  0  0  0
  188.0580  175.0910  135.8410 C   0  0  0  0  0  1  0  0  0  0  0  0
  188.1460  175.5200  137.2950 C   0  0  0  0  0  2  0  0  0  0  0  0
  189.0590  178.0560  142.7600 C   0  0  0  0  0  2  0  0  0  0  0  0
  187.8730  177.1730  143.0100 C   0  0  0  0  0  0  0  0  0  0  0  0
  188.0560  175.9270  143.0940 O   0  0  0  0  0  0  0  0  0  0  0  0
  184.5740  178.8280  142.2140 C   0  0  0  0  0  3  0  0  0  0  0  0
  186.5230  177.7630  143.2020 C   0  0  0  0  0  0  0  0  0  0  0  0
  185.8250  178.2320  142.0790 C   0  0  0  0  0  3  0  0  0  0  0  0
  183.9860  178.9790  143.4790 C   0  0  0  0  0  0  0  0  0  0  0  0
  184.6810  178.5260  144.6110 C   0  0  0  0  0  0  0  0  0  0  0  0
  186.6050  177.4780  145.6210 O   0  0  0  0  0  1  0  0  0  0  0  0
  183.9770  178.7310  146.2080 Cl  0  0  0  0  0  0  0  0  0  0  0  0
  185.9410  177.9190  144.4790 C   0  0  0  0  0  0  0  0  0  0  0  0
  182.7280  179.5830  143.6490 O   0  0  0  0  0  0  0  0  0  0  0  0
  181.5040  179.1090  143.1520 C   0  0  0  0  0  0  0  0  0  0  0  0
  180.5660  178.4210  144.0800 C   0  0  0  0  0  1  0  0  0  0  0  0
  181.1810  179.2410  141.9400 O   0  0  0  0  0  0  0  0  0  0  0  0
  1  7  1  0  0  0  0
  1 32  1  0  0  0  0
  2  1  2  0  0  0  0
  3  8  2  0  0  0  0
  3  2  1  0  0  0  0
  4  7  2  0  0  0  0
  5  6  1  0  0  0  0
  5  9  1  0  0  0  0
  6 21  1  1  0  0  0
  6  3  1  0  0  0  0
  8  4  1  0  0  0  0
  9  8  1  0  0  0  0
 10 12  1  0  0  0  0
 10 16  1  0  0  0  0
 10 13  1  1  0  0  0
 11 15  2  0  0  0  0
 12 17  1  6  0  0  0
 12 14  1  0  0  0  0
 14 11  1  0  0  0  0
 15  9  1  0  0  0  0
 16 11  1  0  0  0  0
 17 19  1  0  0  0  0
 18 17  1  0  0  0  0
 20 22  2  0  0  0  0
 22 21  1  0  0  0  0
 23 22  1  6  0  0  0
 23 25  1  0  0  0  0
 24 23  1  0  0  0  0
 24 25  1  0  0  0  0
 25 26  1  0  0  0  0
 26 27  1  0  0  0  0
 27 29  1  0  0  0  0
 28 29  1  0  0  0  0
 30 31  1  0  0  0  0
 31 21  1  0  0  0  0
 32 33  1  0  0  0  0
 33 34  2  0  0  0  0
 33 36  1  0  0  0  0
 35 38  1  0  0  0  0
 36 42  2  0  0  0  0
 37 35  2  0  0  0  0
 37 36  1  0  0  0  0
 38 43  1  0  0  0  0
 38 39  2  0  0  0  0
 39 41  1  0  0  0  0
 42 39  1  0  0  0  0
 42 40  1  0  0  0  0
 44 43  1  0  0  0  0
 44 45  1  0  0  0  0
 46 44  2  0  0  0  0
M  END
>  <MODEL>
1

>  <REMARK>
 VINA RESULT:      -7.4      0.000      0.000
  Name = 
  13 active torsions:
  status: ('A' for Active; 'I' for Inactive)
    1  A    between atoms: C_1  and  C_3
    2  A    between atoms: C_1  and  C_45
    3  A    between atoms: C_4  and  O_38
    4  A    between atoms: C_6  and  C_15
    5  A    between atoms: C_6  and  C_18
    6  A    between atoms: C_8  and  C_45
    7  A    between atoms: C_10  and  O_38
    8  A    between atoms: C_15  and  N_33
    9  A    between atoms: C_16  and  C_31
   10  A    between atoms: C_22  and  C_42
   11  A    between atoms: N_27  and  C_30
   12  A    between atoms: N_27  and  C_44
   13  A    between atoms: C_41  and  N_46
                            x       y       z     vdW  Elec       q    Type
                         _______ _______ _______ _____ _____    ______ ____

>  <TORSDO>
F 13

$$$$
=
 OpenBabel10232408583D

 46 50  0  0  1  0  0  0  0  0999 V2000
  191.3400  177.3740  140.4970 C   0  0  0  0  0  0  0  0  0  0  0  0
  190.4010  177.1350  139.4800 C   0  0  0  0  0  3  0  0  0  0  0  0
  190.8750  176.7340  138.2350 C   0  0  0  0  0  0  0  0  0  0  0  0
  193.1300  176.8120  138.9850 N   0  0  0  0  0  0  0  0  0  0  0  0
  191.2160  176.0510  135.9690 C   0  0  0  0  0  2  0  0  0  0  0  0
  190.1150  176.4510  136.9840 C   0  0  1  0  0  3  0  0  0  0  0  0
  192.7130  177.2010  140.2270 C   0  0  0  0  0  3  0  0  0  0  0  0
  192.2100  176.5900  138.0090 C   0  0  0  0  0  0  0  0  0  0  0  0
  192.4880  176.1650  136.6910 N   0  0  0  0  0  0  0  0  0  0  0  0
  196.4440  173.5460  135.9070 C   0  0  2  0  0  3  0  0  0  0  0  0
  194.5890  174.9850  136.2400 C   0  0  0  0  0  0  0  0  0  0  0  0
  195.5310  172.9210  136.9660 C   0  0  1  0  0  3  0  0  0  0  0  0
  197.8730  173.6150  136.4170 C   0  0  0  0  0  1  0  0  0  0  0  0
  194.2530  173.7500  136.9820 C   0  0  0  0  0  2  0  0  0  0  0  0
  193.8100  176.0650  136.1440 C   0  0  0  0  0  3  0  0  0  0  0  0
  195.9330  174.9470  135.6280 C   0  0  0  0  0  2  0  0  0  0  0  0
  195.2190  171.4510  136.6560 C   0  0  0  0  0  3  0  0  0  0  0  0
  193.7740  171.3090  136.2090 C   0  0  0  0  0  1  0  0  0  0  0  0
  195.4160  170.5760  137.8800 C   0  0  0  0  0  1  0  0  0  0  0  0
  190.6440  173.6200  136.8490 O   0  0  0  0  0  0  0  0  0  0  0  0
  189.1310  175.3800  137.1720 N   0  0  0  0  0  0  0  0  0  0  0  0
  189.4430  173.9850  136.9810 C   0  0  0  0  0  0  0  0  0  0  0  0
  188.3350  172.9670  136.9050 C   0  0  2  0  0  3  0  0  0  0  0  0
  188.5550  172.0600  135.7810 C   0  0  0  0  0  2  0  0  0  0  0  0
  187.5520  173.1310  135.6640 N   0  0  0  0  0  0  0  0  0  0  0  0
  186.2580  172.5230  135.9220 C   0  0  0  0  0  2  0  0  0  0  0  0
  185.1530  173.3730  135.3170 C   0  0  0  0  0  2  0  0  0  0  0  0
  184.7300  174.0040  137.5840 O   0  0  0  0  0  1  0  0  0  0  0  0
  184.1110  173.7360  136.3600 C   0  0  0  0  0  2  0  0  0  0  0  0
  187.2470  176.6830  136.3240 C   0  0  0  0  0  1  0  0  0  0  0  0
  187.7650  175.8040  137.4480 C   0  0  0  0  0  2  0  0  0  0  0  0
  190.8950  177.7920  141.8590 C   0  0  0  0  0  2  0  0  0  0  0  0
  190.3150  176.6310  142.6110 C   0  0  0  0  0  0  0  0  0  0  0  0
  190.7950  175.4820  142.4090 O   0  0  0  0  0  0  0  0  0  0  0  0
  186.8560  177.1040  144.0500 C   0  0  0  0  0  3  0  0  0  0  0  0
  189.2320  176.8450  143.6050 C   0  0  0  0  0  0  0  0  0  0  0  0
  187.9020  176.8680  143.1600 C   0  0  0  0  0  3  0  0  0  0  0  0
  187.1110  177.3300  145.4110 C   0  0  0  0  0  0  0  0  0  0  0  0
  188.4390  177.3230  145.8640 C   0  0  0  0  0  0  0  0  0  0  0  0
  190.8030  177.0780  145.4530 O   0  0  0  0  0  1  0  0  0  0  0  0
  188.7840  177.6330  147.5600 Cl  0  0  0  0  0  0  0  0  0  0  0  0
  189.4970  177.0800  144.9720 C   0  0  0  0  0  0  0  0  0  0  0  0
  186.0780  177.5780  146.3310 O   0  0  0  0  0  0  0  0  0  0  0  0
  185.2960  178.7400  146.4110 C   0  0  0  0  0  0  0  0  0  0  0  0
  184.1230  178.8850  145.5070 C   0  0  0  0  0  1  0  0  0  0  0  0
  185.5650  179.6700  147.2200 O   0  0  0  0  0  0  0  0  0  0  0  0
  1 32  1  0  0  0  0
  2  1  2  0  0  0  0
  3  2  1  0  0  0  0
  4  7  2  0  0  0  0
  5  9  1  0  0  0  0
  5  6  1  0  0  0  0
  6 21  1  1  0  0  0
  6  3  1  0  0  0  0
  7  1  1  0  0  0  0
  8  3  2  0  0  0  0
  8  4  1  0  0  0  0
  9  8  1  0  0  0  0
 10 13  1  1  0  0  0
 10 12  1  0  0  0  0
 11 14  1  0  0  0  0
 12 17  1  6  0  0  0
 12 14  1  0  0  0  0
 15 11  2  0  0  0  0
 15  9  1  0  0  0  0
 16 10  1  0  0  0  0
 16 11  1  0  0  0  0
 17 19  1  0  0  0  0
 18 17  1  0  0  0  0
 20 22  2  0  0  0  0
 21 31  1  0  0  0  0
 22 21  1  0  0  0  0
 23 22  1  6  0  0  0
 24 23  1  0  0  0  0
 25 24  1  0  0  0  0
 25 26  1  0  0  0  0
 25 23  1  0  0  0  0
 27 26  1  0  0  0  0
 27 29  1  0  0  0  0
 29 28  1  0  0  0  0
 30 31  1  0  0  0  0
 32 33  1  0  0  0  0
 33 36  1  0  0  0  0
 34 33  2  0  0  0  0
 35 38  1  0  0  0  0
 36 42  2  0  0  0  0
 37 36  1  0  0  0  0
 37 35  2  0  0  0  0
 38 39  2  0  0  0  0
 38 43  1  0  0  0  0
 39 41  1  0  0  0  0
 42 40  1  0  0  0  0
 42 39  1  0  0  0  0
 43 44  1  0  0  0  0
 44 46  2  0  0  0  0
 45 44  1  0  0  0  0
M  END
>  <MODEL>
2

>  <REMARK>
 VINA RESULT:      -7.4      2.922      3.805
  Name = 
  13 active torsions:
  status: ('A' for Active; 'I' for Inactive)
    1  A    between atoms: C_1  and  C_3
    2  A    between atoms: C_1  and  C_45
    3  A    between atoms: C_4  and  O_38
    4  A    between atoms: C_6  and  C_15
    5  A    between atoms: C_6  and  C_18
    6  A    between atoms: C_8  and  C_45
    7  A    between atoms: C_10  and  O_38
    8  A    between atoms: C_15  and  N_33
    9  A    between atoms: C_16  and  C_31
   10  A    between atoms: C_22  and  C_42
   11  A    between atoms: N_27  and  C_30
   12  A    between atoms: N_27  and  C_44
   13  A    between atoms: C_41  and  N_46
                            x       y       z     vdW  Elec       q    Type
                         _______ _______ _______ _____ _____    ______ ____

>  <TORSDO>
F 13

$$$$
=
 OpenBabel10232408583D

 46 50  0  0  1  0  0  0  0  0999 V2000
  189.2650  177.6740  141.1140 C   0  0  0  0  0  0  0  0  0  0  0  0
  188.6050  177.7220  139.8750 C   0  0  0  0  0  3  0  0  0  0  0  0
  189.3300  177.3850  138.7370 C   0  0  0  0  0  0  0  0  0  0  0  0
  191.2930  176.9780  140.0150 N   0  0  0  0  0  0  0  0  0  0  0  0
  190.1590  176.9110  136.5450 C   0  0  0  0  0  2  0  0  0  0  0  0
  188.8960  177.3830  137.3100 C   0  0  1  0  0  3  0  0  0  0  0  0
  190.6210  177.2930  141.1630 C   0  0  0  0  0  3  0  0  0  0  0  0
  190.6430  177.0330  138.8230 C   0  0  0  0  0  0  0  0  0  0  0  0
  191.1960  176.7160  137.5630 N   0  0  0  0  0  0  0  0  0  0  0  0
  194.6430  173.6440  136.2200 C   0  0  2  0  0  3  0  0  0  0  0  0
  193.0770  175.2690  136.9460 C   0  0  0  0  0  0  0  0  0  0  0  0
  193.3110  172.9410  136.4960 C   0  0  1  0  0  3  0  0  0  0  0  0
  195.7730  172.9410  136.9510 C   0  0  0  0  0  1  0  0  0  0  0  0
  192.2820  174.0390  136.7340 C   0  0  0  0  0  2  0  0  0  0  0  0
  192.5870  176.4450  137.3450 C   0  0  0  0  0  3  0  0  0  0  0  0
  194.5230  175.0720  136.7180 C   0  0  0  0  0  2  0  0  0  0  0  0
  192.8850  172.0440  135.3270 C   0  0  0  0  0  3  0  0  0  0  0  0
  191.3880  172.1660  135.0950 C   0  0  0  0  0  1  0  0  0  0  0  0
  193.1940  170.5850  135.6120 C   0  0  0  0  0  1  0  0  0  0  0  0
  186.1330  178.1820  137.1110 O   0  0  0  0  0  0  0  0  0  0  0  0
  187.7550  176.4900  137.0860 N   0  0  0  0  0  0  0  0  0  0  0  0
  186.3870  176.9450  137.1060 C   0  0  0  0  0  0  0  0  0  0  0  0
  185.2600  175.9470  137.1590 C   0  0  2  0  0  3  0  0  0  0  0  0
  184.1930  176.3360  136.2390 C   0  0  0  0  0  2  0  0  0  0  0  0
  184.0280  176.5670  137.6840 N   0  0  0  0  0  0  0  0  0  0  0  0
  183.2140  175.4760  138.1930 C   0  0  0  0  0  2  0  0  0  0  0  0
  182.4940  175.9100  139.4590 C   0  0  0  0  0  2  0  0  0  0  0  0
  181.7180  177.8340  140.6480 O   0  0  0  0  0  1  0  0  0  0  0  0
  182.6310  177.4050  139.6800 C   0  0  0  0  0  2  0  0  0  0  0  0
  187.9370  174.6350  135.5090 C   0  0  0  0  0  1  0  0  0  0  0  0
  188.0640  175.0730  136.9570 C   0  0  0  0  0  2  0  0  0  0  0  0
  188.5400  178.0090  142.3750 C   0  0  0  0  0  2  0  0  0  0  0  0
  188.6180  176.8750  143.3540 C   0  0  0  0  0  0  0  0  0  0  0  0
  188.0140  175.8020  143.0810 O   0  0  0  0  0  0  0  0  0  0  0  0
  191.5870  176.7490  145.6840 C   0  0  0  0  0  3  0  0  0  0  0  0
  189.4310  177.0050  144.5920 C   0  0  0  0  0  0  0  0  0  0  0  0
  190.7940  176.6810  144.5410 C   0  0  0  0  0  3  0  0  0  0  0  0
  191.0360  177.1380  146.9150 C   0  0  0  0  0  0  0  0  0  0  0  0
  189.6690  177.4510  146.9790 C   0  0  0  0  0  0  0  0  0  0  0  0
  187.5150  177.7080  145.9250 O   0  0  0  0  0  1  0  0  0  0  0  0
  188.9520  177.9120  148.5160 Cl  0  0  0  0  0  0  0  0  0  0  0  0
  188.8670  177.3890  145.8280 C   0  0  0  0  0  0  0  0  0  0  0  0
  191.8080  177.2090  148.0870 O   0  0  0  0  0  0  0  0  0  0  0  0
  192.7780  176.2850  148.5020 C   0  0  0  0  0  0  0  0  0  0  0  0
  193.5610  176.5650  149.7360 C   0  0  0  0  0  1  0  0  0  0  0  0
  193.0140  175.2290  147.8530 O   0  0  0  0  0  0  0  0  0  0  0  0
  1  7  1  0  0  0  0
  1 32  1  0  0  0  0
  2  1  2  0  0  0  0
  3  8  2  0  0  0  0
  3  2  1  0  0  0  0
  4  7  2  0  0  0  0
  5  6  1  0  0  0  0
  5  9  1  0  0  0  0
  6 21  1  1  0  0  0
  6  3  1  0  0  0  0
  8  4  1  0  0  0  0
  9  8  1  0  0  0  0
 10 12  1  0  0  0  0
 10 16  1  0  0  0  0
 10 13  1  1  0  0  0
 11 15  2  0  0  0  0
 12 17  1  6  0  0  0
 12 14  1  0  0  0  0
 14 11  1  0  0  0  0
 15  9  1  0  0  0  0
 16 11  1  0  0  0  0
 17 19  1  0  0  0  0
 18 17  1  0  0  0  0
 21 22  1  0  0  0  0
 22 20  2  0  0  0  0
 23 22  1  6  0  0  0
 23 25  1  0  0  0  0
 24 23  1  0  0  0  0
 24 25  1  0  0  0  0
 25 26  1  0  0  0  0
 26 27  1  0  0  0  0
 27 29  1  0  0  0  0
 29 28  1  0  0  0  0
 30 31  1  0  0  0  0
 31 21  1  0  0  0  0
 32 33  1  0  0  0  0
 33 36  1  0  0  0  0
 34 33  2  0  0  0  0
 35 38  1  0  0  0  0
 36 42  2  0  0  0  0
 37 36  1  0  0  0  0
 37 35  2  0  0  0  0
 38 39  2  0  0  0  0
 38 43  1  0  0  0  0
 39 41  1  0  0  0  0
 42 40  1  0  0  0  0
 42 39  1  0  0  0  0
 43 44  1  0  0  0  0
 44 45  1  0  0  0  0
 46 44  2  0  0  0  0
M  END
>  <MODEL>
3

>  <REMARK>
 VINA RESULT:      -7.3      2.697      4.533
  Name = 
  13 active torsions:
  status: ('A' for Active; 'I' for Inactive)
    1  A    between atoms: C_1  and  C_3
    2  A    between atoms: C_1  and  C_45
    3  A    between atoms: C_4  and  O_38
    4  A    between atoms: C_6  and  C_15
    5  A    between atoms: C_6  and  C_18
    6  A    between atoms: C_8  and  C_45
    7  A    between atoms: C_10  and  O_38
    8  A    between atoms: C_15  and  N_33
    9  A    between atoms: C_16  and  C_31
   10  A    between atoms: C_22  and  C_42
   11  A    between atoms: N_27  and  C_30
   12  A    between atoms: N_27  and  C_44
   13  A    between atoms: C_41  and  N_46
                            x       y       z     vdW  Elec       q    Type
                         _______ _______ _______ _____ _____    ______ ____

>  <TORSDO>
F 13

$$$$
=
 OpenBabel10232408583D

 46 50  0  0  1  0  0  0  0  0999 V2000
  188.9110  177.6370  139.5860 C   0  0  0  0  0  0  0  0  0  0  0  0
  189.1170  176.5220  138.7570 C   0  0  0  0  0  3  0  0  0  0  0  0
  188.1920  176.2810  137.7460 C   0  0  0  0  0  0  0  0  0  0  0  0
  186.9070  178.1830  138.3660 N   0  0  0  0  0  0  0  0  0  0  0  0
  186.8840  175.4770  135.9130 C   0  0  0  0  0  2  0  0  0  0  0  0
  188.1470  175.1660  136.7570 C   0  0  1  0  0  3  0  0  0  0  0  0
  187.7910  178.4650  139.3690 C   0  0  0  0  0  3  0  0  0  0  0  0
  187.1160  177.0980  137.5750 C   0  0  0  0  0  0  0  0  0  0  0  0
  186.3050  176.6940  136.4910 N   0  0  0  0  0  0  0  0  0  0  0  0
  181.6090  177.1600  137.4140 C   0  0  2  0  0  3  0  0  0  0  0  0
  183.8950  177.0200  136.8010 C   0  0  0  0  0  0  0  0  0  0  0  0
  182.2190  175.9360  138.1030 C   0  0  1  0  0  3  0  0  0  0  0  0
  180.3430  176.7700  136.6700 C   0  0  0  0  0  1  0  0  0  0  0  0
  183.7240  176.0140  137.8720 C   0  0  0  0  0  2  0  0  0  0  0  0
  185.0410  177.2910  136.1720 C   0  0  0  0  0  3  0  0  0  0  0  0
  182.6340  177.6960  136.4320 C   0  0  0  0  0  2  0  0  0  0  0  0
  181.9030  175.9090  139.6040 C   0  0  0  0  0  3  0  0  0  0  0  0
  180.5850  175.1930  139.8460 C   0  0  0  0  0  1  0  0  0  0  0  0
  181.7790  177.3140  140.1660 C   0  0  0  0  0  1  0  0  0  0  0  0
  190.6030  173.8140  137.4290 O   0  0  0  0  0  0  0  0  0  0  0  0
  189.3570  175.1170  135.9310 N   0  0  0  0  0  0  0  0  0  0  0  0
  190.5880  174.5130  136.3780 C   0  0  0  0  0  0  0  0  0  0  0  0
  191.8650  174.7460  135.6130 C   0  0  2  0  0  3  0  0  0  0  0  0
  192.2340  173.5480  134.8620 C   0  0  0  0  0  2  0  0  0  0  0  0
  192.9460  173.8720  136.1090 N   0  0  0  0  0  0  0  0  0  0  0  0
  194.1900  174.5150  135.7250 C   0  0  0  0  0  2  0  0  0  0  0  0
  195.2350  174.3200  136.8120 C   0  0  0  0  0  2  0  0  0  0  0  0
  194.7300  175.5230  138.8150 O   0  0  0  0  0  1  0  0  0  0  0  0
  194.5920  174.2820  138.1860 C   0  0  0  0  0  2  0  0  0  0  0  0
  189.6970  177.2760  134.8430 C   0  0  0  0  0  1  0  0  0  0  0  0
  189.2970  175.8230  134.6590 C   0  0  0  0  0  2  0  0  0  0  0  0
  189.8750  177.9590  140.6800 C   0  0  0  0  0  2  0  0  0  0  0  0
  189.8420  176.9050  141.7470 C   0  0  0  0  0  0  0  0  0  0  0  0
  190.5910  175.8980  141.6210 O   0  0  0  0  0  0  0  0  0  0  0  0
  186.7390  177.2590  143.8700 C   0  0  0  0  0  3  0  0  0  0  0  0
  188.9800  177.0740  142.9450 C   0  0  0  0  0  0  0  0  0  0  0  0
  187.5870  177.0660  142.7810 C   0  0  0  0  0  3  0  0  0  0  0  0
  187.2620  177.4740  145.1540 C   0  0  0  0  0  0  0  0  0  0  0  0
  188.6540  177.4980  145.3270 C   0  0  0  0  0  0  0  0  0  0  0  0
  190.8900  177.3250  144.4380 O   0  0  0  0  0  1  0  0  0  0  0  0
  189.3310  177.7940  146.9220 Cl  0  0  0  0  0  0  0  0  0  0  0  0
  189.5130  177.2970  144.2340 C   0  0  0  0  0  0  0  0  0  0  0  0
  186.4320  177.6800  146.2710 O   0  0  0  0  0  0  0  0  0  0  0  0
  185.5370  178.7430  146.4570 C   0  0  0  0  0  0  0  0  0  0  0  0
  184.2980  178.7960  145.6350 C   0  0  0  0  0  1  0  0  0  0  0  0
  185.7570  179.6600  147.2950 O   0  0  0  0  0  0  0  0  0  0  0  0
  1 32  1  0  0  0  0
  2  1  2  0  0  0  0
  3  2  1  0  0  0  0
  4  7  2  0  0  0  0
  5  9  1  0  0  0  0
  5  6  1  0  0  0  0
  6 21  1  6  0  0  0
  6  3  1  0  0  0  0
  7  1  1  0  0  0  0
  8  3  2  0  0  0  0
  8  4  1  0  0  0  0
  9  8  1  0  0  0  0
 10 13  1  6  0  0  0
 10 12  1  0  0  0  0
 11 14  1  0  0  0  0
 12 17  1  1  0  0  0
 14 12  1  0  0  0  0
 15  9  1  0  0  0  0
 15 11  2  0  0  0  0
 16 11  1  0  0  0  0
 16 10  1  0  0  0  0
 17 18  1  0  0  0  0
 17 19  1  0  0  0  0
 21 22  1  0  0  0  0
 22 20  2  0  0  0  0
 23 25  1  0  0  0  0
 23 22  1  1  0  0  0
 24 23  1  0  0  0  0
 24 25  1  0  0  0  0
 26 25  1  0  0  0  0
 26 27  1  0  0  0  0
 27 29  1  0  0  0  0
 29 28  1  0  0  0  0
 31 30  1  0  0  0  0
 31 21  1  0  0  0  0
 32 33  1  0  0  0  0
 33 36  1  0  0  0  0
 34 33  2  0  0  0  0
 35 38  1  0  0  0  0
 36 42  2  0  0  0  0
 37 36  1  0  0  0  0
 37 35  2  0  0  0  0
 38 39  2  0  0  0  0
 38 43  1  0  0  0  0
 39 41  1  0  0  0  0
 42 40  1  0  0  0  0
 42 39  1  0  0  0  0
 43 44  1  0  0  0  0
 44 46  2  0  0  0  0
 45 44  1  0  0  0  0
M  END
>  <MODEL>
4

>  <REMARK>
 VINA RESULT:      -7.2      2.956      7.765
  Name = 
  13 active torsions:
  status: ('A' for Active; 'I' for Inactive)
    1  A    between atoms: C_1  and  C_3
    2  A    between atoms: C_1  and  C_45
    3  A    between atoms: C_4  and  O_38
    4  A    between atoms: C_6  and  C_15
    5  A    between atoms: C_6  and  C_18
    6  A    between atoms: C_8  and  C_45
    7  A    between atoms: C_10  and  O_38
    8  A    between atoms: C_15  and  N_33
    9  A    between atoms: C_16  and  C_31
   10  A    between atoms: C_22  and  C_42
   11  A    between atoms: N_27  and  C_30
   12  A    between atoms: N_27  and  C_44
   13  A    between atoms: C_41  and  N_46
                            x       y       z     vdW  Elec       q    Type
                         _______ _______ _______ _____ _____    ______ ____

>  <TORSDO>
F 13

$$$$
=
 OpenBabel10232408583D

 46 50  0  0  1  0  0  0  0  0999 V2000
  186.2290  178.4620  141.5050 C   0  0  0  0  0  0  0  0  0  0  0  0
  187.2470  178.6520  140.5560 C   0  0  0  0  0  3  0  0  0  0  0  0
  188.4870  178.0720  140.8050 C   0  0  0  0  0  0  0  0  0  0  0  0
  187.7310  177.1580  142.8640 N   0  0  0  0  0  0  0  0  0  0  0  0
  190.7460  177.2890  140.8090 C   0  0  0  0  0  2  0  0  0  0  0  0
  189.7380  178.1410  139.9960 C   0  0  1  0  0  3  0  0  0  0  0  0
  186.4930  177.7010  142.6610 C   0  0  0  0  0  3  0  0  0  0  0  0
  188.7070  177.3540  141.9400 C   0  0  0  0  0  0  0  0  0  0  0  0
  190.0210  176.8390  142.0020 N   0  0  0  0  0  0  0  0  0  0  0  0
  190.5030  176.5390  146.7770 C   0  0  2  0  0  3  0  0  0  0  0  0
  190.3990  176.5610  144.4080 C   0  0  0  0  0  0  0  0  0  0  0  0
  189.9680  177.9020  146.3300 C   0  0  1  0  0  3  0  0  0  0  0  0
  191.6690  176.7170  147.7330 C   0  0  0  0  0  1  0  0  0  0  0  0
  189.7010  177.7940  144.8340 C   0  0  0  0  0  2  0  0  0  0  0  0
  190.5620  176.1630  143.1450 C   0  0  0  0  0  3  0  0  0  0  0  0
  190.9670  175.7970  145.5380 C   0  0  0  0  0  2  0  0  0  0  0  0
  188.6880  178.2880  147.0820 C   0  0  0  0  0  3  0  0  0  0  0  0
  188.8630  178.0390  148.5710 C   0  0  0  0  0  1  0  0  0  0  0  0
  187.5020  177.4660  146.6080 C   0  0  0  0  0  1  0  0  0  0  0  0
  188.9810  179.6730  137.6740 O   0  0  0  0  0  0  0  0  0  0  0  0
  189.5450  177.6140  138.6420 N   0  0  0  0  0  0  0  0  0  0  0  0
  189.0590  178.4200  137.5480 C   0  0  0  0  0  0  0  0  0  0  0  0
  188.6100  177.7640  136.2690 C   0  0  2  0  0  3  0  0  0  0  0  0
  187.4030  178.4130  135.7610 C   0  0  0  0  0  2  0  0  0  0  0  0
  187.2970  177.1120  136.4410 N   0  0  0  0  0  0  0  0  0  0  0  0
  187.2100  176.1010  135.4020 C   0  0  0  0  0  2  0  0  0  0  0  0
  185.8660  176.1910  134.6980 C   0  0  0  0  0  2  0  0  0  0  0  0
  186.0290  173.8360  135.0720 O   0  0  0  0  0  1  0  0  0  0  0  0
  185.3410  174.8110  134.3460 C   0  0  0  0  0  2  0  0  0  0  0  0
  191.0430  175.9270  137.7090 C   0  0  0  0  0  1  0  0  0  0  0  0
  189.7560  176.1840  138.4720 C   0  0  0  0  0  2  0  0  0  0  0  0
  184.8710  179.0450  141.2900 C   0  0  0  0  0  2  0  0  0  0  0  0
  184.4730  178.9520  139.8470 C   0  0  0  0  0  0  0  0  0  0  0  0
  184.7300  179.9260  139.0870 O   0  0  0  0  0  0  0  0  0  0  0  0
  183.8210  175.9430  137.6600 C   0  0  0  0  0  3  0  0  0  0  0  0
  183.8330  177.7180  139.3210 C   0  0  0  0  0  0  0  0  0  0  0  0
  184.4070  177.0800  138.2120 C   0  0  0  0  0  3  0  0  0  0  0  0
  182.6370  175.4160  138.1980 C   0  0  0  0  0  0  0  0  0  0  0  0
  182.0470  176.0550  139.2990 C   0  0  0  0  0  0  0  0  0  0  0  0
  182.0280  177.8070  140.9560 O   0  0  0  0  0  1  0  0  0  0  0  0
  180.5480  175.4280  139.9710 Cl  0  0  0  0  0  0  0  0  0  0  0  0
  182.6370  177.1980  139.8630 C   0  0  0  0  0  0  0  0  0  0  0  0
  182.0180  174.2750  137.6590 O   0  0  0  0  0  0  0  0  0  0  0  0
  182.5420  173.4340  136.6660 C   0  0  0  0  0  0  0  0  0  0  0  0
  183.5270  172.3880  137.0520 C   0  0  0  0  0  1  0  0  0  0  0  0
  182.2110  173.5480  135.4540 O   0  0  0  0  0  0  0  0  0  0  0  0
  1  7  1  0  0  0  0
  2  3  1  0  0  0  0
  2  1  2  0  0  0  0
  3  8  2  0  0  0  0
  5  9  1  0  0  0  0
  6 21  1  6  0  0  0
  6  3  1  0  0  0  0
  6  5  1  0  0  0  0
  7  4  2  0  0  0  0
  8  9  1  0  0  0  0
  8  4  1  0  0  0  0
  9 15  1  0  0  0  0
 10 13  1  1  0  0  0
 11 14  1  0  0  0  0
 11 16  1  0  0  0  0
 12 10  1  0  0  0  0
 12 17  1  1  0  0  0
 14 12  1  0  0  0  0
 15 11  2  0  0  0  0
 16 10  1  0  0  0  0
 17 18  1  0  0  0  0
 19 17  1  0  0  0  0
 22 20  2  0  0  0  0
 22 21  1  0  0  0  0
 23 25  1  0  0  0  0
 23 22  1  1  0  0  0
 24 23  1  0  0  0  0
 24 25  1  0  0  0  0
 26 25  1  0  0  0  0
 27 26  1  0  0  0  0
 29 27  1  0  0  0  0
 29 28  1  0  0  0  0
 30 31  1  0  0  0  0
 31 21  1  0  0  0  0
 32  1  1  0  0  0  0
 33 32  1  0  0  0  0
 34 33  2  0  0  0  0
 35 38  2  0  0  0  0
 35 37  1  0  0  0  0
 36 33  1  0  0  0  0
 36 42  1  0  0  0  0
 37 36  2  0  0  0  0
 38 39  1  0  0  0  0
 39 42  2  0  0  0  0
 39 41  1  0  0  0  0
 42 40  1  0  0  0  0
 43 38  1  0  0  0  0
 44 45  1  0  0  0  0
 44 43  1  0  0  0  0
 46 44  2  0  0  0  0
M  END
>  <MODEL>
5

>  <REMARK>
 VINA RESULT:      -7.1      3.206      7.172
  Name = 
  13 active torsions:
  status: ('A' for Active; 'I' for Inactive)
    1  A    between atoms: C_1  and  C_3
    2  A    between atoms: C_1  and  C_45
    3  A    between atoms: C_4  and  O_38
    4  A    between atoms: C_6  and  C_15
    5  A    between atoms: C_6  and  C_18
    6  A    between atoms: C_8  and  C_45
    7  A    between atoms: C_10  and  O_38
    8  A    between atoms: C_15  and  N_33
    9  A    between atoms: C_16  and  C_31
   10  A    between atoms: C_22  and  C_42
   11  A    between atoms: N_27  and  C_30
   12  A    between atoms: N_27  and  C_44
   13  A    between atoms: C_41  and  N_46
                            x       y       z     vdW  Elec       q    Type
                         _______ _______ _______ _____ _____    ______ ____

>  <TORSDO>
F 13

$$$$
=
 OpenBabel10232408583D

 46 50  0  0  1  0  0  0  0  0999 V2000
  186.8040  178.4400  140.8120 C   0  0  0  0  0  0  0  0  0  0  0  0
  187.3590  177.6700  141.8460 C   0  0  0  0  0  3  0  0  0  0  0  0
  188.6770  177.2450  141.7080 C   0  0  0  0  0  0  0  0  0  0  0  0
  188.8760  178.3070  139.5900 N   0  0  0  0  0  0  0  0  0  0  0  0
  190.8630  176.2970  141.9020 C   0  0  0  0  0  2  0  0  0  0  0  0
  189.4950  176.3980  142.6230 C   0  0  1  0  0  3  0  0  0  0  0  0
  187.5880  178.7540  139.6830 C   0  0  0  0  0  3  0  0  0  0  0  0
  189.3980  177.5580  140.5960 C   0  0  0  0  0  0  0  0  0  0  0  0
  190.7140  177.0470  140.6510 N   0  0  0  0  0  0  0  0  0  0  0  0
  192.0180  175.6210  136.2480 C   0  0  2  0  0  3  0  0  0  0  0  0
  191.5430  176.3990  138.4360 C   0  0  0  0  0  0  0  0  0  0  0  0
  190.9460  174.7160  136.8590 C   0  0  1  0  0  3  0  0  0  0  0  0
  193.1660  174.7880  135.7050 C   0  0  0  0  0  1  0  0  0  0  0  0
  190.5080  175.3800  138.1590 C   0  0  0  0  0  2  0  0  0  0  0  0
  191.6430  177.1120  139.5610 C   0  0  0  0  0  3  0  0  0  0  0  0
  192.5270  176.5390  137.3440 C   0  0  0  0  0  2  0  0  0  0  0  0
  189.7500  174.5290  135.9170 C   0  0  0  0  0  3  0  0  0  0  0  0
  189.5050  175.8050  135.1280 C   0  0  0  0  0  1  0  0  0  0  0  0
  188.4840  174.2100  136.6900 C   0  0  0  0  0  1  0  0  0  0  0  0
  187.4630  176.4260  144.6690 O   0  0  0  0  0  0  0  0  0  0  0  0
  189.6220  176.9960  143.9560 N   0  0  0  0  0  0  0  0  0  0  0  0
  188.5260  177.0690  144.8910 C   0  0  0  0  0  0  0  0  0  0  0  0
  188.6340  177.9420  146.1140 C   0  0  2  0  0  3  0  0  0  0  0  0
  189.1240  177.1660  147.2510 C   0  0  0  0  0  2  0  0  0  0  0  0
  187.6940  177.5020  147.1630 N   0  0  0  0  0  0  0  0  0  0  0  0
  187.4810  178.6550  148.0200 C   0  0  0  0  0  2  0  0  0  0  0  0
  186.1600  179.3240  147.6760 C   0  0  0  0  0  2  0  0  0  0  0  0
  184.4120  179.1650  146.0520 O   0  0  0  0  0  1  0  0  0  0  0  0
  185.2870  178.4090  146.8380 C   0  0  0  0  0  2  0  0  0  0  0  0
  190.8580  179.1000  143.8690 C   0  0  0  0  0  1  0  0  0  0  0  0
  190.8960  177.6330  144.2560 C   0  0  0  0  0  2  0  0  0  0  0  0
  185.4000  178.9400  140.9060 C   0  0  0  0  0  2  0  0  0  0  0  0
  184.7690  179.0180  139.5490 C   0  0  0  0  0  0  0  0  0  0  0  0
  184.6330  180.1510  139.0110 O   0  0  0  0  0  0  0  0  0  0  0  0
  182.9800  175.7760  138.8030 C   0  0  0  0  0  3  0  0  0  0  0  0
  184.3580  177.7790  138.8380 C   0  0  0  0  0  0  0  0  0  0  0  0
  183.3700  176.9670  139.4130 C   0  0  0  0  0  3  0  0  0  0  0  0
  183.5730  175.3610  137.6020 C   0  0  0  0  0  0  0  0  0  0  0  0
  184.5720  176.1590  137.0250 C   0  0  0  0  0  0  0  0  0  0  0  0
  185.9580  178.1340  137.0340 O   0  0  0  0  0  1  0  0  0  0  0  0
  185.3500  175.6430  135.5340 Cl  0  0  0  0  0  0  0  0  0  0  0  0
  184.9650  177.3630  137.6320 C   0  0  0  0  0  0  0  0  0  0  0  0
  183.2070  174.1620  136.9660 O   0  0  0  0  0  0  0  0  0  0  0  0
  183.7490  172.8910  137.2090 C   0  0  0  0  0  0  0  0  0  0  0  0
  185.1420  172.7870  137.7240 C   0  0  0  0  0  1  0  0  0  0  0  0
  183.0950  171.8350  136.9930 O   0  0  0  0  0  0  0  0  0  0  0  0
  1 32  1  0  0  0  0
  1  2  1  0  0  0  0
  3  2  2  0  0  0  0
  3  6  1  0  0  0  0
  4  7  1  0  0  0  0
  4  8  2  0  0  0  0
  5  6  1  0  0  0  0
  6 21  1  1  0  0  0
  7  1  2  0  0  0  0
  8  9  1  0  0  0  0
  8  3  1  0  0  0  0
  9  5  1  0  0  0  0
 10 13  1  1  0  0  0
 10 12  1  0  0  0  0
 10 16  1  0  0  0  0
 11 15  2  0  0  0  0
 12 17  1  6  0  0  0
 12 14  1  0  0  0  0
 14 11  1  0  0  0  0
 15  9  1  0  0  0  0
 16 11  1  0  0  0  0
 17 19  1  0  0  0  0
 18 17  1  0  0  0  0
 20 22  2  0  0  0  0
 21 31  1  0  0  0  0
 21 22  1  0  0  0  0
 23 22  1  6  0  0  0
 23 25  1  0  0  0  0
 23 24  1  0  0  0  0
 25 24  1  0  0  0  0
 25 26  1  0  0  0  0
 27 26  1  0  0  0  0
 28 29  1  0  0  0  0
 29 27  1  0  0  0  0
 30 31  1  0  0  0  0
 33 32  1  0  0  0  0
 34 33  2  0  0  0  0
 35 37  1  0  0  0  0
 36 37  2  0  0  0  0
 36 33  1  0  0  0  0
 38 35  2  0  0  0  0
 39 38  1  0  0  0  0
 39 42  2  0  0  0  0
 40 42  1  0  0  0  0
 41 39  1  0  0  0  0
 42 36  1  0  0  0  0
 43 44  1  0  0  0  0
 43 38  1  0  0  0  0
 44 45  1  0  0  0  0
 46 44  2  0  0  0  0
M  END
>  <MODEL>
6

>  <REMARK>
 VINA RESULT:      -7.1      3.274      6.722
  Name = 
  13 active torsions:
  status: ('A' for Active; 'I' for Inactive)
    1  A    between atoms: C_1  and  C_3
    2  A    between atoms: C_1  and  C_45
    3  A    between atoms: C_4  and  O_38
    4  A    between atoms: C_6  and  C_15
    5  A    between atoms: C_6  and  C_18
    6  A    between atoms: C_8  and  C_45
    7  A    between atoms: C_10  and  O_38
    8  A    between atoms: C_15  and  N_33
    9  A    between atoms: C_16  and  C_31
   10  A    between atoms: C_22  and  C_42
   11  A    between atoms: N_27  and  C_30
   12  A    between atoms: N_27  and  C_44
   13  A    between atoms: C_41  and  N_46
                            x       y       z     vdW  Elec       q    Type
                         _______ _______ _______ _____ _____    ______ ____

>  <TORSDO>
F 13

$$$$
=
 OpenBabel10232408583D

 46 50  0  0  1  0  0  0  0  0999 V2000
  186.8290  177.6060  142.5710 C   0  0  0  0  0  0  0  0  0  0  0  0
  187.7400  178.0370  141.5930 C   0  0  0  0  0  3  0  0  0  0  0  0
  189.0680  177.6400  141.7180 C   0  0  0  0  0  0  0  0  0  0  0  0
  188.5990  176.4400  143.7160 N   0  0  0  0  0  0  0  0  0  0  0  0
  191.4140  177.2240  141.5260 C   0  0  0  0  0  2  0  0  0  0  0  0
  190.2360  177.9750  140.8550 C   0  0  1  0  0  3  0  0  0  0  0  0
  187.2820  176.7980  143.6330 C   0  0  0  0  0  3  0  0  0  0  0  0
  189.4700  176.8680  142.7650 C   0  0  0  0  0  0  0  0  0  0  0  0
  190.8480  176.5620  142.7060 N   0  0  0  0  0  0  0  0  0  0  0  0
  191.5860  175.8160  147.3990 C   0  0  2  0  0  3  0  0  0  0  0  0
  191.3770  176.0910  145.0530 C   0  0  0  0  0  0  0  0  0  0  0  0
  190.7740  177.0870  147.1320 C   0  0  1  0  0  3  0  0  0  0  0  0
  192.7350  176.1140  148.3470 C   0  0  0  0  0  1  0  0  0  0  0  0
  190.4690  177.1000  145.6390 C   0  0  0  0  0  2  0  0  0  0  0  0
  191.5610  175.8820  143.7480 C   0  0  0  0  0  3  0  0  0  0  0  0
  192.1340  175.3310  146.0700 C   0  0  0  0  0  2  0  0  0  0  0  0
  189.4770  177.1170  147.9500 C   0  0  0  0  0  3  0  0  0  0  0  0
  188.2740  177.0440  147.0230 C   0  0  0  0  0  1  0  0  0  0  0  0
  189.3640  178.3990  148.7560 C   0  0  0  0  0  1  0  0  0  0  0  0
  188.9800  179.5190  138.7690 O   0  0  0  0  0  0  0  0  0  0  0  0
  190.0340  177.5460  139.4680 N   0  0  0  0  0  0  0  0  0  0  0  0
  189.2990  178.3270  138.5040 C   0  0  0  0  0  0  0  0  0  0  0  0
  188.8800  177.7110  137.1940 C   0  0  2  0  0  3  0  0  0  0  0  0
  187.7200  178.4130  136.6500 C   0  0  0  0  0  2  0  0  0  0  0  0
  187.5390  177.1040  137.3000 N   0  0  0  0  0  0  0  0  0  0  0  0
  187.4600  176.1160  136.2390 C   0  0  0  0  0  2  0  0  0  0  0  0
  186.0460  175.5650  136.1440 C   0  0  0  0  0  2  0  0  0  0  0  0
  187.2160  173.6250  136.9080 O   0  0  0  0  0  1  0  0  0  0  0  0
  185.9480  174.2010  136.8040 C   0  0  0  0  0  2  0  0  0  0  0  0
  191.8110  176.3040  138.3440 C   0  0  0  0  0  1  0  0  0  0  0  0
  190.5160  176.2140  139.1310 C   0  0  0  0  0  2  0  0  0  0  0  0
  185.3870  177.9850  142.4870 C   0  0  0  0  0  2  0  0  0  0  0  0
  185.1380  178.8780  141.3080 C   0  0  0  0  0  0  0  0  0  0  0  0
  185.8420  179.9160  141.1790 O   0  0  0  0  0  0  0  0  0  0  0  0
  183.6110  177.8960  137.9960 C   0  0  0  0  0  3  0  0  0  0  0  0
  184.1150  178.5150  140.2920 C   0  0  0  0  0  0  0  0  0  0  0  0
  184.5370  178.2040  138.9910 C   0  0  0  0  0  3  0  0  0  0  0  0
  182.2360  177.8980  138.2730 C   0  0  0  0  0  0  0  0  0  0  0  0
  181.8030  178.2220  139.5680 C   0  0  0  0  0  0  0  0  0  0  0  0
  182.2710  178.8420  141.8510 O   0  0  0  0  0  1  0  0  0  0  0  0
  180.0830  178.2590  139.9290 Cl  0  0  0  0  0  0  0  0  0  0  0  0
  182.7320  178.5270  140.5760 C   0  0  0  0  0  0  0  0  0  0  0  0
  181.2780  177.5990  137.2880 O   0  0  0  0  0  0  0  0  0  0  0  0
  180.9070  178.4190  136.2120 C   0  0  0  0  0  0  0  0  0  0  0  0
  180.6740  179.8690  136.4550 C   0  0  0  0  0  1  0  0  0  0  0  0
  180.7550  177.9600  135.0470 O   0  0  0  0  0  0  0  0  0  0  0  0
  1  7  1  0  0  0  0
  2  3  1  0  0  0  0
  2  1  2  0  0  0  0
  3  8  2  0  0  0  0
  5  9  1  0  0  0  0
  6 21  1  6  0  0  0
  6  5  1  0  0  0  0
  6  3  1  0  0  0  0
  7  4  2  0  0  0  0
  8  4  1  0  0  0  0
  9  8  1  0  0  0  0
  9 15  1  0  0  0  0
 10 13  1  1  0  0  0
 11 14  1  0  0  0  0
 11 16  1  0  0  0  0
 12 10  1  0  0  0  0
 12 17  1  1  0  0  0
 14 12  1  0  0  0  0
 15 11  2  0  0  0  0
 16 10  1  0  0  0  0
 17 19  1  0  0  0  0
 18 17  1  0  0  0  0
 22 20  2  0  0  0  0
 22 21  1  0  0  0  0
 23 25  1  0  0  0  0
 23 22  1  1  0  0  0
 24 23  1  0  0  0  0
 24 25  1  0  0  0  0
 26 25  1  0  0  0  0
 27 26  1  0  0  0  0
 27 29  1  0  0  0  0
 29 28  1  0  0  0  0
 30 31  1  0  0  0  0
 31 21  1  0  0  0  0
 32  1  1  0  0  0  0
 33 32  1  0  0  0  0
 34 33  2  0  0  0  0
 35 38  2  0  0  0  0
 35 37  1  0  0  0  0
 36 42  1  0  0  0  0
 36 33  1  0  0  0  0
 37 36  2  0  0  0  0
 38 39  1  0  0  0  0
 39 41  1  0  0  0  0
 39 42  2  0  0  0  0
 42 40  1  0  0  0  0
 43 38  1  0  0  0  0
 44 45  1  0  0  0  0
 44 43  1  0  0  0  0
 46 44  2  0  0  0  0
M  END
>  <MODEL>
7

>  <REMARK>
 VINA RESULT:      -7.0      3.145      6.944
  Name = 
  13 active torsions:
  status: ('A' for Active; 'I' for Inactive)
    1  A    between atoms: C_1  and  C_3
    2  A    between atoms: C_1  and  C_45
    3  A    between atoms: C_4  and  O_38
    4  A    between atoms: C_6  and  C_15
    5  A    between atoms: C_6  and  C_18
    6  A    between atoms: C_8  and  C_45
    7  A    between atoms: C_10  and  O_38
    8  A    between atoms: C_15  and  N_33
    9  A    between atoms: C_16  and  C_31
   10  A    between atoms: C_22  and  C_42
   11  A    between atoms: N_27  and  C_30
   12  A    between atoms: N_27  and  C_44
   13  A    between atoms: C_41  and  N_46
                            x       y       z     vdW  Elec       q    Type
                         _______ _______ _______ _____ _____    ______ ____

>  <TORSDO>
F 13

$$$$
=
 OpenBabel10232408583D

 46 50  0  0  1  0  0  0  0  0999 V2000
  187.8560  177.5340  138.0790 C   0  0  0  0  0  0  0  0  0  0  0  0
  186.6520  178.0950  138.5370 C   0  0  0  0  0  3  0  0  0  0  0  0
  185.4640  177.6360  137.9760 C   0  0  0  0  0  0  0  0  0  0  0  0
  186.6290  176.1260  136.5560 N   0  0  0  0  0  0  0  0  0  0  0  0
  183.2140  177.1780  137.3100 C   0  0  0  0  0  2  0  0  0  0  0  0
  184.0650  178.0750  138.2450 C   0  0  1  0  0  3  0  0  0  0  0  0
  187.8220  176.5390  137.0810 C   0  0  0  0  0  3  0  0  0  0  0  0
  185.4730  176.6820  137.0050 C   0  0  0  0  0  0  0  0  0  0  0  0
  184.1710  176.3430  136.5760 N   0  0  0  0  0  0  0  0  0  0  0  0
  182.1550  172.3060  134.9120 C   0  0  2  0  0  3  0  0  0  0  0  0
  183.2360  174.3110  135.5710 C   0  0  0  0  0  0  0  0  0  0  0  0
  182.2670  172.3150  136.4390 C   0  0  1  0  0  3  0  0  0  0  0  0
  182.7040  171.0070  134.3500 C   0  0  0  0  0  1  0  0  0  0  0  0
  182.7510  173.7060  136.8310 C   0  0  0  0  0  2  0  0  0  0  0  0
  183.8940  175.4690  135.4730 C   0  0  0  0  0  3  0  0  0  0  0  0
  182.9660  173.4740  134.3840 C   0  0  0  0  0  2  0  0  0  0  0  0
  180.9250  172.0000  137.1130 C   0  0  0  0  0  3  0  0  0  0  0  0
  180.2490  170.8360  136.4070 C   0  0  0  0  0  1  0  0  0  0  0  0
  179.9850  173.1900  137.0500 C   0  0  0  0  0  1  0  0  0  0  0  0
  184.7440  179.8540  140.4100 O   0  0  0  0  0  0  0  0  0  0  0  0
  183.6970  177.8980  139.6540 N   0  0  0  0  0  0  0  0  0  0  0  0
  184.1640  178.7720  140.7020 C   0  0  0  0  0  0  0  0  0  0  0  0
  183.9930  178.3770  142.1460 C   0  0  2  0  0  3  0  0  0  0  0  0
  183.5350  179.5180  142.9350 C   0  0  0  0  0  2  0  0  0  0  0  0
  184.9450  179.1020  143.0090 N   0  0  0  0  0  0  0  0  0  0  0  0
  185.0830  178.3040  144.2150 C   0  0  0  0  0  2  0  0  0  0  0  0
  184.9640  179.1910  145.4440 C   0  0  0  0  0  2  0  0  0  0  0  0
  186.0100  179.7370  147.5230 O   0  0  0  0  0  1  0  0  0  0  0  0
  185.9450  178.7650  146.5210 C   0  0  0  0  0  2  0  0  0  0  0  0
  181.4340  177.0070  139.8740 C   0  0  0  0  0  1  0  0  0  0  0  0
  182.9190  176.7090  139.9710 C   0  0  0  0  0  2  0  0  0  0  0  0
  189.1640  177.9720  138.6510 C   0  0  0  0  0  2  0  0  0  0  0  0
  189.6740  176.9710  139.6430 C   0  0  0  0  0  0  0  0  0  0  0  0
  190.1720  175.8950  139.2120 O   0  0  0  0  0  0  0  0  0  0  0  0
  188.3240  177.4360  143.1390 C   0  0  0  0  0  3  0  0  0  0  0  0
  189.6350  177.2670  141.0990 C   0  0  0  0  0  0  0  0  0  0  0  0
  188.4180  177.1320  141.7830 C   0  0  0  0  0  3  0  0  0  0  0  0
  189.4450  177.8910  143.8500 C   0  0  0  0  0  0  0  0  0  0  0  0
  190.6650  178.0420  143.1720 C   0  0  0  0  0  0  0  0  0  0  0  0
  191.9900  177.8900  141.1630 O   0  0  0  0  0  1  0  0  0  0  0  0
  192.0750  178.6380  144.0360 Cl  0  0  0  0  0  0  0  0  0  0  0  0
  190.7660  177.7310  141.8060 C   0  0  0  0  0  0  0  0  0  0  0  0
  189.3800  178.2130  145.2170 O   0  0  0  0  0  0  0  0  0  0  0  0
  189.5420  177.3230  146.2890 C   0  0  0  0  0  0  0  0  0  0  0  0
  190.9160  176.9080  146.6830 C   0  0  0  0  0  1  0  0  0  0  0  0
  188.5560  176.8570  146.9230 O   0  0  0  0  0  0  0  0  0  0  0  0
  1  2  1  0  0  0  0
  1 32  1  0  0  0  0
  3  6  1  0  0  0  0
  3  2  2  0  0  0  0
  4  8  2  0  0  0  0
  4  7  1  0  0  0  0
  5  6  1  0  0  0  0
  6 21  1  1  0  0  0
  7  1  2  0  0  0  0
  8  3  1  0  0  0  0
  9  8  1  0  0  0  0
  9  5  1  0  0  0  0
 10 13  1  6  0  0  0
 10 12  1  0  0  0  0
 11 14  1  0  0  0  0
 12 14  1  0  0  0  0
 12 17  1  1  0  0  0
 15 11  2  0  0  0  0
 15  9  1  0  0  0  0
 16 10  1  0  0  0  0
 16 11  1  0  0  0  0
 18 17  1  0  0  0  0
 19 17  1  0  0  0  0
 20 22  2  0  0  0  0
 21 31  1  0  0  0  0
 21 22  1  0  0  0  0
 23 22  1  6  0  0  0
 23 24  1  0  0  0  0
 23 25  1  0  0  0  0
 24 25  1  0  0  0  0
 25 26  1  0  0  0  0
 26 27  1  0  0  0  0
 27 29  1  0  0  0  0
 29 28  1  0  0  0  0
 30 31  1  0  0  0  0
 32 33  1  0  0  0  0
 33 36  1  0  0  0  0
 34 33  2  0  0  0  0
 35 38  1  0  0  0  0
 36 37  1  0  0  0  0
 36 42  2  0  0  0  0
 37 35  2  0  0  0  0
 38 43  1  0  0  0  0
 39 38  2  0  0  0  0
 39 41  1  0  0  0  0
 40 42  1  0  0  0  0
 42 39  1  0  0  0  0
 43 44  1  0  0  0  0
 44 45  1  0  0  0  0
 44 46  2  0  0  0  0
M  END
>  <MODEL>
8

>  <REMARK>
 VINA RESULT:      -6.9      3.779      7.726
  Name = 
  13 active torsions:
  status: ('A' for Active; 'I' for Inactive)
    1  A    between atoms: C_1  and  C_3
    2  A    between atoms: C_1  and  C_45
    3  A    between atoms: C_4  and  O_38
    4  A    between atoms: C_6  and  C_15
    5  A    between atoms: C_6  and  C_18
    6  A    between atoms: C_8  and  C_45
    7  A    between atoms: C_10  and  O_38
    8  A    between atoms: C_15  and  N_33
    9  A    between atoms: C_16  and  C_31
   10  A    between atoms: C_22  and  C_42
   11  A    between atoms: N_27  and  C_30
   12  A    between atoms: N_27  and  C_44
   13  A    between atoms: C_41  and  N_46
                            x       y       z     vdW  Elec       q    Type
                         _______ _______ _______ _____ _____    ______ ____

>  <TORSDO>
F 13

$$$$
=
 OpenBabel10232408583D

 46 50  0  0  1  0  0  0  0  0999 V2000
  186.0030  178.1900  138.5090 C   0  0  0  0  0  0  0  0  0  0  0  0
  184.6390  177.8550  138.5320 C   0  0  0  0  0  3  0  0  0  0  0  0
  183.9200  178.1260  139.6920 C   0  0  0  0  0  0  0  0  0  0  0  0
  185.8430  179.0220  140.7650 N   0  0  0  0  0  0  0  0  0  0  0  0
  182.3100  178.3900  141.4400 C   0  0  0  0  0  2  0  0  0  0  0  0
  182.4880  177.8460  139.9990 C   0  0  1  0  0  3  0  0  0  0  0  0
  186.5900  178.7820  139.6460 C   0  0  0  0  0  3  0  0  0  0  0  0
  184.5260  178.6870  140.7740 C   0  0  0  0  0  0  0  0  0  0  0  0
  183.6270  178.8940  141.8440 N   0  0  0  0  0  0  0  0  0  0  0  0
  186.5450  178.4800  145.6430 C   0  0  2  0  0  3  0  0  0  0  0  0
  185.0010  178.7950  143.8720 C   0  0  0  0  0  0  0  0  0  0  0  0
  186.6090  177.2570  144.7230 C   0  0  1  0  0  3  0  0  0  0  0  0
  186.3450  178.0450  147.0850 C   0  0  0  0  0  1  0  0  0  0  0  0
  185.7820  177.5990  143.4900 C   0  0  0  0  0  2  0  0  0  0  0  0
  184.0230  179.3430  143.1460 C   0  0  0  0  0  3  0  0  0  0  0  0
  185.3700  179.3300  145.1980 C   0  0  0  0  0  2  0  0  0  0  0  0
  188.0510  176.9130  144.3300 C   0  0  0  0  0  3  0  0  0  0  0  0
  189.0070  177.9500  144.8980 C   0  0  0  0  0  1  0  0  0  0  0  0
  188.2220  176.8990  142.8220 C   0  0  0  0  0  1  0  0  0  0  0  0
  182.7540  180.5380  138.9990 O   0  0  0  0  0  0  0  0  0  0  0  0
  181.5850  178.5060  139.0510 N   0  0  0  0  0  0  0  0  0  0  0  0
  181.7170  179.8940  138.6780 C   0  0  0  0  0  0  0  0  0  0  0  0
  180.6030  180.5850  137.9360 C   0  0  2  0  0  3  0  0  0  0  0  0
  180.6830  180.2880  136.5070 C   0  0  0  0  0  2  0  0  0  0  0  0
  181.1370  181.5980  137.0040 N   0  0  0  0  0  0  0  0  0  0  0  0
  180.0530  182.5350  136.7660 C   0  0  0  0  0  2  0  0  0  0  0  0
  180.4390  183.5090  135.6650 C   0  0  0  0  0  2  0  0  0  0  0  0
  181.8590  184.7720  137.1160 O   0  0  0  0  0  1  0  0  0  0  0  0
  180.7770  184.8740  136.2370 C   0  0  0  0  0  2  0  0  0  0  0  0
  180.9400  176.4920  137.8310 C   0  0  0  0  0  1  0  0  0  0  0  0
  180.4540  177.7170  138.5840 C   0  0  0  0  0  2  0  0  0  0  0  0
  186.8270  177.9390  137.2900 C   0  0  0  0  0  2  0  0  0  0  0  0
  187.5040  176.6030  137.3690 C   0  0  0  0  0  0  0  0  0  0  0  0
  186.7910  175.5630  137.3270 O   0  0  0  0  0  0  0  0  0  0  0  0
  190.9980  176.6790  138.7990 C   0  0  0  0  0  3  0  0  0  0  0  0
  188.9850  176.5140  137.4460 C   0  0  0  0  0  0  0  0  0  0  0  0
  189.6100  176.7150  138.6850 C   0  0  0  0  0  3  0  0  0  0  0  0
  191.8020  176.4470  137.6720 C   0  0  0  0  0  0  0  0  0  0  0  0
  191.1880  176.2580  136.4250 C   0  0  0  0  0  0  0  0  0  0  0  0
  189.2090  176.0950  135.0550 O   0  0  0  0  0  1  0  0  0  0  0  0
  192.1770  175.9950  134.9960 Cl  0  0  0  0  0  0  0  0  0  0  0  0
  189.7880  176.2870  136.3060 C   0  0  0  0  0  0  0  0  0  0  0  0
  193.2060  176.4120  137.7540 O   0  0  0  0  0  0  0  0  0  0  0  0
  193.9910  175.3040  138.1020 C   0  0  0  0  0  0  0  0  0  0  0  0
  193.6170  173.9610  137.5810 C   0  0  0  0  0  1  0  0  0  0  0  0
  195.0000  175.4110  138.8510 O   0  0  0  0  0  0  0  0  0  0  0  0
  1  2  2  0  0  0  0
  1  7  1  0  0  0  0
  2  3  1  0  0  0  0
  3  6  1  0  0  0  0
  3  8  2  0  0  0  0
  4  8  1  0  0  0  0
  5  9  1  0  0  0  0
  6 21  1  6  0  0  0
  6  5  1  0  0  0  0
  7  4  2  0  0  0  0
  8  9  1  0  0  0  0
  9 15  1  0  0  0  0
 10 13  1  1  0  0  0
 11 16  1  0  0  0  0
 12 17  1  6  0  0  0
 12 10  1  0  0  0  0
 14 11  1  0  0  0  0
 14 12  1  0  0  0  0
 15 11  2  0  0  0  0
 16 10  1  0  0  0  0
 17 18  1  0  0  0  0
 19 17  1  0  0  0  0
 22 20  2  0  0  0  0
 22 21  1  0  0  0  0
 23 22  1  1  0  0  0
 24 25  1  0  0  0  0
 24 23  1  0  0  0  0
 25 23  1  0  0  0  0
 26 25  1  0  0  0  0
 27 29  1  0  0  0  0
 27 26  1  0  0  0  0
 29 28  1  0  0  0  0
 30 31  1  0  0  0  0
 31 21  1  0  0  0  0
 32 33  1  0  0  0  0
 32  1  1  0  0  0  0
 33 36  1  0  0  0  0
 34 33  2  0  0  0  0
 36 37  2  0  0  0  0
 37 35  1  0  0  0  0
 38 43  1  0  0  0  0
 38 35  2  0  0  0  0
 39 38  1  0  0  0  0
 40 42  1  0  0  0  0
 41 39  1  0  0  0  0
 42 39  2  0  0  0  0
 42 36  1  0  0  0  0
 43 44  1  0  0  0  0
 44 46  2  0  0  0  0
 45 44  1  0  0  0  0
M  END
>  <MODEL>
9

>  <REMARK>
 VINA RESULT:      -6.8      3.695      9.283
  Name = 
  13 active torsions:
  status: ('A' for Active; 'I' for Inactive)
    1  A    between atoms: C_1  and  C_3
    2  A    between atoms: C_1  and  C_45
    3  A    between atoms: C_4  and  O_38
    4  A    between atoms: C_6  and  C_15
    5  A    between atoms: C_6  and  C_18
    6  A    between atoms: C_8  and  C_45
    7  A    between atoms: C_10  and  O_38
    8  A    between atoms: C_15  and  N_33
    9  A    between atoms: C_16  and  C_31
   10  A    between atoms: C_22  and  C_42
   11  A    between atoms: N_27  and  C_30
   12  A    between atoms: N_27  and  C_44
   13  A    between atoms: C_41  and  N_46
                            x       y       z     vdW  Elec       q    Type
                         _______ _______ _______ _____ _____    ______ ____

>  <TORSDO>
F 13

$$$$
