=
 OpenBabel10232407543D

 26 30  0  0  1  0  0  0  0  0999 V2000
  185.1800  178.4480  144.8660 C   0  0  0  0  0  3  0  0  0  0  0  0
  185.8680  178.7940  138.9930 C   0  0  0  0  0  2  0  0  0  0  0  0
  184.8120  177.7970  141.1150 C   0  0  1  0  0  3  0  0  0  0  0  0
  183.4770  178.0070  140.3800 C   0  0  2  0  0  3  0  0  0  0  0  0
  185.9740  178.6150  140.5210 C   0  0  1  0  0  3  0  0  0  0  0  0
  184.5880  178.2030  142.5350 C   0  0  0  0  0  0  0  0  0  0  0  0
  187.6740  177.0280  144.5030 C   0  0  0  0  0  2  0  0  0  0  0  0
  185.5110  177.9980  143.5750 C   0  0  0  0  0  0  0  0  0  0  0  0
  187.6920  178.2240  142.3760 C   0  0  1  0  0  3  0  0  0  0  0  0
  189.1010  177.4240  144.1680 C   0  0  0  0  0  2  0  0  0  0  0  0
  183.0540  179.2880  144.0540 C   0  0  0  0  0  3  0  0  0  0  0  0
  182.3670  179.1000  141.3510 S   0  0  0  0  0  0  0  0  0  0  0  0
  188.0370  178.2090  138.4940 C   0  0  1  0  0  3  0  0  0  0  0  0
  183.9540  179.0820  145.1060 C   0  0  0  0  0  3  0  0  0  0  0  0
  188.4020  179.3200  137.6310 N   0  0  0  0  0  1  0  0  0  0  0  0
  186.8350  177.3460  143.2730 C   0  0  1  0  0  3  0  0  0  0  0  0
  189.1120  177.8040  142.7030 C   0  0  0  0  0  2  0  0  0  0  0  0
  188.4180  178.5140  139.9530 C   0  0  0  0  0  2  0  0  0  0  0  0
  187.3360  177.9890  140.9000 C   0  0  2  0  0  3  0  0  0  0  0  0
  186.6740  177.8580  138.3150 O   0  0  0  0  0  0  0  0  0  0  0  0
  183.3930  178.8490  142.7740 C   0  0  0  0  0  0  0  0  0  0  0  0
  181.6850  176.6510  139.6430 N   0  0  0  0  0  0  0  0  0  0  0  0
  182.8400  176.7180  140.1690 N   0  0  0  0  0  0  0  0  0  0  0  0
  180.2720  174.9100  140.3020 O   0  0  0  0  0  0  0  0  0  0  0  0
  181.0440  175.3930  139.4310 C   0  0  0  0  0  0  0  0  0  0  0  0
  181.2810  174.6770  138.2250 N   0  0  0  0  0  1  0  0  0  0  0  0
  1 14  1  0  0  0  0
  3  6  1  1  0  0  0
  4 23  1  1  0  0  0
  4  3  1  0  0  0  0
  4 12  1  0  0  0  0
  5  2  1  6  0  0  0
  5 19  1  0  0  0  0
  5  3  1  0  0  0  0
  6 21  2  0  0  0  0
  6  8  1  0  0  0  0
  8  1  2  0  0  0  0
  9 17  1  6  0  0  0
  9 16  1  0  0  0  0
 10  7  1  0  0  0  0
 11 14  2  0  0  0  0
 12 21  1  0  0  0  0
 13 15  1  6  0  0  0
 13 18  1  0  0  0  0
 16  8  1  0  0  0  0
 16  7  1  1  0  0  0
 17 10  1  0  0  0  0
 19 18  1  6  0  0  0
 19  9  1  0  0  0  0
 20 13  1  0  0  0  0
 20  2  1  0  0  0  0
 21 11  1  0  0  0  0
 22 23  2  0  0  0  0
 25 22  1  0  0  0  0
 25 24  2  0  0  0  0
 26 25  1  0  0  0  0
M  END
>  <MODEL>
1

>  <REMARK>
 VINA RESULT:      -7.6      0.000      0.000
  Name = 
  2 active torsions:
  status: ('A' for Active; 'I' for Inactive)
    1  A    between atoms: C_5  and  N_12
    2  A    between atoms: N_11  and  C_13
                            x       y       z     vdW  Elec       q    Type
                         _______ _______ _______ _____ _____    ______ ____

>  <TORSDO>
F 2

$$$$
=
 OpenBabel10232407543D

 26 30  0  0  1  0  0  0  0  0999 V2000
  185.3860  177.6820  138.3410 C   0  0  0  0  0  3  0  0  0  0  0  0
  180.4310  179.1060  141.2580 C   0  0  0  0  0  2  0  0  0  0  0  0
  182.2320  179.5270  139.4710 C   0  0  1  0  0  3  0  0  0  0  0  0
  181.0410  179.7570  138.5250 C   0  0  2  0  0  3  0  0  0  0  0  0
  181.8540  178.7780  140.7620 C   0  0  1  0  0  3  0  0  0  0  0  0
  183.2390  178.7320  138.7060 C   0  0  0  0  0  0  0  0  0  0  0  0
  186.4660  178.7630  140.7970 C   0  0  0  0  0  2  0  0  0  0  0  0
  184.5440  178.4610  139.1550 C   0  0  0  0  0  0  0  0  0  0  0  0
  184.2160  178.3090  141.6270 C   0  0  1  0  0  3  0  0  0  0  0  0
  186.5540  178.2890  142.2370 C   0  0  0  0  0  2  0  0  0  0  0  0
  183.6240  177.4600  136.6880 C   0  0  0  0  0  3  0  0  0  0  0  0
  181.1010  178.5880  137.1110 S   0  0  0  0  0  0  0  0  0  0  0  0
  180.9860  179.4950  143.4560 C   0  0  1  0  0  3  0  0  0  0  0  0
  184.9310  177.1900  137.1100 C   0  0  0  0  0  3  0  0  0  0  0  0
  179.9850  178.6720  144.1150 N   0  0  0  0  0  1  0  0  0  0  0  0
  184.9870  178.9740  140.5000 C   0  0  1  0  0  3  0  0  0  0  0  0
  185.1570  178.3930  142.8130 C   0  0  0  0  0  2  0  0  0  0  0  0
  182.2800  178.6940  143.2360 C   0  0  0  0  0  2  0  0  0  0  0  0
  182.8910  179.0460  141.8770 C   0  0  2  0  0  3  0  0  0  0  0  0
  180.4600  180.0800  142.2760 O   0  0  0  0  0  0  0  0  0  0  0  0
  182.7910  178.2250  137.5040 C   0  0  0  0  0  0  0  0  0  0  0  0
  180.7080  181.3930  136.8500 N   0  0  0  0  0  0  0  0  0  0  0  0
  181.0750  181.1250  138.0370 N   0  0  0  0  0  0  0  0  0  0  0  0
  180.6520  182.9620  135.1190 O   0  0  0  0  0  0  0  0  0  0  0  0
  180.7380  182.7320  136.3550 C   0  0  0  0  0  0  0  0  0  0  0  0
  180.8660  183.8170  137.2660 N   0  0  0  0  0  1  0  0  0  0  0  0
  1  8  1  0  0  0  0
  2 20  1  0  0  0  0
  3  6  1  6  0  0  0
  3  5  1  0  0  0  0
  4 23  1  6  0  0  0
  4  3  1  0  0  0  0
  5  2  1  1  0  0  0
  5 19  1  0  0  0  0
  6  8  2  0  0  0  0
  7 10  1  0  0  0  0
  8 16  1  0  0  0  0
  9 19  1  0  0  0  0
  9 17  1  1  0  0  0
 10 17  1  0  0  0  0
 11 14  1  0  0  0  0
 11 21  2  0  0  0  0
 12 21  1  0  0  0  0
 12  4  1  0  0  0  0
 13 15  1  6  0  0  0
 14  1  2  0  0  0  0
 16  7  1  1  0  0  0
 16  9  1  0  0  0  0
 18 13  1  0  0  0  0
 19 18  1  1  0  0  0
 20 13  1  0  0  0  0
 21  6  1  0  0  0  0
 22 23  2  0  0  0  0
 24 25  2  0  0  0  0
 25 22  1  0  0  0  0
 25 26  1  0  0  0  0
M  END
>  <MODEL>
2

>  <REMARK>
 VINA RESULT:      -6.3      3.853      6.266
  Name = 
  2 active torsions:
  status: ('A' for Active; 'I' for Inactive)
    1  A    between atoms: C_5  and  N_12
    2  A    between atoms: N_11  and  C_13
                            x       y       z     vdW  Elec       q    Type
                         _______ _______ _______ _____ _____    ______ ____

>  <TORSDO>
F 2

$$$$
=
 OpenBabel10232407543D

 26 30  0  0  1  0  0  0  0  0999 V2000
  192.3990  173.8620  136.6940 C   0  0  0  0  0  3  0  0  0  0  0  0
  189.1870  178.6010  138.2160 C   0  0  0  0  0  2  0  0  0  0  0  0
  190.4740  176.4420  138.7600 C   0  0  1  0  0  3  0  0  0  0  0  0
  191.1600  177.2910  139.8450 C   0  0  2  0  0  3  0  0  0  0  0  0
  189.7770  177.2830  137.6750 C   0  0  1  0  0  3  0  0  0  0  0  0
  191.5400  175.6020  138.1360 C   0  0  0  0  0  0  0  0  0  0  0  0
  189.7380  173.0080  135.9440 C   0  0  0  0  0  2  0  0  0  0  0  0
  191.2980  174.5630  137.2210 C   0  0  0  0  0  0  0  0  0  0  0  0
  189.2820  175.4050  136.0090 C   0  0  1  0  0  3  0  0  0  0  0  0
  188.7680  173.3600  134.8310 C   0  0  0  0  0  2  0  0  0  0  0  0
  193.9240  175.2410  137.9810 C   0  0  0  0  0  3  0  0  0  0  0  0
  192.9780  177.3180  139.5940 S   0  0  0  0  0  0  0  0  0  0  0  0
  187.1140  178.4000  137.2400 C   0  0  1  0  0  3  0  0  0  0  0  0
  193.7040  174.1950  137.0780 C   0  0  0  0  0  3  0  0  0  0  0  0
  186.9940  179.7170  136.6360 N   0  0  0  0  0  1  0  0  0  0  0  0
  189.8840  174.2570  136.8030 C   0  0  1  0  0  3  0  0  0  0  0  0
  188.2280  174.7390  135.1460 C   0  0  0  0  0  2  0  0  0  0  0  0
  187.7200  177.4030  136.2380 C   0  0  0  0  0  2  0  0  0  0  0  0
  188.6850  176.4560  136.9570 C   0  0  2  0  0  3  0  0  0  0  0  0
  187.8080  178.4730  138.4750 O   0  0  0  0  0  0  0  0  0  0  0  0
  192.8300  175.9390  138.4920 C   0  0  0  0  0  0  0  0  0  0  0  0
  189.7060  176.9210  141.6740 N   0  0  0  0  0  0  0  0  0  0  0  0
  190.8500  176.7360  141.1520 N   0  0  0  0  0  0  0  0  0  0  0  0
  190.2730  176.2700  143.8450 O   0  0  0  0  0  0  0  0  0  0  0  0
  189.3860  176.3850  142.9580 C   0  0  0  0  0  0  0  0  0  0  0  0
  188.0520  175.9780  143.2380 N   0  0  0  0  0  1  0  0  0  0  0  0
  1 14  2  0  0  0  0
  1  8  1  0  0  0  0
  2 20  1  0  0  0  0
  3  6  1  6  0  0  0
  3  4  1  0  0  0  0
  4 23  1  1  0  0  0
  5  2  1  1  0  0  0
  5  3  1  0  0  0  0
  6 21  1  0  0  0  0
  8  6  2  0  0  0  0
  9 17  1  6  0  0  0
  9 16  1  0  0  0  0
  9 19  1  0  0  0  0
 10 17  1  0  0  0  0
 10  7  1  0  0  0  0
 11 21  2  0  0  0  0
 12  4  1  0  0  0  0
 13 15  1  6  0  0  0
 13 20  1  0  0  0  0
 14 11  1  0  0  0  0
 16  7  1  6  0  0  0
 16  8  1  0  0  0  0
 18 13  1  0  0  0  0
 19 18  1  6  0  0  0
 19  5  1  0  0  0  0
 21 12  1  0  0  0  0
 22 25  1  0  0  0  0
 23 22  2  0  0  0  0
 25 26  1  0  0  0  0
 25 24  2  0  0  0  0
M  END
>  <MODEL>
3

>  <REMARK>
 VINA RESULT:      -6.2      5.175      8.430
  Name = 
  2 active torsions:
  status: ('A' for Active; 'I' for Inactive)
    1  A    between atoms: C_5  and  N_12
    2  A    between atoms: N_11  and  C_13
                            x       y       z     vdW  Elec       q    Type
                         _______ _______ _______ _____ _____    ______ ____

>  <TORSDO>
F 2

$$$$
=
 OpenBabel10232407543D

 26 30  0  0  1  0  0  0  0  0999 V2000
  187.9340  178.2680  140.9300 C   0  0  0  0  0  3  0  0  0  0  0  0
  191.3540  176.3110  136.5060 C   0  0  0  0  0  2  0  0  0  0  0  0
  189.3330  176.1270  138.0860 C   0  0  1  0  0  3  0  0  0  0  0  0
  188.5310  175.8570  136.8000 C   0  0  2  0  0  3  0  0  0  0  0  0
  190.7050  176.7750  137.8270 C   0  0  1  0  0  3  0  0  0  0  0  0
  188.4990  177.0370  138.9270 C   0  0  0  0  0  0  0  0  0  0  0  0
  190.1630  177.1430  142.3920 C   0  0  0  0  0  2  0  0  0  0  0  0
  188.7960  177.3830  140.2570 C   0  0  0  0  0  0  0  0  0  0  0  0
  191.2950  177.3770  140.2420 C   0  0  1  0  0  3  0  0  0  0  0  0
  191.6070  177.5450  142.6320 C   0  0  0  0  0  2  0  0  0  0  0  0
  186.5330  178.4420  138.9570 C   0  0  0  0  0  3  0  0  0  0  0  0
  187.1970  177.1010  136.5950 S   0  0  0  0  0  0  0  0  0  0  0  0
  193.4370  175.8490  137.3680 C   0  0  1  0  0  3  0  0  0  0  0  0
  186.8040  178.7880  140.2850 C   0  0  0  0  0  3  0  0  0  0  0  0
  194.2660  176.5560  136.4060 N   0  0  0  0  0  1  0  0  0  0  0  0
  190.0400  176.8350  140.9060 C   0  0  1  0  0  3  0  0  0  0  0  0
  192.3460  177.3030  141.3330 C   0  0  0  0  0  2  0  0  0  0  0  0
  193.1060  176.7580  138.5640 C   0  0  0  0  0  2  0  0  0  0  0  0
  191.6620  176.5280  139.0160 C   0  0  2  0  0  3  0  0  0  0  0  0
  192.2970  175.2890  136.7350 O   0  0  0  0  0  0  0  0  0  0  0  0
  187.3970  177.5720  138.2920 C   0  0  0  0  0  0  0  0  0  0  0  0
  186.7270  174.3670  137.1430 N   0  0  0  0  0  0  0  0  0  0  0  0
  187.9570  174.5240  136.8660 N   0  0  0  0  0  0  0  0  0  0  0  0
  185.2910  172.7880  138.0960 O   0  0  0  0  0  0  0  0  0  0  0  0
  186.1480  173.0640  137.2150 C   0  0  0  0  0  0  0  0  0  0  0  0
  186.5430  172.0660  136.2810 N   0  0  0  0  0  1  0  0  0  0  0  0
  2 20  1  0  0  0  0
  3  6  1  1  0  0  0
  4 23  1  1  0  0  0
  4  3  1  0  0  0  0
  5  2  1  6  0  0  0
  5  3  1  0  0  0  0
  5 19  1  0  0  0  0
  6  8  1  0  0  0  0
  7 10  1  0  0  0  0
  8 16  1  0  0  0  0
  8  1  2  0  0  0  0
  9 16  1  0  0  0  0
  9 17  1  1  0  0  0
 11 14  2  0  0  0  0
 12  4  1  0  0  0  0
 12 21  1  0  0  0  0
 13 15  1  6  0  0  0
 13 18  1  0  0  0  0
 14  1  1  0  0  0  0
 16  7  1  1  0  0  0
 17 10  1  0  0  0  0
 19 18  1  6  0  0  0
 19  9  1  0  0  0  0
 20 13  1  0  0  0  0
 21  6  2  0  0  0  0
 21 11  1  0  0  0  0
 22 25  1  0  0  0  0
 23 22  2  0  0  0  0
 25 24  2  0  0  0  0
 26 25  1  0  0  0  0
M  END
>  <MODEL>
4

>  <REMARK>
 VINA RESULT:      -6.1      4.140      5.580
  Name = 
  2 active torsions:
  status: ('A' for Active; 'I' for Inactive)
    1  A    between atoms: C_5  and  N_12
    2  A    between atoms: N_11  and  C_13
                            x       y       z     vdW  Elec       q    Type
                         _______ _______ _______ _____ _____    ______ ____

>  <TORSDO>
F 2

$$$$
=
 OpenBabel10232407543D

 26 30  0  0  1  0  0  0  0  0999 V2000
  181.3400  179.5140  142.9540 C   0  0  0  0  0  3  0  0  0  0  0  0
  185.6470  178.4920  139.0170 C   0  0  0  0  0  2  0  0  0  0  0  0
  183.4500  177.8880  140.2090 C   0  0  1  0  0  3  0  0  0  0  0  0
  182.9040  177.6640  138.7880 C   0  0  2  0  0  3  0  0  0  0  0  0
  184.7420  178.7240  140.2440 C   0  0  1  0  0  3  0  0  0  0  0  0
  182.3770  178.5890  140.9740 C   0  0  0  0  0  0  0  0  0  0  0  0
  183.4480  178.5170  144.6660 C   0  0  0  0  0  2  0  0  0  0  0  0
  182.4110  178.8210  142.3610 C   0  0  0  0  0  0  0  0  0  0  0  0
  184.8580  179.1250  142.7690 C   0  0  1  0  0  3  0  0  0  0  0  0
  184.7660  179.0660  145.1820 C   0  0  0  0  0  2  0  0  0  0  0  0
  180.2530  179.7290  140.7950 C   0  0  0  0  0  3  0  0  0  0  0  0
  181.4580  178.7490  138.4710 S   0  0  0  0  0  0  0  0  0  0  0  0
  187.6140  178.1980  140.1740 C   0  0  1  0  0  3  0  0  0  0  0  0
  180.2620  179.9580  142.1760 C   0  0  0  0  0  3  0  0  0  0  0  0
  188.4760  179.1040  139.4330 N   0  0  0  0  0  1  0  0  0  0  0  0
  183.6030  178.3620  143.1590 C   0  0  1  0  0  3  0  0  0  0  0  0
  185.7260  179.0610  144.0110 C   0  0  0  0  0  2  0  0  0  0  0  0
  186.9770  178.9220  141.3730 C   0  0  0  0  0  2  0  0  0  0  0  0
  185.5270  178.4680  141.5520 C   0  0  2  0  0  3  0  0  0  0  0  0
  186.6760  177.5750  139.3110 O   0  0  0  0  0  0  0  0  0  0  0  0
  181.3230  179.0510  140.2120 C   0  0  0  0  0  0  0  0  0  0  0  0
  181.3610  175.9670  138.2110 N   0  0  0  0  0  0  0  0  0  0  0  0
  182.5190  176.2710  138.6380 N   0  0  0  0  0  0  0  0  0  0  0  0
  180.0850  174.1030  138.8090 O   0  0  0  0  0  0  0  0  0  0  0  0
  180.9660  174.6030  138.0600 C   0  0  0  0  0  0  0  0  0  0  0  0
  181.5740  173.8020  137.0550 N   0  0  0  0  0  1  0  0  0  0  0  0
  2 20  1  0  0  0  0
  3  5  1  0  0  0  0
  3  6  1  1  0  0  0
  4 23  1  1  0  0  0
  4  3  1  0  0  0  0
  5  2  1  6  0  0  0
  5 19  1  0  0  0  0
  6  8  2  0  0  0  0
  7 10  1  0  0  0  0
  8  1  1  0  0  0  0
  8 16  1  0  0  0  0
  9 16  1  0  0  0  0
  9 17  1  1  0  0  0
 11 14  1  0  0  0  0
 12  4  1  0  0  0  0
 12 21  1  0  0  0  0
 13 15  1  6  0  0  0
 13 18  1  0  0  0  0
 14  1  2  0  0  0  0
 16  7  1  1  0  0  0
 17 10  1  0  0  0  0
 19 18  1  6  0  0  0
 19  9  1  0  0  0  0
 20 13  1  0  0  0  0
 21 11  2  0  0  0  0
 21  6  1  0  0  0  0
 22 23  2  0  0  0  0
 25 22  1  0  0  0  0
 25 24  2  0  0  0  0
 26 25  1  0  0  0  0
M  END
>  <MODEL>
5

>  <REMARK>
 VINA RESULT:      -6.0      1.695      2.871
  Name = 
  2 active torsions:
  status: ('A' for Active; 'I' for Inactive)
    1  A    between atoms: C_5  and  N_12
    2  A    between atoms: N_11  and  C_13
                            x       y       z     vdW  Elec       q    Type
                         _______ _______ _______ _____ _____    ______ ____

>  <TORSDO>
F 2

$$$$
=
 OpenBabel10232407543D

 26 30  0  0  1  0  0  0  0  0999 V2000
  187.3590  177.2340  138.0900 C   0  0  0  0  0  3  0  0  0  0  0  0
  183.3750  178.7470  142.2040 C   0  0  0  0  0  2  0  0  0  0  0  0
  184.6120  179.1090  139.9790 C   0  0  1  0  0  3  0  0  0  0  0  0
  183.2050  179.3020  139.3890 C   0  0  2  0  0  3  0  0  0  0  0  0
  184.6110  178.4050  141.3480 C   0  0  1  0  0  3  0  0  0  0  0  0
  185.3810  178.2910  138.9950 C   0  0  0  0  0  0  0  0  0  0  0  0
  189.0560  178.4050  140.1190 C   0  0  0  0  0  2  0  0  0  0  0  0
  186.7620  178.0400  139.0770 C   0  0  0  0  0  0  0  0  0  0  0  0
  187.1250  177.9740  141.5480 C   0  0  1  0  0  3  0  0  0  0  0  0
  189.5410  177.9820  141.4940 C   0  0  0  0  0  2  0  0  0  0  0  0
  185.2140  176.9490  136.9920 C   0  0  0  0  0  3  0  0  0  0  0  0
  182.8900  178.0840  138.0520 S   0  0  0  0  0  0  0  0  0  0  0  0
  184.5060  179.2150  144.1520 C   0  0  1  0  0  3  0  0  0  0  0  0
  186.5900  176.6980  137.0480 C   0  0  0  0  0  3  0  0  0  0  0  0
  183.7330  178.4130  145.0870 N   0  0  0  0  0  1  0  0  0  0  0  0
  187.5500  178.6010  140.2310 C   0  0  1  0  0  3  0  0  0  0  0  0
  188.3540  178.1020  142.4270 C   0  0  0  0  0  2  0  0  0  0  0  0
  185.7000  178.4110  143.6120 C   0  0  0  0  0  2  0  0  0  0  0  0
  185.9110  178.7150  142.1270 C   0  0  2  0  0  3  0  0  0  0  0  0
  183.6690  179.7560  143.1420 O   0  0  0  0  0  0  0  0  0  0  0  0
  184.6270  177.7400  137.9790 C   0  0  0  0  0  0  0  0  0  0  0  0
  181.9430  181.1460  138.6130 N   0  0  0  0  0  0  0  0  0  0  0  0
  183.0870  180.6520  138.8650 N   0  0  0  0  0  0  0  0  0  0  0  0
  182.6300  183.3710  138.4180 O   0  0  0  0  0  0  0  0  0  0  0  0
  181.8110  182.4700  138.0960 C   0  0  0  0  0  0  0  0  0  0  0  0
  180.7420  182.7750  137.2080 N   0  0  0  0  0  1  0  0  0  0  0  0
  1  8  1  0  0  0  0
  2 20  1  0  0  0  0
  3  6  1  6  0  0  0
  3  5  1  0  0  0  0
  4 23  1  6  0  0  0
  4  3  1  0  0  0  0
  5 19  1  0  0  0  0
  5  2  1  1  0  0  0
  6  8  2  0  0  0  0
  7 10  1  0  0  0  0
  8 16  1  0  0  0  0
  9 19  1  0  0  0  0
  9 17  1  1  0  0  0
 10 17  1  0  0  0  0
 11 14  1  0  0  0  0
 11 21  2  0  0  0  0
 12  4  1  0  0  0  0
 13 15  1  1  0  0  0
 14  1  2  0  0  0  0
 16  7  1  6  0  0  0
 16  9  1  0  0  0  0
 18 13  1  0  0  0  0
 19 18  1  1  0  0  0
 20 13  1  0  0  0  0
 21 12  1  0  0  0  0
 21  6  1  0  0  0  0
 22 23  2  0  0  0  0
 25 24  2  0  0  0  0
 25 22  1  0  0  0  0
 26 25  1  0  0  0  0
M  END
>  <MODEL>
6

>  <REMARK>
 VINA RESULT:      -5.9      3.213      5.387
  Name = 
  2 active torsions:
  status: ('A' for Active; 'I' for Inactive)
    1  A    between atoms: C_5  and  N_12
    2  A    between atoms: N_11  and  C_13
                            x       y       z     vdW  Elec       q    Type
                         _______ _______ _______ _____ _____    ______ ____

>  <TORSDO>
F 2

$$$$
=
 OpenBabel10232407543D

 26 30  0  0  1  0  0  0  0  0999 V2000
  186.2980  178.4630  142.3440 C   0  0  0  0  0  3  0  0  0  0  0  0
  190.9500  177.5820  138.7850 C   0  0  0  0  0  2  0  0  0  0  0  0
  188.5790  177.0450  139.6210 C   0  0  1  0  0  3  0  0  0  0  0  0
  188.1940  177.0920  138.1320 C   0  0  2  0  0  3  0  0  0  0  0  0
  189.9250  177.7250  139.9280 C   0  0  1  0  0  3  0  0  0  0  0  0
  187.4850  177.7360  140.3670 C   0  0  0  0  0  0  0  0  0  0  0  0
  188.0830  177.0080  144.0950 C   0  0  0  0  0  2  0  0  0  0  0  0
  187.3690  177.7560  141.7680 C   0  0  0  0  0  0  0  0  0  0  0  0
  189.7640  177.7350  142.4810 C   0  0  1  0  0  3  0  0  0  0  0  0
  189.3710  177.3310  144.8310 C   0  0  0  0  0  2  0  0  0  0  0  0
  185.5080  179.1080  140.1430 C   0  0  0  0  0  3  0  0  0  0  0  0
  186.8990  178.3590  137.8360 S   0  0  0  0  0  0  0  0  0  0  0  0
  192.7260  176.9140  140.0870 C   0  0  1  0  0  3  0  0  0  0  0  0
  185.3680  179.1290  141.5350 C   0  0  0  0  0  3  0  0  0  0  0  0
  193.7500  177.8230  139.5960 N   0  0  0  0  0  1  0  0  0  0  0  0
  188.4080  177.0610  142.6080 C   0  0  1  0  0  3  0  0  0  0  0  0
  190.4630  177.3970  143.7840 C   0  0  0  0  0  2  0  0  0  0  0  0
  192.0130  177.5170  141.3090 C   0  0  0  0  0  2  0  0  0  0  0  0
  190.5170  177.1970  141.2550 C   0  0  2  0  0  3  0  0  0  0  0  0
  191.8510  176.5280  139.0390 O   0  0  0  0  0  0  0  0  0  0  0  0
  186.5790  178.4140  139.5780 C   0  0  0  0  0  0  0  0  0  0  0  0
  186.5620  175.6640  137.1890 N   0  0  0  0  0  0  0  0  0  0  0  0
  187.7100  175.7850  137.7220 N   0  0  0  0  0  0  0  0  0  0  0  0
  185.6580  174.2010  135.6070 O   0  0  0  0  0  0  0  0  0  0  0  0
  186.0700  174.3860  136.7830 C   0  0  0  0  0  0  0  0  0  0  0  0
  186.0450  173.3130  137.7160 N   0  0  0  0  0  1  0  0  0  0  0  0
  2 20  1  0  0  0  0
  3  5  1  0  0  0  0
  3  6  1  1  0  0  0
  4 23  1  1  0  0  0
  4  3  1  0  0  0  0
  5  2  1  6  0  0  0
  5 19  1  0  0  0  0
  6  8  2  0  0  0  0
  7 10  1  0  0  0  0
  8  1  1  0  0  0  0
  8 16  1  0  0  0  0
  9 16  1  0  0  0  0
  9 17  1  1  0  0  0
 11 14  1  0  0  0  0
 12  4  1  0  0  0  0
 12 21  1  0  0  0  0
 13 15  1  6  0  0  0
 13 18  1  0  0  0  0
 14  1  2  0  0  0  0
 16  7  1  1  0  0  0
 17 10  1  0  0  0  0
 19 18  1  1  0  0  0
 19  9  1  0  0  0  0
 20 13  1  0  0  0  0
 21 11  2  0  0  0  0
 21  6  1  0  0  0  0
 22 23  2  0  0  0  0
 24 25  2  0  0  0  0
 25 22  1  0  0  0  0
 25 26  1  0  0  0  0
M  END
>  <MODEL>
7

>  <REMARK>
 VINA RESULT:      -5.8      3.355      4.412
  Name = 
  2 active torsions:
  status: ('A' for Active; 'I' for Inactive)
    1  A    between atoms: C_5  and  N_12
    2  A    between atoms: N_11  and  C_13
                            x       y       z     vdW  Elec       q    Type
                         _______ _______ _______ _____ _____    ______ ____

>  <TORSDO>
F 2

$$$$
=
 OpenBabel10232407543D

 26 30  0  0  1  0  0  0  0  0999 V2000
  187.1140  178.0150  145.7090 C   0  0  0  0  0  3  0  0  0  0  0  0
  186.8780  179.1880  139.9070 C   0  0  0  0  0  2  0  0  0  0  0  0
  185.9960  178.0750  142.0510 C   0  0  1  0  0  3  0  0  0  0  0  0
  184.6360  178.6560  141.6250 C   0  0  2  0  0  3  0  0  0  0  0  0
  187.1930  178.7420  141.3490 C   0  0  1  0  0  3  0  0  0  0  0  0
  186.1040  178.2760  143.5270 C   0  0  0  0  0  0  0  0  0  0  0  0
  189.1410  176.2230  144.6850 C   0  0  0  0  0  2  0  0  0  0  0  0
  187.1200  177.7300  144.3310 C   0  0  0  0  0  0  0  0  0  0  0  0
  189.0670  177.7280  142.7650 C   0  0  1  0  0  3  0  0  0  0  0  0
  190.5440  176.3880  144.1300 C   0  0  0  0  0  2  0  0  0  0  0  0
  185.1180  179.3690  145.4440 C   0  0  0  0  0  3  0  0  0  0  0  0
  183.9690  179.7650  142.9260 S   0  0  0  0  0  0  0  0  0  0  0  0
  188.7530  178.2880  138.9220 C   0  0  1  0  0  3  0  0  0  0  0  0
  186.1130  178.8240  146.2630 C   0  0  0  0  0  3  0  0  0  0  0  0
  189.2040  179.4360  138.1520 N   0  0  0  0  0  1  0  0  0  0  0  0
  188.2000  176.8950  143.6950 C   0  0  1  0  0  3  0  0  0  0  0  0
  190.3950  176.9950  142.7510 C   0  0  0  0  0  2  0  0  0  0  0  0
  189.4280  178.2690  140.3040 C   0  0  0  0  0  2  0  0  0  0  0  0
  188.4290  177.8130  141.3710 C   0  0  2  0  0  3  0  0  0  0  0  0
  187.3360  178.2390  138.9700 O   0  0  0  0  0  0  0  0  0  0  0  0
  185.1360  179.0910  144.0770 C   0  0  0  0  0  0  0  0  0  0  0  0
  182.9620  177.5750  140.3520 N   0  0  0  0  0  0  0  0  0  0  0  0
  183.7070  177.5660  141.3810 N   0  0  0  0  0  0  0  0  0  0  0  0
  182.4470  175.4000  139.6710 O   0  0  0  0  0  0  0  0  0  0  0  0
  182.0420  176.5130  140.0990 C   0  0  0  0  0  0  0  0  0  0  0  0
  180.6530  176.7140  140.3330 N   0  0  0  0  0  1  0  0  0  0  0  0
  1 14  1  0  0  0  0
  3  6  1  1  0  0  0
  4 23  1  1  0  0  0
  4  3  1  0  0  0  0
  4 12  1  0  0  0  0
  5  2  1  6  0  0  0
  5 19  1  0  0  0  0
  5  3  1  0  0  0  0
  6 21  2  0  0  0  0
  6  8  1  0  0  0  0
  8  1  2  0  0  0  0
  9 17  1  6  0  0  0
  9 16  1  0  0  0  0
 10  7  1  0  0  0  0
 11 14  2  0  0  0  0
 12 21  1  0  0  0  0
 13 15  1  1  0  0  0
 13 20  1  0  0  0  0
 13 18  1  0  0  0  0
 16  8  1  0  0  0  0
 16  7  1  1  0  0  0
 17 10  1  0  0  0  0
 19 18  1  6  0  0  0
 19  9  1  0  0  0  0
 20  2  1  0  0  0  0
 21 11  1  0  0  0  0
 22 23  2  0  0  0  0
 24 25  2  0  0  0  0
 25 26  1  0  0  0  0
 25 22  1  0  0  0  0
M  END
>  <MODEL>
8

>  <REMARK>
 VINA RESULT:      -5.7      1.438      1.805
  Name = 
  2 active torsions:
  status: ('A' for Active; 'I' for Inactive)
    1  A    between atoms: C_5  and  N_12
    2  A    between atoms: N_11  and  C_13
                            x       y       z     vdW  Elec       q    Type
                         _______ _______ _______ _____ _____    ______ ____

>  <TORSDO>
F 2

$$$$
=
 OpenBabel10232407543D

 26 30  0  0  1  0  0  0  0  0999 V2000
  185.0370  178.2940  142.7250 C   0  0  0  0  0  3  0  0  0  0  0  0
  190.9390  178.5220  142.2610 C   0  0  0  0  0  2  0  0  0  0  0  0
  188.6360  177.5420  141.6690 C   0  0  1  0  0  3  0  0  0  0  0  0
  189.1040  177.6910  140.2100 C   0  0  2  0  0  3  0  0  0  0  0  0
  189.4570  178.3820  142.6640 C   0  0  1  0  0  3  0  0  0  0  0  0
  187.2070  177.9740  141.7060 C   0  0  0  0  0  0  0  0  0  0  0  0
  185.8500  176.9460  145.1540 C   0  0  0  0  0  2  0  0  0  0  0  0
  186.3610  177.8240  142.8190 C   0  0  0  0  0  0  0  0  0  0  0  0
  187.9610  178.0910  144.7190 C   0  0  1  0  0  3  0  0  0  0  0  0
  186.4600  177.3810  146.4740 C   0  0  0  0  0  2  0  0  0  0  0  0
  185.4390  179.0450  140.4540 C   0  0  0  0  0  3  0  0  0  0  0  0
  187.9560  178.7710  139.2680 S   0  0  0  0  0  0  0  0  0  0  0  0
  191.8350  177.9950  144.3130 C   0  0  1  0  0  3  0  0  0  0  0  0
  184.5770  178.8940  141.5460 C   0  0  0  0  0  3  0  0  0  0  0  0
  192.7720  179.0970  144.4660 N   0  0  0  0  0  1  0  0  0  0  0  0
  186.9000  177.2090  144.0830 C   0  0  1  0  0  3  0  0  0  0  0  0
  187.9060  177.7250  146.1900 C   0  0  0  0  0  2  0  0  0  0  0  0
  190.4830  178.3470  144.9560 C   0  0  0  0  0  2  0  0  0  0  0  0
  189.3360  177.8110  144.0950 C   0  0  2  0  0  3  0  0  0  0  0  0
  191.7430  177.5960  142.9550 O   0  0  0  0  0  0  0  0  0  0  0  0
  186.7530  178.5870  140.5560 C   0  0  0  0  0  0  0  0  0  0  0  0
  189.3740  176.2650  138.3430 N   0  0  0  0  0  0  0  0  0  0  0  0
  189.1660  176.3780  139.5920 N   0  0  0  0  0  0  0  0  0  0  0  0
  188.4440  174.5230  137.0940 O   0  0  0  0  0  0  0  0  0  0  0  0
  189.4360  174.9820  137.7200 C   0  0  0  0  0  0  0  0  0  0  0  0
  190.6300  174.2140  137.8060 N   0  0  0  0  0  1  0  0  0  0  0  0
  1  8  1  0  0  0  0
  2 20  1  0  0  0  0
  3  6  1  6  0  0  0
  3  5  1  0  0  0  0
  4 23  1  6  0  0  0
  4  3  1  0  0  0  0
  5  2  1  6  0  0  0
  5 19  1  0  0  0  0
  6  8  2  0  0  0  0
  7 10  1  0  0  0  0
  8 16  1  0  0  0  0
  9 17  1  1  0  0  0
 11 21  2  0  0  0  0
 11 14  1  0  0  0  0
 12  4  1  0  0  0  0
 12 21  1  0  0  0  0
 13 15  1  6  0  0  0
 13 18  1  0  0  0  0
 14  1  2  0  0  0  0
 16  9  1  0  0  0  0
 16  7  1  1  0  0  0
 17 10  1  0  0  0  0
 19  9  1  0  0  0  0
 19 18  1  1  0  0  0
 20 13  1  0  0  0  0
 21  6  1  0  0  0  0
 22 23  2  0  0  0  0
 24 25  2  0  0  0  0
 25 26  1  0  0  0  0
 25 22  1  0  0  0  0
M  END
>  <MODEL>
9

>  <REMARK>
 VINA RESULT:      -5.4      3.772      5.471
  Name = 
  2 active torsions:
  status: ('A' for Active; 'I' for Inactive)
    1  A    between atoms: C_5  and  N_12
    2  A    between atoms: N_11  and  C_13
                            x       y       z     vdW  Elec       q    Type
                         _______ _______ _______ _____ _____    ______ ____

>  <TORSDO>
F 2

$$$$
