=
 OpenBabel10232411193D

 50 53  0  0  1  0  0  0  0  0999 V2000
  188.2530  177.7950  142.2400 C   0  0  0  0  0  3  0  0  0  0  0  0
  189.0620  176.4390  138.3350 C   0  0  0  0  0  0  0  0  0  0  0  0
  190.1640  176.5560  139.3320 C   0  0  0  0  0  0  0  0  0  0  0  0
  185.2130  178.2120  144.4630 C   0  0  0  0  0  3  0  0  0  0  0  0
  185.8210  178.2940  141.7280 C   0  0  0  0  0  0  0  0  0  0  0  0
  187.9940  177.3330  138.3870 O   0  0  0  0  0  0  0  0  0  0  0  0
  186.7910  177.1660  137.6550 C   0  0  0  0  0  2  0  0  0  0  0  0
  188.5670  177.3480  141.0290 C   0  0  0  0  0  3  0  0  0  0  0  0
  189.9390  177.0360  140.5790 C   0  0  0  0  0  0  0  0  0  0  0  0
  186.1040  179.4510  137.2830 C   0  0  0  0  0  2  0  0  0  0  0  0
  185.1700  178.3340  139.2940 C   0  0  2  0  0  3  0  0  0  0  0  0
  184.5000  178.4360  142.1760 C   0  0  0  0  0  3  0  0  0  0  0  0
  191.0660  177.1810  141.5590 C   0  0  0  0  0  1  0  0  0  0  0  0
  186.1210  178.4320  140.3600 O   0  0  0  0  0  0  0  0  0  0  0  0
  186.8580  178.0520  142.6710 C   0  0  0  0  0  0  0  0  0  0  0  0
  185.8920  178.3200  137.9620 C   0  0  0  0  0  0  0  0  0  0  0  0
  189.1080  175.5580  137.4330 O   0  0  0  0  0  0  0  0  0  0  0  0
  184.1970  178.3980  143.5320 C   0  0  0  0  0  3  0  0  0  0  0  0
  186.5440  178.0340  144.0600 C   0  0  0  0  0  0  0  0  0  0  0  0
  189.4270  177.3090  147.1620 C   0  0  0  0  0  3  0  0  0  0  0  0
  188.1350  177.7300  147.4860 C   0  0  0  0  0  3  0  0  0  0  0  0
  188.8520  177.3630  144.8150 C   0  0  0  0  0  3  0  0  0  0  0  0
  187.5560  177.8030  145.1250 C   0  0  0  0  0  0  0  0  0  0  0  0
  189.7930  177.1220  145.8230 C   0  0  0  0  0  0  0  0  0  0  0  0
  187.2040  177.9720  146.4730 C   0  0  0  0  0  3  0  0  0  0  0  0
  191.3850  176.0270  144.2660 O   0  0  0  0  0  0  0  0  0  0  0  0
  192.1140  176.8820  146.2600 O   0  0  0  0  0  1  0  0  0  0  0  0
  191.1510  176.6770  145.4730 C   0  0  0  0  0  0  0  0  0  0  0  0
  192.7280  174.9170  137.2280 C   0  0  0  0  0  2  0  0  0  0  0  0
  191.5390  174.8180  138.1540 C   0  0  0  0  0  2  0  0  0  0  0  0
  192.8930  176.3950  136.9390 C   0  0  2  0  0  3  0  0  0  0  0  0
  194.2470  176.7060  136.8190 O   0  0  0  0  0  1  0  0  0  0  0  0
  192.2940  177.1400  138.1180 C   0  0  0  0  0  2  0  0  0  0  0  0
  191.5550  176.1060  138.9520 C   0  0  1  0  0  3  0  0  0  0  0  0
  183.0460  179.3540  138.6600 C   0  0  0  0  0  0  0  0  0  0  0  0
  181.6630  180.3040  137.0500 O   0  0  0  0  0  1  0  0  0  0  0  0
  184.1330  179.4200  139.3760 C   0  0  0  0  0  3  0  0  0  0  0  0
  181.9590  179.2800  137.9420 C   0  0  0  0  0  0  0  0  0  0  0  0
  181.3000  176.9540  137.2880 N   0  0  0  0  0  2  0  0  0  0  0  0
  180.0540  178.1780  138.8350 O   0  0  0  0  0  0  0  0  0  0  0  0
  181.0500  178.1300  138.0610 C   0  0  0  0  0  0  0  0  0  0  0  0
  180.4620  175.7620  137.3690 C   0  0  1  0  0  3  0  0  0  0  0  0
  180.8320  175.9750  134.9000 C   0  0  0  0  0  1  0  0  0  0  0  0
  179.9820  173.8220  135.8060 C   0  0  0  0  0  1  0  0  0  0  0  0
  179.9820  175.3330  135.9790 C   0  0  0  0  0  3  0  0  0  0  0  0
  181.2180  174.6360  138.0670 C   0  0  0  0  0  2  0  0  0  0  0  0
  182.9920  175.0240  138.1650 S   0  0  0  0  0  0  0  0  0  0  0  0
  183.6160  173.9920  135.8220 O   0  0  0  0  0  1  0  0  0  0  0  0
  184.7650  173.0200  137.6580 C   0  0  0  0  0  1  0  0  0  0  0  0
  183.4600  173.5930  137.1490 C   0  0  1  0  0  3  0  0  0  0  0  0
  1 15  1  0  0  0  0
  2  6  1  0  0  0  0
  2  3  1  0  0  0  0
  3  9  2  0  0  0  0
  5 12  2  0  0  0  0
  5 15  1  0  0  0  0
  7 16  1  0  0  0  0
  7  6  1  0  0  0  0
  8  1  2  0  0  0  0
  9  8  1  0  0  0  0
  9 13  1  0  0  0  0
 10 16  2  0  0  0  0
 11 37  1  6  0  0  0
 11 14  1  0  0  0  0
 12 18  1  0  0  0  0
 14  5  1  0  0  0  0
 15 19  2  0  0  0  0
 16 11  1  0  0  0  0
 17  2  2  0  0  0  0
 18  4  2  0  0  0  0
 19  4  1  0  0  0  0
 19 23  1  0  0  0  0
 20 21  1  0  0  0  0
 22 23  2  0  0  0  0
 22 24  1  0  0  0  0
 23 25  1  0  0  0  0
 24 20  2  0  0  0  0
 25 21  2  0  0  0  0
 26 28  2  0  0  0  0
 28 24  1  0  0  0  0
 28 27  1  0  0  0  0
 29 30  1  0  0  0  0
 30 34  1  0  0  0  0
 31 32  1  1  0  0  0
 31 29  1  0  0  0  0
 31 33  1  0  0  0  0
 33 34  1  0  0  0  0
 34  3  1  6  0  0  0
 35 37  2  0  0  0  0
 36 38  1  0  0  0  0
 38 41  1  0  0  0  0
 38 35  2  0  0  0  0
 39 42  1  0  0  0  0
 39 41  1  0  0  0  0
 41 40  2  0  0  0  0
 42 46  1  6  0  0  0
 43 45  1  0  0  0  0
 44 45  1  0  0  0  0
 45 42  1  0  0  0  0
 46 47  1  0  0  0  0
 48 50  1  0  0  0  0
 50 49  1  1  0  0  0
 50 47  1  0  0  0  0
M  END
>  <MODEL>
1

>  <REMARK>
 VINA RESULT:      -8.6      0.000      0.000
  Name = 
  10 active torsions:
  status: ('A' for Active; 'I' for Inactive)
    1  A    between atoms: N_3  and  C_13
    2  A    between atoms: C_9  and  C_50
    3  A    between atoms: C_13  and  C_27
    4  A    between atoms: C_13  and  C_45
    5  A    between atoms: C_20  and  C_24
    6  A    between atoms: C_27  and  S_39
    7  A    between atoms: C_30  and  C_49
    8  A    between atoms: C_35  and  C_40
    9  A    between atoms: C_36  and  C_37
   10  A    between atoms: S_39  and  C_48
                            x       y       z     vdW  Elec       q    Type
                         _______ _______ _______ _____ _____    ______ ____

>  <TORSDO>
F 10

$$$$
=
 OpenBabel10232411193D

 50 53  0  0  1  0  0  0  0  0999 V2000
  187.5730  177.6650  142.0920 C   0  0  0  0  0  3  0  0  0  0  0  0
  184.6380  179.4340  139.6430 C   0  0  0  0  0  0  0  0  0  0  0  0
  184.3110  179.0430  141.0440 C   0  0  0  0  0  0  0  0  0  0  0  0
  191.3480  177.3290  142.1050 C   0  0  0  0  0  3  0  0  0  0  0  0
  189.2820  177.5490  140.2220 C   0  0  0  0  0  0  0  0  0  0  0  0
  185.5640  178.6820  138.9210 O   0  0  0  0  0  0  0  0  0  0  0  0
  186.1240  179.0970  137.6870 C   0  0  0  0  0  2  0  0  0  0  0  0
  186.6110  178.2310  141.3730 C   0  0  0  0  0  3  0  0  0  0  0  0
  185.2230  178.4280  141.8360 C   0  0  0  0  0  0  0  0  0  0  0  0
  186.5280  176.9900  136.5790 C   0  0  0  0  0  2  0  0  0  0  0  0
  188.4200  177.9270  137.8850 C   0  0  2  0  0  3  0  0  0  0  0  0
  190.6240  177.5130  139.8180 C   0  0  0  0  0  3  0  0  0  0  0  0
  184.8660  178.0090  143.2320 C   0  0  0  0  0  1  0  0  0  0  0  0
  188.2550  177.5650  139.2610 O   0  0  0  0  0  0  0  0  0  0  0  0
  188.9690  177.5260  141.6100 C   0  0  0  0  0  0  0  0  0  0  0  0
  187.0630  178.0340  137.2180 C   0  0  0  0  0  0  0  0  0  0  0  0
  184.0620  180.4170  139.1030 O   0  0  0  0  0  0  0  0  0  0  0  0
  191.6500  177.4010  140.7500 C   0  0  0  0  0  3  0  0  0  0  0  0
  190.0230  177.3930  142.5580 C   0  0  0  0  0  0  0  0  0  0  0  0
  189.3300  177.2030  146.7950 C   0  0  0  0  0  3  0  0  0  0  0  0
  188.3050  177.5960  145.9310 C   0  0  0  0  0  3  0  0  0  0  0  0
  190.8150  176.9380  144.9070 C   0  0  0  0  0  3  0  0  0  0  0  0
  189.8000  177.3460  144.0280 C   0  0  0  0  0  0  0  0  0  0  0  0
  190.5920  176.8710  146.2870 C   0  0  0  0  0  0  0  0  0  0  0  0
  188.5380  177.6630  144.5550 C   0  0  0  0  0  3  0  0  0  0  0  0
  192.3650  175.2690  146.9570 O   0  0  0  0  0  0  0  0  0  0  0  0
  191.9930  177.1680  148.1790 O   0  0  0  0  0  1  0  0  0  0  0  0
  191.6760  176.4550  147.1900 C   0  0  0  0  0  0  0  0  0  0  0  0
  180.7700  178.3880  141.8890 C   0  0  0  0  0  2  0  0  0  0  0  0
  181.8420  178.6390  140.8550 C   0  0  0  0  0  2  0  0  0  0  0  0
  181.5050  178.2290  143.2040 C   0  0  2  0  0  3  0  0  0  0  0  0
  180.7450  178.7700  144.2400 O   0  0  0  0  0  1  0  0  0  0  0  0
  182.8110  178.9920  143.0690 C   0  0  0  0  0  2  0  0  0  0  0  0
  182.9440  179.3640  141.6000 C   0  0  1  0  0  3  0  0  0  0  0  0
  189.0430  175.7120  137.0740 C   0  0  0  0  0  0  0  0  0  0  0  0
  189.6120  173.4960  137.4870 O   0  0  0  0  0  1  0  0  0  0  0  0
  189.3410  176.9780  137.1710 C   0  0  0  0  0  3  0  0  0  0  0  0
  188.7360  174.4470  136.9770 C   0  0  0  0  0  0  0  0  0  0  0  0
  186.3350  173.7580  137.1590 N   0  0  0  0  0  2  0  0  0  0  0  0
  187.4100  173.8770  135.0920 O   0  0  0  0  0  0  0  0  0  0  0  0
  187.4800  174.0190  136.3440 C   0  0  0  0  0  0  0  0  0  0  0  0
  185.0470  173.3560  136.6060 C   0  0  1  0  0  3  0  0  0  0  0  0
  183.4150  171.5120  137.0710 C   0  0  0  0  0  1  0  0  0  0  0  0
  185.2490  171.1110  135.4400 C   0  0  0  0  0  1  0  0  0  0  0  0
  184.8520  171.8400  136.7150 C   0  0  0  0  0  3  0  0  0  0  0  0
  183.9190  174.1110  137.3020 C   0  0  0  0  0  2  0  0  0  0  0  0
  183.1350  175.2840  136.1540 S   0  0  0  0  0  0  0  0  0  0  0  0
  183.3770  176.2030  138.6130 O   0  0  0  0  0  1  0  0  0  0  0  0
  182.5910  177.8000  137.0420 C   0  0  0  0  0  1  0  0  0  0  0  0
  182.5530  176.3580  137.4980 C   0  0  1  0  0  3  0  0  0  0  0  0
  2  3  1  0  0  0  0
  3  9  2  0  0  0  0
  4 19  1  0  0  0  0
  5 15  1  0  0  0  0
  6  2  1  0  0  0  0
  7  6  1  0  0  0  0
  8  9  1  0  0  0  0
  8  1  2  0  0  0  0
  9 13  1  0  0  0  0
 10 16  2  0  0  0  0
 11 37  1  6  0  0  0
 11 14  1  0  0  0  0
 12  5  2  0  0  0  0
 12 18  1  0  0  0  0
 14  5  1  0  0  0  0
 15  1  1  0  0  0  0
 15 19  2  0  0  0  0
 16  7  1  0  0  0  0
 16 11  1  0  0  0  0
 17  2  2  0  0  0  0
 18  4  2  0  0  0  0
 19 23  1  0  0  0  0
 21 20  2  0  0  0  0
 22 24  2  0  0  0  0
 23 25  2  0  0  0  0
 23 22  1  0  0  0  0
 24 20  1  0  0  0  0
 24 28  1  0  0  0  0
 25 21  1  0  0  0  0
 26 28  2  0  0  0  0
 28 27  1  0  0  0  0
 29 31  1  0  0  0  0
 30 34  1  0  0  0  0
 30 29  1  0  0  0  0
 31 32  1  1  0  0  0
 33 31  1  0  0  0  0
 34  3  1  6  0  0  0
 34 33  1  0  0  0  0
 35 37  2  0  0  0  0
 38 35  2  0  0  0  0
 38 36  1  0  0  0  0
 40 41  2  0  0  0  0
 41 38  1  0  0  0  0
 41 39  1  0  0  0  0
 42 45  1  0  0  0  0
 42 39  1  0  0  0  0
 42 46  1  1  0  0  0
 44 45  1  0  0  0  0
 45 43  1  0  0  0  0
 47 46  1  0  0  0  0
 47 50  1  0  0  0  0
 50 49  1  6  0  0  0
 50 48  1  0  0  0  0
M  END
>  <MODEL>
2

>  <REMARK>
 VINA RESULT:      -8.6      2.263      6.360
  Name = 
  10 active torsions:
  status: ('A' for Active; 'I' for Inactive)
    1  A    between atoms: N_3  and  C_13
    2  A    between atoms: C_9  and  C_50
    3  A    between atoms: C_13  and  C_27
    4  A    between atoms: C_13  and  C_45
    5  A    between atoms: C_20  and  C_24
    6  A    between atoms: C_27  and  S_39
    7  A    between atoms: C_30  and  C_49
    8  A    between atoms: C_35  and  C_40
    9  A    between atoms: C_36  and  C_37
   10  A    between atoms: S_39  and  C_48
                            x       y       z     vdW  Elec       q    Type
                         _______ _______ _______ _____ _____    ______ ____

>  <TORSDO>
F 10

$$$$
=
 OpenBabel10232411193D

 50 53  0  0  1  0  0  0  0  0999 V2000
  187.5670  177.6530  142.0710 C   0  0  0  0  0  3  0  0  0  0  0  0
  184.6440  179.4350  139.6180 C   0  0  0  0  0  0  0  0  0  0  0  0
  184.3130  179.0500  141.0190 C   0  0  0  0  0  0  0  0  0  0  0  0
  191.3400  177.2940  142.0870 C   0  0  0  0  0  3  0  0  0  0  0  0
  189.2760  177.5230  140.2030 C   0  0  0  0  0  0  0  0  0  0  0  0
  185.5650  178.6760  138.8970 O   0  0  0  0  0  0  0  0  0  0  0  0
  186.1290  179.0860  137.6630 C   0  0  0  0  0  2  0  0  0  0  0  0
  186.6080  178.2240  141.3510 C   0  0  0  0  0  3  0  0  0  0  0  0
  185.2210  178.4300  141.8120 C   0  0  0  0  0  0  0  0  0  0  0  0
  186.5200  176.9750  136.5590 C   0  0  0  0  0  2  0  0  0  0  0  0
  188.4180  177.9020  137.8650 C   0  0  2  0  0  3  0  0  0  0  0  0
  190.6180  177.4780  139.7990 C   0  0  0  0  0  3  0  0  0  0  0  0
  184.8610  178.0160  143.2090 C   0  0  0  0  0  1  0  0  0  0  0  0
  188.2500  177.5440  139.2410 O   0  0  0  0  0  0  0  0  0  0  0  0
  188.9620  177.5050  141.5910 C   0  0  0  0  0  0  0  0  0  0  0  0
  187.0620  178.0170  137.1960 C   0  0  0  0  0  0  0  0  0  0  0  0
  184.0740  180.4220  139.0760 O   0  0  0  0  0  0  0  0  0  0  0  0
  191.6430  177.3620  140.7320 C   0  0  0  0  0  3  0  0  0  0  0  0
  190.0150  177.3660  142.5390 C   0  0  0  0  0  0  0  0  0  0  0  0
  189.4130  177.3030  146.7940 C   0  0  0  0  0  3  0  0  0  0  0  0
  190.6730  177.0300  146.2570 C   0  0  0  0  0  3  0  0  0  0  0  0
  188.5340  177.6130  144.5640 C   0  0  0  0  0  3  0  0  0  0  0  0
  189.7900  177.3240  144.0090 C   0  0  0  0  0  0  0  0  0  0  0  0
  188.3350  177.5980  145.9490 C   0  0  0  0  0  0  0  0  0  0  0  0
  190.8610  177.0440  144.8730 C   0  0  0  0  0  3  0  0  0  0  0  0
  186.8530  178.8660  147.4830 O   0  0  0  0  0  1  0  0  0  0  0  0
  185.9910  177.2570  146.1030 O   0  0  0  0  0  0  0  0  0  0  0  0
  187.0050  177.8880  146.5060 C   0  0  0  0  0  0  0  0  0  0  0  0
  180.7590  178.4300  141.8340 C   0  0  0  0  0  2  0  0  0  0  0  0
  181.8400  178.6830  140.8100 C   0  0  0  0  0  2  0  0  0  0  0  0
  181.4860  178.2370  143.1500 C   0  0  2  0  0  3  0  0  0  0  0  0
  180.7270  178.7700  144.1910 O   0  0  0  0  0  1  0  0  0  0  0  0
  182.8020  178.9840  143.0340 C   0  0  0  0  0  2  0  0  0  0  0  0
  182.9480  179.3790  141.5740 C   0  0  1  0  0  3  0  0  0  0  0  0
  189.0300  175.6820  137.0610 C   0  0  0  0  0  0  0  0  0  0  0  0
  189.5900  173.4650  137.4820 O   0  0  0  0  0  1  0  0  0  0  0  0
  189.3330  176.9470  137.1520 C   0  0  0  0  0  3  0  0  0  0  0  0
  188.7180  174.4170  136.9710 C   0  0  0  0  0  0  0  0  0  0  0  0
  186.3150  173.7370  137.1600 N   0  0  0  0  0  2  0  0  0  0  0  0
  187.3850  173.8470  135.0900 O   0  0  0  0  0  0  0  0  0  0  0  0
  187.4580  173.9920  136.3420 C   0  0  0  0  0  0  0  0  0  0  0  0
  185.0240  173.3380  136.6120 C   0  0  1  0  0  3  0  0  0  0  0  0
  183.3920  171.4830  137.0280 C   0  0  0  0  0  1  0  0  0  0  0  0
  185.2590  171.1040  135.4310 C   0  0  0  0  0  1  0  0  0  0  0  0
  184.8340  171.8200  136.7040 C   0  0  0  0  0  3  0  0  0  0  0  0
  183.8980  174.0810  137.3240 C   0  0  0  0  0  2  0  0  0  0  0  0
  183.1380  175.3030  136.2120 S   0  0  0  0  0  0  0  0  0  0  0  0
  181.7340  177.1870  137.4070 O   0  0  0  0  0  1  0  0  0  0  0  0
  183.0340  175.8510  138.8770 C   0  0  0  0  0  1  0  0  0  0  0  0
  182.9630  176.5390  137.5320 C   0  0  1  0  0  3  0  0  0  0  0  0
  2  3  1  0  0  0  0
  3  9  2  0  0  0  0
  4 19  1  0  0  0  0
  5 15  1  0  0  0  0
  6  2  1  0  0  0  0
  7  6  1  0  0  0  0
  8  9  1  0  0  0  0
  8  1  2  0  0  0  0
  9 13  1  0  0  0  0
 10 16  2  0  0  0  0
 11 37  1  6  0  0  0
 11 14  1  0  0  0  0
 12  5  2  0  0  0  0
 12 18  1  0  0  0  0
 14  5  1  0  0  0  0
 15  1  1  0  0  0  0
 15 19  2  0  0  0  0
 16  7  1  0  0  0  0
 16 11  1  0  0  0  0
 17  2  2  0  0  0  0
 18  4  2  0  0  0  0
 19 23  1  0  0  0  0
 21 20  1  0  0  0  0
 22 24  1  0  0  0  0
 23 22  2  0  0  0  0
 23 25  1  0  0  0  0
 24 28  1  0  0  0  0
 24 20  2  0  0  0  0
 25 21  2  0  0  0  0
 27 28  2  0  0  0  0
 28 26  1  0  0  0  0
 29 31  1  0  0  0  0
 30 34  1  0  0  0  0
 30 29  1  0  0  0  0
 31 32  1  1  0  0  0
 33 31  1  0  0  0  0
 34  3  1  6  0  0  0
 34 33  1  0  0  0  0
 35 37  2  0  0  0  0
 38 35  2  0  0  0  0
 38 36  1  0  0  0  0
 40 41  2  0  0  0  0
 41 38  1  0  0  0  0
 41 39  1  0  0  0  0
 42 45  1  0  0  0  0
 42 39  1  0  0  0  0
 42 46  1  1  0  0  0
 44 45  1  0  0  0  0
 45 43  1  0  0  0  0
 47 46  1  0  0  0  0
 47 50  1  0  0  0  0
 48 50  1  0  0  0  0
 50 49  1  1  0  0  0
M  END
>  <MODEL>
3

>  <REMARK>
 VINA RESULT:      -8.2      2.529      6.490
  Name = 
  10 active torsions:
  status: ('A' for Active; 'I' for Inactive)
    1  A    between atoms: N_3  and  C_13
    2  A    between atoms: C_9  and  C_50
    3  A    between atoms: C_13  and  C_27
    4  A    between atoms: C_13  and  C_45
    5  A    between atoms: C_20  and  C_24
    6  A    between atoms: C_27  and  S_39
    7  A    between atoms: C_30  and  C_49
    8  A    between atoms: C_35  and  C_40
    9  A    between atoms: C_36  and  C_37
   10  A    between atoms: S_39  and  C_48
                            x       y       z     vdW  Elec       q    Type
                         _______ _______ _______ _____ _____    ______ ____

>  <TORSDO>
F 10

$$$$
=
 OpenBabel10232411193D

 50 53  0  0  1  0  0  0  0  0999 V2000
  188.5650  177.1990  140.2120 C   0  0  0  0  0  3  0  0  0  0  0  0
  186.3560  178.2500  143.6410 C   0  0  0  0  0  0  0  0  0  0  0  0
  187.5540  177.3720  143.7600 C   0  0  0  0  0  0  0  0  0  0  0  0
  188.9240  178.4380  136.6480 C   0  0  0  0  0  3  0  0  0  0  0  0
  186.9430  178.3370  138.6300 C   0  0  0  0  0  0  0  0  0  0  0  0
  185.5710  178.1850  142.4900 O   0  0  0  0  0  0  0  0  0  0  0  0
  184.5660  179.1310  142.1680 C   0  0  0  0  0  2  0  0  0  0  0  0
  187.9180  177.5070  141.3300 C   0  0  0  0  0  3  0  0  0  0  0  0
  188.2530  176.9790  142.6670 C   0  0  0  0  0  0  0  0  0  0  0  0
  182.9900  177.7920  140.9220 C   0  0  0  0  0  2  0  0  0  0  0  0
  184.7080  178.9930  139.5910 C   0  0  2  0  0  3  0  0  0  0  0  0
  186.7010  178.9680  137.4020 C   0  0  0  0  0  3  0  0  0  0  0  0
  189.4360  176.0650  142.8020 C   0  0  0  0  0  1  0  0  0  0  0  0
  185.9090  178.2120  139.5760 O   0  0  0  0  0  0  0  0  0  0  0  0
  188.2290  177.7860  138.8930 C   0  0  0  0  0  0  0  0  0  0  0  0
  183.9420  178.7280  140.8720 C   0  0  0  0  0  0  0  0  0  0  0  0
  186.0360  179.0250  144.5830 O   0  0  0  0  0  0  0  0  0  0  0  0
  187.6810  179.0180  136.4170 C   0  0  0  0  0  3  0  0  0  0  0  0
  189.2210  177.8230  137.8730 C   0  0  0  0  0  0  0  0  0  0  0  0
  193.1490  176.1660  138.4180 C   0  0  0  0  0  3  0  0  0  0  0  0
  192.5510  176.9100  139.4380 C   0  0  0  0  0  3  0  0  0  0  0  0
  191.1960  176.5010  137.0340 C   0  0  0  0  0  3  0  0  0  0  0  0
  190.5900  177.2650  138.0430 C   0  0  0  0  0  0  0  0  0  0  0  0
  192.4740  175.9560  137.2090 C   0  0  0  0  0  0  0  0  0  0  0  0
  191.2770  177.4530  139.2520 C   0  0  0  0  0  3  0  0  0  0  0  0
  192.3240  174.3120  135.3570 O   0  0  0  0  0  0  0  0  0  0  0  0
  194.3290  175.2730  135.8960 O   0  0  0  0  0  1  0  0  0  0  0  0
  193.0950  175.1720  136.1300 C   0  0  0  0  0  0  0  0  0  0  0  0
  189.2980  177.7030  147.0060 C   0  0  0  0  0  2  0  0  0  0  0  0
  189.3500  177.5410  145.5050 C   0  0  0  0  0  2  0  0  0  0  0  0
  187.8390  177.9460  147.3360 C   0  0  2  0  0  3  0  0  0  0  0  0
  187.5250  177.3490  148.5560 O   0  0  0  0  0  1  0  0  0  0  0  0
  187.0270  177.3070  146.2240 C   0  0  0  0  0  2  0  0  0  0  0  0
  188.0140  176.9320  145.1300 C   0  0  1  0  0  3  0  0  0  0  0  0
  184.0970  177.7130  137.6060 C   0  0  0  0  0  0  0  0  0  0  0  0
  184.6340  176.8500  135.5150 O   0  0  0  0  0  1  0  0  0  0  0  0
  183.8770  178.7530  138.3620 C   0  0  0  0  0  3  0  0  0  0  0  0
  184.3210  176.6680  136.8560 C   0  0  0  0  0  0  0  0  0  0  0  0
  184.8460  174.2250  136.6970 N   0  0  0  0  0  2  0  0  0  0  0  0
  183.6640  175.0960  138.5100 O   0  0  0  0  0  0  0  0  0  0  0  0
  184.2500  175.3090  137.4120 C   0  0  0  0  0  0  0  0  0  0  0  0
  184.8420  172.8530  137.1930 C   0  0  1  0  0  3  0  0  0  0  0  0
  183.4460  170.8400  136.6660 C   0  0  0  0  0  1  0  0  0  0  0  0
  183.7530  172.5800  134.9170 C   0  0  0  0  0  1  0  0  0  0  0  0
  184.3990  171.8750  136.1010 C   0  0  0  0  0  3  0  0  0  0  0  0
  186.2180  172.4880  137.7390 C   0  0  0  0  0  2  0  0  0  0  0  0
  187.4180  172.3230  136.3820 S   0  0  0  0  0  0  0  0  0  0  0  0
  189.6530  173.4340  137.2290 O   0  0  0  0  0  1  0  0  0  0  0  0
  188.3780  174.7940  135.7600 C   0  0  0  0  0  1  0  0  0  0  0  0
  188.3480  173.7970  136.8960 C   0  0  1  0  0  3  0  0  0  0  0  0
  1  8  2  0  0  0  0
  2  3  1  0  0  0  0
  2 17  2  0  0  0  0
  4 19  1  0  0  0  0
  5 15  1  0  0  0  0
  5 14  1  0  0  0  0
  6  2  1  0  0  0  0
  7  6  1  0  0  0  0
  8  9  1  0  0  0  0
  9 13  1  0  0  0  0
  9  3  2  0  0  0  0
 11 37  1  6  0  0  0
 11 16  1  0  0  0  0
 12  5  2  0  0  0  0
 14 11  1  0  0  0  0
 15  1  1  0  0  0  0
 16 10  2  0  0  0  0
 16  7  1  0  0  0  0
 18  4  2  0  0  0  0
 18 12  1  0  0  0  0
 19 23  1  0  0  0  0
 19 15  2  0  0  0  0
 20 21  1  0  0  0  0
 22 24  1  0  0  0  0
 22 23  2  0  0  0  0
 23 25  1  0  0  0  0
 24 20  2  0  0  0  0
 25 21  2  0  0  0  0
 26 28  2  0  0  0  0
 27 28  1  0  0  0  0
 28 24  1  0  0  0  0
 29 31  1  0  0  0  0
 30 29  1  0  0  0  0
 31 32  1  1  0  0  0
 33 31  1  0  0  0  0
 34  3  1  6  0  0  0
 34 30  1  0  0  0  0
 34 33  1  0  0  0  0
 35 37  2  0  0  0  0
 36 38  1  0  0  0  0
 38 41  1  0  0  0  0
 38 35  2  0  0  0  0
 39 42  1  0  0  0  0
 39 41  1  0  0  0  0
 41 40  2  0  0  0  0
 42 46  1  6  0  0  0
 44 45  1  0  0  0  0
 45 43  1  0  0  0  0
 45 42  1  0  0  0  0
 47 50  1  0  0  0  0
 47 46  1  0  0  0  0
 50 49  1  6  0  0  0
 50 48  1  0  0  0  0
M  END
>  <MODEL>
4

>  <REMARK>
 VINA RESULT:      -7.9      2.525      6.690
  Name = 
  10 active torsions:
  status: ('A' for Active; 'I' for Inactive)
    1  A    between atoms: N_3  and  C_13
    2  A    between atoms: C_9  and  C_50
    3  A    between atoms: C_13  and  C_27
    4  A    between atoms: C_13  and  C_45
    5  A    between atoms: C_20  and  C_24
    6  A    between atoms: C_27  and  S_39
    7  A    between atoms: C_30  and  C_49
    8  A    between atoms: C_35  and  C_40
    9  A    between atoms: C_36  and  C_37
   10  A    between atoms: S_39  and  C_48
                            x       y       z     vdW  Elec       q    Type
                         _______ _______ _______ _____ _____    ______ ____

>  <TORSDO>
F 10

$$$$
=
 OpenBabel10232411193D

 50 53  0  0  1  0  0  0  0  0999 V2000
  185.8910  178.6950  140.9540 C   0  0  0  0  0  3  0  0  0  0  0  0
  188.5630  177.1490  143.8190 C   0  0  0  0  0  0  0  0  0  0  0  0
  187.4540  178.0520  144.2380 C   0  0  0  0  0  0  0  0  0  0  0  0
  184.8840  177.9130  137.3850 C   0  0  0  0  0  3  0  0  0  0  0  0
  187.1640  177.6950  139.0020 C   0  0  0  0  0  0  0  0  0  0  0  0
  189.1530  177.3230  142.5680 O   0  0  0  0  0  0  0  0  0  0  0  0
  190.0350  176.3840  141.9750 C   0  0  0  0  0  2  0  0  0  0  0  0
  186.6920  178.2280  141.9040 C   0  0  0  0  0  3  0  0  0  0  0  0
  186.6110  178.6020  143.3300 C   0  0  0  0  0  0  0  0  0  0  0  0
  191.4620  177.8030  140.6410 C   0  0  0  0  0  2  0  0  0  0  0  0
  189.4830  176.8410  139.4920 C   0  0  2  0  0  3  0  0  0  0  0  0
  187.1650  177.2090  137.6880 C   0  0  0  0  0  3  0  0  0  0  0  0
  185.5220  179.5380  143.7650 C   0  0  0  0  0  1  0  0  0  0  0  0
  188.3440  177.6630  139.7680 O   0  0  0  0  0  0  0  0  0  0  0  0
  185.9730  178.2600  139.5390 C   0  0  0  0  0  0  0  0  0  0  0  0
  190.4620  176.9170  140.6460 C   0  0  0  0  0  0  0  0  0  0  0  0
  188.9870  176.2530  144.6000 O   0  0  0  0  0  0  0  0  0  0  0  0
  186.0360  177.3180  136.8830 C   0  0  0  0  0  3  0  0  0  0  0  0
  184.8270  178.3860  138.7040 C   0  0  0  0  0  0  0  0  0  0  0  0
  181.0730  180.0470  139.9760 C   0  0  0  0  0  3  0  0  0  0  0  0
  181.6490  180.4520  138.7690 C   0  0  0  0  0  3  0  0  0  0  0  0
  182.9410  178.5630  140.3660 C   0  0  0  0  0  3  0  0  0  0  0  0
  183.5400  178.9720  139.1640 C   0  0  0  0  0  0  0  0  0  0  0  0
  181.7160  179.0990  140.7810 C   0  0  0  0  0  0  0  0  0  0  0  0
  182.8740  179.9140  138.3650 C   0  0  0  0  0  3  0  0  0  0  0  0
  179.9820  177.8610  142.0540 O   0  0  0  0  0  0  0  0  0  0  0  0
  181.6230  179.0170  143.1520 O   0  0  0  0  0  1  0  0  0  0  0  0
  181.1160  178.6650  142.0530 C   0  0  0  0  0  0  0  0  0  0  0  0
  186.9070  177.2160  147.8000 C   0  0  0  0  0  2  0  0  0  0  0  0
  186.3960  177.2850  146.3800 C   0  0  0  0  0  2  0  0  0  0  0  0
  188.3810  177.5580  147.7160 C   0  0  2  0  0  3  0  0  0  0  0  0
  188.7640  178.2780  148.8460 O   0  0  0  0  0  1  0  0  0  0  0  0
  188.5610  178.4110  146.4730 C   0  0  0  0  0  2  0  0  0  0  0  0
  187.2500  178.3400  145.7070 C   0  0  1  0  0  3  0  0  0  0  0  0
  191.2660  176.6870  137.8340 C   0  0  0  0  0  0  0  0  0  0  0  0
  193.4830  177.0160  137.2160 O   0  0  0  0  0  1  0  0  0  0  0  0
  190.1150  177.1960  138.1750 C   0  0  0  0  0  3  0  0  0  0  0  0
  192.4170  176.1710  137.4980 C   0  0  0  0  0  0  0  0  0  0  0  0
  193.8570  174.1840  136.9950 N   0  0  0  0  0  2  0  0  0  0  0  0
  191.6530  173.9330  137.7190 O   0  0  0  0  0  0  0  0  0  0  0  0
  192.5990  174.7130  137.4190 C   0  0  0  0  0  0  0  0  0  0  0  0
  194.1250  172.7520  136.9160 C   0  0  1  0  0  3  0  0  0  0  0  0
  195.5170  172.3050  134.8820 C   0  0  0  0  0  1  0  0  0  0  0  0
  193.5290  170.8760  135.3140 C   0  0  0  0  0  1  0  0  0  0  0  0
  194.1160  172.2710  135.4620 C   0  0  0  0  0  3  0  0  0  0  0  0
  195.4490  172.4280  137.5990 C   0  0  0  0  0  2  0  0  0  0  0  0
  195.9740  173.8090  138.6600 S   0  0  0  0  0  0  0  0  0  0  0  0
  197.9840  175.4020  138.0480 O   0  0  0  0  0  1  0  0  0  0  0  0
  198.2700  173.1510  137.3500 C   0  0  0  0  0  1  0  0  0  0  0  0
  197.3040  174.3020  137.5240 C   0  0  1  0  0  3  0  0  0  0  0  0
  1  8  2  0  0  0  0
  2  3  1  0  0  0  0
  2 17  2  0  0  0  0
  4 19  1  0  0  0  0
  5 15  1  0  0  0  0
  5 14  1  0  0  0  0
  6  2  1  0  0  0  0
  7  6  1  0  0  0  0
  8  9  1  0  0  0  0
  9 13  1  0  0  0  0
  9  3  2  0  0  0  0
 10 16  2  0  0  0  0
 11 37  1  6  0  0  0
 11 14  1  0  0  0  0
 11 16  1  0  0  0  0
 12  5  2  0  0  0  0
 15  1  1  0  0  0  0
 16  7  1  0  0  0  0
 18  4  2  0  0  0  0
 18 12  1  0  0  0  0
 19 23  1  0  0  0  0
 19 15  2  0  0  0  0
 20 24  1  0  0  0  0
 21 20  2  0  0  0  0
 22 24  2  0  0  0  0
 23 22  1  0  0  0  0
 24 28  1  0  0  0  0
 25 21  1  0  0  0  0
 25 23  2  0  0  0  0
 28 26  2  0  0  0  0
 28 27  1  0  0  0  0
 30 29  1  0  0  0  0
 31 29  1  0  0  0  0
 31 32  1  1  0  0  0
 33 31  1  0  0  0  0
 34  3  1  6  0  0  0
 34 30  1  0  0  0  0
 34 33  1  0  0  0  0
 35 37  2  0  0  0  0
 36 38  1  0  0  0  0
 38 35  2  0  0  0  0
 39 41  1  0  0  0  0
 41 38  1  0  0  0  0
 41 40  2  0  0  0  0
 42 39  1  0  0  0  0
 42 46  1  6  0  0  0
 43 45  1  0  0  0  0
 44 45  1  0  0  0  0
 45 42  1  0  0  0  0
 46 47  1  0  0  0  0
 50 49  1  1  0  0  0
 50 48  1  0  0  0  0
 50 47  1  0  0  0  0
M  END
>  <MODEL>
5

>  <REMARK>
 VINA RESULT:      -7.8      3.787      9.809
  Name = 
  10 active torsions:
  status: ('A' for Active; 'I' for Inactive)
    1  A    between atoms: N_3  and  C_13
    2  A    between atoms: C_9  and  C_50
    3  A    between atoms: C_13  and  C_27
    4  A    between atoms: C_13  and  C_45
    5  A    between atoms: C_20  and  C_24
    6  A    between atoms: C_27  and  S_39
    7  A    between atoms: C_30  and  C_49
    8  A    between atoms: C_35  and  C_40
    9  A    between atoms: C_36  and  C_37
   10  A    between atoms: S_39  and  C_48
                            x       y       z     vdW  Elec       q    Type
                         _______ _______ _______ _____ _____    ______ ____

>  <TORSDO>
F 10

$$$$
=
 OpenBabel10232411193D

 50 53  0  0  1  0  0  0  0  0999 V2000
  190.7200  177.3550  139.8690 C   0  0  0  0  0  3  0  0  0  0  0  0
  192.2170  175.0640  136.6670 C   0  0  0  0  0  0  0  0  0  0  0  0
  193.1170  175.4720  137.7830 C   0  0  0  0  0  0  0  0  0  0  0  0
  187.3270  178.2280  141.3140 C   0  0  0  0  0  3  0  0  0  0  0  0
  188.4320  177.6210  138.8100 C   0  0  0  0  0  0  0  0  0  0  0  0
  191.1710  175.9040  136.2890 O   0  0  0  0  0  0  0  0  0  0  0  0
  190.1220  175.5120  135.4190 C   0  0  0  0  0  2  0  0  0  0  0  0
  191.2460  176.6210  138.8950 C   0  0  0  0  0  3  0  0  0  0  0  0
  192.6720  176.2510  138.7990 C   0  0  0  0  0  0  0  0  0  0  0  0
  189.5480  177.5980  134.3460 C   0  0  0  0  0  2  0  0  0  0  0  0
  188.2420  177.0070  136.3730 C   0  0  2  0  0  3  0  0  0  0  0  0
  187.0530  177.8290  138.9570 C   0  0  0  0  0  3  0  0  0  0  0  0
  193.6010  176.6830  139.8960 C   0  0  0  0  0  1  0  0  0  0  0  0
  188.9810  177.4100  137.5320 O   0  0  0  0  0  0  0  0  0  0  0  0
  189.2730  177.6670  139.9560 C   0  0  0  0  0  0  0  0  0  0  0  0
  189.1990  176.6740  135.2460 C   0  0  0  0  0  0  0  0  0  0  0  0
  192.4160  173.9820  136.0500 O   0  0  0  0  0  0  0  0  0  0  0  0
  186.5040  178.1320  140.1980 C   0  0  0  0  0  3  0  0  0  0  0  0
  188.7070  177.9980  141.2200 C   0  0  0  0  0  0  0  0  0  0  0  0
  191.0030  178.3240  144.8380 C   0  0  0  0  0  3  0  0  0  0  0  0
  191.5540  178.7180  143.6170 C   0  0  0  0  0  3  0  0  0  0  0  0
  188.9550  177.7080  143.7110 C   0  0  0  0  0  3  0  0  0  0  0  0
  189.5010  178.0850  142.4750 C   0  0  0  0  0  0  0  0  0  0  0  0
  189.6980  177.8170  144.8930 C   0  0  0  0  0  0  0  0  0  0  0  0
  190.8060  178.6030  142.4430 C   0  0  0  0  0  3  0  0  0  0  0  0
  189.8740  176.7020  147.1030 O   0  0  0  0  0  1  0  0  0  0  0  0
  187.9090  177.6740  146.4460 O   0  0  0  0  0  0  0  0  0  0  0  0
  189.1090  177.4010  146.1750 C   0  0  0  0  0  0  0  0  0  0  0  0
  195.8570  173.0230  137.3640 C   0  0  0  0  0  2  0  0  0  0  0  0
  194.6460  173.5120  138.1220 C   0  0  0  0  0  2  0  0  0  0  0  0
  195.9310  173.8860  136.1200 C   0  0  2  0  0  3  0  0  0  0  0  0
  197.2640  174.1220  135.7870 O   0  0  0  0  0  1  0  0  0  0  0  0
  195.2430  175.1970  136.4570 C   0  0  0  0  0  2  0  0  0  0  0  0
  194.5470  174.9880  137.7930 C   0  0  1  0  0  3  0  0  0  0  0  0
  185.9510  177.7630  136.0090 C   0  0  0  0  0  0  0  0  0  0  0  0
  183.9240  177.5950  134.8840 O   0  0  0  0  0  1  0  0  0  0  0  0
  187.2250  178.0420  135.9800 C   0  0  0  0  0  3  0  0  0  0  0  0
  184.6780  177.4780  136.0440 C   0  0  0  0  0  0  0  0  0  0  0  0
  183.2320  177.9500  138.0350 N   0  0  0  0  0  2  0  0  0  0  0  0
  184.1960  175.8510  137.7060 O   0  0  0  0  0  0  0  0  0  0  0  0
  184.0360  177.0320  137.2910 C   0  0  0  0  0  0  0  0  0  0  0  0
  182.5420  177.5780  139.2650 C   0  0  1  0  0  3  0  0  0  0  0  0
  181.1740  179.2300  140.5590 C   0  0  0  0  0  1  0  0  0  0  0  0
  183.2490  178.3240  141.5850 C   0  0  0  0  0  1  0  0  0  0  0  0
  182.5760  178.7240  140.2810 C   0  0  0  0  0  3  0  0  0  0  0  0
  181.1100  177.1530  138.9550 C   0  0  0  0  0  2  0  0  0  0  0  0
  180.8210  175.4420  139.4990 S   0  0  0  0  0  0  0  0  0  0  0  0
  180.3540  175.9800  136.9610 O   0  0  0  0  0  1  0  0  0  0  0  0
  181.3100  173.8420  137.3500 C   0  0  0  0  0  1  0  0  0  0  0  0
  180.3370  174.8930  137.8370 C   0  0  1  0  0  3  0  0  0  0  0  0
  1 15  1  0  0  0  0
  2  3  1  0  0  0  0
  3  9  2  0  0  0  0
  5 12  2  0  0  0  0
  5 15  1  0  0  0  0
  6  2  1  0  0  0  0
  7  6  1  0  0  0  0
  8  1  2  0  0  0  0
  9  8  1  0  0  0  0
  9 13  1  0  0  0  0
 10 16  2  0  0  0  0
 11 37  1  6  0  0  0
 11 14  1  0  0  0  0
 12 18  1  0  0  0  0
 14  5  1  0  0  0  0
 15 19  2  0  0  0  0
 16  7  1  0  0  0  0
 16 11  1  0  0  0  0
 17  2  2  0  0  0  0
 18  4  2  0  0  0  0
 19  4  1  0  0  0  0
 19 23  1  0  0  0  0
 20 24  1  0  0  0  0
 21 20  2  0  0  0  0
 22 24  2  0  0  0  0
 23 22  1  0  0  0  0
 24 28  1  0  0  0  0
 25 23  2  0  0  0  0
 25 21  1  0  0  0  0
 28 27  2  0  0  0  0
 28 26  1  0  0  0  0
 29 30  1  0  0  0  0
 31 32  1  1  0  0  0
 31 33  1  0  0  0  0
 31 29  1  0  0  0  0
 33 34  1  0  0  0  0
 34  3  1  6  0  0  0
 34 30  1  0  0  0  0
 35 38  2  0  0  0  0
 36 38  1  0  0  0  0
 37 35  2  0  0  0  0
 38 41  1  0  0  0  0
 39 42  1  0  0  0  0
 41 40  2  0  0  0  0
 41 39  1  0  0  0  0
 42 46  1  6  0  0  0
 42 45  1  0  0  0  0
 45 43  1  0  0  0  0
 45 44  1  0  0  0  0
 46 47  1  0  0  0  0
 48 50  1  0  0  0  0
 50 49  1  6  0  0  0
 50 47  1  0  0  0  0
M  END
>  <MODEL>
6

>  <REMARK>
 VINA RESULT:      -7.6      2.286      4.036
  Name = 
  10 active torsions:
  status: ('A' for Active; 'I' for Inactive)
    1  A    between atoms: N_3  and  C_13
    2  A    between atoms: C_9  and  C_50
    3  A    between atoms: C_13  and  C_27
    4  A    between atoms: C_13  and  C_45
    5  A    between atoms: C_20  and  C_24
    6  A    between atoms: C_27  and  S_39
    7  A    between atoms: C_30  and  C_49
    8  A    between atoms: C_35  and  C_40
    9  A    between atoms: C_36  and  C_37
   10  A    between atoms: S_39  and  C_48
                            x       y       z     vdW  Elec       q    Type
                         _______ _______ _______ _____ _____    ______ ____

>  <TORSDO>
F 10

$$$$
=
 OpenBabel10232411193D

 50 53  0  0  1  0  0  0  0  0999 V2000
  185.1640  178.7840  140.6030 C   0  0  0  0  0  3  0  0  0  0  0  0
  188.2910  177.1800  142.9250 C   0  0  0  0  0  0  0  0  0  0  0  0
  187.2710  178.0670  143.5510 C   0  0  0  0  0  0  0  0  0  0  0  0
  183.5580  178.0860  137.2420 C   0  0  0  0  0  3  0  0  0  0  0  0
  186.0820  177.8390  138.4360 C   0  0  0  0  0  0  0  0  0  0  0  0
  188.6560  177.3880  141.5950 O   0  0  0  0  0  0  0  0  0  0  0  0
  189.4230  176.4690  140.8360 C   0  0  0  0  0  2  0  0  0  0  0  0
  186.1180  178.2970  141.3890 C   0  0  0  0  0  3  0  0  0  0  0  0
  186.2830  178.6350  142.8160 C   0  0  0  0  0  0  0  0  0  0  0  0
  190.5990  177.9270  139.3120 C   0  0  0  0  0  2  0  0  0  0  0  0
  188.4520  176.9840  138.4970 C   0  0  2  0  0  3  0  0  0  0  0  0
  185.8570  177.3860  137.1290 C   0  0  0  0  0  3  0  0  0  0  0  0
  185.2850  179.5540  143.4560 C   0  0  0  0  0  1  0  0  0  0  0  0
  187.3770  177.7940  138.9870 O   0  0  0  0  0  0  0  0  0  0  0  0
  185.0010  178.3840  139.1840 C   0  0  0  0  0  0  0  0  0  0  0  0
  189.6150  177.0370  139.4670 C   0  0  0  0  0  0  0  0  0  0  0  0
  188.8430  176.2670  143.5970 O   0  0  0  0  0  0  0  0  0  0  0  0
  184.6070  177.5090  136.5340 C   0  0  0  0  0  3  0  0  0  0  0  0
  183.7280  178.5250  138.5620 C   0  0  0  0  0  0  0  0  0  0  0  0
  180.2490  180.1350  140.5050 C   0  0  0  0  0  3  0  0  0  0  0  0
  180.5960  180.5570  139.2190 C   0  0  0  0  0  3  0  0  0  0  0  0
  182.1690  178.6660  140.5370 C   0  0  0  0  0  3  0  0  0  0  0  0
  182.5390  179.0940  139.2530 C   0  0  0  0  0  0  0  0  0  0  0  0
  181.0340  179.1850  141.1710 C   0  0  0  0  0  0  0  0  0  0  0  0
  181.7330  180.0360  138.5960 C   0  0  0  0  0  3  0  0  0  0  0  0
  181.0940  179.4540  143.6370 O   0  0  0  0  0  1  0  0  0  0  0  0
  179.9840  177.6930  142.6890 O   0  0  0  0  0  0  0  0  0  0  0  0
  180.6750  178.7330  142.5250 C   0  0  0  0  0  0  0  0  0  0  0  0
  187.1650  177.1560  147.1350 C   0  0  0  0  0  2  0  0  0  0  0  0
  186.4600  177.3390  145.8110 C   0  0  0  0  0  2  0  0  0  0  0  0
  188.6400  177.3330  146.8350 C   0  0  2  0  0  3  0  0  0  0  0  0
  189.2690  177.9600  147.9100 O   0  0  0  0  0  1  0  0  0  0  0  0
  188.7320  178.2100  145.5990 C   0  0  0  0  0  2  0  0  0  0  0  0
  187.3220  178.3170  145.0400 C   0  0  1  0  0  3  0  0  0  0  0  0
  188.8690  176.4880  136.1450 C   0  0  0  0  0  0  0  0  0  0  0  0
  190.0670  175.3640  134.5000 O   0  0  0  0  0  1  0  0  0  0  0  0
  188.8470  177.3750  137.1010 C   0  0  0  0  0  3  0  0  0  0  0  0
  188.8850  175.5950  135.1940 C   0  0  0  0  0  0  0  0  0  0  0  0
  187.6470  173.4210  135.0790 N   0  0  0  0  0  2  0  0  0  0  0  0
  186.6710  175.4120  134.3560 O   0  0  0  0  0  0  0  0  0  0  0  0
  187.6760  174.8310  134.8510 C   0  0  0  0  0  0  0  0  0  0  0  0
  186.4780  172.5980  134.7910 C   0  0  1  0  0  3  0  0  0  0  0  0
  188.0800  170.7830  135.4360 C   0  0  0  0  0  1  0  0  0  0  0  0
  185.7330  170.1740  134.8900 C   0  0  0  0  0  1  0  0  0  0  0  0
  186.8740  171.1320  134.5870 C   0  0  0  0  0  3  0  0  0  0  0  0
  185.4470  172.7420  135.9070 C   0  0  0  0  0  2  0  0  0  0  0  0
  183.8850  173.4020  135.2500 S   0  0  0  0  0  0  0  0  0  0  0  0
  183.6940  171.7950  137.3310 O   0  0  0  0  0  1  0  0  0  0  0  0
  181.8570  173.2730  137.0620 C   0  0  0  0  0  1  0  0  0  0  0  0
  182.8750  172.3930  136.3730 C   0  0  1  0  0  3  0  0  0  0  0  0
  1  8  2  0  0  0  0
  2  3  1  0  0  0  0
  2 17  2  0  0  0  0
  4 19  1  0  0  0  0
  5 14  1  0  0  0  0
  5 15  1  0  0  0  0
  6  2  1  0  0  0  0
  7  6  1  0  0  0  0
  8  9  1  0  0  0  0
  9 13  1  0  0  0  0
  9  3  2  0  0  0  0
 10 16  2  0  0  0  0
 11 37  1  6  0  0  0
 11 14  1  0  0  0  0
 11 16  1  0  0  0  0
 12  5  2  0  0  0  0
 15  1  1  0  0  0  0
 16  7  1  0  0  0  0
 18 12  1  0  0  0  0
 18  4  2  0  0  0  0
 19 15  2  0  0  0  0
 19 23  1  0  0  0  0
 20 24  1  0  0  0  0
 21 20  2  0  0  0  0
 22 24  2  0  0  0  0
 23 22  1  0  0  0  0
 24 28  1  0  0  0  0
 25 21  1  0  0  0  0
 25 23  2  0  0  0  0
 28 27  2  0  0  0  0
 28 26  1  0  0  0  0
 30 29  1  0  0  0  0
 31 29  1  0  0  0  0
 31 32  1  1  0  0  0
 33 31  1  0  0  0  0
 34  3  1  6  0  0  0
 34 33  1  0  0  0  0
 34 30  1  0  0  0  0
 35 37  2  0  0  0  0
 36 38  1  0  0  0  0
 38 35  2  0  0  0  0
 40 41  2  0  0  0  0
 41 39  1  0  0  0  0
 41 38  1  0  0  0  0
 42 39  1  0  0  0  0
 42 46  1  1  0  0  0
 45 42  1  0  0  0  0
 45 44  1  0  0  0  0
 45 43  1  0  0  0  0
 47 46  1  0  0  0  0
 47 50  1  0  0  0  0
 50 49  1  1  0  0  0
 50 48  1  0  0  0  0
M  END
>  <MODEL>
7

>  <REMARK>
 VINA RESULT:      -7.5      2.643      7.518
  Name = 
  10 active torsions:
  status: ('A' for Active; 'I' for Inactive)
    1  A    between atoms: N_3  and  C_13
    2  A    between atoms: C_9  and  C_50
    3  A    between atoms: C_13  and  C_27
    4  A    between atoms: C_13  and  C_45
    5  A    between atoms: C_20  and  C_24
    6  A    between atoms: C_27  and  S_39
    7  A    between atoms: C_30  and  C_49
    8  A    between atoms: C_35  and  C_40
    9  A    between atoms: C_36  and  C_37
   10  A    between atoms: S_39  and  C_48
                            x       y       z     vdW  Elec       q    Type
                         _______ _______ _______ _____ _____    ______ ____

>  <TORSDO>
F 10

$$$$
=
 OpenBabel10232411193D

 50 53  0  0  1  0  0  0  0  0999 V2000
  190.6920  177.3670  139.9460 C   0  0  0  0  0  3  0  0  0  0  0  0
  192.1260  175.1320  136.6770 C   0  0  0  0  0  0  0  0  0  0  0  0
  193.0520  175.5410  137.7710 C   0  0  0  0  0  0  0  0  0  0  0  0
  187.3300  178.1780  141.4980 C   0  0  0  0  0  3  0  0  0  0  0  0
  188.3700  177.6140  138.9560 C   0  0  0  0  0  0  0  0  0  0  0  0
  191.0580  175.9620  136.3380 O   0  0  0  0  0  0  0  0  0  0  0  0
  189.9890  175.5650  135.4950 C   0  0  0  0  0  2  0  0  0  0  0  0
  191.1990  176.6510  138.9490 C   0  0  0  0  0  3  0  0  0  0  0  0
  192.6260  176.3010  138.8080 C   0  0  0  0  0  0  0  0  0  0  0  0
  189.3580  177.6550  134.4620 C   0  0  0  0  0  2  0  0  0  0  0  0
  188.1190  177.0250  136.5190 C   0  0  2  0  0  3  0  0  0  0  0  0
  186.9940  177.8010  139.1460 C   0  0  0  0  0  3  0  0  0  0  0  0
  193.5800  176.7340  139.8830 C   0  0  0  0  0  1  0  0  0  0  0  0
  188.8860  177.4250  137.6610 O   0  0  0  0  0  0  0  0  0  0  0  0
  189.2440  177.6590  140.0790 C   0  0  0  0  0  0  0  0  0  0  0  0
  189.0460  176.7170  135.3610 C   0  0  0  0  0  0  0  0  0  0  0  0
  192.3210  174.0600  136.0420 O   0  0  0  0  0  0  0  0  0  0  0  0
  186.4760  178.0830  140.4050 C   0  0  0  0  0  3  0  0  0  0  0  0
  188.7100  177.9680  141.3620 C   0  0  0  0  0  0  0  0  0  0  0  0
  191.1050  178.2850  144.9160 C   0  0  0  0  0  3  0  0  0  0  0  0
  191.6170  178.6950  143.6830 C   0  0  0  0  0  3  0  0  0  0  0  0
  189.0320  177.6600  143.8420 C   0  0  0  0  0  3  0  0  0  0  0  0
  189.5390  178.0520  142.5940 C   0  0  0  0  0  0  0  0  0  0  0  0
  189.8070  177.7660  145.0030 C   0  0  0  0  0  0  0  0  0  0  0  0
  190.8370  178.5820  142.5290 C   0  0  0  0  0  3  0  0  0  0  0  0
  187.9400  177.6200  146.6300 O   0  0  0  0  0  0  0  0  0  0  0  0
  189.9770  176.6980  147.1160 O   0  0  0  0  0  1  0  0  0  0  0  0
  189.2590  177.3330  146.2980 C   0  0  0  0  0  0  0  0  0  0  0  0
  195.8100  173.1280  137.2640 C   0  0  0  0  0  2  0  0  0  0  0  0
  194.6180  173.6020  138.0620 C   0  0  0  0  0  2  0  0  0  0  0  0
  195.8310  173.9900  136.0180 C   0  0  2  0  0  3  0  0  0  0  0  0
  197.1490  174.2440  135.6410 O   0  0  0  0  0  1  0  0  0  0  0  0
  195.1370  175.2920  136.3760 C   0  0  0  0  0  2  0  0  0  0  0  0
  194.4880  175.0760  137.7350 C   0  0  1  0  0  3  0  0  0  0  0  0
  185.8600  177.6830  135.8720 C   0  0  0  0  0  0  0  0  0  0  0  0
  184.1060  177.6500  134.3460 O   0  0  0  0  0  1  0  0  0  0  0  0
  187.0760  178.0490  136.1670 C   0  0  0  0  0  3  0  0  0  0  0  0
  184.6440  177.3090  135.5810 C   0  0  0  0  0  0  0  0  0  0  0  0
  183.6860  175.1240  136.3430 N   0  0  0  0  0  2  0  0  0  0  0  0
  183.2920  177.0980  137.5220 O   0  0  0  0  0  0  0  0  0  0  0  0
  183.8420  176.5310  136.5380 C   0  0  0  0  0  0  0  0  0  0  0  0
  182.9290  174.2780  137.2590 C   0  0  1  0  0  3  0  0  0  0  0  0
  181.5290  174.0200  135.1980 C   0  0  0  0  0  1  0  0  0  0  0  0
  180.9680  172.6680  137.2070 C   0  0  0  0  0  1  0  0  0  0  0  0
  181.5260  173.9940  136.7130 C   0  0  0  0  0  3  0  0  0  0  0  0
  183.6910  172.9850  137.5300 C   0  0  0  0  0  2  0  0  0  0  0  0
  185.4490  173.1810  137.1090 S   0  0  0  0  0  0  0  0  0  0  0  0
  186.5320  171.3420  135.5610 O   0  0  0  0  0  1  0  0  0  0  0  0
  184.2000  171.0740  135.9180 C   0  0  0  0  0  1  0  0  0  0  0  0
  185.3360  172.0480  135.6930 C   0  0  1  0  0  3  0  0  0  0  0  0
  1 15  1  0  0  0  0
  2  3  1  0  0  0  0
  3  9  2  0  0  0  0
  5 12  2  0  0  0  0
  5 15  1  0  0  0  0
  6  2  1  0  0  0  0
  7  6  1  0  0  0  0
  8  1  2  0  0  0  0
  9  8  1  0  0  0  0
  9 13  1  0  0  0  0
 10 16  2  0  0  0  0
 11 37  1  6  0  0  0
 11 14  1  0  0  0  0
 12 18  1  0  0  0  0
 14  5  1  0  0  0  0
 15 19  2  0  0  0  0
 16  7  1  0  0  0  0
 16 11  1  0  0  0  0
 17  2  2  0  0  0  0
 18  4  2  0  0  0  0
 19  4  1  0  0  0  0
 19 23  1  0  0  0  0
 20 24  1  0  0  0  0
 21 20  2  0  0  0  0
 22 24  2  0  0  0  0
 23 22  1  0  0  0  0
 24 28  1  0  0  0  0
 25 23  2  0  0  0  0
 25 21  1  0  0  0  0
 28 26  2  0  0  0  0
 28 27  1  0  0  0  0
 29 30  1  0  0  0  0
 31 32  1  1  0  0  0
 31 33  1  0  0  0  0
 31 29  1  0  0  0  0
 33 34  1  0  0  0  0
 34  3  1  6  0  0  0
 34 30  1  0  0  0  0
 35 37  2  0  0  0  0
 36 38  1  0  0  0  0
 38 35  2  0  0  0  0
 38 41  1  0  0  0  0
 39 41  1  0  0  0  0
 39 42  1  0  0  0  0
 41 40  2  0  0  0  0
 42 46  1  6  0  0  0
 43 45  1  0  0  0  0
 45 44  1  0  0  0  0
 45 42  1  0  0  0  0
 47 46  1  0  0  0  0
 48 50  1  0  0  0  0
 50 49  1  1  0  0  0
 50 47  1  0  0  0  0
M  END
>  <MODEL>
8

>  <REMARK>
 VINA RESULT:      -7.3      2.389      3.599
  Name = 
  10 active torsions:
  status: ('A' for Active; 'I' for Inactive)
    1  A    between atoms: N_3  and  C_13
    2  A    between atoms: C_9  and  C_50
    3  A    between atoms: C_13  and  C_27
    4  A    between atoms: C_13  and  C_45
    5  A    between atoms: C_20  and  C_24
    6  A    between atoms: C_27  and  S_39
    7  A    between atoms: C_30  and  C_49
    8  A    between atoms: C_35  and  C_40
    9  A    between atoms: C_36  and  C_37
   10  A    between atoms: S_39  and  C_48
                            x       y       z     vdW  Elec       q    Type
                         _______ _______ _______ _____ _____    ______ ____

>  <TORSDO>
F 10

$$$$
=
 OpenBabel10232411193D

 50 53  0  0  1  0  0  0  0  0999 V2000
  190.7570  177.4240  139.9930 C   0  0  0  0  0  3  0  0  0  0  0  0
  192.2980  175.2440  136.7350 C   0  0  0  0  0  0  0  0  0  0  0  0
  193.1950  175.6630  137.8490 C   0  0  0  0  0  0  0  0  0  0  0  0
  187.3520  178.1540  141.4870 C   0  0  0  0  0  3  0  0  0  0  0  0
  188.4500  177.6310  138.9610 C   0  0  0  0  0  0  0  0  0  0  0  0
  191.2190  176.0550  136.3820 O   0  0  0  0  0  0  0  0  0  0  0  0
  190.1750  175.6430  135.5160 C   0  0  0  0  0  2  0  0  0  0  0  0
  191.2970  176.7260  139.0000 C   0  0  0  0  0  3  0  0  0  0  0  0
  192.7340  176.4060  138.8840 C   0  0  0  0  0  0  0  0  0  0  0  0
  189.5210  177.7280  134.4870 C   0  0  0  0  0  2  0  0  0  0  0  0
  188.2560  177.0560  136.5160 C   0  0  2  0  0  3  0  0  0  0  0  0
  187.0670  177.7890  139.1260 C   0  0  0  0  0  3  0  0  0  0  0  0
  193.6590  176.8500  139.9790 C   0  0  0  0  0  1  0  0  0  0  0  0
  188.9940  177.4630  137.6740 O   0  0  0  0  0  0  0  0  0  0  0  0
  189.3010  177.6850  140.1000 C   0  0  0  0  0  0  0  0  0  0  0  0
  189.2120  176.7760  135.3730 C   0  0  0  0  0  0  0  0  0  0  0  0
  192.5260  174.1810  136.0950 O   0  0  0  0  0  0  0  0  0  0  0  0
  186.5200  178.0510  140.3770 C   0  0  0  0  0  3  0  0  0  0  0  0
  188.7370  177.9730  141.3760 C   0  0  0  0  0  0  0  0  0  0  0  0
  191.0660  178.3100  144.9720 C   0  0  0  0  0  3  0  0  0  0  0  0
  191.6410  178.5970  143.7310 C   0  0  0  0  0  3  0  0  0  0  0  0
  188.9730  177.7950  143.8780 C   0  0  0  0  0  3  0  0  0  0  0  0
  189.5410  178.0640  142.6240 C   0  0  0  0  0  0  0  0  0  0  0  0
  189.7270  177.9080  145.0530 C   0  0  0  0  0  0  0  0  0  0  0  0
  190.8810  178.4780  142.5650 C   0  0  0  0  0  3  0  0  0  0  0  0
  187.7410  177.7470  146.5310 O   0  0  0  0  0  0  0  0  0  0  0  0
  189.8220  177.2150  147.3200 O   0  0  0  0  0  1  0  0  0  0  0  0
  189.1130  177.6060  146.3550 C   0  0  0  0  0  0  0  0  0  0  0  0
  196.0010  173.2770  137.5060 C   0  0  0  0  0  2  0  0  0  0  0  0
  194.8050  173.7860  138.2750 C   0  0  0  0  0  2  0  0  0  0  0  0
  195.9950  174.0410  136.1970 C   0  0  2  0  0  3  0  0  0  0  0  0
  197.3040  174.2930  135.7910 O   0  0  0  0  0  1  0  0  0  0  0  0
  195.2750  175.3510  136.4600 C   0  0  0  0  0  2  0  0  0  0  0  0
  194.6410  175.2270  137.8370 C   0  0  1  0  0  3  0  0  0  0  0  0
  185.9880  177.6770  135.8660 C   0  0  0  0  0  0  0  0  0  0  0  0
  184.2300  177.5990  134.3470 O   0  0  0  0  0  1  0  0  0  0  0  0
  187.2000  178.0630  136.1510 C   0  0  0  0  0  3  0  0  0  0  0  0
  184.7750  177.2830  135.5850 C   0  0  0  0  0  0  0  0  0  0  0  0
  182.5670  176.6700  136.5960 N   0  0  0  0  0  2  0  0  0  0  0  0
  184.5550  175.7130  137.3530 O   0  0  0  0  0  0  0  0  0  0  0  0
  183.9870  176.5100  136.5560 C   0  0  0  0  0  0  0  0  0  0  0  0
  181.7130  175.9210  137.5100 C   0  0  1  0  0  3  0  0  0  0  0  0
  180.3830  173.8160  137.7840 C   0  0  0  0  0  1  0  0  0  0  0  0
  181.2200  174.4220  135.5230 C   0  0  0  0  0  1  0  0  0  0  0  0
  181.5040  174.4860  137.0160 C   0  0  0  0  0  3  0  0  0  0  0  0
  182.3030  175.9430  138.9160 C   0  0  0  0  0  2  0  0  0  0  0  0
  181.3370  177.0420  139.9960 S   0  0  0  0  0  0  0  0  0  0  0  0
  182.2180  179.5070  139.6830 O   0  0  0  0  0  1  0  0  0  0  0  0
  183.1360  178.3680  141.5530 C   0  0  0  0  0  1  0  0  0  0  0  0
  182.6780  178.2630  140.1150 C   0  0  1  0  0  3  0  0  0  0  0  0
  1 15  1  0  0  0  0
  2  3  1  0  0  0  0
  3  9  2  0  0  0  0
  5 12  2  0  0  0  0
  5 15  1  0  0  0  0
  6  2  1  0  0  0  0
  7  6  1  0  0  0  0
  8  1  2  0  0  0  0
  9  8  1  0  0  0  0
  9 13  1  0  0  0  0
 10 16  2  0  0  0  0
 11 37  1  6  0  0  0
 11 14  1  0  0  0  0
 12 18  1  0  0  0  0
 14  5  1  0  0  0  0
 15 19  2  0  0  0  0
 16  7  1  0  0  0  0
 16 11  1  0  0  0  0
 17  2  2  0  0  0  0
 18  4  2  0  0  0  0
 19  4  1  0  0  0  0
 19 23  1  0  0  0  0
 20 24  1  0  0  0  0
 21 20  2  0  0  0  0
 22 24  2  0  0  0  0
 23 22  1  0  0  0  0
 24 28  1  0  0  0  0
 25 23  2  0  0  0  0
 25 21  1  0  0  0  0
 28 26  2  0  0  0  0
 28 27  1  0  0  0  0
 29 30  1  0  0  0  0
 31 32  1  1  0  0  0
 31 33  1  0  0  0  0
 31 29  1  0  0  0  0
 33 34  1  0  0  0  0
 34  3  1  6  0  0  0
 34 30  1  0  0  0  0
 35 37  2  0  0  0  0
 36 38  1  0  0  0  0
 38 35  2  0  0  0  0
 38 41  1  0  0  0  0
 39 42  1  0  0  0  0
 41 39  1  0  0  0  0
 41 40  2  0  0  0  0
 42 46  1  1  0  0  0
 44 45  1  0  0  0  0
 45 42  1  0  0  0  0
 45 43  1  0  0  0  0
 46 47  1  0  0  0  0
 47 50  1  0  0  0  0
 48 50  1  0  0  0  0
 50 49  1  1  0  0  0
M  END
>  <MODEL>
9

>  <REMARK>
 VINA RESULT:      -7.0      2.285      3.901
  Name = 
  10 active torsions:
  status: ('A' for Active; 'I' for Inactive)
    1  A    between atoms: N_3  and  C_13
    2  A    between atoms: C_9  and  C_50
    3  A    between atoms: C_13  and  C_27
    4  A    between atoms: C_13  and  C_45
    5  A    between atoms: C_20  and  C_24
    6  A    between atoms: C_27  and  S_39
    7  A    between atoms: C_30  and  C_49
    8  A    between atoms: C_35  and  C_40
    9  A    between atoms: C_36  and  C_37
   10  A    between atoms: S_39  and  C_48
                            x       y       z     vdW  Elec       q    Type
                         _______ _______ _______ _____ _____    ______ ____

>  <TORSDO>
F 10

$$$$
