=
 OpenBabel10232409393D

 35 37  0  0  1  0  0  0  0  0999 V2000
  191.2360  176.6490  145.2130 C   0  0  0  0  0  0  0  0  0  0  0  0
  189.4810  177.2500  146.5420 C   0  0  0  0  0  0  0  0  0  0  0  0
  190.4450  176.9730  147.3570 N   0  0  0  0  0  0  0  0  0  0  0  0
  189.8150  177.0690  145.0980 C   0  0  1  0  0  3  0  0  0  0  0  0
  191.8330  175.9930  144.2870 N   0  0  0  0  0  2  0  0  0  0  0  0
  191.6340  176.5400  146.6440 C   0  0  0  0  0  2  0  0  0  0  0  0
  188.1980  177.6560  147.0240 N   0  0  0  0  0  2  0  0  0  0  0  0
  186.1900  178.1140  145.4240 C   0  0  0  0  0  0  0  0  0  0  0  0
  187.1210  177.9000  146.1590 C   0  0  0  0  0  0  0  0  0  0  0  0
  182.9060  178.8720  142.8710 C   0  0  0  0  0  3  0  0  0  0  0  0
  183.9300  178.9920  145.0610 C   0  0  0  0  0  3  0  0  0  0  0  0
  185.0760  178.3690  144.5580 C   0  0  0  0  0  0  0  0  0  0  0  0
  184.0530  178.2470  142.3590 C   0  0  0  0  0  0  0  0  0  0  0  0
  182.8440  179.2430  144.2180 C   0  0  0  0  0  3  0  0  0  0  0  0
  185.1350  178.0000  143.2110 C   0  0  0  0  0  3  0  0  0  0  0  0
  184.6370  178.0870  138.5220 C   0  0  0  0  0  1  0  0  0  0  0  0
  184.1530  177.8540  140.9840 N   0  0  0  0  0  2  0  0  0  0  0  0
  184.5810  178.6720  139.8870 C   0  0  0  0  0  0  0  0  0  0  0  0
  184.9100  179.8750  140.0560 O   0  0  0  0  0  0  0  0  0  0  0  0
  189.7430  178.3460  144.4080 N   0  0  0  0  0  2  0  0  0  0  0  0
  190.1890  178.1220  143.0980 N   0  0  0  0  0  2  0  0  0  0  0  0
  189.3040  177.1280  142.5100 C   0  0  2  0  0  3  0  0  0  0  0  0
  188.1440  178.7480  140.9560 C   0  0  0  0  0  2  0  0  0  0  0  0
  188.7770  178.0430  139.7580 C   0  0  2  0  0  3  0  0  0  0  0  0
  189.9710  176.4710  141.3000 C   0  0  0  0  0  2  0  0  0  0  0  0
  187.9680  177.7650  142.1130 C   0  0  0  0  0  2  0  0  0  0  0  0
  190.1320  177.4640  140.1490 C   0  0  0  0  0  2  0  0  0  0  0  0
  188.9520  178.9890  138.6690 N   0  0  0  0  0  2  0  0  0  0  0  0
  189.3020  178.2290  137.4760 C   0  0  0  0  0  2  0  0  0  0  0  0
  187.4220  178.1100  136.0370 O   0  0  0  0  0  1  0  0  0  0  0  0
  188.1190  177.3900  137.0080 C   0  0  1  0  0  3  0  0  0  0  0  0
  188.5840  176.0520  136.4310 C   0  0  1  0  0  3  0  0  0  0  0  0
  188.6410  176.1180  135.0370 O   0  0  0  0  0  1  0  0  0  0  0  0
  189.9390  175.6990  136.9580 C   0  0  0  0  0  3  0  0  0  0  0  0
  190.0600  174.8500  137.8260 O   0  0  0  0  0  0  0  0  0  0  0  0
  1  6  1  0  0  0  0
  2  7  1  0  0  0  0
  2  3  2  0  0  0  0
  4 20  1  6  0  0  0
  4  1  1  0  0  0  0
  4  2  1  0  0  0  0
  5  1  2  0  0  0  0
  6  3  1  0  0  0  0
  8  9  3  0  0  0  0
  9  7  1  0  0  0  0
 10 14  1  0  0  0  0
 12 11  1  0  0  0  0
 12  8  1  0  0  0  0
 13 10  2  0  0  0  0
 13 15  1  0  0  0  0
 14 11  2  0  0  0  0
 15 12  2  0  0  0  0
 16 18  1  0  0  0  0
 17 13  1  0  0  0  0
 18 19  2  0  0  0  0
 18 17  1  0  0  0  0
 21 20  1  0  0  0  0
 22 21  1  6  0  0  0
 23 26  1  0  0  0  0
 24 28  1  6  0  0  0
 24 27  1  0  0  0  0
 24 23  1  0  0  0  0
 25 22  1  0  0  0  0
 26 22  1  0  0  0  0
 27 25  1  0  0  0  0
 29 28  1  0  0  0  0
 31 30  1  6  0  0  0
 31 29  1  0  0  0  0
 32 33  1  6  0  0  0
 32 34  1  0  0  0  0
 32 31  1  0  0  0  0
 34 35  2  0  0  0  0
M  END
>  <MODEL>
1

>  <REMARK>
 VINA RESULT:      -8.7      0.000      0.000
  Name = 
  11 active torsions:
  status: ('A' for Active; 'I' for Inactive)
    1  A    between atoms: C_3  and  C_9
    2  A    between atoms: C_3  and  C_35
    3  A    between atoms: C_7  and  N_16
    4  A    between atoms: C_8  and  C_20
    5  A    between atoms: C_12  and  N_21
    6  A    between atoms: C_13  and  N_17
    7  A    between atoms: N_16  and  N_22
    8  A    between atoms: N_17  and  C_34
    9  A    between atoms: C_18  and  N_22
   10  A    between atoms: N_31  and  C_32
   11  A    between atoms: C_34  and  C_35
                            x       y       z     vdW  Elec       q    Type
                         _______ _______ _______ _____ _____    ______ ____

>  <TORSDO>
F 11

$$$$
=
 OpenBabel10232409393D

 35 37  0  0  1  0  0  0  0  0999 V2000
  191.0340  176.8650  145.5550 C   0  0  0  0  0  0  0  0  0  0  0  0
  189.1880  177.3840  146.7910 C   0  0  0  0  0  0  0  0  0  0  0  0
  190.1080  177.1090  147.6560 N   0  0  0  0  0  0  0  0  0  0  0  0
  189.6110  177.2520  145.3660 C   0  0  1  0  0  3  0  0  0  0  0  0
  191.7020  176.2510  144.6500 N   0  0  0  0  0  2  0  0  0  0  0  0
  191.3490  176.7270  147.0040 C   0  0  0  0  0  2  0  0  0  0  0  0
  187.8680  177.7440  147.2050 N   0  0  0  0  0  2  0  0  0  0  0  0
  185.9540  178.1830  145.4880 C   0  0  0  0  0  0  0  0  0  0  0  0
  186.8370  177.9840  146.2850 C   0  0  0  0  0  0  0  0  0  0  0  0
  182.8700  178.8620  142.6780 C   0  0  0  0  0  3  0  0  0  0  0  0
  183.7170  179.0210  144.9390 C   0  0  0  0  0  3  0  0  0  0  0  0
  184.9080  178.4120  144.5340 C   0  0  0  0  0  0  0  0  0  0  0  0
  184.0630  178.2510  142.2640 C   0  0  0  0  0  0  0  0  0  0  0  0
  182.6970  179.2460  144.0110 C   0  0  0  0  0  3  0  0  0  0  0  0
  185.0790  178.0300  143.2000 C   0  0  0  0  0  3  0  0  0  0  0  0
  184.8700  178.0830  138.4680 C   0  0  0  0  0  1  0  0  0  0  0  0
  184.2770  177.8460  140.9050 N   0  0  0  0  0  2  0  0  0  0  0  0
  184.6820  178.6830  139.8150 C   0  0  0  0  0  0  0  0  0  0  0  0
  184.8810  179.9150  139.9730 O   0  0  0  0  0  0  0  0  0  0  0  0
  189.5460  178.5450  144.7060 N   0  0  0  0  0  2  0  0  0  0  0  0
  189.8460  178.3240  143.3550 N   0  0  0  0  0  2  0  0  0  0  0  0
  188.7490  177.5490  142.7960 C   0  0  2  0  0  3  0  0  0  0  0  0
  188.8740  178.6000  140.5020 C   0  0  0  0  0  2  0  0  0  0  0  0
  189.3410  177.2660  139.9220 C   0  0  2  0  0  3  0  0  0  0  0  0
  189.2700  176.2380  142.2050 C   0  0  0  0  0  2  0  0  0  0  0  0
  188.0010  178.3630  141.7330 C   0  0  0  0  0  2  0  0  0  0  0  0
  190.1330  176.4910  140.9690 C   0  0  0  0  0  2  0  0  0  0  0  0
  190.1810  177.5030  138.7600 N   0  0  0  0  0  2  0  0  0  0  0  0
  191.4040  176.7320  138.9340 C   0  0  0  0  0  2  0  0  0  0  0  0
  193.4770  176.7820  137.7840 O   0  0  0  0  0  1  0  0  0  0  0  0
  192.1140  176.5420  137.5990 C   0  0  1  0  0  3  0  0  0  0  0  0
  191.9030  175.1280  137.0570 C   0  0  1  0  0  3  0  0  0  0  0  0
  192.8290  174.2480  137.6220 O   0  0  0  0  0  1  0  0  0  0  0  0
  190.5210  174.6480  137.3730 C   0  0  0  0  0  3  0  0  0  0  0  0
  190.2540  173.4600  137.3130 O   0  0  0  0  0  0  0  0  0  0  0  0
  1  6  1  0  0  0  0
  2  7  1  0  0  0  0
  2  3  2  0  0  0  0
  4 20  1  6  0  0  0
  4  1  1  0  0  0  0
  4  2  1  0  0  0  0
  5  1  2  0  0  0  0
  6  3  1  0  0  0  0
  8  9  3  0  0  0  0
  9  7  1  0  0  0  0
 10 14  1  0  0  0  0
 12 11  1  0  0  0  0
 12  8  1  0  0  0  0
 13 10  2  0  0  0  0
 13 15  1  0  0  0  0
 14 11  2  0  0  0  0
 15 12  2  0  0  0  0
 16 18  1  0  0  0  0
 17 13  1  0  0  0  0
 18 19  2  0  0  0  0
 18 17  1  0  0  0  0
 21 20  1  0  0  0  0
 22 21  1  6  0  0  0
 23 26  1  0  0  0  0
 24 28  1  6  0  0  0
 24 23  1  0  0  0  0
 24 27  1  0  0  0  0
 25 22  1  0  0  0  0
 26 22  1  0  0  0  0
 27 25  1  0  0  0  0
 28 29  1  0  0  0  0
 31 30  1  1  0  0  0
 31 29  1  0  0  0  0
 32 34  1  0  0  0  0
 32 31  1  0  0  0  0
 32 33  1  1  0  0  0
 35 34  2  0  0  0  0
M  END
>  <MODEL>
2

>  <REMARK>
 VINA RESULT:      -8.5      1.483      1.873
  Name = 
  11 active torsions:
  status: ('A' for Active; 'I' for Inactive)
    1  A    between atoms: C_3  and  C_9
    2  A    between atoms: C_3  and  C_35
    3  A    between atoms: C_7  and  N_16
    4  A    between atoms: C_8  and  C_20
    5  A    between atoms: C_12  and  N_21
    6  A    between atoms: C_13  and  N_17
    7  A    between atoms: N_16  and  N_22
    8  A    between atoms: N_17  and  C_34
    9  A    between atoms: C_18  and  N_22
   10  A    between atoms: N_31  and  C_32
   11  A    between atoms: C_34  and  C_35
                            x       y       z     vdW  Elec       q    Type
                         _______ _______ _______ _____ _____    ______ ____

>  <TORSDO>
F 11

$$$$
=
 OpenBabel10232409393D

 35 37  0  0  1  0  0  0  0  0999 V2000
  189.0330  177.3330  147.0590 C   0  0  0  0  0  0  0  0  0  0  0  0
  187.0660  178.4380  147.4030 C   0  0  0  0  0  0  0  0  0  0  0  0
  187.6920  178.5010  148.5310 N   0  0  0  0  0  0  0  0  0  0  0  0
  187.7860  177.6880  146.3310 C   0  0  1  0  0  3  0  0  0  0  0  0
  189.7780  176.3540  146.7020 N   0  0  0  0  0  2  0  0  0  0  0  0
  188.9650  177.8040  148.4700 C   0  0  0  0  0  2  0  0  0  0  0  0
  185.7690  179.0180  147.2420 N   0  0  0  0  0  2  0  0  0  0  0  0
  184.4190  178.8200  145.0200 C   0  0  0  0  0  0  0  0  0  0  0  0
  185.0460  178.9070  146.0460 C   0  0  0  0  0  0  0  0  0  0  0  0
  182.2020  178.5400  141.4310 C   0  0  0  0  0  3  0  0  0  0  0  0
  182.2940  178.9850  143.8070 C   0  0  0  0  0  3  0  0  0  0  0  0
  183.6680  178.7230  143.8020 C   0  0  0  0  0  0  0  0  0  0  0  0
  183.5800  178.2770  141.4170 C   0  0  0  0  0  0  0  0  0  0  0  0
  181.5610  178.8930  142.6220 C   0  0  0  0  0  3  0  0  0  0  0  0
  184.3070  178.3710  142.6090 C   0  0  0  0  0  3  0  0  0  0  0  0
  185.4600  178.2460  138.0180 C   0  0  0  0  0  1  0  0  0  0  0  0
  184.2720  177.9140  140.2140 N   0  0  0  0  0  2  0  0  0  0  0  0
  184.7450  178.8040  139.1960 C   0  0  0  0  0  0  0  0  0  0  0  0
  184.5690  180.0470  139.2790 O   0  0  0  0  0  0  0  0  0  0  0  0
  188.1070  178.5800  145.2300 N   0  0  0  0  0  2  0  0  0  0  0  0
  189.0000  177.8900  144.3990 N   0  0  0  0  0  2  0  0  0  0  0  0
  188.2050  177.0080  143.5580 C   0  0  2  0  0  3  0  0  0  0  0  0
  188.5870  178.3150  141.4300 C   0  0  0  0  0  2  0  0  0  0  0  0
  189.4050  177.1530  140.8700 C   0  0  2  0  0  3  0  0  0  0  0  0
  189.0730  175.8790  143.0010 C   0  0  0  0  0  2  0  0  0  0  0  0
  187.5460  177.7960  142.4210 C   0  0  0  0  0  2  0  0  0  0  0  0
  190.1030  176.4120  142.0050 C   0  0  0  0  0  2  0  0  0  0  0  0
  190.4010  177.6590  139.9390 N   0  0  0  0  0  2  0  0  0  0  0  0
  189.8140  177.6270  138.6060 C   0  0  0  0  0  2  0  0  0  0  0  0
  191.9500  176.6540  138.2710 O   0  0  0  0  0  1  0  0  0  0  0  0
  190.7310  176.8940  137.6340 C   0  0  1  0  0  3  0  0  0  0  0  0
  190.1110  175.5710  137.1790 C   0  0  1  0  0  3  0  0  0  0  0  0
  190.5560  174.5240  137.9880 O   0  0  0  0  0  1  0  0  0  0  0  0
  188.6180  175.6430  137.2520 C   0  0  0  0  0  3  0  0  0  0  0  0
  187.9690  175.9610  136.2690 O   0  0  0  0  0  0  0  0  0  0  0  0
  1  6  1  0  0  0  0
  2  3  2  0  0  0  0
  4 20  1  6  0  0  0
  4  1  1  0  0  0  0
  4  2  1  0  0  0  0
  5  1  2  0  0  0  0
  6  3  1  0  0  0  0
  7  2  1  0  0  0  0
  8  9  3  0  0  0  0
  9  7  1  0  0  0  0
 10 14  1  0  0  0  0
 12 11  1  0  0  0  0
 12  8  1  0  0  0  0
 13 10  2  0  0  0  0
 13 15  1  0  0  0  0
 14 11  2  0  0  0  0
 15 12  2  0  0  0  0
 16 18  1  0  0  0  0
 17 13  1  0  0  0  0
 18 19  2  0  0  0  0
 18 17  1  0  0  0  0
 21 20  1  0  0  0  0
 22 21  1  6  0  0  0
 23 26  1  0  0  0  0
 24 28  1  6  0  0  0
 24 23  1  0  0  0  0
 24 27  1  0  0  0  0
 25 22  1  0  0  0  0
 26 22  1  0  0  0  0
 27 25  1  0  0  0  0
 29 28  1  0  0  0  0
 31 30  1  1  0  0  0
 31 29  1  0  0  0  0
 32 34  1  0  0  0  0
 32 31  1  0  0  0  0
 32 33  1  1  0  0  0
 35 34  2  0  0  0  0
M  END
>  <MODEL>
3

>  <REMARK>
 VINA RESULT:      -8.2      1.466      2.289
  Name = 
  11 active torsions:
  status: ('A' for Active; 'I' for Inactive)
    1  A    between atoms: C_3  and  C_9
    2  A    between atoms: C_3  and  C_35
    3  A    between atoms: C_7  and  N_16
    4  A    between atoms: C_8  and  C_20
    5  A    between atoms: C_12  and  N_21
    6  A    between atoms: C_13  and  N_17
    7  A    between atoms: N_16  and  N_22
    8  A    between atoms: N_17  and  C_34
    9  A    between atoms: C_18  and  N_22
   10  A    between atoms: N_31  and  C_32
   11  A    between atoms: C_34  and  C_35
                            x       y       z     vdW  Elec       q    Type
                         _______ _______ _______ _____ _____    ______ ____

>  <TORSDO>
F 11

$$$$
=
 OpenBabel10232409393D

 35 37  0  0  1  0  0  0  0  0999 V2000
  190.9750  176.3240  144.2350 C   0  0  0  0  0  0  0  0  0  0  0  0
  189.4710  177.3130  145.6370 C   0  0  0  0  0  0  0  0  0  0  0  0
  190.5280  177.1190  146.3550 N   0  0  0  0  0  0  0  0  0  0  0  0
  189.5770  176.8300  144.2290 C   0  0  1  0  0  3  0  0  0  0  0  0
  191.3920  175.4550  143.3900 N   0  0  0  0  0  2  0  0  0  0  0  0
  191.5740  176.4610  145.5920 C   0  0  0  0  0  2  0  0  0  0  0  0
  188.2970  177.9090  146.1940 N   0  0  0  0  0  2  0  0  0  0  0  0
  186.1010  178.2120  144.8190 C   0  0  0  0  0  0  0  0  0  0  0  0
  187.1180  178.0690  145.4500 C   0  0  0  0  0  0  0  0  0  0  0  0
  182.5190  178.7220  142.6320 C   0  0  0  0  0  3  0  0  0  0  0  0
  183.7370  178.8530  144.7190 C   0  0  0  0  0  3  0  0  0  0  0  0
  184.8860  178.3840  144.0770 C   0  0  0  0  0  0  0  0  0  0  0  0
  183.6690  178.2520  141.9800 C   0  0  0  0  0  0  0  0  0  0  0  0
  182.5520  179.0220  143.9980 C   0  0  0  0  0  3  0  0  0  0  0  0
  184.8500  178.0860  142.7110 C   0  0  0  0  0  3  0  0  0  0  0  0
  184.1920  178.2100  138.1310 C   0  0  0  0  0  1  0  0  0  0  0  0
  183.6720  177.9360  140.5810 N   0  0  0  0  0  2  0  0  0  0  0  0
  184.2760  178.7020  139.5320 C   0  0  0  0  0  0  0  0  0  0  0  0
  184.8760  179.7830  139.7700 O   0  0  0  0  0  0  0  0  0  0  0  0
  189.4740  177.9510  143.3100 N   0  0  0  0  0  2  0  0  0  0  0  0
  189.1260  177.4190  142.0610 N   0  0  0  0  0  2  0  0  0  0  0  0
  189.7170  178.2810  141.0500 C   0  0  2  0  0  3  0  0  0  0  0  0
  190.4180  176.3940  139.5230 C   0  0  0  0  0  2  0  0  0  0  0  0
  189.3970  176.8600  138.4870 C   0  0  2  0  0  3  0  0  0  0  0  0
  188.6620  178.6980  140.0230 C   0  0  0  0  0  2  0  0  0  0  0  0
  190.8930  177.5790  140.3630 C   0  0  0  0  0  2  0  0  0  0  0  0
  188.2030  177.5050  139.1840 C   0  0  0  0  0  2  0  0  0  0  0  0
  188.9410  175.7250  137.7030 N   0  0  0  0  0  2  0  0  0  0  0  0
  187.5440  175.9570  137.3600 C   0  0  0  0  0  2  0  0  0  0  0  0
  186.7760  174.6940  135.5070 O   0  0  0  0  0  1  0  0  0  0  0  0
  187.3490  175.9200  135.8490 C   0  0  1  0  0  3  0  0  0  0  0  0
  186.4490  177.0650  135.3800 C   0  0  1  0  0  3  0  0  0  0  0  0
  187.1520  177.9130  134.5220 O   0  0  0  0  0  1  0  0  0  0  0  0
  185.2520  176.5270  134.6610 C   0  0  0  0  0  3  0  0  0  0  0  0
  184.1820  177.1090  134.7270 O   0  0  0  0  0  0  0  0  0  0  0  0
  1  6  1  0  0  0  0
  2  7  1  0  0  0  0
  2  3  2  0  0  0  0
  4 20  1  6  0  0  0
  4  1  1  0  0  0  0
  4  2  1  0  0  0  0
  5  1  2  0  0  0  0
  6  3  1  0  0  0  0
  8  9  3  0  0  0  0
  9  7  1  0  0  0  0
 10 14  1  0  0  0  0
 12 11  1  0  0  0  0
 12  8  1  0  0  0  0
 13 10  2  0  0  0  0
 13 15  1  0  0  0  0
 14 11  2  0  0  0  0
 15 12  2  0  0  0  0
 16 18  1  0  0  0  0
 17 13  1  0  0  0  0
 18 19  2  0  0  0  0
 18 17  1  0  0  0  0
 21 20  1  0  0  0  0
 22 21  1  1  0  0  0
 23 26  1  0  0  0  0
 24 28  1  1  0  0  0
 24 27  1  0  0  0  0
 24 23  1  0  0  0  0
 25 22  1  0  0  0  0
 26 22  1  0  0  0  0
 27 25  1  0  0  0  0
 29 28  1  0  0  0  0
 31 30  1  1  0  0  0
 31 29  1  0  0  0  0
 32 33  1  6  0  0  0
 32 31  1  0  0  0  0
 34 35  2  0  0  0  0
 34 32  1  0  0  0  0
M  END
>  <MODEL>
4

>  <REMARK>
 VINA RESULT:      -7.5      1.490      2.299
  Name = 
  11 active torsions:
  status: ('A' for Active; 'I' for Inactive)
    1  A    between atoms: C_3  and  C_9
    2  A    between atoms: C_3  and  C_35
    3  A    between atoms: C_7  and  N_16
    4  A    between atoms: C_8  and  C_20
    5  A    between atoms: C_12  and  N_21
    6  A    between atoms: C_13  and  N_17
    7  A    between atoms: N_16  and  N_22
    8  A    between atoms: N_17  and  C_34
    9  A    between atoms: C_18  and  N_22
   10  A    between atoms: N_31  and  C_32
   11  A    between atoms: C_34  and  C_35
                            x       y       z     vdW  Elec       q    Type
                         _______ _______ _______ _____ _____    ______ ____

>  <TORSDO>
F 11

$$$$
=
 OpenBabel10232409393D

 35 37  0  0  1  0  0  0  0  0999 V2000
  190.6610  176.4040  144.1270 C   0  0  0  0  0  0  0  0  0  0  0  0
  189.1140  177.3820  145.4900 C   0  0  0  0  0  0  0  0  0  0  0  0
  190.1510  177.1890  146.2370 N   0  0  0  0  0  0  0  0  0  0  0  0
  189.2620  176.9060  144.0830 C   0  0  1  0  0  3  0  0  0  0  0  0
  191.1040  175.5410  143.2910 N   0  0  0  0  0  2  0  0  0  0  0  0
  191.2200  176.5370  145.5010 C   0  0  0  0  0  2  0  0  0  0  0  0
  187.9230  177.9730  146.0160 N   0  0  0  0  0  2  0  0  0  0  0  0
  185.7660  178.2700  144.5800 C   0  0  0  0  0  0  0  0  0  0  0  0
  186.7650  178.1330  145.2400 C   0  0  0  0  0  0  0  0  0  0  0  0
  182.2410  178.7380  142.2920 C   0  0  0  0  0  3  0  0  0  0  0  0
  183.3990  178.8900  144.4120 C   0  0  0  0  0  3  0  0  0  0  0  0
  184.5700  178.4270  143.8040 C   0  0  0  0  0  0  0  0  0  0  0  0
  183.4130  178.2750  141.6740 C   0  0  0  0  0  0  0  0  0  0  0  0
  182.2340  179.0450  143.6560 C   0  0  0  0  0  3  0  0  0  0  0  0
  184.5750  178.1230  142.4390 C   0  0  0  0  0  3  0  0  0  0  0  0
  184.1180  178.1690  137.8560 C   0  0  0  0  0  1  0  0  0  0  0  0
  183.4580  177.9530  140.2780 N   0  0  0  0  0  2  0  0  0  0  0  0
  184.1740  178.6600  139.2580 C   0  0  0  0  0  0  0  0  0  0  0  0
  184.8490  179.6880  139.5240 O   0  0  0  0  0  0  0  0  0  0  0  0
  189.1820  178.0310  143.1670 N   0  0  0  0  0  2  0  0  0  0  0  0
  188.7630  177.5170  141.9320 N   0  0  0  0  0  2  0  0  0  0  0  0
  189.3380  178.3660  140.8990 C   0  0  2  0  0  3  0  0  0  0  0  0
  190.8600  176.5820  139.9600 C   0  0  0  0  0  2  0  0  0  0  0  0
  190.0390  176.5670  138.6720 C   0  0  2  0  0  3  0  0  0  0  0  0
  188.4960  178.2960  139.6240 C   0  0  0  0  0  2  0  0  0  0  0  0
  190.7880  177.9610  140.6140 C   0  0  0  0  0  2  0  0  0  0  0  0
  188.5860  176.9140  138.9760 C   0  0  0  0  0  2  0  0  0  0  0  0
  190.1040  175.2480  138.0650 N   0  0  0  0  0  2  0  0  0  0  0  0
  191.4850  175.0150  137.6630 C   0  0  0  0  0  2  0  0  0  0  0  0
  193.2650  176.3560  136.8560 O   0  0  0  0  0  1  0  0  0  0  0  0
  191.9240  176.0440  136.6290 C   0  0  1  0  0  3  0  0  0  0  0  0
  191.7470  175.5080  135.2070 C   0  0  1  0  0  3  0  0  0  0  0  0
  191.5250  174.1290  135.2320 O   0  0  0  0  0  1  0  0  0  0  0  0
  190.5880  176.1760  134.5370 C   0  0  0  0  0  3  0  0  0  0  0  0
  189.9330  177.0140  135.1340 O   0  0  0  0  0  0  0  0  0  0  0  0
  1  6  1  0  0  0  0
  2  7  1  0  0  0  0
  2  3  2  0  0  0  0
  4 20  1  6  0  0  0
  4  1  1  0  0  0  0
  4  2  1  0  0  0  0
  5  1  2  0  0  0  0
  6  3  1  0  0  0  0
  8  9  3  0  0  0  0
  9  7  1  0  0  0  0
 10 14  1  0  0  0  0
 12 11  1  0  0  0  0
 12  8  1  0  0  0  0
 13 10  2  0  0  0  0
 13 15  1  0  0  0  0
 14 11  2  0  0  0  0
 15 12  2  0  0  0  0
 16 18  1  0  0  0  0
 17 13  1  0  0  0  0
 18 19  2  0  0  0  0
 18 17  1  0  0  0  0
 21 20  1  0  0  0  0
 22 21  1  1  0  0  0
 23 26  1  0  0  0  0
 24 28  1  1  0  0  0
 24 27  1  0  0  0  0
 24 23  1  0  0  0  0
 25 22  1  0  0  0  0
 26 22  1  0  0  0  0
 27 25  1  0  0  0  0
 29 28  1  0  0  0  0
 31 30  1  1  0  0  0
 31 29  1  0  0  0  0
 32 33  1  1  0  0  0
 32 31  1  0  0  0  0
 34 35  2  0  0  0  0
 34 32  1  0  0  0  0
M  END
>  <MODEL>
5

>  <REMARK>
 VINA RESULT:      -7.5      1.609      2.376
  Name = 
  11 active torsions:
  status: ('A' for Active; 'I' for Inactive)
    1  A    between atoms: C_3  and  C_9
    2  A    between atoms: C_3  and  C_35
    3  A    between atoms: C_7  and  N_16
    4  A    between atoms: C_8  and  C_20
    5  A    between atoms: C_12  and  N_21
    6  A    between atoms: C_13  and  N_17
    7  A    between atoms: N_16  and  N_22
    8  A    between atoms: N_17  and  C_34
    9  A    between atoms: C_18  and  N_22
   10  A    between atoms: N_31  and  C_32
   11  A    between atoms: C_34  and  C_35
                            x       y       z     vdW  Elec       q    Type
                         _______ _______ _______ _____ _____    ______ ____

>  <TORSDO>
F 11

$$$$
=
 OpenBabel10232409393D

 35 37  0  0  1  0  0  0  0  0999 V2000
  192.7310  176.7150  138.9860 C   0  0  0  0  0  0  0  0  0  0  0  0
  191.0160  176.3770  137.5190 C   0  0  0  0  0  0  0  0  0  0  0  0
  192.0660  175.9050  136.9290 N   0  0  0  0  0  0  0  0  0  0  0  0
  191.2720  176.9690  138.8650 C   0  0  1  0  0  3  0  0  0  0  0  0
  193.4810  177.3920  139.7750 N   0  0  0  0  0  2  0  0  0  0  0  0
  193.2550  176.0810  137.7440 C   0  0  0  0  0  2  0  0  0  0  0  0
  189.7360  176.3520  136.8840 N   0  0  0  0  0  2  0  0  0  0  0  0
  187.6200  177.4060  137.9840 C   0  0  0  0  0  0  0  0  0  0  0  0
  188.5980  176.9150  137.4790 C   0  0  0  0  0  0  0  0  0  0  0  0
  184.1950  179.1550  139.7410 C   0  0  0  0  0  3  0  0  0  0  0  0
  185.2830  178.1320  137.8370 C   0  0  0  0  0  3  0  0  0  0  0  0
  186.4590  178.0000  138.5810 C   0  0  0  0  0  0  0  0  0  0  0  0
  185.3720  179.0240  140.4950 C   0  0  0  0  0  0  0  0  0  0  0  0
  184.1500  178.7100  138.4170 C   0  0  0  0  0  3  0  0  0  0  0  0
  186.5010  178.4450  139.9060 C   0  0  0  0  0  3  0  0  0  0  0  0
  184.8030  179.6840  144.2800 C   0  0  0  0  0  1  0  0  0  0  0  0
  185.4540  179.4670  141.8560 N   0  0  0  0  0  2  0  0  0  0  0  0
  184.5490  179.1420  142.9190 C   0  0  0  0  0  0  0  0  0  0  0  0
  183.5460  178.4090  142.7250 O   0  0  0  0  0  0  0  0  0  0  0  0
  190.5640  176.2110  139.8840 N   0  0  0  0  0  2  0  0  0  0  0  0
  190.0880  177.1400  140.8190 N   0  0  0  0  0  2  0  0  0  0  0  0
  190.7370  176.8400  142.0860 C   0  0  2  0  0  3  0  0  0  0  0  0
  189.2880  178.3910  143.4570 C   0  0  0  0  0  2  0  0  0  0  0  0
  188.6680  177.1830  144.1570 C   0  0  2  0  0  3  0  0  0  0  0  0
  190.0640  175.6430  142.7600 C   0  0  0  0  0  2  0  0  0  0  0  0
  190.7120  178.0650  143.0070 C   0  0  0  0  0  2  0  0  0  0  0  0
  188.6450  175.9870  143.2120 C   0  0  0  0  0  2  0  0  0  0  0  0
  187.3100  177.4990  144.5690 N   0  0  0  0  0  2  0  0  0  0  0  0
  187.1730  177.1160  145.9680 C   0  0  0  0  0  2  0  0  0  0  0  0
  186.3450  178.8650  147.3370 O   0  0  0  0  0  1  0  0  0  0  0  0
  187.5280  178.2840  146.8810 C   0  0  1  0  0  3  0  0  0  0  0  0
  188.3730  177.8190  148.0690 C   0  0  1  0  0  3  0  0  0  0  0  0
  187.8950  176.6000  148.5560 O   0  0  0  0  0  1  0  0  0  0  0  0
  189.8020  177.6540  147.6610 C   0  0  0  0  0  3  0  0  0  0  0  0
  190.2470  176.5450  147.4130 O   0  0  0  0  0  0  0  0  0  0  0  0
  1  5  2  0  0  0  0
  2  4  1  0  0  0  0
  3  2  2  0  0  0  0
  3  6  1  0  0  0  0
  4  1  1  0  0  0  0
  4 20  1  1  0  0  0
  6  1  1  0  0  0  0
  7  9  1  0  0  0  0
  7  2  1  0  0  0  0
  8 12  1  0  0  0  0
  9  8  3  0  0  0  0
 10 13  1  0  0  0  0
 11 14  1  0  0  0  0
 11 12  2  0  0  0  0
 12 15  1  0  0  0  0
 13 17  1  0  0  0  0
 14 10  2  0  0  0  0
 15 13  2  0  0  0  0
 17 18  1  0  0  0  0
 18 16  1  0  0  0  0
 19 18  2  0  0  0  0
 20 21  1  0  0  0  0
 22 21  1  6  0  0  0
 22 25  1  0  0  0  0
 22 26  1  0  0  0  0
 23 24  1  0  0  0  0
 24 28  1  6  0  0  0
 25 27  1  0  0  0  0
 26 23  1  0  0  0  0
 27 24  1  0  0  0  0
 28 29  1  0  0  0  0
 29 31  1  0  0  0  0
 31 30  1  1  0  0  0
 31 32  1  0  0  0  0
 32 33  1  6  0  0  0
 34 32  1  0  0  0  0
 35 34  2  0  0  0  0
M  END
>  <MODEL>
6

>  <REMARK>
 VINA RESULT:      -7.4      3.379      7.206
  Name = 
  11 active torsions:
  status: ('A' for Active; 'I' for Inactive)
    1  A    between atoms: C_3  and  C_9
    2  A    between atoms: C_3  and  C_35
    3  A    between atoms: C_7  and  N_16
    4  A    between atoms: C_8  and  C_20
    5  A    between atoms: C_12  and  N_21
    6  A    between atoms: C_13  and  N_17
    7  A    between atoms: N_16  and  N_22
    8  A    between atoms: N_17  and  C_34
    9  A    between atoms: C_18  and  N_22
   10  A    between atoms: N_31  and  C_32
   11  A    between atoms: C_34  and  C_35
                            x       y       z     vdW  Elec       q    Type
                         _______ _______ _______ _____ _____    ______ ____

>  <TORSDO>
F 11

$$$$
=
 OpenBabel10232409393D

 35 37  0  0  1  0  0  0  0  0999 V2000
  188.1540  177.2750  141.9240 C   0  0  0  0  0  0  0  0  0  0  0  0
  188.6990  177.9530  139.8140 C   0  0  0  0  0  0  0  0  0  0  0  0
  187.7720  178.7650  140.2030 N   0  0  0  0  0  0  0  0  0  0  0  0
  189.0570  176.8960  140.8060 C   0  0  1  0  0  3  0  0  0  0  0  0
  187.8010  176.4410  142.8310 N   0  0  0  0  0  2  0  0  0  0  0  0
  187.3010  178.4320  141.5360 C   0  0  0  0  0  2  0  0  0  0  0  0
  189.2830  178.0630  138.5140 N   0  0  0  0  0  2  0  0  0  0  0  0
  191.0630  176.3650  137.6490 C   0  0  0  0  0  0  0  0  0  0  0  0
  190.2440  177.1540  138.0490 C   0  0  0  0  0  0  0  0  0  0  0  0
  193.9160  173.5750  136.2540 C   0  0  0  0  0  3  0  0  0  0  0  0
  191.6190  174.3160  136.4230 C   0  0  0  0  0  3  0  0  0  0  0  0
  192.0310  175.4180  137.1770 C   0  0  0  0  0  0  0  0  0  0  0  0
  194.3380  174.6790  137.0100 C   0  0  0  0  0  0  0  0  0  0  0  0
  192.5610  173.3930  135.9610 C   0  0  0  0  0  3  0  0  0  0  0  0
  193.3870  175.5980  137.4680 C   0  0  0  0  0  3  0  0  0  0  0  0
  197.8960  174.6320  138.5660 C   0  0  0  0  0  1  0  0  0  0  0  0
  195.7190  174.8980  137.3280 N   0  0  0  0  0  2  0  0  0  0  0  0
  196.4590  174.2950  138.3960 C   0  0  0  0  0  0  0  0  0  0  0  0
  195.9160  173.4860  139.1930 O   0  0  0  0  0  0  0  0  0  0  0  0
  190.4390  177.0570  141.2270 N   0  0  0  0  0  2  0  0  0  0  0  0
  190.4450  178.0400  142.2260 N   0  0  0  0  0  2  0  0  0  0  0  0
  191.6440  177.8310  143.0230 C   0  0  2  0  0  3  0  0  0  0  0  0
  190.6330  178.6690  145.1810 C   0  0  0  0  0  2  0  0  0  0  0  0
  190.7090  177.2570  145.7590 C   0  0  2  0  0  3  0  0  0  0  0  0
  191.6600  176.4140  143.6000 C   0  0  0  0  0  2  0  0  0  0  0  0
  191.7360  178.8730  144.1430 C   0  0  0  0  0  2  0  0  0  0  0  0
  190.5580  176.2280  144.6430 C   0  0  0  0  0  2  0  0  0  0  0  0
  189.6480  177.0700  146.7350 N   0  0  0  0  0  2  0  0  0  0  0  0
  188.4280  177.6370  146.1750 C   0  0  0  0  0  2  0  0  0  0  0  0
  187.7650  178.5710  148.2500 O   0  0  0  0  0  1  0  0  0  0  0  0
  187.3370  177.7140  147.2360 C   0  0  1  0  0  3  0  0  0  0  0  0
  186.0230  178.2250  146.6410 C   0  0  1  0  0  3  0  0  0  0  0  0
  185.7130  179.4840  147.1610 O   0  0  0  0  0  1  0  0  0  0  0  0
  186.1280  178.3250  145.1520 C   0  0  0  0  0  3  0  0  0  0  0  0
  185.1260  178.2620  144.4590 O   0  0  0  0  0  0  0  0  0  0  0  0
  1  5  2  0  0  0  0
  2  3  2  0  0  0  0
  2  4  1  0  0  0  0
  3  6  1  0  0  0  0
  4 20  1  1  0  0  0
  4  1  1  0  0  0  0
  6  1  1  0  0  0  0
  7  2  1  0  0  0  0
  8  9  3  0  0  0  0
  9  7  1  0  0  0  0
 10 13  1  0  0  0  0
 11 12  2  0  0  0  0
 12 15  1  0  0  0  0
 12  8  1  0  0  0  0
 13 17  1  0  0  0  0
 13 15  2  0  0  0  0
 14 10  2  0  0  0  0
 14 11  1  0  0  0  0
 17 18  1  0  0  0  0
 18 16  1  0  0  0  0
 18 19  2  0  0  0  0
 20 21  1  0  0  0  0
 22 21  1  1  0  0  0
 22 25  1  0  0  0  0
 22 26  1  0  0  0  0
 23 24  1  0  0  0  0
 24 28  1  1  0  0  0
 25 27  1  0  0  0  0
 26 23  1  0  0  0  0
 27 24  1  0  0  0  0
 29 28  1  0  0  0  0
 29 31  1  0  0  0  0
 31 30  1  1  0  0  0
 32 33  1  1  0  0  0
 32 31  1  0  0  0  0
 34 32  1  0  0  0  0
 35 34  2  0  0  0  0
M  END
>  <MODEL>
7

>  <REMARK>
 VINA RESULT:      -7.3      3.758      9.284
  Name = 
  11 active torsions:
  status: ('A' for Active; 'I' for Inactive)
    1  A    between atoms: C_3  and  C_9
    2  A    between atoms: C_3  and  C_35
    3  A    between atoms: C_7  and  N_16
    4  A    between atoms: C_8  and  C_20
    5  A    between atoms: C_12  and  N_21
    6  A    between atoms: C_13  and  N_17
    7  A    between atoms: N_16  and  N_22
    8  A    between atoms: N_17  and  C_34
    9  A    between atoms: C_18  and  N_22
   10  A    between atoms: N_31  and  C_32
   11  A    between atoms: C_34  and  C_35
                            x       y       z     vdW  Elec       q    Type
                         _______ _______ _______ _____ _____    ______ ____

>  <TORSDO>
F 11

$$$$
=
 OpenBabel10232409393D

 35 37  0  0  1  0  0  0  0  0999 V2000
  192.7280  176.7520  138.8990 C   0  0  0  0  0  0  0  0  0  0  0  0
  190.9190  176.6180  137.5140 C   0  0  0  0  0  0  0  0  0  0  0  0
  191.9160  176.1880  136.8130 N   0  0  0  0  0  0  0  0  0  0  0  0
  191.2720  177.0530  138.8970 C   0  0  1  0  0  3  0  0  0  0  0  0
  193.5430  177.3200  139.7070 N   0  0  0  0  0  2  0  0  0  0  0  0
  193.1570  176.2440  137.5660 C   0  0  0  0  0  2  0  0  0  0  0  0
  189.6030  176.6930  136.9610 N   0  0  0  0  0  2  0  0  0  0  0  0
  187.5870  177.6560  138.3070 C   0  0  0  0  0  0  0  0  0  0  0  0
  188.5200  177.2160  137.6830 C   0  0  0  0  0  0  0  0  0  0  0  0
  184.3090  179.1740  140.5040 C   0  0  0  0  0  3  0  0  0  0  0  0
  186.6040  178.4120  140.4230 C   0  0  0  0  0  3  0  0  0  0  0  0
  186.4740  178.1700  139.0520 C   0  0  0  0  0  0  0  0  0  0  0  0
  184.1710  178.9350  139.1280 C   0  0  0  0  0  0  0  0  0  0  0  0
  185.5220  178.9140  141.1490 C   0  0  0  0  0  3  0  0  0  0  0  0
  185.2610  178.4330  138.4090 C   0  0  0  0  0  3  0  0  0  0  0  0
  180.5420  178.8660  137.7440 C   0  0  0  0  0  1  0  0  0  0  0  0
  182.9440  179.1920  138.4330 N   0  0  0  0  0  2  0  0  0  0  0  0
  181.7280  178.4410  138.5340 C   0  0  0  0  0  0  0  0  0  0  0  0
  181.6420  177.4300  139.2780 O   0  0  0  0  0  0  0  0  0  0  0  0
  190.6030  176.2070  139.8710 N   0  0  0  0  0  2  0  0  0  0  0  0
  190.2900  177.0210  140.9680 N   0  0  0  0  0  2  0  0  0  0  0  0
  191.0390  176.5110  142.1060 C   0  0  2  0  0  3  0  0  0  0  0  0
  190.5480  178.4850  143.6050 C   0  0  0  0  0  2  0  0  0  0  0  0
  189.7000  177.5860  144.5020 C   0  0  2  0  0  3  0  0  0  0  0  0
  190.1400  175.6400  142.9870 C   0  0  0  0  0  2  0  0  0  0  0  0
  191.6390  177.6640  142.9170 C   0  0  0  0  0  2  0  0  0  0  0  0
  189.0610  176.4760  143.6740 C   0  0  0  0  0  2  0  0  0  0  0  0
  188.6580  178.3730  145.1400 N   0  0  0  0  0  2  0  0  0  0  0  0
  187.4030  177.6470  144.9910 C   0  0  0  0  0  2  0  0  0  0  0  0
  187.5440  177.9910  147.3330 O   0  0  0  0  0  1  0  0  0  0  0  0
  186.6850  177.5380  146.3310 C   0  0  1  0  0  3  0  0  0  0  0  0
  185.3960  178.3630  146.3360 C   0  0  1  0  0  3  0  0  0  0  0  0
  185.5630  179.5160  147.1070 O   0  0  0  0  0  1  0  0  0  0  0  0
  185.0240  178.7580  144.9420 C   0  0  0  0  0  3  0  0  0  0  0  0
  184.8680  179.9340  144.6570 O   0  0  0  0  0  0  0  0  0  0  0  0
  1  5  2  0  0  0  0
  2  4  1  0  0  0  0
  3  2  2  0  0  0  0
  3  6  1  0  0  0  0
  4  1  1  0  0  0  0
  4 20  1  1  0  0  0
  6  1  1  0  0  0  0
  7  2  1  0  0  0  0
  7  9  1  0  0  0  0
  8 12  1  0  0  0  0
  9  8  3  0  0  0  0
 10 14  1  0  0  0  0
 11 14  2  0  0  0  0
 12 11  1  0  0  0  0
 13 10  2  0  0  0  0
 15 12  2  0  0  0  0
 15 13  1  0  0  0  0
 16 18  1  0  0  0  0
 17 18  1  0  0  0  0
 17 13  1  0  0  0  0
 18 19  2  0  0  0  0
 20 21  1  0  0  0  0
 22 21  1  6  0  0  0
 22 26  1  0  0  0  0
 22 25  1  0  0  0  0
 23 24  1  0  0  0  0
 24 28  1  6  0  0  0
 25 27  1  0  0  0  0
 26 23  1  0  0  0  0
 27 24  1  0  0  0  0
 29 28  1  0  0  0  0
 29 31  1  0  0  0  0
 31 32  1  0  0  0  0
 31 30  1  1  0  0  0
 32 33  1  1  0  0  0
 34 32  1  0  0  0  0
 35 34  2  0  0  0  0
M  END
>  <MODEL>
8

>  <REMARK>
 VINA RESULT:      -7.3      3.088      6.964
  Name = 
  11 active torsions:
  status: ('A' for Active; 'I' for Inactive)
    1  A    between atoms: C_3  and  C_9
    2  A    between atoms: C_3  and  C_35
    3  A    between atoms: C_7  and  N_16
    4  A    between atoms: C_8  and  C_20
    5  A    between atoms: C_12  and  N_21
    6  A    between atoms: C_13  and  N_17
    7  A    between atoms: N_16  and  N_22
    8  A    between atoms: N_17  and  C_34
    9  A    between atoms: C_18  and  N_22
   10  A    between atoms: N_31  and  C_32
   11  A    between atoms: C_34  and  C_35
                            x       y       z     vdW  Elec       q    Type
                         _______ _______ _______ _____ _____    ______ ____

>  <TORSDO>
F 11

$$$$
=
 OpenBabel10232409393D

 35 37  0  0  1  0  0  0  0  0999 V2000
  191.8590  175.8770  137.1040 C   0  0  0  0  0  0  0  0  0  0  0  0
  192.5850  176.7880  139.0660 C   0  0  0  0  0  0  0  0  0  0  0  0
  193.6350  176.7160  138.3170 N   0  0  0  0  0  0  0  0  0  0  0  0
  191.3360  176.2600  138.4420 C   0  0  1  0  0  3  0  0  0  0  0  0
  191.2720  175.0130  136.3610 N   0  0  0  0  0  2  0  0  0  0  0  0
  193.3270  176.1190  137.0290 C   0  0  0  0  0  2  0  0  0  0  0  0
  192.6590  177.3030  140.3980 N   0  0  0  0  0  2  0  0  0  0  0  0
  190.5820  177.3540  141.9740 C   0  0  0  0  0  0  0  0  0  0  0  0
  191.5450  177.3310  141.2490 C   0  0  0  0  0  0  0  0  0  0  0  0
  187.1840  177.4320  144.4870 C   0  0  0  0  0  3  0  0  0  0  0  0
  188.1480  177.3810  142.2690 C   0  0  0  0  0  3  0  0  0  0  0  0
  189.4300  177.3820  142.8270 C   0  0  0  0  0  0  0  0  0  0  0  0
  188.4670  177.4320  145.0550 C   0  0  0  0  0  0  0  0  0  0  0  0
  187.0240  177.4060  143.0990 C   0  0  0  0  0  3  0  0  0  0  0  0
  189.5860  177.4060  144.2160 C   0  0  0  0  0  3  0  0  0  0  0  0
  188.1660  177.9550  148.8930 C   0  0  0  0  0  1  0  0  0  0  0  0
  188.6680  177.4550  146.4750 N   0  0  0  0  0  2  0  0  0  0  0  0
  187.8000  178.0390  147.4540 C   0  0  0  0  0  0  0  0  0  0  0  0
  186.7360  178.6220  147.1220 O   0  0  0  0  0  0  0  0  0  0  0  0
  190.3640  177.3290  138.2910 N   0  0  0  0  0  2  0  0  0  0  0  0
  189.1200  176.7180  138.0850 N   0  0  0  0  0  2  0  0  0  0  0  0
  188.5920  177.2370  136.8320 C   0  0  2  0  0  3  0  0  0  0  0  0
  186.5480  175.7530  136.8140 C   0  0  0  0  0  2  0  0  0  0  0  0
  185.6620  176.9800  137.0200 C   0  0  2  0  0  3  0  0  0  0  0  0
  187.6910  178.4460  137.0940 C   0  0  0  0  0  2  0  0  0  0  0  0
  187.8270  176.1450  136.0760 C   0  0  0  0  0  2  0  0  0  0  0  0
  186.4130  178.0360  137.8240 C   0  0  0  0  0  2  0  0  0  0  0  0
  184.4550  176.5980  137.7340 N   0  0  0  0  0  2  0  0  0  0  0  0
  183.6040  177.7780  137.8250 C   0  0  0  0  0  2  0  0  0  0  0  0
  183.0740  176.5680  139.7940 O   0  0  0  0  0  1  0  0  0  0  0  0
  182.7550  177.7300  139.0890 C   0  0  1  0  0  3  0  0  0  0  0  0
  183.0030  178.9570  139.9680 C   0  0  1  0  0  3  0  0  0  0  0  0
  181.9130  179.1780  140.8130 O   0  0  0  0  0  1  0  0  0  0  0  0
  184.2320  178.7640  140.8000 C   0  0  0  0  0  3  0  0  0  0  0  0
  185.1690  179.5380  140.7020 O   0  0  0  0  0  0  0  0  0  0  0  0
  1  4  1  0  0  0  0
  2  7  1  0  0  0  0
  3  2  2  0  0  0  0
  4 20  1  6  0  0  0
  4  2  1  0  0  0  0
  5  1  2  0  0  0  0
  6  1  1  0  0  0  0
  6  3  1  0  0  0  0
  7  9  1  0  0  0  0
  8 12  1  0  0  0  0
  9  8  3  0  0  0  0
 10 13  1  0  0  0  0
 11 12  2  0  0  0  0
 11 14  1  0  0  0  0
 12 15  1  0  0  0  0
 13 17  1  0  0  0  0
 14 10  2  0  0  0  0
 15 13  2  0  0  0  0
 17 18  1  0  0  0  0
 18 16  1  0  0  0  0
 19 18  2  0  0  0  0
 21 20  1  0  0  0  0
 22 25  1  0  0  0  0
 22 21  1  1  0  0  0
 23 24  1  0  0  0  0
 24 28  1  1  0  0  0
 24 27  1  0  0  0  0
 25 27  1  0  0  0  0
 26 23  1  0  0  0  0
 26 22  1  0  0  0  0
 28 29  1  0  0  0  0
 29 31  1  0  0  0  0
 31 30  1  1  0  0  0
 31 32  1  0  0  0  0
 32 34  1  0  0  0  0
 32 33  1  1  0  0  0
 35 34  2  0  0  0  0
M  END
>  <MODEL>
9

>  <REMARK>
 VINA RESULT:      -7.2      2.882      6.805
  Name = 
  11 active torsions:
  status: ('A' for Active; 'I' for Inactive)
    1  A    between atoms: C_3  and  C_9
    2  A    between atoms: C_3  and  C_35
    3  A    between atoms: C_7  and  N_16
    4  A    between atoms: C_8  and  C_20
    5  A    between atoms: C_12  and  N_21
    6  A    between atoms: C_13  and  N_17
    7  A    between atoms: N_16  and  N_22
    8  A    between atoms: N_17  and  C_34
    9  A    between atoms: C_18  and  N_22
   10  A    between atoms: N_31  and  C_32
   11  A    between atoms: C_34  and  C_35
                            x       y       z     vdW  Elec       q    Type
                         _______ _______ _______ _____ _____    ______ ____

>  <TORSDO>
F 11

$$$$
