=
 OpenBabel10232410023D

 26 29  0  0  0  0  0  0  0  0999 V2000
  185.6150  178.2460  146.3670 C   0  0  0  0  0  3  0  0  0  0  0  0
  188.4310  177.3170  146.2650 O   0  0  0  0  0  0  0  0  0  0  0  0
  189.6050  176.9340  145.7990 C   0  0  0  0  0  0  0  0  0  0  0  0
  187.6770  177.5740  145.2300 C   0  0  0  0  0  0  0  0  0  0  0  0
  188.3700  177.3530  144.0740 C   0  0  0  0  0  0  0  0  0  0  0  0
  187.7750  177.5590  142.8300 C   0  0  0  0  0  0  0  0  0  0  0  0
  184.4360  178.6530  143.8730 C   0  0  0  0  0  3  0  0  0  0  0  0
  183.7290  178.8770  145.0600 C   0  0  0  0  0  0  0  0  0  0  0  0
  184.3260  178.6710  146.2670 N   0  0  0  0  0  0  0  0  0  0  0  0
  186.3560  178.0090  145.2090 C   0  0  0  0  0  0  0  0  0  0  0  0
  185.7580  178.2150  143.9420 C   0  0  0  0  0  0  0  0  0  0  0  0
  182.4430  179.3020  145.0070 F   0  0  0  0  0  0  0  0  0  0  0  0
  186.4750  177.9880  142.7970 N   0  0  0  0  0  0  0  0  0  0  0  0
  189.6420  176.9310  144.4050 C   0  0  0  0  0  3  0  0  0  0  0  0
  190.7070  176.5650  146.6420 C   0  0  0  0  0  0  0  0  0  0  0  0
  192.7550  175.8780  148.2090 C   0  0  0  0  0  1  0  0  0  0  0  0
  191.6320  176.2540  147.3500 C   0  0  0  0  0  0  0  0  0  0  0  0
  188.4950  177.3320  141.6530 O   0  0  0  0  0  0  0  0  0  0  0  0
  188.6100  178.3120  140.6290 C   0  0  0  0  0  2  0  0  0  0  0  0
  188.4750  177.6590  139.2630 C   0  0  0  0  0  2  0  0  0  0  0  0
  186.7320  178.0720  137.6800 C   0  0  0  0  0  2  0  0  0  0  0  0
  187.9220  177.5030  135.6700 O   0  0  0  0  0  0  0  0  0  0  0  0
  189.1460  177.7620  136.3060 C   0  0  0  0  0  2  0  0  0  0  0  0
  187.9450  178.6230  138.3060 N   0  0  0  0  0  0  0  0  0  0  0  0
  187.0700  176.9800  136.6560 C   0  0  0  0  0  2  0  0  0  0  0  0
  188.9780  178.9170  137.3020 C   0  0  0  0  0  2  0  0  0  0  0  0
  3  2  1  0  0  0  0
  3 15  1  0  0  0  0
  4  2  1  0  0  0  0
  5 14  1  0  0  0  0
  5  4  2  0  0  0  0
  6  5  1  0  0  0  0
  7 11  2  0  0  0  0
  7  8  1  0  0  0  0
  8  9  2  0  0  0  0
  9  1  1  0  0  0  0
 10  4  1  0  0  0  0
 10  1  2  0  0  0  0
 11 10  1  0  0  0  0
 12  8  1  0  0  0  0
 13  6  2  0  0  0  0
 13 11  1  0  0  0  0
 14  3  2  0  0  0  0
 15 17  3  0  0  0  0
 17 16  1  0  0  0  0
 18  6  1  0  0  0  0
 19 18  1  0  0  0  0
 20 19  1  0  0  0  0
 21 24  1  0  0  0  0
 22 23  1  0  0  0  0
 22 25  1  0  0  0  0
 23 26  1  0  0  0  0
 24 20  1  0  0  0  0
 25 21  1  0  0  0  0
 26 24  1  0  0  0  0
M  END
>  <MODEL>
1

>  <REMARK>
 VINA RESULT:      -9.2      0.000      0.000
  Name = 
  5 active torsions:
  status: ('A' for Active; 'I' for Inactive)
    1  A    between atoms: C_2  and  C_6
    2  A    between atoms: C_2  and  N_8
    3  A    between atoms: C_6  and  O_17
    4  A    between atoms: C_9  and  C_13
    5  A    between atoms: C_14  and  O_17
                            x       y       z     vdW  Elec       q    Type
                         _______ _______ _______ _____ _____    ______ ____

>  <TORSDO>
F 5

$$$$
=
 OpenBabel10232410023D

 26 29  0  0  0  0  0  0  0  0999 V2000
  188.8850  177.5240  147.0420 C   0  0  0  0  0  3  0  0  0  0  0  0
  186.6810  177.9440  145.1010 O   0  0  0  0  0  0  0  0  0  0  0  0
  186.0070  178.0010  143.9680 C   0  0  0  0  0  0  0  0  0  0  0  0
  187.8870  177.5360  144.8060 C   0  0  0  0  0  0  0  0  0  0  0  0
  187.9980  177.3260  143.4620 C   0  0  0  0  0  0  0  0  0  0  0  0
  189.1970  176.8850  142.9010 C   0  0  0  0  0  0  0  0  0  0  0  0
  191.2770  176.6440  145.9100 C   0  0  0  0  0  3  0  0  0  0  0  0
  191.1580  176.8610  147.2870 C   0  0  0  0  0  0  0  0  0  0  0  0
  189.9800  177.2920  147.8170 N   0  0  0  0  0  0  0  0  0  0  0  0
  188.9610  177.3200  145.6640 C   0  0  0  0  0  0  0  0  0  0  0  0
  190.1740  176.8740  145.0880 C   0  0  0  0  0  0  0  0  0  0  0  0
  192.2230  176.6420  148.0970 F   0  0  0  0  0  0  0  0  0  0  0  0
  190.2610  176.6700  143.7360 N   0  0  0  0  0  0  0  0  0  0  0  0
  186.7840  177.6190  142.8740 C   0  0  0  0  0  3  0  0  0  0  0  0
  184.6330  178.4090  143.8860 C   0  0  0  0  0  0  0  0  0  0  0  0
  182.0800  179.1690  143.7320 C   0  0  0  0  0  1  0  0  0  0  0  0
  183.4800  178.7520  143.8160 C   0  0  0  0  0  0  0  0  0  0  0  0
  189.2990  176.6710  141.5240 O   0  0  0  0  0  0  0  0  0  0  0  0
  190.0210  177.5470  140.6680 C   0  0  0  0  0  2  0  0  0  0  0  0
  189.0900  178.1430  139.6240 C   0  0  0  0  0  2  0  0  0  0  0  0
  189.0210  178.8730  137.3490 C   0  0  0  0  0  2  0  0  0  0  0  0
  187.5680  177.1750  136.4640 O   0  0  0  0  0  0  0  0  0  0  0  0
  187.9240  176.3070  137.5090 C   0  0  0  0  0  2  0  0  0  0  0  0
  189.6400  177.9280  138.2910 N   0  0  0  0  0  0  0  0  0  0  0  0
  187.5800  178.4690  137.0080 C   0  0  0  0  0  2  0  0  0  0  0  0
  189.3930  176.5350  137.8920 C   0  0  0  0  0  2  0  0  0  0  0  0
  1  9  1  0  0  0  0
  3  2  1  0  0  0  0
  4  2  1  0  0  0  0
  4 10  1  0  0  0  0
  5  4  2  0  0  0  0
  6  5  1  0  0  0  0
  6 13  2  0  0  0  0
  7  8  1  0  0  0  0
  8  9  2  0  0  0  0
  8 12  1  0  0  0  0
 10  1  2  0  0  0  0
 11 10  1  0  0  0  0
 11  7  2  0  0  0  0
 13 11  1  0  0  0  0
 14  5  1  0  0  0  0
 14  3  2  0  0  0  0
 15  3  1  0  0  0  0
 16 17  1  0  0  0  0
 17 15  3  0  0  0  0
 18  6  1  0  0  0  0
 19 18  1  0  0  0  0
 20 19  1  0  0  0  0
 21 24  1  0  0  0  0
 22 25  1  0  0  0  0
 22 23  1  0  0  0  0
 23 26  1  0  0  0  0
 24 20  1  0  0  0  0
 25 21  1  0  0  0  0
 26 24  1  0  0  0  0
M  END
>  <MODEL>
2

>  <REMARK>
 VINA RESULT:      -8.6      2.781      5.074
  Name = 
  5 active torsions:
  status: ('A' for Active; 'I' for Inactive)
    1  A    between atoms: C_2  and  C_6
    2  A    between atoms: C_2  and  N_8
    3  A    between atoms: C_6  and  O_17
    4  A    between atoms: C_9  and  C_13
    5  A    between atoms: C_14  and  O_17
                            x       y       z     vdW  Elec       q    Type
                         _______ _______ _______ _____ _____    ______ ____

>  <TORSDO>
F 5

$$$$
=
 OpenBabel10232410023D

 26 29  0  0  0  0  0  0  0  0999 V2000
  189.1500  177.2060  146.7270 C   0  0  0  0  0  3  0  0  0  0  0  0
  186.8670  177.8350  144.9390 O   0  0  0  0  0  0  0  0  0  0  0  0
  186.1490  178.0220  143.8480 C   0  0  0  0  0  0  0  0  0  0  0  0
  188.0640  177.4810  144.5500 C   0  0  0  0  0  0  0  0  0  0  0  0
  188.1230  177.4390  143.1860 C   0  0  0  0  0  0  0  0  0  0  0  0
  189.3020  177.0850  142.5300 C   0  0  0  0  0  0  0  0  0  0  0  0
  191.5010  176.5020  145.4030 C   0  0  0  0  0  3  0  0  0  0  0  0
  191.4360  176.5460  146.8000 C   0  0  0  0  0  0  0  0  0  0  0  0
  190.2760  176.8930  147.4250 N   0  0  0  0  0  0  0  0  0  0  0  0
  189.1730  177.1750  145.3320 C   0  0  0  0  0  0  0  0  0  0  0  0
  190.3650  176.8170  144.6590 C   0  0  0  0  0  0  0  0  0  0  0  0
  192.5330  176.2420  147.5350 F   0  0  0  0  0  0  0  0  0  0  0  0
  190.4000  176.7820  143.2900 N   0  0  0  0  0  0  0  0  0  0  0  0
  186.8850  177.7880  142.6860 C   0  0  0  0  0  3  0  0  0  0  0  0
  184.7700  178.4210  143.8700 C   0  0  0  0  0  0  0  0  0  0  0  0
  182.2070  179.1630  143.9120 C   0  0  0  0  0  1  0  0  0  0  0  0
  183.6120  178.7570  143.8890 C   0  0  0  0  0  0  0  0  0  0  0  0
  189.3510  177.0440  141.1340 O   0  0  0  0  0  0  0  0  0  0  0  0
  190.5770  177.0650  140.4130 C   0  0  0  0  0  2  0  0  0  0  0  0
  190.3100  176.9360  138.9220 C   0  0  0  0  0  2  0  0  0  0  0  0
  191.9870  175.4290  138.1280 C   0  0  0  0  0  2  0  0  0  0  0  0
  191.4870  175.5310  135.7790 O   0  0  0  0  0  0  0  0  0  0  0  0
  190.1720  175.9320  136.0630 C   0  0  0  0  0  2  0  0  0  0  0  0
  190.5680  175.5680  138.4910 N   0  0  0  0  0  0  0  0  0  0  0  0
  192.2940  176.0960  136.7790 C   0  0  0  0  0  2  0  0  0  0  0  0
  189.6910  175.2530  137.3530 C   0  0  0  0  0  2  0  0  0  0  0  0
  1  9  1  0  0  0  0
  3 15  1  0  0  0  0
  3  2  1  0  0  0  0
  4  2  1  0  0  0  0
  4 10  1  0  0  0  0
  5  4  2  0  0  0  0
  6  5  1  0  0  0  0
  6 13  2  0  0  0  0
  7  8  1  0  0  0  0
  8  9  2  0  0  0  0
  8 12  1  0  0  0  0
 10  1  2  0  0  0  0
 11 10  1  0  0  0  0
 11  7  2  0  0  0  0
 13 11  1  0  0  0  0
 14  5  1  0  0  0  0
 14  3  2  0  0  0  0
 15 17  3  0  0  0  0
 17 16  1  0  0  0  0
 18  6  1  0  0  0  0
 19 18  1  0  0  0  0
 20 19  1  0  0  0  0
 21 24  1  0  0  0  0
 22 23  1  0  0  0  0
 22 25  1  0  0  0  0
 23 26  1  0  0  0  0
 24 20  1  0  0  0  0
 25 21  1  0  0  0  0
 26 24  1  0  0  0  0
M  END
>  <MODEL>
3

>  <REMARK>
 VINA RESULT:      -8.3      3.276      5.464
  Name = 
  5 active torsions:
  status: ('A' for Active; 'I' for Inactive)
    1  A    between atoms: C_2  and  C_6
    2  A    between atoms: C_2  and  N_8
    3  A    between atoms: C_6  and  O_17
    4  A    between atoms: C_9  and  C_13
    5  A    between atoms: C_14  and  O_17
                            x       y       z     vdW  Elec       q    Type
                         _______ _______ _______ _____ _____    ______ ____

>  <TORSDO>
F 5

$$$$
=
 OpenBabel10232410023D

 26 29  0  0  0  0  0  0  0  0999 V2000
  187.6990  177.6040  146.8370 C   0  0  0  0  0  3  0  0  0  0  0  0
  185.5310  178.1460  144.8850 O   0  0  0  0  0  0  0  0  0  0  0  0
  184.8880  178.3080  143.7440 C   0  0  0  0  0  0  0  0  0  0  0  0
  186.7660  177.8410  144.5850 C   0  0  0  0  0  0  0  0  0  0  0  0
  186.9280  177.8060  143.2300 C   0  0  0  0  0  0  0  0  0  0  0  0
  188.1650  177.5010  142.6630 C   0  0  0  0  0  0  0  0  0  0  0  0
  190.1680  176.9980  145.6910 C   0  0  0  0  0  3  0  0  0  0  0  0
  189.9980  177.0360  147.0790 C   0  0  0  0  0  0  0  0  0  0  0  0
  188.7820  177.3350  147.6160 N   0  0  0  0  0  0  0  0  0  0  0  0
  187.8250  177.5770  145.4480 C   0  0  0  0  0  0  0  0  0  0  0  0
  189.0780  177.2700  144.8650 C   0  0  0  0  0  0  0  0  0  0  0  0
  191.0490  176.7740  147.8930 F   0  0  0  0  0  0  0  0  0  0  0  0
  189.2150  177.2400  143.5020 N   0  0  0  0  0  0  0  0  0  0  0  0
  185.7160  178.1060  142.6400 C   0  0  0  0  0  3  0  0  0  0  0  0
  183.4970  178.6510  143.6640 C   0  0  0  0  0  0  0  0  0  0  0  0
  180.9100  179.2900  143.5140 C   0  0  0  0  0  1  0  0  0  0  0  0
  182.3280  178.9390  143.5960 C   0  0  0  0  0  0  0  0  0  0  0  0
  188.3180  177.4650  141.2740 O   0  0  0  0  0  0  0  0  0  0  0  0
  188.5750  178.6340  140.5050 C   0  0  0  0  0  2  0  0  0  0  0  0
  189.1050  178.2520  139.1330 C   0  0  0  0  0  2  0  0  0  0  0  0
  190.5110  176.3330  138.8950 C   0  0  0  0  0  2  0  0  0  0  0  0
  190.3350  176.0440  136.5150 O   0  0  0  0  0  0  0  0  0  0  0  0
  189.1100  176.7290  136.5090 C   0  0  0  0  0  2  0  0  0  0  0  0
  189.1190  176.8000  138.9950 N   0  0  0  0  0  0  0  0  0  0  0  0
  191.1140  176.6430  137.5180 C   0  0  0  0  0  2  0  0  0  0  0  0
  188.3420  176.4270  137.8040 C   0  0  0  0  0  2  0  0  0  0  0  0
  1  9  1  0  0  0  0
  3  2  1  0  0  0  0
  4  2  1  0  0  0  0
  4 10  1  0  0  0  0
  5  4  2  0  0  0  0
  6  5  1  0  0  0  0
  6 13  2  0  0  0  0
  7  8  1  0  0  0  0
  8  9  2  0  0  0  0
  8 12  1  0  0  0  0
 10  1  2  0  0  0  0
 11 10  1  0  0  0  0
 11  7  2  0  0  0  0
 13 11  1  0  0  0  0
 14  5  1  0  0  0  0
 14  3  2  0  0  0  0
 15  3  1  0  0  0  0
 16 17  1  0  0  0  0
 17 15  3  0  0  0  0
 18  6  1  0  0  0  0
 19 18  1  0  0  0  0
 20 19  1  0  0  0  0
 21 24  1  0  0  0  0
 22 25  1  0  0  0  0
 23 22  1  0  0  0  0
 23 26  1  0  0  0  0
 24 20  1  0  0  0  0
 25 21  1  0  0  0  0
 26 24  1  0  0  0  0
M  END
>  <MODEL>
4

>  <REMARK>
 VINA RESULT:      -8.2      2.686      5.175
  Name = 
  5 active torsions:
  status: ('A' for Active; 'I' for Inactive)
    1  A    between atoms: C_2  and  C_6
    2  A    between atoms: C_2  and  N_8
    3  A    between atoms: C_6  and  O_17
    4  A    between atoms: C_9  and  C_13
    5  A    between atoms: C_14  and  O_17
                            x       y       z     vdW  Elec       q    Type
                         _______ _______ _______ _____ _____    ______ ____

>  <TORSDO>
F 5

$$$$
=
 OpenBabel10232410023D

 26 29  0  0  0  0  0  0  0  0999 V2000
  191.3260  177.0620  144.8360 C   0  0  0  0  0  3  0  0  0  0  0  0
  189.6760  177.6860  142.4510 O   0  0  0  0  0  0  0  0  0  0  0  0
  188.6350  177.9670  141.6900 C   0  0  0  0  0  0  0  0  0  0  0  0
  189.2320  177.5700  143.6740 C   0  0  0  0  0  0  0  0  0  0  0  0
  187.8830  177.7780  143.7080 C   0  0  0  0  0  0  0  0  0  0  0  0
  187.1750  177.7070  144.9080 C   0  0  0  0  0  0  0  0  0  0  0  0
  189.9010  176.9210  147.2290 C   0  0  0  0  0  3  0  0  0  0  0  0
  191.2840  176.7090  147.1900 C   0  0  0  0  0  0  0  0  0  0  0  0
  191.9590  176.7820  146.0090 N   0  0  0  0  0  0  0  0  0  0  0  0
  189.9480  177.2800  144.8310 C   0  0  0  0  0  0  0  0  0  0  0  0
  189.2240  177.2090  146.0450 C   0  0  0  0  0  0  0  0  0  0  0  0
  191.9540  176.4280  148.3330 F   0  0  0  0  0  0  0  0  0  0  0  0
  187.8700  177.4220  146.0530 N   0  0  0  0  0  0  0  0  0  0  0  0
  187.4520  178.0420  142.4230 C   0  0  0  0  0  3  0  0  0  0  0  0
  188.7270  178.1700  140.2720 C   0  0  0  0  0  0  0  0  0  0  0  0
  188.8960  178.5500  137.6350 C   0  0  0  0  0  1  0  0  0  0  0  0
  188.8030  178.3420  139.0810 C   0  0  0  0  0  0  0  0  0  0  0  0
  185.7950  177.9230  144.9310 O   0  0  0  0  0  0  0  0  0  0  0  0
  185.2290  179.2180  145.0930 C   0  0  0  0  0  2  0  0  0  0  0  0
  184.3110  179.5370  143.9240 C   0  0  0  0  0  2  0  0  0  0  0  0
  183.7350  178.1020  142.1010 C   0  0  0  0  0  2  0  0  0  0  0  0
  181.5610  178.9970  141.6020 O   0  0  0  0  0  0  0  0  0  0  0  0
  181.4510  179.4940  142.9110 C   0  0  0  0  0  2  0  0  0  0  0  0
  183.5640  178.3440  143.5420 N   0  0  0  0  0  0  0  0  0  0  0  0
  182.9190  179.0930  141.2590 C   0  0  0  0  0  2  0  0  0  0  0  0
  182.1480  178.5370  143.8880 C   0  0  0  0  0  2  0  0  0  0  0  0
  1  9  1  0  0  0  0
  2  4  1  0  0  0  0
  3 14  2  0  0  0  0
  3  2  1  0  0  0  0
  4  5  2  0  0  0  0
  4 10  1  0  0  0  0
  5  6  1  0  0  0  0
  6 18  1  0  0  0  0
  6 13  2  0  0  0  0
  8  7  1  0  0  0  0
  8 12  1  0  0  0  0
  9  8  2  0  0  0  0
 10  1  2  0  0  0  0
 10 11  1  0  0  0  0
 11 13  1  0  0  0  0
 11  7  2  0  0  0  0
 14  5  1  0  0  0  0
 15  3  1  0  0  0  0
 16 17  1  0  0  0  0
 17 15  3  0  0  0  0
 18 19  1  0  0  0  0
 20 19  1  0  0  0  0
 21 24  1  0  0  0  0
 22 23  1  0  0  0  0
 23 26  1  0  0  0  0
 24 26  1  0  0  0  0
 24 20  1  0  0  0  0
 25 22  1  0  0  0  0
 25 21  1  0  0  0  0
M  END
>  <MODEL>
5

>  <REMARK>
 VINA RESULT:      -8.1      3.253      6.692
  Name = 
  5 active torsions:
  status: ('A' for Active; 'I' for Inactive)
    1  A    between atoms: C_2  and  C_6
    2  A    between atoms: C_2  and  N_8
    3  A    between atoms: C_6  and  O_17
    4  A    between atoms: C_9  and  C_13
    5  A    between atoms: C_14  and  O_17
                            x       y       z     vdW  Elec       q    Type
                         _______ _______ _______ _____ _____    ______ ____

>  <TORSDO>
F 5

$$$$
=
 OpenBabel10232410023D

 26 29  0  0  0  0  0  0  0  0999 V2000
  189.7350  177.5370  146.1010 C   0  0  0  0  0  3  0  0  0  0  0  0
  189.7780  177.3090  143.1430 O   0  0  0  0  0  0  0  0  0  0  0  0
  189.3780  177.2820  141.8860 C   0  0  0  0  0  0  0  0  0  0  0  0
  188.7190  177.5410  143.8730 C   0  0  0  0  0  0  0  0  0  0  0  0
  187.6150  177.6650  143.0780 C   0  0  0  0  0  0  0  0  0  0  0  0
  186.3590  177.9170  143.6290 C   0  0  0  0  0  0  0  0  0  0  0  0
  187.2170  178.0380  147.1900 C   0  0  0  0  0  3  0  0  0  0  0  0
  188.3510  177.9100  148.0010 C   0  0  0  0  0  0  0  0  0  0  0  0
  189.5700  177.6650  147.4460 N   0  0  0  0  0  0  0  0  0  0  0  0
  188.6310  177.6580  145.2570 C   0  0  0  0  0  0  0  0  0  0  0  0
  187.3520  177.9120  145.8080 C   0  0  0  0  0  0  0  0  0  0  0  0
  188.2330  178.0290  149.3460 F   0  0  0  0  0  0  0  0  0  0  0  0
  186.2600  178.0340  144.9900 N   0  0  0  0  0  0  0  0  0  0  0  0
  188.0060  177.5020  141.7640 C   0  0  0  0  0  3  0  0  0  0  0  0
  190.2650  177.0530  140.7800 C   0  0  0  0  0  0  0  0  0  0  0  0
  191.9140  176.6240  138.7260 C   0  0  0  0  0  1  0  0  0  0  0  0
  191.0100  176.8590  139.8530 C   0  0  0  0  0  0  0  0  0  0  0  0
  185.2360  178.0450  142.8060 O   0  0  0  0  0  0  0  0  0  0  0  0
  185.0420  179.1630  141.9500 C   0  0  0  0  0  2  0  0  0  0  0  0
  184.0620  178.8120  140.8430 C   0  0  0  0  0  2  0  0  0  0  0  0
  183.2980  179.9140  138.8640 C   0  0  0  0  0  2  0  0  0  0  0  0
  183.3630  178.0440  137.3560 O   0  0  0  0  0  0  0  0  0  0  0  0
  184.3150  177.4060  138.1670 C   0  0  0  0  0  2  0  0  0  0  0  0
  184.4830  179.4350  139.5940 N   0  0  0  0  0  0  0  0  0  0  0  0
  182.5210  178.7550  138.2250 C   0  0  0  0  0  2  0  0  0  0  0  0
  185.2390  178.4540  138.8020 C   0  0  0  0  0  2  0  0  0  0  0  0
  1  9  1  0  0  0  0
  2  4  1  0  0  0  0
  3  2  1  0  0  0  0
  4 10  1  0  0  0  0
  5  6  1  0  0  0  0
  5  4  2  0  0  0  0
  6 13  2  0  0  0  0
  7  8  1  0  0  0  0
  8 12  1  0  0  0  0
  9  8  2  0  0  0  0
 10 11  1  0  0  0  0
 10  1  2  0  0  0  0
 11  7  2  0  0  0  0
 13 11  1  0  0  0  0
 14  3  2  0  0  0  0
 14  5  1  0  0  0  0
 15  3  1  0  0  0  0
 16 17  1  0  0  0  0
 17 15  3  0  0  0  0
 18  6  1  0  0  0  0
 19 18  1  0  0  0  0
 20 19  1  0  0  0  0
 21 24  1  0  0  0  0
 22 23  1  0  0  0  0
 22 25  1  0  0  0  0
 23 26  1  0  0  0  0
 24 20  1  0  0  0  0
 25 21  1  0  0  0  0
 26 24  1  0  0  0  0
M  END
>  <MODEL>
6

>  <REMARK>
 VINA RESULT:      -7.9      3.070      4.684
  Name = 
  5 active torsions:
  status: ('A' for Active; 'I' for Inactive)
    1  A    between atoms: C_2  and  C_6
    2  A    between atoms: C_2  and  N_8
    3  A    between atoms: C_6  and  O_17
    4  A    between atoms: C_9  and  C_13
    5  A    between atoms: C_14  and  O_17
                            x       y       z     vdW  Elec       q    Type
                         _______ _______ _______ _____ _____    ______ ____

>  <TORSDO>
F 5

$$$$
=
 OpenBabel10232410023D

 26 29  0  0  0  0  0  0  0  0999 V2000
  185.4730  178.0220  145.6250 C   0  0  0  0  0  3  0  0  0  0  0  0
  188.3530  177.3120  145.6820 O   0  0  0  0  0  0  0  0  0  0  0  0
  189.5970  177.1050  145.2930 C   0  0  0  0  0  0  0  0  0  0  0  0
  187.6910  177.7240  144.6330 C   0  0  0  0  0  0  0  0  0  0  0  0
  188.5180  177.7850  143.5470 C   0  0  0  0  0  0  0  0  0  0  0  0
  188.0400  178.2010  142.3040 C   0  0  0  0  0  0  0  0  0  0  0  0
  184.5300  178.8490  143.1340 C   0  0  0  0  0  3  0  0  0  0  0  0
  183.6860  178.7850  144.2490 C   0  0  0  0  0  0  0  0  0  0  0  0
  184.1690  178.3770  145.4560 N   0  0  0  0  0  0  0  0  0  0  0  0
  186.3470  178.0710  144.5390 C   0  0  0  0  0  0  0  0  0  0  0  0
  185.8700  178.4910  143.2740 C   0  0  0  0  0  0  0  0  0  0  0  0
  182.3820  179.1290  144.1270 F   0  0  0  0  0  0  0  0  0  0  0  0
  186.7190  178.5440  142.2000 N   0  0  0  0  0  0  0  0  0  0  0  0
  189.7800  177.3860  143.9390 C   0  0  0  0  0  3  0  0  0  0  0  0
  190.6320  176.6440  146.1740 C   0  0  0  0  0  0  0  0  0  0  0  0
  192.5550  175.7860  147.8140 C   0  0  0  0  0  1  0  0  0  0  0  0
  191.5000  176.2560  146.9150 C   0  0  0  0  0  0  0  0  0  0  0  0
  188.8960  178.2610  141.2010 O   0  0  0  0  0  0  0  0  0  0  0  0
  188.9550  177.2280  140.2250 C   0  0  0  0  0  2  0  0  0  0  0  0
  190.3900  177.0250  139.7650 C   0  0  0  0  0  2  0  0  0  0  0  0
  191.8530  175.6630  138.4540 C   0  0  0  0  0  2  0  0  0  0  0  0
  191.1170  176.3370  136.2670 O   0  0  0  0  0  0  0  0  0  0  0  0
  189.8740  176.7260  136.7910 C   0  0  0  0  0  2  0  0  0  0  0  0
  190.4950  175.7840  139.0070 N   0  0  0  0  0  0  0  0  0  0  0  0
  192.0660  176.6100  137.2650 C   0  0  0  0  0  2  0  0  0  0  0  0
  189.4820  175.7890  137.9410 C   0  0  0  0  0  2  0  0  0  0  0  0
  3  2  1  0  0  0  0
  3 15  1  0  0  0  0
  4  2  1  0  0  0  0
  5 14  1  0  0  0  0
  5  4  2  0  0  0  0
  6  5  1  0  0  0  0
  7 11  2  0  0  0  0
  7  8  1  0  0  0  0
  8  9  2  0  0  0  0
  9  1  1  0  0  0  0
 10  4  1  0  0  0  0
 10  1  2  0  0  0  0
 11 10  1  0  0  0  0
 12  8  1  0  0  0  0
 13  6  2  0  0  0  0
 13 11  1  0  0  0  0
 14  3  2  0  0  0  0
 15 17  3  0  0  0  0
 17 16  1  0  0  0  0
 18  6  1  0  0  0  0
 19 18  1  0  0  0  0
 20 19  1  0  0  0  0
 21 24  1  0  0  0  0
 22 23  1  0  0  0  0
 22 25  1  0  0  0  0
 23 26  1  0  0  0  0
 24 20  1  0  0  0  0
 25 21  1  0  0  0  0
 26 24  1  0  0  0  0
M  END
>  <MODEL>
7

>  <REMARK>
 VINA RESULT:      -7.7      1.724      2.083
  Name = 
  5 active torsions:
  status: ('A' for Active; 'I' for Inactive)
    1  A    between atoms: C_2  and  C_6
    2  A    between atoms: C_2  and  N_8
    3  A    between atoms: C_6  and  O_17
    4  A    between atoms: C_9  and  C_13
    5  A    between atoms: C_14  and  O_17
                            x       y       z     vdW  Elec       q    Type
                         _______ _______ _______ _____ _____    ______ ____

>  <TORSDO>
F 5

$$$$
=
 OpenBabel10232410023D

 26 29  0  0  0  0  0  0  0  0999 V2000
  187.3900  177.3780  144.7170 C   0  0  0  0  0  3  0  0  0  0  0  0
  188.5900  177.4130  142.0030 O   0  0  0  0  0  0  0  0  0  0  0  0
  188.7570  177.6360  140.7130 C   0  0  0  0  0  0  0  0  0  0  0  0
  187.4340  177.9260  142.3300 C   0  0  0  0  0  0  0  0  0  0  0  0
  186.8410  178.4900  141.2370 C   0  0  0  0  0  0  0  0  0  0  0  0
  185.5930  179.1050  141.3340 C   0  0  0  0  0  0  0  0  0  0  0  0
  184.8950  178.6090  144.8980 C   0  0  0  0  0  3  0  0  0  0  0  0
  185.5060  178.0300  146.0160 C   0  0  0  0  0  0  0  0  0  0  0  0
  186.7250  177.4340  145.9030 N   0  0  0  0  0  0  0  0  0  0  0  0
  186.8160  177.9430  143.5770 C   0  0  0  0  0  0  0  0  0  0  0  0
  185.5500  178.5680  143.6680 C   0  0  0  0  0  0  0  0  0  0  0  0
  184.8800  178.0630  147.2170 F   0  0  0  0  0  0  0  0  0  0  0  0
  184.9760  179.1270  142.5570 N   0  0  0  0  0  0  0  0  0  0  0  0
  187.6790  178.3210  140.1530 C   0  0  0  0  0  3  0  0  0  0  0  0
  189.9210  177.2170  139.9850 C   0  0  0  0  0  0  0  0  0  0  0  0
  192.0850  176.4390  138.6300 C   0  0  0  0  0  1  0  0  0  0  0  0
  190.8990  176.8660  139.3730 C   0  0  0  0  0  0  0  0  0  0  0  0
  184.9960  179.6800  140.2090 O   0  0  0  0  0  0  0  0  0  0  0  0
  184.1270  178.9520  139.3510 C   0  0  0  0  0  2  0  0  0  0  0  0
  182.8080  179.6900  139.1940 C   0  0  0  0  0  2  0  0  0  0  0  0
  180.4290  179.4690  139.1220 C   0  0  0  0  0  2  0  0  0  0  0  0
  179.9870  179.5000  141.4850 O   0  0  0  0  0  0  0  0  0  0  0  0
  181.2960  179.0640  141.7480 C   0  0  0  0  0  2  0  0  0  0  0  0
  181.6990  178.7510  139.3150 N   0  0  0  0  0  0  0  0  0  0  0  0
  180.0680  180.3200  140.3480 C   0  0  0  0  0  2  0  0  0  0  0  0
  181.7570  178.1120  140.6370 C   0  0  0  0  0  2  0  0  0  0  0  0
  1  9  1  0  0  0  0
  2  4  1  0  0  0  0
  3  2  1  0  0  0  0
  4 10  1  0  0  0  0
  5  6  1  0  0  0  0
  5  4  2  0  0  0  0
  6 13  2  0  0  0  0
  7  8  1  0  0  0  0
  8 12  1  0  0  0  0
  9  8  2  0  0  0  0
 10 11  1  0  0  0  0
 10  1  2  0  0  0  0
 11  7  2  0  0  0  0
 13 11  1  0  0  0  0
 14  3  2  0  0  0  0
 14  5  1  0  0  0  0
 15  3  1  0  0  0  0
 16 17  1  0  0  0  0
 17 15  3  0  0  0  0
 18  6  1  0  0  0  0
 19 18  1  0  0  0  0
 20 24  1  0  0  0  0
 20 19  1  0  0  0  0
 21 24  1  0  0  0  0
 21 25  1  0  0  0  0
 22 23  1  0  0  0  0
 24 26  1  0  0  0  0
 25 22  1  0  0  0  0
 26 23  1  0  0  0  0
M  END
>  <MODEL>
8

>  <REMARK>
 VINA RESULT:      -7.6      3.582      5.663
  Name = 
  5 active torsions:
  status: ('A' for Active; 'I' for Inactive)
    1  A    between atoms: C_2  and  C_6
    2  A    between atoms: C_2  and  N_8
    3  A    between atoms: C_6  and  O_17
    4  A    between atoms: C_9  and  C_13
    5  A    between atoms: C_14  and  O_17
                            x       y       z     vdW  Elec       q    Type
                         _______ _______ _______ _____ _____    ______ ____

>  <TORSDO>
F 5

$$$$
=
 OpenBabel10232410023D

 26 29  0  0  0  0  0  0  0  0999 V2000
  191.1750  176.5300  139.1100 C   0  0  0  0  0  3  0  0  0  0  0  0
  190.7280  176.8350  142.0280 O   0  0  0  0  0  0  0  0  0  0  0  0
  190.1780  177.1680  143.1800 C   0  0  0  0  0  0  0  0  0  0  0  0
  189.9340  177.2720  141.0860 C   0  0  0  0  0  0  0  0  0  0  0  0
  188.8520  177.8990  141.6350 C   0  0  0  0  0  0  0  0  0  0  0  0
  187.8570  178.4520  140.8290 C   0  0  0  0  0  0  0  0  0  0  0  0
  189.1810  177.6410  137.5080 C   0  0  0  0  0  3  0  0  0  0  0  0
  190.2920  176.9980  136.9500 C   0  0  0  0  0  0  0  0  0  0  0  0
  191.2530  176.4630  137.7530 N   0  0  0  0  0  0  0  0  0  0  0  0
  190.0840  177.1630  139.7080 C   0  0  0  0  0  0  0  0  0  0  0  0
  189.0720  177.7270  138.8960 C   0  0  0  0  0  0  0  0  0  0  0  0
  190.4100  176.9080  135.6030 F   0  0  0  0  0  0  0  0  0  0  0  0
  187.9950  178.3510  139.4700 N   0  0  0  0  0  0  0  0  0  0  0  0
  188.9740  177.8520  143.0100 C   0  0  0  0  0  3  0  0  0  0  0  0
  190.7620  176.8560  144.4530 C   0  0  0  0  0  0  0  0  0  0  0  0
  191.8470  176.2730  146.8210 C   0  0  0  0  0  1  0  0  0  0  0  0
  191.2520  176.5920  145.5220 C   0  0  0  0  0  0  0  0  0  0  0  0
  186.7530  179.0900  141.4010 O   0  0  0  0  0  0  0  0  0  0  0  0
  185.5220  178.4180  141.6350 C   0  0  0  0  0  2  0  0  0  0  0  0
  185.4420  177.9610  143.0820 C   0  0  0  0  0  2  0  0  0  0  0  0
  186.2120  178.5990  145.2540 C   0  0  0  0  0  2  0  0  0  0  0  0
  184.0820  178.8570  146.3360 O   0  0  0  0  0  0  0  0  0  0  0  0
  183.4620  179.0720  145.0950 C   0  0  0  0  0  2  0  0  0  0  0  0
  185.6810  179.0910  143.9720 N   0  0  0  0  0  0  0  0  0  0  0  0
  185.1180  177.9390  146.1040 C   0  0  0  0  0  2  0  0  0  0  0  0
  184.4210  179.8240  144.1610 C   0  0  0  0  0  2  0  0  0  0  0  0
  1 10  1  0  0  0  0
  2  3  1  0  0  0  0
  3 15  1  0  0  0  0
  4  5  2  0  0  0  0
  4  2  1  0  0  0  0
  5 14  1  0  0  0  0
  6 18  1  0  0  0  0
  6  5  1  0  0  0  0
  7 11  1  0  0  0  0
  8  7  2  0  0  0  0
  8  9  1  0  0  0  0
  9  1  2  0  0  0  0
 10  4  1  0  0  0  0
 11 13  1  0  0  0  0
 11 10  2  0  0  0  0
 12  8  1  0  0  0  0
 13  6  2  0  0  0  0
 14  3  2  0  0  0  0
 15 17  3  0  0  0  0
 17 16  1  0  0  0  0
 18 19  1  0  0  0  0
 19 20  1  0  0  0  0
 20 24  1  0  0  0  0
 21 25  1  0  0  0  0
 23 22  1  0  0  0  0
 24 26  1  0  0  0  0
 24 21  1  0  0  0  0
 25 22  1  0  0  0  0
 26 23  1  0  0  0  0
M  END
>  <MODEL>
9

>  <REMARK>
 VINA RESULT:      -7.6      3.209      6.962
  Name = 
  5 active torsions:
  status: ('A' for Active; 'I' for Inactive)
    1  A    between atoms: C_2  and  C_6
    2  A    between atoms: C_2  and  N_8
    3  A    between atoms: C_6  and  O_17
    4  A    between atoms: C_9  and  C_13
    5  A    between atoms: C_14  and  O_17
                            x       y       z     vdW  Elec       q    Type
                         _______ _______ _______ _____ _____    ______ ____

>  <TORSDO>
F 5

$$$$
