=
 OpenBabel10222421583D

 40 45  0  0  1  0  0  0  0  0999 V2000
  189.7360  176.7560  140.2240 C   0  0  1  0  0  3  0  0  0  0  0  0
  191.8750  176.8140  139.3450 C   0  0  0  0  0  0  0  0  0  0  0  0
  189.8030  176.5940  137.9430 C   0  0  0  0  0  0  0  0  0  0  0  0
  190.5570  176.1480  139.1510 C   0  0  2  0  0  3  0  0  0  0  0  0
  192.7510  176.7850  138.4970 O   0  0  0  0  0  0  0  0  0  0  0  0
  188.7150  177.2500  138.3130 C   0  0  0  0  0  0  0  0  0  0  0  0
  192.1370  177.5760  140.9560 S   0  0  0  0  0  0  0  0  0  0  0  0
  190.1560  176.2410  136.5380 C   0  0  0  0  0  1  0  0  0  0  0  0
  190.4380  177.1350  141.4770 C   0  0  2  0  0  3  0  0  0  0  0  0
  188.6940  177.4320  139.7540 C   0  0  0  0  0  2  0  0  0  0  0  0
  186.4050  177.7860  136.7620 C   0  0  1  0  0  3  0  0  0  0  0  0
  187.2740  178.8090  136.4380 C   0  0  0  0  0  2  0  0  0  0  0  0
  187.7460  177.7900  137.4180 N   0  0  0  0  0  0  0  0  0  0  0  0
  184.0520  177.7120  137.6890 N   0  0  0  0  0  2  0  0  0  0  0  0
  185.3720  178.2600  137.7330 C   0  0  0  0  0  0  0  0  0  0  0  0
  185.6790  179.1150  138.6070 O   0  0  0  0  0  0  0  0  0  0  0  0
  182.3940  175.8020  139.4820 C   0  0  0  0  0  2  0  0  0  0  0  0
  180.9260  176.0050  139.1320 C   0  0  0  0  0  2  0  0  0  0  0  0
  183.0070  178.0960  138.6300 C   0  0  1  0  0  3  0  0  0  0  0  0
  181.6780  178.0980  137.9300 C   0  0  0  0  0  0  0  0  0  0  0  0
  181.3830  179.0450  137.1570 O   0  0  0  0  0  0  0  0  0  0  0  0
  183.0080  177.1520  139.8370 C   0  0  0  0  0  2  0  0  0  0  0  0
  180.7810  176.9890  138.0640 N   0  0  0  0  0  2  0  0  0  0  0  0
  190.5060  175.9550  142.4370 C   0  0  0  0  0  2  0  0  0  0  0  0
  189.8560  177.5610  144.2120 C   0  0  1  0  0  3  0  0  0  0  0  0
  188.1860  176.2010  143.1970 C   0  0  0  0  0  2  0  0  0  0  0  0
  189.6130  176.1740  143.6460 C   0  0  1  0  0  3  0  0  0  0  0  0
  188.7060  178.3510  144.0220 O   0  0  0  0  0  0  0  0  0  0  0  0
  187.6390  177.4590  143.8190 C   0  0  1  0  0  3  0  0  0  0  0  0
  191.2980  176.0500  147.2460 N   0  0  0  0  0  1  0  0  0  0  0  0
  190.1960  177.4760  145.6950 C   0  0  1  0  0  3  0  0  0  0  0  0
  191.3180  176.5630  145.8880 C   0  0  1  0  0  3  0  0  0  0  0  0
  191.5460  178.0140  145.9210 N   0  0  0  0  0  2  0  0  0  0  0  0
  186.6190  178.0720  142.9100 C   0  0  0  0  0  3  0  0  0  0  0  0
  185.4150  178.4870  143.3280 C   0  0  0  0  0  3  0  0  0  0  0  0
  184.9490  178.3700  144.7490 C   0  0  1  0  0  3  0  0  0  0  0  0
  185.9570  178.6780  147.0100 C   0  0  0  0  0  1  0  0  0  0  0  0
  185.7710  179.2930  145.6360 C   0  0  0  0  0  2  0  0  0  0  0  0
  182.8800  178.8520  143.6030 O   0  0  0  0  0  1  0  0  0  0  0  0
  183.4540  178.6740  144.8640 C   0  0  0  0  0  2  0  0  0  0  0  0
  1 10  1  6  0  0  0
  1  9  1  0  0  0  0
  2  7  1  0  0  0  0
  3  6  2  0  0  0  0
  4  3  1  6  0  0  0
  4  2  1  0  0  0  0
  4  1  1  0  0  0  0
  5  2  2  0  0  0  0
  6 10  1  0  0  0  0
  7  9  1  0  0  0  0
  8  3  1  0  0  0  0
  9 24  1  1  0  0  0
 11 13  1  0  0  0  0
 11 15  1  1  0  0  0
 12 11  1  0  0  0  0
 12 13  1  0  0  0  0
 13  6  1  0  0  0  0
 14 15  1  0  0  0  0
 15 16  2  0  0  0  0
 17 22  1  0  0  0  0
 18 17  1  0  0  0  0
 19 14  1  6  0  0  0
 19 22  1  0  0  0  0
 20 23  1  0  0  0  0
 20 19  1  0  0  0  0
 21 20  2  0  0  0  0
 23 18  1  0  0  0  0
 25 28  1  1  0  0  0
 25 31  1  0  0  0  0
 26 27  1  0  0  0  0
 26 29  1  0  0  0  0
 27 24  1  6  0  0  0
 27 25  1  0  0  0  0
 29 34  1  6  0  0  0
 29 28  1  0  0  0  0
 31 32  1  0  0  0  0
 31 33  1  6  0  0  0
 32 33  1  0  0  0  0
 32 30  1  1  0  0  0
 34 35  2  0  0  0  0
 36 35  1  6  0  0  0
 36 40  1  0  0  0  0
 36 38  1  0  0  0  0
 38 37  1  0  0  0  0
 39 40  1  0  0  0  0
M  END
>  <MODEL>
1

>  <REMARK>
 VINA RESULT:      -8.3      0.000      0.000
  Name = 
  10 active torsions:
  status: ('A' for Active; 'I' for Inactive)
    1  A    between atoms: C_1  and  C_16
    2  A    between atoms: N_3  and  C_18
    3  A    between atoms: C_4  and  C_28
    4  A    between atoms: C_8  and  C_13
    5  A    between atoms: C_8  and  C_31
    6  A    between atoms: C_8  and  C_39
    7  A    between atoms: C_14  and  C_15
    8  A    between atoms: C_15  and  C_37
    9  A    between atoms: C_17  and  C_21
   10  A    between atoms: C_34  and  N_40
                            x       y       z     vdW  Elec       q    Type
                         _______ _______ _______ _____ _____    ______ ____

>  <TORSDO>
F 10

$$$$
=
 OpenBabel10222421583D

 40 45  0  0  1  0  0  0  0  0999 V2000
  189.9020  176.7190  140.1690 C   0  0  1  0  0  3  0  0  0  0  0  0
  192.1090  176.9710  139.5230 C   0  0  0  0  0  0  0  0  0  0  0  0
  190.2180  176.6350  137.9050 C   0  0  0  0  0  0  0  0  0  0  0  0
  190.8770  176.2110  139.1750 C   0  0  2  0  0  3  0  0  0  0  0  0
  193.0680  177.0370  138.7720 O   0  0  0  0  0  0  0  0  0  0  0  0
  189.0480  177.1930  138.1730 C   0  0  0  0  0  0  0  0  0  0  0  0
  192.1410  177.7000  141.1700 S   0  0  0  0  0  0  0  0  0  0  0  0
  190.7420  176.3560  136.5370 C   0  0  0  0  0  1  0  0  0  0  0  0
  190.4380  177.1120  141.4980 C   0  0  2  0  0  3  0  0  0  0  0  0
  188.8640  177.3270  139.6070 C   0  0  0  0  0  2  0  0  0  0  0  0
  187.1980  177.4950  136.0480 C   0  0  1  0  0  3  0  0  0  0  0  0
  187.3620  178.7760  136.5380 C   0  0  0  0  0  2  0  0  0  0  0  0
  188.1370  177.6850  137.1940 N   0  0  0  0  0  0  0  0  0  0  0  0
  185.7120  175.4890  136.4580 N   0  0  0  0  0  2  0  0  0  0  0  0
  185.9190  176.9010  136.5440 C   0  0  0  0  0  0  0  0  0  0  0  0
  185.0440  177.6440  137.0670 O   0  0  0  0  0  0  0  0  0  0  0  0
  185.2060  172.4350  136.6280 C   0  0  0  0  0  2  0  0  0  0  0  0
  183.9630  172.1300  135.8030 C   0  0  0  0  0  2  0  0  0  0  0  0
  184.5090  174.8370  136.9580 C   0  0  1  0  0  3  0  0  0  0  0  0
  183.5460  174.6230  135.8250 C   0  0  0  0  0  0  0  0  0  0  0  0
  182.8810  175.5950  135.3820 O   0  0  0  0  0  0  0  0  0  0  0  0
  184.8690  173.5160  137.6490 C   0  0  0  0  0  2  0  0  0  0  0  0
  183.4430  173.3460  135.1860 N   0  0  0  0  0  2  0  0  0  0  0  0
  190.5010  175.9110  142.4320 C   0  0  0  0  0  2  0  0  0  0  0  0
  189.9040  177.4660  144.2700 C   0  0  1  0  0  3  0  0  0  0  0  0
  188.1900  176.2010  143.2040 C   0  0  0  0  0  2  0  0  0  0  0  0
  189.6160  176.1110  143.6500 C   0  0  1  0  0  3  0  0  0  0  0  0
  188.7790  178.2990  144.1130 O   0  0  0  0  0  0  0  0  0  0  0  0
  187.6850  177.4500  143.8770 C   0  0  1  0  0  3  0  0  0  0  0  0
  191.4680  175.8960  147.2110 N   0  0  0  0  0  1  0  0  0  0  0  0
  190.2410  177.3120  145.7470 C   0  0  1  0  0  3  0  0  0  0  0  0
  191.4460  176.5010  145.8920 C   0  0  1  0  0  3  0  0  0  0  0  0
  191.5310  177.9620  146.0270 N   0  0  0  0  0  2  0  0  0  0  0  0
  186.6840  178.1310  142.9940 C   0  0  0  0  0  3  0  0  0  0  0  0
  185.4890  178.5550  143.4260 C   0  0  0  0  0  3  0  0  0  0  0  0
  185.0120  178.3800  144.8380 C   0  0  1  0  0  3  0  0  0  0  0  0
  186.2270  178.5310  147.0120 C   0  0  0  0  0  1  0  0  0  0  0  0
  185.8110  179.2860  145.7640 C   0  0  0  0  0  2  0  0  0  0  0  0
  183.0670  179.4480  143.8890 O   0  0  0  0  0  1  0  0  0  0  0  0
  183.5110  178.6550  144.9500 C   0  0  0  0  0  2  0  0  0  0  0  0
  1 10  1  6  0  0  0
  1  9  1  0  0  0  0
  2  7  1  0  0  0  0
  3  6  2  0  0  0  0
  4  3  1  6  0  0  0
  4  2  1  0  0  0  0
  4  1  1  0  0  0  0
  5  2  2  0  0  0  0
  6 10  1  0  0  0  0
  7  9  1  0  0  0  0
  8  3  1  0  0  0  0
  9 24  1  1  0  0  0
 11 12  1  0  0  0  0
 11 15  1  1  0  0  0
 11 13  1  0  0  0  0
 12 13  1  0  0  0  0
 13  6  1  0  0  0  0
 14 15  1  0  0  0  0
 15 16  2  0  0  0  0
 17 22  1  0  0  0  0
 18 17  1  0  0  0  0
 19 14  1  6  0  0  0
 19 22  1  0  0  0  0
 20 19  1  0  0  0  0
 21 20  2  0  0  0  0
 23 18  1  0  0  0  0
 23 20  1  0  0  0  0
 25 28  1  1  0  0  0
 25 31  1  0  0  0  0
 26 27  1  0  0  0  0
 26 29  1  0  0  0  0
 27 24  1  6  0  0  0
 27 25  1  0  0  0  0
 29 34  1  6  0  0  0
 29 28  1  0  0  0  0
 31 32  1  0  0  0  0
 31 33  1  6  0  0  0
 32 33  1  0  0  0  0
 32 30  1  1  0  0  0
 34 35  2  0  0  0  0
 36 35  1  6  0  0  0
 36 40  1  0  0  0  0
 36 38  1  0  0  0  0
 38 37  1  0  0  0  0
 39 40  1  0  0  0  0
M  END
>  <MODEL>
2

>  <REMARK>
 VINA RESULT:      -7.9      2.007      2.162
  Name = 
  10 active torsions:
  status: ('A' for Active; 'I' for Inactive)
    1  A    between atoms: C_1  and  C_16
    2  A    between atoms: N_3  and  C_18
    3  A    between atoms: C_4  and  C_28
    4  A    between atoms: C_8  and  C_13
    5  A    between atoms: C_8  and  C_31
    6  A    between atoms: C_8  and  C_39
    7  A    between atoms: C_14  and  C_15
    8  A    between atoms: C_15  and  C_37
    9  A    between atoms: C_17  and  C_21
   10  A    between atoms: C_34  and  N_40
                            x       y       z     vdW  Elec       q    Type
                         _______ _______ _______ _____ _____    ______ ____

>  <TORSDO>
F 10

$$$$
=
 OpenBabel10222421583D

 40 45  0  0  1  0  0  0  0  0999 V2000
  189.8200  176.7190  138.3320 C   0  0  1  0  0  3  0  0  0  0  0  0
  191.6210  175.4360  137.6510 C   0  0  0  0  0  0  0  0  0  0  0  0
  191.7190  177.0650  139.5590 C   0  0  0  0  0  0  0  0  0  0  0  0
  191.2890  176.7970  138.1560 C   0  0  2  0  0  3  0  0  0  0  0  0
  192.7620  175.0080  137.6320 O   0  0  0  0  0  0  0  0  0  0  0  0
  190.6550  177.1980  140.3350 C   0  0  0  0  0  0  0  0  0  0  0  0
  190.2430  174.4980  136.9670 S   0  0  0  0  0  0  0  0  0  0  0  0
  193.1290  177.2780  139.9940 C   0  0  0  0  0  1  0  0  0  0  0  0
  189.0740  175.8420  137.3930 C   0  0  2  0  0  3  0  0  0  0  0  0
  189.4430  176.9040  139.5920 C   0  0  0  0  0  2  0  0  0  0  0  0
  190.1730  178.1670  142.9540 C   0  0  1  0  0  3  0  0  0  0  0  0
  191.2690  177.3390  143.0970 C   0  0  0  0  0  2  0  0  0  0  0  0
  190.6950  177.4910  141.7290 N   0  0  0  0  0  0  0  0  0  0  0  0
  187.6720  178.1580  143.3370 N   0  0  0  0  0  2  0  0  0  0  0  0
  188.9280  177.4790  143.4120 C   0  0  0  0  0  0  0  0  0  0  0  0
  188.9870  176.2910  143.8310 O   0  0  0  0  0  0  0  0  0  0  0  0
  184.8350  179.3630  143.0000 C   0  0  0  0  0  2  0  0  0  0  0  0
  184.2050  179.4440  144.3830 C   0  0  0  0  0  2  0  0  0  0  0  0
  186.4140  177.5340  143.7270 C   0  0  1  0  0  3  0  0  0  0  0  0
  186.0780  177.9240  145.1380 C   0  0  0  0  0  0  0  0  0  0  0  0
  186.6880  177.3810  146.0950 O   0  0  0  0  0  0  0  0  0  0  0  0
  185.3000  177.9320  142.7520 C   0  0  0  0  0  2  0  0  0  0  0  0
  185.1350  178.9690  145.4020 N   0  0  0  0  0  2  0  0  0  0  0  0
  188.7070  176.5980  136.1230 C   0  0  0  0  0  2  0  0  0  0  0  0
  186.5200  175.6940  136.8670 C   0  0  1  0  0  3  0  0  0  0  0  0
  186.7450  178.0310  136.4710 C   0  0  0  0  0  2  0  0  0  0  0  0
  187.2000  176.7000  135.9580 C   0  0  1  0  0  3  0  0  0  0  0  0
  185.8110  176.3770  137.8740 O   0  0  0  0  0  0  0  0  0  0  0  0
  185.6120  177.6860  137.4020 C   0  0  1  0  0  3  0  0  0  0  0  0
  185.6070  173.1640  134.3500 N   0  0  0  0  0  1  0  0  0  0  0  0
  185.5720  174.8110  136.0640 C   0  0  1  0  0  3  0  0  0  0  0  0
  186.3070  173.6770  135.5140 C   0  0  1  0  0  3  0  0  0  0  0  0
  185.4680  173.4910  136.7050 N   0  0  0  0  0  2  0  0  0  0  0  0
  185.5880  178.6500  138.5480 C   0  0  0  0  0  3  0  0  0  0  0  0
  184.4830  178.9280  139.2530 C   0  0  0  0  0  3  0  0  0  0  0  0
  183.1430  178.3180  138.9620 C   0  0  1  0  0  3  0  0  0  0  0  0
  182.6480  175.8890  139.2480 C   0  0  0  0  0  1  0  0  0  0  0  0
  182.8560  177.2100  139.9660 C   0  0  0  0  0  2  0  0  0  0  0  0
  180.9360  178.9450  139.7120 O   0  0  0  0  0  1  0  0  0  0  0  0
  182.0410  179.3790  138.9750 C   0  0  0  0  0  2  0  0  0  0  0  0
  1 10  1  1  0  0  0
  3  8  1  0  0  0  0
  3  6  2  0  0  0  0
  4  2  1  1  0  0  0
  4  1  1  0  0  0  0
  4  3  1  0  0  0  0
  5  2  2  0  0  0  0
  6 13  1  0  0  0  0
  7  9  1  0  0  0  0
  7  2  1  0  0  0  0
  9 24  1  6  0  0  0
  9  1  1  0  0  0  0
 10  6  1  0  0  0  0
 11 12  1  0  0  0  0
 11 15  1  1  0  0  0
 13 11  1  0  0  0  0
 13 12  1  0  0  0  0
 14 15  1  0  0  0  0
 15 16  2  0  0  0  0
 17 18  1  0  0  0  0
 18 23  1  0  0  0  0
 19 14  1  6  0  0  0
 19 20  1  0  0  0  0
 20 23  1  0  0  0  0
 20 21  2  0  0  0  0
 22 17  1  0  0  0  0
 22 19  1  0  0  0  0
 25 28  1  1  0  0  0
 26 29  1  0  0  0  0
 27 24  1  1  0  0  0
 27 26  1  0  0  0  0
 27 25  1  0  0  0  0
 29 28  1  0  0  0  0
 29 34  1  1  0  0  0
 31 33  1  1  0  0  0
 31 25  1  0  0  0  0
 32 30  1  6  0  0  0
 32 31  1  0  0  0  0
 32 33  1  0  0  0  0
 34 35  2  0  0  0  0
 36 40  1  1  0  0  0
 36 35  1  0  0  0  0
 36 38  1  0  0  0  0
 37 38  1  0  0  0  0
 40 39  1  0  0  0  0
M  END
>  <MODEL>
3

>  <REMARK>
 VINA RESULT:      -7.6      2.589      7.004
  Name = 
  10 active torsions:
  status: ('A' for Active; 'I' for Inactive)
    1  A    between atoms: C_1  and  C_16
    2  A    between atoms: N_3  and  C_18
    3  A    between atoms: C_4  and  C_28
    4  A    between atoms: C_8  and  C_13
    5  A    between atoms: C_8  and  C_31
    6  A    between atoms: C_8  and  C_39
    7  A    between atoms: C_14  and  C_15
    8  A    between atoms: C_15  and  C_37
    9  A    between atoms: C_17  and  C_21
   10  A    between atoms: C_34  and  N_40
                            x       y       z     vdW  Elec       q    Type
                         _______ _______ _______ _____ _____    ______ ____

>  <TORSDO>
F 10

$$$$
=
 OpenBabel10222421583D

 40 45  0  0  1  0  0  0  0  0999 V2000
  186.7990  177.3540  137.1050 C   0  0  1  0  0  3  0  0  0  0  0  0
  186.8440  176.1250  135.1450 C   0  0  0  0  0  0  0  0  0  0  0  0
  185.2380  175.6830  137.0240 C   0  0  0  0  0  0  0  0  0  0  0  0
  186.6450  175.9650  136.6120 C   0  0  2  0  0  3  0  0  0  0  0  0
  186.5360  175.2570  134.3460 O   0  0  0  0  0  0  0  0  0  0  0  0
  184.7560  176.7130  137.7010 C   0  0  0  0  0  0  0  0  0  0  0  0
  187.6720  177.6390  134.6290 S   0  0  0  0  0  0  0  0  0  0  0  0
  184.5310  174.3870  136.8150 C   0  0  0  0  0  1  0  0  0  0  0  0
  187.7370  178.2320  136.3600 C   0  0  2  0  0  3  0  0  0  0  0  0
  185.7020  177.8140  137.6960 C   0  0  0  0  0  2  0  0  0  0  0  0
  182.5080  176.6810  139.4270 C   0  0  1  0  0  3  0  0  0  0  0  0
  181.9810  177.0040  138.1920 C   0  0  0  0  0  2  0  0  0  0  0  0
  183.4520  176.7730  138.2730 N   0  0  0  0  0  0  0  0  0  0  0  0
  183.6170  177.9360  141.3240 N   0  0  0  0  0  2  0  0  0  0  0  0
  182.6410  177.9020  140.2780 C   0  0  0  0  0  0  0  0  0  0  0  0
  181.9160  178.9080  140.0490 O   0  0  0  0  0  0  0  0  0  0  0  0
  185.7850  178.2600  143.5160 C   0  0  0  0  0  2  0  0  0  0  0  0
  185.0690  178.5400  144.8300 C   0  0  0  0  0  2  0  0  0  0  0  0
  183.8300  179.1070  142.1650 C   0  0  1  0  0  3  0  0  0  0  0  0
  183.0160  178.9760  143.4210 C   0  0  0  0  0  0  0  0  0  0  0  0
  181.7750  179.1810  143.3830 O   0  0  0  0  0  0  0  0  0  0  0  0
  185.3220  179.2740  142.4740 C   0  0  0  0  0  2  0  0  0  0  0  0
  183.6220  178.5340  144.6400 N   0  0  0  0  0  2  0  0  0  0  0  0
  189.1580  178.0730  136.8840 C   0  0  0  0  0  2  0  0  0  0  0  0
  190.5170  176.1080  137.5510 C   0  0  1  0  0  3  0  0  0  0  0  0
  189.4810  177.4380  139.2330 C   0  0  0  0  0  2  0  0  0  0  0  0
  189.2620  176.9060  137.8510 C   0  0  1  0  0  3  0  0  0  0  0  0
  191.4230  176.2420  138.6200 O   0  0  0  0  0  0  0  0  0  0  0  0
  190.6690  176.6570  139.7310 C   0  0  1  0  0  3  0  0  0  0  0  0
  189.1320  173.2120  135.7440 N   0  0  0  0  0  1  0  0  0  0  0  0
  190.1720  174.6390  137.3360 C   0  0  1  0  0  3  0  0  0  0  0  0
  189.9670  174.3880  135.9130 C   0  0  1  0  0  3  0  0  0  0  0  0
  191.2340  173.9960  136.5460 N   0  0  0  0  0  2  0  0  0  0  0  0
  191.5020  177.5190  140.6280 C   0  0  0  0  0  3  0  0  0  0  0  0
  191.5450  177.3720  141.9600 C   0  0  0  0  0  3  0  0  0  0  0  0
  190.7510  176.3370  142.7010 C   0  0  1  0  0  3  0  0  0  0  0  0
  191.4330  176.9410  145.0240 C   0  0  0  0  0  1  0  0  0  0  0  0
  191.5210  175.8880  143.9350 C   0  0  0  0  0  2  0  0  0  0  0  0
  188.4140  175.8470  143.0540 O   0  0  0  0  0  1  0  0  0  0  0  0
  189.3660  176.8700  143.0730 C   0  0  0  0  0  2  0  0  0  0  0  0
  1 10  1  6  0  0  0
  3  6  2  0  0  0  0
  4  2  1  6  0  0  0
  4  3  1  0  0  0  0
  4  1  1  0  0  0  0
  5  2  2  0  0  0  0
  6 13  1  0  0  0  0
  7  2  1  0  0  0  0
  7  9  1  0  0  0  0
  8  3  1  0  0  0  0
  9 24  1  1  0  0  0
  9  1  1  0  0  0  0
 10  6  1  0  0  0  0
 11 15  1  1  0  0  0
 12 13  1  0  0  0  0
 12 11  1  0  0  0  0
 13 11  1  0  0  0  0
 15 14  1  0  0  0  0
 16 15  2  0  0  0  0
 17 18  1  0  0  0  0
 19 14  1  6  0  0  0
 19 22  1  0  0  0  0
 19 20  1  0  0  0  0
 20 23  1  0  0  0  0
 21 20  2  0  0  0  0
 22 17  1  0  0  0  0
 23 18  1  0  0  0  0
 25 27  1  0  0  0  0
 25 28  1  1  0  0  0
 26 29  1  0  0  0  0
 27 24  1  6  0  0  0
 27 26  1  0  0  0  0
 28 29  1  0  0  0  0
 29 34  1  1  0  0  0
 31 33  1  6  0  0  0
 31 25  1  0  0  0  0
 32 30  1  1  0  0  0
 32 33  1  0  0  0  0
 32 31  1  0  0  0  0
 34 35  2  0  0  0  0
 36 35  1  1  0  0  0
 36 40  1  0  0  0  0
 36 38  1  0  0  0  0
 38 37  1  0  0  0  0
 39 40  1  0  0  0  0
M  END
>  <MODEL>
4

>  <REMARK>
 VINA RESULT:      -7.5      2.747      6.340
  Name = 
  10 active torsions:
  status: ('A' for Active; 'I' for Inactive)
    1  A    between atoms: C_1  and  C_16
    2  A    between atoms: N_3  and  C_18
    3  A    between atoms: C_4  and  C_28
    4  A    between atoms: C_8  and  C_13
    5  A    between atoms: C_8  and  C_31
    6  A    between atoms: C_8  and  C_39
    7  A    between atoms: C_14  and  C_15
    8  A    between atoms: C_15  and  C_37
    9  A    between atoms: C_17  and  C_21
   10  A    between atoms: C_34  and  N_40
                            x       y       z     vdW  Elec       q    Type
                         _______ _______ _______ _____ _____    ______ ____

>  <TORSDO>
F 10

$$$$
=
 OpenBabel10222421583D

 40 45  0  0  1  0  0  0  0  0999 V2000
  185.8300  177.8660  143.1960 C   0  0  1  0  0  3  0  0  0  0  0  0
  185.2230  179.1420  145.0280 C   0  0  0  0  0  0  0  0  0  0  0  0
  187.1050  177.4800  145.0560 C   0  0  0  0  0  0  0  0  0  0  0  0
  185.6940  177.7750  144.6690 C   0  0  2  0  0  3  0  0  0  0  0  0
  185.2430  179.5590  146.1740 O   0  0  0  0  0  0  0  0  0  0  0  0
  187.8480  177.3450  143.9700 C   0  0  0  0  0  0  0  0  0  0  0  0
  184.5160  180.1050  143.6800 S   0  0  0  0  0  0  0  0  0  0  0  0
  187.5750  177.2450  146.4520 C   0  0  0  0  0  1  0  0  0  0  0  0
  184.8850  178.7660  142.4870 C   0  0  2  0  0  3  0  0  0  0  0  0
  187.0760  177.6630  142.7820 C   0  0  0  0  0  2  0  0  0  0  0  0
  190.4460  176.3860  143.3700 C   0  0  1  0  0  3  0  0  0  0  0  0
  190.6120  177.1030  144.5380 C   0  0  0  0  0  2  0  0  0  0  0  0
  189.2370  177.0280  143.9670 N   0  0  0  0  0  0  0  0  0  0  0  0
  190.7610  176.6500  140.8730 N   0  0  0  0  0  2  0  0  0  0  0  0
  190.9040  177.1840  142.1920 C   0  0  0  0  0  0  0  0  0  0  0  0
  191.3840  178.3370  142.3640 O   0  0  0  0  0  0  0  0  0  0  0  0
  190.1470  175.8570  137.9390 C   0  0  0  0  0  2  0  0  0  0  0  0
  191.4790  175.7200  137.2140 C   0  0  0  0  0  2  0  0  0  0  0  0
  191.1470  177.3880  139.6770 C   0  0  1  0  0  3  0  0  0  0  0  0
  192.4890  176.9070  139.2040 C   0  0  0  0  0  0  0  0  0  0  0  0
  193.5300  177.2700  139.8110 O   0  0  0  0  0  0  0  0  0  0  0  0
  190.0770  177.2340  138.5900 C   0  0  0  0  0  2  0  0  0  0  0  0
  192.5900  175.9710  138.1250 N   0  0  0  0  0  2  0  0  0  0  0  0
  183.5930  178.0350  142.1480 C   0  0  0  0  0  2  0  0  0  0  0  0
  183.3350  179.5320  140.1870 C   0  0  1  0  0  3  0  0  0  0  0  0
  184.4240  177.4310  139.9190 C   0  0  0  0  0  2  0  0  0  0  0  0
  183.3020  178.0900  140.6590 C   0  0  1  0  0  3  0  0  0  0  0  0
  184.4340  179.7170  139.3270 O   0  0  0  0  0  0  0  0  0  0  0  0
  184.7970  178.4400  138.8650 C   0  0  1  0  0  3  0  0  0  0  0  0
  180.0610  178.8560  138.6420 N   0  0  0  0  0  1  0  0  0  0  0  0
  182.0390  179.8840  139.4670 C   0  0  1  0  0  3  0  0  0  0  0  0
  181.0470  178.8410  139.7070 C   0  0  1  0  0  3  0  0  0  0  0  0
  180.9710  180.1030  140.4550 N   0  0  0  0  0  2  0  0  0  0  0  0
  186.2720  178.3830  138.6100 C   0  0  0  0  0  3  0  0  0  0  0  0
  186.8060  177.8870  137.4860 C   0  0  0  0  0  3  0  0  0  0  0  0
  185.9880  177.3170  136.3650 C   0  0  1  0  0  3  0  0  0  0  0  0
  188.1800  177.7640  135.2600 C   0  0  0  0  0  1  0  0  0  0  0  0
  186.6920  177.5660  135.0390 C   0  0  0  0  0  2  0  0  0  0  0  0
  186.7320  175.2420  137.3470 O   0  0  0  0  0  1  0  0  0  0  0  0
  185.7210  175.8260  136.5810 C   0  0  0  0  0  2  0  0  0  0  0  0
  1 10  1  1  0  0  0
  1  4  1  0  0  0  0
  2  5  2  0  0  0  0
  3  8  1  0  0  0  0
  4  2  1  1  0  0  0
  4  3  1  0  0  0  0
  6  3  2  0  0  0  0
  7  2  1  0  0  0  0
  9 24  1  1  0  0  0
  9  1  1  0  0  0  0
  9  7  1  0  0  0  0
 10  6  1  0  0  0  0
 11 15  1  6  0  0  0
 11 13  1  0  0  0  0
 11 12  1  0  0  0  0
 13  6  1  0  0  0  0
 13 12  1  0  0  0  0
 14 15  1  0  0  0  0
 15 16  2  0  0  0  0
 17 22  1  0  0  0  0
 18 17  1  0  0  0  0
 18 23  1  0  0  0  0
 19 14  1  1  0  0  0
 20 19  1  0  0  0  0
 20 21  2  0  0  0  0
 22 19  1  0  0  0  0
 23 20  1  0  0  0  0
 25 28  1  6  0  0  0
 25 27  1  0  0  0  0
 26 27  1  0  0  0  0
 27 24  1  1  0  0  0
 29 34  1  1  0  0  0
 29 28  1  0  0  0  0
 29 26  1  0  0  0  0
 31 32  1  0  0  0  0
 31 25  1  0  0  0  0
 31 33  1  1  0  0  0
 32 30  1  6  0  0  0
 32 33  1  0  0  0  0
 35 34  2  0  0  0  0
 36 38  1  6  0  0  0
 36 40  1  0  0  0  0
 36 35  1  0  0  0  0
 38 37  1  0  0  0  0
 40 39  1  0  0  0  0
M  END
>  <MODEL>
5

>  <REMARK>
 VINA RESULT:      -7.5      2.512      8.776
  Name = 
  10 active torsions:
  status: ('A' for Active; 'I' for Inactive)
    1  A    between atoms: C_1  and  C_16
    2  A    between atoms: N_3  and  C_18
    3  A    between atoms: C_4  and  C_28
    4  A    between atoms: C_8  and  C_13
    5  A    between atoms: C_8  and  C_31
    6  A    between atoms: C_8  and  C_39
    7  A    between atoms: C_14  and  C_15
    8  A    between atoms: C_15  and  C_37
    9  A    between atoms: C_17  and  C_21
   10  A    between atoms: C_34  and  N_40
                            x       y       z     vdW  Elec       q    Type
                         _______ _______ _______ _____ _____    ______ ____

>  <TORSDO>
F 10

$$$$
=
 OpenBabel10222421583D

 40 45  0  0  1  0  0  0  0  0999 V2000
  186.0090  177.9280  143.6700 C   0  0  1  0  0  3  0  0  0  0  0  0
  185.5270  179.1670  145.5630 C   0  0  0  0  0  0  0  0  0  0  0  0
  187.3370  177.4290  145.4640 C   0  0  0  0  0  0  0  0  0  0  0  0
  185.9270  177.7950  145.1430 C   0  0  2  0  0  3  0  0  0  0  0  0
  185.6090  179.5450  146.7200 O   0  0  0  0  0  0  0  0  0  0  0  0
  188.0310  177.3000  144.3450 C   0  0  0  0  0  0  0  0  0  0  0  0
  184.8100  180.2010  144.2750 S   0  0  0  0  0  0  0  0  0  0  0  0
  187.8510  177.1300  146.8320 C   0  0  0  0  0  1  0  0  0  0  0  0
  185.0770  178.8890  143.0270 C   0  0  2  0  0  3  0  0  0  0  0  0
  187.2280  177.6890  143.2000 C   0  0  0  0  0  2  0  0  0  0  0  0
  190.5640  176.2660  143.6070 C   0  0  1  0  0  3  0  0  0  0  0  0
  190.8010  176.9180  144.8010 C   0  0  0  0  0  2  0  0  0  0  0  0
  189.4050  176.9270  144.2770 N   0  0  0  0  0  0  0  0  0  0  0  0
  190.5730  176.7810  141.1290 N   0  0  0  0  0  2  0  0  0  0  0  0
  191.0150  177.1000  142.4520 C   0  0  0  0  0  0  0  0  0  0  0  0
  191.7560  178.1000  142.6530 O   0  0  0  0  0  0  0  0  0  0  0  0
  189.4530  176.4590  138.2570 C   0  0  0  0  0  2  0  0  0  0  0  0
  190.6310  176.1750  137.3350 C   0  0  0  0  0  2  0  0  0  0  0  0
  190.9390  177.5740  139.9630 C   0  0  1  0  0  3  0  0  0  0  0  0
  192.0940  176.9230  139.2570 C   0  0  0  0  0  0  0  0  0  0  0  0
  193.2530  177.0220  139.7360 O   0  0  0  0  0  0  0  0  0  0  0  0
  189.7310  177.7400  139.0350 C   0  0  0  0  0  2  0  0  0  0  0  0
  191.8760  176.1160  138.0940 N   0  0  0  0  0  2  0  0  0  0  0  0
  183.7430  178.2230  142.7180 C   0  0  0  0  0  2  0  0  0  0  0  0
  183.7570  177.7860  140.2760 C   0  0  1  0  0  3  0  0  0  0  0  0
  181.7230  178.4250  141.3380 C   0  0  0  0  0  2  0  0  0  0  0  0
  183.1990  178.6730  141.3730 C   0  0  1  0  0  3  0  0  0  0  0  0
  182.7140  177.0210  139.7180 O   0  0  0  0  0  0  0  0  0  0  0  0
  181.5170  177.6820  140.0440 C   0  0  1  0  0  3  0  0  0  0  0  0
  186.4570  178.7820  137.9780 N   0  0  0  0  0  1  0  0  0  0  0  0
  184.4210  178.6320  139.1970 C   0  0  1  0  0  3  0  0  0  0  0  0
  185.4970  177.8690  138.5710 C   0  0  1  0  0  3  0  0  0  0  0  0
  184.2070  178.0080  137.8820 N   0  0  0  0  0  2  0  0  0  0  0  0
  180.4050  176.6910  140.2010 C   0  0  0  0  0  3  0  0  0  0  0  0
  180.0580  175.8170  139.2470 C   0  0  0  0  0  3  0  0  0  0  0  0
  180.7320  175.7450  137.9080 C   0  0  1  0  0  3  0  0  0  0  0  0
  182.2840  173.9610  137.1120 C   0  0  0  0  0  1  0  0  0  0  0  0
  180.8470  174.2920  137.4710 C   0  0  0  0  0  2  0  0  0  0  0  0
  180.8290  177.5220  136.2780 O   0  0  0  0  0  1  0  0  0  0  0  0
  179.9830  176.5810  136.8690 C   0  0  0  0  0  2  0  0  0  0  0  0
  1 10  1  1  0  0  0
  1  4  1  0  0  0  0
  2  5  2  0  0  0  0
  3  8  1  0  0  0  0
  4  3  1  1  0  0  0
  4  2  1  0  0  0  0
  6  3  2  0  0  0  0
  7  2  1  0  0  0  0
  9 24  1  1  0  0  0
  9  1  1  0  0  0  0
  9  7  1  0  0  0  0
 10  6  1  0  0  0  0
 11 15  1  6  0  0  0
 11 13  1  0  0  0  0
 11 12  1  0  0  0  0
 13  6  1  0  0  0  0
 13 12  1  0  0  0  0
 14 15  1  0  0  0  0
 15 16  2  0  0  0  0
 17 22  1  0  0  0  0
 18 23  1  0  0  0  0
 18 17  1  0  0  0  0
 19 14  1  1  0  0  0
 20 21  2  0  0  0  0
 20 19  1  0  0  0  0
 22 19  1  0  0  0  0
 23 20  1  0  0  0  0
 25 28  1  6  0  0  0
 25 27  1  0  0  0  0
 26 27  1  0  0  0  0
 27 24  1  1  0  0  0
 28 29  1  0  0  0  0
 29 34  1  1  0  0  0
 29 26  1  0  0  0  0
 31 33  1  6  0  0  0
 31 25  1  0  0  0  0
 32 30  1  6  0  0  0
 32 31  1  0  0  0  0
 33 32  1  0  0  0  0
 35 34  2  0  0  0  0
 36 40  1  6  0  0  0
 36 35  1  0  0  0  0
 37 38  1  0  0  0  0
 38 36  1  0  0  0  0
 39 40  1  0  0  0  0
M  END
>  <MODEL>
6

>  <REMARK>
 VINA RESULT:      -7.2      2.448      8.548
  Name = 
  10 active torsions:
  status: ('A' for Active; 'I' for Inactive)
    1  A    between atoms: C_1  and  C_16
    2  A    between atoms: N_3  and  C_18
    3  A    between atoms: C_4  and  C_28
    4  A    between atoms: C_8  and  C_13
    5  A    between atoms: C_8  and  C_31
    6  A    between atoms: C_8  and  C_39
    7  A    between atoms: C_14  and  C_15
    8  A    between atoms: C_15  and  C_37
    9  A    between atoms: C_17  and  C_21
   10  A    between atoms: C_34  and  N_40
                            x       y       z     vdW  Elec       q    Type
                         _______ _______ _______ _____ _____    ______ ____

>  <TORSDO>
F 10

$$$$
=
 OpenBabel10222421583D

 40 45  0  0  1  0  0  0  0  0999 V2000
  184.2200  178.3600  140.6590 C   0  0  1  0  0  3  0  0  0  0  0  0
  182.1510  179.3520  140.3650 C   0  0  0  0  0  0  0  0  0  0  0  0
  183.0320  178.6140  142.5980 C   0  0  0  0  0  0  0  0  0  0  0  0
  182.8260  178.2870  141.1560 C   0  0  2  0  0  3  0  0  0  0  0  0
  181.0530  179.7910  140.6640 O   0  0  0  0  0  0  0  0  0  0  0  0
  184.3250  178.7500  142.8450 C   0  0  0  0  0  0  0  0  0  0  0  0
  183.0080  179.8800  138.8710 S   0  0  0  0  0  0  0  0  0  0  0  0
  181.9540  178.6560  143.6260 C   0  0  0  0  0  1  0  0  0  0  0  0
  184.4090  178.7610  139.2410 C   0  0  2  0  0  3  0  0  0  0  0  0
  185.0910  178.6700  141.6130 C   0  0  0  0  0  2  0  0  0  0  0  0
  185.2260  178.6600  145.5300 C   0  0  1  0  0  3  0  0  0  0  0  0
  185.6060  179.9120  145.0880 C   0  0  0  0  0  2  0  0  0  0  0  0
  184.8840  179.0320  144.1250 N   0  0  0  0  0  0  0  0  0  0  0  0
  187.5610  178.0480  144.7710 N   0  0  0  0  0  2  0  0  0  0  0  0
  186.3920  177.7250  145.5300 C   0  0  0  0  0  0  0  0  0  0  0  0
  186.3520  176.6740  146.2240 O   0  0  0  0  0  0  0  0  0  0  0  0
  190.4590  178.9580  144.1520 C   0  0  0  0  0  2  0  0  0  0  0  0
  190.9480  178.1480  142.9600 C   0  0  0  0  0  2  0  0  0  0  0  0
  188.7490  177.2050  144.7570 C   0  0  1  0  0  3  0  0  0  0  0  0
  188.9540  176.6510  143.3760 C   0  0  0  0  0  0  0  0  0  0  0  0
  188.2310  175.7050  142.9710 O   0  0  0  0  0  0  0  0  0  0  0  0
  189.9700  178.0000  145.2330 C   0  0  0  0  0  2  0  0  0  0  0  0
  189.9030  177.2470  142.4850 N   0  0  0  0  0  2  0  0  0  0  0  0
  184.3300  177.5490  138.3230 C   0  0  0  0  0  2  0  0  0  0  0  0
  186.4340  176.6540  137.3600 C   0  0  1  0  0  3  0  0  0  0  0  0
  184.6380  177.2340  135.9080 C   0  0  0  0  0  2  0  0  0  0  0  0
  185.3150  177.6620  137.1720 C   0  0  1  0  0  3  0  0  0  0  0  0
  186.3540  175.6750  136.3510 O   0  0  0  0  0  0  0  0  0  0  0  0
  185.5940  176.2360  135.3100 C   0  0  1  0  0  3  0  0  0  0  0  0
  188.9810  179.1190  138.3580 N   0  0  0  0  0  1  0  0  0  0  0  0
  187.7880  177.3490  137.3110 C   0  0  1  0  0  3  0  0  0  0  0  0
  188.0260  178.0460  138.5710 C   0  0  1  0  0  3  0  0  0  0  0  0
  188.6820  176.7570  138.3180 N   0  0  0  0  0  2  0  0  0  0  0  0
  184.8280  175.1670  134.5950 C   0  0  0  0  0  3  0  0  0  0  0  0
  184.1460  174.2020  135.2260 C   0  0  0  0  0  3  0  0  0  0  0  0
  184.0870  174.0750  136.7200 C   0  0  1  0  0  3  0  0  0  0  0  0
  181.6620  173.7550  136.2310 C   0  0  0  0  0  1  0  0  0  0  0  0
  182.6690  174.3420  137.2020 C   0  0  0  0  0  2  0  0  0  0  0  0
  185.6210  172.8170  138.0960 O   0  0  0  0  0  1  0  0  0  0  0  0
  184.5780  172.6980  137.1740 C   0  0  0  0  0  2  0  0  0  0  0  0
  1  4  1  0  0  0  0
  1 10  1  1  0  0  0
  2  5  2  0  0  0  0
  3  6  2  0  0  0  0
  3  8  1  0  0  0  0
  4  2  1  6  0  0  0
  4  3  1  0  0  0  0
  6 13  1  0  0  0  0
  7  9  1  0  0  0  0
  7  2  1  0  0  0  0
  9 24  1  6  0  0  0
  9  1  1  0  0  0  0
 10  6  1  0  0  0  0
 11 15  1  6  0  0  0
 12 11  1  0  0  0  0
 13 12  1  0  0  0  0
 13 11  1  0  0  0  0
 14 15  1  0  0  0  0
 15 16  2  0  0  0  0
 17 22  1  0  0  0  0
 18 17  1  0  0  0  0
 19 14  1  6  0  0  0
 19 22  1  0  0  0  0
 20 19  1  0  0  0  0
 21 20  2  0  0  0  0
 23 18  1  0  0  0  0
 23 20  1  0  0  0  0
 25 28  1  6  0  0  0
 26 27  1  0  0  0  0
 27 25  1  0  0  0  0
 27 24  1  1  0  0  0
 29 34  1  1  0  0  0
 29 26  1  0  0  0  0
 29 28  1  0  0  0  0
 31 25  1  0  0  0  0
 31 33  1  1  0  0  0
 31 32  1  0  0  0  0
 32 30  1  6  0  0  0
 33 32  1  0  0  0  0
 34 35  2  0  0  0  0
 36 35  1  6  0  0  0
 36 40  1  0  0  0  0
 36 38  1  0  0  0  0
 37 38  1  0  0  0  0
 40 39  1  0  0  0  0
M  END
>  <MODEL>
7

>  <REMARK>
 VINA RESULT:      -7.0      3.253      8.914
  Name = 
  10 active torsions:
  status: ('A' for Active; 'I' for Inactive)
    1  A    between atoms: C_1  and  C_16
    2  A    between atoms: N_3  and  C_18
    3  A    between atoms: C_4  and  C_28
    4  A    between atoms: C_8  and  C_13
    5  A    between atoms: C_8  and  C_31
    6  A    between atoms: C_8  and  C_39
    7  A    between atoms: C_14  and  C_15
    8  A    between atoms: C_15  and  C_37
    9  A    between atoms: C_17  and  C_21
   10  A    between atoms: C_34  and  N_40
                            x       y       z     vdW  Elec       q    Type
                         _______ _______ _______ _____ _____    ______ ____

>  <TORSDO>
F 10

$$$$
=
 OpenBabel10222421583D

 40 45  0  0  1  0  0  0  0  0999 V2000
  183.2180  177.8840  140.3590 C   0  0  1  0  0  3  0  0  0  0  0  0
  181.3790  179.2400  140.0020 C   0  0  0  0  0  0  0  0  0  0  0  0
  182.3160  178.7430  142.2780 C   0  0  0  0  0  0  0  0  0  0  0  0
  181.8980  178.2130  140.9470 C   0  0  2  0  0  3  0  0  0  0  0  0
  180.4310  179.9590  140.2750 O   0  0  0  0  0  0  0  0  0  0  0  0
  183.6270  178.6300  142.4130 C   0  0  0  0  0  0  0  0  0  0  0  0
  182.1660  179.2840  138.3820 S   0  0  0  0  0  0  0  0  0  0  0  0
  181.3810  179.2090  143.3420 C   0  0  0  0  0  1  0  0  0  0  0  0
  183.3380  177.9670  138.8810 C   0  0  2  0  0  3  0  0  0  0  0  0
  184.2280  178.1600  141.1770 C   0  0  0  0  0  2  0  0  0  0  0  0
  184.9030  178.7470  144.9400 C   0  0  1  0  0  3  0  0  0  0  0  0
  185.2100  179.9570  144.3510 C   0  0  0  0  0  2  0  0  0  0  0  0
  184.3620  179.0090  143.5730 N   0  0  0  0  0  0  0  0  0  0  0  0
  187.0040  177.9460  143.7800 N   0  0  0  0  0  2  0  0  0  0  0  0
  186.0610  177.8070  144.8470 C   0  0  0  0  0  0  0  0  0  0  0  0
  186.2200  176.9180  145.7280 O   0  0  0  0  0  0  0  0  0  0  0  0
  189.7650  178.3950  145.1160 C   0  0  0  0  0  2  0  0  0  0  0  0
  190.8020  178.4880  144.0050 C   0  0  0  0  0  2  0  0  0  0  0  0
  188.1780  177.0920  143.6510 C   0  0  1  0  0  3  0  0  0  0  0  0
  189.0080  177.5550  142.4870 C   0  0  0  0  0  0  0  0  0  0  0  0
  188.6390  177.2910  141.3140 O   0  0  0  0  0  0  0  0  0  0  0  0
  188.9830  177.0960  144.9550 C   0  0  0  0  0  2  0  0  0  0  0  0
  190.1670  178.3710  142.6960 N   0  0  0  0  0  2  0  0  0  0  0  0
  182.9150  176.6570  138.2300 C   0  0  0  0  0  2  0  0  0  0  0  0
  183.8820  175.6340  136.1870 C   0  0  1  0  0  3  0  0  0  0  0  0
  185.3030  176.8180  137.6870 C   0  0  0  0  0  2  0  0  0  0  0  0
  184.1110  175.9130  137.6610 C   0  0  1  0  0  3  0  0  0  0  0  0
  184.7960  176.3840  135.4220 O   0  0  0  0  0  0  0  0  0  0  0  0
  185.8500  176.7280  136.2860 C   0  0  1  0  0  3  0  0  0  0  0  0
  184.0100  172.0460  137.0060 N   0  0  0  0  0  1  0  0  0  0  0  0
  184.0480  174.1480  135.8960 C   0  0  1  0  0  3  0  0  0  0  0  0
  183.4140  173.3690  136.9550 C   0  0  1  0  0  3  0  0  0  0  0  0
  182.7280  173.5410  135.6680 N   0  0  0  0  0  2  0  0  0  0  0  0
  186.4360  178.0470  135.8870 C   0  0  0  0  0  3  0  0  0  0  0  0
  187.7150  178.3810  136.1040 C   0  0  0  0  0  3  0  0  0  0  0  0
  188.6990  177.4770  136.7870 C   0  0  1  0  0  3  0  0  0  0  0  0
  189.5370  175.5310  135.4690 C   0  0  0  0  0  1  0  0  0  0  0  0
  189.7400  177.0020  135.7840 C   0  0  0  0  0  2  0  0  0  0  0  0
  188.9640  179.5180  138.0480 O   0  0  0  0  0  1  0  0  0  0  0  0
  189.3540  178.1780  137.9780 C   0  0  0  0  0  2  0  0  0  0  0  0
  1  4  1  0  0  0  0
  1 10  1  1  0  0  0
  2  5  2  0  0  0  0
  3  6  2  0  0  0  0
  3  8  1  0  0  0  0
  4  2  1  6  0  0  0
  4  3  1  0  0  0  0
  6 13  1  0  0  0  0
  7  9  1  0  0  0  0
  7  2  1  0  0  0  0
  9 24  1  6  0  0  0
  9  1  1  0  0  0  0
 10  6  1  0  0  0  0
 11 15  1  6  0  0  0
 12 11  1  0  0  0  0
 13 12  1  0  0  0  0
 13 11  1  0  0  0  0
 14 15  1  0  0  0  0
 15 16  2  0  0  0  0
 18 17  1  0  0  0  0
 19 14  1  1  0  0  0
 19 22  1  0  0  0  0
 20 23  1  0  0  0  0
 20 19  1  0  0  0  0
 21 20  2  0  0  0  0
 22 17  1  0  0  0  0
 23 18  1  0  0  0  0
 25 28  1  6  0  0  0
 25 27  1  0  0  0  0
 27 26  1  0  0  0  0
 27 24  1  6  0  0  0
 28 29  1  0  0  0  0
 29 34  1  6  0  0  0
 29 26  1  0  0  0  0
 31 33  1  6  0  0  0
 31 25  1  0  0  0  0
 31 32  1  0  0  0  0
 32 30  1  6  0  0  0
 33 32  1  0  0  0  0
 34 35  2  0  0  0  0
 35 36  1  0  0  0  0
 36 38  1  6  0  0  0
 36 40  1  0  0  0  0
 37 38  1  0  0  0  0
 40 39  1  0  0  0  0
M  END
>  <MODEL>
8

>  <REMARK>
 VINA RESULT:      -6.8      3.191      9.370
  Name = 
  10 active torsions:
  status: ('A' for Active; 'I' for Inactive)
    1  A    between atoms: C_1  and  C_16
    2  A    between atoms: N_3  and  C_18
    3  A    between atoms: C_4  and  C_28
    4  A    between atoms: C_8  and  C_13
    5  A    between atoms: C_8  and  C_31
    6  A    between atoms: C_8  and  C_39
    7  A    between atoms: C_14  and  C_15
    8  A    between atoms: C_15  and  C_37
    9  A    between atoms: C_17  and  C_21
   10  A    between atoms: C_34  and  N_40
                            x       y       z     vdW  Elec       q    Type
                         _______ _______ _______ _____ _____    ______ ____

>  <TORSDO>
F 10

$$$$
=
 OpenBabel10222421583D

 40 45  0  0  1  0  0  0  0  0999 V2000
  188.8190  174.4210  137.0910 C   0  0  1  0  0  3  0  0  0  0  0  0
  189.9700  173.6110  135.2540 C   0  0  0  0  0  0  0  0  0  0  0  0
  188.0010  172.4420  136.2860 C   0  0  0  0  0  0  0  0  0  0  0  0
  189.2980  173.1490  136.5000 C   0  0  2  0  0  3  0  0  0  0  0  0
  190.2670  172.8470  134.3510 O   0  0  0  0  0  0  0  0  0  0  0  0
  187.0080  173.1740  136.7640 C   0  0  0  0  0  0  0  0  0  0  0  0
  190.4170  175.3560  135.2080 S   0  0  0  0  0  0  0  0  0  0  0  0
  187.8620  171.0640  135.7320 C   0  0  0  0  0  1  0  0  0  0  0  0
  189.6450  175.6310  136.8450 C   0  0  2  0  0  3  0  0  0  0  0  0
  187.4970  174.4670  137.2080 C   0  0  0  0  0  2  0  0  0  0  0  0
  184.2550  172.8040  137.3250 C   0  0  1  0  0  3  0  0  0  0  0  0
  184.4610  172.0910  136.1600 C   0  0  0  0  0  2  0  0  0  0  0  0
  185.6360  172.7900  136.7560 N   0  0  0  0  0  0  0  0  0  0  0  0
  183.3600  175.0420  138.0950 N   0  0  0  0  0  2  0  0  0  0  0  0
  183.6080  174.1180  137.0310 C   0  0  0  0  0  0  0  0  0  0  0  0
  183.3140  174.4200  135.8430 O   0  0  0  0  0  0  0  0  0  0  0  0
  183.2670  177.3810  140.1270 C   0  0  0  0  0  2  0  0  0  0  0  0
  181.8030  177.7360  140.3500 C   0  0  0  0  0  2  0  0  0  0  0  0
  182.7700  176.3570  137.8760 C   0  0  1  0  0  3  0  0  0  0  0  0
  181.3290  176.3360  138.2990 C   0  0  0  0  0  0  0  0  0  0  0  0
  180.4720  175.7860  137.5610 O   0  0  0  0  0  0  0  0  0  0  0  0
  183.5650  177.4270  138.6330 C   0  0  0  0  0  2  0  0  0  0  0  0
  180.9350  176.8560  139.5740 N   0  0  0  0  0  2  0  0  0  0  0  0
  190.7420  175.7580  137.8940 C   0  0  0  0  0  2  0  0  0  0  0  0
  189.0560  177.0250  139.2000 C   0  0  1  0  0  3  0  0  0  0  0  0
  191.2580  176.7690  140.0700 C   0  0  0  0  0  2  0  0  0  0  0  0
  190.5140  176.9660  138.7860 C   0  0  1  0  0  3  0  0  0  0  0  0
  188.9530  176.7870  140.5850 O   0  0  0  0  0  0  0  0  0  0  0  0
  190.2230  177.0480  141.1280 C   0  0  1  0  0  3  0  0  0  0  0  0
  187.4830  179.5500  137.0290 N   0  0  0  0  0  1  0  0  0  0  0  0
  188.4610  178.3850  138.8560 C   0  0  1  0  0  3  0  0  0  0  0  0
  187.6010  178.2590  137.6830 C   0  0  1  0  0  3  0  0  0  0  0  0
  187.0000  178.3380  139.0210 N   0  0  0  0  0  2  0  0  0  0  0  0
  190.4660  176.1710  142.3180 C   0  0  0  0  0  3  0  0  0  0  0  0
  190.1160  176.5090  143.5660 C   0  0  0  0  0  3  0  0  0  0  0  0
  189.4590  177.8120  143.9140 C   0  0  1  0  0  3  0  0  0  0  0  0
  187.0060  177.5540  143.5390 C   0  0  0  0  0  1  0  0  0  0  0  0
  188.1140  177.5460  144.5750 C   0  0  0  0  0  2  0  0  0  0  0  0
  190.9730  179.6840  144.0830 O   0  0  0  0  0  1  0  0  0  0  0  0
  190.3610  178.6610  144.8120 C   0  0  0  0  0  2  0  0  0  0  0  0
  1 10  1  6  0  0  0
  3  4  1  0  0  0  0
  3  6  2  0  0  0  0
  4  2  1  6  0  0  0
  4  1  1  0  0  0  0
  5  2  2  0  0  0  0
  6 10  1  0  0  0  0
  7  2  1  0  0  0  0
  7  9  1  0  0  0  0
  8  3  1  0  0  0  0
  9  1  1  0  0  0  0
  9 24  1  1  0  0  0
 11 15  1  6  0  0  0
 12 13  1  0  0  0  0
 12 11  1  0  0  0  0
 13  6  1  0  0  0  0
 13 11  1  0  0  0  0
 15 14  1  0  0  0  0
 16 15  2  0  0  0  0
 17 18  1  0  0  0  0
 19 14  1  1  0  0  0
 19 20  1  0  0  0  0
 19 22  1  0  0  0  0
 20 23  1  0  0  0  0
 21 20  2  0  0  0  0
 22 17  1  0  0  0  0
 23 18  1  0  0  0  0
 25 28  1  1  0  0  0
 26 29  1  0  0  0  0
 27 24  1  6  0  0  0
 27 25  1  0  0  0  0
 27 26  1  0  0  0  0
 28 29  1  0  0  0  0
 29 34  1  1  0  0  0
 31 33  1  1  0  0  0
 31 25  1  0  0  0  0
 32 30  1  6  0  0  0
 32 31  1  0  0  0  0
 32 33  1  0  0  0  0
 34 35  2  0  0  0  0
 36 35  1  1  0  0  0
 36 38  1  0  0  0  0
 36 40  1  0  0  0  0
 37 38  1  0  0  0  0
 39 40  1  0  0  0  0
M  END
>  <MODEL>
9

>  <REMARK>
 VINA RESULT:      -6.7      3.186      5.314
  Name = 
  10 active torsions:
  status: ('A' for Active; 'I' for Inactive)
    1  A    between atoms: C_1  and  C_16
    2  A    between atoms: N_3  and  C_18
    3  A    between atoms: C_4  and  C_28
    4  A    between atoms: C_8  and  C_13
    5  A    between atoms: C_8  and  C_31
    6  A    between atoms: C_8  and  C_39
    7  A    between atoms: C_14  and  C_15
    8  A    between atoms: C_15  and  C_37
    9  A    between atoms: C_17  and  C_21
   10  A    between atoms: C_34  and  N_40
                            x       y       z     vdW  Elec       q    Type
                         _______ _______ _______ _____ _____    ______ ____

>  <TORSDO>
F 10

$$$$
