=
 OpenBabel10222421463D

 31 34  0  0  0  0  0  0  0  0999 V2000
  185.7360  178.5220  141.1510 C   0  0  0  0  0  0  0  0  0  0  0  0
  183.6220  178.9560  140.0540 C   0  0  0  0  0  0  0  0  0  0  0  0
  184.3700  178.8090  141.2240 C   0  0  0  0  0  3  0  0  0  0  0  0
  187.7420  178.0840  139.8290 C   0  0  0  0  0  0  0  0  0  0  0  0
  187.8370  178.0720  142.2560 C   0  0  0  0  0  3  0  0  0  0  0  0
  185.6030  178.5330  138.7260 C   0  0  0  0  0  3  0  0  0  0  0  0
  186.4760  178.3690  142.3230 C   0  0  0  0  0  3  0  0  0  0  0  0
  184.2380  178.8190  138.8060 C   0  0  0  0  0  3  0  0  0  0  0  0
  188.4780  177.9230  141.0160 C   0  0  0  0  0  0  0  0  0  0  0  0
  186.3650  178.3810  139.8930 C   0  0  0  0  0  0  0  0  0  0  0  0
  182.2650  179.2340  140.1300 O   0  0  0  0  0  1  0  0  0  0  0  0
  188.3970  177.9420  138.5590 N   0  0  0  0  0  0  0  0  0  0  0  0
  187.4710  175.9670  137.3860 C   0  0  0  0  0  3  0  0  0  0  0  0
  189.8350  176.0410  137.8960 C   0  0  0  0  0  3  0  0  0  0  0  0
  190.0000  174.7870  137.3020 C   0  0  0  0  0  3  0  0  0  0  0  0
  188.9000  174.1240  136.7520 C   0  0  0  0  0  3  0  0  0  0  0  0
  187.6360  174.7130  136.7940 C   0  0  0  0  0  3  0  0  0  0  0  0
  188.5680  176.6450  137.9480 C   0  0  0  0  0  0  0  0  0  0  0  0
  188.1810  179.4950  136.8260 O   0  0  0  0  0  1  0  0  0  0  0  0
  188.9480  179.1440  137.9400 C   0  0  0  0  0  2  0  0  0  0  0  0
  189.8440  177.6180  140.9410 O   0  0  0  0  0  0  0  0  0  0  0  0
  190.4830  176.6750  141.7940 C   0  0  0  0  0  2  0  0  0  0  0  0
  191.6370  177.3320  142.5330 C   0  0  0  0  0  2  0  0  0  0  0  0
  191.1420  178.1990  143.5480 O   0  0  0  0  0  0  0  0  0  0  0  0
  189.0730  177.5650  146.5760 C   0  0  0  0  0  3  0  0  0  0  0  0
  191.6260  176.9950  145.5810 C   0  0  0  0  0  3  0  0  0  0  0  0
  189.9720  176.8170  147.3420 C   0  0  0  0  0  3  0  0  0  0  0  0
  190.7340  177.7480  144.8090 C   0  0  0  0  0  0  0  0  0  0  0  0
  189.4530  178.0290  145.3140 C   0  0  0  0  0  3  0  0  0  0  0  0
  192.2080  175.7530  147.6690 C   0  0  0  0  0  1  0  0  0  0  0  0
  191.2480  176.5330  146.8460 C   0  0  0  0  0  0  0  0  0  0  0  0
  1  3  2  0  0  0  0
  1  7  1  0  0  0  0
  2 11  1  0  0  0  0
  2  3  1  0  0  0  0
  4 10  1  0  0  0  0
  4  9  2  0  0  0  0
  5  7  2  0  0  0  0
  6  8  1  0  0  0  0
  6 10  2  0  0  0  0
  8  2  2  0  0  0  0
  9  5  1  0  0  0  0
 10  1  1  0  0  0  0
 12  4  1  0  0  0  0
 13 18  1  0  0  0  0
 14 18  2  0  0  0  0
 15 14  1  0  0  0  0
 16 17  1  0  0  0  0
 16 15  2  0  0  0  0
 17 13  2  0  0  0  0
 18 12  1  0  0  0  0
 19 20  1  0  0  0  0
 20 12  1  0  0  0  0
 21  9  1  0  0  0  0
 21 22  1  0  0  0  0
 22 23  1  0  0  0  0
 23 24  1  0  0  0  0
 24 28  1  0  0  0  0
 25 27  1  0  0  0  0
 26 31  1  0  0  0  0
 28 29  1  0  0  0  0
 28 26  2  0  0  0  0
 29 25  2  0  0  0  0
 31 27  2  0  0  0  0
 31 30  1  0  0  0  0
M  END
>  <MODEL>
1

>  <REMARK>
 VINA RESULT:      -7.9      0.000      0.000
  Name = 
  8 active torsions:
  status: ('A' for Active; 'I' for Inactive)
    1  A    between atoms: C_10  and  N_28
    2  A    between atoms: C_16  and  O_23
    3  A    between atoms: C_18  and  C_22
    4  A    between atoms: C_18  and  O_23
    5  A    between atoms: C_19  and  O_29
    6  A    between atoms: C_22  and  O_29
    7  A    between atoms: C_24  and  N_28
    8  A    between atoms: N_28  and  C_30
                            x       y       z     vdW  Elec       q    Type
                         _______ _______ _______ _____ _____    ______ ____

>  <TORSDO>
F 8

$$$$
=
 OpenBabel10222421463D

 31 34  0  0  0  0  0  0  0  0999 V2000
  185.8770  178.6710  140.5120 C   0  0  0  0  0  0  0  0  0  0  0  0
  183.6820  178.9270  139.5230 C   0  0  0  0  0  0  0  0  0  0  0  0
  184.5220  178.9890  140.6370 C   0  0  0  0  0  3  0  0  0  0  0  0
  187.7690  177.9590  139.1420 C   0  0  0  0  0  0  0  0  0  0  0  0
  188.0580  178.3990  141.5130 C   0  0  0  0  0  3  0  0  0  0  0  0
  185.5490  178.2310  138.1460 C   0  0  0  0  0  3  0  0  0  0  0  0
  186.7080  178.7270  141.6310 C   0  0  0  0  0  3  0  0  0  0  0  0
  184.1950  178.5500  138.2780 C   0  0  0  0  0  3  0  0  0  0  0  0
  188.5980  178.0110  140.2770 C   0  0  0  0  0  0  0  0  0  0  0  0
  186.4030  178.2870  139.2570 C   0  0  0  0  0  0  0  0  0  0  0  0
  182.3360  179.2380  139.6520 O   0  0  0  0  0  1  0  0  0  0  0  0
  188.3200  177.5720  137.8740 N   0  0  0  0  0  0  0  0  0  0  0  0
  187.3780  175.3850  137.1950 C   0  0  0  0  0  3  0  0  0  0  0  0
  189.7680  175.6010  137.5070 C   0  0  0  0  0  3  0  0  0  0  0  0
  189.9320  174.2550  137.1690 C   0  0  0  0  0  3  0  0  0  0  0  0
  188.8190  173.4750  136.8450 C   0  0  0  0  0  3  0  0  0  0  0  0
  187.5420  174.0390  136.8580 C   0  0  0  0  0  3  0  0  0  0  0  0
  188.4900  176.1810  137.5270 C   0  0  0  0  0  0  0  0  0  0  0  0
  188.9760  179.8080  137.7000 O   0  0  0  0  0  1  0  0  0  0  0  0
  188.7690  178.6320  136.9760 C   0  0  0  0  0  2  0  0  0  0  0  0
  189.9530  177.6740  140.1530 O   0  0  0  0  0  0  0  0  0  0  0  0
  190.6220  176.7860  141.0410 C   0  0  0  0  0  2  0  0  0  0  0  0
  191.3520  177.5710  142.1180 C   0  0  0  0  0  2  0  0  0  0  0  0
  191.6470  176.7290  143.2270 O   0  0  0  0  0  0  0  0  0  0  0  0
  190.9750  176.6580  146.8870 C   0  0  0  0  0  3  0  0  0  0  0  0
  189.6530  177.2280  144.4880 C   0  0  0  0  0  3  0  0  0  0  0  0
  189.6340  177.0510  146.9040 C   0  0  0  0  0  3  0  0  0  0  0  0
  190.9950  176.8310  144.4610 C   0  0  0  0  0  0  0  0  0  0  0  0
  191.6530  176.5470  145.6700 C   0  0  0  0  0  3  0  0  0  0  0  0
  187.5420  177.7380  145.7240 C   0  0  0  0  0  1  0  0  0  0  0  0
  188.9730  177.3360  145.7050 C   0  0  0  0  0  0  0  0  0  0  0  0
  1  3  2  0  0  0  0
  1  7  1  0  0  0  0
  2 11  1  0  0  0  0
  2  3  1  0  0  0  0
  4 10  1  0  0  0  0
  4  9  2  0  0  0  0
  5  7  2  0  0  0  0
  6  8  1  0  0  0  0
  6 10  2  0  0  0  0
  8  2  2  0  0  0  0
  9  5  1  0  0  0  0
 10  1  1  0  0  0  0
 12  4  1  0  0  0  0
 13 18  1  0  0  0  0
 14 18  2  0  0  0  0
 15 14  1  0  0  0  0
 16 17  1  0  0  0  0
 16 15  2  0  0  0  0
 17 13  2  0  0  0  0
 18 12  1  0  0  0  0
 20 19  1  0  0  0  0
 20 12  1  0  0  0  0
 21  9  1  0  0  0  0
 21 22  1  0  0  0  0
 22 23  1  0  0  0  0
 23 24  1  0  0  0  0
 24 28  1  0  0  0  0
 25 27  1  0  0  0  0
 26 31  1  0  0  0  0
 28 26  2  0  0  0  0
 28 29  1  0  0  0  0
 29 25  2  0  0  0  0
 31 30  1  0  0  0  0
 31 27  2  0  0  0  0
M  END
>  <MODEL>
2

>  <REMARK>
 VINA RESULT:      -7.9      0.836      1.498
  Name = 
  8 active torsions:
  status: ('A' for Active; 'I' for Inactive)
    1  A    between atoms: C_10  and  N_28
    2  A    between atoms: C_16  and  O_23
    3  A    between atoms: C_18  and  C_22
    4  A    between atoms: C_18  and  O_23
    5  A    between atoms: C_19  and  O_29
    6  A    between atoms: C_22  and  O_29
    7  A    between atoms: C_24  and  N_28
    8  A    between atoms: N_28  and  C_30
                            x       y       z     vdW  Elec       q    Type
                         _______ _______ _______ _____ _____    ______ ____

>  <TORSDO>
F 8

$$$$
=
 OpenBabel10222421463D

 31 34  0  0  0  0  0  0  0  0999 V2000
  186.6160  177.9310  144.1530 C   0  0  0  0  0  0  0  0  0  0  0  0
  185.6790  178.1430  146.3750 C   0  0  0  0  0  0  0  0  0  0  0  0
  185.5040  177.9860  144.9980 C   0  0  0  0  0  3  0  0  0  0  0  0
  189.0350  177.9860  143.8270 C   0  0  0  0  0  0  0  0  0  0  0  0
  187.5400  177.7370  141.9290 C   0  0  0  0  0  3  0  0  0  0  0  0
  188.0820  178.1900  146.0720 C   0  0  0  0  0  3  0  0  0  0  0  0
  186.4340  177.7800  142.7780 C   0  0  0  0  0  3  0  0  0  0  0  0
  186.9660  178.2440  146.9120 C   0  0  0  0  0  3  0  0  0  0  0  0
  188.8420  177.8420  142.4410 C   0  0  0  0  0  0  0  0  0  0  0  0
  187.9210  178.0340  144.6880 C   0  0  0  0  0  0  0  0  0  0  0  0
  184.5730  178.2030  147.2110 O   0  0  0  0  0  1  0  0  0  0  0  0
  190.3670  178.0850  144.3550 N   0  0  0  0  0  0  0  0  0  0  0  0
  191.4530  175.8880  143.9930 C   0  0  0  0  0  3  0  0  0  0  0  0
  191.3530  176.8080  146.2290 C   0  0  0  0  0  3  0  0  0  0  0  0
  192.0240  175.6840  146.7180 C   0  0  0  0  0  3  0  0  0  0  0  0
  192.4070  174.6620  145.8450 C   0  0  0  0  0  3  0  0  0  0  0  0
  192.1220  174.7640  144.4830 C   0  0  0  0  0  3  0  0  0  0  0  0
  191.0570  176.9230  144.8610 C   0  0  0  0  0  0  0  0  0  0  0  0
  192.3330  179.3260  144.1200 O   0  0  0  0  0  1  0  0  0  0  0  0
  190.9730  179.4110  144.4270 C   0  0  0  0  0  2  0  0  0  0  0  0
  189.9580  177.8060  141.5920 O   0  0  0  0  0  0  0  0  0  0  0  0
  190.1640  176.7920  140.6160 C   0  0  0  0  0  2  0  0  0  0  0  0
  190.5080  177.4170  139.2740 C   0  0  0  0  0  2  0  0  0  0  0  0
  189.5330  178.3930  138.9210 O   0  0  0  0  0  0  0  0  0  0  0  0
  187.8520  177.8640  135.6430 C   0  0  0  0  0  3  0  0  0  0  0  0
  187.2140  178.0370  138.3620 C   0  0  0  0  0  3  0  0  0  0  0  0
  186.5240  177.7330  136.0600 C   0  0  0  0  0  3  0  0  0  0  0  0
  188.5460  178.1730  137.9530 C   0  0  0  0  0  0  0  0  0  0  0  0
  188.8590  178.0840  136.5860 C   0  0  0  0  0  3  0  0  0  0  0  0
  184.7910  177.6980  137.8590 C   0  0  0  0  0  1  0  0  0  0  0  0
  186.2050  177.8200  137.4190 C   0  0  0  0  0  0  0  0  0  0  0  0
  1 10  1  0  0  0  0
  1  3  1  0  0  0  0
  2  8  1  0  0  0  0
  2 11  1  0  0  0  0
  3  2  2  0  0  0  0
  4 12  1  0  0  0  0
  4 10  2  0  0  0  0
  5  9  2  0  0  0  0
  5  7  1  0  0  0  0
  6  8  2  0  0  0  0
  7  1  2  0  0  0  0
  9  4  1  0  0  0  0
 10  6  1  0  0  0  0
 12 20  1  0  0  0  0
 12 18  1  0  0  0  0
 13 17  2  0  0  0  0
 13 18  1  0  0  0  0
 14 15  1  0  0  0  0
 16 15  2  0  0  0  0
 17 16  1  0  0  0  0
 18 14  2  0  0  0  0
 19 20  1  0  0  0  0
 21  9  1  0  0  0  0
 22 21  1  0  0  0  0
 23 22  1  0  0  0  0
 24 23  1  0  0  0  0
 25 27  2  0  0  0  0
 25 29  1  0  0  0  0
 27 31  1  0  0  0  0
 28 26  1  0  0  0  0
 28 24  1  0  0  0  0
 29 28  2  0  0  0  0
 31 30  1  0  0  0  0
 31 26  2  0  0  0  0
M  END
>  <MODEL>
3

>  <REMARK>
 VINA RESULT:      -7.8      2.549      7.377
  Name = 
  8 active torsions:
  status: ('A' for Active; 'I' for Inactive)
    1  A    between atoms: C_10  and  N_28
    2  A    between atoms: C_16  and  O_23
    3  A    between atoms: C_18  and  C_22
    4  A    between atoms: C_18  and  O_23
    5  A    between atoms: C_19  and  O_29
    6  A    between atoms: C_22  and  O_29
    7  A    between atoms: C_24  and  N_28
    8  A    between atoms: N_28  and  C_30
                            x       y       z     vdW  Elec       q    Type
                         _______ _______ _______ _____ _____    ______ ____

>  <TORSDO>
F 8

$$$$
=
 OpenBabel10222421463D

 31 34  0  0  0  0  0  0  0  0999 V2000
  183.4270  178.7240  143.2580 C   0  0  0  0  0  0  0  0  0  0  0  0
  181.0430  178.7290  143.6800 C   0  0  0  0  0  0  0  0  0  0  0  0
  182.3560  178.7220  144.1560 C   0  0  0  0  0  3  0  0  0  0  0  0
  184.2710  178.7250  140.9670 C   0  0  0  0  0  0  0  0  0  0  0  0
  185.8070  178.6990  142.8480 C   0  0  0  0  0  3  0  0  0  0  0  0
  181.8620  178.7410  141.4000 C   0  0  0  0  0  3  0  0  0  0  0  0
  184.7360  178.7100  143.7400 C   0  0  0  0  0  3  0  0  0  0  0  0
  180.7960  178.7390  142.3040 C   0  0  0  0  0  3  0  0  0  0  0  0
  185.5870  178.7030  141.4620 C   0  0  0  0  0  0  0  0  0  0  0  0
  183.1850  178.7320  141.8650 C   0  0  0  0  0  0  0  0  0  0  0  0
  179.9820  178.7220  144.5750 O   0  0  0  0  0  1  0  0  0  0  0  0
  184.0430  178.7380  139.5490 N   0  0  0  0  0  0  0  0  0  0  0  0
  183.1310  176.4900  139.0510 C   0  0  0  0  0  3  0  0  0  0  0  0
  184.9810  177.3360  137.7410 C   0  0  0  0  0  3  0  0  0  0  0  0
  184.9900  176.1540  136.9950 C   0  0  0  0  0  3  0  0  0  0  0  0
  184.0690  175.1410  137.2780 C   0  0  0  0  0  3  0  0  0  0  0  0
  183.1400  175.3090  138.3060 C   0  0  0  0  0  3  0  0  0  0  0  0
  184.0540  177.5170  138.7800 C   0  0  0  0  0  0  0  0  0  0  0  0
  182.5490  180.1750  138.4690 O   0  0  0  0  0  1  0  0  0  0  0  0
  183.8710  180.0350  138.9010 C   0  0  0  0  0  2  0  0  0  0  0  0
  186.6610  178.6860  140.5600 O   0  0  0  0  0  0  0  0  0  0  0  0
  188.0210  178.7990  140.9600 C   0  0  0  0  0  2  0  0  0  0  0  0
  188.7280  177.4630  140.8000 C   0  0  0  0  0  2  0  0  0  0  0  0
  188.5870  176.6850  141.9840 O   0  0  0  0  0  0  0  0  0  0  0  0
  191.3570  177.4000  144.3640 C   0  0  0  0  0  3  0  0  0  0  0  0
  188.5820  177.0450  144.3690 C   0  0  0  0  0  3  0  0  0  0  0  0
  190.6430  177.4860  145.5620 C   0  0  0  0  0  3  0  0  0  0  0  0
  189.2900  176.9530  143.1650 C   0  0  0  0  0  0  0  0  0  0  0  0
  190.6840  177.1340  143.1690 C   0  0  0  0  0  3  0  0  0  0  0  0
  188.5010  177.3830  146.8430 C   0  0  0  0  0  1  0  0  0  0  0  0
  189.2570  177.3080  145.5650 C   0  0  0  0  0  0  0  0  0  0  0  0
  1  7  1  0  0  0  0
  1  3  2  0  0  0  0
  2  3  1  0  0  0  0
  2 11  1  0  0  0  0
  4  9  2  0  0  0  0
  4 10  1  0  0  0  0
  5  7  2  0  0  0  0
  6 10  2  0  0  0  0
  6  8  1  0  0  0  0
  8  2  2  0  0  0  0
  9  5  1  0  0  0  0
 10  1  1  0  0  0  0
 12  4  1  0  0  0  0
 14 18  2  0  0  0  0
 15 16  2  0  0  0  0
 15 14  1  0  0  0  0
 16 17  1  0  0  0  0
 17 13  2  0  0  0  0
 18 13  1  0  0  0  0
 18 12  1  0  0  0  0
 19 20  1  0  0  0  0
 20 12  1  0  0  0  0
 21 22  1  0  0  0  0
 21  9  1  0  0  0  0
 23 22  1  0  0  0  0
 23 24  1  0  0  0  0
 24 28  1  0  0  0  0
 25 27  1  0  0  0  0
 26 31  1  0  0  0  0
 27 31  2  0  0  0  0
 28 29  1  0  0  0  0
 28 26  2  0  0  0  0
 29 25  2  0  0  0  0
 31 30  1  0  0  0  0
M  END
>  <MODEL>
4

>  <REMARK>
 VINA RESULT:      -7.8      2.421      3.985
  Name = 
  8 active torsions:
  status: ('A' for Active; 'I' for Inactive)
    1  A    between atoms: C_10  and  N_28
    2  A    between atoms: C_16  and  O_23
    3  A    between atoms: C_18  and  C_22
    4  A    between atoms: C_18  and  O_23
    5  A    between atoms: C_19  and  O_29
    6  A    between atoms: C_22  and  O_29
    7  A    between atoms: C_24  and  N_28
    8  A    between atoms: N_28  and  C_30
                            x       y       z     vdW  Elec       q    Type
                         _______ _______ _______ _____ _____    ______ ____

>  <TORSDO>
F 8

$$$$
=
 OpenBabel10222421463D

 31 34  0  0  0  0  0  0  0  0999 V2000
  190.1810  177.6010  140.0080 C   0  0  0  0  0  0  0  0  0  0  0  0
  192.1600  176.8390  138.8410 C   0  0  0  0  0  0  0  0  0  0  0  0
  191.5390  177.2730  140.0140 C   0  0  0  0  0  3  0  0  0  0  0  0
  188.0620  177.8360  138.8150 C   0  0  0  0  0  0  0  0  0  0  0  0
  188.2160  178.3810  141.1770 C   0  0  0  0  0  3  0  0  0  0  0  0
  190.0650  177.0550  137.6440 C   0  0  0  0  0  3  0  0  0  0  0  0
  189.5690  178.0410  141.1810 C   0  0  0  0  0  3  0  0  0  0  0  0
  191.4240  176.7290  137.6570 C   0  0  0  0  0  3  0  0  0  0  0  0
  187.4560  178.2860  140.0010 C   0  0  0  0  0  0  0  0  0  0  0  0
  189.4300  177.4940  138.8140 C   0  0  0  0  0  0  0  0  0  0  0  0
  193.5100  176.5190  138.8490 O   0  0  0  0  0  1  0  0  0  0  0  0
  187.2840  177.7280  137.6130 N   0  0  0  0  0  0  0  0  0  0  0  0
  187.0220  175.2990  137.2080 C   0  0  0  0  0  3  0  0  0  0  0  0
  185.0570  176.7080  137.2790 C   0  0  0  0  0  3  0  0  0  0  0  0
  184.2510  175.5920  137.0390 C   0  0  0  0  0  3  0  0  0  0  0  0
  184.8310  174.3310  136.8830 C   0  0  0  0  0  3  0  0  0  0  0  0
  186.2160  174.1840  136.9680 C   0  0  0  0  0  3  0  0  0  0  0  0
  186.4520  176.5760  137.3630 C   0  0  0  0  0  0  0  0  0  0  0  0
  187.7330  178.2360  135.3760 O   0  0  0  0  0  1  0  0  0  0  0  0
  187.4180  178.7900  136.6200 C   0  0  0  0  0  2  0  0  0  0  0  0
  186.0970  178.6320  139.9890 O   0  0  0  0  0  0  0  0  0  0  0  0
  185.4150  179.1630  141.1200 C   0  0  0  0  0  2  0  0  0  0  0  0
  184.6670  178.0580  141.8480 C   0  0  0  0  0  2  0  0  0  0  0  0
  184.2240  178.5180  143.1200 O   0  0  0  0  0  0  0  0  0  0  0  0
  185.2830  178.6700  146.6850 C   0  0  0  0  0  3  0  0  0  0  0  0
  186.2990  177.9110  144.1900 C   0  0  0  0  0  3  0  0  0  0  0  0
  186.5860  178.1740  146.5810 C   0  0  0  0  0  3  0  0  0  0  0  0
  184.9950  178.4100  144.2840 C   0  0  0  0  0  0  0  0  0  0  0  0
  184.4900  178.7890  145.5400 C   0  0  0  0  0  3  0  0  0  0  0  0
  188.4850  177.2830  145.2250 C   0  0  0  0  0  1  0  0  0  0  0  0
  187.0930  177.7940  145.3350 C   0  0  0  0  0  0  0  0  0  0  0  0
  1  3  2  0  0  0  0
  1  7  1  0  0  0  0
  2 11  1  0  0  0  0
  2  3  1  0  0  0  0
  4  9  2  0  0  0  0
  5  7  2  0  0  0  0
  6  8  1  0  0  0  0
  6 10  2  0  0  0  0
  8  2  2  0  0  0  0
  9  5  1  0  0  0  0
 10  4  1  0  0  0  0
 10  1  1  0  0  0  0
 12  4  1  0  0  0  0
 13 18  1  0  0  0  0
 14 18  2  0  0  0  0
 15 14  1  0  0  0  0
 16 17  1  0  0  0  0
 16 15  2  0  0  0  0
 17 13  2  0  0  0  0
 18 12  1  0  0  0  0
 19 20  1  0  0  0  0
 20 12  1  0  0  0  0
 21  9  1  0  0  0  0
 21 22  1  0  0  0  0
 22 23  1  0  0  0  0
 23 24  1  0  0  0  0
 24 28  1  0  0  0  0
 26 28  2  0  0  0  0
 26 31  1  0  0  0  0
 27 25  1  0  0  0  0
 28 29  1  0  0  0  0
 29 25  2  0  0  0  0
 30 31  1  0  0  0  0
 31 27  2  0  0  0  0
M  END
>  <MODEL>
5

>  <REMARK>
 VINA RESULT:      -7.8      2.391      5.081
  Name = 
  8 active torsions:
  status: ('A' for Active; 'I' for Inactive)
    1  A    between atoms: C_10  and  N_28
    2  A    between atoms: C_16  and  O_23
    3  A    between atoms: C_18  and  C_22
    4  A    between atoms: C_18  and  O_23
    5  A    between atoms: C_19  and  O_29
    6  A    between atoms: C_22  and  O_29
    7  A    between atoms: C_24  and  N_28
    8  A    between atoms: N_28  and  C_30
                            x       y       z     vdW  Elec       q    Type
                         _______ _______ _______ _____ _____    ______ ____

>  <TORSDO>
F 8

$$$$
=
 OpenBabel10222421463D

 31 34  0  0  0  0  0  0  0  0999 V2000
  186.5910  174.6980  136.7290 C   0  0  0  0  0  0  0  0  0  0  0  0
  188.1530  172.9360  136.1670 C   0  0  0  0  0  0  0  0  0  0  0  0
  186.8410  173.4060  136.2590 C   0  0  0  0  0  3  0  0  0  0  0  0
  187.4020  176.8330  137.5940 C   0  0  0  0  0  0  0  0  0  0  0  0
  185.0220  176.4420  137.3060 C   0  0  0  0  0  3  0  0  0  0  0  0
  188.9780  175.0510  137.0130 C   0  0  0  0  0  3  0  0  0  0  0  0
  185.2780  175.1580  136.8260 C   0  0  0  0  0  3  0  0  0  0  0  0
  189.2200  173.7580  136.5420 C   0  0  0  0  0  3  0  0  0  0  0  0
  186.0750  177.2850  137.6960 C   0  0  0  0  0  0  0  0  0  0  0  0
  187.6650  175.5340  137.1130 C   0  0  0  0  0  0  0  0  0  0  0  0
  188.3980  171.6510  135.7050 O   0  0  0  0  0  1  0  0  0  0  0  0
  188.4820  177.6970  137.9830 N   0  0  0  0  0  0  0  0  0  0  0  0
  188.3080  178.0400  140.4300 C   0  0  0  0  0  3  0  0  0  0  0  0
  190.3550  177.1460  139.5000 C   0  0  0  0  0  3  0  0  0  0  0  0
  190.9060  177.0780  140.7830 C   0  0  0  0  0  3  0  0  0  0  0  0
  190.1570  177.4930  141.8870 C   0  0  0  0  0  3  0  0  0  0  0  0
  188.8590  177.9730  141.7110 C   0  0  0  0  0  3  0  0  0  0  0  0
  189.0510  177.6300  139.3070 C   0  0  0  0  0  0  0  0  0  0  0  0
  188.9530  179.9560  137.6160 O   0  0  0  0  0  1  0  0  0  0  0  0
  188.9360  178.6930  137.0180 C   0  0  0  0  0  2  0  0  0  0  0  0
  185.8240  178.5750  138.1850 O   0  0  0  0  0  0  0  0  0  0  0  0
  184.6650  178.9150  138.9370 C   0  0  0  0  0  2  0  0  0  0  0  0
  185.0480  179.2440  140.3710 C   0  0  0  0  0  2  0  0  0  0  0  0
  184.5270  178.2610  141.2580 O   0  0  0  0  0  0  0  0  0  0  0  0
  183.4490  179.0060  144.7420 C   0  0  0  0  0  3  0  0  0  0  0  0
  185.6950  178.0710  143.3600 C   0  0  0  0  0  3  0  0  0  0  0  0
  184.6130  178.6740  145.4410 C   0  0  0  0  0  3  0  0  0  0  0  0
  184.5350  178.4040  142.6510 C   0  0  0  0  0  0  0  0  0  0  0  0
  183.4100  178.8730  143.3510 C   0  0  0  0  0  3  0  0  0  0  0  0
  186.9770  177.8700  145.4950 C   0  0  0  0  0  1  0  0  0  0  0  0
  185.7350  178.2070  144.7510 C   0  0  0  0  0  0  0  0  0  0  0  0
  1  7  2  0  0  0  0
  1 10  1  0  0  0  0
  2  3  2  0  0  0  0
  2  8  1  0  0  0  0
  3  1  1  0  0  0  0
  4  9  1  0  0  0  0
  4 12  1  0  0  0  0
  5  9  2  0  0  0  0
  6 10  1  0  0  0  0
  7  5  1  0  0  0  0
  8  6  2  0  0  0  0
  9 21  1  0  0  0  0
 10  4  2  0  0  0  0
 11  2  1  0  0  0  0
 12 18  1  0  0  0  0
 13 17  1  0  0  0  0
 14 15  2  0  0  0  0
 15 16  1  0  0  0  0
 17 16  2  0  0  0  0
 18 14  1  0  0  0  0
 18 13  2  0  0  0  0
 20 19  1  0  0  0  0
 20 12  1  0  0  0  0
 21 22  1  0  0  0  0
 22 23  1  0  0  0  0
 23 24  1  0  0  0  0
 24 28  1  0  0  0  0
 25 27  1  0  0  0  0
 26 31  1  0  0  0  0
 28 29  1  0  0  0  0
 28 26  2  0  0  0  0
 29 25  2  0  0  0  0
 31 27  2  0  0  0  0
 31 30  1  0  0  0  0
M  END
>  <MODEL>
6

>  <REMARK>
 VINA RESULT:      -7.8      2.557      5.807
  Name = 
  8 active torsions:
  status: ('A' for Active; 'I' for Inactive)
    1  A    between atoms: C_10  and  N_28
    2  A    between atoms: C_16  and  O_23
    3  A    between atoms: C_18  and  C_22
    4  A    between atoms: C_18  and  O_23
    5  A    between atoms: C_19  and  O_29
    6  A    between atoms: C_22  and  O_29
    7  A    between atoms: C_24  and  N_28
    8  A    between atoms: N_28  and  C_30
                            x       y       z     vdW  Elec       q    Type
                         _______ _______ _______ _____ _____    ______ ____

>  <TORSDO>
F 8

$$$$
=
 OpenBabel10222421463D

 31 34  0  0  0  0  0  0  0  0999 V2000
  190.0080  177.2420  140.4450 C   0  0  0  0  0  0  0  0  0  0  0  0
  191.8680  176.9150  138.9310 C   0  0  0  0  0  0  0  0  0  0  0  0
  190.4920  176.9740  139.1620 C   0  0  0  0  0  3  0  0  0  0  0  0
  190.4120  177.7170  142.8070 C   0  0  0  0  0  0  0  0  0  0  0  0
  188.1450  177.5480  141.9520 C   0  0  0  0  0  3  0  0  0  0  0  0
  192.2890  177.3950  141.2680 C   0  0  0  0  0  3  0  0  0  0  0  0
  188.6330  177.2930  140.6710 C   0  0  0  0  0  3  0  0  0  0  0  0
  192.7650  177.1260  139.9820 C   0  0  0  0  0  3  0  0  0  0  0  0
  189.0240  177.7580  143.0260 C   0  0  0  0  0  0  0  0  0  0  0  0
  190.9100  177.4550  141.5140 C   0  0  0  0  0  0  0  0  0  0  0  0
  192.3450  176.6420  137.6570 O   0  0  0  0  0  1  0  0  0  0  0  0
  191.3140  177.9400  143.9020 N   0  0  0  0  0  0  0  0  0  0  0  0
  191.4630  177.1760  146.2530 C   0  0  0  0  0  3  0  0  0  0  0  0
  191.9370  175.6150  144.4670 C   0  0  0  0  0  3  0  0  0  0  0  0
  192.1870  174.6150  145.4100 C   0  0  0  0  0  3  0  0  0  0  0  0
  192.0760  174.8970  146.7740 C   0  0  0  0  0  3  0  0  0  0  0  0
  191.7140  176.1770  147.1960 C   0  0  0  0  0  3  0  0  0  0  0  0
  191.5750  176.9080  144.8760 C   0  0  0  0  0  0  0  0  0  0  0  0
  190.8900  180.2280  144.1200 O   0  0  0  0  0  1  0  0  0  0  0  0
  191.9030  179.2690  144.0370 C   0  0  0  0  0  2  0  0  0  0  0  0
  188.5390  178.0090  144.3180 O   0  0  0  0  0  0  0  0  0  0  0  0
  187.9230  177.0160  145.1290 C   0  0  0  0  0  2  0  0  0  0  0  0
  186.7740  177.6210  145.9180 C   0  0  0  0  0  2  0  0  0  0  0  0
  186.2730  178.7760  145.2530 O   0  0  0  0  0  0  0  0  0  0  0  0
  182.6820  178.8760  144.2820 C   0  0  0  0  0  3  0  0  0  0  0  0
  185.2060  178.6480  143.0940 C   0  0  0  0  0  3  0  0  0  0  0  0
  182.7930  178.7500  142.8940 C   0  0  0  0  0  3  0  0  0  0  0  0
  185.1030  178.7700  144.4850 C   0  0  0  0  0  0  0  0  0  0  0  0
  183.8330  178.8850  145.0750 C   0  0  0  0  0  3  0  0  0  0  0  0
  184.1700  178.4850  140.8260 C   0  0  0  0  0  1  0  0  0  0  0  0
  184.0540  178.6360  142.3010 C   0  0  0  0  0  0  0  0  0  0  0  0
  1  7  2  0  0  0  0
  1 10  1  0  0  0  0
  2  3  2  0  0  0  0
  2  8  1  0  0  0  0
  3  1  1  0  0  0  0
  4  9  1  0  0  0  0
  4 12  1  0  0  0  0
  5  9  2  0  0  0  0
  6 10  1  0  0  0  0
  7  5  1  0  0  0  0
  8  6  2  0  0  0  0
  9 21  1  0  0  0  0
 10  4  2  0  0  0  0
 11  2  1  0  0  0  0
 12 20  1  0  0  0  0
 12 18  1  0  0  0  0
 13 17  1  0  0  0  0
 14 18  1  0  0  0  0
 14 15  2  0  0  0  0
 15 16  1  0  0  0  0
 16 17  2  0  0  0  0
 18 13  2  0  0  0  0
 20 19  1  0  0  0  0
 21 22  1  0  0  0  0
 22 23  1  0  0  0  0
 24 23  1  0  0  0  0
 25 29  1  0  0  0  0
 26 28  1  0  0  0  0
 27 25  2  0  0  0  0
 28 29  2  0  0  0  0
 28 24  1  0  0  0  0
 30 31  1  0  0  0  0
 31 27  1  0  0  0  0
 31 26  2  0  0  0  0
M  END
>  <MODEL>
7

>  <REMARK>
 VINA RESULT:      -7.6      2.778      7.223
  Name = 
  8 active torsions:
  status: ('A' for Active; 'I' for Inactive)
    1  A    between atoms: C_10  and  N_28
    2  A    between atoms: C_16  and  O_23
    3  A    between atoms: C_18  and  C_22
    4  A    between atoms: C_18  and  O_23
    5  A    between atoms: C_19  and  O_29
    6  A    between atoms: C_22  and  O_29
    7  A    between atoms: C_24  and  N_28
    8  A    between atoms: N_28  and  C_30
                            x       y       z     vdW  Elec       q    Type
                         _______ _______ _______ _____ _____    ______ ____

>  <TORSDO>
F 8

$$$$
=
 OpenBabel10222421463D

 31 34  0  0  0  0  0  0  0  0999 V2000
  191.4870  176.5460  138.6500 C   0  0  0  0  0  0  0  0  0  0  0  0
  192.7940  175.8160  136.7480 C   0  0  0  0  0  0  0  0  0  0  0  0
  192.6850  176.0600  138.1190 C   0  0  0  0  0  3  0  0  0  0  0  0
  189.1800  177.2880  138.3460 C   0  0  0  0  0  0  0  0  0  0  0  0
  190.1970  177.2910  140.5520 C   0  0  0  0  0  3  0  0  0  0  0  0
  190.5040  176.5390  136.4280 C   0  0  0  0  0  3  0  0  0  0  0  0
  191.3860  176.7950  140.0180 C   0  0  0  0  0  3  0  0  0  0  0  0
  191.7050  176.0530  135.9040 C   0  0  0  0  0  3  0  0  0  0  0  0
  189.0910  177.5440  139.7260 C   0  0  0  0  0  0  0  0  0  0  0  0
  190.3810  176.7910  137.8020 C   0  0  0  0  0  0  0  0  0  0  0  0
  193.9870  175.3390  136.2230 O   0  0  0  0  0  1  0  0  0  0  0  0
  188.0470  177.5380  137.4990 N   0  0  0  0  0  0  0  0  0  0  0  0
  187.3550  175.1790  137.2020 C   0  0  0  0  0  3  0  0  0  0  0  0
  185.6680  176.9120  137.2490 C   0  0  0  0  0  3  0  0  0  0  0  0
  184.6740  175.9460  137.0720 C   0  0  0  0  0  3  0  0  0  0  0  0
  185.0220  174.5970  136.9590 C   0  0  0  0  0  3  0  0  0  0  0  0
  186.3620  174.2130  137.0230 C   0  0  0  0  0  3  0  0  0  0  0  0
  187.0200  176.5410  137.3140 C   0  0  0  0  0  0  0  0  0  0  0  0
  188.9070  179.7050  137.3500 O   0  0  0  0  0  1  0  0  0  0  0  0
  188.0040  178.8060  136.7780 C   0  0  0  0  0  2  0  0  0  0  0  0
  187.8940  178.0490  140.2550 O   0  0  0  0  0  0  0  0  0  0  0  0
  187.8260  178.7880  141.4680 C   0  0  0  0  0  2  0  0  0  0  0  0
  186.6610  178.3020  142.3150 C   0  0  0  0  0  2  0  0  0  0  0  0
  187.0570  177.1830  143.1000 O   0  0  0  0  0  0  0  0  0  0  0  0
  187.3900  177.7710  146.7600 C   0  0  0  0  0  3  0  0  0  0  0  0
  188.9700  177.0580  144.5630 C   0  0  0  0  0  3  0  0  0  0  0  0
  188.7560  177.5290  146.9300 C   0  0  0  0  0  3  0  0  0  0  0  0
  187.6030  177.3020  144.3830 C   0  0  0  0  0  0  0  0  0  0  0  0
  186.8150  177.6590  145.4910 C   0  0  0  0  0  3  0  0  0  0  0  0
  191.0020  176.9320  146.0130 C   0  0  0  0  0  1  0  0  0  0  0  0
  189.5460  177.1730  145.8330 C   0  0  0  0  0  0  0  0  0  0  0  0
  1  7  1  0  0  0  0
  2  3  1  0  0  0  0
  3  1  2  0  0  0  0
  4  9  2  0  0  0  0
  6 10  2  0  0  0  0
  7  5  2  0  0  0  0
  8  6  1  0  0  0  0
  8  2  2  0  0  0  0
  9 21  1  0  0  0  0
  9  5  1  0  0  0  0
 10  4  1  0  0  0  0
 10  1  1  0  0  0  0
 11  2  1  0  0  0  0
 12  4  1  0  0  0  0
 13 18  1  0  0  0  0
 14 18  2  0  0  0  0
 15 14  1  0  0  0  0
 16 17  1  0  0  0  0
 16 15  2  0  0  0  0
 17 13  2  0  0  0  0
 18 12  1  0  0  0  0
 20 19  1  0  0  0  0
 20 12  1  0  0  0  0
 21 22  1  0  0  0  0
 22 23  1  0  0  0  0
 23 24  1  0  0  0  0
 24 28  1  0  0  0  0
 25 27  1  0  0  0  0
 26 31  1  0  0  0  0
 28 26  2  0  0  0  0
 28 29  1  0  0  0  0
 29 25  2  0  0  0  0
 31 30  1  0  0  0  0
 31 27  2  0  0  0  0
M  END
>  <MODEL>
8

>  <REMARK>
 VINA RESULT:      -7.5      2.178      4.926
  Name = 
  8 active torsions:
  status: ('A' for Active; 'I' for Inactive)
    1  A    between atoms: C_10  and  N_28
    2  A    between atoms: C_16  and  O_23
    3  A    between atoms: C_18  and  C_22
    4  A    between atoms: C_18  and  O_23
    5  A    between atoms: C_19  and  O_29
    6  A    between atoms: C_22  and  O_29
    7  A    between atoms: C_24  and  N_28
    8  A    between atoms: N_28  and  C_30
                            x       y       z     vdW  Elec       q    Type
                         _______ _______ _______ _____ _____    ______ ____

>  <TORSDO>
F 8

$$$$
=
 OpenBabel10222421463D

 31 34  0  0  0  0  0  0  0  0999 V2000
  184.1220  178.4570  139.7240 C   0  0  0  0  0  0  0  0  0  0  0  0
  182.1720  178.1890  138.3150 C   0  0  0  0  0  0  0  0  0  0  0  0
  182.7340  178.4610  139.5650 C   0  0  0  0  0  3  0  0  0  0  0  0
  186.3620  178.1680  138.7930 C   0  0  0  0  0  0  0  0  0  0  0  0
  186.0610  178.7080  141.1420 C   0  0  0  0  0  3  0  0  0  0  0  0
  184.3850  177.9090  137.3720 C   0  0  0  0  0  3  0  0  0  0  0  0
  184.6770  178.7230  140.9760 C   0  0  0  0  0  3  0  0  0  0  0  0
  182.9960  177.9150  137.2200 C   0  0  0  0  0  3  0  0  0  0  0  0
  186.9120  178.4290  140.0610 C   0  0  0  0  0  0  0  0  0  0  0  0
  184.9630  178.1780  138.6210 C   0  0  0  0  0  0  0  0  0  0  0  0
  180.7920  178.1890  138.1620 O   0  0  0  0  0  1  0  0  0  0  0  0
  187.2290  177.8920  137.6830 N   0  0  0  0  0  0  0  0  0  0  0  0
  186.8200  175.5550  136.9730 C   0  0  0  0  0  3  0  0  0  0  0  0
  189.0570  176.2280  137.6020 C   0  0  0  0  0  3  0  0  0  0  0  0
  189.5160  174.9330  137.3460 C   0  0  0  0  0  3  0  0  0  0  0  0
  188.6260  173.9500  136.9050 C   0  0  0  0  0  3  0  0  0  0  0  0
  187.2790  174.2600  136.7190 C   0  0  0  0  0  3  0  0  0  0  0  0
  187.7030  176.5540  137.4210 C   0  0  0  0  0  0  0  0  0  0  0  0
  188.9020  179.4870  137.3410 O   0  0  0  0  0  1  0  0  0  0  0  0
  187.6730  179.0200  136.8700 C   0  0  0  0  0  2  0  0  0  0  0  0
  188.3040  178.4060  140.2240 O   0  0  0  0  0  0  0  0  0  0  0  0
  188.9820  177.4550  141.0350 C   0  0  0  0  0  2  0  0  0  0  0  0
  189.3280  178.0650  142.3830 C   0  0  0  0  0  2  0  0  0  0  0  0
  189.0890  177.1270  143.4260 O   0  0  0  0  0  0  0  0  0  0  0  0
  186.2180  177.8830  145.6700 C   0  0  0  0  0  3  0  0  0  0  0  0
  188.9950  177.5690  145.7950 C   0  0  0  0  0  3  0  0  0  0  0  0
  186.8840  178.0280  146.8900 C   0  0  0  0  0  3  0  0  0  0  0  0
  188.3370  177.4260  144.5680 C   0  0  0  0  0  0  0  0  0  0  0  0
  186.9420  177.5840  144.5130 C   0  0  0  0  0  3  0  0  0  0  0  0
  188.9800  178.0420  148.2490 C   0  0  0  0  0  1  0  0  0  0  0  0
  188.2720  177.8710  146.9530 C   0  0  0  0  0  0  0  0  0  0  0  0
  1  7  1  0  0  0  0
  2  3  1  0  0  0  0
  3  1  2  0  0  0  0
  4  9  2  0  0  0  0
  6 10  2  0  0  0  0
  7  5  2  0  0  0  0
  8  6  1  0  0  0  0
  8  2  2  0  0  0  0
  9 21  1  0  0  0  0
  9  5  1  0  0  0  0
 10  4  1  0  0  0  0
 10  1  1  0  0  0  0
 11  2  1  0  0  0  0
 12  4  1  0  0  0  0
 13 18  1  0  0  0  0
 15 14  1  0  0  0  0
 16 15  2  0  0  0  0
 17 16  1  0  0  0  0
 17 13  2  0  0  0  0
 18 14  2  0  0  0  0
 18 12  1  0  0  0  0
 20 19  1  0  0  0  0
 20 12  1  0  0  0  0
 21 22  1  0  0  0  0
 22 23  1  0  0  0  0
 23 24  1  0  0  0  0
 24 28  1  0  0  0  0
 25 27  1  0  0  0  0
 26 31  1  0  0  0  0
 27 31  2  0  0  0  0
 28 26  2  0  0  0  0
 29 28  1  0  0  0  0
 29 25  2  0  0  0  0
 31 30  1  0  0  0  0
M  END
>  <MODEL>
9

>  <REMARK>
 VINA RESULT:      -7.2      1.612      2.172
  Name = 
  8 active torsions:
  status: ('A' for Active; 'I' for Inactive)
    1  A    between atoms: C_10  and  N_28
    2  A    between atoms: C_16  and  O_23
    3  A    between atoms: C_18  and  C_22
    4  A    between atoms: C_18  and  O_23
    5  A    between atoms: C_19  and  O_29
    6  A    between atoms: C_22  and  O_29
    7  A    between atoms: C_24  and  N_28
    8  A    between atoms: N_28  and  C_30
                            x       y       z     vdW  Elec       q    Type
                         _______ _______ _______ _____ _____    ______ ____

>  <TORSDO>
F 8

$$$$
