=
 OpenBabel10232408103D

 38 42  0  0  1  0  0  0  0  0999 V2000
  188.1130  177.0580  146.2280 C   0  0  2  0  0  3  0  0  0  0  0  0
  189.6600  177.8880  142.4210 C   0  0  2  0  0  3  0  0  0  0  0  0
  186.7630  178.9420  141.5390 N   0  0  0  0  0  2  0  0  0  0  0  0
  187.6080  178.4590  146.4910 C   0  0  2  0  0  3  0  0  0  0  0  0
  184.7010  178.7950  142.9310 C   0  0  0  0  0  0  0  0  0  0  0  0
  184.8080  177.9770  140.7060 O   0  0  0  0  0  0  0  0  0  0  0  0
  185.3930  178.5610  141.6580 C   0  0  0  0  0  0  0  0  0  0  0  0
  189.0340  176.6370  142.6860 O   0  0  0  0  0  0  0  0  0  0  0  0
  189.7470  178.8520  143.6150 C   0  0  2  0  0  3  0  0  0  0  0  0
  189.9540  178.3200  140.0620 O   0  0  0  0  0  0  0  0  0  0  0  0
  189.1250  178.5780  141.1610 C   0  0  1  0  0  3  0  0  0  0  0  0
  183.3220  178.5910  143.0680 C   0  0  0  0  0  3  0  0  0  0  0  0
  184.8300  179.2880  145.2880 C   0  0  0  0  0  0  0  0  0  0  0  0
  188.8610  176.7390  147.5100 C   0  0  2  0  0  3  0  0  0  0  0  0
  188.4810  178.9430  147.6420 C   0  0  0  0  0  2  0  0  0  0  0  0
  187.3610  175.4530  143.8950 C   0  0  0  0  0  1  0  0  0  0  0  0
  188.1780  176.7330  143.8060 C   0  0  1  0  0  3  0  0  0  0  0  0
  189.1440  178.5250  138.9270 C   0  0  2  0  0  3  0  0  0  0  0  0
  189.3940  177.9370  148.0090 O   0  0  0  0  0  0  0  0  0  0  0  0
  187.7250  178.1640  140.7820 C   0  0  2  0  0  3  0  0  0  0  0  0
  187.6780  178.4970  139.3250 C   0  0  0  0  0  2  0  0  0  0  0  0
  185.4530  179.1440  144.0520 C   0  0  0  0  0  3  0  0  0  0  0  0
  182.7280  178.7500  144.3240 C   0  0  0  0  0  3  0  0  0  0  0  0
  185.6630  179.5690  146.4900 C   0  0  0  0  0  2  0  0  0  0  0  0
  188.9780  176.9320  145.0300 N   0  0  1  0  0  0  0  0  0  0  0  0
  190.8190  179.7270  143.4440 O   0  0  0  0  0  1  0  0  0  0  0  0
  183.4900  179.0850  145.4020 N   0  0  0  0  0  0  0  0  0  0  0  0
  186.2770  178.3880  146.9260 O   0  0  0  0  0  0  0  0  0  0  0  0
  189.9430  178.0450  144.8980 C   0  0  0  0  0  2  0  0  0  0  0  0
  189.9170  175.7550  147.3030 N   0  0  0  0  0  2  0  0  0  0  0  0
  191.1880  176.4340  147.4890 C   0  0  0  0  0  2  0  0  0  0  0  0
  192.3280  175.4780  147.1890 C   0  0  0  0  0  2  0  0  0  0  0  0
  192.6800  173.8690  145.3210 O   0  0  0  0  0  1  0  0  0  0  0  0
  192.0130  176.0190  144.8920 O   0  0  0  0  0  0  0  0  0  0  0  0
  192.3410  175.1480  145.7400 C   0  0  0  0  0  0  0  0  0  0  0  0
  189.4490  177.4850  137.8530 C   0  0  0  0  0  2  0  0  0  0  0  0
  190.3810  176.0670  138.5180 S   0  0  0  0  0  0  0  0  0  0  0  0
  191.8740  176.5320  137.6020 C   0  0  0  0  0  1  0  0  0  0  0  0
  1  4  1  0  0  0  0
  1 14  1  0  0  0  0
  2  8  1  0  0  0  0
  2  9  1  0  0  0  0
  3  7  1  0  0  0  0
  4 28  1  0  0  0  0
  4 15  1  0  0  0  0
  5 12  2  0  0  0  0
  5 22  1  0  0  0  0
  6  7  2  0  0  0  0
  7  5  1  0  0  0  0
  8 17  1  0  0  0  0
  9 29  1  0  0  0  0
 10 11  1  0  0  0  0
 11  2  1  0  0  0  0
 12 23  1  0  0  0  0
 13 27  1  0  0  0  0
 13 24  1  0  0  0  0
 14 19  1  0  0  0  0
 15 19  1  0  0  0  0
 17 16  1  0  0  0  0
 17 25  1  0  0  0  0
 18 21  1  0  0  0  0
 18 10  1  0  0  0  0
 20 11  1  0  0  0  0
 20  3  1  0  0  0  0
 21 20  1  0  0  0  0
 22 13  2  0  0  0  0
 23 27  2  0  0  0  0
 24 28  1  0  0  0  0
 25  1  1  0  0  0  0
 26  9  1  0  0  0  0
 29 25  1  0  0  0  0
 30 31  1  0  0  0  0
 30 14  1  0  0  0  0
 32 31  1  0  0  0  0
 33 35  1  0  0  0  0
 34 35  2  0  0  0  0
 35 32  1  0  0  0  0
 36 37  1  0  0  0  0
 36 18  1  0  0  0  0
 38 37  1  0  0  0  0
M  END
>  <MODEL>
1

>  <REMARK>
 VINA RESULT:      -5.9      0.000      0.000
  Name = 
  6 active torsions:
  status: ('A' for Active; 'I' for Inactive)
    1  A    between atoms: C_11  and  C_19
    2  A    between atoms: C_11  and  N_25
    3  A    between atoms: S_14  and  C_33
    4  A    between atoms: C_17  and  N_25
    5  A    between atoms: C_19  and  C_27
    6  A    between atoms: C_23  and  C_33
                            x       y       z     vdW  Elec       q    Type
                         _______ _______ _______ _____ _____    ______ ____

>  <TORSDO>
F 6

$$$$
=
 OpenBabel10232408103D

 38 42  0  0  1  0  0  0  0  0999 V2000
  191.9130  174.7060  137.3730 C   0  0  2  0  0  3  0  0  0  0  0  0
  195.7070  175.7610  135.9350 C   0  0  2  0  0  3  0  0  0  0  0  0
  195.8150  172.9780  134.3460 N   0  0  0  0  0  2  0  0  0  0  0  0
  191.2950  174.4870  136.0100 C   0  0  2  0  0  3  0  0  0  0  0  0
  194.1180  171.1600  134.5270 C   0  0  0  0  0  0  0  0  0  0  0  0
  196.4400  170.7850  134.8440 O   0  0  0  0  0  0  0  0  0  0  0  0
  195.5180  171.5990  134.5640 C   0  0  0  0  0  0  0  0  0  0  0  0
  195.5780  174.9850  137.1220 O   0  0  0  0  0  0  0  0  0  0  0  0
  194.3870  176.1910  135.2770 C   0  0  2  0  0  3  0  0  0  0  0  0
  197.9510  175.7540  135.0380 O   0  0  0  0  0  0  0  0  0  0  0  0
  196.6880  175.1590  134.9220 C   0  0  1  0  0  3  0  0  0  0  0  0
  193.7690  169.8050  134.5760 C   0  0  0  0  0  3  0  0  0  0  0  0
  191.7760  171.7330  134.5840 C   0  0  0  0  0  0  0  0  0  0  0  0
  190.8790  175.5800  138.0590 C   0  0  2  0  0  3  0  0  0  0  0  0
  190.2550  175.5960  135.9070 C   0  0  0  0  0  2  0  0  0  0  0  0
  194.3310  173.3470  138.3150 C   0  0  0  0  0  1  0  0  0  0  0  0
  194.3220  174.3410  137.1630 C   0  0  1  0  0  3  0  0  0  0  0  0
  198.8540  174.8240  134.4850 C   0  0  2  0  0  3  0  0  0  0  0  0
  190.2650  176.3750  137.0790 O   0  0  0  0  0  0  0  0  0  0  0  0
  196.8730  173.6690  135.0570 C   0  0  2  0  0  3  0  0  0  0  0  0
  198.2030  173.4520  134.4100 C   0  0  0  0  0  2  0  0  0  0  0  0
  193.1100  172.1240  134.5330 C   0  0  0  0  0  3  0  0  0  0  0  0
  192.4180  169.4470  134.6210 C   0  0  0  0  0  3  0  0  0  0  0  0
  190.7190  172.7760  134.6850 C   0  0  0  0  0  2  0  0  0  0  0  0
  193.2520  175.3420  137.3430 N   0  0  1  0  0  0  0  0  0  0  0  0
  194.5820  177.3530  134.5310 O   0  0  0  0  0  1  0  0  0  0  0  0
  191.4560  170.4110  134.6320 N   0  0  0  0  0  0  0  0  0  0  0  0
  190.6420  173.2460  136.0020 O   0  0  0  0  0  0  0  0  0  0  0  0
  193.3440  176.4460  136.3640 C   0  0  0  0  0  2  0  0  0  0  0  0
  191.4660  176.4130  139.1020 N   0  0  0  0  0  2  0  0  0  0  0  0
  190.3750  176.9320  139.9100 C   0  0  0  0  0  2  0  0  0  0  0  0
  190.8840  177.2740  141.2990 C   0  0  0  0  0  2  0  0  0  0  0  0
  190.4830  175.4130  142.9050 O   0  0  0  0  0  1  0  0  0  0  0  0
  188.9580  177.1100  142.6880 O   0  0  0  0  0  0  0  0  0  0  0  0
  190.0470  176.5960  142.3230 C   0  0  0  0  0  0  0  0  0  0  0  0
  200.1460  174.7820  135.2950 C   0  0  0  0  0  2  0  0  0  0  0  0
  200.2300  173.3160  136.3760 S   0  0  0  0  0  0  0  0  0  0  0  0
  199.4900  174.2150  137.7660 C   0  0  0  0  0  1  0  0  0  0  0  0
  1 14  1  0  0  0  0
  2  8  1  0  0  0  0
  3  7  1  0  0  0  0
  3 20  1  0  0  0  0
  4  1  1  0  0  0  0
  5 22  2  0  0  0  0
  5  7  1  0  0  0  0
  5 12  1  0  0  0  0
  7  6  2  0  0  0  0
  8 17  1  0  0  0  0
  9  2  1  0  0  0  0
  9 29  1  0  0  0  0
 11 10  1  0  0  0  0
 11 20  1  0  0  0  0
 11  2  1  0  0  0  0
 12 23  2  0  0  0  0
 13 27  2  0  0  0  0
 13 24  1  0  0  0  0
 14 30  1  0  0  0  0
 15  4  1  0  0  0  0
 15 19  1  0  0  0  0
 17 25  1  0  0  0  0
 17 16  1  0  0  0  0
 18 10  1  0  0  0  0
 18 36  1  0  0  0  0
 19 14  1  0  0  0  0
 21 18  1  0  0  0  0
 21 20  1  0  0  0  0
 22 13  1  0  0  0  0
 23 27  1  0  0  0  0
 24 28  1  0  0  0  0
 25  1  1  0  0  0  0
 26  9  1  0  0  0  0
 28  4  1  0  0  0  0
 29 25  1  0  0  0  0
 30 31  1  0  0  0  0
 31 32  1  0  0  0  0
 32 35  1  0  0  0  0
 35 34  2  0  0  0  0
 35 33  1  0  0  0  0
 36 37  1  0  0  0  0
 37 38  1  0  0  0  0
M  END
>  <MODEL>
2

>  <REMARK>
 VINA RESULT:      -5.3      6.551     11.285
  Name = 
  6 active torsions:
  status: ('A' for Active; 'I' for Inactive)
    1  A    between atoms: C_11  and  C_19
    2  A    between atoms: C_11  and  N_25
    3  A    between atoms: S_14  and  C_33
    4  A    between atoms: C_17  and  N_25
    5  A    between atoms: C_19  and  C_27
    6  A    between atoms: C_23  and  C_33
                            x       y       z     vdW  Elec       q    Type
                         _______ _______ _______ _____ _____    ______ ____

>  <TORSDO>
F 6

$$$$
=
 OpenBabel10232408103D

 38 42  0  0  1  0  0  0  0  0999 V2000
  188.4740  175.1360  135.5170 C   0  0  2  0  0  3  0  0  0  0  0  0
  186.5370  178.1050  137.7550 C   0  0  2  0  0  3  0  0  0  0  0  0
  184.0240  176.1400  138.0770 N   0  0  0  0  0  2  0  0  0  0  0  0
  188.3720  174.0620  136.5770 C   0  0  2  0  0  3  0  0  0  0  0  0
  183.7800  173.9300  136.9490 C   0  0  0  0  0  0  0  0  0  0  0  0
  182.1240  175.6260  136.8220 O   0  0  0  0  0  0  0  0  0  0  0  0
  183.2380  175.2540  137.2810 C   0  0  0  0  0  0  0  0  0  0  0  0
  186.3270  178.0110  136.3500 O   0  0  0  0  0  0  0  0  0  0  0  0
  187.5250  177.0870  138.3470 C   0  0  2  0  0  3  0  0  0  0  0  0
  184.9130  179.5070  138.8660 O   0  0  0  0  0  0  0  0  0  0  0  0
  185.2340  178.1790  138.5590 C   0  0  1  0  0  3  0  0  0  0  0  0
  183.0040  172.9570  136.3080 C   0  0  0  0  0  3  0  0  0  0  0  0
  185.6850  172.4570  136.8140 C   0  0  0  0  0  0  0  0  0  0  0  0
  189.9350  175.0500  135.1120 C   0  0  2  0  0  3  0  0  0  0  0  0
  189.8210  173.8180  136.9800 C   0  0  0  0  0  2  0  0  0  0  0  0
  186.1780  176.6010  134.4390 C   0  0  0  0  0  1  0  0  0  0  0  0
  186.6460  176.7170  135.8820 C   0  0  1  0  0  3  0  0  0  0  0  0
  183.5250  179.5090  139.1090 C   0  0  2  0  0  3  0  0  0  0  0  0
  190.6740  174.6560  136.2380 O   0  0  0  0  0  0  0  0  0  0  0  0
  184.0450  177.5730  137.8570 C   0  0  2  0  0  3  0  0  0  0  0  0
  182.8960  178.2500  138.5340 C   0  0  0  0  0  2  0  0  0  0  0  0
  185.1280  173.6730  137.1980 C   0  0  0  0  0  3  0  0  0  0  0  0
  183.5950  171.7440  135.9410 C   0  0  0  0  0  3  0  0  0  0  0  0
  187.1450  172.2370  137.0050 C   0  0  0  0  0  2  0  0  0  0  0  0
  188.1010  176.4930  135.9820 N   0  0  1  0  0  0  0  0  0  0  0  0
  188.0870  177.5930  139.5180 O   0  0  0  0  0  1  0  0  0  0  0  0
  184.9150  171.5230  136.1920 N   0  0  0  0  0  0  0  0  0  0  0  0
  187.8570  172.8950  135.9940 O   0  0  0  0  0  0  0  0  0  0  0  0
  188.6270  176.8060  137.3280 C   0  0  0  0  0  2  0  0  0  0  0  0
  190.4360  176.3140  134.5860 N   0  0  0  0  0  2  0  0  0  0  0  0
  191.7000  176.5910  135.2470 C   0  0  0  0  0  2  0  0  0  0  0  0
  192.8500  176.1830  134.3460 C   0  0  0  0  0  2  0  0  0  0  0  0
  194.8090  176.8910  135.7130 O   0  0  0  0  0  1  0  0  0  0  0  0
  194.3510  174.6670  135.4030 O   0  0  0  0  0  0  0  0  0  0  0  0
  194.0460  175.8650  135.1690 C   0  0  0  0  0  0  0  0  0  0  0  0
  182.8790  180.7660  138.5340 C   0  0  0  0  0  2  0  0  0  0  0  0
  181.0900  180.8350  138.8770 S   0  0  0  0  0  0  0  0  0  0  0  0
  180.9060  182.3890  137.9600 C   0  0  0  0  0  1  0  0  0  0  0  0
  1 25  1  0  0  0  0
  1  4  1  0  0  0  0
  2  9  1  0  0  0  0
  2 11  1  0  0  0  0
  4 15  1  0  0  0  0
  5 22  1  0  0  0  0
  5  7  1  0  0  0  0
  6  7  2  0  0  0  0
  7  3  1  0  0  0  0
  8  2  1  0  0  0  0
  9 26  1  0  0  0  0
 10 18  1  0  0  0  0
 11 10  1  0  0  0  0
 12  5  2  0  0  0  0
 13 24  1  0  0  0  0
 13 22  2  0  0  0  0
 14  1  1  0  0  0  0
 14 19  1  0  0  0  0
 16 17  1  0  0  0  0
 17 25  1  0  0  0  0
 17  8  1  0  0  0  0
 19 15  1  0  0  0  0
 20  3  1  0  0  0  0
 20 21  1  0  0  0  0
 20 11  1  0  0  0  0
 21 18  1  0  0  0  0
 23 27  2  0  0  0  0
 23 12  1  0  0  0  0
 25 29  1  0  0  0  0
 27 13  1  0  0  0  0
 28  4  1  0  0  0  0
 28 24  1  0  0  0  0
 29  9  1  0  0  0  0
 30 14  1  0  0  0  0
 30 31  1  0  0  0  0
 32 35  1  0  0  0  0
 32 31  1  0  0  0  0
 35 34  2  0  0  0  0
 35 33  1  0  0  0  0
 36 37  1  0  0  0  0
 36 18  1  0  0  0  0
 38 37  1  0  0  0  0
M  END
>  <MODEL>
3

>  <REMARK>
 VINA RESULT:      -5.2      6.658      9.406
  Name = 
  6 active torsions:
  status: ('A' for Active; 'I' for Inactive)
    1  A    between atoms: C_11  and  C_19
    2  A    between atoms: C_11  and  N_25
    3  A    between atoms: S_14  and  C_33
    4  A    between atoms: C_17  and  N_25
    5  A    between atoms: C_19  and  C_27
    6  A    between atoms: C_23  and  C_33
                            x       y       z     vdW  Elec       q    Type
                         _______ _______ _______ _____ _____    ______ ____

>  <TORSDO>
F 6

$$$$
=
 OpenBabel10232408103D

 38 42  0  0  1  0  0  0  0  0999 V2000
  183.2510  174.3390  137.0820 C   0  0  2  0  0  3  0  0  0  0  0  0
  187.2080  174.9970  135.8630 C   0  0  2  0  0  3  0  0  0  0  0  0
  187.1480  172.1730  134.3470 N   0  0  0  0  0  2  0  0  0  0  0  0
  182.6980  174.1400  135.6880 C   0  0  2  0  0  3  0  0  0  0  0  0
  185.2800  170.5250  134.4610 C   0  0  0  0  0  0  0  0  0  0  0  0
  187.5330  169.9460  134.9320 O   0  0  0  0  0  0  0  0  0  0  0  0
  186.7110  170.8340  134.5770 C   0  0  0  0  0  0  0  0  0  0  0  0
  186.9340  174.2700  137.0560 O   0  0  0  0  0  0  0  0  0  0  0  0
  185.9760  175.5290  135.1130 C   0  0  2  0  0  3  0  0  0  0  0  0
  189.4910  174.7570  135.1090 O   0  0  0  0  0  0  0  0  0  0  0  0
  188.1870  174.2790  134.9280 C   0  0  1  0  0  3  0  0  0  0  0  0
  184.8030  169.2100  134.5180 C   0  0  0  0  0  3  0  0  0  0  0  0
  183.0030  171.3140  134.3570 C   0  0  0  0  0  0  0  0  0  0  0  0
  182.2640  175.3250  137.6820 C   0  0  2  0  0  3  0  0  0  0  0  0
  181.7750  175.3370  135.4950 C   0  0  0  0  0  2  0  0  0  0  0  0
  185.4680  172.7890  138.2050 C   0  0  0  0  0  1  0  0  0  0  0  0
  185.6220  173.7470  137.0330 C   0  0  1  0  0  3  0  0  0  0  0  0
  190.3340  173.7320  134.6360 C   0  0  2  0  0  3  0  0  0  0  0  0
  181.7880  176.1450  136.6480 O   0  0  0  0  0  0  0  0  0  0  0  0
  188.2220  172.7820  135.1080 C   0  0  2  0  0  3  0  0  0  0  0  0
  189.5630  172.4250  134.5500 C   0  0  0  0  0  2  0  0  0  0  0  0
  184.3690  171.5780  134.3820 C   0  0  0  0  0  3  0  0  0  0  0  0
  183.4240  168.9810  134.4860 C   0  0  0  0  0  3  0  0  0  0  0  0
  182.0450  172.4530  134.3680 C   0  0  0  0  0  2  0  0  0  0  0  0
  184.6430  174.8470  137.1230 N   0  0  1  0  0  0  0  0  0  0  0  0
  186.3240  176.6460  134.3560 O   0  0  0  0  0  1  0  0  0  0  0  0
  182.5580  170.0300  134.4140 N   0  0  0  0  0  0  0  0  0  0  0  0
  181.9330  172.9660  135.6660 O   0  0  0  0  0  0  0  0  0  0  0  0
  184.8980  175.9100  136.1260 C   0  0  0  0  0  2  0  0  0  0  0  0
  182.8620  176.1290  138.7410 N   0  0  0  0  0  2  0  0  0  0  0  0
  182.3430  177.4800  138.6080 C   0  0  0  0  0  2  0  0  0  0  0  0
  183.4900  178.4520  138.4030 C   0  0  0  0  0  2  0  0  0  0  0  0
  183.5080  178.3620  140.8920 O   0  0  0  0  0  1  0  0  0  0  0  0
  184.8570  179.8390  139.7720 O   0  0  0  0  0  0  0  0  0  0  0  0
  183.9840  178.9340  139.7190 C   0  0  0  0  0  0  0  0  0  0  0  0
  191.5650  173.5930  135.5260 C   0  0  0  0  0  2  0  0  0  0  0  0
  192.4120  175.1880  135.7780 S   0  0  0  0  0  0  0  0  0  0  0  0
  192.3020  175.0380  137.5820 C   0  0  0  0  0  1  0  0  0  0  0  0
  1 25  1  0  0  0  0
  1 14  1  0  0  0  0
  2  8  1  0  0  0  0
  3  7  1  0  0  0  0
  3 20  1  0  0  0  0
  4  1  1  0  0  0  0
  5 12  1  0  0  0  0
  5  7  1  0  0  0  0
  7  6  2  0  0  0  0
  9  2  1  0  0  0  0
  9 29  1  0  0  0  0
 11 20  1  0  0  0  0
 11 10  1  0  0  0  0
 11  2  1  0  0  0  0
 13 24  1  0  0  0  0
 13 22  1  0  0  0  0
 13 27  2  0  0  0  0
 14 30  1  0  0  0  0
 15  4  1  0  0  0  0
 15 19  1  0  0  0  0
 17  8  1  0  0  0  0
 17 25  1  0  0  0  0
 17 16  1  0  0  0  0
 18 10  1  0  0  0  0
 18 36  1  0  0  0  0
 19 14  1  0  0  0  0
 21 18  1  0  0  0  0
 21 20  1  0  0  0  0
 22  5  2  0  0  0  0
 23 12  2  0  0  0  0
 24 28  1  0  0  0  0
 26  9  1  0  0  0  0
 27 23  1  0  0  0  0
 28  4  1  0  0  0  0
 29 25  1  0  0  0  0
 31 30  1  0  0  0  0
 32 31  1  0  0  0  0
 32 35  1  0  0  0  0
 35 34  2  0  0  0  0
 35 33  1  0  0  0  0
 36 37  1  0  0  0  0
 37 38  1  0  0  0  0
M  END
>  <MODEL>
4

>  <REMARK>
 VINA RESULT:      -4.5      6.828     10.565
  Name = 
  6 active torsions:
  status: ('A' for Active; 'I' for Inactive)
    1  A    between atoms: C_11  and  C_19
    2  A    between atoms: C_11  and  N_25
    3  A    between atoms: S_14  and  C_33
    4  A    between atoms: C_17  and  N_25
    5  A    between atoms: C_19  and  C_27
    6  A    between atoms: C_23  and  C_33
                            x       y       z     vdW  Elec       q    Type
                         _______ _______ _______ _____ _____    ______ ____

>  <TORSDO>
F 6

$$$$
=
 OpenBabel10232408103D

 38 42  0  0  1  0  0  0  0  0999 V2000
  190.1650  176.5410  141.6690 C   0  0  2  0  0  3  0  0  0  0  0  0
  186.4880  178.4100  142.4150 C   0  0  2  0  0  3  0  0  0  0  0  0
  187.2470  178.5310  145.5270 N   0  0  0  0  0  2  0  0  0  0  0  0
  191.0130  177.6280  142.2900 C   0  0  2  0  0  3  0  0  0  0  0  0
  189.2630  177.4810  146.5510 C   0  0  0  0  0  0  0  0  0  0  0  0
  187.0650  177.0920  147.3560 O   0  0  0  0  0  0  0  0  0  0  0  0
  187.8110  177.6910  146.5340 C   0  0  0  0  0  0  0  0  0  0  0  0
  186.6110  176.9960  142.5230 O   0  0  0  0  0  0  0  0  0  0  0  0
  187.7610  179.1550  141.9820 C   0  0  2  0  0  3  0  0  0  0  0  0
  184.4630  179.2660  143.4170 O   0  0  0  0  0  0  0  0  0  0  0  0
  185.8290  179.0570  143.6390 C   0  0  1  0  0  3  0  0  0  0  0  0
  189.8970  176.8000  147.5980 C   0  0  0  0  0  3  0  0  0  0  0  0
  191.3810  177.6290  145.4070 C   0  0  0  0  0  0  0  0  0  0  0  0
  190.8630  176.3080  140.3410 C   0  0  2  0  0  3  0  0  0  0  0  0
  191.7800  178.2040  141.1060 C   0  0  0  0  0  2  0  0  0  0  0  0
  188.0030  175.1450  143.0680 C   0  0  0  0  0  1  0  0  0  0  0  0
  187.9590  176.6250  142.7200 C   0  0  1  0  0  3  0  0  0  0  0  0
  183.8840  179.3500  144.6990 C   0  0  2  0  0  3  0  0  0  0  0  0
  191.4200  177.5270  139.9250 O   0  0  0  0  0  0  0  0  0  0  0  0
  185.9670  178.2520  144.9060 C   0  0  2  0  0  3  0  0  0  0  0  0
  184.8310  178.7630  145.7340 C   0  0  0  0  0  2  0  0  0  0  0  0
  190.0160  177.8930  145.4520 C   0  0  0  0  0  3  0  0  0  0  0  0
  191.2720  176.5560  147.5220 C   0  0  0  0  0  3  0  0  0  0  0  0
  192.1490  177.9940  144.1850 C   0  0  0  0  0  2  0  0  0  0  0  0
  188.7370  176.8990  141.4960 N   0  0  1  0  0  0  0  0  0  0  0  0
  187.4230  180.3590  141.3660 O   0  0  0  0  0  1  0  0  0  0  0  0
  191.9790  176.9660  146.4330 N   0  0  0  0  0  0  0  0  0  0  0  0
  191.9210  177.0430  143.1820 O   0  0  0  0  0  0  0  0  0  0  0  0
  188.5460  178.2810  141.0060 C   0  0  0  0  0  2  0  0  0  0  0  0
  189.9550  175.7870  139.3250 N   0  0  0  0  0  2  0  0  0  0  0  0
  190.1530  176.5730  138.1190 C   0  0  0  0  0  2  0  0  0  0  0  0
  188.8130  177.0550  137.5950 C   0  0  0  0  0  2  0  0  0  0  0  0
  188.9580  179.5410  137.5600 O   0  0  0  0  0  1  0  0  0  0  0  0
  189.1990  178.3350  135.6260 O   0  0  0  0  0  0  0  0  0  0  0  0
  188.9890  178.3380  136.8670 C   0  0  0  0  0  0  0  0  0  0  0  0
  182.5290  178.6500  144.7260 C   0  0  0  0  0  2  0  0  0  0  0  0
  181.4670  179.1600  143.3340 S   0  0  0  0  0  0  0  0  0  0  0  0
  179.9990  178.4170  144.0960 C   0  0  0  0  0  1  0  0  0  0  0  0
  1  4  1  0  0  0  0
  2  8  1  0  0  0  0
  2 11  1  0  0  0  0
  3  7  1  0  0  0  0
  4 28  1  0  0  0  0
  5 12  1  0  0  0  0
  7  5  1  0  0  0  0
  7  6  2  0  0  0  0
  8 17  1  0  0  0  0
  9  2  1  0  0  0  0
 10 11  1  0  0  0  0
 10 18  1  0  0  0  0
 11 20  1  0  0  0  0
 13 22  1  0  0  0  0
 13 27  2  0  0  0  0
 14  1  1  0  0  0  0
 15  4  1  0  0  0  0
 17 16  1  0  0  0  0
 18 36  1  0  0  0  0
 18 21  1  0  0  0  0
 19 14  1  0  0  0  0
 19 15  1  0  0  0  0
 20  3  1  0  0  0  0
 20 21  1  0  0  0  0
 22  5  2  0  0  0  0
 23 12  2  0  0  0  0
 24 13  1  0  0  0  0
 25  1  1  0  0  0  0
 25 17  1  0  0  0  0
 26  9  1  0  0  0  0
 27 23  1  0  0  0  0
 28 24  1  0  0  0  0
 29 25  1  0  0  0  0
 29  9  1  0  0  0  0
 30 14  1  0  0  0  0
 31 30  1  0  0  0  0
 32 31  1  0  0  0  0
 34 35  2  0  0  0  0
 35 33  1  0  0  0  0
 35 32  1  0  0  0  0
 37 38  1  0  0  0  0
 37 36  1  0  0  0  0
M  END
>  <MODEL>
5

>  <REMARK>
 VINA RESULT:      -4.3      2.698      7.236
  Name = 
  6 active torsions:
  status: ('A' for Active; 'I' for Inactive)
    1  A    between atoms: C_11  and  C_19
    2  A    between atoms: C_11  and  N_25
    3  A    between atoms: S_14  and  C_33
    4  A    between atoms: C_17  and  N_25
    5  A    between atoms: C_19  and  C_27
    6  A    between atoms: C_23  and  C_33
                            x       y       z     vdW  Elec       q    Type
                         _______ _______ _______ _____ _____    ______ ____

>  <TORSDO>
F 6

$$$$
=
 OpenBabel10232408103D

 38 42  0  0  1  0  0  0  0  0999 V2000
  190.2240  176.5750  141.7500 C   0  0  2  0  0  3  0  0  0  0  0  0
  186.5000  178.4100  142.3260 C   0  0  2  0  0  3  0  0  0  0  0  0
  187.1360  178.5820  145.4640 N   0  0  0  0  0  2  0  0  0  0  0  0
  191.0340  177.6820  142.3880 C   0  0  2  0  0  3  0  0  0  0  0  0
  189.1230  177.5700  146.5800 C   0  0  0  0  0  0  0  0  0  0  0  0
  186.8990  177.1660  147.3040 O   0  0  0  0  0  0  0  0  0  0  0  0
  187.6690  177.7630  146.5030 C   0  0  0  0  0  0  0  0  0  0  0  0
  186.6350  176.9990  142.4590 O   0  0  0  0  0  0  0  0  0  0  0  0
  187.7790  179.1650  141.9320 C   0  0  2  0  0  3  0  0  0  0  0  0
  184.4270  179.2540  143.2370 O   0  0  0  0  0  0  0  0  0  0  0  0
  185.7860  179.0650  143.5150 C   0  0  1  0  0  3  0  0  0  0  0  0
  189.7230  176.9110  147.6600 C   0  0  0  0  0  3  0  0  0  0  0  0
  191.2820  177.7290  145.5170 C   0  0  0  0  0  0  0  0  0  0  0  0
  190.9760  176.3340  140.4530 C   0  0  2  0  0  3  0  0  0  0  0  0
  191.8410  178.2500  141.2260 C   0  0  0  0  0  2  0  0  0  0  0  0
  188.0260  175.1720  143.0830 C   0  0  0  0  0  1  0  0  0  0  0  0
  187.9790  176.6470  142.7130 C   0  0  1  0  0  3  0  0  0  0  0  0
  183.7980  179.3480  144.4950 C   0  0  2  0  0  3  0  0  0  0  0  0
  191.5350  177.5530  140.0420 O   0  0  0  0  0  0  0  0  0  0  0  0
  185.8840  178.2790  144.7980 C   0  0  2  0  0  3  0  0  0  0  0  0
  184.7110  178.7870  145.5730 C   0  0  0  0  0  2  0  0  0  0  0  0
  189.9120  177.9770  145.5050 C   0  0  0  0  0  3  0  0  0  0  0  0
  191.1020  176.6830  147.6410 C   0  0  0  0  0  3  0  0  0  0  0  0
  192.0920  178.0860  144.3200 C   0  0  0  0  0  2  0  0  0  0  0  0
  188.8000  176.9140  141.5160 N   0  0  1  0  0  0  0  0  0  0  0  0
  187.4510  180.3560  141.2870 O   0  0  0  0  0  1  0  0  0  0  0  0
  191.8470  177.0870  146.5740 N   0  0  0  0  0  0  0  0  0  0  0  0
  191.9150  177.1190  143.3230 O   0  0  0  0  0  0  0  0  0  0  0  0
  188.6120  178.2870  141.0000 C   0  0  0  0  0  2  0  0  0  0  0  0
  190.1150  175.7880  139.4100 N   0  0  0  0  0  2  0  0  0  0  0  0
  190.5920  176.3010  138.1370 C   0  0  0  0  0  2  0  0  0  0  0  0
  191.4950  175.2750  137.4770 C   0  0  0  0  0  2  0  0  0  0  0  0
  193.4800  176.7570  137.7370 O   0  0  0  0  0  1  0  0  0  0  0  0
  193.0310  175.7570  135.7240 O   0  0  0  0  0  0  0  0  0  0  0  0
  192.6990  175.9470  136.9230 C   0  0  0  0  0  0  0  0  0  0  0  0
  182.4510  178.6320  144.4790 C   0  0  0  0  0  2  0  0  0  0  0  0
  181.5790  178.8490  142.8930 S   0  0  0  0  0  0  0  0  0  0  0  0
  179.9820  178.4180  143.6360 C   0  0  0  0  0  1  0  0  0  0  0  0
  1  4  1  0  0  0  0
  2  8  1  0  0  0  0
  2 11  1  0  0  0  0
  3  7  1  0  0  0  0
  4 28  1  0  0  0  0
  5 12  1  0  0  0  0
  7  5  1  0  0  0  0
  7  6  2  0  0  0  0
  8 17  1  0  0  0  0
  9  2  1  0  0  0  0
 10 11  1  0  0  0  0
 10 18  1  0  0  0  0
 11 20  1  0  0  0  0
 13 27  2  0  0  0  0
 14  1  1  0  0  0  0
 15  4  1  0  0  0  0
 17 16  1  0  0  0  0
 18 21  1  0  0  0  0
 19 14  1  0  0  0  0
 19 15  1  0  0  0  0
 20  3  1  0  0  0  0
 20 21  1  0  0  0  0
 22 13  1  0  0  0  0
 22  5  2  0  0  0  0
 23 12  2  0  0  0  0
 24 13  1  0  0  0  0
 25  1  1  0  0  0  0
 25 17  1  0  0  0  0
 26  9  1  0  0  0  0
 27 23  1  0  0  0  0
 28 24  1  0  0  0  0
 29 25  1  0  0  0  0
 29  9  1  0  0  0  0
 30 14  1  0  0  0  0
 31 30  1  0  0  0  0
 32 31  1  0  0  0  0
 34 35  2  0  0  0  0
 35 32  1  0  0  0  0
 35 33  1  0  0  0  0
 36 18  1  0  0  0  0
 37 38  1  0  0  0  0
 37 36  1  0  0  0  0
M  END
>  <MODEL>
6

>  <REMARK>
 VINA RESULT:      -4.1      2.781      6.992
  Name = 
  6 active torsions:
  status: ('A' for Active; 'I' for Inactive)
    1  A    between atoms: C_11  and  C_19
    2  A    between atoms: C_11  and  N_25
    3  A    between atoms: S_14  and  C_33
    4  A    between atoms: C_17  and  N_25
    5  A    between atoms: C_19  and  C_27
    6  A    between atoms: C_23  and  C_33
                            x       y       z     vdW  Elec       q    Type
                         _______ _______ _______ _____ _____    ______ ____

>  <TORSDO>
F 6

$$$$
=
 OpenBabel10232408103D

 38 42  0  0  1  0  0  0  0  0999 V2000
  184.8370  179.1890  141.4380 C   0  0  2  0  0  3  0  0  0  0  0  0
  182.4340  177.1870  138.6480 C   0  0  2  0  0  3  0  0  0  0  0  0
  184.9690  176.9860  136.6960 N   0  0  0  0  0  2  0  0  0  0  0  0
  185.8900  178.1070  141.5300 C   0  0  2  0  0  3  0  0  0  0  0  0
  187.1810  178.0620  137.1060 C   0  0  0  0  0  0  0  0  0  0  0  0
  185.9640  178.3580  135.0900 O   0  0  0  0  0  0  0  0  0  0  0  0
  186.0360  177.8090  136.2230 C   0  0  0  0  0  0  0  0  0  0  0  0
  182.5940  178.6000  138.5770 O   0  0  0  0  0  0  0  0  0  0  0  0
  183.1610  176.4950  139.8120 C   0  0  2  0  0  3  0  0  0  0  0  0
  181.4790  176.2390  136.6410 O   0  0  0  0  0  0  0  0  0  0  0  0
  182.6850  176.4810  137.3100 C   0  0  1  0  0  3  0  0  0  0  0  0
  188.3270  178.7270  136.6530 C   0  0  0  0  0  3  0  0  0  0  0  0
  188.1230  178.0150  139.3260 C   0  0  0  0  0  0  0  0  0  0  0  0
  184.5530  179.4860  142.9000 C   0  0  2  0  0  3  0  0  0  0  0  0
  185.7530  177.5950  142.9580 C   0  0  0  0  0  2  0  0  0  0  0  0
  184.0170  180.4730  138.9370 C   0  0  0  0  0  1  0  0  0  0  0  0
  183.7690  179.0040  139.2470 C   0  0  1  0  0  3  0  0  0  0  0  0
  181.8270  176.0960  135.2830 C   0  0  2  0  0  3  0  0  0  0  0  0
  184.7330  178.2990  143.6260 O   0  0  0  0  0  0  0  0  0  0  0  0
  183.5810  177.2480  136.3710 C   0  0  2  0  0  3  0  0  0  0  0  0
  183.2110  176.6760  135.0390 C   0  0  0  0  0  2  0  0  0  0  0  0
  187.0850  177.7090  138.4510 C   0  0  0  0  0  3  0  0  0  0  0  0
  189.3540  179.0140  137.5580 C   0  0  0  0  0  3  0  0  0  0  0  0
  187.9620  177.7140  140.7750 C   0  0  0  0  0  2  0  0  0  0  0  0
  183.6140  178.7940  140.7000 N   0  0  1  0  0  0  0  0  0  0  0  0
  182.5150  175.3030  140.1360 O   0  0  0  0  0  1  0  0  0  0  0  0
  189.2290  178.6620  138.8680 N   0  0  0  0  0  0  0  0  0  0  0  0
  187.1560  178.6900  141.3740 O   0  0  0  0  0  0  0  0  0  0  0  0
  183.1630  177.4240  141.0250 C   0  0  0  0  0  2  0  0  0  0  0  0
  183.2090  180.0130  143.1040 N   0  0  0  0  0  2  0  0  0  0  0  0
  182.6010  179.2520  144.1830 C   0  0  0  0  0  2  0  0  0  0  0  0
  181.3190  178.6050  143.6940 C   0  0  0  0  0  2  0  0  0  0  0  0
  180.1880  179.1940  141.5540 O   0  0  0  0  0  0  0  0  0  0  0  0
  180.2440  180.6900  143.2890 O   0  0  0  0  0  1  0  0  0  0  0  0
  180.5670  179.5600  142.8390 C   0  0  0  0  0  0  0  0  0  0  0  0
  180.7830  176.7530  134.3870 C   0  0  0  0  0  2  0  0  0  0  0  0
  180.9590  178.5680  134.3460 S   0  0  0  0  0  0  0  0  0  0  0  0
  179.9830  178.7640  135.8620 C   0  0  0  0  0  1  0  0  0  0  0  0
  1  4  1  0  0  0  0
  1 14  1  0  0  0  0
  2  9  1  0  0  0  0
  4 15  1  0  0  0  0
  5 22  1  0  0  0  0
  6  7  2  0  0  0  0
  7  3  1  0  0  0  0
  7  5  1  0  0  0  0
  8  2  1  0  0  0  0
  8 17  1  0  0  0  0
  9 26  1  0  0  0  0
  9 29  1  0  0  0  0
 10 11  1  0  0  0  0
 11  2  1  0  0  0  0
 12  5  2  0  0  0  0
 12 23  1  0  0  0  0
 13 24  1  0  0  0  0
 14 30  1  0  0  0  0
 14 19  1  0  0  0  0
 15 19  1  0  0  0  0
 16 17  1  0  0  0  0
 17 25  1  0  0  0  0
 18 10  1  0  0  0  0
 20  3  1  0  0  0  0
 20 11  1  0  0  0  0
 21 18  1  0  0  0  0
 21 20  1  0  0  0  0
 22 13  2  0  0  0  0
 23 27  2  0  0  0  0
 24 28  1  0  0  0  0
 25 29  1  0  0  0  0
 25  1  1  0  0  0  0
 27 13  1  0  0  0  0
 28  4  1  0  0  0  0
 30 31  1  0  0  0  0
 32 31  1  0  0  0  0
 33 35  2  0  0  0  0
 35 34  1  0  0  0  0
 35 32  1  0  0  0  0
 36 18  1  0  0  0  0
 37 36  1  0  0  0  0
 37 38  1  0  0  0  0
M  END
>  <MODEL>
7

>  <REMARK>
 VINA RESULT:      -4.1      4.656      8.452
  Name = 
  6 active torsions:
  status: ('A' for Active; 'I' for Inactive)
    1  A    between atoms: C_11  and  C_19
    2  A    between atoms: C_11  and  N_25
    3  A    between atoms: S_14  and  C_33
    4  A    between atoms: C_17  and  N_25
    5  A    between atoms: C_19  and  C_27
    6  A    between atoms: C_23  and  C_33
                            x       y       z     vdW  Elec       q    Type
                         _______ _______ _______ _____ _____    ______ ____

>  <TORSDO>
F 6

$$$$
=
 OpenBabel10232408103D

 38 42  0  0  1  0  0  0  0  0999 V2000
  192.1930  174.8390  136.8690 C   0  0  2  0  0  3  0  0  0  0  0  0
  188.5260  176.5570  135.7860 C   0  0  2  0  0  3  0  0  0  0  0  0
  188.3790  177.9260  138.6810 N   0  0  0  0  0  2  0  0  0  0  0  0
  192.8700  176.1440  137.2210 C   0  0  2  0  0  3  0  0  0  0  0  0
  189.9840  177.5130  140.5440 C   0  0  0  0  0  0  0  0  0  0  0  0
  187.6350  177.2930  140.8010 O   0  0  0  0  0  0  0  0  0  0  0  0
  188.6040  177.5860  140.0490 C   0  0  0  0  0  0  0  0  0  0  0  0
  188.5610  175.3080  136.4680 O   0  0  0  0  0  0  0  0  0  0  0  0
  189.8950  177.1750  135.4620 C   0  0  2  0  0  3  0  0  0  0  0  0
  186.3330  177.5710  135.7770 O   0  0  0  0  0  0  0  0  0  0  0  0
  187.5730  177.5710  136.4280 C   0  0  1  0  0  3  0  0  0  0  0  0
  190.2710  177.3390  141.9030 C   0  0  0  0  0  3  0  0  0  0  0  0
  192.3430  177.3750  140.0600 C   0  0  0  0  0  0  0  0  0  0  0  0
  193.2280  174.1680  135.9840 C   0  0  2  0  0  3  0  0  0  0  0  0
  193.9610  176.2770  136.1650 C   0  0  0  0  0  2  0  0  0  0  0  0
  189.6740  173.9240  138.0530 C   0  0  0  0  0  1  0  0  0  0  0  0
  189.7850  175.1480  137.1550 C   0  0  1  0  0  3  0  0  0  0  0  0
  185.4190  178.0970  136.7130 C   0  0  2  0  0  3  0  0  0  0  0  0
  193.9240  175.1720  135.2950 O   0  0  0  0  0  0  0  0  0  0  0  0
  187.3170  177.3300  137.8950 C   0  0  2  0  0  3  0  0  0  0  0  0
  186.0130  178.0300  138.1110 C   0  0  0  0  0  2  0  0  0  0  0  0
  191.0310  177.5280  139.6230 C   0  0  0  0  0  3  0  0  0  0  0  0
  191.6010  177.1940  142.3090 C   0  0  0  0  0  3  0  0  0  0  0  0
  193.4380  177.2990  139.0540 C   0  0  0  0  0  2  0  0  0  0  0  0
  190.8860  174.9900  136.1860 N   0  0  1  0  0  0  0  0  0  0  0  0
  189.7890  178.0180  134.3570 O   0  0  0  0  0  1  0  0  0  0  0  0
  192.6030  177.2060  141.3850 N   0  0  0  0  0  0  0  0  0  0  0  0
  193.4680  176.0210  138.4830 O   0  0  0  0  0  0  0  0  0  0  0  0
  190.8920  176.0560  135.1620 C   0  0  0  0  0  2  0  0  0  0  0  0
  192.6260  173.2260  135.0470 N   0  0  0  0  0  2  0  0  0  0  0  0
  192.9380  171.8860  135.5150 C   0  0  0  0  0  2  0  0  0  0  0  0
  194.3880  171.8240  135.9600 C   0  0  0  0  0  2  0  0  0  0  0  0
  195.1630  171.3240  138.2740 O   0  0  0  0  0  1  0  0  0  0  0  0
  194.0190  169.7480  137.0660 O   0  0  0  0  0  0  0  0  0  0  0  0
  194.5190  170.9010  137.1180 C   0  0  0  0  0  0  0  0  0  0  0  0
  184.0870  177.3570  136.6390 C   0  0  0  0  0  2  0  0  0  0  0  0
  184.3040  175.5480  136.6920 S   0  0  0  0  0  0  0  0  0  0  0  0
  183.3040  175.4050  138.1980 C   0  0  0  0  0  1  0  0  0  0  0  0
  1  4  1  0  0  0  0
  2 11  1  0  0  0  0
  2  8  1  0  0  0  0
  3  7  1  0  0  0  0
  4 28  1  0  0  0  0
  5 12  1  0  0  0  0
  7  5  1  0  0  0  0
  7  6  2  0  0  0  0
  8 17  1  0  0  0  0
  9  2  1  0  0  0  0
 10 11  1  0  0  0  0
 10 18  1  0  0  0  0
 11 20  1  0  0  0  0
 12 23  2  0  0  0  0
 13 27  2  0  0  0  0
 14  1  1  0  0  0  0
 15  4  1  0  0  0  0
 17 16  1  0  0  0  0
 18 21  1  0  0  0  0
 19 14  1  0  0  0  0
 19 15  1  0  0  0  0
 20 21  1  0  0  0  0
 20  3  1  0  0  0  0
 22 13  1  0  0  0  0
 22  5  2  0  0  0  0
 24 13  1  0  0  0  0
 25  1  1  0  0  0  0
 25 17  1  0  0  0  0
 26  9  1  0  0  0  0
 27 23  1  0  0  0  0
 28 24  1  0  0  0  0
 29  9  1  0  0  0  0
 29 25  1  0  0  0  0
 30 31  1  0  0  0  0
 30 14  1  0  0  0  0
 31 32  1  0  0  0  0
 32 35  1  0  0  0  0
 34 35  2  0  0  0  0
 35 33  1  0  0  0  0
 36 37  1  0  0  0  0
 36 18  1  0  0  0  0
 37 38  1  0  0  0  0
M  END
>  <MODEL>
8

>  <REMARK>
 VINA RESULT:      -3.7      4.906      8.795
  Name = 
  6 active torsions:
  status: ('A' for Active; 'I' for Inactive)
    1  A    between atoms: C_11  and  C_19
    2  A    between atoms: C_11  and  N_25
    3  A    between atoms: S_14  and  C_33
    4  A    between atoms: C_17  and  N_25
    5  A    between atoms: C_19  and  C_27
    6  A    between atoms: C_23  and  C_33
                            x       y       z     vdW  Elec       q    Type
                         _______ _______ _______ _____ _____    ______ ____

>  <TORSDO>
F 6

$$$$
=
 OpenBabel10232408103D

 38 42  0  0  1  0  0  0  0  0999 V2000
  187.3360  177.2690  145.5140 C   0  0  2  0  0  3  0  0  0  0  0  0
  190.5640  177.5550  142.8550 C   0  0  2  0  0  3  0  0  0  0  0  0
  188.5120  178.4220  140.5490 N   0  0  0  0  0  2  0  0  0  0  0  0
  186.8470  178.6860  145.3070 C   0  0  2  0  0  3  0  0  0  0  0  0
  186.0290  178.4490  140.7780 C   0  0  0  0  0  0  0  0  0  0  0  0
  187.1450  177.3140  139.0160 O   0  0  0  0  0  0  0  0  0  0  0  0
  187.2330  178.0410  140.0430 C   0  0  0  0  0  0  0  0  0  0  0  0
  189.8170  176.3470  142.9530 O   0  0  0  0  0  0  0  0  0  0  0  0
  190.1230  178.6850  143.7990 C   0  0  2  0  0  3  0  0  0  0  0  0
  191.9780  177.6410  140.8980 O   0  0  0  0  0  0  0  0  0  0  0  0
  190.7400  178.0440  141.4130 C   0  0  1  0  0  3  0  0  0  0  0  0
  184.7450  178.2450  140.2580 C   0  0  0  0  0  3  0  0  0  0  0  0
  185.0400  179.2850  142.8120 C   0  0  0  0  0  0  0  0  0  0  0  0
  187.3570  177.1550  147.0280 C   0  0  2  0  0  3  0  0  0  0  0  0
  187.0870  179.3480  146.6580 C   0  0  0  0  0  2  0  0  0  0  0  0
  187.7040  175.3270  143.3520 C   0  0  0  0  0  1  0  0  0  0  0  0
  188.5360  176.5930  143.4950 C   0  0  1  0  0  3  0  0  0  0  0  0
  191.8260  177.6640  139.4970 C   0  0  2  0  0  3  0  0  0  0  0  0
  187.6520  178.4210  147.5540 O   0  0  0  0  0  0  0  0  0  0  0  0
  189.6730  177.5570  140.4660 C   0  0  2  0  0  3  0  0  0  0  0  0
  190.3490  177.6720  139.1370 C   0  0  0  0  0  2  0  0  0  0  0  0
  186.1700  178.9700  142.0630 C   0  0  0  0  0  3  0  0  0  0  0  0
  183.6320  178.5770  141.0360 C   0  0  0  0  0  3  0  0  0  0  0  0
  185.2080  179.7520  144.2150 C   0  0  0  0  0  2  0  0  0  0  0  0
  188.6600  176.9830  144.9130 N   0  0  1  0  0  0  0  0  0  0  0  0
  191.1930  179.5430  144.0490 O   0  0  0  0  0  1  0  0  0  0  0  0
  183.8000  179.0800  142.2910 N   0  0  0  0  0  0  0  0  0  0  0  0
  185.4700  178.6580  145.0500 O   0  0  0  0  0  0  0  0  0  0  0  0
  189.6320  178.0790  145.1130 C   0  0  0  0  0  2  0  0  0  0  0  0
  188.3240  176.1680  147.4930 N   0  0  0  0  0  2  0  0  0  0  0  0
  189.5690  176.8690  147.7580 C   0  0  0  0  0  2  0  0  0  0  0  0
  190.7360  176.0640  147.2170 C   0  0  0  0  0  2  0  0  0  0  0  0
  193.1030  175.6220  147.8540 O   0  0  0  0  0  0  0  0  0  0  0  0
  192.0330  177.5080  148.5950 O   0  0  0  0  0  1  0  0  0  0  0  0
  191.9820  176.4370  147.9370 C   0  0  0  0  0  0  0  0  0  0  0  0
  192.5480  176.4820  138.8580 C   0  0  0  0  0  2  0  0  0  0  0  0
  192.1150  176.2860  137.0970 S   0  0  0  0  0  0  0  0  0  0  0  0
  191.5790  174.5730  137.3510 C   0  0  0  0  0  1  0  0  0  0  0  0
  1 14  1  0  0  0  0
  2  8  1  0  0  0  0
  2  9  1  0  0  0  0
  4  1  1  0  0  0  0
  4 15  1  0  0  0  0
  5 22  1  0  0  0  0
  6  7  2  0  0  0  0
  7  3  1  0  0  0  0
  7  5  1  0  0  0  0
  8 17  1  0  0  0  0
  9 26  1  0  0  0  0
  9 29  1  0  0  0  0
 10 11  1  0  0  0  0
 11  2  1  0  0  0  0
 12  5  2  0  0  0  0
 12 23  1  0  0  0  0
 13 24  1  0  0  0  0
 14 30  1  0  0  0  0
 14 19  1  0  0  0  0
 15 19  1  0  0  0  0
 16 17  1  0  0  0  0
 17 25  1  0  0  0  0
 18 10  1  0  0  0  0
 20  3  1  0  0  0  0
 20 11  1  0  0  0  0
 21 18  1  0  0  0  0
 21 20  1  0  0  0  0
 22 13  2  0  0  0  0
 23 27  2  0  0  0  0
 24 28  1  0  0  0  0
 25 29  1  0  0  0  0
 25  1  1  0  0  0  0
 27 13  1  0  0  0  0
 28  4  1  0  0  0  0
 30 31  1  0  0  0  0
 32 31  1  0  0  0  0
 32 35  1  0  0  0  0
 33 35  2  0  0  0  0
 35 34  1  0  0  0  0
 36 18  1  0  0  0  0
 37 38  1  0  0  0  0
 37 36  1  0  0  0  0
M  END
>  <MODEL>
9

>  <REMARK>
 VINA RESULT:      -3.7      1.650      2.198
  Name = 
  6 active torsions:
  status: ('A' for Active; 'I' for Inactive)
    1  A    between atoms: C_11  and  C_19
    2  A    between atoms: C_11  and  N_25
    3  A    between atoms: S_14  and  C_33
    4  A    between atoms: C_17  and  N_25
    5  A    between atoms: C_19  and  C_27
    6  A    between atoms: C_23  and  C_33
                            x       y       z     vdW  Elec       q    Type
                         _______ _______ _______ _____ _____    ______ ____

>  <TORSDO>
F 6

$$$$
