=
 OpenBabel10232410033D

 28 31  0  0  1  0  0  0  0  0999 V2000
  188.3790  178.2220  142.0270 C   0  0  2  0  0  3  0  0  0  0  0  0
  190.0110  177.5440  140.1630 C   0  0  0  0  0  3  0  0  0  0  0  0
  188.1170  177.6320  138.7630 C   0  0  0  0  0  3  0  0  0  0  0  0
  189.5530  177.2840  138.9280 C   0  0  0  0  0  0  0  0  0  0  0  0
  186.9120  178.3870  141.8170 C   0  0  0  0  0  0  0  0  0  0  0  0
  187.8160  178.2420  139.8920 C   0  0  0  0  0  0  0  0  0  0  0  0
  185.9620  178.4850  142.8880 N   0  0  0  0  0  2  0  0  0  0  0  0
  186.5700  178.3600  140.5570 N   0  0  0  0  0  0  0  0  0  0  0  0
  188.8780  178.1830  140.8000 C   0  0  1  0  0  3  0  0  0  0  0  0
  184.5410  178.6320  142.7660 C   0  0  0  0  0  0  0  0  0  0  0  0
  182.3550  179.1590  143.6690 C   0  0  0  0  0  3  0  0  0  0  0  0
  183.7350  179.0340  143.8380 C   0  0  0  0  0  3  0  0  0  0  0  0
  183.9350  178.3600  141.5360 C   0  0  0  0  0  3  0  0  0  0  0  0
  182.5890  178.4870  141.3900 N   0  0  0  0  0  0  0  0  0  0  0  0
  181.7940  178.8770  142.4230 C   0  0  0  0  0  3  0  0  0  0  0  0
  188.4370  177.2090  144.3160 C   0  0  0  0  0  3  0  0  0  0  0  0
  189.1110  176.9030  145.5010 C   0  0  0  0  0  3  0  0  0  0  0  0
  191.1010  177.9720  144.6450 C   0  0  0  0  0  3  0  0  0  0  0  0
  189.0880  177.9030  143.2850 C   0  0  0  0  0  0  0  0  0  0  0  0
  190.4260  178.2790  143.4610 C   0  0  0  0  0  3  0  0  0  0  0  0
  190.4500  177.2850  145.6730 C   0  0  0  0  0  0  0  0  0  0  0  0
  192.3450  175.0810  146.1600 O   0  0  0  0  0  0  0  0  0  0  0  0
  191.1760  176.9900  146.8740 N   0  0  0  0  0  2  0  0  0  0  0  0
  192.7590  175.7560  148.3970 C   0  0  0  0  0  1  0  0  0  0  0  0
  192.0930  175.9070  147.0770 C   0  0  0  0  0  0  0  0  0  0  0  0
  190.3500  176.5640  137.8980 C   0  0  0  0  0  2  0  0  0  0  0  0
  190.8070  175.2930  138.4320 N   0  0  0  0  0  2  0  0  0  0  0  0
  191.9250  174.8730  137.6080 C   0  0  0  0  0  1  0  0  0  0  0  0
  1 19  1  6  0  0  0
  3  4  1  0  0  0  0
  3  6  2  0  0  0  0
  4  2  2  0  0  0  0
  5  1  1  0  0  0  0
  5  7  1  0  0  0  0
  6  8  1  0  0  0  0
  6  9  1  0  0  0  0
  8  5  2  0  0  0  0
  9  2  1  1  0  0  0
  9  1  1  0  0  0  0
 10  7  1  0  0  0  0
 10 12  1  0  0  0  0
 11 12  2  0  0  0  0
 13 10  2  0  0  0  0
 14 13  1  0  0  0  0
 14 15  2  0  0  0  0
 15 11  1  0  0  0  0
 16 17  1  0  0  0  0
 17 21  2  0  0  0  0
 18 21  1  0  0  0  0
 19 20  1  0  0  0  0
 19 16  2  0  0  0  0
 20 18  2  0  0  0  0
 21 23  1  0  0  0  0
 22 25  2  0  0  0  0
 23 25  1  0  0  0  0
 25 24  1  0  0  0  0
 26 27  1  0  0  0  0
 26  4  1  0  0  0  0
 28 27  1  0  0  0  0
M  END
>  <MODEL>
1

>  <REMARK>
 VINA RESULT:      -8.9      0.000      0.000
  Name = 
  5 active torsions:
  status: ('A' for Active; 'I' for Inactive)
    1  A    between atoms: C_1  and  N_26
    2  A    between atoms: C_4  and  C_13
    3  A    between atoms: C_4  and  N_15
    4  A    between atoms: C_5  and  C_16
    5  A    between atoms: N_17  and  C_24
                            x       y       z     vdW  Elec       q    Type
                         _______ _______ _______ _____ _____    ______ ____

>  <TORSDO>
F 5

$$$$
=
 OpenBabel10232410033D

 28 31  0  0  1  0  0  0  0  0999 V2000
  188.6460  178.1360  141.3970 C   0  0  2  0  0  3  0  0  0  0  0  0
  189.9900  177.6350  139.2670 C   0  0  0  0  0  3  0  0  0  0  0  0
  187.9360  177.9400  138.1520 C   0  0  0  0  0  3  0  0  0  0  0  0
  189.3640  177.5350  138.0830 C   0  0  0  0  0  0  0  0  0  0  0  0
  187.1730  178.3660  141.4060 C   0  0  0  0  0  0  0  0  0  0  0  0
  187.8110  178.4210  139.3730 C   0  0  0  0  0  0  0  0  0  0  0  0
  186.3750  178.3650  142.5990 N   0  0  0  0  0  2  0  0  0  0  0  0
  186.6690  178.4960  140.2080 N   0  0  0  0  0  0  0  0  0  0  0  0
  188.9790  178.2270  140.1180 C   0  0  1  0  0  3  0  0  0  0  0  0
  184.9580  178.5650  142.6860 C   0  0  0  0  0  0  0  0  0  0  0  0
  182.9470  179.1520  143.9040 C   0  0  0  0  0  3  0  0  0  0  0  0
  184.3320  178.9750  143.8690 C   0  0  0  0  0  3  0  0  0  0  0  0
  184.1710  178.3380  141.5530 C   0  0  0  0  0  3  0  0  0  0  0  0
  182.8240  178.5160  141.6060 N   0  0  0  0  0  0  0  0  0  0  0  0
  182.2020  178.9150  142.7490 C   0  0  0  0  0  3  0  0  0  0  0  0
  189.7800  176.2850  142.6450 C   0  0  0  0  0  3  0  0  0  0  0  0
  190.5900  175.8320  143.6890 C   0  0  0  0  0  3  0  0  0  0  0  0
  190.8570  178.1020  144.4680 C   0  0  0  0  0  3  0  0  0  0  0  0
  189.4980  177.6520  142.5050 C   0  0  0  0  0  0  0  0  0  0  0  0
  190.0470  178.5550  143.4250 C   0  0  0  0  0  3  0  0  0  0  0  0
  191.1340  176.7390  144.6100 C   0  0  0  0  0  0  0  0  0  0  0  0
  190.4470  176.5420  147.4690 O   0  0  0  0  0  0  0  0  0  0  0  0
  191.9700  176.3140  145.6950 N   0  0  0  0  0  2  0  0  0  0  0  0
  192.6050  175.7620  148.0690 C   0  0  0  0  0  1  0  0  0  0  0  0
  191.6020  176.2280  147.0770 C   0  0  0  0  0  0  0  0  0  0  0  0
  189.9880  176.9170  136.8810 C   0  0  0  0  0  2  0  0  0  0  0  0
  190.9990  175.9590  137.2910 N   0  0  0  0  0  2  0  0  0  0  0  0
  190.4370  174.6390  137.0690 C   0  0  0  0  0  1  0  0  0  0  0  0
  1  5  1  0  0  0  0
  1 19  1  6  0  0  0
  3  6  2  0  0  0  0
  4  3  1  0  0  0  0
  4  2  2  0  0  0  0
  5  7  1  0  0  0  0
  6  9  1  0  0  0  0
  6  8  1  0  0  0  0
  7 10  1  0  0  0  0
  8  5  2  0  0  0  0
  9  2  1  6  0  0  0
  9  1  1  0  0  0  0
 10 12  1  0  0  0  0
 12 11  2  0  0  0  0
 13 14  1  0  0  0  0
 13 10  2  0  0  0  0
 14 15  2  0  0  0  0
 15 11  1  0  0  0  0
 16 17  1  0  0  0  0
 17 21  2  0  0  0  0
 18 21  1  0  0  0  0
 19 16  2  0  0  0  0
 19 20  1  0  0  0  0
 20 18  2  0  0  0  0
 21 23  1  0  0  0  0
 23 25  1  0  0  0  0
 25 22  2  0  0  0  0
 25 24  1  0  0  0  0
 26 27  1  0  0  0  0
 26  4  1  0  0  0  0
 28 27  1  0  0  0  0
M  END
>  <MODEL>
2

>  <REMARK>
 VINA RESULT:      -8.9      1.095      1.143
  Name = 
  5 active torsions:
  status: ('A' for Active; 'I' for Inactive)
    1  A    between atoms: C_1  and  N_26
    2  A    between atoms: C_4  and  C_13
    3  A    between atoms: C_4  and  N_15
    4  A    between atoms: C_5  and  C_16
    5  A    between atoms: N_17  and  C_24
                            x       y       z     vdW  Elec       q    Type
                         _______ _______ _______ _____ _____    ______ ____

>  <TORSDO>
F 5

$$$$
=
 OpenBabel10232410033D

 28 31  0  0  1  0  0  0  0  0999 V2000
  189.3120  177.8840  142.8380 C   0  0  2  0  0  3  0  0  0  0  0  0
  189.5540  177.6830  145.3870 C   0  0  0  0  0  3  0  0  0  0  0  0
  191.6840  176.7980  144.9030 C   0  0  0  0  0  3  0  0  0  0  0  0
  190.6380  177.0930  145.9170 C   0  0  2  0  0  3  0  0  0  0  0  0
  190.3420  177.4050  141.8720 C   0  0  0  0  0  0  0  0  0  0  0  0
  191.2280  177.3790  143.8110 C   0  0  0  0  0  0  0  0  0  0  0  0
  190.1040  177.2520  140.4660 N   0  0  0  0  0  2  0  0  0  0  0  0
  191.4640  177.0680  142.4490 N   0  0  0  0  0  0  0  0  0  0  0  0
  189.9390  177.8850  144.0050 C   0  0  0  0  0  0  0  0  0  0  0  0
  191.0360  176.7870  139.4810 C   0  0  0  0  0  0  0  0  0  0  0  0
  191.6190  175.4580  137.5400 C   0  0  0  0  0  3  0  0  0  0  0  0
  190.6730  175.8840  138.4750 C   0  0  0  0  0  3  0  0  0  0  0  0
  192.3560  177.2450  139.5280 C   0  0  0  0  0  3  0  0  0  0  0  0
  193.2630  176.8200  138.6090 N   0  0  0  0  0  0  0  0  0  0  0  0
  192.9240  175.9430  137.6250 C   0  0  0  0  0  3  0  0  0  0  0  0
  187.3920  178.7070  141.4580 C   0  0  0  0  0  3  0  0  0  0  0  0
  186.0210  178.8640  141.2410 C   0  0  0  0  0  3  0  0  0  0  0  0
  185.5610  177.7190  143.3170 C   0  0  0  0  0  3  0  0  0  0  0  0
  187.8610  178.0580  142.6090 C   0  0  0  0  0  0  0  0  0  0  0  0
  186.9320  177.5630  143.5340 C   0  0  0  0  0  3  0  0  0  0  0  0
  185.0940  178.3700  142.1720 C   0  0  0  0  0  0  0  0  0  0  0  0
  183.0880  179.3170  144.1110 O   0  0  0  0  0  0  0  0  0  0  0  0
  183.6800  178.5110  141.9850 N   0  0  0  0  0  2  0  0  0  0  0  0
  181.2940  179.0590  142.5810 C   0  0  0  0  0  1  0  0  0  0  0  0
  182.7310  178.9770  142.9520 C   0  0  0  0  0  0  0  0  0  0  0  0
  190.7040  176.6270  147.3280 C   0  0  0  0  0  2  0  0  0  0  0  0
  192.0100  176.9300  147.8850 N   0  0  0  0  0  2  0  0  0  0  0  0
  192.6690  175.6590  148.1190 C   0  0  0  0  0  1  0  0  0  0  0  0
  1 19  1  1  0  0  0
  1  9  1  0  0  0  0
  2  4  1  0  0  0  0
  3  4  1  0  0  0  0
  4 26  1  6  0  0  0
  5  8  2  0  0  0  0
  5  1  1  0  0  0  0
  6  9  1  0  0  0  0
  6  3  2  0  0  0  0
  7  5  1  0  0  0  0
  8  6  1  0  0  0  0
  9  2  2  0  0  0  0
 10 13  1  0  0  0  0
 10  7  1  0  0  0  0
 11 15  2  0  0  0  0
 11 12  1  0  0  0  0
 12 10  2  0  0  0  0
 14 13  2  0  0  0  0
 15 14  1  0  0  0  0
 16 19  1  0  0  0  0
 17 16  2  0  0  0  0
 17 21  1  0  0  0  0
 18 20  1  0  0  0  0
 19 20  2  0  0  0  0
 21 18  2  0  0  0  0
 23 21  1  0  0  0  0
 23 25  1  0  0  0  0
 24 25  1  0  0  0  0
 25 22  2  0  0  0  0
 26 27  1  0  0  0  0
 27 28  1  0  0  0  0
M  END
>  <MODEL>
3

>  <REMARK>
 VINA RESULT:      -8.9      2.528      7.972
  Name = 
  5 active torsions:
  status: ('A' for Active; 'I' for Inactive)
    1  A    between atoms: C_1  and  N_26
    2  A    between atoms: C_4  and  C_13
    3  A    between atoms: C_4  and  N_15
    4  A    between atoms: C_5  and  C_16
    5  A    between atoms: N_17  and  C_24
                            x       y       z     vdW  Elec       q    Type
                         _______ _______ _______ _____ _____    ______ ____

>  <TORSDO>
F 5

$$$$
=
 OpenBabel10232410033D

 28 31  0  0  1  0  0  0  0  0999 V2000
  189.2820  177.8900  142.7540 C   0  0  2  0  0  3  0  0  0  0  0  0
  189.5040  177.6950  145.3050 C   0  0  0  0  0  3  0  0  0  0  0  0
  191.6160  176.7590  144.8380 C   0  0  0  0  0  3  0  0  0  0  0  0
  190.5710  177.0830  145.8440 C   0  0  2  0  0  3  0  0  0  0  0  0
  190.3070  177.3830  141.7970 C   0  0  0  0  0  0  0  0  0  0  0  0
  191.1810  177.3460  143.7410 C   0  0  0  0  0  0  0  0  0  0  0  0
  190.0740  177.2290  140.3900 N   0  0  0  0  0  2  0  0  0  0  0  0
  191.4180  177.0230  142.3820 N   0  0  0  0  0  0  0  0  0  0  0  0
  189.9020  177.8810  143.9250 C   0  0  0  0  0  0  0  0  0  0  0  0
  191.0020  176.7380  139.4130 C   0  0  0  0  0  0  0  0  0  0  0  0
  191.5720  175.3710  137.4950 C   0  0  0  0  0  3  0  0  0  0  0  0
  190.6300  175.8210  138.4220 C   0  0  0  0  0  3  0  0  0  0  0  0
  192.3260  177.1850  139.4510 C   0  0  0  0  0  3  0  0  0  0  0  0
  193.2290  176.7350  138.5400 N   0  0  0  0  0  0  0  0  0  0  0  0
  192.8810  175.8450  137.5710 C   0  0  0  0  0  3  0  0  0  0  0  0
  186.8880  177.6690  143.4550 C   0  0  0  0  0  3  0  0  0  0  0  0
  185.5250  177.8700  143.2280 C   0  0  0  0  0  3  0  0  0  0  0  0
  186.0320  178.9330  141.1190 C   0  0  0  0  0  3  0  0  0  0  0  0
  187.8370  178.0950  142.5140 C   0  0  0  0  0  0  0  0  0  0  0  0
  187.3950  178.7310  141.3460 C   0  0  0  0  0  3  0  0  0  0  0  0
  185.0870  178.5040  142.0560 C   0  0  0  0  0  0  0  0  0  0  0  0
  183.3530  177.0920  140.1370 O   0  0  0  0  0  0  0  0  0  0  0  0
  183.6960  178.7280  141.7870 N   0  0  0  0  0  2  0  0  0  0  0  0
  181.4500  178.3910  140.6990 C   0  0  0  0  0  1  0  0  0  0  0  0
  182.8810  178.0210  140.8450 C   0  0  0  0  0  0  0  0  0  0  0  0
  190.6170  176.6220  147.2580 C   0  0  0  0  0  2  0  0  0  0  0  0
  191.9050  176.9540  147.8410 N   0  0  0  0  0  2  0  0  0  0  0  0
  192.5920  175.6980  148.0780 C   0  0  0  0  0  1  0  0  0  0  0  0
  1 19  1  1  0  0  0
  1  9  1  0  0  0  0
  2  4  1  0  0  0  0
  3  4  1  0  0  0  0
  4 26  1  6  0  0  0
  5  8  2  0  0  0  0
  5  1  1  0  0  0  0
  6  9  1  0  0  0  0
  6  3  2  0  0  0  0
  7  5  1  0  0  0  0
  8  6  1  0  0  0  0
  9  2  2  0  0  0  0
 10 13  1  0  0  0  0
 10  7  1  0  0  0  0
 11 15  2  0  0  0  0
 11 12  1  0  0  0  0
 12 10  2  0  0  0  0
 14 13  2  0  0  0  0
 15 14  1  0  0  0  0
 17 16  1  0  0  0  0
 18 20  2  0  0  0  0
 18 21  1  0  0  0  0
 19 16  2  0  0  0  0
 20 19  1  0  0  0  0
 21 17  2  0  0  0  0
 22 25  2  0  0  0  0
 23 21  1  0  0  0  0
 24 25  1  0  0  0  0
 25 23  1  0  0  0  0
 26 27  1  0  0  0  0
 27 28  1  0  0  0  0
M  END
>  <MODEL>
4

>  <REMARK>
 VINA RESULT:      -8.8      2.649      8.036
  Name = 
  5 active torsions:
  status: ('A' for Active; 'I' for Inactive)
    1  A    between atoms: C_1  and  N_26
    2  A    between atoms: C_4  and  C_13
    3  A    between atoms: C_4  and  N_15
    4  A    between atoms: C_5  and  C_16
    5  A    between atoms: N_17  and  C_24
                            x       y       z     vdW  Elec       q    Type
                         _______ _______ _______ _____ _____    ______ ____

>  <TORSDO>
F 5

$$$$
=
 OpenBabel10232410033D

 28 31  0  0  1  0  0  0  0  0999 V2000
  186.5400  177.6920  143.0050 C   0  0  2  0  0  3  0  0  0  0  0  0
  187.2990  177.7970  145.4570 C   0  0  0  0  0  3  0  0  0  0  0  0
  185.1370  178.6370  145.8700 C   0  0  0  0  0  3  0  0  0  0  0  0
  186.4970  178.3370  146.3880 C   0  0  2  0  0  3  0  0  0  0  0  0
  185.2100  178.1750  142.5340 C   0  0  0  0  0  0  0  0  0  0  0  0
  185.1420  178.1080  144.6630 C   0  0  0  0  0  0  0  0  0  0  0  0
  184.8840  178.3840  141.1520 N   0  0  0  0  0  2  0  0  0  0  0  0
  184.3940  178.4590  143.5120 N   0  0  0  0  0  0  0  0  0  0  0  0
  186.4130  177.6330  144.3220 C   0  0  0  0  0  0  0  0  0  0  0  0
  183.6380  178.8570  140.6240 C   0  0  0  0  0  0  0  0  0  0  0  0
  181.2280  179.0940  140.7060 C   0  0  0  0  0  3  0  0  0  0  0  0
  182.4150  178.6140  141.2630 C   0  0  0  0  0  3  0  0  0  0  0  0
  183.6400  179.5810  139.4290 C   0  0  0  0  0  3  0  0  0  0  0  0
  182.4730  180.0390  138.9020 N   0  0  0  0  0  0  0  0  0  0  0  0
  181.2780  179.8120  139.5120 C   0  0  0  0  0  3  0  0  0  0  0  0
  188.7890  176.6630  142.6160 C   0  0  0  0  0  3  0  0  0  0  0  0
  189.9670  176.5440  141.8740 C   0  0  0  0  0  3  0  0  0  0  0  0
  189.1690  178.2270  140.3370 C   0  0  0  0  0  3  0  0  0  0  0  0
  187.7910  177.5680  142.2260 C   0  0  0  0  0  0  0  0  0  0  0  0
  187.9920  178.3470  141.0790 C   0  0  0  0  0  3  0  0  0  0  0  0
  190.1650  177.3280  140.7280 C   0  0  0  0  0  0  0  0  0  0  0  0
  190.7380  175.4890  138.4970 O   0  0  0  0  0  0  0  0  0  0  0  0
  191.3600  177.2350  139.9400 N   0  0  0  0  0  2  0  0  0  0  0  0
  192.9110  176.3750  138.1510 C   0  0  0  0  0  1  0  0  0  0  0  0
  191.6060  176.3270  138.8590 C   0  0  0  0  0  0  0  0  0  0  0  0
  186.9760  178.7510  147.7350 C   0  0  0  0  0  2  0  0  0  0  0  0
  187.7790  177.6910  148.3180 N   0  0  0  0  0  2  0  0  0  0  0  0
  189.1120  178.2320  148.5060 C   0  0  0  0  0  1  0  0  0  0  0  0
  1 19  1  1  0  0  0
  1  9  1  0  0  0  0
  2  4  1  0  0  0  0
  3  4  1  0  0  0  0
  4 26  1  6  0  0  0
  5  1  1  0  0  0  0
  5  8  2  0  0  0  0
  6  3  2  0  0  0  0
  7  5  1  0  0  0  0
  8  6  1  0  0  0  0
  9  6  1  0  0  0  0
  9  2  2  0  0  0  0
 10  7  1  0  0  0  0
 10 12  1  0  0  0  0
 11 12  2  0  0  0  0
 13 10  2  0  0  0  0
 14 13  1  0  0  0  0
 14 15  2  0  0  0  0
 15 11  1  0  0  0  0
 17 16  2  0  0  0  0
 18 21  2  0  0  0  0
 18 20  1  0  0  0  0
 19 16  1  0  0  0  0
 20 19  2  0  0  0  0
 21 17  1  0  0  0  0
 22 25  2  0  0  0  0
 23 21  1  0  0  0  0
 24 25  1  0  0  0  0
 25 23  1  0  0  0  0
 26 27  1  0  0  0  0
 27 28  1  0  0  0  0
M  END
>  <MODEL>
5

>  <REMARK>
 VINA RESULT:      -8.8      2.646      6.006
  Name = 
  5 active torsions:
  status: ('A' for Active; 'I' for Inactive)
    1  A    between atoms: C_1  and  N_26
    2  A    between atoms: C_4  and  C_13
    3  A    between atoms: C_4  and  N_15
    4  A    between atoms: C_5  and  C_16
    5  A    between atoms: N_17  and  C_24
                            x       y       z     vdW  Elec       q    Type
                         _______ _______ _______ _____ _____    ______ ____

>  <TORSDO>
F 5

$$$$
=
 OpenBabel10232410033D

 28 31  0  0  1  0  0  0  0  0999 V2000
  187.9440  177.0570  143.4410 C   0  0  2  0  0  3  0  0  0  0  0  0
  189.7250  176.8890  145.2830 C   0  0  0  0  0  3  0  0  0  0  0  0
  187.9890  177.5600  146.7290 C   0  0  0  0  0  3  0  0  0  0  0  0
  189.4330  177.2660  146.5390 C   0  0  2  0  0  3  0  0  0  0  0  0
  186.5500  177.5280  143.6830 C   0  0  0  0  0  0  0  0  0  0  0  0
  187.4450  177.1880  145.5870 C   0  0  0  0  0  0  0  0  0  0  0  0
  185.6400  177.8940  142.6350 N   0  0  0  0  0  2  0  0  0  0  0  0
  186.2640  177.6450  144.9520 N   0  0  0  0  0  0  0  0  0  0  0  0
  188.4220  176.8250  144.6540 C   0  0  0  0  0  0  0  0  0  0  0  0
  184.2950  178.3650  142.7900 C   0  0  0  0  0  0  0  0  0  0  0  0
  182.4520  179.1850  144.1320 C   0  0  0  0  0  3  0  0  0  0  0  0
  183.7700  178.7340  144.0340 C   0  0  0  0  0  3  0  0  0  0  0  0
  183.4760  178.4570  141.6610 C   0  0  0  0  0  3  0  0  0  0  0  0
  182.1950  178.8980  141.7760 N   0  0  0  0  0  0  0  0  0  0  0  0
  181.6720  179.2610  142.9790 C   0  0  0  0  0  3  0  0  0  0  0  0
  188.1970  177.7550  141.0490 C   0  0  0  0  0  3  0  0  0  0  0  0
  188.9260  177.7960  139.8580 C   0  0  0  0  0  3  0  0  0  0  0  0
  190.6980  176.5270  140.8990 C   0  0  0  0  0  3  0  0  0  0  0  0
  188.7100  177.0970  142.1760 C   0  0  0  0  0  0  0  0  0  0  0  0
  189.9690  176.4860  142.0900 C   0  0  0  0  0  3  0  0  0  0  0  0
  190.1840  177.1800  139.7750 C   0  0  0  0  0  0  0  0  0  0  0  0
  191.0010  174.8990  138.0980 O   0  0  0  0  0  0  0  0  0  0  0  0
  190.9620  177.2000  138.5720 N   0  0  0  0  0  2  0  0  0  0  0  0
  192.1550  176.2790  136.5530 C   0  0  0  0  0  1  0  0  0  0  0  0
  191.3420  176.0680  137.7780 C   0  0  0  0  0  0  0  0  0  0  0  0
  190.4720  177.5300  147.5720 C   0  0  0  0  0  2  0  0  0  0  0  0
  191.7700  177.0990  147.0850 N   0  0  0  0  0  2  0  0  0  0  0  0
  192.0550  175.8290  147.7260 C   0  0  0  0  0  1  0  0  0  0  0  0
  1 19  1  1  0  0  0
  1  5  1  0  0  0  0
  1  9  1  0  0  0  0
  2  4  1  0  0  0  0
  4  3  1  0  0  0  0
  4 26  1  6  0  0  0
  5  8  2  0  0  0  0
  6  3  2  0  0  0  0
  7 10  1  0  0  0  0
  7  5  1  0  0  0  0
  8  6  1  0  0  0  0
  9  2  2  0  0  0  0
  9  6  1  0  0  0  0
 10 12  1  0  0  0  0
 12 11  2  0  0  0  0
 13 14  1  0  0  0  0
 13 10  2  0  0  0  0
 14 15  2  0  0  0  0
 15 11  1  0  0  0  0
 16 19  1  0  0  0  0
 17 16  2  0  0  0  0
 18 20  1  0  0  0  0
 20 19  2  0  0  0  0
 21 17  1  0  0  0  0
 21 18  2  0  0  0  0
 23 21  1  0  0  0  0
 24 25  1  0  0  0  0
 25 22  2  0  0  0  0
 25 23  1  0  0  0  0
 27 26  1  0  0  0  0
 27 28  1  0  0  0  0
M  END
>  <MODEL>
6

>  <REMARK>
 VINA RESULT:      -8.6      1.975      5.891
  Name = 
  5 active torsions:
  status: ('A' for Active; 'I' for Inactive)
    1  A    between atoms: C_1  and  N_26
    2  A    between atoms: C_4  and  C_13
    3  A    between atoms: C_4  and  N_15
    4  A    between atoms: C_5  and  C_16
    5  A    between atoms: N_17  and  C_24
                            x       y       z     vdW  Elec       q    Type
                         _______ _______ _______ _____ _____    ______ ____

>  <TORSDO>
F 5

$$$$
=
 OpenBabel10232410033D

 28 31  0  0  1  0  0  0  0  0999 V2000
  187.6130  177.4930  143.3250 C   0  0  2  0  0  3  0  0  0  0  0  0
  185.4570  178.2560  144.4930 C   0  0  0  0  0  3  0  0  0  0  0  0
  184.7270  178.8090  142.3210 C   0  0  0  0  0  3  0  0  0  0  0  0
  184.4830  178.8530  143.7860 C   0  0  2  0  0  3  0  0  0  0  0  0
  187.8540  177.6400  141.8610 C   0  0  0  0  0  0  0  0  0  0  0  0
  185.7870  178.0340  142.2080 C   0  0  0  0  0  0  0  0  0  0  0  0
  189.1410  177.4840  141.2460 N   0  0  0  0  0  2  0  0  0  0  0  0
  186.7850  177.9990  141.2020 N   0  0  0  0  0  0  0  0  0  0  0  0
  186.3130  177.7060  143.4620 C   0  0  0  0  0  0  0  0  0  0  0  0
  189.4510  177.6230  139.8530 C   0  0  0  0  0  0  0  0  0  0  0  0
  189.3100  178.7820  137.7310 C   0  0  0  0  0  3  0  0  0  0  0  0
  188.9820  178.6950  139.0850 C   0  0  0  0  0  3  0  0  0  0  0  0
  190.2470  176.6520  139.2370 C   0  0  0  0  0  3  0  0  0  0  0  0
  190.5560  176.7540  137.9170 N   0  0  0  0  0  0  0  0  0  0  0  0
  190.1070  177.7910  137.1580 C   0  0  0  0  0  3  0  0  0  0  0  0
  189.9890  177.4430  144.1150 C   0  0  0  0  0  3  0  0  0  0  0  0
  190.9350  177.3650  145.1400 C   0  0  0  0  0  3  0  0  0  0  0  0
  189.1580  177.2100  146.7680 C   0  0  0  0  0  3  0  0  0  0  0  0
  188.6180  177.4030  144.4070 C   0  0  0  0  0  0  0  0  0  0  0  0
  188.2130  177.2880  145.7440 C   0  0  0  0  0  3  0  0  0  0  0  0
  190.5250  177.2470  146.4760 C   0  0  0  0  0  0  0  0  0  0  0  0
  192.3740  175.0420  147.1120 O   0  0  0  0  0  0  0  0  0  0  0  0
  191.4650  177.1630  147.5550 N   0  0  0  0  0  2  0  0  0  0  0  0
  193.2650  176.1600  149.0060 C   0  0  0  0  0  1  0  0  0  0  0  0
  192.3520  176.0730  147.8360 C   0  0  0  0  0  0  0  0  0  0  0  0
  183.3770  179.6250  144.4150 C   0  0  0  0  0  2  0  0  0  0  0  0
  182.1790  178.8060  144.4760 N   0  0  0  0  0  2  0  0  0  0  0  0
  181.3430  179.2070  143.3600 C   0  0  0  0  0  1  0  0  0  0  0  0
  1  9  1  0  0  0  0
  1 19  1  1  0  0  0
  3  4  1  0  0  0  0
  4 26  1  1  0  0  0
  4  2  1  0  0  0  0
  5  1  1  0  0  0  0
  6  3  2  0  0  0  0
  6  9  1  0  0  0  0
  7  5  1  0  0  0  0
  8  5  2  0  0  0  0
  8  6  1  0  0  0  0
  9  2  2  0  0  0  0
 10  7  1  0  0  0  0
 11 12  1  0  0  0  0
 12 10  2  0  0  0  0
 13 10  1  0  0  0  0
 14 13  2  0  0  0  0
 15 11  2  0  0  0  0
 15 14  1  0  0  0  0
 16 19  2  0  0  0  0
 16 17  1  0  0  0  0
 17 21  2  0  0  0  0
 19 20  1  0  0  0  0
 20 18  2  0  0  0  0
 21 18  1  0  0  0  0
 21 23  1  0  0  0  0
 22 25  2  0  0  0  0
 23 25  1  0  0  0  0
 25 24  1  0  0  0  0
 26 27  1  0  0  0  0
 28 27  1  0  0  0  0
M  END
>  <MODEL>
7

>  <REMARK>
 VINA RESULT:      -8.3      1.366      5.888
  Name = 
  5 active torsions:
  status: ('A' for Active; 'I' for Inactive)
    1  A    between atoms: C_1  and  N_26
    2  A    between atoms: C_4  and  C_13
    3  A    between atoms: C_4  and  N_15
    4  A    between atoms: C_5  and  C_16
    5  A    between atoms: N_17  and  C_24
                            x       y       z     vdW  Elec       q    Type
                         _______ _______ _______ _____ _____    ______ ____

>  <TORSDO>
F 5

$$$$
=
 OpenBabel10232410033D

 28 31  0  0  1  0  0  0  0  0999 V2000
  188.5180  178.0110  142.1360 C   0  0  2  0  0  3  0  0  0  0  0  0
  189.8240  177.3720  144.2530 C   0  0  0  0  0  3  0  0  0  0  0  0
  191.4480  176.5600  142.7510 C   0  0  0  0  0  3  0  0  0  0  0  0
  190.9750  176.6880  144.1540 C   0  0  2  0  0  3  0  0  0  0  0  0
  188.9820  177.6940  140.7540 C   0  0  0  0  0  0  0  0  0  0  0  0
  190.6160  177.3260  142.0730 C   0  0  0  0  0  0  0  0  0  0  0  0
  188.1450  177.7880  139.5930 N   0  0  0  0  0  2  0  0  0  0  0  0
  190.2100  177.2510  140.7180 N   0  0  0  0  0  0  0  0  0  0  0  0
  189.5870  177.8040  142.8900 C   0  0  0  0  0  0  0  0  0  0  0  0
  188.5150  177.4890  138.2400 C   0  0  0  0  0  0  0  0  0  0  0  0
  189.3330  178.1280  136.0510 C   0  0  0  0  0  3  0  0  0  0  0  0
  188.9900  178.4690  137.3600 C   0  0  0  0  0  3  0  0  0  0  0  0
  188.3930  176.1750  137.7790 C   0  0  0  0  0  3  0  0  0  0  0  0
  188.7320  175.8610  136.5010 N   0  0  0  0  0  0  0  0  0  0  0  0
  189.1960  176.8030  135.6350 C   0  0  0  0  0  3  0  0  0  0  0  0
  186.1890  178.8510  141.7630 C   0  0  0  0  0  3  0  0  0  0  0  0
  184.8790  179.0570  142.2020 C   0  0  0  0  0  3  0  0  0  0  0  0
  185.4270  178.0340  144.3200 C   0  0  0  0  0  3  0  0  0  0  0  0
  187.1320  178.2370  142.6000 C   0  0  0  0  0  0  0  0  0  0  0  0
  186.7370  177.8280  143.8810 C   0  0  0  0  0  3  0  0  0  0  0  0
  184.4890  178.6490  143.4870 C   0  0  0  0  0  0  0  0  0  0  0  0
  181.9640  178.5430  141.9710 O   0  0  0  0  0  0  0  0  0  0  0  0
  183.1550  178.8430  143.9740 N   0  0  0  0  0  2  0  0  0  0  0  0
  180.6430  179.0110  143.8850 C   0  0  0  0  0  1  0  0  0  0  0  0
  181.9450  178.7830  143.2070 C   0  0  0  0  0  0  0  0  0  0  0  0
  191.6070  175.9860  145.3040 C   0  0  0  0  0  2  0  0  0  0  0  0
  191.7930  176.9140  146.4040 N   0  0  0  0  0  2  0  0  0  0  0  0
  191.8840  176.1170  147.6120 C   0  0  0  0  0  1  0  0  0  0  0  0
  1 19  1  1  0  0  0
  1  9  1  0  0  0  0
  3  4  1  0  0  0  0
  4  2  1  0  0  0  0
  4 26  1  6  0  0  0
  5  1  1  0  0  0  0
  6  3  2  0  0  0  0
  6  9  1  0  0  0  0
  7  5  1  0  0  0  0
  8  5  2  0  0  0  0
  8  6  1  0  0  0  0
  9  2  2  0  0  0  0
 10  7  1  0  0  0  0
 11 12  1  0  0  0  0
 12 10  2  0  0  0  0
 13 10  1  0  0  0  0
 14 13  2  0  0  0  0
 15 11  2  0  0  0  0
 15 14  1  0  0  0  0
 16 17  2  0  0  0  0
 16 19  1  0  0  0  0
 17 21  1  0  0  0  0
 19 20  2  0  0  0  0
 20 18  1  0  0  0  0
 21 23  1  0  0  0  0
 21 18  2  0  0  0  0
 22 25  2  0  0  0  0
 25 24  1  0  0  0  0
 25 23  1  0  0  0  0
 26 27  1  0  0  0  0
 27 28  1  0  0  0  0
M  END
>  <MODEL>
8

>  <REMARK>
 VINA RESULT:      -8.3      2.774      7.174
  Name = 
  5 active torsions:
  status: ('A' for Active; 'I' for Inactive)
    1  A    between atoms: C_1  and  N_26
    2  A    between atoms: C_4  and  C_13
    3  A    between atoms: C_4  and  N_15
    4  A    between atoms: C_5  and  C_16
    5  A    between atoms: N_17  and  C_24
                            x       y       z     vdW  Elec       q    Type
                         _______ _______ _______ _____ _____    ______ ____

>  <TORSDO>
F 5

$$$$
=
 OpenBabel10232410033D

 28 31  0  0  1  0  0  0  0  0999 V2000
  187.2820  178.3810  141.7020 C   0  0  2  0  0  3  0  0  0  0  0  0
  185.2730  178.5710  140.1140 C   0  0  0  0  0  3  0  0  0  0  0  0
  183.9810  178.5460  142.0850 C   0  0  0  0  0  3  0  0  0  0  0  0
  184.0220  178.5150  140.5990 C   0  0  0  0  0  0  0  0  0  0  0  0
  187.1520  178.2430  143.1820 C   0  0  0  0  0  0  0  0  0  0  0  0
  185.2330  178.7790  142.4230 C   0  0  0  0  0  0  0  0  0  0  0  0
  188.2330  177.8560  144.0420 N   0  0  0  0  0  2  0  0  0  0  0  0
  185.9330  178.4390  143.6070 N   0  0  0  0  0  0  0  0  0  0  0  0
  186.0740  178.7550  141.3060 C   0  0  1  0  0  3  0  0  0  0  0  0
  188.1820  177.6900  145.4650 C   0  0  0  0  0  0  0  0  0  0  0  0
  187.1040  177.9610  147.6180 C   0  0  0  0  0  3  0  0  0  0  0  0
  187.1040  178.1450  146.2340 C   0  0  0  0  0  3  0  0  0  0  0  0
  189.2470  177.0550  146.1110 C   0  0  0  0  0  3  0  0  0  0  0  0
  189.2290  176.8850  147.4600 N   0  0  0  0  0  0  0  0  0  0  0  0
  188.1870  177.3220  148.2190 C   0  0  0  0  0  3  0  0  0  0  0  0
  188.4890  178.3680  139.5090 C   0  0  0  0  0  3  0  0  0  0  0  0
  189.5540  177.9590  138.7020 C   0  0  0  0  0  3  0  0  0  0  0  0
  190.4720  176.7030  140.5490 C   0  0  0  0  0  3  0  0  0  0  0  0
  188.4040  177.9450  140.8430 C   0  0  0  0  0  0  0  0  0  0  0  0
  189.4070  177.1110  141.3560 C   0  0  0  0  0  3  0  0  0  0  0  0
  190.5540  177.1210  139.2180 C   0  0  0  0  0  0  0  0  0  0  0  0
  190.9580  174.4860  137.9630 O   0  0  0  0  0  0  0  0  0  0  0  0
  191.6620  176.6800  138.4220 N   0  0  0  0  0  2  0  0  0  0  0  0
  193.0470  175.1050  137.0260 C   0  0  0  0  0  1  0  0  0  0  0  0
  191.8260  175.3880  137.8250 C   0  0  0  0  0  0  0  0  0  0  0  0
  182.8280  178.2700  139.7460 C   0  0  0  0  0  2  0  0  0  0  0  0
  183.0730  177.1370  138.8720 N   0  0  0  0  0  2  0  0  0  0  0  0
  182.4310  175.9900  139.4850 C   0  0  0  0  0  1  0  0  0  0  0  0
  1 19  1  6  0  0  0
  1  5  1  0  0  0  0
  2  4  2  0  0  0  0
  3  6  2  0  0  0  0
  4  3  1  0  0  0  0
  5  8  2  0  0  0  0
  5  7  1  0  0  0  0
  6  8  1  0  0  0  0
  7 10  1  0  0  0  0
  9  2  1  6  0  0  0
  9  1  1  0  0  0  0
  9  6  1  0  0  0  0
 10 13  2  0  0  0  0
 10 12  1  0  0  0  0
 11 15  1  0  0  0  0
 12 11  2  0  0  0  0
 13 14  1  0  0  0  0
 14 15  2  0  0  0  0
 16 19  1  0  0  0  0
 17 21  1  0  0  0  0
 17 16  2  0  0  0  0
 18 20  1  0  0  0  0
 19 20  2  0  0  0  0
 21 18  2  0  0  0  0
 23 21  1  0  0  0  0
 24 25  1  0  0  0  0
 25 22  2  0  0  0  0
 25 23  1  0  0  0  0
 26  4  1  0  0  0  0
 27 28  1  0  0  0  0
 27 26  1  0  0  0  0
M  END
>  <MODEL>
9

>  <REMARK>
 VINA RESULT:      -8.0      2.448      6.390
  Name = 
  5 active torsions:
  status: ('A' for Active; 'I' for Inactive)
    1  A    between atoms: C_1  and  N_26
    2  A    between atoms: C_4  and  C_13
    3  A    between atoms: C_4  and  N_15
    4  A    between atoms: C_5  and  C_16
    5  A    between atoms: N_17  and  C_24
                            x       y       z     vdW  Elec       q    Type
                         _______ _______ _______ _____ _____    ______ ____

>  <TORSDO>
F 5

$$$$
