=
 OpenBabel10232408223D

 30 36  0  0  1  0  0  0  0  0999 V2000
  189.5040  177.0220  143.7040 C   0  0  0  0  0  0  0  0  0  0  0  0
  191.3800  176.2570  145.2210 C   0  0  0  0  0  0  0  0  0  0  0  0
  187.2590  177.7670  147.4340 N   0  0  0  0  0  0  0  0  0  0  0  0
  188.1500  177.4300  143.5950 C   0  0  0  0  0  0  0  0  0  0  0  0
  190.2810  176.9640  142.5330 C   0  0  0  0  0  3  0  0  0  0  0  0
  187.9370  178.1200  139.5330 S   0  0  0  0  0  0  0  0  0  0  0  0
  185.1800  177.7020  142.9910 C   0  0  1  0  0  3  0  0  0  0  0  0
  188.4280  177.7530  141.2110 C   0  0  0  0  0  0  0  0  0  0  0  0
  190.4270  177.2530  140.0830 N   0  0  0  0  0  2  0  0  0  0  0  0
  185.0970  178.1580  144.4460 C   0  0  2  0  0  3  0  0  0  0  0  0
  186.3760  178.5280  146.5930 C   0  0  0  0  0  0  0  0  0  0  0  0
  189.7200  177.3070  141.3060 C   0  0  0  0  0  0  0  0  0  0  0  0
  187.6120  177.8390  142.3500 C   0  0  0  0  0  0  0  0  0  0  0  0
  192.0070  176.3400  146.5270 N   0  0  0  0  0  2  0  0  0  0  0  0
  184.1780  179.3580  144.4310 C   0  0  0  0  0  2  0  0  0  0  0  0
  183.8210  178.0490  142.3960 C   0  0  0  0  0  2  0  0  0  0  0  0
  189.5440  176.5790  137.9230 C   0  0  0  0  0  1  0  0  0  0  0  0
  192.0310  175.5220  144.1880 N   0  0  0  0  0  1  0  0  0  0  0  0
  188.4930  177.5090  147.1300 C   0  0  0  0  0  0  0  0  0  0  0  0
  191.2880  176.9950  147.6380 C   0  0  0  0  0  2  0  0  0  0  0  0
  189.6290  177.6930  138.9460 C   0  0  1  0  0  3  0  0  0  0  0  0
  190.1510  176.8260  145.0480 C   0  0  0  0  0  0  0  0  0  0  0  0
  187.3570  177.4090  144.7340 O   0  0  0  0  0  0  0  0  0  0  0  0
  185.4900  179.2420  147.1310 O   0  0  0  0  0  0  0  0  0  0  0  0
  186.4610  178.4510  145.0840 C   0  0  1  0  0  3  0  0  0  0  0  0
  183.1790  179.0730  143.3250 C   0  0  0  0  0  2  0  0  0  0  0  0
  186.0980  179.7050  141.7130 C   0  0  0  0  0  1  0  0  0  0  0  0
  189.8110  176.7470  147.3750 C   0  0  2  0  0  3  0  0  0  0  0  0
  189.7140  177.6530  146.2480 C   0  0  2  0  0  3  0  0  0  0  0  0
  186.2750  178.3640  142.2610 N   0  0  0  0  0  0  0  0  0  0  0  0
  1 22  1  0  0  0  0
  2 14  1  0  0  0  0
  4  1  1  0  0  0  0
  4 23  1  0  0  0  0
  5  1  2  0  0  0  0
  6  8  1  0  0  0  0
  7 16  1  6  0  0  0
  7 10  1  0  0  0  0
  8 12  2  0  0  0  0
  8 13  1  0  0  0  0
  9 12  1  0  0  0  0
 10 15  1  6  0  0  0
 10 25  1  0  0  0  0
 11 24  2  0  0  0  0
 11  3  1  0  0  0  0
 12  5  1  0  0  0  0
 13  4  2  0  0  0  0
 14 20  1  0  0  0  0
 16 26  1  0  0  0  0
 18  2  1  0  0  0  0
 19 28  1  0  0  0  0
 19  3  2  0  0  0  0
 21 17  1  6  0  0  0
 21  6  1  0  0  0  0
 21  9  1  0  0  0  0
 22  2  2  0  0  0  0
 25 23  1  1  0  0  0
 25 11  1  0  0  0  0
 26 15  1  0  0  0  0
 27 30  1  0  0  0  0
 28 20  1  1  0  0  0
 29 22  1  6  0  0  0
 29 19  1  0  0  0  0
 29 28  1  0  0  0  0
 30 13  1  0  0  0  0
 30  7  1  0  0  0  0
M  END
>  <MODEL>
1

>  <REMARK>
 VINA RESULT:     -11.7      0.000      0.000
  Name = 
  0 active torsions:
  status: ('A' for Active; 'I' for Inactive)
                            x       y       z     vdW  Elec       q    Type
                         _______ _______ _______ _____ _____    ______ ____

>  <TORSDO>
F 0

$$$$
=
 OpenBabel10232408223D

 30 36  0  0  1  0  0  0  0  0999 V2000
  186.3050  178.4660  141.6580 C   0  0  0  0  0  0  0  0  0  0  0  0
  183.8760  179.1780  141.5930 C   0  0  0  0  0  0  0  0  0  0  0  0
  185.8560  178.5690  146.0510 N   0  0  0  0  0  0  0  0  0  0  0  0
  187.4580  178.2350  142.4500 C   0  0  0  0  0  0  0  0  0  0  0  0
  186.3920  178.2520  140.2700 C   0  0  0  0  0  3  0  0  0  0  0  0
  190.0980  177.0110  139.5250 S   0  0  0  0  0  0  0  0  0  0  0  0
  190.1950  178.2850  143.7800 C   0  0  1  0  0  3  0  0  0  0  0  0
  188.6850  177.5430  140.4800 C   0  0  0  0  0  0  0  0  0  0  0  0
  187.7630  177.6020  138.3200 N   0  0  0  0  0  2  0  0  0  0  0  0
  189.3920  178.0550  145.0580 C   0  0  2  0  0  3  0  0  0  0  0  0
  187.0850  177.8230  146.0590 C   0  0  0  0  0  0  0  0  0  0  0  0
  187.5880  177.8180  139.7060 C   0  0  0  0  0  0  0  0  0  0  0  0
  188.6480  177.7300  141.8710 C   0  0  0  0  0  0  0  0  0  0  0  0
  182.5900  179.1960  142.2640 N   0  0  0  0  0  0  0  0  0  0  0  0
  190.1610  177.0010  145.8220 C   0  0  0  0  0  2  0  0  0  0  0  0
  191.6440  178.0450  144.1820 C   0  0  0  0  0  2  0  0  0  0  0  0
  189.7560  178.0770  137.0150 C   0  0  0  0  0  1  0  0  0  0  0  0
  183.9650  179.6640  140.2560 N   0  0  0  0  0  1  0  0  0  0  0  0
  185.0500  178.6120  145.0350 C   0  0  0  0  0  0  0  0  0  0  0  0
  182.5060  178.8080  143.6860 C   0  0  0  0  0  2  0  0  0  0  0  0
  189.0960  177.1180  137.9840 C   0  0  1  0  0  3  0  0  0  0  0  0
  184.9730  178.7610  142.2920 C   0  0  1  0  0  3  0  0  0  0  0  0
  187.4010  178.5240  143.8070 O   0  0  0  0  0  0  0  0  0  0  0  0
  187.4810  177.3190  147.1430 O   0  0  0  0  0  0  0  0  0  0  0  0
  187.9270  177.6740  144.8110 C   0  0  1  0  0  3  0  0  0  0  0  0
  191.6180  177.2590  145.4870 C   0  0  0  0  0  2  0  0  0  0  0  0
  190.2810  176.0150  142.6260 C   0  0  0  0  0  1  0  0  0  0  0  0
  183.8350  179.2140  144.3010 C   0  0  2  0  0  3  0  0  0  0  0  0
  184.6150  178.1800  143.6520 C   0  0  2  0  0  3  0  0  0  0  0  0
  189.7790  177.3850  142.6910 N   0  0  0  0  0  0  0  0  0  0  0  0
  1 22  1  0  0  0  0
  1  4  1  0  0  0  0
  2 14  2  0  0  0  0
  3 11  1  0  0  0  0
  4 23  1  0  0  0  0
  5  1  2  0  0  0  0
  6  8  1  0  0  0  0
  7 16  1  1  0  0  0
  7 10  1  0  0  0  0
  8 13  1  0  0  0  0
  9 12  1  0  0  0  0
 10 15  1  6  0  0  0
 11 24  2  0  0  0  0
 12  5  1  0  0  0  0
 12  8  2  0  0  0  0
 13  4  2  0  0  0  0
 13 30  1  0  0  0  0
 14 20  1  0  0  0  0
 16 26  1  0  0  0  0
 18  2  1  0  0  0  0
 19  3  2  0  0  0  0
 21 17  1  6  0  0  0
 21  9  1  0  0  0  0
 21  6  1  0  0  0  0
 22  2  1  6  0  0  0
 22 29  1  0  0  0  0
 25 23  1  6  0  0  0
 25 10  1  0  0  0  0
 25 11  1  0  0  0  0
 26 15  1  0  0  0  0
 27 30  1  0  0  0  0
 28 20  1  1  0  0  0
 28 19  1  0  0  0  0
 29 28  1  0  0  0  0
 29 19  1  1  0  0  0
 30  7  1  0  0  0  0
M  END
>  <MODEL>
2

>  <REMARK>
 VINA RESULT:     -10.3      1.832      5.457
  Name = 
  0 active torsions:
  status: ('A' for Active; 'I' for Inactive)
                            x       y       z     vdW  Elec       q    Type
                         _______ _______ _______ _____ _____    ______ ____

>  <TORSDO>
F 0

$$$$
=
 OpenBabel10232408223D

 30 36  0  0  1  0  0  0  0  0999 V2000
  188.7920  177.4390  144.1840 C   0  0  0  0  0  0  0  0  0  0  0  0
  190.1630  177.0240  146.2710 C   0  0  0  0  0  0  0  0  0  0  0  0
  185.4410  178.2070  146.9570 N   0  0  0  0  0  0  0  0  0  0  0  0
  187.5090  177.6730  143.6270 C   0  0  0  0  0  0  0  0  0  0  0  0
  189.8970  177.3800  143.3150 C   0  0  0  0  0  3  0  0  0  0  0  0
  188.5100  178.0060  139.6390 S   0  0  0  0  0  0  0  0  0  0  0  0
  184.8620  177.5410  142.1310 C   0  0  1  0  0  3  0  0  0  0  0  0
  188.4850  177.8340  141.4170 C   0  0  0  0  0  0  0  0  0  0  0  0
  190.7720  177.4870  141.0060 N   0  0  0  0  0  2  0  0  0  0  0  0
  184.2910  178.1000  143.4330 C   0  0  2  0  0  3  0  0  0  0  0  0
  184.8000  178.7880  145.8080 C   0  0  0  0  0  0  0  0  0  0  0  0
  189.7180  177.5540  141.9460 C   0  0  0  0  0  0  0  0  0  0  0  0
  187.3510  177.9150  142.2400 C   0  0  0  0  0  0  0  0  0  0  0  0
  190.3420  177.2860  147.6870 N   0  0  0  0  0  2  0  0  0  0  0  0
  183.3190  179.1770  143.0070 C   0  0  0  0  0  2  0  0  0  0  0  0
  183.7310  177.6760  141.1190 C   0  0  0  0  0  2  0  0  0  0  0  0
  190.6680  176.5430  138.7710 C   0  0  0  0  0  1  0  0  0  0  0  0
  191.1650  176.2920  145.5710 N   0  0  0  0  0  1  0  0  0  0  0  0
  186.7260  178.0740  147.0690 C   0  0  0  0  0  0  0  0  0  0  0  0
  189.2580  177.9380  148.4490 C   0  0  0  0  0  2  0  0  0  0  0  0
  190.3320  177.7370  139.6400 C   0  0  1  0  0  3  0  0  0  0  0  0
  189.0030  177.4290  145.6730 C   0  0  0  0  0  0  0  0  0  0  0  0
  186.4050  177.6490  144.4700 O   0  0  0  0  0  0  0  0  0  0  0  0
  183.7310  179.4340  145.9710 O   0  0  0  0  0  0  0  0  0  0  0  0
  185.3570  178.6020  144.4140 C   0  0  1  0  0  3  0  0  0  0  0  0
  182.7440  178.6880  141.6900 C   0  0  0  0  0  2  0  0  0  0  0  0
  185.9520  179.5310  140.9710 C   0  0  0  0  0  1  0  0  0  0  0  0
  187.9650  177.4960  147.7830 C   0  0  2  0  0  3  0  0  0  0  0  0
  188.1430  178.2910  146.5850 C   0  0  2  0  0  3  0  0  0  0  0  0
  186.0670  178.2680  141.6950 N   0  0  0  0  0  0  0  0  0  0  0  0
  1 22  1  0  0  0  0
  2 14  1  0  0  0  0
  3 19  2  0  0  0  0
  4  1  1  0  0  0  0
  4 23  1  0  0  0  0
  5  1  2  0  0  0  0
  6 21  1  0  0  0  0
  6  8  1  0  0  0  0
  7 16  1  6  0  0  0
  7 10  1  0  0  0  0
  8 12  2  0  0  0  0
  8 13  1  0  0  0  0
  9 12  1  0  0  0  0
 10 15  1  6  0  0  0
 10 25  1  0  0  0  0
 11 24  2  0  0  0  0
 11  3  1  0  0  0  0
 12  5  1  0  0  0  0
 13  4  2  0  0  0  0
 14 20  1  0  0  0  0
 16 26  1  0  0  0  0
 18  2  1  0  0  0  0
 19 28  1  0  0  0  0
 21 17  1  6  0  0  0
 21  9  1  0  0  0  0
 22  2  2  0  0  0  0
 25 23  1  1  0  0  0
 25 11  1  0  0  0  0
 26 15  1  0  0  0  0
 27 30  1  0  0  0  0
 28 20  1  1  0  0  0
 29 22  1  6  0  0  0
 29 19  1  0  0  0  0
 29 28  1  0  0  0  0
 30  7  1  0  0  0  0
 30 13  1  0  0  0  0
M  END
>  <MODEL>
3

>  <REMARK>
 VINA RESULT:      -9.6      1.143      1.440
  Name = 
  0 active torsions:
  status: ('A' for Active; 'I' for Inactive)
                            x       y       z     vdW  Elec       q    Type
                         _______ _______ _______ _____ _____    ______ ____

>  <TORSDO>
F 0

$$$$
=
 OpenBabel10232408223D

 30 36  0  0  1  0  0  0  0  0999 V2000
  187.1130  177.7840  144.8770 C   0  0  0  0  0  0  0  0  0  0  0  0
  184.8380  178.2470  145.8860 C   0  0  0  0  0  0  0  0  0  0  0  0
  185.1810  178.6300  140.9970 N   0  0  0  0  0  0  0  0  0  0  0  0
  187.8790  177.5990  143.6990 C   0  0  0  0  0  0  0  0  0  0  0  0
  187.7670  177.7010  146.1200 C   0  0  0  0  0  3  0  0  0  0  0  0
  191.6070  176.9910  145.3580 S   0  0  0  0  0  0  0  0  0  0  0  0
  189.5990  176.5400  141.4210 C   0  0  1  0  0  3  0  0  0  0  0  0
  189.8820  177.3220  145.0310 C   0  0  0  0  0  0  0  0  0  0  0  0
  189.8590  177.3270  147.3800 N   0  0  0  0  0  2  0  0  0  0  0  0
  188.6200  177.3180  140.5440 C   0  0  2  0  0  3  0  0  0  0  0  0
  186.5260  178.7300  140.5010 C   0  0  0  0  0  0  0  0  0  0  0  0
  189.1350  177.4470  146.1730 C   0  0  0  0  0  0  0  0  0  0  0  0
  189.2810  177.4070  143.7650 C   0  0  0  0  0  0  0  0  0  0  0  0
  183.5600  178.9240  145.7600 N   0  0  0  0  0  2  0  0  0  0  0  0
  189.4810  178.0220  139.5210 C   0  0  0  0  0  2  0  0  0  0  0  0
  190.7430  176.1630  140.4890 C   0  0  0  0  0  2  0  0  0  0  0  0
  191.6880  175.7930  147.8300 C   0  0  0  0  0  1  0  0  0  0  0  0
  185.1380  177.5580  147.0960 N   0  0  0  0  0  1  0  0  0  0  0  0
  184.8640  178.7870  142.2450 C   0  0  0  0  0  0  0  0  0  0  0  0
  183.1870  179.5380  144.4710 C   0  0  0  0  0  2  0  0  0  0  0  0
  191.2820  177.0930  147.1680 C   0  0  1  0  0  3  0  0  0  0  0  0
  185.6790  178.2330  144.8100 C   0  0  0  0  0  0  0  0  0  0  0  0
  187.2240  177.5970  142.4740 O   0  0  0  0  0  0  0  0  0  0  0  0
  186.7130  179.1740  139.3370 O   0  0  0  0  0  0  0  0  0  0  0  0
  187.7090  178.2730  141.3260 C   0  0  1  0  0  3  0  0  0  0  0  0
  190.6470  177.0820  139.2760 C   0  0  0  0  0  2  0  0  0  0  0  0
  191.1600  178.2990  142.4030 C   0  0  0  0  0  1  0  0  0  0  0  0
  183.8490  178.6850  143.4010 C   0  0  2  0  0  3  0  0  0  0  0  0
  185.1990  179.1310  143.6790 C   0  0  2  0  0  3  0  0  0  0  0  0
  190.0740  177.3360  142.5660 N   0  0  0  0  0  0  0  0  0  0  0  0
  1  5  1  0  0  0  0
  2 18  1  0  0  0  0
  3 19  2  0  0  0  0
  4 13  1  0  0  0  0
  4  1  2  0  0  0  0
  5 12  2  0  0  0  0
  6 21  1  0  0  0  0
  7 16  1  6  0  0  0
  7 30  1  0  0  0  0
  8  6  1  0  0  0  0
  8 12  1  0  0  0  0
 10 15  1  6  0  0  0
 10 25  1  0  0  0  0
 10  7  1  0  0  0  0
 11  3  1  0  0  0  0
 12  9  1  0  0  0  0
 13  8  2  0  0  0  0
 14  2  1  0  0  0  0
 19 28  1  0  0  0  0
 20 14  1  0  0  0  0
 21  9  1  0  0  0  0
 21 17  1  1  0  0  0
 22  1  1  0  0  0  0
 22  2  2  0  0  0  0
 23  4  1  0  0  0  0
 24 11  2  0  0  0  0
 25 11  1  6  0  0  0
 25 23  1  0  0  0  0
 26 15  1  0  0  0  0
 26 16  1  0  0  0  0
 27 30  1  0  0  0  0
 28 29  1  0  0  0  0
 28 20  1  6  0  0  0
 29 19  1  6  0  0  0
 29 22  1  0  0  0  0
 30 13  1  0  0  0  0
M  END
>  <MODEL>
4

>  <REMARK>
 VINA RESULT:      -9.5      2.233      6.351
  Name = 
  0 active torsions:
  status: ('A' for Active; 'I' for Inactive)
                            x       y       z     vdW  Elec       q    Type
                         _______ _______ _______ _____ _____    ______ ____

>  <TORSDO>
F 0

$$$$
=
 OpenBabel10232408223D

 30 36  0  0  1  0  0  0  0  0999 V2000
  185.6570  178.5630  142.5790 C   0  0  0  0  0  0  0  0  0  0  0  0
  185.2140  178.6650  145.0700 C   0  0  0  0  0  0  0  0  0  0  0  0
  189.6910  177.1600  143.7060 N   0  0  0  0  0  0  0  0  0  0  0  0
  186.6070  178.3710  141.5440 C   0  0  0  0  0  0  0  0  0  0  0  0
  184.3220  178.8260  142.2210 C   0  0  0  0  0  3  0  0  0  0  0  0
  184.1650  178.7950  138.2460 S   0  0  0  0  0  0  0  0  0  0  0  0
  188.5050  178.6400  139.1810 C   0  0  1  0  0  3  0  0  0  0  0  0
  184.8680  178.6480  139.8820 C   0  0  0  0  0  0  0  0  0  0  0  0
  182.6460  179.1690  140.4380 N   0  0  0  0  0  2  0  0  0  0  0  0
  189.4540  177.8350  140.0670 C   0  0  2  0  0  3  0  0  0  0  0  0
  189.7900  176.7620  142.3280 C   0  0  0  0  0  0  0  0  0  0  0  0
  183.9590  178.8880  140.8790 C   0  0  0  0  0  0  0  0  0  0  0  0
  186.2100  178.3710  140.1840 C   0  0  0  0  0  0  0  0  0  0  0  0
  185.5460  178.1660  146.3910 N   0  0  0  0  0  2  0  0  0  0  0  0
  190.0720  176.8060  139.1480 C   0  0  0  0  0  2  0  0  0  0  0  0
  189.1570  178.6340  137.8040 C   0  0  0  0  0  2  0  0  0  0  0  0
  182.0150  180.4880  138.4980 C   0  0  0  0  0  1  0  0  0  0  0  0
  184.1110  179.5560  144.9240 N   0  0  0  0  0  1  0  0  0  0  0  0
  188.5620  177.3310  144.3220 C   0  0  0  0  0  0  0  0  0  0  0  0
  186.7560  177.3400  146.5730 C   0  0  0  0  0  2  0  0  0  0  0  0
  182.5160  179.1440  138.9870 C   0  0  1  0  0  3  0  0  0  0  0  0
  186.0160  178.3190  144.0200 C   0  0  0  0  0  0  0  0  0  0  0  0
  187.9390  178.1940  141.8910 O   0  0  0  0  0  0  0  0  0  0  0  0
  190.7650  176.0490  141.9710 O   0  0  0  0  0  0  0  0  0  0  0  0
  188.7800  177.2180  141.2980 C   0  0  1  0  0  3  0  0  0  0  0  0
  190.1670  177.4920  137.7980 C   0  0  0  0  0  2  0  0  0  0  0  0
  186.8490  176.9400  138.2540 C   0  0  0  0  0  1  0  0  0  0  0  0
  187.7500  177.8320  145.5330 C   0  0  2  0  0  3  0  0  0  0  0  0
  187.0520  177.2700  144.3940 C   0  0  2  0  0  3  0  0  0  0  0  0
  187.1520  178.0600  139.1410 N   0  0  0  0  0  0  0  0  0  0  0  0
  1 22  1  0  0  0  0
  2 14  1  0  0  0  0
  3 19  2  0  0  0  0
  4 23  1  0  0  0  0
  4  1  2  0  0  0  0
  5  1  1  0  0  0  0
  6 21  1  0  0  0  0
  6  8  1  0  0  0  0
  7 16  1  6  0  0  0
  7 10  1  0  0  0  0
  8 13  2  0  0  0  0
  8 12  1  0  0  0  0
  9 12  1  0  0  0  0
 10 15  1  6  0  0  0
 10 25  1  0  0  0  0
 11  3  1  0  0  0  0
 12  5  2  0  0  0  0
 13  4  1  0  0  0  0
 14 20  1  0  0  0  0
 18  2  1  0  0  0  0
 19 29  1  0  0  0  0
 19 28  1  0  0  0  0
 21 17  1  6  0  0  0
 21  9  1  0  0  0  0
 22  2  2  0  0  0  0
 24 11  2  0  0  0  0
 25 23  1  1  0  0  0
 25 11  1  0  0  0  0
 26 16  1  0  0  0  0
 26 15  1  0  0  0  0
 27 30  1  0  0  0  0
 28 20  1  1  0  0  0
 29 22  1  6  0  0  0
 29 28  1  0  0  0  0
 30  7  1  0  0  0  0
 30 13  1  0  0  0  0
M  END
>  <MODEL>
5

>  <REMARK>
 VINA RESULT:      -9.5      2.453      5.806
  Name = 
  0 active torsions:
  status: ('A' for Active; 'I' for Inactive)
                            x       y       z     vdW  Elec       q    Type
                         _______ _______ _______ _____ _____    ______ ____

>  <TORSDO>
F 0

$$$$
=
 OpenBabel10232408223D

 30 36  0  0  1  0  0  0  0  0999 V2000
  186.5340  178.0760  142.9390 C   0  0  0  0  0  0  0  0  0  0  0  0
  187.3440  177.9980  145.3360 C   0  0  0  0  0  0  0  0  0  0  0  0
  182.5370  178.7870  144.6780 N   0  0  0  0  0  0  0  0  0  0  0  0
  185.4260  178.1320  142.0560 C   0  0  0  0  0  0  0  0  0  0  0  0
  187.8280  178.0380  142.3860 C   0  0  0  0  0  3  0  0  0  0  0  0
  187.3990  178.1710  138.4340 S   0  0  0  0  0  0  0  0  0  0  0  0
  183.2700  177.6050  139.9740 C   0  0  1  0  0  3  0  0  0  0  0  0
  186.9260  178.1710  140.1560 C   0  0  0  0  0  0  0  0  0  0  0  0
  189.2600  178.0050  140.3730 N   0  0  0  0  0  2  0  0  0  0  0  0
  182.3460  178.2300  141.0160 C   0  0  2  0  0  3  0  0  0  0  0  0
  182.1770  179.1910  143.3460 C   0  0  0  0  0  0  0  0  0  0  0  0
  187.9970  178.0620  141.0050 C   0  0  0  0  0  0  0  0  0  0  0  0
  185.6160  178.2220  140.6550 C   0  0  0  0  0  0  0  0  0  0  0  0
  187.1330  178.4110  146.7110 N   0  0  0  0  0  2  0  0  0  0  0  0
  181.4480  179.1630  140.2380 C   0  0  0  0  0  2  0  0  0  0  0  0
  182.4330  177.5330  138.7030 C   0  0  0  0  0  2  0  0  0  0  0  0
  189.8010  176.8430  138.3100 C   0  0  0  0  0  1  0  0  0  0  0  0
  188.5400  177.3000  145.0000 N   0  0  0  0  0  1  0  0  0  0  0  0
  183.7560  178.7880  145.1220 C   0  0  0  0  0  0  0  0  0  0  0  0
  185.8490  179.0270  147.0960 C   0  0  0  0  0  2  0  0  0  0  0  0
  189.1720  178.0780  138.9210 C   0  0  1  0  0  3  0  0  0  0  0  0
  186.3540  178.2300  144.4250 C   0  0  0  0  0  0  0  0  0  0  0  0
  184.1470  178.0850  142.5940 O   0  0  0  0  0  0  0  0  0  0  0  0
  181.0610  179.7440  143.1600 O   0  0  0  0  0  0  0  0  0  0  0  0
  183.0870  178.9240  142.1660 C   0  0  1  0  0  3  0  0  0  0  0  0
  181.2660  178.4970  138.8860 C   0  0  0  0  0  2  0  0  0  0  0  0
  184.4870  179.5680  138.8960 C   0  0  0  0  0  1  0  0  0  0  0  0
  184.8040  178.4020  146.1860 C   0  0  2  0  0  3  0  0  0  0  0  0
  185.2320  179.0910  144.9850 C   0  0  2  0  0  3  0  0  0  0  0  0
  184.4960  178.3970  139.7690 N   0  0  0  0  0  0  0  0  0  0  0  0
  1 22  1  0  0  0  0
  2 14  1  0  0  0  0
  3 19  2  0  0  0  0
  4 23  1  0  0  0  0
  4  1  2  0  0  0  0
  5  1  1  0  0  0  0
  6 21  1  0  0  0  0
  6  8  1  0  0  0  0
  7 16  1  6  0  0  0
  7 10  1  0  0  0  0
  8 13  2  0  0  0  0
  8 12  1  0  0  0  0
  9 12  1  0  0  0  0
 10 15  1  6  0  0  0
 10 25  1  0  0  0  0
 11  3  1  0  0  0  0
 12  5  2  0  0  0  0
 13  4  1  0  0  0  0
 14 20  1  0  0  0  0
 16 26  1  0  0  0  0
 18  2  1  0  0  0  0
 19 28  1  0  0  0  0
 21 17  1  6  0  0  0
 21  9  1  0  0  0  0
 22  2  2  0  0  0  0
 24 11  2  0  0  0  0
 25 23  1  1  0  0  0
 25 11  1  0  0  0  0
 26 15  1  0  0  0  0
 27 30  1  0  0  0  0
 28 20  1  1  0  0  0
 29 22  1  6  0  0  0
 29 19  1  0  0  0  0
 29 28  1  0  0  0  0
 30  7  1  0  0  0  0
 30 13  1  0  0  0  0
M  END
>  <MODEL>
6

>  <REMARK>
 VINA RESULT:      -9.2      2.498      4.037
  Name = 
  0 active torsions:
  status: ('A' for Active; 'I' for Inactive)
                            x       y       z     vdW  Elec       q    Type
                         _______ _______ _______ _____ _____    ______ ____

>  <TORSDO>
F 0

$$$$
=
 OpenBabel10232408223D

 30 36  0  0  1  0  0  0  0  0999 V2000
  189.7160  177.5500  142.4190 C   0  0  0  0  0  0  0  0  0  0  0  0
  191.1200  177.4350  140.3150 C   0  0  0  0  0  0  0  0  0  0  0  0
  186.3960  178.6620  139.7270 N   0  0  0  0  0  0  0  0  0  0  0  0
  188.4740  177.9020  143.0060 C   0  0  0  0  0  0  0  0  0  0  0  0
  190.7200  177.0160  143.2480 C   0  0  0  0  0  3  0  0  0  0  0  0
  189.2040  176.8270  146.9210 S   0  0  0  0  0  0  0  0  0  0  0  0
  186.2010  179.1410  144.6050 C   0  0  1  0  0  3  0  0  0  0  0  0
  189.2610  177.1290  145.1610 C   0  0  0  0  0  0  0  0  0  0  0  0
  191.4430  176.3300  145.5090 N   0  0  0  0  0  2  0  0  0  0  0  0
  185.4340  179.0200  143.2910 C   0  0  2  0  0  3  0  0  0  0  0  0
  185.5580  178.3610  140.8560 C   0  0  0  0  0  0  0  0  0  0  0  0
  190.4810  176.8390  144.6070 C   0  0  0  0  0  0  0  0  0  0  0  0
  188.2220  177.6550  144.3780 C   0  0  0  0  0  0  0  0  0  0  0  0
  191.1540  177.2320  138.8790 N   0  0  0  0  0  0  0  0  0  0  0  0
  184.0700  178.4950  143.6780 C   0  0  0  0  0  2  0  0  0  0  0  0
  185.1400  179.4740  145.6470 C   0  0  0  0  0  2  0  0  0  0  0  0
  191.7970  177.0350  147.8060 C   0  0  0  0  0  1  0  0  0  0  0  0
  192.3490  177.5550  141.0260 N   0  0  0  0  0  1  0  0  0  0  0  0
  187.5930  178.1850  139.5760 C   0  0  0  0  0  0  0  0  0  0  0  0
  189.8900  177.2270  138.1150 C   0  0  0  0  0  2  0  0  0  0  0  0
  190.9380  176.2100  146.8700 C   0  0  1  0  0  3  0  0  0  0  0  0
  189.9070  177.5770  140.9270 C   0  0  1  0  0  3  0  0  0  0  0  0
  187.5110  178.5060  142.2090 O   0  0  0  0  0  0  0  0  0  0  0  0
  184.3110  178.3070  140.6890 O   0  0  0  0  0  0  0  0  0  0  0  0
  186.1380  178.1550  142.2380 C   0  0  1  0  0  3  0  0  0  0  0  0
  183.7930  179.0910  145.0450 C   0  0  0  0  0  2  0  0  0  0  0  0
  186.2280  176.7890  145.5840 C   0  0  0  0  0  1  0  0  0  0  0  0
  188.9570  178.1690  138.8580 C   0  0  2  0  0  3  0  0  0  0  0  0
  188.7420  177.2920  139.9910 C   0  0  2  0  0  3  0  0  0  0  0  0
  186.9230  177.9030  144.9450 N   0  0  0  0  0  0  0  0  0  0  0  0
  1  4  2  0  0  0  0
  1  5  1  0  0  0  0
  2 18  1  0  0  0  0
  3 11  1  0  0  0  0
  4 13  1  0  0  0  0
  5 12  2  0  0  0  0
  7 30  1  0  0  0  0
  7 16  1  1  0  0  0
  8  6  1  0  0  0  0
  9 21  1  0  0  0  0
 10 15  1  1  0  0  0
 10  7  1  0  0  0  0
 12  8  1  0  0  0  0
 12  9  1  0  0  0  0
 13 30  1  0  0  0  0
 13  8  2  0  0  0  0
 14  2  2  0  0  0  0
 15 26  1  0  0  0  0
 19  3  2  0  0  0  0
 20 14  1  0  0  0  0
 21  6  1  0  0  0  0
 21 17  1  1  0  0  0
 22  2  1  1  0  0  0
 22  1  1  0  0  0  0
 23 25  1  0  0  0  0
 23  4  1  0  0  0  0
 24 11  2  0  0  0  0
 25 11  1  6  0  0  0
 25 10  1  0  0  0  0
 26 16  1  0  0  0  0
 28 20  1  6  0  0  0
 28 19  1  0  0  0  0
 28 29  1  0  0  0  0
 29 19  1  1  0  0  0
 29 22  1  0  0  0  0
 30 27  1  0  0  0  0
M  END
>  <MODEL>
7

>  <REMARK>
 VINA RESULT:      -9.0      2.198      5.451
  Name = 
  0 active torsions:
  status: ('A' for Active; 'I' for Inactive)
                            x       y       z     vdW  Elec       q    Type
                         _______ _______ _______ _____ _____    ______ ____

>  <TORSDO>
F 0

$$$$
=
 OpenBabel10232408223D

 30 36  0  0  1  0  0  0  0  0999 V2000
  186.0010  178.2220  141.2840 C   0  0  0  0  0  0  0  0  0  0  0  0
  186.6050  178.2020  138.8250 C   0  0  0  0  0  0  0  0  0  0  0  0
  190.3170  177.6030  141.9930 N   0  0  0  0  0  0  0  0  0  0  0  0
  186.4330  178.0200  142.6190 C   0  0  0  0  0  0  0  0  0  0  0  0
  184.6660  178.6060  141.0640 C   0  0  0  0  0  3  0  0  0  0  0  0
  182.9480  178.9080  144.6390 S   0  0  0  0  0  0  0  0  0  0  0  0
  186.8960  177.0480  145.4650 C   0  0  1  0  0  3  0  0  0  0  0  0
  184.2390  178.6390  143.4340 C   0  0  0  0  0  0  0  0  0  0  0  0
  182.4450  179.1440  142.0040 N   0  0  0  0  0  2  0  0  0  0  0  0
  188.3660  177.2940  145.1320 C   0  0  2  0  0  3  0  0  0  0  0  0
  190.0120  177.9850  143.3450 C   0  0  0  0  0  0  0  0  0  0  0  0
  183.8040  178.7820  142.1420 C   0  0  0  0  0  0  0  0  0  0  0  0
  185.5640  178.2680  143.7100 C   0  0  0  0  0  0  0  0  0  0  0  0
  187.6220  178.4300  137.8150 N   0  0  0  0  0  0  0  0  0  0  0  0
  188.9360  177.9820  146.3510 C   0  0  0  0  0  2  0  0  0  0  0  0
  186.8700  176.8310  146.9730 C   0  0  0  0  0  2  0  0  0  0  0  0
  180.5850  178.3510  143.3500 C   0  0  0  0  0  1  0  0  0  0  0  0
  185.2730  177.9110  138.4120 N   0  0  0  0  0  1  0  0  0  0  0  0
  189.5810  177.9260  140.9740 C   0  0  0  0  0  0  0  0  0  0  0  0
  189.0270  178.6140  138.2260 C   0  0  0  0  0  2  0  0  0  0  0  0
  181.7650  179.2990  143.2830 C   0  0  1  0  0  3  0  0  0  0  0  0
  186.9780  178.2040  140.1390 C   0  0  1  0  0  3  0  0  0  0  0  0
  187.7260  177.5610  142.8360 O   0  0  0  0  0  0  0  0  0  0  0  0
  190.9620  178.2010  144.1430 O   0  0  0  0  0  0  0  0  0  0  0  0
  188.5840  178.0850  143.8360 C   0  0  1  0  0  3  0  0  0  0  0  0
  188.1730  177.3960  147.5250 C   0  0  0  0  0  2  0  0  0  0  0  0
  185.9160  179.3550  145.9170 C   0  0  0  0  0  1  0  0  0  0  0  0
  189.1990  177.7830  139.4870 C   0  0  2  0  0  3  0  0  0  0  0  0
  188.4170  178.6550  140.3400 C   0  0  2  0  0  3  0  0  0  0  0  0
  186.0370  178.1750  145.0660 N   0  0  0  0  0  0  0  0  0  0  0  0
  1  4  1  0  0  0  0
  3 11  1  0  0  0  0
  4 23  1  0  0  0  0
  4 13  2  0  0  0  0
  5  1  2  0  0  0  0
  5 12  1  0  0  0  0
  7 16  1  1  0  0  0
  8 13  1  0  0  0  0
  8  6  1  0  0  0  0
  9 12  1  0  0  0  0
  9 21  1  0  0  0  0
 10  7  1  0  0  0  0
 10 15  1  1  0  0  0
 11 25  1  0  0  0  0
 11 24  2  0  0  0  0
 12  8  2  0  0  0  0
 13 30  1  0  0  0  0
 14 20  1  0  0  0  0
 14  2  2  0  0  0  0
 15 26  1  0  0  0  0
 16 26  1  0  0  0  0
 18  2  1  0  0  0  0
 19  3  2  0  0  0  0
 21 17  1  6  0  0  0
 21  6  1  0  0  0  0
 22  2  1  6  0  0  0
 22 29  1  0  0  0  0
 22  1  1  0  0  0  0
 25 23  1  6  0  0  0
 25 10  1  0  0  0  0
 28 20  1  6  0  0  0
 28 29  1  0  0  0  0
 28 19  1  0  0  0  0
 29 19  1  1  0  0  0
 30  7  1  0  0  0  0
 30 27  1  0  0  0  0
M  END
>  <MODEL>
8

>  <REMARK>
 VINA RESULT:      -8.9      2.478      6.420
  Name = 
  0 active torsions:
  status: ('A' for Active; 'I' for Inactive)
                            x       y       z     vdW  Elec       q    Type
                         _______ _______ _______ _____ _____    ______ ____

>  <TORSDO>
F 0

$$$$
=
 OpenBabel10232408223D

 30 36  0  0  1  0  0  0  0  0999 V2000
  185.8830  178.2150  143.5240 C   0  0  0  0  0  0  0  0  0  0  0  0
  183.5010  178.6290  142.7730 C   0  0  0  0  0  0  0  0  0  0  0  0
  186.8740  178.2230  139.2200 N   0  0  0  0  0  0  0  0  0  0  0  0
  187.2150  177.9060  143.1480 C   0  0  0  0  0  0  0  0  0  0  0  0
  185.6000  178.3990  144.8900 C   0  0  0  0  0  3  0  0  0  0  0  0
  189.0260  177.9250  146.8550 S   0  0  0  0  0  0  0  0  0  0  0  0
  189.9480  176.6440  142.7020 C   0  0  1  0  0  3  0  0  0  0  0  0
  187.9110  178.0380  145.4640 C   0  0  0  0  0  0  0  0  0  0  0  0
  186.4070  178.4320  147.2250 N   0  0  0  0  0  2  0  0  0  0  0  0
  189.7730  177.1720  141.2800 C   0  0  2  0  0  3  0  0  0  0  0  0
  188.2320  178.3610  139.6710 C   0  0  0  0  0  0  0  0  0  0  0  0
  186.6150  178.2830  145.8350 C   0  0  0  0  0  0  0  0  0  0  0  0
  188.2500  177.8560  144.1140 C   0  0  0  0  0  0  0  0  0  0  0  0
  182.6170  179.1570  141.7510 N   0  0  0  0  0  0  0  0  0  0  0  0
  191.1130  177.7710  140.9160 C   0  0  0  0  0  2  0  0  0  0  0  0
  191.4090  176.2220  142.7850 C   0  0  0  0  0  2  0  0  0  0  0  0
  187.4820  177.1680  148.9990 C   0  0  0  0  0  1  0  0  0  0  0  0
  182.9430  178.1820  144.0060 N   0  0  0  0  0  1  0  0  0  0  0  0
  185.8450  178.5560  139.9360 C   0  0  0  0  0  0  0  0  0  0  0  0
  183.1660  179.5120  140.4270 C   0  0  0  0  0  2  0  0  0  0  0  0
  187.6330  178.2970  148.0000 C   0  0  1  0  0  3  0  0  0  0  0  0
  184.8320  178.5130  142.4900 C   0  0  1  0  0  3  0  0  0  0  0  0
  187.4830  177.6410  141.8120 O   0  0  0  0  0  0  0  0  0  0  0  0
  189.1290  178.6190  138.8250 O   0  0  0  0  0  0  0  0  0  0  0  0
  188.6080  178.1570  141.1220 C   0  0  1  0  0  3  0  0  0  0  0  0
  192.1360  176.9130  141.6370 C   0  0  0  0  0  2  0  0  0  0  0  0
  190.5970  178.6760  144.0960 C   0  0  0  0  0  1  0  0  0  0  0  0
  184.3240  178.5560  140.1930 C   0  0  2  0  0  3  0  0  0  0  0  0
  185.2090  179.1630  141.1670 C   0  0  2  0  0  3  0  0  0  0  0  0
  189.6190  177.6590  143.7180 N   0  0  0  0  0  0  0  0  0  0  0  0
  1  5  1  0  0  0  0
  2 18  1  0  0  0  0
  3 11  1  0  0  0  0
  3 19  2  0  0  0  0
  4  1  2  0  0  0  0
  4 13  1  0  0  0  0
  5 12  2  0  0  0  0
  6 21  1  0  0  0  0
  7 16  1  6  0  0  0
  7 30  1  0  0  0  0
  8 12  1  0  0  0  0
  8  6  1  0  0  0  0
  9 21  1  0  0  0  0
 10 15  1  1  0  0  0
 10  7  1  0  0  0  0
 12  9  1  0  0  0  0
 13  8  2  0  0  0  0
 14  2  2  0  0  0  0
 15 26  1  0  0  0  0
 19 28  1  0  0  0  0
 20 14  1  0  0  0  0
 21 17  1  1  0  0  0
 22  2  1  1  0  0  0
 22  1  1  0  0  0  0
 23  4  1  0  0  0  0
 24 11  2  0  0  0  0
 25 11  1  6  0  0  0
 25 10  1  0  0  0  0
 25 23  1  0  0  0  0
 26 16  1  0  0  0  0
 28 20  1  6  0  0  0
 28 29  1  0  0  0  0
 29 19  1  6  0  0  0
 29 22  1  0  0  0  0
 30 27  1  0  0  0  0
 30 13  1  0  0  0  0
M  END
>  <MODEL>
9

>  <REMARK>
 VINA RESULT:      -8.7      2.651      7.333
  Name = 
  0 active torsions:
  status: ('A' for Active; 'I' for Inactive)
                            x       y       z     vdW  Elec       q    Type
                         _______ _______ _______ _____ _____    ______ ____

>  <TORSDO>
F 0

$$$$
