=
 OpenBabel10232412313D

 29 33  0  0  0  0  0  0  0  0999 V2000
  186.0390  178.4130  147.3900 C   0  0  0  0  0  3  0  0  0  0  0  0
  184.1650  178.7210  145.9400 N   0  0  0  0  0  0  0  0  0  0  0  0
  186.3390  178.1730  144.9490 C   0  0  0  0  0  0  0  0  0  0  0  0
  188.2050  178.0280  148.7640 C   0  0  0  0  0  3  0  0  0  0  0  0
  187.7180  177.8880  145.1380 C   0  0  0  0  0  0  0  0  0  0  0  0
  188.1930  177.8930  146.4610 C   0  0  0  0  0  0  0  0  0  0  0  0
  187.3950  178.1390  147.5260 C   0  0  0  0  0  0  0  0  0  0  0  0
  189.5710  177.6820  148.3150 N   0  0  0  0  0  2  0  0  0  0  0  0
  182.5180  178.9120  142.9240 C   0  0  0  0  0  3  0  0  0  0  0  0
  183.7640  178.6060  142.4480 N   0  0  0  0  0  0  0  0  0  0  0  0
  183.6770  178.7480  144.6810 C   0  0  0  0  0  0  0  0  0  0  0  0
  185.4950  178.4380  146.1000 C   0  0  0  0  0  0  0  0  0  0  0  0
  185.8030  178.2230  143.6870 N   0  0  0  0  0  2  0  0  0  0  0  0
  189.4980  177.6080  146.9090 N   0  0  0  0  0  0  0  0  0  0  0  0
  184.4890  178.5040  143.5660 C   0  0  0  0  0  0  0  0  0  0  0  0
  182.4280  179.0080  144.2850 N   0  0  0  0  0  0  0  0  0  0  0  0
  188.6310  177.5930  144.0040 C   0  0  0  0  0  0  0  0  0  0  0  0
  190.3710  177.0360  141.8670 C   0  0  0  0  0  0  0  0  0  0  0  0
  189.6300  178.5100  143.6390 C   0  0  0  0  0  3  0  0  0  0  0  0
  190.4960  178.2330  142.5780 C   0  0  0  0  0  3  0  0  0  0  0  0
  189.3870  176.1120  142.2270 C   0  0  0  0  0  3  0  0  0  0  0  0
  188.5220  176.3900  143.2900 C   0  0  0  0  0  3  0  0  0  0  0  0
  191.3060  176.7330  140.7490 C   0  0  0  0  0  2  0  0  0  0  0  0
  190.5800  176.8420  139.4200 C   0  0  0  0  0  2  0  0  0  0  0  0
  191.2170  176.7520  136.7700 O   0  0  0  0  0  0  0  0  0  0  0  0
  191.3850  174.4690  138.0340 O   0  0  0  0  0  1  0  0  0  0  0  0
  191.6100  176.1430  138.0980 P   0  0  2  0  0  0  0  0  0  0  0  0
  193.8510  176.8920  137.2560 O   0  0  0  0  0  1  0  0  0  0  0  0
  193.2960  176.4870  138.4230 N   0  0  0  0  0  2  0  0  0  0  0  0
  1  7  1  0  0  0  0
  2 12  1  0  0  0  0
  3  5  2  0  0  0  0
  3 12  1  0  0  0  0
  5  6  1  0  0  0  0
  6 14  2  0  0  0  0
  6  7  1  0  0  0  0
  7  4  2  0  0  0  0
  8  4  1  0  0  0  0
  9 16  2  0  0  0  0
 10  9  1  0  0  0  0
 10 15  2  0  0  0  0
 11  2  2  0  0  0  0
 12  1  2  0  0  0  0
 13  3  1  0  0  0  0
 14  8  1  0  0  0  0
 15 13  1  0  0  0  0
 15 11  1  0  0  0  0
 16 11  1  0  0  0  0
 17  5  1  0  0  0  0
 18 21  2  0  0  0  0
 18 20  1  0  0  0  0
 19 17  1  0  0  0  0
 20 19  2  0  0  0  0
 21 22  1  0  0  0  0
 22 17  2  0  0  0  0
 23 18  1  0  0  0  0
 24 23  1  0  0  0  0
 26 27  1  0  0  0  0
 27 25  2  6  0  0  0
 27 29  1  0  0  0  0
 27 24  1  0  0  0  0
 28 29  1  0  0  0  0
M  END
>  <MODEL>
1

>  <REMARK>
 VINA RESULT:      -9.3      0.000      0.000
  Name = 
  5 active torsions:
  status: ('A' for Active; 'I' for Inactive)
    1  A    between atoms: C_2  and  C_6
    2  A    between atoms: C_7  and  C_28
    3  A    between atoms: C_13  and  P_17
    4  A    between atoms: C_13  and  C_28
    5  A    between atoms: P_17  and  N_26
                            x       y       z     vdW  Elec       q    Type
                         _______ _______ _______ _____ _____    ______ ____

>  <TORSDO>
F 5

$$$$
=
 OpenBabel10232412313D

 29 33  0  0  1  0  0  0  0  0999 V2000
  188.4120  177.5540  147.1940 C   0  0  0  0  0  3  0  0  0  0  0  0
  186.1400  178.1690  146.7860 N   0  0  0  0  0  0  0  0  0  0  0  0
  187.6250  177.8200  144.8660 C   0  0  0  0  0  0  0  0  0  0  0  0
  190.9080  176.8790  147.3950 C   0  0  0  0  0  3  0  0  0  0  0  0
  188.9200  177.4910  144.3830 C   0  0  0  0  0  0  0  0  0  0  0  0
  189.9080  177.2210  145.3440 C   0  0  0  0  0  0  0  0  0  0  0  0
  189.6650  177.2480  146.6750 C   0  0  1  0  0  3  0  0  0  0  0  0
  191.9150  176.6220  146.3420 N   0  0  0  0  0  0  0  0  0  0  0  0
  183.3970  178.9880  144.8750 C   0  0  0  0  0  3  0  0  0  0  0  0
  184.2870  178.7770  143.8580 N   0  0  0  0  0  0  0  0  0  0  0  0
  185.1690  178.4570  145.8920 C   0  0  0  0  0  0  0  0  0  0  0  0
  187.3780  177.8480  146.2970 C   0  0  0  0  0  0  0  0  0  0  0  0
  186.6120  178.1320  143.9950 N   0  0  0  0  0  2  0  0  0  0  0  0
  191.2460  176.8400  145.1200 N   0  0  0  0  0  0  0  0  0  0  0  0
  185.4040  178.4420  144.5110 C   0  0  0  0  0  0  0  0  0  0  0  0
  183.9010  178.8030  146.1320 N   0  0  0  0  0  0  0  0  0  0  0  0
  189.2330  177.4290  142.9320 C   0  0  0  0  0  0  0  0  0  0  0  0
  189.8310  177.3270  140.1870 C   0  0  0  0  0  0  0  0  0  0  0  0
  188.6210  178.3190  142.0350 C   0  0  0  0  0  3  0  0  0  0  0  0
  188.9190  178.2700  140.6700 C   0  0  0  0  0  3  0  0  0  0  0  0
  190.4520  176.4420  141.0720 C   0  0  0  0  0  3  0  0  0  0  0  0
  190.1540  176.4930  142.4370 C   0  0  0  0  0  3  0  0  0  0  0  0
  190.1620  177.2860  138.7360 C   0  0  0  0  0  2  0  0  0  0  0  0
  188.9740  176.7700  137.9450 C   0  0  0  0  0  2  0  0  0  0  0  0
  188.6700  177.8310  135.4510 O   0  0  0  0  0  0  0  0  0  0  0  0
  188.9720  179.5770  137.3750 O   0  0  0  0  0  1  0  0  0  0  0  0
  188.3100  178.0960  136.8960 P   0  0  2  0  0  0  0  0  0  0  0  0
  186.3050  178.7660  138.2460 O   0  0  0  0  0  1  0  0  0  0  0  0
  186.5680  178.1610  137.0640 N   0  0  0  0  0  2  0  0  0  0  0  0
  3 12  1  0  0  0  0
  5  3  2  0  0  0  0
  5  6  1  0  0  0  0
  6  7  1  0  0  0  0
  7  1  1  6  0  0  0
  7  4  1  0  0  0  0
  8  4  2  0  0  0  0
  9 16  2  0  0  0  0
 10 15  2  0  0  0  0
 10  9  1  0  0  0  0
 11 16  1  0  0  0  0
 11  2  2  0  0  0  0
 12  2  1  0  0  0  0
 12  1  2  0  0  0  0
 13 15  1  0  0  0  0
 13  3  1  0  0  0  0
 14  6  2  0  0  0  0
 14  8  1  0  0  0  0
 15 11  1  0  0  0  0
 17  5  1  0  0  0  0
 18 20  2  0  0  0  0
 18 21  1  0  0  0  0
 19 17  2  0  0  0  0
 20 19  1  0  0  0  0
 21 22  2  0  0  0  0
 22 17  1  0  0  0  0
 23 18  1  0  0  0  0
 24 23  1  0  0  0  0
 27 25  2  6  0  0  0
 27 29  1  0  0  0  0
 27 26  1  0  0  0  0
 27 24  1  0  0  0  0
 29 28  1  0  0  0  0
M  END
>  <MODEL>
2

>  <REMARK>
 VINA RESULT:      -9.3      2.494      3.092
  Name = 
  5 active torsions:
  status: ('A' for Active; 'I' for Inactive)
    1  A    between atoms: C_2  and  C_6
    2  A    between atoms: C_7  and  C_28
    3  A    between atoms: C_13  and  P_17
    4  A    between atoms: C_13  and  C_28
    5  A    between atoms: P_17  and  N_26
                            x       y       z     vdW  Elec       q    Type
                         _______ _______ _______ _____ _____    ______ ____

>  <TORSDO>
F 5

$$$$
=
 OpenBabel10232412313D

 29 33  0  0  0  0  0  0  0  0999 V2000
  185.9420  178.4240  147.1150 C   0  0  0  0  0  3  0  0  0  0  0  0
  183.9520  178.7860  145.8440 N   0  0  0  0  0  0  0  0  0  0  0  0
  186.0100  178.1810  144.6570 C   0  0  0  0  0  0  0  0  0  0  0  0
  188.2140  177.9780  148.2840 C   0  0  0  0  0  3  0  0  0  0  0  0
  187.3920  177.8570  144.7190 C   0  0  0  0  0  0  0  0  0  0  0  0
  187.9860  177.8480  145.9920 C   0  0  0  0  0  0  0  0  0  0  0  0
  187.2970  178.1130  147.1260 C   0  0  0  0  0  0  0  0  0  0  0  0
  189.5230  177.5960  147.7120 N   0  0  0  0  0  2  0  0  0  0  0  0
  182.0400  179.0260  142.9920 C   0  0  0  0  0  3  0  0  0  0  0  0
  183.2280  178.6870  142.4040 N   0  0  0  0  0  0  0  0  0  0  0  0
  183.3510  178.8280  144.6360 C   0  0  0  0  0  0  0  0  0  0  0  0
  185.2820  178.4660  145.8810 C   0  0  0  0  0  0  0  0  0  0  0  0
  185.3620  178.2470  143.4500 N   0  0  0  0  0  2  0  0  0  0  0  0
  189.3190  177.5270  146.3180 N   0  0  0  0  0  0  0  0  0  0  0  0
  184.0500  178.5640  143.4500 C   0  0  0  0  0  0  0  0  0  0  0  0
  182.0780  179.1220  144.3550 N   0  0  0  0  0  0  0  0  0  0  0  0
  188.1880  177.5400  143.5060 C   0  0  0  0  0  0  0  0  0  0  0  0
  189.6870  176.9260  141.2080 C   0  0  0  0  0  0  0  0  0  0  0  0
  188.9160  176.3420  143.4280 C   0  0  0  0  0  3  0  0  0  0  0  0
  189.6600  176.0350  142.2850 C   0  0  0  0  0  3  0  0  0  0  0  0
  188.9590  178.1180  141.2720 C   0  0  0  0  0  3  0  0  0  0  0  0
  188.2150  178.4220  142.4150 C   0  0  0  0  0  3  0  0  0  0  0  0
  190.4640  176.5910  139.9830 C   0  0  0  0  0  2  0  0  0  0  0  0
  190.3960  177.7390  138.9930 C   0  0  0  0  0  2  0  0  0  0  0  0
  188.3860  176.1460  138.0680 O   0  0  0  0  0  1  0  0  0  0  0  0
  190.0820  176.9660  136.2540 O   0  0  0  0  0  0  0  0  0  0  0  0
  189.2260  177.3370  137.6640 P   0  0  2  0  0  0  0  0  0  0  0  0
  188.9270  179.8250  137.5700 O   0  0  0  0  0  1  0  0  0  0  0  0
  188.1850  178.7120  137.3620 N   0  0  0  0  0  2  0  0  0  0  0  0
  1  7  1  0  0  0  0
  2 12  1  0  0  0  0
  3  5  2  0  0  0  0
  3 12  1  0  0  0  0
  5  6  1  0  0  0  0
  6 14  2  0  0  0  0
  6  7  1  0  0  0  0
  7  4  2  0  0  0  0
  8  4  1  0  0  0  0
  9 16  2  0  0  0  0
 10  9  1  0  0  0  0
 10 15  2  0  0  0  0
 11  2  2  0  0  0  0
 12  1  2  0  0  0  0
 13  3  1  0  0  0  0
 14  8  1  0  0  0  0
 15 13  1  0  0  0  0
 15 11  1  0  0  0  0
 16 11  1  0  0  0  0
 17  5  1  0  0  0  0
 18 21  2  0  0  0  0
 18 20  1  0  0  0  0
 19 17  1  0  0  0  0
 20 19  2  0  0  0  0
 21 22  1  0  0  0  0
 22 17  2  0  0  0  0
 23 18  1  0  0  0  0
 24 23  1  0  0  0  0
 27 26  2  6  0  0  0
 27 25  1  0  0  0  0
 27 24  1  0  0  0  0
 29 28  1  0  0  0  0
 29 27  1  0  0  0  0
M  END
>  <MODEL>
3

>  <REMARK>
 VINA RESULT:      -9.2      1.674      2.049
  Name = 
  5 active torsions:
  status: ('A' for Active; 'I' for Inactive)
    1  A    between atoms: C_2  and  C_6
    2  A    between atoms: C_7  and  C_28
    3  A    between atoms: C_13  and  P_17
    4  A    between atoms: C_13  and  C_28
    5  A    between atoms: P_17  and  N_26
                            x       y       z     vdW  Elec       q    Type
                         _______ _______ _______ _____ _____    ______ ____

>  <TORSDO>
F 5

$$$$
=
 OpenBabel10232412313D

 29 33  0  0  1  0  0  0  0  0999 V2000
  188.5250  177.5580  147.4790 C   0  0  0  0  0  3  0  0  0  0  0  0
  186.3090  178.1780  146.8380 N   0  0  0  0  0  0  0  0  0  0  0  0
  187.9680  177.7660  145.0800 C   0  0  0  0  0  0  0  0  0  0  0  0
  190.9830  176.8690  147.9370 C   0  0  0  0  0  3  0  0  0  0  0  0
  189.3000  177.4150  144.7320 C   0  0  0  0  0  0  0  0  0  0  0  0
  190.1880  177.1630  145.7910 C   0  0  0  0  0  0  0  0  0  0  0  0
  189.8180  177.2280  147.0920 C   0  0  1  0  0  3  0  0  0  0  0  0
  192.0840  176.5760  146.9930 N   0  0  0  0  0  0  0  0  0  0  0  0
  183.7700  178.9670  144.6500 C   0  0  0  0  0  3  0  0  0  0  0  0
  184.7530  178.7220  143.7310 N   0  0  0  0  0  0  0  0  0  0  0  0
  185.4320  178.4500  145.8480 C   0  0  0  0  0  0  0  0  0  0  0  0
  187.5850  177.8360  146.4790 C   0  0  0  0  0  0  0  0  0  0  0  0
  187.0470  178.0630  144.1070 N   0  0  0  0  0  2  0  0  0  0  0  0
  191.5380  176.7660  145.7070 N   0  0  0  0  0  0  0  0  0  0  0  0
  185.7980  178.3960  144.4960 C   0  0  0  0  0  0  0  0  0  0  0  0
  184.1500  178.8110  145.9550 N   0  0  0  0  0  0  0  0  0  0  0  0
  189.7510  177.3110  143.3210 C   0  0  0  0  0  0  0  0  0  0  0  0
  190.5900  177.1240  140.6440 C   0  0  0  0  0  0  0  0  0  0  0  0
  188.9470  176.6710  142.3640 C   0  0  0  0  0  3  0  0  0  0  0  0
  189.3620  176.5790  141.0330 C   0  0  0  0  0  3  0  0  0  0  0  0
  191.3940  177.7700  141.5860 C   0  0  0  0  0  3  0  0  0  0  0  0
  190.9760  177.8630  142.9170 C   0  0  0  0  0  3  0  0  0  0  0  0
  191.0250  177.0410  139.2230 C   0  0  0  0  0  2  0  0  0  0  0  0
  189.8480  177.3030  138.3020 C   0  0  0  0  0  2  0  0  0  0  0  0
  190.0270  176.2570  135.7900 O   0  0  0  0  0  0  0  0  0  0  0  0
  187.9730  175.4450  137.1910 O   0  0  0  0  0  1  0  0  0  0  0  0
  189.6060  175.8850  137.1940 P   0  0  2  0  0  0  0  0  0  0  0  0
  189.8990  173.4040  137.4170 O   0  0  0  0  0  1  0  0  0  0  0  0
  190.5670  174.5320  137.7540 N   0  0  0  0  0  2  0  0  0  0  0  0
  3 12  1  0  0  0  0
  5  3  2  0  0  0  0
  5  6  1  0  0  0  0
  6  7  1  0  0  0  0
  7  1  1  6  0  0  0
  7  4  1  0  0  0  0
  8  4  2  0  0  0  0
  9 16  2  0  0  0  0
 10 15  2  0  0  0  0
 10  9  1  0  0  0  0
 11 16  1  0  0  0  0
 11  2  2  0  0  0  0
 12  2  1  0  0  0  0
 12  1  2  0  0  0  0
 13 15  1  0  0  0  0
 13  3  1  0  0  0  0
 14  6  2  0  0  0  0
 14  8  1  0  0  0  0
 15 11  1  0  0  0  0
 17  5  1  0  0  0  0
 18 20  2  0  0  0  0
 18 21  1  0  0  0  0
 19 17  2  0  0  0  0
 20 19  1  0  0  0  0
 21 22  2  0  0  0  0
 22 17  1  0  0  0  0
 23 18  1  0  0  0  0
 24 23  1  0  0  0  0
 26 27  1  0  0  0  0
 27 25  2  6  0  0  0
 27 29  1  0  0  0  0
 27 24  1  0  0  0  0
 28 29  1  0  0  0  0
M  END
>  <MODEL>
4

>  <REMARK>
 VINA RESULT:      -8.8      1.749      2.477
  Name = 
  5 active torsions:
  status: ('A' for Active; 'I' for Inactive)
    1  A    between atoms: C_2  and  C_6
    2  A    between atoms: C_7  and  C_28
    3  A    between atoms: C_13  and  P_17
    4  A    between atoms: C_13  and  C_28
    5  A    between atoms: P_17  and  N_26
                            x       y       z     vdW  Elec       q    Type
                         _______ _______ _______ _____ _____    ______ ____

>  <TORSDO>
F 5

$$$$
=
 OpenBabel10232412313D

 29 33  0  0  0  0  0  0  0  0999 V2000
  191.2970  176.9090  144.4890 C   0  0  0  0  0  3  0  0  0  0  0  0
  191.3910  176.9550  142.1020 N   0  0  0  0  0  0  0  0  0  0  0  0
  189.2460  177.4050  143.2020 C   0  0  0  0  0  0  0  0  0  0  0  0
  190.9590  176.9190  147.0610 C   0  0  0  0  0  3  0  0  0  0  0  0
  188.5090  177.5320  144.4110 C   0  0  0  0  0  0  0  0  0  0  0  0
  189.2120  177.3260  145.6090 C   0  0  0  0  0  0  0  0  0  0  0  0
  190.5330  177.0330  145.6440 C   0  0  0  0  0  0  0  0  0  0  0  0
  189.7440  177.1830  147.8630 N   0  0  0  0  0  2  0  0  0  0  0  0
  190.1450  177.2810  138.9100 C   0  0  0  0  0  3  0  0  0  0  0  0
  188.9870  177.5200  139.5980 N   0  0  0  0  0  0  0  0  0  0  0  0
  190.7440  177.1240  140.9290 C   0  0  0  0  0  0  0  0  0  0  0  0
  190.6620  177.0890  143.2540 C   0  0  0  0  0  0  0  0  0  0  0  0
  188.6270  177.5570  141.9870 N   0  0  0  0  0  2  0  0  0  0  0  0
  188.7200  177.4290  146.9250 N   0  0  0  0  0  0  0  0  0  0  0  0
  189.3750  177.4190  140.8720 C   0  0  0  0  0  0  0  0  0  0  0  0
  191.2400  177.0340  139.6920 N   0  0  0  0  0  0  0  0  0  0  0  0
  187.0630  177.8700  144.4260 C   0  0  0  0  0  0  0  0  0  0  0  0
  184.3280  178.5240  144.4600 C   0  0  0  0  0  0  0  0  0  0  0  0
  186.4370  178.2580  145.6220 C   0  0  0  0  0  3  0  0  0  0  0  0
  185.0780  178.5840  145.6390 C   0  0  0  0  0  3  0  0  0  0  0  0
  184.9430  178.1470  143.2630 C   0  0  0  0  0  3  0  0  0  0  0  0
  186.3030  177.8220  143.2470 C   0  0  0  0  0  3  0  0  0  0  0  0
  182.8850  178.8890  144.4750 C   0  0  0  0  0  2  0  0  0  0  0  0
  182.4020  179.1600  143.0630 C   0  0  0  0  0  2  0  0  0  0  0  0
  180.1080  180.6300  142.9680 O   0  0  0  0  0  0  0  0  0  0  0  0
  179.9830  178.4650  144.4300 O   0  0  0  0  0  1  0  0  0  0  0  0
  180.5870  179.1970  143.0300 P   0  0  2  0  0  0  0  0  0  0  0  0
  180.0600  179.1790  140.5780 O   0  0  0  0  0  1  0  0  0  0  0  0
  180.0070  178.3250  141.6260 N   0  0  0  0  0  2  0  0  0  0  0  0
  1  7  1  0  0  0  0
  2 12  1  0  0  0  0
  3 12  1  0  0  0  0
  3  5  2  0  0  0  0
  4  8  1  0  0  0  0
  5 17  1  0  0  0  0
  5  6  1  0  0  0  0
  6  7  1  0  0  0  0
  6 14  2  0  0  0  0
  7  4  2  0  0  0  0
  9 10  1  0  0  0  0
  9 16  2  0  0  0  0
 10 15  2  0  0  0  0
 11  2  2  0  0  0  0
 12  1  2  0  0  0  0
 13  3  1  0  0  0  0
 14  8  1  0  0  0  0
 15 11  1  0  0  0  0
 15 13  1  0  0  0  0
 16 11  1  0  0  0  0
 17 19  1  0  0  0  0
 18 23  1  0  0  0  0
 18 20  1  0  0  0  0
 19 20  2  0  0  0  0
 21 18  2  0  0  0  0
 22 21  1  0  0  0  0
 22 17  2  0  0  0  0
 24 23  1  0  0  0  0
 27 25  2  6  0  0  0
 27 24  1  0  0  0  0
 27 26  1  0  0  0  0
 28 29  1  0  0  0  0
 29 27  1  0  0  0  0
M  END
>  <MODEL>
5

>  <REMARK>
 VINA RESULT:      -8.8      5.155      7.742
  Name = 
  5 active torsions:
  status: ('A' for Active; 'I' for Inactive)
    1  A    between atoms: C_2  and  C_6
    2  A    between atoms: C_7  and  C_28
    3  A    between atoms: C_13  and  P_17
    4  A    between atoms: C_13  and  C_28
    5  A    between atoms: P_17  and  N_26
                            x       y       z     vdW  Elec       q    Type
                         _______ _______ _______ _____ _____    ______ ____

>  <TORSDO>
F 5

$$$$
=
 OpenBabel10232412313D

 29 33  0  0  0  0  0  0  0  0999 V2000
  183.6810  178.8920  140.8980 C   0  0  0  0  0  3  0  0  0  0  0  0
  185.6140  178.7680  139.4990 N   0  0  0  0  0  0  0  0  0  0  0  0
  185.8890  178.4450  141.9130 C   0  0  0  0  0  0  0  0  0  0  0  0
  181.7300  178.9760  142.6050 C   0  0  0  0  0  3  0  0  0  0  0  0
  185.2930  178.3880  143.2020 C   0  0  0  0  0  0  0  0  0  0  0  0
  183.9060  178.6010  143.2720 C   0  0  0  0  0  0  0  0  0  0  0  0
  183.1440  178.8360  142.1780 C   0  0  0  0  0  0  0  0  0  0  0  0
  181.7370  178.7900  144.0720 N   0  0  0  0  0  2  0  0  0  0  0  0
  188.9590  178.3970  138.7810 C   0  0  0  0  0  3  0  0  0  0  0  0
  189.0300  178.2300  140.1370 N   0  0  0  0  0  0  0  0  0  0  0  0
  186.9480  178.5910  139.3940 C   0  0  0  0  0  0  0  0  0  0  0  0
  185.0600  178.7020  140.7490 C   0  0  0  0  0  0  0  0  0  0  0  0
  187.2430  178.2830  141.7620 N   0  0  0  0  0  2  0  0  0  0  0  0
  183.0850  178.5600  144.4160 N   0  0  0  0  0  0  0  0  0  0  0  0
  187.7550  178.3540  140.5150 C   0  0  0  0  0  0  0  0  0  0  0  0
  187.7020  178.6200  138.2920 N   0  0  0  0  0  0  0  0  0  0  0  0
  186.0820  178.1140  144.4300 C   0  0  0  0  0  0  0  0  0  0  0  0
  187.5910  177.6020  146.7470 C   0  0  0  0  0  0  0  0  0  0  0  0
  187.2340  177.3130  144.3700 C   0  0  0  0  0  3  0  0  0  0  0  0
  187.9850  177.0600  145.5210 C   0  0  0  0  0  3  0  0  0  0  0  0
  186.4510  178.4080  146.8170 C   0  0  0  0  0  3  0  0  0  0  0  0
  185.7020  178.6620  145.6650 C   0  0  0  0  0  3  0  0  0  0  0  0
  188.4000  177.3470  147.9700 C   0  0  0  0  0  2  0  0  0  0  0  0
  189.7280  178.0760  147.8770 C   0  0  0  0  0  2  0  0  0  0  0  0
  190.5000  175.4970  147.4470 O   0  0  0  0  0  0  0  0  0  0  0  0
  192.3230  177.0430  148.5080 O   0  0  0  0  0  1  0  0  0  0  0  0
  191.0400  176.9090  147.4150 P   0  0  2  0  0  0  0  0  0  0  0  0
  191.5290  176.1390  145.0780 O   0  0  0  0  0  1  0  0  0  0  0  0
  191.6140  177.2800  145.8030 N   0  0  0  0  0  2  0  0  0  0  0  0
  1  7  1  0  0  0  0
  2 12  1  0  0  0  0
  3  5  2  0  0  0  0
  4  8  1  0  0  0  0
  5  6  1  0  0  0  0
  5 17  1  0  0  0  0
  6 14  2  0  0  0  0
  7  4  2  0  0  0  0
  7  6  1  0  0  0  0
  8 14  1  0  0  0  0
  9 10  1  0  0  0  0
 10 15  2  0  0  0  0
 11  2  2  0  0  0  0
 11 15  1  0  0  0  0
 12  1  2  0  0  0  0
 12  3  1  0  0  0  0
 13  3  1  0  0  0  0
 15 13  1  0  0  0  0
 16  9  2  0  0  0  0
 16 11  1  0  0  0  0
 17 22  1  0  0  0  0
 18 21  1  0  0  0  0
 18 23  1  0  0  0  0
 19 17  2  0  0  0  0
 19 20  1  0  0  0  0
 20 18  2  0  0  0  0
 22 21  2  0  0  0  0
 24 23  1  0  0  0  0
 27 25  2  1  0  0  0
 27 24  1  0  0  0  0
 27 26  1  0  0  0  0
 28 29  1  0  0  0  0
 29 27  1  0  0  0  0
M  END
>  <MODEL>
6

>  <REMARK>
 VINA RESULT:      -8.6      4.110      6.806
  Name = 
  5 active torsions:
  status: ('A' for Active; 'I' for Inactive)
    1  A    between atoms: C_2  and  C_6
    2  A    between atoms: C_7  and  C_28
    3  A    between atoms: C_13  and  P_17
    4  A    between atoms: C_13  and  C_28
    5  A    between atoms: P_17  and  N_26
                            x       y       z     vdW  Elec       q    Type
                         _______ _______ _______ _____ _____    ______ ____

>  <TORSDO>
F 5

$$$$
=
 OpenBabel10232412313D

 29 33  0  0  1  0  0  0  0  0999 V2000
  188.4050  177.5680  147.1470 C   0  0  0  0  0  3  0  0  0  0  0  0
  186.1280  178.1670  146.7440 N   0  0  0  0  0  0  0  0  0  0  0  0
  187.6160  177.8510  144.8220 C   0  0  0  0  0  0  0  0  0  0  0  0
  190.9070  176.9130  147.3410 C   0  0  0  0  0  3  0  0  0  0  0  0
  188.9150  177.5380  144.3350 C   0  0  0  0  0  0  0  0  0  0  0  0
  189.9050  177.2670  145.2940 C   0  0  0  0  0  0  0  0  0  0  0  0
  189.6610  177.2790  146.6250 C   0  0  1  0  0  3  0  0  0  0  0  0
  191.9170  176.6760  146.2870 N   0  0  0  0  0  0  0  0  0  0  0  0
  183.3780  178.9810  144.8410 C   0  0  0  0  0  3  0  0  0  0  0  0
  184.2710  178.7890  143.8230 N   0  0  0  0  0  0  0  0  0  0  0  0
  185.1550  178.4560  145.8530 C   0  0  0  0  0  0  0  0  0  0  0  0
  187.3680  177.8630  146.2530 C   0  0  0  0  0  0  0  0  0  0  0  0
  186.6010  178.1630  143.9530 N   0  0  0  0  0  2  0  0  0  0  0  0
  191.2460  176.9000  145.0670 N   0  0  0  0  0  0  0  0  0  0  0  0
  185.3900  178.4570  144.4720 C   0  0  0  0  0  0  0  0  0  0  0  0
  183.8830  178.7880  146.0970 N   0  0  0  0  0  0  0  0  0  0  0  0
  189.2280  177.4940  142.8840 C   0  0  0  0  0  0  0  0  0  0  0  0
  189.8180  177.3940  140.1370 C   0  0  0  0  0  0  0  0  0  0  0  0
  190.1860  176.5920  142.3920 C   0  0  0  0  0  3  0  0  0  0  0  0
  190.4780  176.5410  141.0260 C   0  0  0  0  0  3  0  0  0  0  0  0
  188.8570  178.2890  140.6150 C   0  0  0  0  0  3  0  0  0  0  0  0
  188.5650  178.3380  141.9810 C   0  0  0  0  0  3  0  0  0  0  0  0
  190.1160  177.3270  138.6800 C   0  0  0  0  0  2  0  0  0  0  0  0
  189.3570  178.4140  137.9420 C   0  0  0  0  0  2  0  0  0  0  0  0
  186.9020  178.6230  136.7740 O   0  0  0  0  0  0  0  0  0  0  0  0
  187.5350  176.2290  137.6150 O   0  0  0  0  0  1  0  0  0  0  0  0
  188.0670  177.6670  136.9040 P   0  0  2  0  0  0  0  0  0  0  0  0
  187.7710  177.6630  134.4130 O   0  0  0  0  0  1  0  0  0  0  0  0
  188.7200  177.3200  135.3170 N   0  0  0  0  0  2  0  0  0  0  0  0
  3 12  1  0  0  0  0
  5  3  2  0  0  0  0
  5  6  1  0  0  0  0
  6  7  1  0  0  0  0
  7  1  1  6  0  0  0
  7  4  1  0  0  0  0
  8  4  2  0  0  0  0
  9 16  2  0  0  0  0
 10 15  2  0  0  0  0
 10  9  1  0  0  0  0
 11 16  1  0  0  0  0
 11  2  2  0  0  0  0
 12  2  1  0  0  0  0
 12  1  2  0  0  0  0
 13 15  1  0  0  0  0
 13  3  1  0  0  0  0
 14  6  2  0  0  0  0
 14  8  1  0  0  0  0
 15 11  1  0  0  0  0
 17  5  1  0  0  0  0
 18 21  2  0  0  0  0
 18 20  1  0  0  0  0
 19 17  1  0  0  0  0
 20 19  2  0  0  0  0
 21 22  1  0  0  0  0
 22 17  2  0  0  0  0
 23 18  1  0  0  0  0
 24 23  1  0  0  0  0
 27 25  2  6  0  0  0
 27 26  1  0  0  0  0
 27 24  1  0  0  0  0
 28 29  1  0  0  0  0
 29 27  1  0  0  0  0
M  END
>  <MODEL>
7

>  <REMARK>
 VINA RESULT:      -8.6      2.422      2.943
  Name = 
  5 active torsions:
  status: ('A' for Active; 'I' for Inactive)
    1  A    between atoms: C_2  and  C_6
    2  A    between atoms: C_7  and  C_28
    3  A    between atoms: C_13  and  P_17
    4  A    between atoms: C_13  and  C_28
    5  A    between atoms: P_17  and  N_26
                            x       y       z     vdW  Elec       q    Type
                         _______ _______ _______ _____ _____    ______ ____

>  <TORSDO>
F 5

$$$$
=
 OpenBabel10232412313D

 29 33  0  0  1  0  0  0  0  0999 V2000
  188.4070  177.5330  147.0550 C   0  0  0  0  0  3  0  0  0  0  0  0
  186.1300  178.1400  146.6620 N   0  0  0  0  0  0  0  0  0  0  0  0
  187.6090  177.8200  144.7330 C   0  0  0  0  0  0  0  0  0  0  0  0
  190.9070  176.8690  147.2390 C   0  0  0  0  0  3  0  0  0  0  0  0
  188.9050  177.5030  144.2410 C   0  0  0  0  0  0  0  0  0  0  0  0
  189.8980  177.2270  145.1960 C   0  0  0  0  0  0  0  0  0  0  0  0
  189.6590  177.2390  146.5280 C   0  0  1  0  0  3  0  0  0  0  0  0
  191.9110  176.6290  146.1800 N   0  0  0  0  0  0  0  0  0  0  0  0
  183.3750  178.9650  144.7700 C   0  0  0  0  0  3  0  0  0  0  0  0
  184.2630  178.7700  143.7480 N   0  0  0  0  0  0  0  0  0  0  0  0
  185.1540  178.4330  145.7750 C   0  0  0  0  0  0  0  0  0  0  0  0
  187.3670  177.8320  146.1650 C   0  0  0  0  0  0  0  0  0  0  0  0
  186.5920  178.1360  143.8690 N   0  0  0  0  0  2  0  0  0  0  0  0
  191.2370  176.8560  144.9630 N   0  0  0  0  0  0  0  0  0  0  0  0
  185.3840  178.4340  144.3930 C   0  0  0  0  0  0  0  0  0  0  0  0
  183.8850  178.7690  146.0240 N   0  0  0  0  0  0  0  0  0  0  0  0
  189.2120  177.4580  142.7890 C   0  0  0  0  0  0  0  0  0  0  0  0
  189.7990  177.3890  140.0400 C   0  0  0  0  0  0  0  0  0  0  0  0
  188.5410  178.3080  141.8940 C   0  0  0  0  0  3  0  0  0  0  0  0
  188.8340  178.2750  140.5280 C   0  0  0  0  0  3  0  0  0  0  0  0
  190.4790  176.5450  140.9220 C   0  0  0  0  0  3  0  0  0  0  0  0
  190.1860  176.5800  142.2890 C   0  0  0  0  0  3  0  0  0  0  0  0
  190.1230  177.3670  138.5870 C   0  0  0  0  0  2  0  0  0  0  0  0
  190.7550  176.0380  138.2150 C   0  0  0  0  0  2  0  0  0  0  0  0
  188.2530  175.6120  137.2170 O   0  0  0  0  0  0  0  0  0  0  0  0
  189.7800  173.4920  137.3390 O   0  0  0  0  0  1  0  0  0  0  0  0
  189.6840  175.1540  137.0440 P   0  0  2  0  0  0  0  0  0  0  0  0
  190.0730  176.8130  135.2040 O   0  0  0  0  0  1  0  0  0  0  0  0
  190.2090  175.4810  135.4060 N   0  0  0  0  0  2  0  0  0  0  0  0
  3 12  1  0  0  0  0
  5  3  2  0  0  0  0
  5  6  1  0  0  0  0
  6  7  1  0  0  0  0
  7  1  1  6  0  0  0
  7  4  1  0  0  0  0
  8  4  2  0  0  0  0
  9 16  2  0  0  0  0
 10 15  2  0  0  0  0
 10  9  1  0  0  0  0
 11 16  1  0  0  0  0
 11  2  2  0  0  0  0
 12  2  1  0  0  0  0
 12  1  2  0  0  0  0
 13 15  1  0  0  0  0
 13  3  1  0  0  0  0
 14  6  2  0  0  0  0
 14  8  1  0  0  0  0
 15 11  1  0  0  0  0
 17  5  1  0  0  0  0
 18 20  2  0  0  0  0
 18 21  1  0  0  0  0
 19 17  2  0  0  0  0
 20 19  1  0  0  0  0
 21 22  2  0  0  0  0
 22 17  1  0  0  0  0
 23 18  1  0  0  0  0
 24 23  1  0  0  0  0
 27 25  2  1  0  0  0
 27 26  1  0  0  0  0
 27 24  1  0  0  0  0
 28 29  1  0  0  0  0
 29 27  1  0  0  0  0
M  END
>  <MODEL>
8

>  <REMARK>
 VINA RESULT:      -8.6      1.878      2.408
  Name = 
  5 active torsions:
  status: ('A' for Active; 'I' for Inactive)
    1  A    between atoms: C_2  and  C_6
    2  A    between atoms: C_7  and  C_28
    3  A    between atoms: C_13  and  P_17
    4  A    between atoms: C_13  and  C_28
    5  A    between atoms: P_17  and  N_26
                            x       y       z     vdW  Elec       q    Type
                         _______ _______ _______ _____ _____    ______ ____

>  <TORSDO>
F 5

$$$$
=
 OpenBabel10232412313D

 29 33  0  0  0  0  0  0  0  0999 V2000
  183.7170  178.7920  145.2590 C   0  0  0  0  0  3  0  0  0  0  0  0
  182.2430  178.8810  143.3810 N   0  0  0  0  0  0  0  0  0  0  0  0
  184.6160  178.4040  142.9900 C   0  0  0  0  0  0  0  0  0  0  0  0
  185.4960  178.6420  147.1410 C   0  0  0  0  0  3  0  0  0  0  0  0
  185.9180  178.2210  143.5290 C   0  0  0  0  0  0  0  0  0  0  0  0
  186.0540  178.3480  144.9220 C   0  0  0  0  0  0  0  0  0  0  0  0
  185.0090  178.6150  145.7400 C   0  0  0  0  0  0  0  0  0  0  0  0
  186.9440  178.3530  147.0640 N   0  0  0  0  0  2  0  0  0  0  0  0
  181.3790  178.7570  140.0510 C   0  0  0  0  0  3  0  0  0  0  0  0
  182.7150  178.4990  139.9160 N   0  0  0  0  0  0  0  0  0  0  0  0
  182.0780  178.7890  142.0440 C   0  0  0  0  0  0  0  0  0  0  0  0
  183.5050  178.6940  143.8780 C   0  0  0  0  0  0  0  0  0  0  0  0
  184.4040  178.3320  141.6370 N   0  0  0  0  0  2  0  0  0  0  0  0
  187.2210  178.1780  145.6920 N   0  0  0  0  0  0  0  0  0  0  0  0
  183.1480  178.5210  141.1800 C   0  0  0  0  0  0  0  0  0  0  0  0
  180.9530  178.9410  141.3380 N   0  0  0  0  0  0  0  0  0  0  0  0
  187.0930  177.9070  142.6760 C   0  0  0  0  0  0  0  0  0  0  0  0
  189.3230  177.3280  141.0650 C   0  0  0  0  0  0  0  0  0  0  0  0
  187.3880  178.6990  141.5550 C   0  0  0  0  0  3  0  0  0  0  0  0
  188.4980  178.4130  140.7540 C   0  0  0  0  0  3  0  0  0  0  0  0
  189.0440  176.5380  142.1830 C   0  0  0  0  0  3  0  0  0  0  0  0
  187.9350  176.8270  142.9840 C   0  0  0  0  0  3  0  0  0  0  0  0
  190.5150  177.0340  140.2230 C   0  0  0  0  0  2  0  0  0  0  0  0
  190.0820  176.6900  138.8100 C   0  0  0  0  0  2  0  0  0  0  0  0
  191.3260  176.4750  136.3920 O   0  0  0  0  0  0  0  0  0  0  0  0
  191.6590  174.4400  138.0000 O   0  0  0  0  0  1  0  0  0  0  0  0
  191.5140  176.1180  137.8500 P   0  0  2  0  0  0  0  0  0  0  0  0
  193.8560  176.9120  137.4340 O   0  0  0  0  0  1  0  0  0  0  0  0
  192.9700  176.8790  138.4560 N   0  0  0  0  0  2  0  0  0  0  0  0
  1  7  1  0  0  0  0
  2 12  1  0  0  0  0
  3  5  2  0  0  0  0
  3 12  1  0  0  0  0
  5  6  1  0  0  0  0
  6 14  2  0  0  0  0
  6  7  1  0  0  0  0
  7  4  2  0  0  0  0
  8  4  1  0  0  0  0
  9 16  2  0  0  0  0
 10  9  1  0  0  0  0
 10 15  2  0  0  0  0
 11  2  2  0  0  0  0
 12  1  2  0  0  0  0
 13  3  1  0  0  0  0
 14  8  1  0  0  0  0
 15 13  1  0  0  0  0
 15 11  1  0  0  0  0
 16 11  1  0  0  0  0
 17 22  1  0  0  0  0
 17  5  1  0  0  0  0
 18 21  1  0  0  0  0
 19 17  2  0  0  0  0
 20 18  2  0  0  0  0
 20 19  1  0  0  0  0
 21 22  2  0  0  0  0
 23 18  1  0  0  0  0
 24 23  1  0  0  0  0
 27 25  2  6  0  0  0
 27 26  1  0  0  0  0
 27 29  1  0  0  0  0
 27 24  1  0  0  0  0
 28 29  1  0  0  0  0
M  END
>  <MODEL>
9

>  <REMARK>
 VINA RESULT:      -8.4      1.640      2.362
  Name = 
  5 active torsions:
  status: ('A' for Active; 'I' for Inactive)
    1  A    between atoms: C_2  and  C_6
    2  A    between atoms: C_7  and  C_28
    3  A    between atoms: C_13  and  P_17
    4  A    between atoms: C_13  and  C_28
    5  A    between atoms: P_17  and  N_26
                            x       y       z     vdW  Elec       q    Type
                         _______ _______ _______ _____ _____    ______ ____

>  <TORSDO>
F 5

$$$$
