=
 OpenBabel10232410563D

 64 71  0  0  1  0  0  0  0  0999 V2000
  181.9090  177.4860  137.6720 C   0  0  2  0  0  3  0  0  0  0  0  0
  182.9260  179.6500  139.2740 C   0  0  0  0  0  3  0  0  0  0  0  0
  181.6080  181.2610  137.9240 C   0  0  0  0  0  3  0  0  0  0  0  0
  180.4900  179.1950  136.4380 C   0  0  0  0  0  0  0  0  0  0  0  0
  180.6900  181.5190  136.9030 C   0  0  0  0  0  3  0  0  0  0  0  0
  181.9600  179.9430  138.2060 C   0  0  0  0  0  0  0  0  0  0  0  0
  180.1550  180.4900  136.1940 N   0  0  0  0  0  0  0  0  0  0  0  0
  183.1570  178.3860  139.6250 C   0  0  0  0  0  0  0  0  0  0  0  0
  179.9830  178.2780  135.7440 O   0  0  0  0  0  0  0  0  0  0  0  0
  181.4050  178.8920  137.4570 C   0  0  2  0  0  3  0  0  0  0  0  0
  182.4800  177.3380  138.9780 O   0  0  0  0  0  0  0  0  0  0  0  0
  186.2330  178.5050  141.7360 C   0  0  1  0  0  3  0  0  0  0  0  0
  186.3450  178.4490  144.1280 O   0  0  0  0  0  1  0  0  0  0  0  0
  183.4870  178.2460  142.0590 C   0  0  0  0  0  3  0  0  0  0  0  0
  184.1860  178.6330  143.1400 C   0  0  0  0  0  3  0  0  0  0  0  0
  185.6460  179.0080  143.0520 C   0  0  2  0  0  3  0  0  0  0  0  0
  188.0270  177.7330  139.5360 C   0  0  0  0  0  2  0  0  0  0  0  0
  186.6810  177.4840  139.2240 O   0  0  0  0  0  0  0  0  0  0  0  0
  185.3690  178.9230  140.6140 N   0  0  2  0  0  0  0  0  0  0  0  0
  187.5640  178.9120  141.5730 O   0  0  0  0  0  0  0  0  0  0  0  0
  188.1940  177.7750  141.0560 C   0  0  2  0  0  3  0  0  0  0  0  0
  184.1520  178.0930  140.7060 C   0  0  2  0  0  3  0  0  0  0  0  0
  186.0360  178.7290  139.3080 C   0  0  0  0  0  2  0  0  0  0  0  0
  189.6320  177.6590  141.5880 C   0  0  2  0  0  3  0  0  0  0  0  0
  190.5690  176.8390  140.6860 C   0  0  0  0  0  1  0  0  0  0  0  0
  189.3240  175.8200  142.9340 O   0  0  0  0  0  1  0  0  0  0  0  0
  189.5850  177.1530  142.9660 N   0  0  0  0  0  0  0  0  0  0  0  0
  191.8940  176.0810  143.7380 O   0  0  0  0  0  0  0  0  0  0  0  0
  191.9100  178.4580  143.1090 O   0  0  0  0  0  0  0  0  0  0  0  0
  191.1120  177.3680  143.7770 S   0  0  0  0  0  0  0  0  0  0  0  0
  191.2470  176.7010  146.4150 C   0  0  0  0  0  2  0  0  0  0  0  0
  190.1940  176.3830  147.3780 N   0  0  0  0  0  2  0  0  0  0  0  0
  189.0250  178.1010  145.7440 S   0  0  0  0  0  0  0  0  0  0  0  0
  187.9640  177.0920  148.0350 C   0  0  0  0  0  1  0  0  0  0  0  0
  189.2870  177.5190  147.4290 C   0  0  1  0  0  3  0  0  0  0  0  0
  190.7880  177.8070  145.4740 C   0  0  2  0  0  3  0  0  0  0  0  0
  182.9190  177.1930  136.6650 N   0  0  0  0  0  2  0  0  0  0  0  0
  181.4050  172.8250  134.9780 F   0  0  0  0  0  0  0  0  0  0  0  0
  182.4160  173.7120  135.3010 C   0  0  2  0  0  0  0  0  0  0  0  0
  182.0630  175.1570  135.6390 C   0  0  2  0  0  3  0  0  0  0  0  0
  184.7160  173.7850  137.8680 C   0  0  0  0  0  1  0  0  0  0  0  0
  183.0920  175.7500  136.5980 C   0  0  1  0  0  3  0  0  0  0  0  0
  184.3990  175.4690  136.1510 O   0  0  0  0  0  0  0  0  0  0  0  0
  183.4480  173.6450  134.3460 O   0  0  0  0  0  0  0  0  0  0  0  0
  180.8000  175.1990  136.2310 O   0  0  0  0  0  1  0  0  0  0  0  0
  184.7100  174.1030  136.3730 C   0  0  2  0  0  0  0  0  0  0  0  0
  183.7480  173.1410  135.6310 C   0  0  1  0  0  3  0  0  0  0  0  0
  186.1280  173.8830  135.8370 C   0  0  0  0  0  2  0  0  0  0  0  0
  187.2130  174.4870  136.7210 C   0  0  0  0  0  2  0  0  0  0  0  0
  188.4320  174.8030  135.8770 C   0  0  0  0  0  2  0  0  0  0  0  0
  189.3890  175.7060  136.6400 C   0  0  2  0  0  3  0  0  0  0  0  0
  189.2530  177.1760  134.6190 O   0  0  0  0  0  0  0  0  0  0  0  0
  189.6910  178.0660  136.6840 O   0  0  0  0  0  1  0  0  0  0  0  0
  189.4500  177.0450  135.9890 C   0  0  0  0  0  0  0  0  0  0  0  0
  191.0500  173.7130  135.9150 O   0  0  0  0  0  0  0  0  0  0  0  0
  191.0240  174.9810  136.7250 S   0  0  0  0  0  0  0  0  0  0  0  0
  191.3450  174.6640  138.1590 O   0  0  0  0  0  0  0  0  0  0  0  0
  192.1800  176.1070  136.0820 N   0  0  0  0  0  2  0  0  0  0  0  0
  194.8090  176.5530  136.0550 O   0  0  0  0  0  1  0  0  0  0  0  0
  193.8010  175.4340  136.2110 P   0  0  2  0  0  0  0  0  0  0  0  0
  194.0660  174.2990  134.9810 O   0  0  0  0  0  0  0  0  0  0  0  0
  195.5060  174.2230  137.9920 C   0  0  0  0  0  2  0  0  0  0  0  0
  194.0510  174.6230  137.8240 C   0  0  0  0  0  3  0  0  0  0  0  0
  194.4790  173.1840  137.6070 C   0  0  0  0  0  2  0  0  0  0  0  0
  1 37  1  6  0  0  0
  1 11  1  0  0  0  0
  2  8  2  0  0  0  0
  3  6  2  0  0  0  0
  5  3  1  0  0  0  0
  6  2  1  0  0  0  0
  7  4  1  0  0  0  0
  7  5  2  0  0  0  0
  9  4  2  0  0  0  0
 10  4  1  6  0  0  0
 10  1  1  0  0  0  0
 10  6  1  0  0  0  0
 11  8  1  0  0  0  0
 12 20  1  6  0  0  0
 12 16  1  0  0  0  0
 14 15  2  0  0  0  0
 16 15  1  0  0  0  0
 16 13  1  1  0  0  0
 17 21  1  0  0  0  0
 18 23  1  0  0  0  0
 18 17  1  0  0  0  0
 19 23  1  6  0  0  0
 19 22  1  0  0  0  0
 19 12  1  0  0  0  0
 21 20  1  0  0  0  0
 21 24  1  6  0  0  0
 22  8  1  6  0  0  0
 22 14  1  0  0  0  0
 24 25  1  6  0  0  0
 24 27  1  0  0  0  0
 26 27  1  0  0  0  0
 27 30  1  0  0  0  0
 28 30  2  0  0  0  0
 29 30  2  0  0  0  0
 31 32  1  0  0  0  0
 32 35  1  0  0  0  0
 33 35  1  0  0  0  0
 35 34  1  6  0  0  0
 36 30  1  6  0  0  0
 36 33  1  0  0  0  0
 36 31  1  0  0  0  0
 39 38  1  6  0  0  0
 39 47  1  0  0  0  0
 39 40  1  0  0  0  0
 40 45  1  1  0  0  0
 40 42  1  0  0  0  0
 42 37  1  6  0  0  0
 43 46  1  0  0  0  0
 43 42  1  0  0  0  0
 44 39  1  0  0  0  0
 46 41  1  1  0  0  0
 47 44  1  6  0  0  0
 47 46  1  0  0  0  0
 48 46  1  0  0  0  0
 48 49  1  0  0  0  0
 50 49  1  0  0  0  0
 51 50  1  6  0  0  0
 51 56  1  0  0  0  0
 52 54  2  0  0  0  0
 54 51  1  0  0  0  0
 54 53  1  0  0  0  0
 55 56  2  0  0  0  0
 56 57  2  0  0  0  0
 58 60  1  0  0  0  0
 58 56  1  0  0  0  0
 59 60  1  0  0  0  0
 60 61  2  6  0  0  0
 60 63  1  0  0  0  0
 63 62  1  0  0  0  0
 64 63  1  0  0  0  0
 64 62  1  0  0  0  0
M  END
>  <MODEL>
1

>  <REMARK>
 VINA RESULT:      -7.5      0.000      0.000
  Name = 
  16 active torsions:
  status: ('A' for Active; 'I' for Inactive)
    1  A    between atoms: C_1  and  N_43
    2  A    between atoms: C_6  and  C_50
    3  A    between atoms: C_6  and  C_56
    4  A    between atoms: C_7  and  N_41
    5  A    between atoms: C_7  and  C_51
    6  A    between atoms: P_15  and  C_22
    7  A    between atoms: P_15  and  N_64
    8  A    between atoms: C_32  and  C_52
    9  A    between atoms: C_38  and  N_43
   10  A    between atoms: N_41  and  S_57
   11  A    between atoms: S_46  and  C_62
   12  A    between atoms: S_46  and  N_64
   13  A    between atoms: C_49  and  C_62
   14  A    between atoms: C_56  and  C_63
   15  A    between atoms: S_57  and  C_59
   16  A    between atoms: C_62  and  C_63
                            x       y       z     vdW  Elec       q    Type
                         _______ _______ _______ _____ _____    ______ ____

>  <TORSDO>
F 16

$$$$
=
 OpenBabel10232410563D

 64 71  0  0  1  0  0  0  0  0999 V2000
  186.3990  177.4560  144.8660 C   0  0  2  0  0  3  0  0  0  0  0  0
  189.2710  177.5520  144.7110 C   0  0  0  0  0  3  0  0  0  0  0  0
  189.3740  178.1740  147.1110 C   0  0  0  0  0  3  0  0  0  0  0  0
  186.6140  177.9590  147.3480 C   0  0  0  0  0  0  0  0  0  0  0  0
  188.7320  178.4170  148.3270 C   0  0  0  0  0  3  0  0  0  0  0  0
  188.6160  177.8090  146.0000 C   0  0  0  0  0  0  0  0  0  0  0  0
  187.3800  178.3010  148.4170 N   0  0  0  0  0  0  0  0  0  0  0  0
  188.5580  177.0760  143.6910 C   0  0  0  0  0  0  0  0  0  0  0  0
  185.3650  177.8820  147.4750 O   0  0  0  0  0  0  0  0  0  0  0  0
  187.2190  177.7030  146.1080 C   0  0  2  0  0  3  0  0  0  0  0  0
  187.1850  176.8210  143.8490 O   0  0  0  0  0  0  0  0  0  0  0  0
  189.8920  177.5860  140.2430 C   0  0  1  0  0  3  0  0  0  0  0  0
  192.0200  176.8820  139.4010 O   0  0  0  0  0  1  0  0  0  0  0  0
  190.6490  176.3570  142.6150 C   0  0  0  0  0  3  0  0  0  0  0  0
  191.6300  176.6230  141.7350 C   0  0  0  0  0  3  0  0  0  0  0  0
  191.3900  177.4660  140.5050 C   0  0  2  0  0  3  0  0  0  0  0  0
  187.2450  178.1170  139.0720 C   0  0  0  0  0  2  0  0  0  0  0  0
  187.1450  177.5400  140.3480 O   0  0  0  0  0  0  0  0  0  0  0  0
  189.2010  178.0020  141.4810 N   0  0  2  0  0  0  0  0  0  0  0  0
  189.6210  178.4370  139.1630 O   0  0  0  0  0  0  0  0  0  0  0  0
  188.6070  177.7700  138.4660 C   0  0  2  0  0  3  0  0  0  0  0  0
  189.2290  176.8280  142.3760 C   0  0  2  0  0  3  0  0  0  0  0  0
  187.8090  178.4230  141.2160 C   0  0  0  0  0  2  0  0  0  0  0  0
  188.7550  177.9860  136.9510 C   0  0  2  0  0  3  0  0  0  0  0  0
  188.3890  179.4040  136.4820 C   0  0  0  0  0  1  0  0  0  0  0  0
  187.0650  177.5380  135.4570 O   0  0  0  0  0  1  0  0  0  0  0  0
  187.9930  176.9430  136.2510 N   0  0  0  0  0  0  0  0  0  0  0  0
  188.1800  175.0800  134.3610 O   0  0  0  0  0  0  0  0  0  0  0  0
  189.8630  176.8730  134.3460 O   0  0  0  0  0  0  0  0  0  0  0  0
  189.0220  175.9830  135.2250 S   0  0  0  0  0  0  0  0  0  0  0  0
  191.4770  175.5770  136.3340 C   0  0  0  0  0  2  0  0  0  0  0  0
  192.4790  174.5400  136.0910 N   0  0  0  0  0  2  0  0  0  0  0  0
  190.1920  173.2940  135.6370 S   0  0  0  0  0  0  0  0  0  0  0  0
  192.6580  172.1510  135.6860 C   0  0  0  0  0  1  0  0  0  0  0  0
  191.8490  173.2540  136.3420 C   0  0  1  0  0  3  0  0  0  0  0  0
  190.0750  174.9860  136.2630 C   0  0  2  0  0  3  0  0  0  0  0  0
  185.9050  178.7330  144.3710 N   0  0  0  0  0  2  0  0  0  0  0  0
  180.9900  178.9320  144.2300 F   0  0  0  0  0  0  0  0  0  0  0  0
  182.2240  179.0750  143.6220 C   0  0  2  0  0  0  0  0  0  0  0  0
  183.4890  179.0160  144.4720 C   0  0  2  0  0  3  0  0  0  0  0  0
  183.8710  177.2120  141.2350 C   0  0  0  0  0  1  0  0  0  0  0  0
  184.6640  178.4940  143.6500 C   0  0  1  0  0  3  0  0  0  0  0  0
  184.7260  179.1560  142.4070 O   0  0  0  0  0  0  0  0  0  0  0  0
  182.2240  180.2010  142.7770 O   0  0  0  0  0  0  0  0  0  0  0  0
  183.2740  178.1720  145.5630 O   0  0  0  0  0  1  0  0  0  0  0  0
  183.6900  178.6950  141.5550 C   0  0  2  0  0  0  0  0  0  0  0  0
  182.2760  178.9400  142.1430 C   0  0  1  0  0  3  0  0  0  0  0  0
  183.8160  179.4810  140.2460 C   0  0  0  0  0  2  0  0  0  0  0  0
  182.7870  179.0810  139.1950 C   0  0  0  0  0  2  0  0  0  0  0  0
  183.4790  178.3370  138.0710 C   0  0  0  0  0  2  0  0  0  0  0  0
  182.4880  177.4570  137.3250 C   0  0  2  0  0  3  0  0  0  0  0  0
  181.9850  175.8510  139.1780 O   0  0  0  0  0  1  0  0  0  0  0  0
  180.3330  177.1720  138.2950 O   0  0  0  0  0  0  0  0  0  0  0  0
  181.5430  176.8260  138.2900 C   0  0  0  0  0  0  0  0  0  0  0  0
  183.6190  176.7240  134.9930 O   0  0  0  0  0  0  0  0  0  0  0  0
  183.3360  176.1990  136.3740 S   0  0  0  0  0  0  0  0  0  0  0  0
  182.4570  174.9830  136.2760 O   0  0  0  0  0  0  0  0  0  0  0  0
  184.8310  175.8000  137.1630 N   0  0  0  0  0  2  0  0  0  0  0  0
  184.3710  173.2670  137.8590 O   0  0  0  0  0  1  0  0  0  0  0  0
  185.2050  174.0990  136.9070 P   0  0  2  0  0  0  0  0  0  0  0  0
  186.8410  173.8020  137.2270 O   0  0  0  0  0  0  0  0  0  0  0  0
  184.1620  172.2370  135.1780 C   0  0  0  0  0  2  0  0  0  0  0  0
  184.8390  173.5960  135.1940 C   0  0  0  0  0  3  0  0  0  0  0  0
  185.6330  172.3490  134.8520 C   0  0  0  0  0  2  0  0  0  0  0  0
  1 37  1  6  0  0  0
  1 10  1  0  0  0  0
  2  6  1  0  0  0  0
  3  5  1  0  0  0  0
  4  9  2  0  0  0  0
  4  7  1  0  0  0  0
  5  7  2  0  0  0  0
  6  3  2  0  0  0  0
  8 11  1  0  0  0  0
  8  2  2  0  0  0  0
 10  6  1  6  0  0  0
 10  4  1  0  0  0  0
 11  1  1  0  0  0  0
 12 20  1  6  0  0  0
 12 16  1  0  0  0  0
 12 19  1  0  0  0  0
 15 14  2  0  0  0  0
 16 13  1  6  0  0  0
 16 15  1  0  0  0  0
 17 18  1  0  0  0  0
 18 23  1  0  0  0  0
 19 23  1  6  0  0  0
 19 22  1  0  0  0  0
 21 24  1  6  0  0  0
 21 17  1  0  0  0  0
 21 20  1  0  0  0  0
 22 14  1  0  0  0  0
 22  8  1  1  0  0  0
 24 25  1  1  0  0  0
 26 27  1  0  0  0  0
 27 24  1  0  0  0  0
 28 30  2  0  0  0  0
 29 30  2  0  0  0  0
 30 27  1  0  0  0  0
 32 31  1  0  0  0  0
 32 35  1  0  0  0  0
 33 36  1  0  0  0  0
 33 35  1  0  0  0  0
 35 34  1  6  0  0  0
 36 30  1  6  0  0  0
 36 31  1  0  0  0  0
 39 38  1  1  0  0  0
 39 40  1  0  0  0  0
 40 45  1  1  0  0  0
 42 37  1  1  0  0  0
 42 40  1  0  0  0  0
 43 42  1  0  0  0  0
 44 39  1  0  0  0  0
 46 41  1  6  0  0  0
 46 47  1  0  0  0  0
 46 43  1  0  0  0  0
 47 44  1  6  0  0  0
 47 39  1  0  0  0  0
 48 46  1  0  0  0  0
 49 48  1  0  0  0  0
 50 49  1  0  0  0  0
 51 50  1  1  0  0  0
 51 54  1  0  0  0  0
 54 53  2  0  0  0  0
 54 52  1  0  0  0  0
 55 56  2  0  0  0  0
 56 58  1  0  0  0  0
 56 51  1  0  0  0  0
 57 56  2  0  0  0  0
 60 58  1  0  0  0  0
 60 61  2  1  0  0  0
 60 59  1  0  0  0  0
 62 63  1  0  0  0  0
 63 60  1  0  0  0  0
 64 62  1  0  0  0  0
 64 63  1  0  0  0  0
M  END
>  <MODEL>
2

>  <REMARK>
 VINA RESULT:      -7.2      3.462      8.863
  Name = 
  16 active torsions:
  status: ('A' for Active; 'I' for Inactive)
    1  A    between atoms: C_1  and  N_43
    2  A    between atoms: C_6  and  C_50
    3  A    between atoms: C_6  and  C_56
    4  A    between atoms: C_7  and  N_41
    5  A    between atoms: C_7  and  C_51
    6  A    between atoms: P_15  and  C_22
    7  A    between atoms: P_15  and  N_64
    8  A    between atoms: C_32  and  C_52
    9  A    between atoms: C_38  and  N_43
   10  A    between atoms: N_41  and  S_57
   11  A    between atoms: S_46  and  C_62
   12  A    between atoms: S_46  and  N_64
   13  A    between atoms: C_49  and  C_62
   14  A    between atoms: C_56  and  C_63
   15  A    between atoms: S_57  and  C_59
   16  A    between atoms: C_62  and  C_63
                            x       y       z     vdW  Elec       q    Type
                         _______ _______ _______ _____ _____    ______ ____

>  <TORSDO>
F 16

$$$$
=
 OpenBabel10232410563D

 64 71  0  0  1  0  0  0  0  0999 V2000
  189.7780  177.9660  143.6230 C   0  0  2  0  0  3  0  0  0  0  0  0
  187.7730  177.7680  145.6770 C   0  0  0  0  0  3  0  0  0  0  0  0
  189.4310  176.7030  147.1850 C   0  0  0  0  0  3  0  0  0  0  0  0
  191.4380  176.9970  145.2850 C   0  0  0  0  0  0  0  0  0  0  0  0
  190.7340  176.2660  147.4350 C   0  0  0  0  0  3  0  0  0  0  0  0
  189.1370  177.3050  145.9620 C   0  0  0  0  0  0  0  0  0  0  0  0
  191.6980  176.4260  146.4910 N   0  0  0  0  0  0  0  0  0  0  0  0
  187.5300  178.4590  144.5640 C   0  0  0  0  0  0  0  0  0  0  0  0
  192.3590  177.1070  144.4360 O   0  0  0  0  0  0  0  0  0  0  0  0
  190.1440  177.4530  144.9930 C   0  0  2  0  0  3  0  0  0  0  0  0
  188.5750  178.7430  143.6680 O   0  0  0  0  0  0  0  0  0  0  0  0
  184.0520  178.5870  143.2170 C   0  0  1  0  0  3  0  0  0  0  0  0
  182.0680  179.2170  144.4020 O   0  0  0  0  0  1  0  0  0  0  0  0
  185.4010  179.1610  145.5750 C   0  0  0  0  0  3  0  0  0  0  0  0
  184.0710  178.9900  145.6690 C   0  0  0  0  0  3  0  0  0  0  0  0
  183.2500  178.4760  144.5110 C   0  0  2  0  0  3  0  0  0  0  0  0
  184.9180  178.6320  140.4060 C   0  0  0  0  0  2  0  0  0  0  0  0
  185.9770  178.9160  141.2830 O   0  0  0  0  0  0  0  0  0  0  0  0
  185.3880  177.9850  143.4060 N   0  0  2  0  0  0  0  0  0  0  0  0
  183.3610  178.0350  142.1300 O   0  0  0  0  0  0  0  0  0  0  0  0
  183.5900  178.9500  141.0970 C   0  0  2  0  0  3  0  0  0  0  0  0
  186.1350  178.9180  144.2720 C   0  0  2  0  0  3  0  0  0  0  0  0
  186.0880  177.7930  142.1180 C   0  0  0  0  0  2  0  0  0  0  0  0
  182.3570  179.0630  140.1860 C   0  0  2  0  0  3  0  0  0  0  0  0
  181.9440  177.7390  139.5240 C   0  0  0  0  0  1  0  0  0  0  0  0
  183.2740  179.6240  138.1520 O   0  0  0  0  0  1  0  0  0  0  0  0
  182.5910  180.1360  139.2090 N   0  0  0  0  0  0  0  0  0  0  0  0
  180.3170  179.6960  137.9010 O   0  0  0  0  0  0  0  0  0  0  0  0
  180.2640  181.3380  139.7300 O   0  0  0  0  0  0  0  0  0  0  0  0
  181.0920  180.7820  138.6000 S   0  0  0  0  0  0  0  0  0  0  0  0
  182.4890  183.0470  138.0180 C   0  0  0  0  0  2  0  0  0  0  0  0
  182.0420  184.4260  137.8290 N   0  0  0  0  0  2  0  0  0  0  0  0
  179.9850  182.9990  136.9810 S   0  0  0  0  0  0  0  0  0  0  0  0
  180.2390  185.7000  136.8130 C   0  0  0  0  0  1  0  0  0  0  0  0
  181.0610  184.4270  136.7560 C   0  0  1  0  0  3  0  0  0  0  0  0
  181.4720  182.0760  137.4340 C   0  0  2  0  0  3  0  0  0  0  0  0
  189.5890  176.8290  142.7330 N   0  0  0  0  0  2  0  0  0  0  0  0
  192.9430  177.0790  139.1410 F   0  0  0  0  0  0  0  0  0  0  0  0
  191.6430  176.8810  139.5700 C   0  0  2  0  0  0  0  0  0  0  0  0
  191.3590  176.7530  141.0630 C   0  0  2  0  0  3  0  0  0  0  0  0
  188.7870  178.7930  139.3000 C   0  0  0  0  0  1  0  0  0  0  0  0
  189.9480  177.2390  141.3840 C   0  0  1  0  0  3  0  0  0  0  0  0
  189.0200  176.6850  140.4790 O   0  0  0  0  0  0  0  0  0  0  0  0
  191.0420  175.8370  138.8410 O   0  0  0  0  0  0  0  0  0  0  0  0
  192.2860  177.5140  141.7780 O   0  0  0  0  0  1  0  0  0  0  0  0
  189.1430  177.3090  139.2100 C   0  0  2  0  0  0  0  0  0  0  0  0
  190.5540  177.1390  138.5920 C   0  0  1  0  0  3  0  0  0  0  0  0
  188.1230  176.6320  138.2890 C   0  0  0  0  0  2  0  0  0  0  0  0
  187.1180  177.6020  137.6790 C   0  0  0  0  0  2  0  0  0  0  0  0
  185.8960  176.8350  137.2130 C   0  0  0  0  0  2  0  0  0  0  0  0
  186.2900  175.7630  136.2090 C   0  0  2  0  0  3  0  0  0  0  0  0
  186.8350  177.6630  134.6720 O   0  0  0  0  0  1  0  0  0  0  0  0
  188.0130  175.7010  134.5670 O   0  0  0  0  0  0  0  0  0  0  0  0
  187.0950  176.3690  135.1100 C   0  0  0  0  0  0  0  0  0  0  0  0
  185.2530  173.6480  134.9040 O   0  0  0  0  0  0  0  0  0  0  0  0
  184.8430  174.9480  135.5410 S   0  0  0  0  0  0  0  0  0  0  0  0
  184.2160  175.8360  134.5030 O   0  0  0  0  0  0  0  0  0  0  0  0
  183.7200  174.6370  136.8280 N   0  0  0  0  0  2  0  0  0  0  0  0
  182.5920  172.2240  136.9630 O   0  0  0  0  0  1  0  0  0  0  0  0
  182.4490  173.5580  136.2620 P   0  0  2  0  0  0  0  0  0  0  0  0
  182.5930  173.3050  134.5930 O   0  0  0  0  0  0  0  0  0  0  0  0
  180.6010  174.4060  138.1090 C   0  0  0  0  0  2  0  0  0  0  0  0
  180.7980  174.2450  136.6130 C   0  0  0  0  0  3  0  0  0  0  0  0
  179.9820  173.2300  137.3910 C   0  0  0  0  0  2  0  0  0  0  0  0
  1 37  1  6  0  0  0
  1 11  1  0  0  0  0
  1 10  1  0  0  0  0
  2  6  1  0  0  0  0
  3  5  1  0  0  0  0
  4  7  1  0  0  0  0
  6  3  2  0  0  0  0
  7  5  2  0  0  0  0
  8  2  2  0  0  0  0
  9  4  2  0  0  0  0
 10  4  1  6  0  0  0
 10  6  1  0  0  0  0
 11  8  1  0  0  0  0
 12 20  1  6  0  0  0
 12 19  1  0  0  0  0
 12 16  1  0  0  0  0
 14 15  2  0  0  0  0
 16 13  1  6  0  0  0
 16 15  1  0  0  0  0
 17 21  1  0  0  0  0
 17 18  1  0  0  0  0
 18 23  1  0  0  0  0
 19 23  1  6  0  0  0
 19 22  1  0  0  0  0
 21 24  1  6  0  0  0
 21 20  1  0  0  0  0
 22  8  1  1  0  0  0
 22 14  1  0  0  0  0
 24 25  1  6  0  0  0
 26 27  1  0  0  0  0
 27 24  1  0  0  0  0
 28 30  2  0  0  0  0
 30 27  1  0  0  0  0
 30 29  2  0  0  0  0
 32 31  1  0  0  0  0
 33 36  1  0  0  0  0
 35 34  1  1  0  0  0
 35 33  1  0  0  0  0
 35 32  1  0  0  0  0
 36 31  1  0  0  0  0
 36 30  1  1  0  0  0
 39 38  1  6  0  0  0
 39 40  1  0  0  0  0
 40 42  1  0  0  0  0
 40 45  1  1  0  0  0
 42 37  1  1  0  0  0
 43 42  1  0  0  0  0
 44 39  1  0  0  0  0
 46 41  1  1  0  0  0
 46 43  1  0  0  0  0
 47 44  1  6  0  0  0
 47 46  1  0  0  0  0
 47 39  1  0  0  0  0
 48 46  1  0  0  0  0
 49 48  1  0  0  0  0
 50 49  1  0  0  0  0
 51 50  1  1  0  0  0
 52 54  1  0  0  0  0
 53 54  2  0  0  0  0
 54 51  1  0  0  0  0
 55 56  2  0  0  0  0
 56 51  1  0  0  0  0
 56 58  1  0  0  0  0
 57 56  2  0  0  0  0
 60 61  2  6  0  0  0
 60 63  1  0  0  0  0
 60 58  1  0  0  0  0
 60 59  1  0  0  0  0
 63 64  1  0  0  0  0
 63 62  1  0  0  0  0
 64 62  1  0  0  0  0
M  END
>  <MODEL>
3

>  <REMARK>
 VINA RESULT:      -6.9      3.891      9.771
  Name = 
  16 active torsions:
  status: ('A' for Active; 'I' for Inactive)
    1  A    between atoms: C_1  and  N_43
    2  A    between atoms: C_6  and  C_50
    3  A    between atoms: C_6  and  C_56
    4  A    between atoms: C_7  and  N_41
    5  A    between atoms: C_7  and  C_51
    6  A    between atoms: P_15  and  C_22
    7  A    between atoms: P_15  and  N_64
    8  A    between atoms: C_32  and  C_52
    9  A    between atoms: C_38  and  N_43
   10  A    between atoms: N_41  and  S_57
   11  A    between atoms: S_46  and  C_62
   12  A    between atoms: S_46  and  N_64
   13  A    between atoms: C_49  and  C_62
   14  A    between atoms: C_56  and  C_63
   15  A    between atoms: S_57  and  C_59
   16  A    between atoms: C_62  and  C_63
                            x       y       z     vdW  Elec       q    Type
                         _______ _______ _______ _____ _____    ______ ____

>  <TORSDO>
F 16

$$$$
=
 OpenBabel10232410563D

 64 71  0  0  1  0  0  0  0  0999 V2000
  189.1670  178.1250  143.6230 C   0  0  2  0  0  3  0  0  0  0  0  0
  186.9060  177.9600  145.3940 C   0  0  0  0  0  3  0  0  0  0  0  0
  188.3500  176.9420  147.1360 C   0  0  0  0  0  3  0  0  0  0  0  0
  190.5930  177.2060  145.5170 C   0  0  0  0  0  0  0  0  0  0  0  0
  189.6090  176.5200  147.5690 C   0  0  0  0  0  3  0  0  0  0  0  0
  188.2210  177.5130  145.8710 C   0  0  0  0  0  0  0  0  0  0  0  0
  190.6910  176.6650  146.7590 N   0  0  0  0  0  0  0  0  0  0  0  0
  186.8120  178.6230  144.2430 C   0  0  0  0  0  0  0  0  0  0  0  0
  191.6190  177.3030  144.7960 O   0  0  0  0  0  0  0  0  0  0  0  0
  189.3480  177.6460  145.0430 C   0  0  2  0  0  3  0  0  0  0  0  0
  187.9660  178.8940  143.4890 O   0  0  0  0  0  0  0  0  0  0  0  0
  183.5790  178.7350  142.3800 C   0  0  1  0  0  3  0  0  0  0  0  0
  181.4210  179.2780  143.2650 O   0  0  0  0  0  1  0  0  0  0  0  0
  184.5340  179.2420  144.9370 C   0  0  0  0  0  3  0  0  0  0  0  0
  183.2110  179.0410  144.8180 C   0  0  0  0  0  3  0  0  0  0  0  0
  182.5910  178.5560  143.5290 C   0  0  2  0  0  3  0  0  0  0  0  0
  184.8660  178.9090  139.7400 C   0  0  0  0  0  2  0  0  0  0  0  0
  185.7690  179.1790  140.7790 O   0  0  0  0  0  0  0  0  0  0  0  0
  184.8850  178.1520  142.7510 N   0  0  2  0  0  0  0  0  0  0  0  0
  183.0780  178.2130  141.1800 O   0  0  0  0  0  0  0  0  0  0  0  0
  183.4400  179.1720  140.2280 C   0  0  2  0  0  3  0  0  0  0  0  0
  185.4660  179.0650  143.7550 C   0  0  2  0  0  3  0  0  0  0  0  0
  185.7800  178.0250  141.5810 C   0  0  0  0  0  2  0  0  0  0  0  0
  182.3590  179.2970  139.1420 C   0  0  2  0  0  3  0  0  0  0  0  0
  181.5040  180.5700  139.2520 C   0  0  0  0  0  1  0  0  0  0  0  0
  180.3030  178.3670  139.5880 O   0  0  0  0  0  1  0  0  0  0  0  0
  181.5510  178.0700  139.1400 N   0  0  0  0  0  0  0  0  0  0  0  0
  180.3330  178.1810  136.7770 O   0  0  0  0  0  0  0  0  0  0  0  0
  182.6980  177.5100  136.7940 O   0  0  0  0  0  0  0  0  0  0  0  0
  181.3880  177.4170  137.5330 S   0  0  0  0  0  0  0  0  0  0  0  0
  182.0990  174.8130  137.9070 C   0  0  0  0  0  2  0  0  0  0  0  0
  182.0730  173.6720  136.9930 N   0  0  0  0  0  2  0  0  0  0  0  0
  180.0460  175.1560  136.1700 S   0  0  0  0  0  0  0  0  0  0  0  0
  180.6890  172.6770  135.2610 C   0  0  0  0  0  1  0  0  0  0  0  0
  180.7050  173.5180  136.5230 C   0  0  1  0  0  3  0  0  0  0  0  0
  180.8910  175.7090  137.6700 C   0  0  2  0  0  3  0  0  0  0  0  0
  189.1030  176.9660  142.7440 N   0  0  0  0  0  2  0  0  0  0  0  0
  193.0750  177.8170  139.9660 F   0  0  0  0  0  0  0  0  0  0  0  0
  191.8020  177.3040  140.1300 C   0  0  2  0  0  0  0  0  0  0  0  0
  191.1960  177.2370  141.5280 C   0  0  2  0  0  3  0  0  0  0  0  0
  188.7200  178.3090  138.9580 C   0  0  0  0  0  1  0  0  0  0  0  0
  189.6740  177.3360  141.4580 C   0  0  1  0  0  3  0  0  0  0  0  0
  189.1700  176.4660  140.4700 O   0  0  0  0  0  0  0  0  0  0  0  0
  191.6820  176.0720  139.4580 O   0  0  0  0  0  0  0  0  0  0  0  0
  191.6940  178.2880  142.2990 O   0  0  0  0  0  1  0  0  0  0  0  0
  189.4450  176.9820  139.1770 C   0  0  2  0  0  0  0  0  0  0  0  0
  190.9620  177.1580  138.9120 C   0  0  1  0  0  3  0  0  0  0  0  0
  188.8900  175.9670  138.1730 C   0  0  0  0  0  2  0  0  0  0  0  0
  188.4480  176.5950  136.8560 C   0  0  0  0  0  2  0  0  0  0  0  0
  186.9380  176.5170  136.7430 C   0  0  0  0  0  2  0  0  0  0  0  0
  186.5270  176.1790  135.3180 C   0  0  2  0  0  3  0  0  0  0  0  0
  184.3500  176.9410  134.3460 O   0  0  0  0  0  0  0  0  0  0  0  0
  186.0510  178.4310  134.7130 O   0  0  0  0  0  1  0  0  0  0  0  0
  185.6350  177.2460  134.7810 C   0  0  0  0  0  0  0  0  0  0  0  0
  184.4470  174.7140  134.4350 O   0  0  0  0  0  0  0  0  0  0  0  0
  185.7070  174.5890  135.2480 S   0  0  0  0  0  0  0  0  0  0  0  0
  185.3590  174.1550  136.6450 O   0  0  0  0  0  0  0  0  0  0  0  0
  186.7680  173.4330  134.5040 N   0  0  0  0  0  2  0  0  0  0  0  0
  187.0790  172.7000  137.0490 O   0  0  0  0  0  1  0  0  0  0  0  0
  187.1330  172.1410  135.6430 P   0  0  2  0  0  0  0  0  0  0  0  0
  188.6910  171.5370  135.3650 O   0  0  0  0  0  0  0  0  0  0  0  0
  184.9780  171.0370  134.3460 C   0  0  0  0  0  2  0  0  0  0  0  0
  185.9360  170.7750  135.4940 C   0  0  0  0  0  3  0  0  0  0  0  0
  184.5380  171.2950  135.7680 C   0  0  0  0  0  2  0  0  0  0  0  0
  1 37  1  6  0  0  0
  1 10  1  0  0  0  0
  2  6  1  0  0  0  0
  3  5  1  0  0  0  0
  4  7  1  0  0  0  0
  6  3  2  0  0  0  0
  7  5  2  0  0  0  0
  8  2  2  0  0  0  0
  9  4  2  0  0  0  0
 10  4  1  6  0  0  0
 10  6  1  0  0  0  0
 11  1  1  0  0  0  0
 11  8  1  0  0  0  0
 12 20  1  6  0  0  0
 12 19  1  0  0  0  0
 12 16  1  0  0  0  0
 15 14  2  0  0  0  0
 16 13  1  6  0  0  0
 16 15  1  0  0  0  0
 17 21  1  0  0  0  0
 17 18  1  0  0  0  0
 18 23  1  0  0  0  0
 19 23  1  6  0  0  0
 19 22  1  0  0  0  0
 21 24  1  6  0  0  0
 21 20  1  0  0  0  0
 22  8  1  1  0  0  0
 22 14  1  0  0  0  0
 24 25  1  1  0  0  0
 27 24  1  0  0  0  0
 27 26  1  0  0  0  0
 28 30  2  0  0  0  0
 29 30  2  0  0  0  0
 30 27  1  0  0  0  0
 32 31  1  0  0  0  0
 33 35  1  0  0  0  0
 33 36  1  0  0  0  0
 35 34  1  6  0  0  0
 35 32  1  0  0  0  0
 36 30  1  6  0  0  0
 36 31  1  0  0  0  0
 39 38  1  6  0  0  0
 39 40  1  0  0  0  0
 40 45  1  1  0  0  0
 42 40  1  0  0  0  0
 42 37  1  1  0  0  0
 43 42  1  0  0  0  0
 44 39  1  0  0  0  0
 46 41  1  6  0  0  0
 46 43  1  0  0  0  0
 47 46  1  0  0  0  0
 47 44  1  1  0  0  0
 47 39  1  0  0  0  0
 48 46  1  0  0  0  0
 49 48  1  0  0  0  0
 50 49  1  0  0  0  0
 51 50  1  1  0  0  0
 52 54  2  0  0  0  0
 53 54  1  0  0  0  0
 54 51  1  0  0  0  0
 55 56  2  0  0  0  0
 56 51  1  0  0  0  0
 56 57  2  0  0  0  0
 58 56  1  0  0  0  0
 58 60  1  0  0  0  0
 60 61  2  6  0  0  0
 60 59  1  0  0  0  0
 62 63  1  0  0  0  0
 62 64  1  0  0  0  0
 63 60  1  0  0  0  0
 63 64  1  0  0  0  0
M  END
>  <MODEL>
4

>  <REMARK>
 VINA RESULT:      -6.2      3.721      9.111
  Name = 
  16 active torsions:
  status: ('A' for Active; 'I' for Inactive)
    1  A    between atoms: C_1  and  N_43
    2  A    between atoms: C_6  and  C_50
    3  A    between atoms: C_6  and  C_56
    4  A    between atoms: C_7  and  N_41
    5  A    between atoms: C_7  and  C_51
    6  A    between atoms: P_15  and  C_22
    7  A    between atoms: P_15  and  N_64
    8  A    between atoms: C_32  and  C_52
    9  A    between atoms: C_38  and  N_43
   10  A    between atoms: N_41  and  S_57
   11  A    between atoms: S_46  and  C_62
   12  A    between atoms: S_46  and  N_64
   13  A    between atoms: C_49  and  C_62
   14  A    between atoms: C_56  and  C_63
   15  A    between atoms: S_57  and  C_59
   16  A    between atoms: C_62  and  C_63
                            x       y       z     vdW  Elec       q    Type
                         _______ _______ _______ _____ _____    ______ ____

>  <TORSDO>
F 16

$$$$
=
 OpenBabel10232410563D

 64 71  0  0  1  0  0  0  0  0999 V2000
  190.7640  177.0650  138.7060 C   0  0  2  0  0  3  0  0  0  0  0  0
  190.5830  176.1940  135.9700 C   0  0  0  0  0  3  0  0  0  0  0  0
  188.6760  177.7390  135.6100 C   0  0  0  0  0  3  0  0  0  0  0  0
  188.8980  178.7150  138.2020 C   0  0  0  0  0  0  0  0  0  0  0  0
  187.8140  178.7300  136.0860 C   0  0  0  0  0  3  0  0  0  0  0  0
  189.6690  177.2380  136.4490 C   0  0  0  0  0  0  0  0  0  0  0  0
  187.9470  179.1930  137.3570 N   0  0  0  0  0  0  0  0  0  0  0  0
  191.6100  175.8150  136.7300 C   0  0  0  0  0  0  0  0  0  0  0  0
  188.9710  179.1610  139.3760 O   0  0  0  0  0  0  0  0  0  0  0  0
  189.7860  177.7210  137.7640 C   0  0  2  0  0  3  0  0  0  0  0  0
  191.8170  176.4140  137.9840 O   0  0  0  0  0  0  0  0  0  0  0  0
  194.1130  173.0480  136.6790 C   0  0  1  0  0  3  0  0  0  0  0  0
  194.0250  171.0460  135.3670 O   0  0  0  0  0  1  0  0  0  0  0  0
  191.7500  173.7500  135.4020 C   0  0  0  0  0  3  0  0  0  0  0  0
  192.1060  172.4550  135.3390 C   0  0  0  0  0  3  0  0  0  0  0  0
  193.2500  171.9030  136.1560 C   0  0  2  0  0  3  0  0  0  0  0  0
  196.2510  174.6780  137.8750 C   0  0  0  0  0  2  0  0  0  0  0  0
  195.1880  175.4690  137.4110 O   0  0  0  0  0  0  0  0  0  0  0  0
  193.2570  174.0600  137.3310 N   0  0  2  0  0  0  0  0  0  0  0  0
  195.1350  172.5850  137.5190 O   0  0  0  0  0  0  0  0  0  0  0  0
  196.2470  173.3400  137.1320 C   0  0  2  0  0  3  0  0  0  0  0  0
  192.5310  174.7410  136.2410 C   0  0  2  0  0  3  0  0  0  0  0  0
  194.0530  175.0290  138.1130 C   0  0  0  0  0  2  0  0  0  0  0  0
  197.5330  172.5050  137.2250 C   0  0  2  0  0  3  0  0  0  0  0  0
  198.8250  173.3280  137.1020 C   0  0  0  0  0  1  0  0  0  0  0  0
  197.9660  171.8570  135.0610 O   0  0  0  0  0  1  0  0  0  0  0  0
  197.4590  171.4150  136.2420 N   0  0  0  0  0  0  0  0  0  0  0  0
  199.3940  169.6860  135.6560 O   0  0  0  0  0  0  0  0  0  0  0  0
  199.1560  170.3540  138.0100 O   0  0  0  0  0  0  0  0  0  0  0  0
  198.4090  170.0420  136.7380 S   0  0  0  0  0  0  0  0  0  0  0  0
  196.7590  168.1480  135.6820 C   0  0  0  0  0  2  0  0  0  0  0  0
  195.3070  167.9910  135.7590 N   0  0  0  0  0  2  0  0  0  0  0  0
  195.9170  169.1420  138.0600 S   0  0  0  0  0  0  0  0  0  0  0  0
  193.4700  168.2080  137.3350 C   0  0  0  0  0  1  0  0  0  0  0  0
  194.9480  167.9140  137.1660 C   0  0  1  0  0  3  0  0  0  0  0  0
  197.3070  168.6660  137.0050 C   0  0  2  0  0  3  0  0  0  0  0  0
  190.0510  176.0850  139.5120 N   0  0  0  0  0  2  0  0  0  0  0  0
  192.3390  178.6650  143.0220 F   0  0  0  0  0  0  0  0  0  0  0  0
  191.1840  178.1800  142.4370 C   0  0  2  0  0  0  0  0  0  0  0  0
  191.2610  177.5170  141.0660 C   0  0  2  0  0  3  0  0  0  0  0  0
  188.9500  175.7290  143.3780 C   0  0  0  0  0  1  0  0  0  0  0  0
  190.1530  176.4790  140.9080 C   0  0  1  0  0  3  0  0  0  0  0  0
  188.9160  177.0150  141.3210 O   0  0  0  0  0  0  0  0  0  0  0  0
  190.1680  179.1550  142.4790 O   0  0  0  0  0  0  0  0  0  0  0  0
  192.5030  176.8950  140.9220 O   0  0  0  0  0  1  0  0  0  0  0  0
  188.8730  177.1140  142.7360 C   0  0  2  0  0  0  0  0  0  0  0  0
  189.9890  178.0250  143.3070 C   0  0  1  0  0  3  0  0  0  0  0  0
  187.5140  177.7260  143.0910 C   0  0  0  0  0  2  0  0  0  0  0  0
  186.9140  178.5660  141.9710 C   0  0  0  0  0  2  0  0  0  0  0  0
  185.5900  177.9640  141.5440 C   0  0  0  0  0  2  0  0  0  0  0  0
  184.5010  179.0260  141.5320 C   0  0  2  0  0  3  0  0  0  0  0  0
  183.9660  178.5120  143.9230 O   0  0  0  0  0  1  0  0  0  0  0  0
  182.2920  178.7650  142.3790 O   0  0  0  0  0  0  0  0  0  0  0  0
  183.5250  178.7650  142.6280 C   0  0  0  0  0  0  0  0  0  0  0  0
  184.4860  179.8520  138.9680 O   0  0  0  0  0  0  0  0  0  0  0  0
  183.6620  179.0660  139.9510 S   0  0  0  0  0  0  0  0  0  0  0  0
  182.3230  179.7290  140.1230 O   0  0  0  0  0  0  0  0  0  0  0  0
  183.4590  177.4410  139.3730 N   0  0  0  0  0  2  0  0  0  0  0  0
  182.2120  178.7850  137.4360 O   0  0  0  0  0  1  0  0  0  0  0  0
  182.9110  177.4680  137.6990 P   0  0  2  0  0  0  0  0  0  0  0  0
  181.8110  176.2110  137.4210 O   0  0  0  0  0  0  0  0  0  0  0  0
  184.5010  175.8340  136.1670 C   0  0  0  0  0  2  0  0  0  0  0  0
  184.3110  177.2920  136.5460 C   0  0  0  0  0  3  0  0  0  0  0  0
  185.4050  176.4680  137.1990 C   0  0  0  0  0  2  0  0  0  0  0  0
  1 37  1  6  0  0  0
  2  6  1  0  0  0  0
  2  8  2  0  0  0  0
  3  5  1  0  0  0  0
  3  6  2  0  0  0  0
  4  9  2  0  0  0  0
  5  7  2  0  0  0  0
  7  4  1  0  0  0  0
  8 11  1  0  0  0  0
 10  6  1  1  0  0  0
 10  4  1  0  0  0  0
 10  1  1  0  0  0  0
 11  1  1  0  0  0  0
 12 19  1  0  0  0  0
 12 20  1  1  0  0  0
 14 22  1  0  0  0  0
 15 14  2  0  0  0  0
 15 16  1  0  0  0  0
 16 13  1  6  0  0  0
 16 12  1  0  0  0  0
 18 17  1  0  0  0  0
 18 23  1  0  0  0  0
 19 23  1  6  0  0  0
 21 24  1  1  0  0  0
 21 20  1  0  0  0  0
 21 17  1  0  0  0  0
 22  8  1  1  0  0  0
 22 19  1  0  0  0  0
 24 25  1  6  0  0  0
 26 27  1  0  0  0  0
 27 30  1  0  0  0  0
 27 24  1  0  0  0  0
 28 30  2  0  0  0  0
 30 29  2  0  0  0  0
 31 32  1  0  0  0  0
 31 36  1  0  0  0  0
 32 35  1  0  0  0  0
 35 34  1  6  0  0  0
 35 33  1  0  0  0  0
 36 30  1  6  0  0  0
 36 33  1  0  0  0  0
 39 44  1  0  0  0  0
 39 38  1  1  0  0  0
 39 47  1  0  0  0  0
 40 45  1  1  0  0  0
 40 39  1  0  0  0  0
 42 37  1  6  0  0  0
 42 40  1  0  0  0  0
 42 43  1  0  0  0  0
 43 46  1  0  0  0  0
 46 48  1  0  0  0  0
 46 47  1  0  0  0  0
 46 41  1  1  0  0  0
 47 44  1  6  0  0  0
 49 48  1  0  0  0  0
 50 49  1  0  0  0  0
 51 50  1  6  0  0  0
 51 54  1  0  0  0  0
 53 54  2  0  0  0  0
 54 52  1  0  0  0  0
 55 56  2  0  0  0  0
 56 57  2  0  0  0  0
 56 51  1  0  0  0  0
 58 56  1  0  0  0  0
 59 60  1  0  0  0  0
 60 61  2  6  0  0  0
 60 58  1  0  0  0  0
 62 63  1  0  0  0  0
 62 64  1  0  0  0  0
 63 64  1  0  0  0  0
 63 60  1  0  0  0  0
M  END
>  <MODEL>
5

>  <REMARK>
 VINA RESULT:      -6.0      4.275     10.720
  Name = 
  16 active torsions:
  status: ('A' for Active; 'I' for Inactive)
    1  A    between atoms: C_1  and  N_43
    2  A    between atoms: C_6  and  C_50
    3  A    between atoms: C_6  and  C_56
    4  A    between atoms: C_7  and  N_41
    5  A    between atoms: C_7  and  C_51
    6  A    between atoms: P_15  and  C_22
    7  A    between atoms: P_15  and  N_64
    8  A    between atoms: C_32  and  C_52
    9  A    between atoms: C_38  and  N_43
   10  A    between atoms: N_41  and  S_57
   11  A    between atoms: S_46  and  C_62
   12  A    between atoms: S_46  and  N_64
   13  A    between atoms: C_49  and  C_62
   14  A    between atoms: C_56  and  C_63
   15  A    between atoms: S_57  and  C_59
   16  A    between atoms: C_62  and  C_63
                            x       y       z     vdW  Elec       q    Type
                         _______ _______ _______ _____ _____    ______ ____

>  <TORSDO>
F 16

$$$$
=
 OpenBabel10232410563D

 64 71  0  0  1  0  0  0  0  0999 V2000
  189.1520  174.1700  136.7200 C   0  0  2  0  0  3  0  0  0  0  0  0
  187.1670  172.3100  135.7800 C   0  0  0  0  0  3  0  0  0  0  0  0
  188.9410  171.0010  134.6420 C   0  0  0  0  0  3  0  0  0  0  0  0
  190.9110  172.6880  135.6390 C   0  0  0  0  0  0  0  0  0  0  0  0
  190.2900  170.7920  134.3460 C   0  0  0  0  0  3  0  0  0  0  0  0
  188.5800  172.0700  135.4590 C   0  0  0  0  0  0  0  0  0  0  0  0
  191.2340  171.6300  134.8510 N   0  0  0  0  0  0  0  0  0  0  0  0
  186.8420  173.2510  136.6650 C   0  0  0  0  0  0  0  0  0  0  0  0
  191.8180  173.4470  136.0680 O   0  0  0  0  0  0  0  0  0  0  0  0
  189.5680  172.9320  135.9640 C   0  0  2  0  0  3  0  0  0  0  0  0
  187.8470  174.0100  137.2900 O   0  0  0  0  0  0  0  0  0  0  0  0
  183.3020  174.3980  136.3820 C   0  0  1  0  0  3  0  0  0  0  0  0
  181.3330  173.1580  136.9520 O   0  0  0  0  0  1  0  0  0  0  0  0
  184.7130  172.1820  137.2780 C   0  0  0  0  0  3  0  0  0  0  0  0
  183.4100  171.9950  137.0070 C   0  0  0  0  0  3  0  0  0  0  0  0
  182.5790  173.0550  136.3230 C   0  0  2  0  0  3  0  0  0  0  0  0
  184.0160  177.2480  136.2420 C   0  0  0  0  0  2  0  0  0  0  0  0
  185.0890  176.4630  136.6910 O   0  0  0  0  0  0  0  0  0  0  0  0
  184.6930  174.2360  135.9120 N   0  0  2  0  0  0  0  0  0  0  0  0
  182.6070  175.3910  135.6780 O   0  0  0  0  0  0  0  0  0  0  0  0
  182.7020  176.5110  136.5100 C   0  0  2  0  0  3  0  0  0  0  0  0
  185.3990  173.4990  136.9790 C   0  0  2  0  0  3  0  0  0  0  0  0
  185.3410  175.5410  135.6620 C   0  0  0  0  0  2  0  0  0  0  0  0
  181.4200  177.3550  136.4380 C   0  0  2  0  0  3  0  0  0  0  0  0
  181.6170  178.7420  135.8060 C   0  0  0  0  0  1  0  0  0  0  0  0
  181.0860  176.2610  138.4330 O   0  0  0  0  0  1  0  0  0  0  0  0
  180.8240  177.4230  137.7790 N   0  0  0  0  0  0  0  0  0  0  0  0
  182.1130  179.7500  137.7990 O   0  0  0  0  0  0  0  0  0  0  0  0
  180.4550  179.3660  139.5740 O   0  0  0  0  0  0  0  0  0  0  0  0
  181.5140  178.7180  138.7180 S   0  0  0  0  0  0  0  0  0  0  0  0
  182.3450  177.9850  141.2070 C   0  0  0  0  0  2  0  0  0  0  0  0
  183.3710  178.5510  142.0800 N   0  0  0  0  0  2  0  0  0  0  0  0
  184.3050  179.0300  139.6540 S   0  0  0  0  0  0  0  0  0  0  0  0
  185.6130  179.4870  141.9920 C   0  0  0  0  0  1  0  0  0  0  0  0
  184.6300  178.5260  141.3520 C   0  0  1  0  0  3  0  0  0  0  0  0
  182.7970  178.0390  139.7530 C   0  0  2  0  0  3  0  0  0  0  0  0
  189.1440  175.2990  135.8010 N   0  0  0  0  0  2  0  0  0  0  0  0
  188.1320  180.0520  136.5750 F   0  0  0  0  0  0  0  0  0  0  0  0
  188.3970  178.7800  137.0480 C   0  0  2  0  0  0  0  0  0  0  0  0
  188.4210  177.6080  136.0720 C   0  0  2  0  0  3  0  0  0  0  0  0
  191.1480  177.4020  138.6020 C   0  0  0  0  0  1  0  0  0  0  0  0
  189.3640  176.5150  136.5680 C   0  0  1  0  0  3  0  0  0  0  0  0
  189.1260  176.2430  137.9300 O   0  0  0  0  0  0  0  0  0  0  0  0
  187.5930  178.4980  138.1690 O   0  0  0  0  0  0  0  0  0  0  0  0
  188.8500  178.0570  134.8210 O   0  0  0  0  0  1  0  0  0  0  0  0
  189.6290  177.2970  138.7360 C   0  0  2  0  0  0  0  0  0  0  0  0
  188.9740  178.6640  138.4130 C   0  0  1  0  0  3  0  0  0  0  0  0
  189.3060  176.9320  140.1880 C   0  0  0  0  0  2  0  0  0  0  0  0
  190.4660  177.1690  141.1470 C   0  0  0  0  0  2  0  0  0  0  0  0
  190.1540  176.5260  142.4840 C   0  0  0  0  0  2  0  0  0  0  0  0
  191.3650  176.5910  143.4020 C   0  0  2  0  0  3  0  0  0  0  0  0
  190.8550  174.1520  143.6440 O   0  0  0  0  0  0  0  0  0  0  0  0
  192.4170  175.1570  144.9850 O   0  0  0  0  0  1  0  0  0  0  0  0
  191.5790  175.2660  144.0520 C   0  0  0  0  0  0  0  0  0  0  0  0
  192.0510  179.0320  144.3100 O   0  0  0  0  0  0  0  0  0  0  0  0
  191.1610  177.8650  144.6430 S   0  0  0  0  0  0  0  0  0  0  0  0
  191.5480  177.3090  145.9850 O   0  0  0  0  0  0  0  0  0  0  0  0
  189.5040  178.3840  144.6600 N   0  0  0  0  0  2  0  0  0  0  0  0
  189.3560  176.3260  146.3500 O   0  0  0  0  0  1  0  0  0  0  0  0
  188.6560  177.6220  146.0030 P   0  0  2  0  0  0  0  0  0  0  0  0
  187.0590  177.2680  145.5640 O   0  0  0  0  0  0  0  0  0  0  0  0
  189.3640  178.0410  148.6230 C   0  0  0  0  0  2  0  0  0  0  0  0
  188.6380  178.7050  147.4680 C   0  0  0  0  0  3  0  0  0  0  0  0
  187.8540  178.0370  148.5820 C   0  0  0  0  0  2  0  0  0  0  0  0
  1 37  1  6  0  0  0
  1 11  1  0  0  0  0
  2  8  2  0  0  0  0
  3  6  2  0  0  0  0
  4 10  1  0  0  0  0
  4  9  2  0  0  0  0
  5  3  1  0  0  0  0
  5  7  2  0  0  0  0
  6  2  1  0  0  0  0
  7  4  1  0  0  0  0
  8 11  1  0  0  0  0
 10  6  1  6  0  0  0
 10  1  1  0  0  0  0
 12 20  1  6  0  0  0
 15 14  2  0  0  0  0
 16 12  1  0  0  0  0
 16 13  1  1  0  0  0
 16 15  1  0  0  0  0
 17 21  1  0  0  0  0
 17 18  1  0  0  0  0
 19 23  1  1  0  0  0
 19 12  1  0  0  0  0
 19 22  1  0  0  0  0
 20 21  1  0  0  0  0
 21 24  1  6  0  0  0
 22  8  1  6  0  0  0
 22 14  1  0  0  0  0
 23 18  1  0  0  0  0
 24 25  1  1  0  0  0
 24 27  1  0  0  0  0
 27 26  1  0  0  0  0
 27 30  1  0  0  0  0
 28 30  2  0  0  0  0
 30 29  2  0  0  0  0
 31 32  1  0  0  0  0
 33 36  1  0  0  0  0
 33 35  1  0  0  0  0
 35 34  1  1  0  0  0
 35 32  1  0  0  0  0
 36 30  1  6  0  0  0
 36 31  1  0  0  0  0
 39 38  1  6  0  0  0
 39 44  1  0  0  0  0
 39 47  1  0  0  0  0
 40 45  1  6  0  0  0
 40 42  1  0  0  0  0
 40 39  1  0  0  0  0
 42 37  1  6  0  0  0
 42 43  1  0  0  0  0
 43 46  1  0  0  0  0
 46 41  1  6  0  0  0
 46 48  1  0  0  0  0
 47 44  1  1  0  0  0
 47 46  1  0  0  0  0
 48 49  1  0  0  0  0
 49 50  1  0  0  0  0
 51 50  1  1  0  0  0
 51 54  1  0  0  0  0
 51 56  1  0  0  0  0
 52 54  2  0  0  0  0
 54 53  1  0  0  0  0
 55 56  2  0  0  0  0
 56 58  1  0  0  0  0
 56 57  2  0  0  0  0
 58 60  1  0  0  0  0
 60 61  2  6  0  0  0
 60 59  1  0  0  0  0
 60 63  1  0  0  0  0
 63 64  1  0  0  0  0
 63 62  1  0  0  0  0
 64 62  1  0  0  0  0
M  END
>  <MODEL>
6

>  <REMARK>
 VINA RESULT:      -6.0      3.248      9.320
  Name = 
  16 active torsions:
  status: ('A' for Active; 'I' for Inactive)
    1  A    between atoms: C_1  and  N_43
    2  A    between atoms: C_6  and  C_50
    3  A    between atoms: C_6  and  C_56
    4  A    between atoms: C_7  and  N_41
    5  A    between atoms: C_7  and  C_51
    6  A    between atoms: P_15  and  C_22
    7  A    between atoms: P_15  and  N_64
    8  A    between atoms: C_32  and  C_52
    9  A    between atoms: C_38  and  N_43
   10  A    between atoms: N_41  and  S_57
   11  A    between atoms: S_46  and  C_62
   12  A    between atoms: S_46  and  N_64
   13  A    between atoms: C_49  and  C_62
   14  A    between atoms: C_56  and  C_63
   15  A    between atoms: S_57  and  C_59
   16  A    between atoms: C_62  and  C_63
                            x       y       z     vdW  Elec       q    Type
                         _______ _______ _______ _____ _____    ______ ____

>  <TORSDO>
F 16

$$$$
=
 OpenBabel10232410563D

 64 71  0  0  1  0  0  0  0  0999 V2000
  190.0840  176.7480  137.3110 C   0  0  2  0  0  3  0  0  0  0  0  0
  192.2640  176.6230  139.1840 C   0  0  0  0  0  3  0  0  0  0  0  0
  193.7580  175.7990  137.3830 C   0  0  0  0  0  3  0  0  0  0  0  0
  191.7230  176.0330  135.5050 C   0  0  0  0  0  0  0  0  0  0  0  0
  193.9670  175.4630  136.0440 C   0  0  0  0  0  3  0  0  0  0  0  0
  192.5070  176.2680  137.7800 C   0  0  0  0  0  0  0  0  0  0  0  0
  192.9560  175.5910  135.1440 N   0  0  0  0  0  0  0  0  0  0  0  0
  191.1110  177.1940  139.5310 C   0  0  0  0  0  0  0  0  0  0  0  0
  190.8130  176.1170  134.6410 O   0  0  0  0  0  0  0  0  0  0  0  0
  191.4700  176.3840  136.8390 C   0  0  2  0  0  3  0  0  0  0  0  0
  190.1320  177.4550  138.5560 O   0  0  0  0  0  0  0  0  0  0  0  0
  189.5540  177.3610  142.9180 C   0  0  1  0  0  3  0  0  0  0  0  0
  190.6770  177.2400  145.0310 O   0  0  0  0  0  1  0  0  0  0  0  0
  192.0850  177.1840  141.7900 C   0  0  0  0  0  3  0  0  0  0  0  0
  191.9740  176.8190  143.0780 C   0  0  0  0  0  3  0  0  0  0  0  0
  190.6310  176.6720  143.7520 C   0  0  2  0  0  3  0  0  0  0  0  0
  187.0540  178.5640  141.9400 C   0  0  0  0  0  2  0  0  0  0  0  0
  188.0770  178.6350  140.9820 O   0  0  0  0  0  0  0  0  0  0  0  0
  189.6480  176.9110  141.5150 N   0  0  2  0  0  0  0  0  0  0  0  0
  188.2770  177.1690  143.4620 O   0  0  0  0  0  0  0  0  0  0  0  0
  187.6740  178.4250  143.3330 C   0  0  2  0  0  3  0  0  0  0  0  0
  190.8640  177.5430  140.9660 C   0  0  2  0  0  3  0  0  0  0  0  0
  188.4570  177.3060  140.7330 C   0  0  0  0  0  2  0  0  0  0  0  0
  186.7440  178.7080  144.5240 C   0  0  2  0  0  3  0  0  0  0  0  0
  187.3820  178.4340  145.8950 C   0  0  0  0  0  1  0  0  0  0  0  0
  185.3400  177.0790  145.3380 O   0  0  0  0  0  1  0  0  0  0  0  0
  185.4880  177.9730  144.3260 N   0  0  0  0  0  0  0  0  0  0  0  0
  183.4750  179.0010  145.7290 O   0  0  0  0  0  0  0  0  0  0  0  0
  184.5350  180.4520  144.0510 O   0  0  0  0  0  0  0  0  0  0  0  0
  184.1120  179.0400  144.3640 S   0  0  0  0  0  0  0  0  0  0  0  0
  183.5360  178.5200  141.7530 C   0  0  0  0  0  2  0  0  0  0  0  0
  182.6210  179.1810  140.8230 N   0  0  0  0  0  2  0  0  0  0  0  0
  181.4430  179.5030  143.1680 S   0  0  0  0  0  0  0  0  0  0  0  0
  180.4030  180.1730  140.7480 C   0  0  0  0  0  1  0  0  0  0  0  0
  181.2910  179.1370  141.4110 C   0  0  1  0  0  3  0  0  0  0  0  0
  182.9320  178.4780  143.1500 C   0  0  2  0  0  3  0  0  0  0  0  0
  189.3110  175.5250  137.4770 N   0  0  0  0  0  2  0  0  0  0  0  0
  186.3740  173.1180  134.3470 F   0  0  0  0  0  0  0  0  0  0  0  0
  186.5730  174.0740  135.3260 C   0  0  2  0  0  0  0  0  0  0  0  0
  187.9080  174.1260  136.0620 C   0  0  2  0  0  3  0  0  0  0  0  0
  186.6080  177.5200  135.2410 C   0  0  0  0  0  1  0  0  0  0  0  0
  188.2090  175.5480  136.5280 C   0  0  1  0  0  3  0  0  0  0  0  0
  187.0790  176.1080  137.1570 O   0  0  0  0  0  0  0  0  0  0  0  0
  185.4900  174.0830  136.2260 O   0  0  0  0  0  0  0  0  0  0  0  0
  188.9240  173.6930  135.2080 O   0  0  0  0  0  1  0  0  0  0  0  0
  186.0940  176.4380  136.1910 C   0  0  2  0  0  0  0  0  0  0  0  0
  185.6130  175.2070  135.3800 C   0  0  1  0  0  3  0  0  0  0  0  0
  184.8990  177.0110  136.9600 C   0  0  0  0  0  2  0  0  0  0  0  0
  184.0420  175.9460  137.6330 C   0  0  0  0  0  2  0  0  0  0  0  0
  182.6020  176.4170  137.6840 C   0  0  0  0  0  2  0  0  0  0  0  0
  182.1290  176.8360  136.3010 C   0  0  2  0  0  3  0  0  0  0  0  0
  180.6660  178.4490  137.5340 O   0  0  0  0  0  1  0  0  0  0  0  0
  181.3950  178.9190  135.4140 O   0  0  0  0  0  0  0  0  0  0  0  0
  181.3830  178.1230  136.3890 C   0  0  0  0  0  0  0  0  0  0  0  0
  180.2960  176.1710  134.4430 O   0  0  0  0  0  0  0  0  0  0  0  0
  181.0990  175.5700  135.5650 S   0  0  0  0  0  0  0  0  0  0  0  0
  180.1660  175.0280  136.6120 O   0  0  0  0  0  0  0  0  0  0  0  0
  182.1100  174.3030  134.9430 N   0  0  0  0  0  2  0  0  0  0  0  0
  180.2840  172.3600  134.9130 O   0  0  0  0  0  0  0  0  0  0  0  0
  181.5830  172.7510  135.5850 P   0  0  2  0  0  0  0  0  0  0  0  0
  181.3090  172.8680  137.2530 O   0  0  0  0  0  1  0  0  0  0  0  0
  182.1640  170.0930  135.2080 C   0  0  0  0  0  2  0  0  0  0  0  0
  182.8280  171.4560  135.2820 C   0  0  0  0  0  3  0  0  0  0  0  0
  182.8790  170.5140  136.4710 C   0  0  0  0  0  2  0  0  0  0  0  0
  1 37  1  1  0  0  0
  1 11  1  0  0  0  0
  2  8  2  0  0  0  0
  3  6  2  0  0  0  0
  5  3  1  0  0  0  0
  6  2  1  0  0  0  0
  7  4  1  0  0  0  0
  7  5  2  0  0  0  0
  9  4  2  0  0  0  0
 10  4  1  1  0  0  0
 10  1  1  0  0  0  0
 10  6  1  0  0  0  0
 11  8  1  0  0  0  0
 12 20  1  1  0  0  0
 12 16  1  0  0  0  0
 14 15  2  0  0  0  0
 15 16  1  0  0  0  0
 16 13  1  1  0  0  0
 17 21  1  0  0  0  0
 18 17  1  0  0  0  0
 19 23  1  6  0  0  0
 19 12  1  0  0  0  0
 21 20  1  0  0  0  0
 21 24  1  1  0  0  0
 22  8  1  6  0  0  0
 22 19  1  0  0  0  0
 22 14  1  0  0  0  0
 23 18  1  0  0  0  0
 24 25  1  1  0  0  0
 27 30  1  0  0  0  0
 27 24  1  0  0  0  0
 27 26  1  0  0  0  0
 29 30  2  0  0  0  0
 30 28  2  0  0  0  0
 31 36  1  0  0  0  0
 32 35  1  0  0  0  0
 32 31  1  0  0  0  0
 35 34  1  6  0  0  0
 35 33  1  0  0  0  0
 36 33  1  0  0  0  0
 36 30  1  1  0  0  0
 39 38  1  6  0  0  0
 39 47  1  0  0  0  0
 39 40  1  0  0  0  0
 39 44  1  0  0  0  0
 40 45  1  6  0  0  0
 40 42  1  0  0  0  0
 42 43  1  0  0  0  0
 42 37  1  1  0  0  0
 46 41  1  6  0  0  0
 46 48  1  0  0  0  0
 46 43  1  0  0  0  0
 47 46  1  0  0  0  0
 47 44  1  1  0  0  0
 48 49  1  0  0  0  0
 49 50  1  0  0  0  0
 51 54  1  0  0  0  0
 51 50  1  1  0  0  0
 53 54  2  0  0  0  0
 54 52  1  0  0  0  0
 55 56  2  0  0  0  0
 56 51  1  0  0  0  0
 56 57  2  0  0  0  0
 58 56  1  0  0  0  0
 58 60  1  0  0  0  0
 60 59  2  6  0  0  0
 60 61  1  0  0  0  0
 62 63  1  0  0  0  0
 62 64  1  0  0  0  0
 63 60  1  0  0  0  0
 63 64  1  0  0  0  0
M  END
>  <MODEL>
7

>  <REMARK>
 VINA RESULT:      -5.8      3.272      8.507
  Name = 
  16 active torsions:
  status: ('A' for Active; 'I' for Inactive)
    1  A    between atoms: C_1  and  N_43
    2  A    between atoms: C_6  and  C_50
    3  A    between atoms: C_6  and  C_56
    4  A    between atoms: C_7  and  N_41
    5  A    between atoms: C_7  and  C_51
    6  A    between atoms: P_15  and  C_22
    7  A    between atoms: P_15  and  N_64
    8  A    between atoms: C_32  and  C_52
    9  A    between atoms: C_38  and  N_43
   10  A    between atoms: N_41  and  S_57
   11  A    between atoms: S_46  and  C_62
   12  A    between atoms: S_46  and  N_64
   13  A    between atoms: C_49  and  C_62
   14  A    between atoms: C_56  and  C_63
   15  A    between atoms: S_57  and  C_59
   16  A    between atoms: C_62  and  C_63
                            x       y       z     vdW  Elec       q    Type
                         _______ _______ _______ _____ _____    ______ ____

>  <TORSDO>
F 16

$$$$
=
 OpenBabel10232410563D

 64 71  0  0  1  0  0  0  0  0999 V2000
  190.5140  174.1460  136.6780 C   0  0  2  0  0  3  0  0  0  0  0  0
  189.6770  171.8850  135.1060 C   0  0  0  0  0  3  0  0  0  0  0  0
  192.0220  171.5290  134.3800 C   0  0  0  0  0  3  0  0  0  0  0  0
  192.9030  173.6160  135.9890 C   0  0  0  0  0  0  0  0  0  0  0  0
  193.3730  171.8790  134.4350 C   0  0  0  0  0  3  0  0  0  0  0  0
  191.1030  172.2350  135.1530 C   0  0  0  0  0  0  0  0  0  0  0  0
  193.7780  172.9020  135.2340 N   0  0  0  0  0  0  0  0  0  0  0  0
  188.8260  172.4750  135.9440 C   0  0  0  0  0  0  0  0  0  0  0  0
  193.3220  174.5660  136.6990 O   0  0  0  0  0  0  0  0  0  0  0  0
  191.5370  173.2960  135.9650 C   0  0  2  0  0  3  0  0  0  0  0  0
  189.2900  173.4260  136.8690 O   0  0  0  0  0  0  0  0  0  0  0  0
  185.2280  172.4400  134.9530 C   0  0  1  0  0  3  0  0  0  0  0  0
  183.8420  170.5160  134.6150 O   0  0  0  0  0  1  0  0  0  0  0  0
  187.2210  170.6350  135.6430 C   0  0  0  0  0  3  0  0  0  0  0  0
  186.1660  170.1390  134.9740 C   0  0  0  0  0  3  0  0  0  0  0  0
  185.1160  171.0370  134.3630 C   0  0  2  0  0  3  0  0  0  0  0  0
  184.7710  175.2420  135.7260 C   0  0  0  0  0  2  0  0  0  0  0  0
  185.9710  174.7430  136.2560 O   0  0  0  0  0  0  0  0  0  0  0  0
  186.6280  172.9030  134.8750 N   0  0  2  0  0  0  0  0  0  0  0  0
  184.3310  173.3300  134.3460 O   0  0  0  0  0  0  0  0  0  0  0  0
  183.8300  174.0740  135.4190 C   0  0  2  0  0  3  0  0  0  0  0  0
  187.3710  172.1230  135.8840 C   0  0  2  0  0  3  0  0  0  0  0  0
  186.7410  174.3520  135.1480 C   0  0  0  0  0  2  0  0  0  0  0  0
  182.3520  174.4310  135.1930 C   0  0  2  0  0  3  0  0  0  0  0  0
  182.1130  175.9010  134.8130 C   0  0  0  0  0  1  0  0  0  0  0  0
  182.3830  173.2730  137.1800 O   0  0  0  0  0  1  0  0  0  0  0  0
  181.5820  174.0190  136.3740 N   0  0  0  0  0  0  0  0  0  0  0  0
  180.1820  176.2800  136.4390 O   0  0  0  0  0  0  0  0  0  0  0  0
  180.2590  174.9430  138.5020 O   0  0  0  0  0  0  0  0  0  0  0  0
  181.0470  175.3950  137.2990 S   0  0  0  0  0  0  0  0  0  0  0  0
  182.8510  175.9570  139.2610 C   0  0  0  0  0  2  0  0  0  0  0  0
  183.0680  177.1730  140.0430 N   0  0  0  0  0  2  0  0  0  0  0  0
  182.1940  178.0910  137.7230 S   0  0  0  0  0  0  0  0  0  0  0  0
  183.1160  179.5900  139.7940 C   0  0  0  0  0  1  0  0  0  0  0  0
  183.3340  178.2550  139.1080 C   0  0  1  0  0  3  0  0  0  0  0  0
  182.4840  176.3090  137.8250 C   0  0  2  0  0  3  0  0  0  0  0  0
  190.2580  175.3360  135.8790 N   0  0  0  0  0  2  0  0  0  0  0  0
  188.3310  179.7050  137.0660 F   0  0  0  0  0  0  0  0  0  0  0  0
  188.8240  178.4640  137.4240 C   0  0  2  0  0  0  0  0  0  0  0  0
  189.0980  177.4260  136.3410 C   0  0  2  0  0  3  0  0  0  0  0  0
  191.7480  177.4760  138.9600 C   0  0  0  0  0  1  0  0  0  0  0  0
  190.2200  176.4850  136.7700 C   0  0  1  0  0  3  0  0  0  0  0  0
  190.0040  176.0330  138.0880 O   0  0  0  0  0  0  0  0  0  0  0  0
  188.0600  177.9200  138.4750 O   0  0  0  0  0  0  0  0  0  0  0  0
  189.4640  178.0760  135.1600 O   0  0  0  0  0  1  0  0  0  0  0  0
  190.2740  177.0730  139.0140 C   0  0  2  0  0  0  0  0  0  0  0  0
  189.3770  178.3180  138.7960 C   0  0  1  0  0  3  0  0  0  0  0  0
  189.9900  176.5050  140.4070 C   0  0  0  0  0  2  0  0  0  0  0  0
  191.1510  176.6710  141.3800 C   0  0  0  0  0  2  0  0  0  0  0  0
  190.7590  176.1110  142.7330 C   0  0  0  0  0  2  0  0  0  0  0  0
  191.3560  176.9510  143.8510 C   0  0  2  0  0  3  0  0  0  0  0  0
  191.7480  176.5710  146.2950 O   0  0  0  0  0  1  0  0  0  0  0  0
  192.0600  174.8770  144.7840 O   0  0  0  0  0  0  0  0  0  0  0  0
  191.7370  176.0750  144.9960 C   0  0  0  0  0  0  0  0  0  0  0  0
  190.9520  179.4940  144.6420 O   0  0  0  0  0  0  0  0  0  0  0  0
  190.2060  178.2120  144.3910 S   0  0  0  0  0  0  0  0  0  0  0  0
  189.5460  177.7600  145.6640 O   0  0  0  0  0  0  0  0  0  0  0  0
  189.0150  178.4640  143.1520 N   0  0  0  0  0  2  0  0  0  0  0  0
  187.0870  178.2720  144.9840 O   0  0  0  0  0  1  0  0  0  0  0  0
  187.4910  177.7250  143.6310 P   0  0  2  0  0  0  0  0  0  0  0  0
  187.6680  176.0460  143.7620 O   0  0  0  0  0  0  0  0  0  0  0  0
  186.1580  179.5670  142.0890 C   0  0  0  0  0  2  0  0  0  0  0  0
  186.1760  178.0860  142.4220 C   0  0  0  0  0  3  0  0  0  0  0  0
  185.1440  179.0000  143.0540 C   0  0  0  0  0  2  0  0  0  0  0  0
  1 37  1  6  0  0  0
  1 11  1  0  0  0  0
  2  6  1  0  0  0  0
  2  8  2  0  0  0  0
  3  5  1  0  0  0  0
  3  6  2  0  0  0  0
  4  9  2  0  0  0  0
  5  7  2  0  0  0  0
  7  4  1  0  0  0  0
  8 11  1  0  0  0  0
 10  6  1  6  0  0  0
 10  4  1  0  0  0  0
 10  1  1  0  0  0  0
 12 20  1  6  0  0  0
 14 22  1  0  0  0  0
 15 14  2  0  0  0  0
 16 13  1  1  0  0  0
 16 12  1  0  0  0  0
 16 15  1  0  0  0  0
 17 18  1  0  0  0  0
 19 12  1  0  0  0  0
 19 23  1  1  0  0  0
 19 22  1  0  0  0  0
 20 21  1  0  0  0  0
 21 24  1  6  0  0  0
 21 17  1  0  0  0  0
 22  8  1  6  0  0  0
 23 18  1  0  0  0  0
 24 25  1  1  0  0  0
 24 27  1  0  0  0  0
 27 26  1  0  0  0  0
 27 30  1  0  0  0  0
 28 30  2  0  0  0  0
 30 29  2  0  0  0  0
 31 32  1  0  0  0  0
 33 36  1  0  0  0  0
 33 35  1  0  0  0  0
 35 34  1  1  0  0  0
 35 32  1  0  0  0  0
 36 30  1  1  0  0  0
 36 31  1  0  0  0  0
 39 38  1  6  0  0  0
 39 44  1  0  0  0  0
 39 47  1  0  0  0  0
 40 45  1  6  0  0  0
 40 42  1  0  0  0  0
 40 39  1  0  0  0  0
 42 37  1  6  0  0  0
 42 43  1  0  0  0  0
 43 46  1  0  0  0  0
 46 41  1  6  0  0  0
 46 48  1  0  0  0  0
 47 44  1  1  0  0  0
 47 46  1  0  0  0  0
 48 49  1  0  0  0  0
 49 50  1  0  0  0  0
 51 50  1  6  0  0  0
 51 56  1  0  0  0  0
 51 54  1  0  0  0  0
 53 54  2  0  0  0  0
 54 52  1  0  0  0  0
 56 55  2  0  0  0  0
 56 57  2  0  0  0  0
 58 60  1  0  0  0  0
 58 56  1  0  0  0  0
 60 61  2  1  0  0  0
 60 59  1  0  0  0  0
 62 63  1  0  0  0  0
 62 64  1  0  0  0  0
 63 64  1  0  0  0  0
 63 60  1  0  0  0  0
M  END
>  <MODEL>
8

>  <REMARK>
 VINA RESULT:      -5.5      3.328     10.164
  Name = 
  16 active torsions:
  status: ('A' for Active; 'I' for Inactive)
    1  A    between atoms: C_1  and  N_43
    2  A    between atoms: C_6  and  C_50
    3  A    between atoms: C_6  and  C_56
    4  A    between atoms: C_7  and  N_41
    5  A    between atoms: C_7  and  C_51
    6  A    between atoms: P_15  and  C_22
    7  A    between atoms: P_15  and  N_64
    8  A    between atoms: C_32  and  C_52
    9  A    between atoms: C_38  and  N_43
   10  A    between atoms: N_41  and  S_57
   11  A    between atoms: S_46  and  C_62
   12  A    between atoms: S_46  and  N_64
   13  A    between atoms: C_49  and  C_62
   14  A    between atoms: C_56  and  C_63
   15  A    between atoms: S_57  and  C_59
   16  A    between atoms: C_62  and  C_63
                            x       y       z     vdW  Elec       q    Type
                         _______ _______ _______ _____ _____    ______ ____

>  <TORSDO>
F 16

$$$$
=
 OpenBabel10232410563D

 64 71  0  0  1  0  0  0  0  0999 V2000
  183.3760  175.0420  136.5470 C   0  0  2  0  0  3  0  0  0  0  0  0
  184.4280  172.4580  135.8420 C   0  0  0  0  0  3  0  0  0  0  0  0
  182.2770  171.4100  136.4940 C   0  0  0  0  0  3  0  0  0  0  0  0
  181.1660  173.8940  137.0570 C   0  0  0  0  0  0  0  0  0  0  0  0
  180.9610  171.5280  136.9470 C   0  0  0  0  0  3  0  0  0  0  0  0
  183.0410  172.5600  136.3140 C   0  0  0  0  0  0  0  0  0  0  0  0
  180.4400  172.7560  137.2120 N   0  0  0  0  0  0  0  0  0  0  0  0
  185.1080  173.5660  135.5460 C   0  0  0  0  0  0  0  0  0  0  0  0
  180.6480  175.0060  137.3320 O   0  0  0  0  0  0  0  0  0  0  0  0
  182.4910  173.8210  136.6010 C   0  0  2  0  0  3  0  0  0  0  0  0
  184.5000  174.8250  135.6850 O   0  0  0  0  0  0  0  0  0  0  0  0
  188.8390  173.4780  135.5350 C   0  0  1  0  0  3  0  0  0  0  0  0
  190.2430  171.9340  134.3590 O   0  0  0  0  0  1  0  0  0  0  0  0
  186.7150  172.1420  134.3460 C   0  0  0  0  0  3  0  0  0  0  0  0
  187.9000  171.5080  134.3460 C   0  0  0  0  0  3  0  0  0  0  0  0
  189.0810  172.0250  135.1330 C   0  0  2  0  0  3  0  0  0  0  0  0
  189.1160  176.2410  136.5070 C   0  0  0  0  0  2  0  0  0  0  0  0
  187.8150  175.9750  136.0530 O   0  0  0  0  0  0  0  0  0  0  0  0
  187.5100  173.6050  136.1670 N   0  0  2  0  0  0  0  0  0  0  0  0
  189.8710  173.9690  136.3460 O   0  0  0  0  0  0  0  0  0  0  0  0
  190.0900  175.2600  135.8520 C   0  0  2  0  0  3  0  0  0  0  0  0
  186.5260  173.4560  135.0770 C   0  0  2  0  0  3  0  0  0  0  0  0
  187.3480  174.9100  136.8420 C   0  0  0  0  0  2  0  0  0  0  0  0
  191.5810  175.6260  135.9280 C   0  0  2  0  0  3  0  0  0  0  0  0
  192.3750  175.2870  134.6560 C   0  0  0  0  0  1  0  0  0  0  0  0
  192.4350  173.7110  136.8720 O   0  0  0  0  0  1  0  0  0  0  0  0
  192.1550  175.0140  137.1340 N   0  0  0  0  0  0  0  0  0  0  0  0
  194.1000  176.7130  136.4950 O   0  0  0  0  0  0  0  0  0  0  0  0
  193.4580  176.5770  138.8640 O   0  0  0  0  0  0  0  0  0  0  0  0
  193.6470  175.7880  137.5930 S   0  0  0  0  0  0  0  0  0  0  0  0
  195.4770  174.6220  139.2410 C   0  0  0  0  0  2  0  0  0  0  0  0
  196.9370  174.5800  139.1740 N   0  0  0  0  0  2  0  0  0  0  0  0
  196.2140  174.6690  136.6330 S   0  0  0  0  0  0  0  0  0  0  0  0
  198.7430  174.3230  137.5680 C   0  0  0  0  0  1  0  0  0  0  0  0
  197.3010  173.9870  137.8970 C   0  0  1  0  0  3  0  0  0  0  0  0
  194.8790  174.5230  137.8430 C   0  0  2  0  0  3  0  0  0  0  0  0
  183.8460  175.3390  137.8920 N   0  0  0  0  0  2  0  0  0  0  0  0
  181.4940  179.5550  136.9350 F   0  0  0  0  0  0  0  0  0  0  0  0
  182.1090  178.6870  137.8190 C   0  0  2  0  0  0  0  0  0  0  0  0
  182.4840  177.2840  137.3530 C   0  0  2  0  0  3  0  0  0  0  0  0
  185.1180  178.8170  139.4960 C   0  0  0  0  0  1  0  0  0  0  0  0
  183.6940  176.7670  138.1250 C   0  0  1  0  0  3  0  0  0  0  0  0
  183.5250  176.9870  139.5070 O   0  0  0  0  0  0  0  0  0  0  0  0
  181.4040  178.6510  139.0380 O   0  0  0  0  0  0  0  0  0  0  0  0
  182.7820  177.3140  135.9890 O   0  0  0  0  0  1  0  0  0  0  0  0
  183.6920  178.3630  139.8080 C   0  0  2  0  0  0  0  0  0  0  0  0
  182.6750  179.2670  139.0650 C   0  0  1  0  0  3  0  0  0  0  0  0
  183.4660  178.5130  141.3160 C   0  0  0  0  0  2  0  0  0  0  0  0
  184.6430  179.1500  142.0460 C   0  0  0  0  0  2  0  0  0  0  0  0
  185.4750  178.0660  142.7020 C   0  0  0  0  0  2  0  0  0  0  0  0
  185.2150  178.0280  144.2000 C   0  0  2  0  0  3  0  0  0  0  0  0
  184.7710  180.4880  144.0790 O   0  0  0  0  0  0  0  0  0  0  0  0
  183.5350  179.1450  145.4640 O   0  0  0  0  0  1  0  0  0  0  0  0
  184.4590  179.2440  144.6150 C   0  0  0  0  0  0  0  0  0  0  0  0
  186.9900  176.4750  145.5000 O   0  0  0  0  0  0  0  0  0  0  0  0
  186.7490  177.9090  145.1140 S   0  0  0  0  0  0  0  0  0  0  0  0
  186.6460  178.7490  146.3570 O   0  0  0  0  0  0  0  0  0  0  0  0
  188.0530  178.4700  144.1140 N   0  0  0  0  0  2  0  0  0  0  0  0
  189.2870  177.4570  141.9780 O   0  0  0  0  0  0  0  0  0  0  0  0
  188.8840  177.0960  143.3920 P   0  0  2  0  0  0  0  0  0  0  0  0
  187.8540  175.7530  143.3290 O   0  0  0  0  0  1  0  0  0  0  0  0
  191.2340  177.8800  144.5790 C   0  0  0  0  0  2  0  0  0  0  0  0
  190.3730  176.6520  144.3450 C   0  0  0  0  0  3  0  0  0  0  0  0
  191.6070  176.8940  143.4970 C   0  0  0  0  0  2  0  0  0  0  0  0
  1 10  1  0  0  0  0
  1 37  1  1  0  0  0
  2  6  1  0  0  0  0
  3  5  1  0  0  0  0
  4  7  1  0  0  0  0
  4  9  2  0  0  0  0
  5  7  2  0  0  0  0
  6  3  2  0  0  0  0
  8 11  1  0  0  0  0
  8  2  2  0  0  0  0
 10  6  1  1  0  0  0
 10  4  1  0  0  0  0
 11  1  1  0  0  0  0
 12 19  1  0  0  0  0
 12 20  1  1  0  0  0
 14 22  1  0  0  0  0
 15 14  2  0  0  0  0
 15 16  1  0  0  0  0
 16 13  1  6  0  0  0
 16 12  1  0  0  0  0
 18 17  1  0  0  0  0
 18 23  1  0  0  0  0
 19 23  1  6  0  0  0
 21 24  1  1  0  0  0
 21 20  1  0  0  0  0
 21 17  1  0  0  0  0
 22  8  1  1  0  0  0
 22 19  1  0  0  0  0
 24 25  1  6  0  0  0
 24 27  1  0  0  0  0
 26 27  1  0  0  0  0
 27 30  1  0  0  0  0
 28 30  2  0  0  0  0
 30 29  2  0  0  0  0
 32 31  1  0  0  0  0
 33 36  1  0  0  0  0
 33 35  1  0  0  0  0
 35 34  1  6  0  0  0
 35 32  1  0  0  0  0
 36 30  1  6  0  0  0
 36 31  1  0  0  0  0
 39 38  1  6  0  0  0
 39 44  1  0  0  0  0
 39 47  1  0  0  0  0
 40 45  1  6  0  0  0
 40 39  1  0  0  0  0
 40 42  1  0  0  0  0
 42 37  1  1  0  0  0
 42 43  1  0  0  0  0
 43 46  1  0  0  0  0
 46 41  1  6  0  0  0
 46 48  1  0  0  0  0
 47 44  1  1  0  0  0
 47 46  1  0  0  0  0
 48 49  1  0  0  0  0
 49 50  1  0  0  0  0
 51 50  1  6  0  0  0
 51 54  1  0  0  0  0
 51 56  1  0  0  0  0
 52 54  2  0  0  0  0
 54 53  1  0  0  0  0
 56 55  2  0  0  0  0
 56 57  2  0  0  0  0
 58 56  1  0  0  0  0
 60 59  2  6  0  0  0
 60 58  1  0  0  0  0
 60 63  1  0  0  0  0
 61 60  1  0  0  0  0
 63 62  1  0  0  0  0
 64 63  1  0  0  0  0
 64 62  1  0  0  0  0
M  END
>  <MODEL>
9

>  <REMARK>
 VINA RESULT:      -5.4      2.714      8.146
  Name = 
  16 active torsions:
  status: ('A' for Active; 'I' for Inactive)
    1  A    between atoms: C_1  and  N_43
    2  A    between atoms: C_6  and  C_50
    3  A    between atoms: C_6  and  C_56
    4  A    between atoms: C_7  and  N_41
    5  A    between atoms: C_7  and  C_51
    6  A    between atoms: P_15  and  C_22
    7  A    between atoms: P_15  and  N_64
    8  A    between atoms: C_32  and  C_52
    9  A    between atoms: C_38  and  N_43
   10  A    between atoms: N_41  and  S_57
   11  A    between atoms: S_46  and  C_62
   12  A    between atoms: S_46  and  N_64
   13  A    between atoms: C_49  and  C_62
   14  A    between atoms: C_56  and  C_63
   15  A    between atoms: S_57  and  C_59
   16  A    between atoms: C_62  and  C_63
                            x       y       z     vdW  Elec       q    Type
                         _______ _______ _______ _____ _____    ______ ____

>  <TORSDO>
F 16

$$$$
