=
 OpenBabel10232408123D

 32 35  0  0  1  0  0  0  0  0999 V2000
  189.7190  177.3570  141.5420 C   0  0  0  0  0  0  0  0  0  0  0  0
  188.5290  178.4640  139.4680 S   0  0  0  0  0  0  0  0  0  0  0  0
  189.9050  177.6660  140.2640 C   0  0  0  0  0  0  0  0  0  0  0  0
  187.4720  177.9590  140.8680 C   0  0  1  0  0  3  0  0  0  0  0  0
  188.3490  177.6170  142.0680 C   0  0  1  0  0  3  0  0  0  0  0  0
  187.8510  176.4860  142.6870 F   0  0  0  0  0  0  0  0  0  0  0  0
  186.4470  179.0320  141.2100 C   0  0  0  0  0  2  0  0  0  0  0  0
  185.0900  178.5450  141.0010 N   0  0  0  0  0  2  0  0  0  0  0  0
  182.5830  178.4480  139.7980 S   0  0  0  0  0  1  0  0  0  0  0  0
  184.2350  179.0950  140.0010 C   0  0  0  0  0  0  0  0  0  0  0  0
  184.6330  180.0330  139.2590 O   0  0  0  0  0  0  0  0  0  0  0  0
  191.1540  177.5030  139.5770 N   0  0  0  0  0  2  0  0  0  0  0  0
  193.0900  175.1360  137.4170 C   0  0  0  0  0  3  0  0  0  0  0  0
  190.5030  175.4900  138.3510 C   0  0  0  0  0  3  0  0  0  0  0  0
  190.8100  174.4370  137.5460 N   0  0  0  0  0  0  0  0  0  0  0  0
  192.7940  176.2230  138.2390 C   0  0  0  0  0  3  0  0  0  0  0  0
  191.4870  176.4160  138.7040 C   0  0  0  0  0  0  0  0  0  0  0  0
  192.0710  174.2440  137.0750 C   0  0  0  0  0  3  0  0  0  0  0  0
  190.7970  176.9260  142.3790 N   0  0  0  0  0  2  0  0  0  0  0  0
  191.8380  177.7370  144.4880 C   0  0  1  0  0  3  0  0  0  0  0  0
  191.7730  177.8390  142.9600 C   0  0  2  0  0  3  0  0  0  0  0  0
  191.0530  178.8520  143.8270 C   0  0  0  0  0  2  0  0  0  0  0  0
  190.8840  176.7060  145.0880 C   0  0  0  0  0  2  0  0  0  0  0  0
  190.4320  177.1380  146.3660 O   0  0  0  0  0  0  0  0  0  0  0  0
  188.1570  177.5840  145.5940 C   0  0  0  0  0  3  0  0  0  0  0  0
  186.8520  177.9790  145.8880 C   0  0  0  0  0  0  0  0  0  0  0  0
  189.1160  177.5370  146.6170 C   0  0  0  0  0  0  0  0  0  0  0  0
  185.2520  178.7120  147.5110 F   0  0  0  0  0  0  0  0  0  0  0  0
  187.4910  178.2680  148.1930 C   0  0  0  0  0  3  0  0  0  0  0  0
  188.7580  177.8790  147.8850 N   0  0  0  0  0  0  0  0  0  0  0  0
  186.5130  178.3250  147.1980 C   0  0  0  0  0  0  0  0  0  0  0  0
  185.6590  178.0300  144.6050 Cl  0  0  0  0  0  0  0  0  0  0  0  0
  1  5  1  0  0  0  0
  1 19  1  0  0  0  0
  2  3  1  0  0  0  0
  2  4  1  0  0  0  0
  3  1  2  0  0  0  0
  4  7  1  1  0  0  0
  4  5  1  0  0  0  0
  5  6  1  6  0  0  0
  8  7  1  0  0  0  0
  9 10  1  0  0  0  0
 10  8  1  0  0  0  0
 11 10  2  0  0  0  0
 12  3  1  0  0  0  0
 13 16  1  0  0  0  0
 14 17  1  0  0  0  0
 15 14  2  0  0  0  0
 16 17  2  0  0  0  0
 17 12  1  0  0  0  0
 18 13  2  0  0  0  0
 18 15  1  0  0  0  0
 20 23  1  6  0  0  0
 21 19  1  6  0  0  0
 21 22  1  0  0  0  0
 21 20  1  0  0  0  0
 22 20  1  0  0  0  0
 23 24  1  0  0  0  0
 24 27  1  0  0  0  0
 25 26  2  0  0  0  0
 25 27  1  0  0  0  0
 26 31  1  0  0  0  0
 27 30  2  0  0  0  0
 30 29  1  0  0  0  0
 31 28  1  0  0  0  0
 31 29  2  0  0  0  0
 32 26  1  0  0  0  0
M  END
>  <MODEL>
1

>  <REMARK>
 VINA RESULT:      -8.1      0.000      0.000
  Name = 
  9 active torsions:
  status: ('A' for Active; 'I' for Inactive)
    1  A    between atoms: C_3  and  O_8
    2  A    between atoms: C_4  and  C_20
    3  A    between atoms: N_5  and  C_9
    4  A    between atoms: C_6  and  N_30
    5  A    between atoms: O_8  and  C_20
    6  A    between atoms: C_9  and  C_23
    7  A    between atoms: C_13  and  N_30
    8  A    between atoms: N_17  and  C_22
    9  A    between atoms: N_17  and  C_26
                            x       y       z     vdW  Elec       q    Type
                         _______ _______ _______ _____ _____    ______ ____

>  <TORSDO>
F 9

$$$$
=
 OpenBabel10232408123D

 32 35  0  0  1  0  0  0  0  0999 V2000
  184.0730  178.2380  141.1110 C   0  0  0  0  0  0  0  0  0  0  0  0
  184.7870  179.0050  138.6940 S   0  0  0  0  0  0  0  0  0  0  0  0
  185.0920  178.7420  140.4260 C   0  0  0  0  0  0  0  0  0  0  0  0
  183.2980  177.9580  138.8340 C   0  0  1  0  0  3  0  0  0  0  0  0
  182.8820  177.8620  140.2970 C   0  0  1  0  0  3  0  0  0  0  0  0
  182.5020  176.5620  140.5770 F   0  0  0  0  0  0  0  0  0  0  0  0
  182.1640  178.4800  137.9610 C   0  0  0  0  0  2  0  0  0  0  0  0
  181.8630  179.8710  138.2730 N   0  0  0  0  0  2  0  0  0  0  0  0
  180.8760  182.4260  137.7870 S   0  0  0  0  0  1  0  0  0  0  0  0
  181.2150  180.7310  137.3380 C   0  0  0  0  0  0  0  0  0  0  0  0
  180.8800  180.3090  136.1990 O   0  0  0  0  0  0  0  0  0  0  0  0
  186.3210  179.1760  141.0270 N   0  0  0  0  0  2  0  0  0  0  0  0
  189.1230  176.9390  142.1040 C   0  0  0  0  0  3  0  0  0  0  0  0
  188.3560  178.4300  139.8950 C   0  0  0  0  0  3  0  0  0  0  0  0
  189.5100  177.7100  139.8780 N   0  0  0  0  0  0  0  0  0  0  0  0
  187.9360  177.6720  142.1420 C   0  0  0  0  0  3  0  0  0  0  0  0
  187.5490  178.4380  141.0360 C   0  0  0  0  0  0  0  0  0  0  0  0
  189.9070  176.9740  140.9500 C   0  0  0  0  0  3  0  0  0  0  0  0
  184.0780  178.1840  142.5420 N   0  0  0  0  0  2  0  0  0  0  0  0
  184.4350  179.3920  144.6870 C   0  0  1  0  0  3  0  0  0  0  0  0
  183.6330  179.2850  143.3850 C   0  0  2  0  0  3  0  0  0  0  0  0
  183.0730  178.7290  144.6780 C   0  0  0  0  0  2  0  0  0  0  0  0
  185.5310  178.3390  144.8350 C   0  0  0  0  0  2  0  0  0  0  0  0
  185.8570  178.1570  146.2070 O   0  0  0  0  0  0  0  0  0  0  0  0
  188.1740  177.5050  145.7830 C   0  0  0  0  0  3  0  0  0  0  0  0
  189.4630  177.2890  146.2710 C   0  0  0  0  0  0  0  0  0  0  0  0
  187.1600  177.9210  146.6590 C   0  0  0  0  0  0  0  0  0  0  0  0
  190.9730  177.2860  148.1290 F   0  0  0  0  0  0  0  0  0  0  0  0
  188.6980  177.9020  148.4730 C   0  0  0  0  0  3  0  0  0  0  0  0
  187.4490  178.1080  147.9750 N   0  0  0  0  0  0  0  0  0  0  0  0
  189.7300  177.4880  147.6290 C   0  0  0  0  0  0  0  0  0  0  0  0
  190.7260  176.7740  145.1710 Cl  0  0  0  0  0  0  0  0  0  0  0  0
  1 19  1  0  0  0  0
  2  4  1  0  0  0  0
  2  3  1  0  0  0  0
  3 12  1  0  0  0  0
  3  1  2  0  0  0  0
  4  7  1  6  0  0  0
  4  5  1  0  0  0  0
  5  6  1  1  0  0  0
  5  1  1  0  0  0  0
  7  8  1  0  0  0  0
 10  9  1  0  0  0  0
 10  8  1  0  0  0  0
 11 10  2  0  0  0  0
 12 17  1  0  0  0  0
 13 16  1  0  0  0  0
 14 17  1  0  0  0  0
 15 14  2  0  0  0  0
 15 18  1  0  0  0  0
 17 16  2  0  0  0  0
 18 13  2  0  0  0  0
 20 23  1  6  0  0  0
 21 19  1  6  0  0  0
 21 22  1  0  0  0  0
 21 20  1  0  0  0  0
 22 20  1  0  0  0  0
 23 24  1  0  0  0  0
 24 27  1  0  0  0  0
 25 26  2  0  0  0  0
 25 27  1  0  0  0  0
 26 31  1  0  0  0  0
 27 30  2  0  0  0  0
 30 29  1  0  0  0  0
 31 28  1  0  0  0  0
 31 29  2  0  0  0  0
 32 26  1  0  0  0  0
M  END
>  <MODEL>
2

>  <REMARK>
 VINA RESULT:      -7.8      3.170      5.151
  Name = 
  9 active torsions:
  status: ('A' for Active; 'I' for Inactive)
    1  A    between atoms: C_3  and  O_8
    2  A    between atoms: C_4  and  C_20
    3  A    between atoms: N_5  and  C_9
    4  A    between atoms: C_6  and  N_30
    5  A    between atoms: O_8  and  C_20
    6  A    between atoms: C_9  and  C_23
    7  A    between atoms: C_13  and  N_30
    8  A    between atoms: N_17  and  C_22
    9  A    between atoms: N_17  and  C_26
                            x       y       z     vdW  Elec       q    Type
                         _______ _______ _______ _____ _____    ______ ____

>  <TORSDO>
F 9

$$$$
=
 OpenBabel10232408123D

 32 35  0  0  1  0  0  0  0  0999 V2000
  188.0610  178.1710  141.2830 C   0  0  0  0  0  0  0  0  0  0  0  0
  185.5700  178.7570  140.6570 S   0  0  0  0  0  0  0  0  0  0  0  0
  187.2800  178.4780  140.2550 C   0  0  0  0  0  0  0  0  0  0  0  0
  185.8640  177.9850  142.2850 C   0  0  1  0  0  3  0  0  0  0  0  0
  187.3590  177.9900  142.5850 C   0  0  1  0  0  3  0  0  0  0  0  0
  187.7110  176.7810  143.1560 F   0  0  0  0  0  0  0  0  0  0  0  0
  185.0690  178.6790  143.3840 C   0  0  0  0  0  2  0  0  0  0  0  0
  183.6400  178.6240  143.1080 N   0  0  0  0  0  2  0  0  0  0  0  0
  180.9280  178.7880  143.7110 S   0  0  0  0  0  1  0  0  0  0  0  0
  182.6650  178.8710  144.1200 C   0  0  0  0  0  0  0  0  0  0  0  0
  183.0160  179.1460  145.2980 O   0  0  0  0  0  0  0  0  0  0  0  0
  187.7640  178.7060  138.9240 N   0  0  0  0  0  2  0  0  0  0  0  0
  189.7880  176.5410  136.6350 C   0  0  0  0  0  3  0  0  0  0  0  0
  187.1870  176.7480  137.5770 C   0  0  0  0  0  3  0  0  0  0  0  0
  187.5340  175.7560  136.7120 N   0  0  0  0  0  0  0  0  0  0  0  0
  189.4520  177.5660  137.5200 C   0  0  0  0  0  3  0  0  0  0  0  0
  188.1380  177.6860  137.9890 C   0  0  0  0  0  0  0  0  0  0  0  0
  188.8020  175.6370  136.2360 C   0  0  0  0  0  3  0  0  0  0  0  0
  189.4870  178.1430  141.1660 N   0  0  0  0  0  2  0  0  0  0  0  0
  191.4600  176.9310  142.0760 C   0  0  1  0  0  3  0  0  0  0  0  0
  190.2630  176.9100  141.1200 C   0  0  2  0  0  3  0  0  0  0  0  0
  191.6530  177.2130  140.6000 C   0  0  0  0  0  2  0  0  0  0  0  0
  191.5970  178.2230  142.8800 C   0  0  0  0  0  2  0  0  0  0  0  0
  192.0210  177.9340  144.2070 O   0  0  0  0  0  0  0  0  0  0  0  0
  189.7810  177.9730  145.1820 C   0  0  0  0  0  3  0  0  0  0  0  0
  188.9280  177.6250  146.2300 C   0  0  0  0  0  0  0  0  0  0  0  0
  191.1360  177.6120  145.2400 C   0  0  0  0  0  0  0  0  0  0  0  0
  188.6250  176.5690  148.3580 F   0  0  0  0  0  0  0  0  0  0  0  0
  190.7850  176.5760  147.3520 C   0  0  0  0  0  3  0  0  0  0  0  0
  191.5990  176.9250  146.3200 N   0  0  0  0  0  0  0  0  0  0  0  0
  189.4320  176.9200  147.3270 C   0  0  0  0  0  0  0  0  0  0  0  0
  187.2370  178.0760  146.1490 Cl  0  0  0  0  0  0  0  0  0  0  0  0
  1  5  1  0  0  0  0
  2  4  1  0  0  0  0
  3  2  1  0  0  0  0
  3  1  2  0  0  0  0
  4  5  1  0  0  0  0
  4  7  1  1  0  0  0
  5  6  1  6  0  0  0
  8  7  1  0  0  0  0
  8 10  1  0  0  0  0
  9 10  1  0  0  0  0
 10 11  2  0  0  0  0
 12  3  1  0  0  0  0
 13 16  1  0  0  0  0
 14 17  1  0  0  0  0
 15 14  2  0  0  0  0
 16 17  2  0  0  0  0
 17 12  1  0  0  0  0
 18 13  2  0  0  0  0
 18 15  1  0  0  0  0
 19  1  1  0  0  0  0
 20 23  1  1  0  0  0
 21 19  1  1  0  0  0
 21 20  1  0  0  0  0
 22 21  1  0  0  0  0
 22 20  1  0  0  0  0
 23 24  1  0  0  0  0
 24 27  1  0  0  0  0
 25 27  1  0  0  0  0
 25 26  2  0  0  0  0
 26 31  1  0  0  0  0
 27 30  2  0  0  0  0
 30 29  1  0  0  0  0
 31 29  2  0  0  0  0
 31 28  1  0  0  0  0
 32 26  1  0  0  0  0
M  END
>  <MODEL>
3

>  <REMARK>
 VINA RESULT:      -7.8      2.681      3.211
  Name = 
  9 active torsions:
  status: ('A' for Active; 'I' for Inactive)
    1  A    between atoms: C_3  and  O_8
    2  A    between atoms: C_4  and  C_20
    3  A    between atoms: N_5  and  C_9
    4  A    between atoms: C_6  and  N_30
    5  A    between atoms: O_8  and  C_20
    6  A    between atoms: C_9  and  C_23
    7  A    between atoms: C_13  and  N_30
    8  A    between atoms: N_17  and  C_22
    9  A    between atoms: N_17  and  C_26
                            x       y       z     vdW  Elec       q    Type
                         _______ _______ _______ _____ _____    ______ ____

>  <TORSDO>
F 9

$$$$
=
 OpenBabel10232408123D

 32 35  0  0  1  0  0  0  0  0999 V2000
  186.7250  178.5820  139.9900 C   0  0  0  0  0  0  0  0  0  0  0  0
  189.0760  177.5870  139.3360 S   0  0  0  0  0  0  0  0  0  0  0  0
  187.8780  178.1800  140.5110 C   0  0  0  0  0  0  0  0  0  0  0  0
  187.7490  177.4880  138.0870 C   0  0  1  0  0  3  0  0  0  0  0  0
  186.5760  178.3580  138.5240 C   0  0  1  0  0  3  0  0  0  0  0  0
  185.3930  177.6920  138.2600 F   0  0  0  0  0  0  0  0  0  0  0  0
  188.2540  177.8800  136.7040 C   0  0  0  0  0  2  0  0  0  0  0  0
  189.6270  177.4390  136.5050 N   0  0  0  0  0  2  0  0  0  0  0  0
  191.6470  175.7350  135.6340 S   0  0  0  0  0  1  0  0  0  0  0  0
  189.9400  176.2140  135.8440 C   0  0  0  0  0  0  0  0  0  0  0  0
  189.0240  175.4680  135.4070 O   0  0  0  0  0  0  0  0  0  0  0  0
  188.2210  178.3190  141.8970 N   0  0  0  0  0  2  0  0  0  0  0  0
  191.4120  177.8980  143.8090 C   0  0  0  0  0  3  0  0  0  0  0  0
  189.4730  176.3360  142.5860 C   0  0  0  0  0  3  0  0  0  0  0  0
  190.5330  175.7580  143.2150 N   0  0  0  0  0  0  0  0  0  0  0  0
  190.3340  178.5090  143.1680 C   0  0  0  0  0  3  0  0  0  0  0  0
  189.3580  177.7270  142.5360 C   0  0  0  0  0  0  0  0  0  0  0  0
  191.4960  176.5040  143.8190 C   0  0  0  0  0  3  0  0  0  0  0  0
  185.7550  179.2940  140.7650 N   0  0  0  0  0  2  0  0  0  0  0  0
  183.7200  178.9850  142.1630 C   0  0  1  0  0  3  0  0  0  0  0  0
  184.3340  178.9710  140.7590 C   0  0  2  0  0  3  0  0  0  0  0  0
  184.1130  177.6750  141.5120 C   0  0  0  0  0  2  0  0  0  0  0  0
  184.7080  179.3370  143.2740 C   0  0  0  0  0  2  0  0  0  0  0  0
  185.0690  178.1680  144.0000 O   0  0  0  0  0  0  0  0  0  0  0  0
  187.0390  177.5630  145.3140 C   0  0  0  0  0  3  0  0  0  0  0  0
  187.7380  177.6310  146.5190 C   0  0  0  0  0  0  0  0  0  0  0  0
  185.7970  178.2050  145.1940 C   0  0  0  0  0  0  0  0  0  0  0  0
  187.8520  178.4190  148.7780 F   0  0  0  0  0  0  0  0  0  0  0  0
  185.9550  178.9640  147.4420 C   0  0  0  0  0  3  0  0  0  0  0  0
  185.2910  178.8860  146.2580 N   0  0  0  0  0  0  0  0  0  0  0  0
  187.1940  178.3370  147.5950 C   0  0  0  0  0  0  0  0  0  0  0  0
  189.2910  176.8310  146.6600 Cl  0  0  0  0  0  0  0  0  0  0  0  0
  1  3  2  0  0  0  0
  1 19  1  0  0  0  0
  2  3  1  0  0  0  0
  3 12  1  0  0  0  0
  4  7  1  6  0  0  0
  4  5  1  0  0  0  0
  4  2  1  0  0  0  0
  5  6  1  1  0  0  0
  5  1  1  0  0  0  0
  8  7  1  0  0  0  0
  9 10  1  0  0  0  0
 10  8  1  0  0  0  0
 11 10  2  0  0  0  0
 12 17  1  0  0  0  0
 13 18  1  0  0  0  0
 14 15  1  0  0  0  0
 15 18  2  0  0  0  0
 16 13  2  0  0  0  0
 17 14  2  0  0  0  0
 17 16  1  0  0  0  0
 20 23  1  1  0  0  0
 21 19  1  1  0  0  0
 21 22  1  0  0  0  0
 21 20  1  0  0  0  0
 22 20  1  0  0  0  0
 23 24  1  0  0  0  0
 24 27  1  0  0  0  0
 25 26  2  0  0  0  0
 26 32  1  0  0  0  0
 26 31  1  0  0  0  0
 27 25  1  0  0  0  0
 27 30  2  0  0  0  0
 29 31  2  0  0  0  0
 30 29  1  0  0  0  0
 31 28  1  0  0  0  0
M  END
>  <MODEL>
4

>  <REMARK>
 VINA RESULT:      -7.7      2.938      5.459
  Name = 
  9 active torsions:
  status: ('A' for Active; 'I' for Inactive)
    1  A    between atoms: C_3  and  O_8
    2  A    between atoms: C_4  and  C_20
    3  A    between atoms: N_5  and  C_9
    4  A    between atoms: C_6  and  N_30
    5  A    between atoms: O_8  and  C_20
    6  A    between atoms: C_9  and  C_23
    7  A    between atoms: C_13  and  N_30
    8  A    between atoms: N_17  and  C_22
    9  A    between atoms: N_17  and  C_26
                            x       y       z     vdW  Elec       q    Type
                         _______ _______ _______ _____ _____    ______ ____

>  <TORSDO>
F 9

$$$$
=
 OpenBabel10232408123D

 32 35  0  0  1  0  0  0  0  0999 V2000
  186.7300  178.5800  141.2920 C   0  0  0  0  0  0  0  0  0  0  0  0
  184.5200  179.0320  142.6540 S   0  0  0  0  0  0  0  0  0  0  0  0
  185.4800  179.0060  141.1560 C   0  0  0  0  0  0  0  0  0  0  0  0
  185.7910  177.9870  143.4440 C   0  0  1  0  0  3  0  0  0  0  0  0
  187.0880  178.0790  142.6490 C   0  0  1  0  0  3  0  0  0  0  0  0
  187.6560  176.8210  142.5600 F   0  0  0  0  0  0  0  0  0  0  0  0
  185.9990  178.3690  144.9040 C   0  0  0  0  0  2  0  0  0  0  0  0
  187.1670  177.6980  145.4580 N   0  0  0  0  0  2  0  0  0  0  0  0
  188.9370  176.9170  147.4580 S   0  0  0  0  0  1  0  0  0  0  0  0
  187.4890  177.7640  146.8460 C   0  0  0  0  0  0  0  0  0  0  0  0
  186.7620  178.4140  147.6450 O   0  0  0  0  0  0  0  0  0  0  0  0
  184.9450  179.5380  139.9360 N   0  0  0  0  0  2  0  0  0  0  0  0
  181.6260  179.0370  138.2770 C   0  0  0  0  0  3  0  0  0  0  0  0
  184.0790  177.7620  138.4960 C   0  0  0  0  0  3  0  0  0  0  0  0
  183.0810  177.2190  137.7480 N   0  0  0  0  0  0  0  0  0  0  0  0
  182.6360  179.6090  139.0510 C   0  0  0  0  0  3  0  0  0  0  0  0
  183.8730  178.9640  139.1770 C   0  0  0  0  0  0  0  0  0  0  0  0
  181.8700  177.8250  137.6280 C   0  0  0  0  0  3  0  0  0  0  0  0
  187.6920  178.7160  140.2400 N   0  0  0  0  0  2  0  0  0  0  0  0
  189.0550  177.2460  138.7670 C   0  0  1  0  0  3  0  0  0  0  0  0
  187.6900  177.8860  139.0430 C   0  0  2  0  0  3  0  0  0  0  0  0
  188.6260  178.4900  138.0160 C   0  0  0  0  0  2  0  0  0  0  0  0
  190.1300  177.5970  139.7950 C   0  0  0  0  0  2  0  0  0  0  0  0
  190.3450  176.5020  140.6760 O   0  0  0  0  0  0  0  0  0  0  0  0
  191.1290  177.9140  142.5100 C   0  0  0  0  0  3  0  0  0  0  0  0
  191.5380  178.0280  143.8380 C   0  0  0  0  0  0  0  0  0  0  0  0
  190.7700  176.6570  141.9990 C   0  0  0  0  0  0  0  0  0  0  0  0
  191.9820  176.9720  145.9410 F   0  0  0  0  0  0  0  0  0  0  0  0
  191.2230  175.6530  144.1070 C   0  0  0  0  0  3  0  0  0  0  0  0
  190.8260  175.5650  142.8090 N   0  0  0  0  0  0  0  0  0  0  0  0
  191.5880  176.8890  144.6470 C   0  0  0  0  0  0  0  0  0  0  0  0
  191.9820  179.6010  144.4710 Cl  0  0  0  0  0  0  0  0  0  0  0  0
  1  5  1  0  0  0  0
  2  4  1  0  0  0  0
  3  1  2  0  0  0  0
  3  2  1  0  0  0  0
  4  7  1  1  0  0  0
  5  6  1  6  0  0  0
  5  4  1  0  0  0  0
  7  8  1  0  0  0  0
  8 10  1  0  0  0  0
 10  9  1  0  0  0  0
 10 11  2  0  0  0  0
 12  3  1  0  0  0  0
 13 16  1  0  0  0  0
 14 17  1  0  0  0  0
 15 14  2  0  0  0  0
 16 17  2  0  0  0  0
 17 12  1  0  0  0  0
 18 15  1  0  0  0  0
 18 13  2  0  0  0  0
 19  1  1  0  0  0  0
 20 21  1  0  0  0  0
 20 23  1  1  0  0  0
 21 19  1  1  0  0  0
 22 20  1  0  0  0  0
 22 21  1  0  0  0  0
 23 24  1  0  0  0  0
 24 27  1  0  0  0  0
 25 26  2  0  0  0  0
 26 32  1  0  0  0  0
 26 31  1  0  0  0  0
 27 25  1  0  0  0  0
 27 30  2  0  0  0  0
 29 31  2  0  0  0  0
 30 29  1  0  0  0  0
 31 28  1  0  0  0  0
M  END
>  <MODEL>
5

>  <REMARK>
 VINA RESULT:      -7.6      3.144      6.642
  Name = 
  9 active torsions:
  status: ('A' for Active; 'I' for Inactive)
    1  A    between atoms: C_3  and  O_8
    2  A    between atoms: C_4  and  C_20
    3  A    between atoms: N_5  and  C_9
    4  A    between atoms: C_6  and  N_30
    5  A    between atoms: O_8  and  C_20
    6  A    between atoms: C_9  and  C_23
    7  A    between atoms: C_13  and  N_30
    8  A    between atoms: N_17  and  C_22
    9  A    between atoms: N_17  and  C_26
                            x       y       z     vdW  Elec       q    Type
                         _______ _______ _______ _____ _____    ______ ____

>  <TORSDO>
F 9

$$$$
=
 OpenBabel10232408123D

 32 35  0  0  1  0  0  0  0  0999 V2000
  185.4550  178.6030  140.0320 C   0  0  0  0  0  0  0  0  0  0  0  0
  183.0130  178.4180  141.0030 S   0  0  0  0  0  0  0  0  0  0  0  0
  184.7090  178.9500  141.0740 C   0  0  0  0  0  0  0  0  0  0  0  0
  183.2370  178.0610  139.2270 C   0  0  1  0  0  3  0  0  0  0  0  0
  184.7240  177.9340  138.9190 C   0  0  1  0  0  3  0  0  0  0  0  0
  184.9960  178.5660  137.7190 F   0  0  0  0  0  0  0  0  0  0  0  0
  182.4680  176.8150  138.8070 C   0  0  0  0  0  2  0  0  0  0  0  0
  183.3650  175.6800  138.6370 N   0  0  0  0  0  2  0  0  0  0  0  0
  184.4430  173.4670  137.3410 S   0  0  0  0  0  1  0  0  0  0  0  0
  183.3120  174.8420  137.4840 C   0  0  0  0  0  0  0  0  0  0  0  0
  182.4770  175.0610  136.5670 O   0  0  0  0  0  0  0  0  0  0  0  0
  185.2260  179.5910  142.2490 N   0  0  0  0  0  2  0  0  0  0  0  0
  185.7790  177.9340  145.5600 C   0  0  0  0  0  3  0  0  0  0  0  0
  183.9120  179.5600  144.3100 C   0  0  0  0  0  3  0  0  0  0  0  0
  183.7310  179.1630  145.5990 N   0  0  0  0  0  0  0  0  0  0  0  0
  185.9810  178.3290  144.2380 C   0  0  0  0  0  3  0  0  0  0  0  0
  185.0360  179.1390  143.5950 C   0  0  0  0  0  0  0  0  0  0  0  0
  184.6320  178.3640  146.2310 C   0  0  0  0  0  3  0  0  0  0  0  0
  186.8790  178.7510  140.0410 N   0  0  0  0  0  2  0  0  0  0  0  0
  188.9260  177.3360  140.0050 C   0  0  1  0  0  3  0  0  0  0  0  0
  187.7710  177.9540  139.2080 C   0  0  2  0  0  3  0  0  0  0  0  0
  189.1430  178.5950  139.1900 C   0  0  0  0  0  2  0  0  0  0  0  0
  188.9070  177.6710  141.4950 C   0  0  0  0  0  2  0  0  0  0  0  0
  189.3120  176.5400  142.2580 O   0  0  0  0  0  0  0  0  0  0  0  0
  189.2220  177.2360  144.5990 C   0  0  0  0  0  2  0  0  0  0  0  0
  189.8390  177.3100  145.8480 C   0  0  0  0  0  0  0  0  0  0  0  0
  189.8990  176.6430  143.5230 C   0  0  0  0  0  0  0  0  0  0  0  0
  191.7500  176.8530  147.2160 F   0  0  0  0  0  0  0  0  0  0  0  0
  191.7740  176.2100  144.9220 C   0  0  0  0  0  2  0  0  0  0  0  0
  191.1520  176.1470  143.7140 N   0  0  0  0  0  0  0  0  0  0  0  0
  191.1270  176.7940  146.0140 C   0  0  0  0  0  0  0  0  0  0  0  0
  188.9850  178.0480  147.1880 Cl  0  0  0  0  0  0  0  0  0  0  0  0
  1 19  1  0  0  0  0
  1  3  2  0  0  0  0
  2  3  1  0  0  0  0
  3 12  1  0  0  0  0
  4  7  1  1  0  0  0
  4  2  1  0  0  0  0
  5  6  1  6  0  0  0
  5  4  1  0  0  0  0
  5  1  1  0  0  0  0
  8  7  1  0  0  0  0
  9 10  1  0  0  0  0
 10  8  1  0  0  0  0
 11 10  2  0  0  0  0
 12 17  1  0  0  0  0
 13 18  1  0  0  0  0
 14 15  1  0  0  0  0
 15 18  2  0  0  0  0
 16 13  2  0  0  0  0
 17 16  1  0  0  0  0
 17 14  2  0  0  0  0
 20 23  1  1  0  0  0
 21 20  1  0  0  0  0
 21 19  1  1  0  0  0
 22 21  1  0  0  0  0
 22 20  1  0  0  0  0
 23 24  1  0  0  0  0
 24 27  1  0  0  0  0
 25 26  1  0  0  0  0
 26 31  2  0  0  0  0
 26 32  1  0  0  0  0
 27 30  2  0  0  0  0
 27 25  1  0  0  0  0
 29 31  1  0  0  0  0
 30 29  1  0  0  0  0
 31 28  1  0  0  0  0
M  END
>  <MODEL>
6

>  <REMARK>
 VINA RESULT:      -7.6      3.603      6.477
  Name = 
  9 active torsions:
  status: ('A' for Active; 'I' for Inactive)
    1  A    between atoms: C_3  and  O_8
    2  A    between atoms: C_4  and  C_20
    3  A    between atoms: N_5  and  C_9
    4  A    between atoms: C_6  and  N_30
    5  A    between atoms: O_8  and  C_20
    6  A    between atoms: C_9  and  C_23
    7  A    between atoms: C_13  and  N_30
    8  A    between atoms: N_17  and  C_22
    9  A    between atoms: N_17  and  C_26
                            x       y       z     vdW  Elec       q    Type
                         _______ _______ _______ _____ _____    ______ ____

>  <TORSDO>
F 9

$$$$
=
 OpenBabel10232408123D

 32 35  0  0  1  0  0  0  0  0999 V2000
  186.9540  178.4630  140.5850 C   0  0  0  0  0  0  0  0  0  0  0  0
  184.3600  178.9170  140.5140 S   0  0  0  0  0  0  0  0  0  0  0  0
  185.9430  178.6570  139.7470 C   0  0  0  0  0  0  0  0  0  0  0  0
  185.0580  178.2970  142.0830 C   0  0  1  0  0  3  0  0  0  0  0  0
  186.5800  178.3740  142.0250 C   0  0  1  0  0  3  0  0  0  0  0  0
  187.1140  177.2290  142.5880 F   0  0  0  0  0  0  0  0  0  0  0  0
  184.5030  179.0570  143.2810 C   0  0  0  0  0  2  0  0  0  0  0  0
  185.3950  178.9480  144.4270 N   0  0  0  0  0  2  0  0  0  0  0  0
  186.0500  178.6870  147.1190 S   0  0  0  0  0  1  0  0  0  0  0  0
  184.9000  178.8160  145.7590 C   0  0  0  0  0  0  0  0  0  0  0  0
  183.6610  178.7910  145.9850 O   0  0  0  0  0  0  0  0  0  0  0  0
  186.0960  178.7840  138.3260 N   0  0  0  0  0  2  0  0  0  0  0  0
  187.2570  176.3890  135.6920 C   0  0  0  0  0  3  0  0  0  0  0  0
  185.0650  176.7980  137.3410 C   0  0  0  0  0  3  0  0  0  0  0  0
  185.0970  175.7440  136.4810 N   0  0  0  0  0  0  0  0  0  0  0  0
  187.2420  177.4760  136.5660 C   0  0  0  0  0  3  0  0  0  0  0  0
  186.1320  177.6970  137.3920 C   0  0  0  0  0  0  0  0  0  0  0  0
  186.1600  175.5250  135.6620 C   0  0  0  0  0  3  0  0  0  0  0  0
  188.3150  178.4700  140.1400 N   0  0  0  0  0  2  0  0  0  0  0  0
  190.1350  176.8340  140.5890 C   0  0  1  0  0  3  0  0  0  0  0  0
  189.0040  177.2810  139.6560 C   0  0  2  0  0  3  0  0  0  0  0  0
  190.4430  177.6320  139.3380 C   0  0  0  0  0  2  0  0  0  0  0  0
  190.3070  177.7110  141.8280 C   0  0  0  0  0  2  0  0  0  0  0  0
  191.0720  177.0270  142.8130 O   0  0  0  0  0  0  0  0  0  0  0  0
  191.6080  176.4640  145.1300 C   0  0  0  0  0  2  0  0  0  0  0  0
  191.2830  176.5440  146.4850 C   0  0  0  0  0  0  0  0  0  0  0  0
  190.7770  177.0760  144.1800 C   0  0  0  0  0  0  0  0  0  0  0  0
  189.7940  177.3250  148.1900 F   0  0  0  0  0  0  0  0  0  0  0  0
  189.3270  177.8290  145.9080 C   0  0  0  0  0  2  0  0  0  0  0  0
  189.6630  177.7400  144.5930 N   0  0  0  0  0  0  0  0  0  0  0  0
  190.1330  177.2320  146.8810 C   0  0  0  0  0  0  0  0  0  0  0  0
  192.3280  175.7820  147.6670 Cl  0  0  0  0  0  0  0  0  0  0  0  0
  1  5  1  0  0  0  0
  2  4  1  0  0  0  0
  3  2  1  0  0  0  0
  3  1  2  0  0  0  0
  4  7  1  1  0  0  0
  5  4  1  0  0  0  0
  5  6  1  6  0  0  0
  7  8  1  0  0  0  0
  8 10  1  0  0  0  0
 10 11  2  0  0  0  0
 10  9  1  0  0  0  0
 12  3  1  0  0  0  0
 13 16  1  0  0  0  0
 14 17  1  0  0  0  0
 15 14  2  0  0  0  0
 16 17  2  0  0  0  0
 17 12  1  0  0  0  0
 18 13  2  0  0  0  0
 18 15  1  0  0  0  0
 19  1  1  0  0  0  0
 20 23  1  1  0  0  0
 21 19  1  1  0  0  0
 21 20  1  0  0  0  0
 22 21  1  0  0  0  0
 22 20  1  0  0  0  0
 23 24  1  0  0  0  0
 24 27  1  0  0  0  0
 25 26  1  0  0  0  0
 26 31  2  0  0  0  0
 26 32  1  0  0  0  0
 27 30  2  0  0  0  0
 27 25  1  0  0  0  0
 29 31  1  0  0  0  0
 30 29  1  0  0  0  0
 31 28  1  0  0  0  0
M  END
>  <MODEL>
7

>  <REMARK>
 VINA RESULT:      -7.6      3.510      4.761
  Name = 
  9 active torsions:
  status: ('A' for Active; 'I' for Inactive)
    1  A    between atoms: C_3  and  O_8
    2  A    between atoms: C_4  and  C_20
    3  A    between atoms: N_5  and  C_9
    4  A    between atoms: C_6  and  N_30
    5  A    between atoms: O_8  and  C_20
    6  A    between atoms: C_9  and  C_23
    7  A    between atoms: C_13  and  N_30
    8  A    between atoms: N_17  and  C_22
    9  A    between atoms: N_17  and  C_26
                            x       y       z     vdW  Elec       q    Type
                         _______ _______ _______ _____ _____    ______ ____

>  <TORSDO>
F 9

$$$$
=
 OpenBabel10232408123D

 32 35  0  0  1  0  0  0  0  0999 V2000
  189.0560  177.6030  139.5540 C   0  0  0  0  0  0  0  0  0  0  0  0
  186.9260  177.7710  138.0120 S   0  0  0  0  0  0  0  0  0  0  0  0
  187.8740  178.1980  139.4560 C   0  0  0  0  0  0  0  0  0  0  0  0
  188.4350  177.0500  137.2790 C   0  0  1  0  0  3  0  0  0  0  0  0
  189.4500  176.7700  138.3820 C   0  0  1  0  0  3  0  0  0  0  0  0
  190.7110  177.1290  137.9410 F   0  0  0  0  0  0  0  0  0  0  0  0
  188.1210  175.7960  136.4740 C   0  0  0  0  0  2  0  0  0  0  0  0
  186.8680  175.1950  136.9110 N   0  0  0  0  0  2  0  0  0  0  0  0
  185.1380  173.1130  137.5520 S   0  0  0  0  0  1  0  0  0  0  0  0
  186.7020  173.7820  137.0070 C   0  0  0  0  0  0  0  0  0  0  0  0
  187.6450  173.0010  136.7120 O   0  0  0  0  0  0  0  0  0  0  0  0
  187.3100  179.0280  140.4810 N   0  0  0  0  0  2  0  0  0  0  0  0
  184.8410  178.1200  143.1440 C   0  0  0  0  0  3  0  0  0  0  0  0
  184.8660  179.0530  140.5330 C   0  0  0  0  0  3  0  0  0  0  0  0
  183.6880  178.8490  141.1840 N   0  0  0  0  0  0  0  0  0  0  0  0
  186.0580  178.3210  142.4930 C   0  0  0  0  0  3  0  0  0  0  0  0
  186.0780  178.7790  141.1700 C   0  0  0  0  0  0  0  0  0  0  0  0
  183.6520  178.3900  142.4640 C   0  0  0  0  0  3  0  0  0  0  0  0
  189.8320  177.6590  140.7560 N   0  0  0  0  0  2  0  0  0  0  0  0
  191.0740  176.6060  142.6360 C   0  0  1  0  0  3  0  0  0  0  0  0
  190.8040  176.6400  141.1280 C   0  0  2  0  0  3  0  0  0  0  0  0
  192.0360  177.3100  141.7020 C   0  0  0  0  0  2  0  0  0  0  0  0
  190.2740  177.6310  143.4390 C   0  0  0  0  0  2  0  0  0  0  0  0
  189.2110  176.9910  144.1340 O   0  0  0  0  0  0  0  0  0  0  0  0
  187.5030  177.6820  145.7390 C   0  0  0  0  0  3  0  0  0  0  0  0
  187.1610  178.0130  147.0500 C   0  0  0  0  0  0  0  0  0  0  0  0
  188.8280  177.3380  145.4330 C   0  0  0  0  0  0  0  0  0  0  0  0
  187.8360  178.3190  149.3270 F   0  0  0  0  0  0  0  0  0  0  0  0
  189.4520  177.6540  147.7070 C   0  0  0  0  0  3  0  0  0  0  0  0
  189.7630  177.3330  146.4220 N   0  0  0  0  0  0  0  0  0  0  0  0
  188.1420  178.0010  148.0450 C   0  0  0  0  0  0  0  0  0  0  0  0
  185.5020  178.4370  147.4260 Cl  0  0  0  0  0  0  0  0  0  0  0  0
  1 19  1  0  0  0  0
  2  3  1  0  0  0  0
  3  1  2  0  0  0  0
  3 12  1  0  0  0  0
  4  7  1  1  0  0  0
  4  2  1  0  0  0  0
  4  5  1  0  0  0  0
  5  6  1  6  0  0  0
  5  1  1  0  0  0  0
  7  8  1  0  0  0  0
  8 10  1  0  0  0  0
 10  9  1  0  0  0  0
 11 10  2  0  0  0  0
 12 17  1  0  0  0  0
 14 17  1  0  0  0  0
 14 15  2  0  0  0  0
 15 18  1  0  0  0  0
 16 13  1  0  0  0  0
 17 16  2  0  0  0  0
 18 13  2  0  0  0  0
 20 23  1  1  0  0  0
 21 19  1  1  0  0  0
 21 22  1  0  0  0  0
 21 20  1  0  0  0  0
 22 20  1  0  0  0  0
 23 24  1  0  0  0  0
 24 27  1  0  0  0  0
 25 26  2  0  0  0  0
 26 32  1  0  0  0  0
 26 31  1  0  0  0  0
 27 25  1  0  0  0  0
 27 30  2  0  0  0  0
 29 31  2  0  0  0  0
 30 29  1  0  0  0  0
 31 28  1  0  0  0  0
M  END
>  <MODEL>
8

>  <REMARK>
 VINA RESULT:      -7.5      2.894      5.135
  Name = 
  9 active torsions:
  status: ('A' for Active; 'I' for Inactive)
    1  A    between atoms: C_3  and  O_8
    2  A    between atoms: C_4  and  C_20
    3  A    between atoms: N_5  and  C_9
    4  A    between atoms: C_6  and  N_30
    5  A    between atoms: O_8  and  C_20
    6  A    between atoms: C_9  and  C_23
    7  A    between atoms: C_13  and  N_30
    8  A    between atoms: N_17  and  C_22
    9  A    between atoms: N_17  and  C_26
                            x       y       z     vdW  Elec       q    Type
                         _______ _______ _______ _____ _____    ______ ____

>  <TORSDO>
F 9

$$$$
=
 OpenBabel10232408123D

 32 35  0  0  1  0  0  0  0  0999 V2000
  187.5570  177.6560  142.6730 C   0  0  0  0  0  0  0  0  0  0  0  0
  185.1010  178.3360  143.3430 S   0  0  0  0  0  0  0  0  0  0  0  0
  186.6840  177.5930  143.6710 C   0  0  0  0  0  0  0  0  0  0  0  0
  185.8320  179.1640  141.8890 C   0  0  1  0  0  3  0  0  0  0  0  0
  187.1150  178.4450  141.4880 C   0  0  1  0  0  3  0  0  0  0  0  0
  188.0750  179.3820  141.1520 F   0  0  0  0  0  0  0  0  0  0  0  0
  184.8440  179.2350  140.7320 C   0  0  0  0  0  2  0  0  0  0  0  0
  184.2420  177.9330  140.4780 N   0  0  0  0  0  2  0  0  0  0  0  0
  182.2770  176.1720  139.5960 S   0  0  0  0  0  1  0  0  0  0  0  0
  182.9550  177.8000  139.8780 C   0  0  0  0  0  0  0  0  0  0  0  0
  182.2920  178.8180  139.5450 O   0  0  0  0  0  0  0  0  0  0  0  0
  186.9150  176.8720  144.8900 N   0  0  0  0  0  2  0  0  0  0  0  0
  187.5130  178.5060  148.2050 C   0  0  0  0  0  3  0  0  0  0  0  0
  188.9430  177.2090  146.2130 C   0  0  0  0  0  3  0  0  0  0  0  0
  189.5720  177.6740  147.3270 N   0  0  0  0  0  0  0  0  0  0  0  0
  186.8500  178.0390  147.0700 C   0  0  0  0  0  3  0  0  0  0  0  0
  187.5680  177.3950  146.0540 C   0  0  0  0  0  0  0  0  0  0  0  0
  188.8920  178.3150  148.3140 C   0  0  0  0  0  3  0  0  0  0  0  0
  188.7800  176.9120  142.6920 N   0  0  0  0  0  2  0  0  0  0  0  0
  191.0390  177.5110  141.8380 C   0  0  1  0  0  3  0  0  0  0  0  0
  190.0700  177.5010  143.0260 C   0  0  2  0  0  3  0  0  0  0  0  0
  191.1480  176.4430  142.9080 C   0  0  0  0  0  2  0  0  0  0  0  0
  190.4620  176.9130  140.5560 C   0  0  0  0  0  2  0  0  0  0  0  0
  190.3000  177.9270  139.5700 O   0  0  0  0  0  0  0  0  0  0  0  0
  188.6170  176.7010  138.2900 C   0  0  0  0  0  2  0  0  0  0  0  0
  187.6210  176.7070  137.3140 C   0  0  0  0  0  0  0  0  0  0  0  0
  189.3010  177.8880  138.5920 C   0  0  0  0  0  0  0  0  0  0  0  0
  186.3510  177.9300  135.6930 F   0  0  0  0  0  0  0  0  0  0  0  0
  188.0150  179.0600  136.9710 C   0  0  0  0  0  2  0  0  0  0  0  0
  188.9820  179.0320  137.9270 N   0  0  0  0  0  0  0  0  0  0  0  0
  187.3150  177.8960  136.6460 C   0  0  0  0  0  0  0  0  0  0  0  0
  186.7670  175.2220  136.9460 Cl  0  0  0  0  0  0  0  0  0  0  0  0
  1 19  1  0  0  0  0
  1  3  2  0  0  0  0
  2  3  1  0  0  0  0
  3 12  1  0  0  0  0
  4  7  1  6  0  0  0
  4  2  1  0  0  0  0
  5  6  1  1  0  0  0
  5  4  1  0  0  0  0
  5  1  1  0  0  0  0
  8  7  1  0  0  0  0
  9 10  1  0  0  0  0
 10  8  1  0  0  0  0
 11 10  2  0  0  0  0
 12 17  1  0  0  0  0
 13 18  1  0  0  0  0
 14 15  1  0  0  0  0
 15 18  2  0  0  0  0
 16 13  2  0  0  0  0
 17 14  2  0  0  0  0
 17 16  1  0  0  0  0
 20 23  1  6  0  0  0
 20 22  1  0  0  0  0
 20 21  1  0  0  0  0
 21 19  1  6  0  0  0
 22 21  1  0  0  0  0
 24 23  1  0  0  0  0
 25 27  1  0  0  0  0
 26 25  1  0  0  0  0
 27 24  1  0  0  0  0
 28 31  1  0  0  0  0
 29 30  1  0  0  0  0
 30 27  2  0  0  0  0
 31 29  1  0  0  0  0
 31 26  2  0  0  0  0
 32 26  1  0  0  0  0
M  END
>  <MODEL>
9

>  <REMARK>
 VINA RESULT:      -7.4      3.249      7.172
  Name = 
  9 active torsions:
  status: ('A' for Active; 'I' for Inactive)
    1  A    between atoms: C_3  and  O_8
    2  A    between atoms: C_4  and  C_20
    3  A    between atoms: N_5  and  C_9
    4  A    between atoms: C_6  and  N_30
    5  A    between atoms: O_8  and  C_20
    6  A    between atoms: C_9  and  C_23
    7  A    between atoms: C_13  and  N_30
    8  A    between atoms: N_17  and  C_22
    9  A    between atoms: N_17  and  C_26
                            x       y       z     vdW  Elec       q    Type
                         _______ _______ _______ _____ _____    ______ ____

>  <TORSDO>
F 9

$$$$
