=
 OpenBabel10232408513D

 25 27  0  0  1  0  0  0  0  0999 V2000
  187.1430  177.8400  145.0800 C   0  0  0  0  0  0  0  0  0  0  0  0
  186.6600  177.8720  143.9170 O   0  0  0  0  0  0  0  0  0  0  0  0
  189.4730  177.1840  144.3140 N   0  0  0  0  0  0  0  0  0  0  0  0
  189.0170  177.4820  146.6680 C   0  0  0  0  0  0  0  0  0  0  0  0
  188.5790  177.4910  145.3260 C   0  0  0  0  0  0  0  0  0  0  0  0
  188.4500  177.8070  148.9560 O   0  0  0  0  0  0  0  0  0  0  0  0
  186.7150  178.1340  147.4440 N   0  0  0  0  0  0  0  0  0  0  0  0
  191.6090  176.5840  143.7120 O   0  0  0  0  0  0  0  0  0  0  0  0
  188.0730  177.8090  147.7540 C   0  0  0  0  0  0  0  0  0  0  0  0
  190.7800  176.8680  144.6200 C   0  0  0  0  0  0  0  0  0  0  0  0
  190.3380  177.1610  146.9630 C   0  0  0  0  0  3  0  0  0  0  0  0
  184.8300  178.5030  146.0000 C   0  0  0  0  0  1  0  0  0  0  0  0
  186.2600  178.1550  146.2270 C   0  0  0  0  0  0  0  0  0  0  0  0
  191.2210  176.8540  145.9390 C   0  0  0  0  0  3  0  0  0  0  0  0
  189.7480  176.1610  142.0600 C   0  0  0  0  0  2  0  0  0  0  0  0
  190.1720  176.8780  140.7880 C   0  0  2  0  0  3  0  0  0  0  0  0
  189.2220  178.5460  142.2490 C   0  0  0  0  0  2  0  0  0  0  0  0
  189.0280  177.1960  142.9100 C   0  0  2  0  0  3  0  0  0  0  0  0
  189.4770  178.2260  140.7950 C   0  0  0  0  0  2  0  0  0  0  0  0
  189.7550  176.1160  139.6220 N   0  0  0  0  0  2  0  0  0  0  0  0
  191.0770  176.0900  138.5010 S   0  0  0  0  0  0  0  0  0  0  0  0
  192.2540  176.8220  139.0820 O   0  0  0  0  0  0  0  0  0  0  0  0
  191.4690  174.6690  138.2060 O   0  0  0  0  0  0  0  0  0  0  0  0
  189.4140  177.8130  137.2430 C   0  0  0  0  0  1  0  0  0  0  0  0
  190.5800  176.8800  136.9850 C   0  0  0  0  0  2  0  0  0  0  0  0
  1  5  1  0  0  0  0
  1 13  1  0  0  0  0
  2  1  2  0  0  0  0
  3 10  1  0  0  0  0
  3  5  1  0  0  0  0
  4 11  1  0  0  0  0
  4  9  1  0  0  0  0
  5  4  2  0  0  0  0
  7  9  1  0  0  0  0
  8 10  2  0  0  0  0
  9  6  2  0  0  0  0
 10 14  1  0  0  0  0
 12 13  1  0  0  0  0
 13  7  2  0  0  0  0
 14 11  2  0  0  0  0
 16 20  1  6  0  0  0
 16 19  1  0  0  0  0
 16 15  1  0  0  0  0
 17 18  1  0  0  0  0
 18 15  1  6  0  0  0
 18  3  1  0  0  0  0
 19 17  1  0  0  0  0
 21 22  2  0  0  0  0
 21 20  1  0  0  0  0
 23 21  2  0  0  0  0
 25 24  1  0  0  0  0
 25 21  1  0  0  0  0
M  END
>  <MODEL>
1

>  <REMARK>
 VINA RESULT:      -8.0      0.000      0.000
  Name = 
  4 active torsions:
  status: ('A' for Active; 'I' for Inactive)
    1  A    between atoms: S_1  and  N_7
    2  A    between atoms: S_1  and  C_25
    3  A    between atoms: C_5  and  N_7
    4  A    between atoms: C_8  and  N_11
                            x       y       z     vdW  Elec       q    Type
                         _______ _______ _______ _____ _____    ______ ____

>  <TORSDO>
F 4

$$$$
=
 OpenBabel10232408513D

 25 27  0  0  1  0  0  0  0  0999 V2000
  190.0730  177.1450  145.6190 C   0  0  0  0  0  0  0  0  0  0  0  0
  190.9400  177.0350  144.7120 O   0  0  0  0  0  0  0  0  0  0  0  0
  188.1750  177.6870  144.0230 N   0  0  0  0  0  0  0  0  0  0  0  0
  187.7580  177.5820  146.4000 C   0  0  0  0  0  0  0  0  0  0  0  0
  188.6460  177.4790  145.3080 C   0  0  0  0  0  0  0  0  0  0  0  0
  187.4670  177.4460  148.7570 O   0  0  0  0  0  0  0  0  0  0  0  0
  189.6260  177.0430  147.9960 N   0  0  0  0  0  0  0  0  0  0  0  0
  186.4000  178.1910  142.6520 O   0  0  0  0  0  0  0  0  0  0  0  0
  188.2490  177.3600  147.7740 C   0  0  0  0  0  0  0  0  0  0  0  0
  186.8480  177.9960  143.8160 C   0  0  0  0  0  0  0  0  0  0  0  0
  186.4200  177.8940  146.1780 C   0  0  0  0  0  3  0  0  0  0  0  0
  191.9000  176.6060  147.3540 C   0  0  0  0  0  1  0  0  0  0  0  0
  190.4860  176.9390  147.0270 C   0  0  0  0  0  0  0  0  0  0  0  0
  185.9640  178.1020  144.8850 C   0  0  0  0  0  3  0  0  0  0  0  0
  188.7530  178.5530  141.7600 C   0  0  0  0  0  2  0  0  0  0  0  0
  188.7920  177.7510  140.4690 C   0  0  2  0  0  3  0  0  0  0  0  0
  189.1120  176.1860  142.2760 C   0  0  0  0  0  2  0  0  0  0  0  0
  189.0930  177.5780  142.8760 C   0  0  2  0  0  3  0  0  0  0  0  0
  189.4020  176.4050  140.8100 C   0  0  0  0  0  2  0  0  0  0  0  0
  189.6190  178.4300  139.4840 N   0  0  0  0  0  2  0  0  0  0  0  0
  188.7240  178.5140  138.0020 S   0  0  0  0  0  0  0  0  0  0  0  0
  187.2550  178.3560  138.2830 O   0  0  0  0  0  0  0  0  0  0  0  0
  188.9630  179.8400  137.3360 O   0  0  0  0  0  0  0  0  0  0  0  0
  190.6460  176.7430  137.3100 C   0  0  0  0  0  1  0  0  0  0  0  0
  189.2610  177.2130  136.9130 C   0  0  0  0  0  2  0  0  0  0  0  0
  1 13  1  0  0  0  0
  2  1  2  0  0  0  0
  3  5  1  0  0  0  0
  4  9  1  0  0  0  0
  5  1  1  0  0  0  0
  5  4  2  0  0  0  0
  8 10  2  0  0  0  0
  9  7  1  0  0  0  0
  9  6  2  0  0  0  0
 10  3  1  0  0  0  0
 10 14  1  0  0  0  0
 11  4  1  0  0  0  0
 13 12  1  0  0  0  0
 13  7  2  0  0  0  0
 14 11  2  0  0  0  0
 16 20  1  6  0  0  0
 16 19  1  0  0  0  0
 16 15  1  0  0  0  0
 17 18  1  0  0  0  0
 18 15  1  6  0  0  0
 18  3  1  0  0  0  0
 19 17  1  0  0  0  0
 21 22  2  0  0  0  0
 21 20  1  0  0  0  0
 23 21  2  0  0  0  0
 25 24  1  0  0  0  0
 25 21  1  0  0  0  0
M  END
>  <MODEL>
2

>  <REMARK>
 VINA RESULT:      -7.9      2.006      3.558
  Name = 
  4 active torsions:
  status: ('A' for Active; 'I' for Inactive)
    1  A    between atoms: S_1  and  N_7
    2  A    between atoms: S_1  and  C_25
    3  A    between atoms: C_5  and  N_7
    4  A    between atoms: C_8  and  N_11
                            x       y       z     vdW  Elec       q    Type
                         _______ _______ _______ _____ _____    ______ ____

>  <TORSDO>
F 4

$$$$
=
 OpenBabel10232408513D

 25 27  0  0  1  0  0  0  0  0999 V2000
  188.0180  177.8900  145.8410 C   0  0  0  0  0  0  0  0  0  0  0  0
  189.2390  177.6400  145.6600 O   0  0  0  0  0  0  0  0  0  0  0  0
  187.4510  177.9370  143.3670 N   0  0  0  0  0  0  0  0  0  0  0  0
  185.7230  178.3340  145.0080 C   0  0  0  0  0  0  0  0  0  0  0  0
  187.0690  178.0510  144.6930 C   0  0  0  0  0  0  0  0  0  0  0  0
  184.1060  178.7050  146.7130 O   0  0  0  0  0  0  0  0  0  0  0  0
  186.2670  178.2890  147.4630 N   0  0  0  0  0  0  0  0  0  0  0  0
  186.8490  178.0040  141.1500 O   0  0  0  0  0  0  0  0  0  0  0  0
  185.3040  178.4560  146.4170 C   0  0  0  0  0  0  0  0  0  0  0  0
  186.5200  178.1030  142.3640 C   0  0  0  0  0  0  0  0  0  0  0  0
  184.7930  178.4990  143.9860 C   0  0  0  0  0  3  0  0  0  0  0  0
  188.4480  177.8730  148.3820 C   0  0  0  0  0  1  0  0  0  0  0  0
  187.5180  178.0300  147.2290 C   0  0  0  0  0  0  0  0  0  0  0  0
  185.1910  178.3840  142.6630 C   0  0  0  0  0  3  0  0  0  0  0  0
  189.2110  178.0450  141.6080 C   0  0  0  0  0  2  0  0  0  0  0  0
  189.9580  176.8670  141.0030 C   0  0  2  0  0  3  0  0  0  0  0  0
  189.1870  176.1660  143.1780 C   0  0  0  0  0  2  0  0  0  0  0  0
  188.8530  177.6370  143.0280 C   0  0  2  0  0  3  0  0  0  0  0  0
  190.2530  175.9080  142.1400 C   0  0  0  0  0  2  0  0  0  0  0  0
  191.2040  177.3190  140.4050 N   0  0  0  0  0  2  0  0  0  0  0  0
  191.2680  176.7140  138.7820 S   0  0  0  0  0  0  0  0  0  0  0  0
  192.6510  176.8950  138.2230 O   0  0  0  0  0  0  0  0  0  0  0  0
  190.9120  175.2530  138.7690 O   0  0  0  0  0  0  0  0  0  0  0  0
  189.7840  176.8100  136.5240 C   0  0  0  0  0  1  0  0  0  0  0  0
  190.1000  177.6030  137.7750 C   0  0  0  0  0  2  0  0  0  0  0  0
  1 13  1  0  0  0  0
  2  1  2  0  0  0  0
  3  5  1  0  0  0  0
  4  9  1  0  0  0  0
  5  4  2  0  0  0  0
  5  1  1  0  0  0  0
  8 10  2  0  0  0  0
  9  6  2  0  0  0  0
  9  7  1  0  0  0  0
 10 14  1  0  0  0  0
 10  3  1  0  0  0  0
 11  4  1  0  0  0  0
 13  7  2  0  0  0  0
 13 12  1  0  0  0  0
 14 11  2  0  0  0  0
 16 20  1  1  0  0  0
 16 15  1  0  0  0  0
 16 19  1  0  0  0  0
 18 15  1  6  0  0  0
 18 17  1  0  0  0  0
 18  3  1  0  0  0  0
 19 17  1  0  0  0  0
 21 20  1  0  0  0  0
 22 21  2  0  0  0  0
 23 21  2  0  0  0  0
 24 25  1  0  0  0  0
 25 21  1  0  0  0  0
M  END
>  <MODEL>
3

>  <REMARK>
 VINA RESULT:      -7.6      1.728      3.260
  Name = 
  4 active torsions:
  status: ('A' for Active; 'I' for Inactive)
    1  A    between atoms: S_1  and  N_7
    2  A    between atoms: S_1  and  C_25
    3  A    between atoms: C_5  and  N_7
    4  A    between atoms: C_8  and  N_11
                            x       y       z     vdW  Elec       q    Type
                         _______ _______ _______ _____ _____    ______ ____

>  <TORSDO>
F 4

$$$$
=
 OpenBabel10232408513D

 25 27  0  0  1  0  0  0  0  0999 V2000
  183.7970  178.2790  141.2390 C   0  0  0  0  0  0  0  0  0  0  0  0
  184.7230  177.8950  140.4760 O   0  0  0  0  0  0  0  0  0  0  0  0
  185.2250  178.2300  143.3370 N   0  0  0  0  0  0  0  0  0  0  0  0
  182.9060  178.8920  143.4720 C   0  0  0  0  0  0  0  0  0  0  0  0
  184.0130  178.4610  142.7100 C   0  0  0  0  0  0  0  0  0  0  0  0
  180.6140  179.5310  143.4820 O   0  0  0  0  0  0  0  0  0  0  0  0
  181.4770  178.9490  141.4040 N   0  0  0  0  0  0  0  0  0  0  0  0
  186.4420  178.2070  145.2870 O   0  0  0  0  0  0  0  0  0  0  0  0
  181.6090  179.1440  142.8150 C   0  0  0  0  0  0  0  0  0  0  0  0
  185.3460  178.4150  144.6970 C   0  0  0  0  0  0  0  0  0  0  0  0
  183.0400  179.0760  144.8450 C   0  0  0  0  0  3  0  0  0  0  0  0
  182.2310  178.3760  139.1950 C   0  0  0  0  0  1  0  0  0  0  0  0
  182.4630  178.5530  140.6550 C   0  0  0  0  0  0  0  0  0  0  0  0
  184.2610  178.8370  145.4590 C   0  0  0  0  0  3  0  0  0  0  0  0
  187.3220  176.8850  143.3430 C   0  0  0  0  0  2  0  0  0  0  0  0
  188.7280  177.4030  143.0880 C   0  0  2  0  0  3  0  0  0  0  0  0
  187.2100  178.9420  142.0190 C   0  0  0  0  0  2  0  0  0  0  0  0
  186.3880  177.7840  142.5490 C   0  0  2  0  0  3  0  0  0  0  0  0
  188.6230  178.4130  141.9610 C   0  0  0  0  0  2  0  0  0  0  0  0
  189.5990  176.3090  142.6880 N   0  0  0  0  0  2  0  0  0  0  0  0
  191.2020  176.6750  143.2380 S   0  0  0  0  0  0  0  0  0  0  0  0
  191.8730  175.4210  143.7240 O   0  0  0  0  0  0  0  0  0  0  0  0
  192.0050  177.2660  142.1120 O   0  0  0  0  0  0  0  0  0  0  0  0
  191.6060  179.2070  144.0960 C   0  0  0  0  0  1  0  0  0  0  0  0
  191.1150  177.8540  144.5680 C   0  0  0  0  0  2  0  0  0  0  0  0
  1  5  1  0  0  0  0
  2  1  2  0  0  0  0
  3 10  1  0  0  0  0
  4 11  1  0  0  0  0
  5  3  1  0  0  0  0
  5  4  2  0  0  0  0
  7  9  1  0  0  0  0
  9  4  1  0  0  0  0
  9  6  2  0  0  0  0
 10  8  2  0  0  0  0
 10 14  1  0  0  0  0
 11 14  2  0  0  0  0
 12 13  1  0  0  0  0
 13  1  1  0  0  0  0
 13  7  2  0  0  0  0
 16 20  1  6  0  0  0
 16 15  1  0  0  0  0
 18 17  1  1  0  0  0
 18  3  1  0  0  0  0
 18 15  1  0  0  0  0
 19 17  1  0  0  0  0
 19 16  1  0  0  0  0
 20 21  1  0  0  0  0
 21 22  2  0  0  0  0
 21 25  1  0  0  0  0
 23 21  2  0  0  0  0
 24 25  1  0  0  0  0
M  END
>  <MODEL>
4

>  <REMARK>
 VINA RESULT:      -7.3      3.771      5.877
  Name = 
  4 active torsions:
  status: ('A' for Active; 'I' for Inactive)
    1  A    between atoms: S_1  and  N_7
    2  A    between atoms: S_1  and  C_25
    3  A    between atoms: C_5  and  N_7
    4  A    between atoms: C_8  and  N_11
                            x       y       z     vdW  Elec       q    Type
                         _______ _______ _______ _____ _____    ______ ____

>  <TORSDO>
F 4

$$$$
=
 OpenBabel10232408513D

 25 27  0  0  1  0  0  0  0  0999 V2000
  187.0160  177.9310  145.0260 C   0  0  0  0  0  0  0  0  0  0  0  0
  186.3350  178.0180  143.9700 O   0  0  0  0  0  0  0  0  0  0  0  0
  189.1990  177.4500  143.8230 N   0  0  0  0  0  0  0  0  0  0  0  0
  189.1520  177.5610  146.2350 C   0  0  0  0  0  0  0  0  0  0  0  0
  188.4860  177.6400  144.9940 C   0  0  0  0  0  0  0  0  0  0  0  0
  188.9840  177.6970  148.6040 O   0  0  0  0  0  0  0  0  0  0  0  0
  186.9990  178.0380  147.4440 N   0  0  0  0  0  0  0  0  0  0  0  0
  191.2170  177.0040  142.8170 O   0  0  0  0  0  0  0  0  0  0  0  0
  188.4020  177.7630  147.4900 C   0  0  0  0  0  0  0  0  0  0  0  0
  190.5500  177.1820  143.8730 C   0  0  0  0  0  0  0  0  0  0  0  0
  190.5160  177.2890  146.2730 C   0  0  0  0  0  3  0  0  0  0  0  0
  184.8760  178.4090  146.3790 C   0  0  0  0  0  1  0  0  0  0  0  0
  186.3370  178.1200  146.3290 C   0  0  0  0  0  0  0  0  0  0  0  0
  191.2170  177.0990  145.0920 C   0  0  0  0  0  3  0  0  0  0  0  0
  189.0550  176.5380  141.5090 C   0  0  0  0  0  2  0  0  0  0  0  0
  189.2620  177.3140  140.2180 C   0  0  2  0  0  3  0  0  0  0  0  0
  188.6130  178.9150  141.9000 C   0  0  0  0  0  2  0  0  0  0  0  0
  188.5140  177.5360  142.5210 C   0  0  2  0  0  3  0  0  0  0  0  0
  188.6030  178.6660  140.4110 C   0  0  0  0  0  2  0  0  0  0  0  0
  188.6330  176.6140  139.1080 N   0  0  0  0  0  2  0  0  0  0  0  0
  189.7550  176.5900  137.7880 S   0  0  0  0  0  0  0  0  0  0  0  0
  189.3280  175.5660  136.7730 O   0  0  0  0  0  0  0  0  0  0  0  0
  189.8070  177.9450  137.1380 O   0  0  0  0  0  0  0  0  0  0  0  0
  192.4230  176.5160  137.3580 C   0  0  0  0  0  1  0  0  0  0  0  0
  191.3750  176.1780  138.3980 C   0  0  0  0  0  2  0  0  0  0  0  0
  1 13  1  0  0  0  0
  2  1  2  0  0  0  0
  3 10  1  0  0  0  0
  3  5  1  0  0  0  0
  4 11  1  0  0  0  0
  4  9  1  0  0  0  0
  5  1  1  0  0  0  0
  5  4  2  0  0  0  0
  7  9  1  0  0  0  0
  8 10  2  0  0  0  0
  9  6  2  0  0  0  0
 10 14  1  0  0  0  0
 13 12  1  0  0  0  0
 13  7  2  0  0  0  0
 14 11  2  0  0  0  0
 16 20  1  6  0  0  0
 16 19  1  0  0  0  0
 16 15  1  0  0  0  0
 17 18  1  0  0  0  0
 18 15  1  6  0  0  0
 18  3  1  0  0  0  0
 19 17  1  0  0  0  0
 21 25  1  0  0  0  0
 21 20  1  0  0  0  0
 22 21  2  0  0  0  0
 23 21  2  0  0  0  0
 24 25  1  0  0  0  0
M  END
>  <MODEL>
5

>  <REMARK>
 VINA RESULT:      -7.3      1.310      1.519
  Name = 
  4 active torsions:
  status: ('A' for Active; 'I' for Inactive)
    1  A    between atoms: S_1  and  N_7
    2  A    between atoms: S_1  and  C_25
    3  A    between atoms: C_5  and  N_7
    4  A    between atoms: C_8  and  N_11
                            x       y       z     vdW  Elec       q    Type
                         _______ _______ _______ _____ _____    ______ ____

>  <TORSDO>
F 4

$$$$
=
 OpenBabel10232408513D

 25 27  0  0  1  0  0  0  0  0999 V2000
  188.8220  178.0040  140.0000 C   0  0  0  0  0  0  0  0  0  0  0  0
  190.0250  177.7310  140.2540 O   0  0  0  0  0  0  0  0  0  0  0  0
  188.0940  177.9970  142.4330 N   0  0  0  0  0  0  0  0  0  0  0  0
  186.4810  178.4520  140.6930 C   0  0  0  0  0  0  0  0  0  0  0  0
  187.8010  178.1470  141.0880 C   0  0  0  0  0  0  0  0  0  0  0  0
  184.9850  178.8900  138.8960 O   0  0  0  0  0  0  0  0  0  0  0  0
  187.1850  178.4650  138.2780 N   0  0  0  0  0  0  0  0  0  0  0  0
  187.3460  178.0040  144.6060 O   0  0  0  0  0  0  0  0  0  0  0  0
  186.1580  178.6160  139.2630 C   0  0  0  0  0  0  0  0  0  0  0  0
  187.0990  178.1390  143.3760 C   0  0  0  0  0  0  0  0  0  0  0  0
  185.4850  178.5930  141.6550 C   0  0  0  0  0  3  0  0  0  0  0  0
  189.4180  178.0440  137.4940 C   0  0  0  0  0  1  0  0  0  0  0  0
  188.4160  178.1840  138.5870 C   0  0  0  0  0  0  0  0  0  0  0  0
  185.7940  178.4370  142.9980 C   0  0  0  0  0  3  0  0  0  0  0  0
  189.5170  176.8790  144.1450 C   0  0  0  0  0  2  0  0  0  0  0  0
  190.5640  177.5440  145.0230 C   0  0  2  0  0  3  0  0  0  0  0  0
  190.3130  178.9270  143.0630 C   0  0  0  0  0  2  0  0  0  0  0  0
  189.4700  177.6830  142.8560 C   0  0  2  0  0  3  0  0  0  0  0  0
  191.2910  178.5490  144.1500 C   0  0  0  0  0  2  0  0  0  0  0  0
  191.5050  176.5520  145.5180 N   0  0  0  0  0  2  0  0  0  0  0  0
  191.2150  176.3390  147.2130 S   0  0  0  0  0  0  0  0  0  0  0  0
  191.5800  174.9400  147.6230 O   0  0  0  0  0  0  0  0  0  0  0  0
  192.0410  177.3200  147.9990 O   0  0  0  0  0  0  0  0  0  0  0  0
  189.3210  177.9450  148.2830 C   0  0  0  0  0  1  0  0  0  0  0  0
  189.4920  176.6270  147.5570 C   0  0  0  0  0  2  0  0  0  0  0  0
  1  2  2  0  0  0  0
  1  5  1  0  0  0  0
  3 10  1  0  0  0  0
  4  5  2  0  0  0  0
  4 11  1  0  0  0  0
  5  3  1  0  0  0  0
  6  9  2  0  0  0  0
  7 13  2  0  0  0  0
  7  9  1  0  0  0  0
  9  4  1  0  0  0  0
 10  8  2  0  0  0  0
 11 14  2  0  0  0  0
 12 13  1  0  0  0  0
 13  1  1  0  0  0  0
 14 10  1  0  0  0  0
 15 16  1  0  0  0  0
 16 20  1  6  0  0  0
 17 19  1  0  0  0  0
 18  3  1  1  0  0  0
 18 17  1  0  0  0  0
 18 15  1  0  0  0  0
 19 16  1  0  0  0  0
 20 21  1  0  0  0  0
 21 25  1  0  0  0  0
 21 22  2  0  0  0  0
 21 23  2  0  0  0  0
 25 24  1  0  0  0  0
M  END
>  <MODEL>
6

>  <REMARK>
 VINA RESULT:      -7.3      3.073      7.085
  Name = 
  4 active torsions:
  status: ('A' for Active; 'I' for Inactive)
    1  A    between atoms: S_1  and  N_7
    2  A    between atoms: S_1  and  C_25
    3  A    between atoms: C_5  and  N_7
    4  A    between atoms: C_8  and  N_11
                            x       y       z     vdW  Elec       q    Type
                         _______ _______ _______ _____ _____    ______ ____

>  <TORSDO>
F 4

$$$$
=
 OpenBabel10232408513D

 25 27  0  0  1  0  0  0  0  0999 V2000
  186.0200  178.2190  143.3750 C   0  0  0  0  0  0  0  0  0  0  0  0
  185.7140  178.2450  142.1530 O   0  0  0  0  0  0  0  0  0  0  0  0
  188.4680  177.6910  142.9590 N   0  0  0  0  0  0  0  0  0  0  0  0
  187.6540  177.9270  145.2210 C   0  0  0  0  0  0  0  0  0  0  0  0
  187.4200  177.9360  143.8290 C   0  0  0  0  0  0  0  0  0  0  0  0
  186.7390  178.1870  147.4010 O   0  0  0  0  0  0  0  0  0  0  0  0
  185.2320  178.4520  145.6510 N   0  0  0  0  0  0  0  0  0  0  0  0
  190.6970  177.2060  142.6750 O   0  0  0  0  0  0  0  0  0  0  0  0
  186.5450  178.1900  146.1570 C   0  0  0  0  0  0  0  0  0  0  0  0
  189.7300  177.4340  143.4520 C   0  0  0  0  0  0  0  0  0  0  0  0
  188.9320  177.6670  145.7060 C   0  0  0  0  0  3  0  0  0  0  0  0
  183.5650  178.7530  143.9460 C   0  0  0  0  0  1  0  0  0  0  0  0
  184.9620  178.4710  144.3800 C   0  0  0  0  0  0  0  0  0  0  0  0
  189.9710  177.4200  144.8220 C   0  0  0  0  0  3  0  0  0  0  0  0
  188.9090  176.5390  140.7940 C   0  0  0  0  0  2  0  0  0  0  0  0
  189.6130  177.1300  139.5840 C   0  0  2  0  0  3  0  0  0  0  0  0
  188.7220  178.9800  140.8470 C   0  0  0  0  0  2  0  0  0  0  0  0
  188.2360  177.7030  141.5040 C   0  0  2  0  0  3  0  0  0  0  0  0
  189.1330  178.5620  139.4560 C   0  0  0  0  0  2  0  0  0  0  0  0
  189.2600  176.3840  138.3860 N   0  0  0  0  0  2  0  0  0  0  0  0
  190.7280  175.8300  137.6500 S   0  0  0  0  0  0  0  0  0  0  0  0
  190.8010  174.3300  137.7200 O   0  0  0  0  0  0  0  0  0  0  0  0
  190.7710  176.2630  136.2110 O   0  0  0  0  0  0  0  0  0  0  0  0
  193.3890  176.3030  137.7140 C   0  0  0  0  0  1  0  0  0  0  0  0
  192.1200  176.5310  138.5080 C   0  0  0  0  0  2  0  0  0  0  0  0
  1  5  1  0  0  0  0
  1 13  1  0  0  0  0
  2  1  2  0  0  0  0
  3 10  1  0  0  0  0
  3  5  1  0  0  0  0
  4 11  1  0  0  0  0
  4  9  1  0  0  0  0
  5  4  2  0  0  0  0
  7  9  1  0  0  0  0
  8 10  2  0  0  0  0
  9  6  2  0  0  0  0
 10 14  1  0  0  0  0
 12 13  1  0  0  0  0
 13  7  2  0  0  0  0
 14 11  2  0  0  0  0
 16 20  1  6  0  0  0
 16 15  1  0  0  0  0
 17 18  1  0  0  0  0
 18 15  1  6  0  0  0
 18  3  1  0  0  0  0
 19 16  1  0  0  0  0
 19 17  1  0  0  0  0
 21 22  2  0  0  0  0
 21 20  1  0  0  0  0
 21 25  1  0  0  0  0
 23 21  2  0  0  0  0
 24 25  1  0  0  0  0
M  END
>  <MODEL>
7

>  <REMARK>
 VINA RESULT:      -7.2      1.681      2.128
  Name = 
  4 active torsions:
  status: ('A' for Active; 'I' for Inactive)
    1  A    between atoms: S_1  and  N_7
    2  A    between atoms: S_1  and  C_25
    3  A    between atoms: C_5  and  N_7
    4  A    between atoms: C_8  and  N_11
                            x       y       z     vdW  Elec       q    Type
                         _______ _______ _______ _____ _____    ______ ____

>  <TORSDO>
F 4

$$$$
=
 OpenBabel10232408513D

 25 27  0  0  1  0  0  0  0  0999 V2000
  190.1270  177.2410  145.5190 C   0  0  0  0  0  0  0  0  0  0  0  0
  190.9980  177.2090  144.6100 O   0  0  0  0  0  0  0  0  0  0  0  0
  188.2070  177.7670  143.9440 N   0  0  0  0  0  0  0  0  0  0  0  0
  187.7950  177.5390  146.3130 C   0  0  0  0  0  0  0  0  0  0  0  0
  188.6860  177.5250  145.2200 C   0  0  0  0  0  0  0  0  0  0  0  0
  187.5100  177.2880  148.6620 O   0  0  0  0  0  0  0  0  0  0  0  0
  189.6850  177.0160  147.8880 N   0  0  0  0  0  0  0  0  0  0  0  0
  186.4110  178.2500  142.5930 O   0  0  0  0  0  0  0  0  0  0  0  0
  188.2940  177.2810  147.6770 C   0  0  0  0  0  0  0  0  0  0  0  0
  186.8670  178.0250  143.7480 C   0  0  0  0  0  0  0  0  0  0  0  0
  186.4440  177.8010  146.1020 C   0  0  0  0  0  3  0  0  0  0  0  0
  191.9760  176.7090  147.2320 C   0  0  0  0  0  1  0  0  0  0  0  0
  190.5480  176.9920  146.9170 C   0  0  0  0  0  0  0  0  0  0  0  0
  185.9790  178.0450  144.8190 C   0  0  0  0  0  3  0  0  0  0  0  0
  188.6020  178.5420  141.6100 C   0  0  0  0  0  2  0  0  0  0  0  0
  188.8010  177.6620  140.3870 C   0  0  2  0  0  3  0  0  0  0  0  0
  189.4250  176.3440  142.3080 C   0  0  0  0  0  2  0  0  0  0  0  0
  189.1290  177.7490  142.7950 C   0  0  2  0  0  3  0  0  0  0  0  0
  189.6670  176.4960  140.8250 C   0  0  0  0  0  2  0  0  0  0  0  0
  189.4770  178.4090  139.3380 N   0  0  0  0  0  2  0  0  0  0  0  0
  189.1870  177.5970  137.8340 S   0  0  0  0  0  0  0  0  0  0  0  0
  190.4460  176.9210  137.3680 O   0  0  0  0  0  0  0  0  0  0  0  0
  188.1040  176.5690  138.0090 O   0  0  0  0  0  0  0  0  0  0  0  0
  187.3070  178.4040  136.0670 C   0  0  0  0  0  1  0  0  0  0  0  0
  188.6670  178.7840  136.6140 C   0  0  0  0  0  2  0  0  0  0  0  0
  1 13  1  0  0  0  0
  2  1  2  0  0  0  0
  3  5  1  0  0  0  0
  4  9  1  0  0  0  0
  5  1  1  0  0  0  0
  5  4  2  0  0  0  0
  8 10  2  0  0  0  0
  9  7  1  0  0  0  0
  9  6  2  0  0  0  0
 10  3  1  0  0  0  0
 10 14  1  0  0  0  0
 11  4  1  0  0  0  0
 13 12  1  0  0  0  0
 13  7  2  0  0  0  0
 14 11  2  0  0  0  0
 16 20  1  6  0  0  0
 16 19  1  0  0  0  0
 16 15  1  0  0  0  0
 17 18  1  0  0  0  0
 18 15  1  6  0  0  0
 18  3  1  0  0  0  0
 19 17  1  0  0  0  0
 21 23  2  0  0  0  0
 21 20  1  0  0  0  0
 22 21  2  0  0  0  0
 24 25  1  0  0  0  0
 25 21  1  0  0  0  0
M  END
>  <MODEL>
8

>  <REMARK>
 VINA RESULT:      -7.1      1.672      3.348
  Name = 
  4 active torsions:
  status: ('A' for Active; 'I' for Inactive)
    1  A    between atoms: S_1  and  N_7
    2  A    between atoms: S_1  and  C_25
    3  A    between atoms: C_5  and  N_7
    4  A    between atoms: C_8  and  N_11
                            x       y       z     vdW  Elec       q    Type
                         _______ _______ _______ _____ _____    ______ ____

>  <TORSDO>
F 4

$$$$
=
 OpenBabel10232408513D

 25 27  0  0  1  0  0  0  0  0999 V2000
  186.7600  178.4270  140.2070 C   0  0  0  0  0  0  0  0  0  0  0  0
  186.2900  178.6000  141.3630 O   0  0  0  0  0  0  0  0  0  0  0  0
  189.0460  177.6850  141.0260 N   0  0  0  0  0  0  0  0  0  0  0  0
  188.5930  177.8030  138.6560 C   0  0  0  0  0  0  0  0  0  0  0  0
  188.1680  177.9610  139.9920 C   0  0  0  0  0  0  0  0  0  0  0  0
  188.0310  177.9520  136.3490 O   0  0  0  0  0  0  0  0  0  0  0  0
  186.3340  178.5330  137.8280 N   0  0  0  0  0  0  0  0  0  0  0  0
  191.1440  177.0090  141.6770 O   0  0  0  0  0  0  0  0  0  0  0  0
  187.6650  178.0920  137.5460 C   0  0  0  0  0  0  0  0  0  0  0  0
  190.3280  177.2630  140.7480 C   0  0  0  0  0  0  0  0  0  0  0  0
  189.8910  177.3760  138.3890 C   0  0  0  0  0  3  0  0  0  0  0  0
  184.4900  179.1620  139.2350 C   0  0  0  0  0  1  0  0  0  0  0  0
  185.8910  178.6970  139.0380 C   0  0  0  0  0  0  0  0  0  0  0  0
  190.7600  177.1060  139.4350 C   0  0  0  0  0  3  0  0  0  0  0  0
  189.7380  178.2800  143.3430 C   0  0  0  0  0  2  0  0  0  0  0  0
  189.6610  177.3820  144.5680 C   0  0  2  0  0  3  0  0  0  0  0  0
  188.0220  176.5680  142.9980 C   0  0  0  0  0  2  0  0  0  0  0  0
  188.6090  177.8420  142.4240 C   0  0  2  0  0  3  0  0  0  0  0  0
  188.3510  176.6240  144.4700 C   0  0  0  0  0  2  0  0  0  0  0  0
  189.6730  178.1870  145.7800 N   0  0  0  0  0  2  0  0  0  0  0  0
  190.1550  177.1650  147.0940 S   0  0  0  0  0  0  0  0  0  0  0  0
  190.5250  178.0050  148.2850 O   0  0  0  0  0  0  0  0  0  0  0  0
  189.0260  176.2450  147.4650 O   0  0  0  0  0  0  0  0  0  0  0  0
  192.3640  175.7830  147.8170 C   0  0  0  0  0  1  0  0  0  0  0  0
  191.5590  176.1900  146.5990 C   0  0  0  0  0  2  0  0  0  0  0  0
  1  2  2  0  0  0  0
  4  5  2  0  0  0  0
  5  1  1  0  0  0  0
  5  3  1  0  0  0  0
  6  9  2  0  0  0  0
  7 13  2  0  0  0  0
  9  7  1  0  0  0  0
  9  4  1  0  0  0  0
 10  3  1  0  0  0  0
 10  8  2  0  0  0  0
 11  4  1  0  0  0  0
 11 14  2  0  0  0  0
 13 12  1  0  0  0  0
 13  1  1  0  0  0  0
 14 10  1  0  0  0  0
 15 16  1  0  0  0  0
 16 20  1  1  0  0  0
 17 19  1  0  0  0  0
 18  3  1  6  0  0  0
 18 17  1  0  0  0  0
 18 15  1  0  0  0  0
 19 16  1  0  0  0  0
 20 21  1  0  0  0  0
 21 23  2  0  0  0  0
 21 22  2  0  0  0  0
 25 21  1  0  0  0  0
 25 24  1  0  0  0  0
M  END
>  <MODEL>
9

>  <REMARK>
 VINA RESULT:      -7.0      3.038      7.188
  Name = 
  4 active torsions:
  status: ('A' for Active; 'I' for Inactive)
    1  A    between atoms: S_1  and  N_7
    2  A    between atoms: S_1  and  C_25
    3  A    between atoms: C_5  and  N_7
    4  A    between atoms: C_8  and  N_11
                            x       y       z     vdW  Elec       q    Type
                         _______ _______ _______ _____ _____    ______ ____

>  <TORSDO>
F 4

$$$$
