=
 OpenBabel10232412093D

 39 44  0  0  1  0  0  0  0  0999 V2000
  185.0170  179.4220  138.5260 N   0  0  0  0  0  0  0  0  0  0  0  0
  186.9850  178.9800  137.2590 N   0  0  0  0  0  2  0  0  0  0  0  0
  186.3170  175.1130  137.4380 O   0  0  0  0  0  0  0  0  0  0  0  0
  185.7250  178.6010  137.8240 C   0  0  0  0  0  0  0  0  0  0  0  0
  185.7090  176.1850  137.5560 C   0  0  0  0  0  0  0  0  0  0  0  0
  185.0640  177.3160  137.6770 C   0  0  0  0  0  0  0  0  0  0  0  0
  183.8310  177.4250  138.3770 N   0  0  0  0  0  0  0  0  0  0  0  0
  183.7780  178.7700  138.9510 C   0  0  1  0  0  3  0  0  0  0  0  0
  186.1370  178.2690  143.3240 C   0  0  0  0  0  2  0  0  0  0  0  0
  182.4920  178.8960  141.1210 C   0  0  0  0  0  3  0  0  0  0  0  0
  183.7070  178.7130  140.4470 C   0  0  0  0  0  0  0  0  0  0  0  0
  185.9190  177.8600  144.7780 C   0  0  0  0  0  2  0  0  0  0  0  0
  184.8440  178.4360  142.5750 C   0  0  0  0  0  0  0  0  0  0  0  0
  182.4510  178.8590  142.5160 C   0  0  0  0  0  3  0  0  0  0  0  0
  184.8780  178.4880  141.1770 C   0  0  0  0  0  3  0  0  0  0  0  0
  184.8830  178.7690  145.4190 C   0  0  0  0  0  2  0  0  0  0  0  0
  183.6220  178.6470  143.2520 C   0  0  0  0  0  0  0  0  0  0  0  0
  183.5290  178.5550  144.7480 C   0  0  0  0  0  2  0  0  0  0  0  0
  181.7720  176.6500  135.8530 C   0  0  2  0  0  3  0  0  0  0  0  0
  181.0190  175.0490  138.9870 O   0  0  0  0  0  0  0  0  0  0  0  0
  182.1520  175.7560  139.5200 C   0  0  0  0  0  2  0  0  0  0  0  0
  180.9420  175.3960  137.6570 C   0  0  0  0  0  0  0  0  0  0  0  0
  180.0950  175.0600  136.7520 N   0  0  0  0  0  0  0  0  0  0  0  0
  179.9820  175.7000  134.4800 O   0  0  0  0  0  0  0  0  0  0  0  0
  181.3930  178.1190  135.7490 C   0  0  0  0  0  1  0  0  0  0  0  0
  182.7120  176.5220  138.3270 C   0  0  0  0  0  0  0  0  0  0  0  0
  180.5520  175.7870  135.5990 C   0  0  0  0  0  0  0  0  0  0  0  0
  181.9500  176.2740  137.2740 C   0  0  0  0  0  0  0  0  0  0  0  0
  187.7260  178.1520  136.3160 C   0  0  0  0  0  2  0  0  0  0  0  0
  189.7080  177.5020  139.0350 C   0  0  0  0  0  0  0  0  0  0  0  0
  189.3770  176.5420  137.0900 N   0  0  0  0  0  2  0  0  0  0  0  0
  190.0020  177.6430  140.4250 N   0  0  0  0  0  2  0  0  0  0  0  0
  189.7080  176.3660  138.4320 N   0  0  0  0  0  0  0  0  0  0  0  0
  189.1530  177.9490  136.8020 C   0  0  2  0  0  3  0  0  0  0  0  0
  189.3580  178.6460  138.1500 C   0  0  0  0  0  2  0  0  0  0  0  0
  190.3990  176.5070  141.2440 C   0  0  0  0  0  2  0  0  0  0  0  0
  190.0260  176.7370  142.7030 C   0  0  1  0  0  3  0  0  0  0  0  0
  189.7710  178.2070  142.9780 C   0  0  0  0  0  1  0  0  0  0  0  0
  188.8960  175.9860  143.0370 O   0  0  0  0  0  1  0  0  0  0  0  0
  1  8  1  0  0  0  0
  2  4  1  0  0  0  0
  3  5  2  0  0  0  0
  4  1  2  0  0  0  0
  5  6  2  0  0  0  0
  6  4  1  0  0  0  0
  6  7  1  0  0  0  0
  7  8  1  0  0  0  0
  8 11  1  1  0  0  0
  9 12  1  0  0  0  0
 10 14  1  0  0  0  0
 11 10  2  0  0  0  0
 11 15  1  0  0  0  0
 12 16  1  0  0  0  0
 13 17  1  0  0  0  0
 13  9  1  0  0  0  0
 14 17  2  0  0  0  0
 15 13  2  0  0  0  0
 17 18  1  0  0  0  0
 18 16  1  0  0  0  0
 19 25  1  1  0  0  0
 19 28  1  0  0  0  0
 20 21  1  0  0  0  0
 22 20  1  0  0  0  0
 23 22  2  0  0  0  0
 24 27  2  0  0  0  0
 26  7  1  0  0  0  0
 26 21  1  0  0  0  0
 27 19  1  0  0  0  0
 27 23  1  0  0  0  0
 28 22  1  0  0  0  0
 28 26  2  0  0  0  0
 29  2  1  0  0  0  0
 30 32  1  0  0  0  0
 31 33  1  0  0  0  0
 32 36  1  0  0  0  0
 33 30  2  0  0  0  0
 34 29  1  1  0  0  0
 34 31  1  0  0  0  0
 34 35  1  0  0  0  0
 35 30  1  0  0  0  0
 36 37  1  0  0  0  0
 37 38  1  6  0  0  0
 37 39  1  0  0  0  0
M  END
>  <MODEL>
1

>  <REMARK>
 VINA RESULT:      -8.2      0.000      0.000
  Name = 
  6 active torsions:
  status: ('A' for Active; 'I' for Inactive)
    1  A    between atoms: C_6  and  C_33
    2  A    between atoms: N_8  and  C_33
    3  A    between atoms: N_9  and  C_14
    4  A    between atoms: C_13  and  C_37
    5  A    between atoms: C_14  and  C_30
    6  A    between atoms: C_23  and  N_36
                            x       y       z     vdW  Elec       q    Type
                         _______ _______ _______ _____ _____    ______ ____

>  <TORSDO>
F 6

$$$$
=
 OpenBabel10232412093D

 39 44  0  0  1  0  0  0  0  0999 V2000
  192.1620  176.6120  138.2870 N   0  0  0  0  0  0  0  0  0  0  0  0
  193.4000  174.6480  137.7550 N   0  0  0  0  0  2  0  0  0  0  0  0
  190.2230  172.9960  136.1390 O   0  0  0  0  0  0  0  0  0  0  0  0
  192.2610  175.5070  137.6260 C   0  0  0  0  0  0  0  0  0  0  0  0
  190.6580  174.1150  136.4420 C   0  0  0  0  0  0  0  0  0  0  0  0
  191.1170  175.2980  136.7560 C   0  0  0  0  0  0  0  0  0  0  0  0
  190.2700  176.4250  136.9440 N   0  0  0  0  0  0  0  0  0  0  0  0
  190.9100  177.2850  137.9390 C   0  0  1  0  0  3  0  0  0  0  0  0
  190.0790  176.2230  142.7470 C   0  0  0  0  0  2  0  0  0  0  0  0
  188.8990  178.2410  139.1330 C   0  0  0  0  0  3  0  0  0  0  0  0
  190.0450  177.4350  139.1550 C   0  0  0  0  0  0  0  0  0  0  0  0
  188.9710  176.1280  143.7930 C   0  0  0  0  0  2  0  0  0  0  0  0
  189.6180  176.8940  141.4830 C   0  0  0  0  0  0  0  0  0  0  0  0
  188.1180  178.3830  140.2820 C   0  0  0  0  0  3  0  0  0  0  0  0
  190.4020  176.7690  140.3310 C   0  0  0  0  0  3  0  0  0  0  0  0
  188.3000  177.4830  143.9560 C   0  0  0  0  0  2  0  0  0  0  0  0
  188.4780  177.7290  141.4640 C   0  0  0  0  0  0  0  0  0  0  0  0
  187.5820  177.8570  142.6630 C   0  0  0  0  0  2  0  0  0  0  0  0
  186.9990  175.8250  137.3390 C   0  0  2  0  0  3  0  0  0  0  0  0
  187.8680  177.6680  134.3720 O   0  0  0  0  0  0  0  0  0  0  0  0
  189.2340  177.5610  134.8110 C   0  0  0  0  0  2  0  0  0  0  0  0
  187.1070  177.0400  135.3310 C   0  0  0  0  0  0  0  0  0  0  0  0
  185.8400  176.8390  135.3950 N   0  0  0  0  0  0  0  0  0  0  0  0
  184.5700  175.7310  137.0510 O   0  0  0  0  0  0  0  0  0  0  0  0
  187.2980  174.3350  137.3070 C   0  0  0  0  0  1  0  0  0  0  0  0
  189.1430  176.8180  136.1400 C   0  0  0  0  0  0  0  0  0  0  0  0
  185.6940  176.1020  136.6200 C   0  0  0  0  0  0  0  0  0  0  0  0
  187.8720  176.5360  136.3770 C   0  0  0  0  0  0  0  0  0  0  0  0
  193.6370  173.4910  136.9010 C   0  0  0  0  0  2  0  0  0  0  0  0
  196.7290  174.2820  138.1470 C   0  0  0  0  0  0  0  0  0  0  0  0
  195.4140  172.5300  138.2530 N   0  0  0  0  0  2  0  0  0  0  0  0
  197.7060  175.2480  138.5350 N   0  0  0  0  0  2  0  0  0  0  0  0
  196.3920  173.2900  138.8910 N   0  0  0  0  0  0  0  0  0  0  0  0
  195.1040  173.0920  136.9500 C   0  0  2  0  0  3  0  0  0  0  0  0
  195.9950  174.3330  136.8530 C   0  0  0  0  0  2  0  0  0  0  0  0
  198.4470  175.1310  139.7820 C   0  0  0  0  0  2  0  0  0  0  0  0
  197.5400  175.3990  140.9770 C   0  0  1  0  0  3  0  0  0  0  0  0
  198.3420  175.4970  142.2610 C   0  0  0  0  0  1  0  0  0  0  0  0
  196.8130  176.5750  140.7770 O   0  0  0  0  0  1  0  0  0  0  0  0
  3  5  2  0  0  0  0
  4  2  1  0  0  0  0
  4  1  2  0  0  0  0
  5  6  2  0  0  0  0
  6  7  1  0  0  0  0
  6  4  1  0  0  0  0
  7  8  1  0  0  0  0
  8  1  1  0  0  0  0
  8 11  1  1  0  0  0
  9 12  1  0  0  0  0
 10 11  2  0  0  0  0
 10 14  1  0  0  0  0
 11 15  1  0  0  0  0
 12 16  1  0  0  0  0
 13  9  1  0  0  0  0
 14 17  2  0  0  0  0
 15 13  2  0  0  0  0
 17 13  1  0  0  0  0
 17 18  1  0  0  0  0
 18 16  1  0  0  0  0
 19 25  1  6  0  0  0
 20 21  1  0  0  0  0
 20 22  1  0  0  0  0
 21 26  1  0  0  0  0
 22 23  2  0  0  0  0
 22 28  1  0  0  0  0
 23 27  1  0  0  0  0
 26 28  2  0  0  0  0
 26  7  1  0  0  0  0
 27 24  2  0  0  0  0
 27 19  1  0  0  0  0
 28 19  1  0  0  0  0
 29  2  1  0  0  0  0
 30 32  1  0  0  0  0
 30 33  2  0  0  0  0
 31 33  1  0  0  0  0
 32 36  1  0  0  0  0
 34 29  1  1  0  0  0
 34 31  1  0  0  0  0
 35 34  1  0  0  0  0
 35 30  1  0  0  0  0
 36 37  1  0  0  0  0
 37 38  1  1  0  0  0
 39 37  1  0  0  0  0
M  END
>  <MODEL>
2

>  <REMARK>
 VINA RESULT:      -7.4      4.471      6.791
  Name = 
  6 active torsions:
  status: ('A' for Active; 'I' for Inactive)
    1  A    between atoms: C_6  and  C_33
    2  A    between atoms: N_8  and  C_33
    3  A    between atoms: N_9  and  C_14
    4  A    between atoms: C_13  and  C_37
    5  A    between atoms: C_14  and  C_30
    6  A    between atoms: C_23  and  N_36
                            x       y       z     vdW  Elec       q    Type
                         _______ _______ _______ _____ _____    ______ ____

>  <TORSDO>
F 6

$$$$
=
 OpenBabel10232412093D

 39 44  0  0  1  0  0  0  0  0999 V2000
  186.7410  178.7170  138.6070 N   0  0  0  0  0  0  0  0  0  0  0  0
  187.7770  177.4850  136.8520 N   0  0  0  0  0  2  0  0  0  0  0  0
  185.0060  174.7090  137.0660 O   0  0  0  0  0  0  0  0  0  0  0  0
  186.6750  177.7850  137.7150 C   0  0  0  0  0  0  0  0  0  0  0  0
  185.1860  175.8940  137.3770 C   0  0  0  0  0  0  0  0  0  0  0  0
  185.3710  177.1460  137.7030 C   0  0  0  0  0  0  0  0  0  0  0  0
  184.6030  177.8000  138.7060 N   0  0  0  0  0  0  0  0  0  0  0  0
  185.4660  178.8100  139.3200 C   0  0  1  0  0  3  0  0  0  0  0  0
  188.5590  177.6510  143.0640 C   0  0  0  0  0  2  0  0  0  0  0  0
  184.5990  178.6180  141.6840 C   0  0  0  0  0  3  0  0  0  0  0  0
  185.6650  178.5310  140.7790 C   0  0  0  0  0  0  0  0  0  0  0  0
  188.5950  177.0310  144.4580 C   0  0  0  0  0  2  0  0  0  0  0  0
  187.1590  177.9350  142.5980 C   0  0  0  0  0  0  0  0  0  0  0  0
  184.8090  178.3740  143.0420 C   0  0  0  0  0  3  0  0  0  0  0  0
  186.9410  178.1940  141.2400 C   0  0  0  0  0  3  0  0  0  0  0  0
  187.7220  177.8390  145.4040 C   0  0  0  0  0  2  0  0  0  0  0  0
  186.0860  178.0490  143.5120 C   0  0  0  0  0  0  0  0  0  0  0  0
  186.2630  177.7340  144.9690 C   0  0  0  0  0  2  0  0  0  0  0  0
  182.1530  179.9680  137.9920 C   0  0  2  0  0  3  0  0  0  0  0  0
  181.0940  176.9590  139.6580 O   0  0  0  0  0  0  0  0  0  0  0  0
  182.4790  176.5700  139.6460 C   0  0  0  0  0  2  0  0  0  0  0  0
  181.0360  178.1840  139.0330 C   0  0  0  0  0  0  0  0  0  0  0  0
  180.0400  178.9650  138.8140 N   0  0  0  0  0  0  0  0  0  0  0  0
  179.9840  181.0770  137.7560 O   0  0  0  0  0  0  0  0  0  0  0  0
  182.8510  181.0000  138.8630 C   0  0  0  0  0  1  0  0  0  0  0  0
  183.1830  177.7110  138.9210 C   0  0  0  0  0  0  0  0  0  0  0  0
  180.6510  180.0880  138.1580 C   0  0  0  0  0  0  0  0  0  0  0  0
  182.2810  178.6240  138.5990 C   0  0  0  0  0  0  0  0  0  0  0  0
  187.6880  176.5720  135.7190 C   0  0  0  0  0  2  0  0  0  0  0  0
  190.8710  176.0080  136.8550 C   0  0  0  0  0  0  0  0  0  0  0  0
  188.9480  174.9700  137.0470 N   0  0  0  0  0  2  0  0  0  0  0  0
  192.1770  176.4790  137.1900 N   0  0  0  0  0  2  0  0  0  0  0  0
  190.1770  175.2590  137.6360 N   0  0  0  0  0  0  0  0  0  0  0  0
  188.8530  175.5940  135.7380 C   0  0  2  0  0  3  0  0  0  0  0  0
  190.1780  176.3450  135.5830 C   0  0  0  0  0  2  0  0  0  0  0  0
  192.8460  176.0780  138.4180 C   0  0  0  0  0  2  0  0  0  0  0  0
  192.9300  177.2450  139.3940 C   0  0  1  0  0  3  0  0  0  0  0  0
  191.7190  177.2830  140.3070 C   0  0  0  0  0  1  0  0  0  0  0  0
  194.0980  177.1550  140.1550 O   0  0  0  0  0  1  0  0  0  0  0  0
  1  8  1  0  0  0  0
  2  4  1  0  0  0  0
  3  5  2  0  0  0  0
  4  1  2  0  0  0  0
  5  6  2  0  0  0  0
  6  4  1  0  0  0  0
  6  7  1  0  0  0  0
  7 26  1  0  0  0  0
  7  8  1  0  0  0  0
  8 11  1  1  0  0  0
  9 12  1  0  0  0  0
 10 14  1  0  0  0  0
 11 15  1  0  0  0  0
 11 10  2  0  0  0  0
 12 16  1  0  0  0  0
 13  9  1  0  0  0  0
 13 17  1  0  0  0  0
 14 17  2  0  0  0  0
 15 13  2  0  0  0  0
 17 18  1  0  0  0  0
 18 16  1  0  0  0  0
 19 27  1  0  0  0  0
 19 28  1  0  0  0  0
 19 25  1  1  0  0  0
 21 20  1  0  0  0  0
 22 20  1  0  0  0  0
 23 22  2  0  0  0  0
 24 27  2  0  0  0  0
 26 21  1  0  0  0  0
 27 23  1  0  0  0  0
 28 26  2  0  0  0  0
 28 22  1  0  0  0  0
 29  2  1  0  0  0  0
 30 32  1  0  0  0  0
 30 33  2  0  0  0  0
 31 33  1  0  0  0  0
 32 36  1  0  0  0  0
 34 29  1  1  0  0  0
 34 31  1  0  0  0  0
 35 34  1  0  0  0  0
 35 30  1  0  0  0  0
 36 37  1  0  0  0  0
 37 39  1  0  0  0  0
 37 38  1  1  0  0  0
M  END
>  <MODEL>
3

>  <REMARK>
 VINA RESULT:      -7.4      2.411      3.018
  Name = 
  6 active torsions:
  status: ('A' for Active; 'I' for Inactive)
    1  A    between atoms: C_6  and  C_33
    2  A    between atoms: N_8  and  C_33
    3  A    between atoms: N_9  and  C_14
    4  A    between atoms: C_13  and  C_37
    5  A    between atoms: C_14  and  C_30
    6  A    between atoms: C_23  and  N_36
                            x       y       z     vdW  Elec       q    Type
                         _______ _______ _______ _____ _____    ______ ____

>  <TORSDO>
F 6

$$$$
=
 OpenBabel10232412093D

 39 44  0  0  1  0  0  0  0  0999 V2000
  185.2220  179.2930  138.5930 N   0  0  0  0  0  0  0  0  0  0  0  0
  187.0550  178.7630  137.1680 N   0  0  0  0  0  2  0  0  0  0  0  0
  186.1510  174.9430  137.3060 O   0  0  0  0  0  0  0  0  0  0  0  0
  185.8190  178.4490  137.8190 C   0  0  0  0  0  0  0  0  0  0  0  0
  185.6250  176.0480  137.4960 C   0  0  0  0  0  0  0  0  0  0  0  0
  185.0670  177.2130  137.6930 C   0  0  0  0  0  0  0  0  0  0  0  0
  183.8990  177.3800  138.4880 N   0  0  0  0  0  0  0  0  0  0  0  0
  183.9780  178.7090  139.0960 C   0  0  1  0  0  3  0  0  0  0  0  0
  186.6300  177.9840  143.2640 C   0  0  0  0  0  2  0  0  0  0  0  0
  182.8640  178.8320  141.3590 C   0  0  0  0  0  3  0  0  0  0  0  0
  184.0160  178.6140  140.5910 C   0  0  0  0  0  0  0  0  0  0  0  0
  186.5020  177.5450  144.7200 C   0  0  0  0  0  2  0  0  0  0  0  0
  185.2940  178.2290  142.6190 C   0  0  0  0  0  0  0  0  0  0  0  0
  182.9250  178.7580  142.7520 C   0  0  0  0  0  3  0  0  0  0  0  0
  185.2260  178.3180  141.2250 C   0  0  0  0  0  3  0  0  0  0  0  0
  185.5590  178.4810  145.4600 C   0  0  0  0  0  2  0  0  0  0  0  0
  184.1360  178.4750  143.3920 C   0  0  0  0  0  0  0  0  0  0  0  0
  184.1510  178.3450  144.8880 C   0  0  0  0  0  2  0  0  0  0  0  0
  181.8180  176.5130  136.0120 C   0  0  2  0  0  3  0  0  0  0  0  0
  180.9280  175.2610  139.2660 O   0  0  0  0  0  0  0  0  0  0  0  0
  182.1010  175.9390  139.7510 C   0  0  0  0  0  2  0  0  0  0  0  0
  180.8880  175.4890  137.9100 C   0  0  0  0  0  0  0  0  0  0  0  0
  180.0300  175.1260  137.0260 N   0  0  0  0  0  0  0  0  0  0  0  0
  179.9820  175.5600  134.7030 O   0  0  0  0  0  0  0  0  0  0  0  0
  181.5400  177.9870  135.7680 C   0  0  0  0  0  1  0  0  0  0  0  0
  182.7220  176.5520  138.5020 C   0  0  0  0  0  0  0  0  0  0  0  0
  180.5460  175.7120  135.8190 C   0  0  0  0  0  0  0  0  0  0  0  0
  181.9560  176.2580  137.4640 C   0  0  0  0  0  0  0  0  0  0  0  0
  187.6680  177.9170  136.1520 C   0  0  0  0  0  2  0  0  0  0  0  0
  190.6000  176.4620  137.1650 C   0  0  0  0  0  0  0  0  0  0  0  0
  189.7840  177.1350  135.2430 N   0  0  0  0  0  2  0  0  0  0  0  0
  191.3490  175.6900  138.1040 N   0  0  0  0  0  2  0  0  0  0  0  0
  190.6150  176.2310  135.9000 N   0  0  0  0  0  0  0  0  0  0  0  0
  189.1820  178.0550  136.1940 C   0  0  2  0  0  3  0  0  0  0  0  0
  189.7190  177.5970  137.5520 C   0  0  0  0  0  2  0  0  0  0  0  0
  192.2470  174.6260  137.6800 C   0  0  0  0  0  2  0  0  0  0  0  0
  193.6940  175.1010  137.6950 C   0  0  1  0  0  3  0  0  0  0  0  0
  194.1880  175.3930  136.2910 C   0  0  0  0  0  1  0  0  0  0  0  0
  193.8200  176.2420  138.4920 O   0  0  0  0  0  1  0  0  0  0  0  0
  1  8  1  0  0  0  0
  2  4  1  0  0  0  0
  3  5  2  0  0  0  0
  4  1  2  0  0  0  0
  5  6  2  0  0  0  0
  6  4  1  0  0  0  0
  6  7  1  0  0  0  0
  7 26  1  0  0  0  0
  7  8  1  0  0  0  0
  8 11  1  1  0  0  0
  9 12  1  0  0  0  0
 10 14  1  0  0  0  0
 11 15  1  0  0  0  0
 11 10  2  0  0  0  0
 12 16  1  0  0  0  0
 13  9  1  0  0  0  0
 13 17  1  0  0  0  0
 14 17  2  0  0  0  0
 15 13  2  0  0  0  0
 17 18  1  0  0  0  0
 18 16  1  0  0  0  0
 19 25  1  1  0  0  0
 19 28  1  0  0  0  0
 20 21  1  0  0  0  0
 22 20  1  0  0  0  0
 23 22  2  0  0  0  0
 24 27  2  0  0  0  0
 26 21  1  0  0  0  0
 27 19  1  0  0  0  0
 27 23  1  0  0  0  0
 28 22  1  0  0  0  0
 28 26  2  0  0  0  0
 29  2  1  0  0  0  0
 30 35  1  0  0  0  0
 30 32  1  0  0  0  0
 31 33  1  0  0  0  0
 31 34  1  0  0  0  0
 33 30  2  0  0  0  0
 34 29  1  1  0  0  0
 34 35  1  0  0  0  0
 36 37  1  0  0  0  0
 36 32  1  0  0  0  0
 37 38  1  6  0  0  0
 37 39  1  0  0  0  0
M  END
>  <MODEL>
4

>  <REMARK>
 VINA RESULT:      -7.1      1.876      2.330
  Name = 
  6 active torsions:
  status: ('A' for Active; 'I' for Inactive)
    1  A    between atoms: C_6  and  C_33
    2  A    between atoms: N_8  and  C_33
    3  A    between atoms: N_9  and  C_14
    4  A    between atoms: C_13  and  C_37
    5  A    between atoms: C_14  and  C_30
    6  A    between atoms: C_23  and  N_36
                            x       y       z     vdW  Elec       q    Type
                         _______ _______ _______ _____ _____    ______ ____

>  <TORSDO>
F 6

$$$$
=
 OpenBabel10232412093D

 39 44  0  0  1  0  0  0  0  0999 V2000
  188.4630  176.1930  142.5840 N   0  0  0  0  0  0  0  0  0  0  0  0
  190.0540  176.7580  140.9040 N   0  0  0  0  0  2  0  0  0  0  0  0
  191.6000  179.5430  143.2040 O   0  0  0  0  0  0  0  0  0  0  0  0
  189.5590  176.7890  142.2470 C   0  0  0  0  0  0  0  0  0  0  0  0
  190.9130  178.5170  143.2910 C   0  0  0  0  0  0  0  0  0  0  0  0
  190.1910  177.4310  143.3860 C   0  0  0  0  0  0  0  0  0  0  0  0
  189.3540  177.1610  144.5040 N   0  0  0  0  0  0  0  0  0  0  0  0
  188.2200  176.3760  144.0160 C   0  0  1  0  0  3  0  0  0  0  0  0
  184.0590  178.3620  142.1000 C   0  0  0  0  0  2  0  0  0  0  0  0
  186.5030  177.4520  145.5240 C   0  0  0  0  0  3  0  0  0  0  0  0
  186.9290  177.1050  144.2340 C   0  0  0  0  0  0  0  0  0  0  0  0
  182.9790  179.4070  142.3700 C   0  0  0  0  0  2  0  0  0  0  0  0
  184.9200  178.1020  143.3050 C   0  0  0  0  0  0  0  0  0  0  0  0
  185.2870  178.1130  145.7070 C   0  0  0  0  0  3  0  0  0  0  0  0
  186.1330  177.4280  143.1310 C   0  0  0  0  0  3  0  0  0  0  0  0
  182.2480  179.0700  143.6600 C   0  0  0  0  0  2  0  0  0  0  0  0
  184.4810  178.4270  144.6090 C   0  0  0  0  0  0  0  0  0  0  0  0
  183.2090  179.1910  144.8390 C   0  0  0  0  0  2  0  0  0  0  0  0
  191.9840  176.1630  146.3200 C   0  0  2  0  0  3  0  0  0  0  0  0
  189.4490  177.9430  148.1520 O   0  0  0  0  0  0  0  0  0  0  0  0
  188.7380  178.0380  146.9050 C   0  0  0  0  0  2  0  0  0  0  0  0
  190.6190  177.2740  147.8760 C   0  0  0  0  0  0  0  0  0  0  0  0
  191.5790  176.9130  148.6490 N   0  0  0  0  0  0  0  0  0  0  0  0
  193.5650  175.7380  148.1410 O   0  0  0  0  0  0  0  0  0  0  0  0
  191.6540  174.7250  145.9560 C   0  0  0  0  0  1  0  0  0  0  0  0
  189.6600  177.3610  145.8960 C   0  0  0  0  0  0  0  0  0  0  0  0
  192.4720  176.2290  147.7540 C   0  0  0  0  0  0  0  0  0  0  0  0
  190.7360  176.9300  146.5340 C   0  0  0  0  0  0  0  0  0  0  0  0
  191.3680  177.2590  140.5190 C   0  0  0  0  0  2  0  0  0  0  0  0
  193.1520  175.5430  138.1500 C   0  0  0  0  0  0  0  0  0  0  0  0
  191.0220  175.7850  138.6160 N   0  0  0  0  0  2  0  0  0  0  0  0
  194.3630  174.9340  137.7000 N   0  0  0  0  0  2  0  0  0  0  0  0
  192.0110  174.9510  138.1000 N   0  0  0  0  0  0  0  0  0  0  0  0
  191.5930  177.0560  139.0280 C   0  0  2  0  0  3  0  0  0  0  0  0
  193.0880  176.9100  138.7330 C   0  0  0  0  0  2  0  0  0  0  0  0
  194.3750  173.6180  137.0800 C   0  0  0  0  0  2  0  0  0  0  0  0
  195.0690  172.6030  137.9800 C   0  0  1  0  0  3  0  0  0  0  0  0
  196.3420  172.0840  137.3390 C   0  0  0  0  0  1  0  0  0  0  0  0
  195.3580  173.1760  139.2210 O   0  0  0  0  0  1  0  0  0  0  0  0
  1  8  1  0  0  0  0
  2  4  1  0  0  0  0
  3  5  2  0  0  0  0
  4  1  2  0  0  0  0
  4  6  1  0  0  0  0
  5  6  2  0  0  0  0
  6  7  1  0  0  0  0
  7 26  1  0  0  0  0
  8 11  1  6  0  0  0
  8  7  1  0  0  0  0
  9 12  1  0  0  0  0
  9 13  1  0  0  0  0
 10 14  1  0  0  0  0
 11 10  2  0  0  0  0
 12 16  1  0  0  0  0
 13 17  1  0  0  0  0
 15 13  2  0  0  0  0
 15 11  1  0  0  0  0
 16 18  1  0  0  0  0
 17 18  1  0  0  0  0
 17 14  2  0  0  0  0
 19 25  1  1  0  0  0
 19 28  1  0  0  0  0
 19 27  1  0  0  0  0
 21 20  1  0  0  0  0
 22 20  1  0  0  0  0
 22 23  2  0  0  0  0
 26 28  2  0  0  0  0
 26 21  1  0  0  0  0
 27 24  2  0  0  0  0
 27 23  1  0  0  0  0
 28 22  1  0  0  0  0
 29  2  1  0  0  0  0
 30 35  1  0  0  0  0
 31 34  1  0  0  0  0
 32 30  1  0  0  0  0
 33 30  2  0  0  0  0
 33 31  1  0  0  0  0
 34 29  1  1  0  0  0
 35 34  1  0  0  0  0
 36 32  1  0  0  0  0
 36 37  1  0  0  0  0
 37 38  1  6  0  0  0
 37 39  1  0  0  0  0
M  END
>  <MODEL>
5

>  <REMARK>
 VINA RESULT:      -7.1      5.320      8.877
  Name = 
  6 active torsions:
  status: ('A' for Active; 'I' for Inactive)
    1  A    between atoms: C_6  and  C_33
    2  A    between atoms: N_8  and  C_33
    3  A    between atoms: N_9  and  C_14
    4  A    between atoms: C_13  and  C_37
    5  A    between atoms: C_14  and  C_30
    6  A    between atoms: C_23  and  N_36
                            x       y       z     vdW  Elec       q    Type
                         _______ _______ _______ _____ _____    ______ ____

>  <TORSDO>
F 6

$$$$
=
 OpenBabel10232412093D

 39 44  0  0  1  0  0  0  0  0999 V2000
  192.7090  177.7020  140.6410 N   0  0  0  0  0  0  0  0  0  0  0  0
  193.7110  176.4810  138.8580 N   0  0  0  0  0  2  0  0  0  0  0  0
  190.3120  174.6650  138.0960 O   0  0  0  0  0  0  0  0  0  0  0  0
  192.5780  176.9710  139.5840 C   0  0  0  0  0  0  0  0  0  0  0  0
  190.7360  175.6830  138.6570 C   0  0  0  0  0  0  0  0  0  0  0  0
  191.1810  176.7620  139.2470 C   0  0  0  0  0  0  0  0  0  0  0  0
  190.4300  177.4640  140.2290 N   0  0  0  0  0  0  0  0  0  0  0  0
  191.3880  178.0700  141.1540 C   0  0  1  0  0  3  0  0  0  0  0  0
  189.1450  178.4170  145.6020 C   0  0  0  0  0  2  0  0  0  0  0  0
  191.8740  176.3810  142.9690 C   0  0  0  0  0  3  0  0  0  0  0  0
  191.2040  177.5360  142.5430 C   0  0  0  0  0  0  0  0  0  0  0  0
  189.3040  178.0380  147.0720 C   0  0  0  0  0  2  0  0  0  0  0  0
  190.1420  177.7200  144.7190 C   0  0  0  0  0  0  0  0  0  0  0  0
  191.6730  175.8890  144.2600 C   0  0  0  0  0  3  0  0  0  0  0  0
  190.3390  178.1980  143.4180 C   0  0  0  0  0  3  0  0  0  0  0  0
  189.3820  176.5250  147.2080 C   0  0  0  0  0  2  0  0  0  0  0  0
  190.7980  176.5400  145.1360 C   0  0  0  0  0  0  0  0  0  0  0  0
  190.6540  176.0170  146.5360 C   0  0  0  0  0  2  0  0  0  0  0  0
  188.3180  177.7740  137.6490 C   0  0  2  0  0  3  0  0  0  0  0  0
  186.8820  178.4170  140.8850 O   0  0  0  0  0  0  0  0  0  0  0  0
  188.1860  178.1370  141.4230 C   0  0  0  0  0  2  0  0  0  0  0  0
  186.9860  178.2530  139.5230 C   0  0  0  0  0  0  0  0  0  0  0  0
  186.1150  178.4120  138.5920 N   0  0  0  0  0  0  0  0  0  0  0  0
  186.3400  178.1440  136.2550 O   0  0  0  0  0  0  0  0  0  0  0  0
  189.2100  178.8700  137.0880 C   0  0  0  0  0  1  0  0  0  0  0  0
  189.0250  177.7750  140.2020 C   0  0  0  0  0  0  0  0  0  0  0  0
  186.8630  178.1190  137.4000 C   0  0  0  0  0  0  0  0  0  0  0  0
  188.2630  177.8740  139.1250 C   0  0  0  0  0  0  0  0  0  0  0  0
  193.6120  175.8100  137.5680 C   0  0  0  0  0  2  0  0  0  0  0  0
  196.6330  174.6310  136.4630 C   0  0  0  0  0  0  0  0  0  0  0  0
  195.6670  174.8300  138.4230 N   0  0  0  0  0  2  0  0  0  0  0  0
  197.6670  174.5800  135.4800 N   0  0  0  0  0  2  0  0  0  0  0  0
  196.8660  174.8190  137.7130 N   0  0  0  0  0  0  0  0  0  0  0  0
  194.5440  174.6090  137.5260 C   0  0  2  0  0  3  0  0  0  0  0  0
  195.1870  174.4860  136.1420 C   0  0  0  0  0  2  0  0  0  0  0  0
  199.0740  174.6660  135.8410 C   0  0  0  0  0  2  0  0  0  0  0  0
  199.7220  173.2870  135.8210 C   0  0  1  0  0  3  0  0  0  0  0  0
  199.8120  172.7050  137.2200 C   0  0  0  0  0  1  0  0  0  0  0  0
  199.0010  172.4260  134.9910 O   0  0  0  0  0  1  0  0  0  0  0  0
  1  8  1  0  0  0  0
  2  4  1  0  0  0  0
  3  5  2  0  0  0  0
  4  1  2  0  0  0  0
  5  6  2  0  0  0  0
  6  4  1  0  0  0  0
  6  7  1  0  0  0  0
  7  8  1  0  0  0  0
  8 11  1  1  0  0  0
  9 12  1  0  0  0  0
 10 14  1  0  0  0  0
 11 10  2  0  0  0  0
 11 15  1  0  0  0  0
 12 16  1  0  0  0  0
 13 17  1  0  0  0  0
 13  9  1  0  0  0  0
 14 17  2  0  0  0  0
 15 13  2  0  0  0  0
 17 18  1  0  0  0  0
 18 16  1  0  0  0  0
 19 25  1  6  0  0  0
 19 28  1  0  0  0  0
 20 21  1  0  0  0  0
 22 20  1  0  0  0  0
 23 22  2  0  0  0  0
 24 27  2  0  0  0  0
 26  7  1  0  0  0  0
 26 21  1  0  0  0  0
 27 19  1  0  0  0  0
 27 23  1  0  0  0  0
 28 22  1  0  0  0  0
 28 26  2  0  0  0  0
 29  2  1  0  0  0  0
 30 33  2  0  0  0  0
 32 36  1  0  0  0  0
 32 30  1  0  0  0  0
 33 31  1  0  0  0  0
 34 29  1  6  0  0  0
 34 31  1  0  0  0  0
 35 30  1  0  0  0  0
 35 34  1  0  0  0  0
 37 36  1  0  0  0  0
 37 38  1  1  0  0  0
 39 37  1  0  0  0  0
M  END
>  <MODEL>
6

>  <REMARK>
 VINA RESULT:      -6.7      5.172      7.781
  Name = 
  6 active torsions:
  status: ('A' for Active; 'I' for Inactive)
    1  A    between atoms: C_6  and  C_33
    2  A    between atoms: N_8  and  C_33
    3  A    between atoms: N_9  and  C_14
    4  A    between atoms: C_13  and  C_37
    5  A    between atoms: C_14  and  C_30
    6  A    between atoms: C_23  and  N_36
                            x       y       z     vdW  Elec       q    Type
                         _______ _______ _______ _____ _____    ______ ____

>  <TORSDO>
F 6

$$$$
=
 OpenBabel10232412093D

 39 44  0  0  1  0  0  0  0  0999 V2000
  186.1300  178.9700  138.1390 N   0  0  0  0  0  0  0  0  0  0  0  0
  188.0970  177.7960  137.4890 N   0  0  0  0  0  2  0  0  0  0  0  0
  186.0280  174.5100  136.8970 O   0  0  0  0  0  0  0  0  0  0  0  0
  186.6760  177.9430  137.5780 C   0  0  0  0  0  0  0  0  0  0  0  0
  185.8590  175.7340  136.9750 C   0  0  0  0  0  0  0  0  0  0  0  0
  185.6790  177.0270  137.0530 C   0  0  0  0  0  0  0  0  0  0  0  0
  184.4150  177.6090  137.3470 N   0  0  0  0  0  0  0  0  0  0  0  0
  184.6720  178.8590  138.0630 C   0  0  1  0  0  3  0  0  0  0  0  0
  185.3650  178.8180  143.0080 C   0  0  0  0  0  2  0  0  0  0  0  0
  182.6940  178.8220  139.6330 C   0  0  0  0  0  3  0  0  0  0  0  0
  184.0820  178.8200  139.4410 C   0  0  0  0  0  0  0  0  0  0  0  0
  184.7040  178.4060  144.3210 C   0  0  0  0  0  2  0  0  0  0  0  0
  184.4140  178.7650  141.8450 C   0  0  0  0  0  0  0  0  0  0  0  0
  182.1650  178.8060  140.9250 C   0  0  0  0  0  3  0  0  0  0  0  0
  184.9360  178.7960  140.5470 C   0  0  0  0  0  3  0  0  0  0  0  0
  183.3900  179.1530  144.4910 C   0  0  0  0  0  2  0  0  0  0  0  0
  183.0140  178.7950  142.0360 C   0  0  0  0  0  0  0  0  0  0  0  0
  182.4090  178.7170  143.4080 C   0  0  0  0  0  2  0  0  0  0  0  0
  182.1390  175.4590  138.5340 C   0  0  2  0  0  3  0  0  0  0  0  0
  181.2960  176.9980  135.3910 O   0  0  0  0  0  0  0  0  0  0  0  0
  182.5540  177.6900  135.4930 C   0  0  0  0  0  2  0  0  0  0  0  0
  181.1930  176.2230  136.5240 C   0  0  0  0  0  0  0  0  0  0  0  0
  180.2780  175.4020  136.8950 N   0  0  0  0  0  0  0  0  0  0  0  0
  180.1500  174.0660  138.8410 O   0  0  0  0  0  0  0  0  0  0  0  0
  183.1880  174.3600  138.4750 C   0  0  0  0  0  1  0  0  0  0  0  0
  183.1300  177.2260  136.8260 C   0  0  0  0  0  0  0  0  0  0  0  0
  180.7870  174.8980  138.1420 C   0  0  0  0  0  0  0  0  0  0  0  0
  182.2880  176.3620  137.3700 C   0  0  0  0  0  0  0  0  0  0  0  0
  188.7520  176.7510  136.7120 C   0  0  0  0  0  2  0  0  0  0  0  0
  190.8020  177.0360  139.4420 C   0  0  0  0  0  0  0  0  0  0  0  0
  190.0840  175.3710  138.2060 N   0  0  0  0  0  2  0  0  0  0  0  0
  191.2540  177.7510  140.5920 N   0  0  0  0  0  2  0  0  0  0  0  0
  190.5000  175.7870  139.4700 N   0  0  0  0  0  0  0  0  0  0  0  0
  190.1420  176.4760  137.2640 C   0  0  2  0  0  3  0  0  0  0  0  0
  190.6230  177.6620  138.1040 C   0  0  0  0  0  2  0  0  0  0  0  0
  191.4740  177.0890  141.8690 C   0  0  0  0  0  2  0  0  0  0  0  0
  190.5450  177.6510  142.9370 C   0  0  1  0  0  3  0  0  0  0  0  0
  191.2030  178.7920  143.6900 C   0  0  0  0  0  1  0  0  0  0  0  0
  189.3510  178.0880  142.3580 O   0  0  0  0  0  1  0  0  0  0  0  0
  2  4  1  0  0  0  0
  3  5  2  0  0  0  0
  4  1  2  0  0  0  0
  5  6  2  0  0  0  0
  6  7  1  0  0  0  0
  6  4  1  0  0  0  0
  7  8  1  0  0  0  0
  8  1  1  0  0  0  0
  8 11  1  1  0  0  0
  9 12  1  0  0  0  0
 10 14  1  0  0  0  0
 11 10  2  0  0  0  0
 11 15  1  0  0  0  0
 12 16  1  0  0  0  0
 13 17  1  0  0  0  0
 13  9  1  0  0  0  0
 14 17  2  0  0  0  0
 15 13  2  0  0  0  0
 17 18  1  0  0  0  0
 18 16  1  0  0  0  0
 19 25  1  6  0  0  0
 20 21  1  0  0  0  0
 20 22  1  0  0  0  0
 21 26  1  0  0  0  0
 22 23  2  0  0  0  0
 22 28  1  0  0  0  0
 23 27  1  0  0  0  0
 26  7  1  0  0  0  0
 26 28  2  0  0  0  0
 27 19  1  0  0  0  0
 27 24  2  0  0  0  0
 28 19  1  0  0  0  0
 29  2  1  0  0  0  0
 30 33  2  0  0  0  0
 30 32  1  0  0  0  0
 31 33  1  0  0  0  0
 32 36  1  0  0  0  0
 34 29  1  1  0  0  0
 34 35  1  0  0  0  0
 34 31  1  0  0  0  0
 35 30  1  0  0  0  0
 36 37  1  0  0  0  0
 37 38  1  6  0  0  0
 39 37  1  0  0  0  0
M  END
>  <MODEL>
7

>  <REMARK>
 VINA RESULT:      -6.7      1.225      2.042
  Name = 
  6 active torsions:
  status: ('A' for Active; 'I' for Inactive)
    1  A    between atoms: C_6  and  C_33
    2  A    between atoms: N_8  and  C_33
    3  A    between atoms: N_9  and  C_14
    4  A    between atoms: C_13  and  C_37
    5  A    between atoms: C_14  and  C_30
    6  A    between atoms: C_23  and  N_36
                            x       y       z     vdW  Elec       q    Type
                         _______ _______ _______ _____ _____    ______ ____

>  <TORSDO>
F 6

$$$$
=
 OpenBabel10232412093D

 39 44  0  0  1  0  0  0  0  0999 V2000
  187.4500  178.5820  137.9350 N   0  0  0  0  0  0  0  0  0  0  0  0
  189.4380  177.2930  137.7030 N   0  0  0  0  0  2  0  0  0  0  0  0
  187.3400  174.0670  136.9130 O   0  0  0  0  0  0  0  0  0  0  0  0
  188.0330  177.5030  137.5310 C   0  0  0  0  0  0  0  0  0  0  0  0
  187.2230  175.2990  136.9010 C   0  0  0  0  0  0  0  0  0  0  0  0
  187.0980  176.6010  136.8820 C   0  0  0  0  0  0  0  0  0  0  0  0
  185.8330  177.2500  136.9190 N   0  0  0  0  0  0  0  0  0  0  0  0
  186.0240  178.5270  137.6070 C   0  0  1  0  0  3  0  0  0  0  0  0
  185.8260  178.5190  142.5970 C   0  0  0  0  0  2  0  0  0  0  0  0
  183.8110  178.7620  138.8020 C   0  0  0  0  0  3  0  0  0  0  0  0
  185.2010  178.5900  138.8590 C   0  0  0  0  0  0  0  0  0  0  0  0
  184.9000  178.2200  143.7720 C   0  0  0  0  0  2  0  0  0  0  0  0
  185.0950  178.5530  141.2840 C   0  0  0  0  0  0  0  0  0  0  0  0
  183.0640  178.8390  139.9790 C   0  0  0  0  0  3  0  0  0  0  0  0
  185.8370  178.4910  140.0990 C   0  0  0  0  0  3  0  0  0  0  0  0
  183.6770  179.1220  143.7060 C   0  0  0  0  0  2  0  0  0  0  0  0
  183.6970  178.7530  141.2230 C   0  0  0  0  0  0  0  0  0  0  0  0
  182.8560  178.7800  142.4660 C   0  0  0  0  0  2  0  0  0  0  0  0
  183.2180  175.3700  137.8330 C   0  0  2  0  0  3  0  0  0  0  0  0
  183.0940  176.6260  134.4630 O   0  0  0  0  0  0  0  0  0  0  0  0
  184.3600  177.2490  134.7420 C   0  0  0  0  0  2  0  0  0  0  0  0
  182.7230  175.9780  135.6190 C   0  0  0  0  0  0  0  0  0  0  0  0
  181.6950  175.2540  135.8800 N   0  0  0  0  0  0  0  0  0  0  0  0
  181.1050  174.1350  137.8760 O   0  0  0  0  0  0  0  0  0  0  0  0
  184.1720  174.2120  138.0760 C   0  0  0  0  0  1  0  0  0  0  0  0
  184.6420  176.8910  136.1960 C   0  0  0  0  0  0  0  0  0  0  0  0
  181.9230  174.8520  137.2410 C   0  0  0  0  0  0  0  0  0  0  0  0
  183.6490  176.1390  136.6440 C   0  0  0  0  0  0  0  0  0  0  0  0
  190.1650  176.1790  137.1060 C   0  0  0  0  0  2  0  0  0  0  0  0
  193.3310  174.9260  137.4900 C   0  0  0  0  0  0  0  0  0  0  0  0
  192.2110  176.6050  138.3500 N   0  0  0  0  0  2  0  0  0  0  0  0
  194.4360  174.1620  137.0070 N   0  0  0  0  0  2  0  0  0  0  0  0
  193.4570  176.1110  137.9710 N   0  0  0  0  0  0  0  0  0  0  0  0
  191.1750  175.6180  138.0950 C   0  0  2  0  0  3  0  0  0  0  0  0
  191.9250  174.4370  137.4740 C   0  0  0  0  0  2  0  0  0  0  0  0
  195.8040  174.6510  137.0950 C   0  0  0  0  0  2  0  0  0  0  0  0
  196.5950  173.8590  138.1280 C   0  0  1  0  0  3  0  0  0  0  0  0
  197.8130  174.6340  138.5960 C   0  0  0  0  0  1  0  0  0  0  0  0
  195.7840  173.5420  139.2200 O   0  0  0  0  0  1  0  0  0  0  0  0
  4  2  1  0  0  0  0
  4  1  2  0  0  0  0
  5  3  2  0  0  0  0
  6  5  2  0  0  0  0
  6  7  1  0  0  0  0
  6  4  1  0  0  0  0
  7  8  1  0  0  0  0
  8  1  1  0  0  0  0
  8 11  1  1  0  0  0
  9 12  1  0  0  0  0
 10 11  2  0  0  0  0
 10 14  1  0  0  0  0
 11 15  1  0  0  0  0
 13  9  1  0  0  0  0
 14 17  2  0  0  0  0
 15 13  2  0  0  0  0
 16 12  1  0  0  0  0
 17 13  1  0  0  0  0
 17 18  1  0  0  0  0
 18 16  1  0  0  0  0
 19 25  1  6  0  0  0
 20 21  1  0  0  0  0
 20 22  1  0  0  0  0
 21 26  1  0  0  0  0
 22 23  2  0  0  0  0
 22 28  1  0  0  0  0
 23 27  1  0  0  0  0
 26 28  2  0  0  0  0
 26  7  1  0  0  0  0
 27 19  1  0  0  0  0
 27 24  2  0  0  0  0
 28 19  1  0  0  0  0
 29  2  1  0  0  0  0
 30 33  2  0  0  0  0
 32 36  1  0  0  0  0
 32 30  1  0  0  0  0
 33 31  1  0  0  0  0
 34 29  1  6  0  0  0
 34 31  1  0  0  0  0
 35 30  1  0  0  0  0
 35 34  1  0  0  0  0
 36 37  1  0  0  0  0
 37 38  1  1  0  0  0
 37 39  1  0  0  0  0
M  END
>  <MODEL>
8

>  <REMARK>
 VINA RESULT:      -6.7      3.214      4.071
  Name = 
  6 active torsions:
  status: ('A' for Active; 'I' for Inactive)
    1  A    between atoms: C_6  and  C_33
    2  A    between atoms: N_8  and  C_33
    3  A    between atoms: N_9  and  C_14
    4  A    between atoms: C_13  and  C_37
    5  A    between atoms: C_14  and  C_30
    6  A    between atoms: C_23  and  N_36
                            x       y       z     vdW  Elec       q    Type
                         _______ _______ _______ _____ _____    ______ ____

>  <TORSDO>
F 6

$$$$
=
 OpenBabel10232412093D

 39 44  0  0  1  0  0  0  0  0999 V2000
  192.6730  177.6620  140.4490 N   0  0  0  0  0  0  0  0  0  0  0  0
  193.6110  176.4160  138.6490 N   0  0  0  0  0  2  0  0  0  0  0  0
  190.1780  174.6190  138.0070 O   0  0  0  0  0  0  0  0  0  0  0  0
  192.5050  176.9220  139.4040 C   0  0  0  0  0  0  0  0  0  0  0  0
  190.6260  175.6400  138.5460 C   0  0  0  0  0  0  0  0  0  0  0  0
  191.0970  176.7210  139.1110 C   0  0  0  0  0  0  0  0  0  0  0  0
  190.3810  177.4390  140.1090 N   0  0  0  0  0  0  0  0  0  0  0  0
  191.3720  178.0450  140.9980 C   0  0  1  0  0  3  0  0  0  0  0  0
  189.1930  178.3940  145.4780 C   0  0  0  0  0  2  0  0  0  0  0  0
  191.9340  176.3970  142.8270 C   0  0  0  0  0  3  0  0  0  0  0  0
  191.2260  177.5270  142.3970 C   0  0  0  0  0  0  0  0  0  0  0  0
  189.3860  178.0400  146.9500 C   0  0  0  0  0  2  0  0  0  0  0  0
  190.1950  177.7130  144.5870 C   0  0  0  0  0  0  0  0  0  0  0  0
  191.7690  175.9180  144.1280 C   0  0  0  0  0  3  0  0  0  0  0  0
  190.3560  178.1770  143.2770 C   0  0  0  0  0  3  0  0  0  0  0  0
  189.5090  176.5330  147.1050 C   0  0  0  0  0  2  0  0  0  0  0  0
  190.8900  176.5570  145.0090 C   0  0  0  0  0  0  0  0  0  0  0  0
  190.7840  176.0500  146.4190 C   0  0  0  0  0  2  0  0  0  0  0  0
  188.1900  177.7150  137.5920 C   0  0  2  0  0  3  0  0  0  0  0  0
  186.8630  178.4340  140.8600 O   0  0  0  0  0  0  0  0  0  0  0  0
  188.1830  178.1530  141.3610 C   0  0  0  0  0  2  0  0  0  0  0  0
  186.9220  178.2420  139.4980 C   0  0  0  0  0  0  0  0  0  0  0  0
  186.0230  178.3900  138.5930 N   0  0  0  0  0  0  0  0  0  0  0  0
  186.1700  178.0750  136.2550 O   0  0  0  0  0  0  0  0  0  0  0  0
  189.0700  178.7930  136.9810 C   0  0  0  0  0  1  0  0  0  0  0  0
  188.9780  177.7610  140.1210 C   0  0  0  0  0  0  0  0  0  0  0  0
  186.7300  178.0670  137.3830 C   0  0  0  0  0  0  0  0  0  0  0  0
  188.1830  177.8450  139.0670 C   0  0  0  0  0  0  0  0  0  0  0  0
  193.4680  175.7330  137.3690 C   0  0  0  0  0  2  0  0  0  0  0  0
  195.2680  172.8270  137.6050 C   0  0  0  0  0  0  0  0  0  0  0  0
  194.5140  174.0560  135.9520 N   0  0  0  0  0  2  0  0  0  0  0  0
  195.6750  171.6690  138.3340 N   0  0  0  0  0  2  0  0  0  0  0  0
  194.8450  172.7770  136.3920 N   0  0  0  0  0  0  0  0  0  0  0  0
  194.7670  175.0340  136.9970 C   0  0  2  0  0  3  0  0  0  0  0  0
  195.2770  174.2010  138.1750 C   0  0  0  0  0  2  0  0  0  0  0  0
  195.7080  170.3490  137.7220 C   0  0  0  0  0  2  0  0  0  0  0  0
  194.6110  169.4600  138.2930 C   0  0  1  0  0  3  0  0  0  0  0  0
  194.3710  168.2510  137.4090 C   0  0  0  0  0  1  0  0  0  0  0  0
  194.9470  169.0480  139.5850 O   0  0  0  0  0  1  0  0  0  0  0  0
  1  8  1  0  0  0  0
  2  4  1  0  0  0  0
  3  5  2  0  0  0  0
  4  1  2  0  0  0  0
  5  6  2  0  0  0  0
  6  4  1  0  0  0  0
  6  7  1  0  0  0  0
  7 26  1  0  0  0  0
  7  8  1  0  0  0  0
  8 11  1  1  0  0  0
  9 12  1  0  0  0  0
 10 14  1  0  0  0  0
 11 10  2  0  0  0  0
 11 15  1  0  0  0  0
 12 16  1  0  0  0  0
 13 17  1  0  0  0  0
 13  9  1  0  0  0  0
 14 17  2  0  0  0  0
 15 13  2  0  0  0  0
 17 18  1  0  0  0  0
 18 16  1  0  0  0  0
 19 25  1  6  0  0  0
 19 28  1  0  0  0  0
 20 21  1  0  0  0  0
 22 20  1  0  0  0  0
 23 22  2  0  0  0  0
 24 27  2  0  0  0  0
 26 21  1  0  0  0  0
 27 19  1  0  0  0  0
 27 23  1  0  0  0  0
 28 22  1  0  0  0  0
 28 26  2  0  0  0  0
 29  2  1  0  0  0  0
 30 35  1  0  0  0  0
 30 32  1  0  0  0  0
 31 33  1  0  0  0  0
 31 34  1  0  0  0  0
 33 30  2  0  0  0  0
 34 29  1  1  0  0  0
 34 35  1  0  0  0  0
 36 37  1  0  0  0  0
 36 32  1  0  0  0  0
 37 38  1  6  0  0  0
 37 39  1  0  0  0  0
M  END
>  <MODEL>
9

>  <REMARK>
 VINA RESULT:      -6.6      4.556      7.345
  Name = 
  6 active torsions:
  status: ('A' for Active; 'I' for Inactive)
    1  A    between atoms: C_6  and  C_33
    2  A    between atoms: N_8  and  C_33
    3  A    between atoms: N_9  and  C_14
    4  A    between atoms: C_13  and  C_37
    5  A    between atoms: C_14  and  C_30
    6  A    between atoms: C_23  and  N_36
                            x       y       z     vdW  Elec       q    Type
                         _______ _______ _______ _____ _____    ______ ____

>  <TORSDO>
F 6

$$$$
