=
 OpenBabel10232412213D

 51 57  0  0  1  0  0  0  0  0999 V2000
  188.4120  178.3760  145.4650 N   0  0  0  0  0  0  0  0  0  0  0  0
  188.6090  177.3690  144.4550 N   0  0  2  0  0  0  0  0  0  0  0  0
  192.6870  178.5340  140.3430 O   0  0  0  0  0  0  0  0  0  0  0  0
  193.1060  176.6360  138.8630 O   0  0  0  0  0  0  0  0  0  0  0  0
  189.0630  175.9150  142.0050 C   0  0  0  0  0  1  0  0  0  0  0  0
  187.0930  177.6620  139.7420 C   0  0  0  0  0  2  0  0  0  0  0  0
  189.6460  177.8240  143.6310 N   0  0  0  0  0  2  0  0  0  0  0  0
  188.3150  177.9460  138.8780 C   0  0  2  0  0  3  0  0  0  0  0  0
  185.7120  180.2320  141.8970 F   0  0  0  0  0  0  0  0  0  0  0  0
  184.6010  178.3960  142.9490 C   0  0  0  0  0  2  0  0  0  0  0  0
  185.5240  178.8620  141.8320 C   0  0  1  0  0  3  0  0  0  0  0  0
  187.5520  178.3100  144.3120 C   0  0  1  0  0  3  0  0  0  0  0  0
  190.6340  177.6950  138.8180 C   0  0  2  0  0  3  0  0  0  0  0  0
  190.0960  176.7060  142.8060 C   0  0  2  0  0  0  0  0  0  0  0  0
  192.0890  177.2770  139.7670 S   0  0  0  0  0  0  0  0  0  0  0  0
  188.4670  176.6420  137.6210 S   0  0  0  0  0  0  0  0  0  0  0  0
  184.9620  178.4460  140.4680 C   0  0  2  0  0  3  0  0  0  0  0  0
  189.5130  177.9580  139.7060 N   0  0  0  0  0  2  0  0  0  0  0  0
  191.5040  176.8850  142.2670 C   0  0  1  0  0  3  0  0  0  0  0  0
  185.2310  178.6310  144.3130 C   0  0  0  0  0  2  0  0  0  0  0  0
  185.9850  178.5580  139.4100 N   0  0  0  0  0  0  0  0  0  0  0  0
  191.2260  175.9060  143.4050 C   0  0  0  0  0  2  0  0  0  0  0  0
  186.2720  177.6500  144.5590 N   0  0  0  0  0  2  0  0  0  0  0  0
  185.4050  178.0600  138.1620 C   0  0  0  0  0  1  0  0  0  0  0  0
  190.2610  176.5650  137.8790 C   0  0  1  0  0  3  0  0  0  0  0  0
  191.6880  176.1490  141.0250 N   0  0  0  0  0  2  0  0  0  0  0  0
  183.7230  179.2990  140.1560 C   0  0  0  0  0  2  0  0  0  0  0  0
  179.9850  175.4480  139.8030 C   0  0  0  0  0  1  0  0  0  0  0  0
  182.4980  178.4540  139.9280 C   0  0  0  0  0  0  0  0  0  0  0  0
  181.1770  178.9200  139.8780 C   0  0  0  0  0  0  0  0  0  0  0  0
  180.7830  176.7010  139.8760 C   0  0  0  0  0  0  0  0  0  0  0  0
  182.4590  176.7650  139.9670 S   0  0  0  0  0  0  0  0  0  0  0  0
  180.2350  177.9360  139.8310 N   0  0  0  0  0  0  0  0  0  0  0  0
  180.7960  180.3460  139.8020 C   0  0  0  0  0  0  0  0  0  0  0  0
  180.1710  180.8830  140.7550 O   0  0  0  0  0  0  0  0  0  0  0  0
  181.2020  181.1560  138.6960 N   0  0  0  0  0  2  0  0  0  0  0  0
  179.9820  179.6420  137.0760 C   0  0  0  0  0  2  0  0  0  0  0  0
  181.4360  179.7830  136.6420 C   0  0  0  0  0  2  0  0  0  0  0  0
  180.7340  180.9240  137.3340 C   0  0  0  0  0  0  0  0  0  0  0  0
  180.4020  182.1210  136.4620 C   0  0  0  0  0  1  0  0  0  0  0  0
  190.9860  176.7280  136.5560 C   0  0  0  0  0  2  0  0  0  0  0  0
  191.9450  174.8680  135.5380 C   0  0  0  0  0  1  0  0  0  0  0  0
  190.7020  175.5980  135.6890 N   0  0  0  0  0  2  0  0  0  0  0  0
  187.8870  177.6830  146.6390 C   0  0  0  0  0  2  0  0  0  0  0  0
  188.9660  177.5820  147.7100 C   0  0  1  0  0  3  0  0  0  0  0  0
  188.3930  177.7070  148.9730 O   0  0  0  0  0  1  0  0  0  0  0  0
  189.7660  176.2780  147.6000 C   0  0  0  0  0  2  0  0  0  0  0  0
  191.5530  177.6940  146.5140 O   0  0  0  0  0  1  0  0  0  0  0  0
  192.0160  175.2880  146.7300 C   0  0  0  0  0  2  0  0  0  0  0  0
  191.2060  176.4960  147.1410 C   0  0  0  0  0  0  0  0  0  0  0  0
  192.2710  175.9660  148.0730 C   0  0  0  0  0  2  0  0  0  0  0  0
  1 44  1  0  0  0  0
  2  7  1  6  0  0  0
  2  1  1  0  0  0  0
  4 15  2  0  0  0  0
  8 18  1  0  0  0  0
  8  6  1  1  0  0  0
 10 20  1  0  0  0  0
 11  9  1  6  0  0  0
 11 10  1  0  0  0  0
 12  2  1  0  0  0  0
 12 23  1  1  0  0  0
 12  1  1  0  0  0  0
 13 18  1  1  0  0  0
 13 15  1  0  0  0  0
 14  5  1  6  0  0  0
 14 22  1  0  0  0  0
 14  7  1  0  0  0  0
 15  3  2  0  0  0  0
 15 26  1  0  0  0  0
 16 25  1  0  0  0  0
 16  8  1  0  0  0  0
 17 27  1  6  0  0  0
 17 11  1  0  0  0  0
 19 14  1  0  0  0  0
 19 22  1  1  0  0  0
 20 23  1  0  0  0  0
 21  6  1  0  0  0  0
 21 17  1  0  0  0  0
 24 21  1  0  0  0  0
 25 41  1  6  0  0  0
 25 13  1  0  0  0  0
 26 19  1  0  0  0  0
 28 31  1  0  0  0  0
 29 32  1  0  0  0  0
 29 27  1  0  0  0  0
 30 29  2  0  0  0  0
 31 32  1  0  0  0  0
 33 31  2  0  0  0  0
 33 30  1  0  0  0  0
 34 30  1  0  0  0  0
 34 35  2  0  0  0  0
 36 34  1  0  0  0  0
 37 39  1  0  0  0  0
 38 37  1  0  0  0  0
 38 39  1  0  0  0  0
 39 36  1  0  0  0  0
 40 39  1  0  0  0  0
 42 43  1  0  0  0  0
 43 41  1  0  0  0  0
 44 45  1  0  0  0  0
 45 46  1  1  0  0  0
 47 45  1  0  0  0  0
 48 50  1  0  0  0  0
 49 50  1  0  0  0  0
 49 51  1  0  0  0  0
 50 47  1  0  0  0  0
 50 51  1  0  0  0  0
M  END
>  <MODEL>
1

>  <REMARK>
 VINA RESULT:      -6.1      0.000      0.000
  Name = 
  10 active torsions:
  status: ('A' for Active; 'I' for Inactive)
    1  A    between atoms: N_1  and  C_37
    2  A    between atoms: C_9  and  C_17
    3  A    between atoms: C_9  and  C_37
    4  A    between atoms: C_11  and  C_35
    5  A    between atoms: C_17  and  C_28
    6  A    between atoms: C_25  and  C_31
    7  A    between atoms: C_31  and  C_34
    8  A    between atoms: C_32  and  N_38
    9  A    between atoms: C_32  and  C_49
   10  A    between atoms: N_33  and  C_36
                            x       y       z     vdW  Elec       q    Type
                         _______ _______ _______ _____ _____    ______ ____

>  <TORSDO>
F 10

$$$$
=
 OpenBabel10232412213D

 51 57  0  0  1  0  0  0  0  0999 V2000
  190.6070  175.9740  136.3360 N   0  0  0  0  0  0  0  0  0  0  0  0
  189.3070  175.4790  136.7070 N   0  0  2  0  0  0  0  0  0  0  0  0
  184.6640  178.2660  134.3460 O   0  0  0  0  0  0  0  0  0  0  0  0
  182.5430  177.1580  134.8410 O   0  0  0  0  0  0  0  0  0  0  0  0
  186.5380  175.1790  137.4620 C   0  0  0  0  0  1  0  0  0  0  0  0
  186.1430  177.7020  139.8140 C   0  0  0  0  0  2  0  0  0  0  0  0
  188.3700  176.2410  135.9960 N   0  0  0  0  0  2  0  0  0  0  0  0
  185.0320  178.3240  138.9780 C   0  0  2  0  0  3  0  0  0  0  0  0
  189.4750  179.1360  139.8270 F   0  0  0  0  0  0  0  0  0  0  0  0
  190.1050  177.0250  140.7520 C   0  0  0  0  0  2  0  0  0  0  0  0
  188.9770  177.9160  140.2540 C   0  0  1  0  0  3  0  0  0  0  0  0
  189.9820  176.3910  137.5650 C   0  0  1  0  0  3  0  0  0  0  0  0
  183.9300  178.1300  136.9320 C   0  0  2  0  0  3  0  0  0  0  0  0
  187.0750  175.5690  136.0850 C   0  0  2  0  0  0  0  0  0  0  0  0
  183.9550  177.3610  135.3190 S   0  0  0  0  0  0  0  0  0  0  0  0
  183.4330  177.6620  139.5340 S   0  0  0  0  0  0  0  0  0  0  0  0
  187.9220  178.1040  141.3490 C   0  0  2  0  0  3  0  0  0  0  0  0
  185.2270  177.9950  137.5740 N   0  0  0  0  0  2  0  0  0  0  0  0
  186.1170  175.9610  134.9760 C   0  0  1  0  0  3  0  0  0  0  0  0
  191.0640  176.6730  139.6240 C   0  0  0  0  0  2  0  0  0  0  0  0
  186.6670  178.6510  140.7970 N   0  0  0  0  0  0  0  0  0  0  0  0
  186.8000  174.5960  134.9650 C   0  0  0  0  0  2  0  0  0  0  0  0
  190.4640  175.6830  138.7480 N   0  0  0  0  0  2  0  0  0  0  0  0
  185.6840  178.7140  141.8790 C   0  0  0  0  0  1  0  0  0  0  0  0
  182.8770  177.4920  137.8160 C   0  0  1  0  0  3  0  0  0  0  0  0
  184.7320  175.8100  135.4000 N   0  0  0  0  0  2  0  0  0  0  0  0
  188.5000  179.0050  142.4510 C   0  0  0  0  0  2  0  0  0  0  0  0
  191.8960  176.9920  146.1050 C   0  0  0  0  0  1  0  0  0  0  0  0
  189.2280  178.2120  143.5040 C   0  0  0  0  0  0  0  0  0  0  0  0
  188.6320  177.3860  144.4670 C   0  0  0  0  0  0  0  0  0  0  0  0
  190.7510  177.3770  145.2370 C   0  0  0  0  0  0  0  0  0  0  0  0
  190.8620  178.3860  143.8980 S   0  0  0  0  0  0  0  0  0  0  0  0
  189.4930  176.9140  145.4130 N   0  0  0  0  0  0  0  0  0  0  0  0
  187.2140  176.9710  144.4520 C   0  0  0  0  0  0  0  0  0  0  0  0
  186.6970  176.5340  143.3900 O   0  0  0  0  0  0  0  0  0  0  0  0
  186.4350  176.9750  145.6510 N   0  0  0  0  0  2  0  0  0  0  0  0
  184.6440  178.5600  146.4780 C   0  0  0  0  0  2  0  0  0  0  0  0
  185.5490  179.2880  145.4920 C   0  0  0  0  0  2  0  0  0  0  0  0
  186.1050  178.1990  146.3740 C   0  0  0  0  0  0  0  0  0  0  0  0
  187.0230  178.6580  147.4900 C   0  0  0  0  0  1  0  0  0  0  0  0
  181.5440  178.1940  137.6260 C   0  0  0  0  0  2  0  0  0  0  0  0
  180.9200  180.4340  137.7190 C   0  0  0  0  0  1  0  0  0  0  0  0
  181.4550  179.3420  138.5100 N   0  0  0  0  0  2  0  0  0  0  0  0
  191.5310  174.8530  136.4880 C   0  0  0  0  0  2  0  0  0  0  0  0
  192.8800  175.2020  135.8730 C   0  0  1  0  0  3  0  0  0  0  0  0
  192.7220  176.2090  134.9250 O   0  0  0  0  0  1  0  0  0  0  0  0
  193.9100  175.6060  136.9340 C   0  0  0  0  0  2  0  0  0  0  0  0
  196.3990  175.1940  137.0350 O   0  0  0  0  0  1  0  0  0  0  0  0
  194.9840  173.3040  136.3480 C   0  0  0  0  0  2  0  0  0  0  0  0
  195.1090  174.6630  136.9960 C   0  0  0  0  0  0  0  0  0  0  0  0
  194.9280  173.4400  137.8660 C   0  0  0  0  0  2  0  0  0  0  0  0
  1 44  1  0  0  0  0
  1  2  1  0  0  0  0
  1 12  1  0  0  0  0
  2  7  1  6  0  0  0
  2 12  1  0  0  0  0
  3 15  2  0  0  0  0
  4 15  2  0  0  0  0
  6 21  1  0  0  0  0
  7 14  1  0  0  0  0
  8 16  1  0  0  0  0
  8  6  1  1  0  0  0
 11  9  1  1  0  0  0
 11 10  1  0  0  0  0
 11 17  1  0  0  0  0
 12 23  1  1  0  0  0
 13 18  1  1  0  0  0
 13 25  1  0  0  0  0
 14  5  1  1  0  0  0
 15 26  1  0  0  0  0
 15 13  1  0  0  0  0
 17 27  1  1  0  0  0
 18  8  1  0  0  0  0
 19 22  1  6  0  0  0
 19 26  1  0  0  0  0
 19 14  1  0  0  0  0
 20 10  1  0  0  0  0
 21 17  1  0  0  0  0
 21 24  1  0  0  0  0
 22 14  1  0  0  0  0
 23 20  1  0  0  0  0
 25 41  1  1  0  0  0
 25 16  1  0  0  0  0
 27 29  1  0  0  0  0
 29 32  1  0  0  0  0
 29 30  2  0  0  0  0
 30 33  1  0  0  0  0
 31 33  2  0  0  0  0
 31 28  1  0  0  0  0
 32 31  1  0  0  0  0
 34 30  1  0  0  0  0
 34 36  1  0  0  0  0
 35 34  2  0  0  0  0
 36 39  1  0  0  0  0
 38 39  1  0  0  0  0
 38 37  1  0  0  0  0
 39 37  1  0  0  0  0
 39 40  1  0  0  0  0
 41 43  1  0  0  0  0
 42 43  1  0  0  0  0
 45 46  1  6  0  0  0
 45 44  1  0  0  0  0
 45 47  1  0  0  0  0
 47 50  1  0  0  0  0
 49 50  1  0  0  0  0
 49 51  1  0  0  0  0
 50 48  1  0  0  0  0
 50 51  1  0  0  0  0
M  END
>  <MODEL>
2

>  <REMARK>
 VINA RESULT:      -5.4      3.070      9.081
  Name = 
  10 active torsions:
  status: ('A' for Active; 'I' for Inactive)
    1  A    between atoms: N_1  and  C_37
    2  A    between atoms: C_9  and  C_17
    3  A    between atoms: C_9  and  C_37
    4  A    between atoms: C_11  and  C_35
    5  A    between atoms: C_17  and  C_28
    6  A    between atoms: C_25  and  C_31
    7  A    between atoms: C_31  and  C_34
    8  A    between atoms: C_32  and  N_38
    9  A    between atoms: C_32  and  C_49
   10  A    between atoms: N_33  and  C_36
                            x       y       z     vdW  Elec       q    Type
                         _______ _______ _______ _____ _____    ______ ____

>  <TORSDO>
F 10

$$$$
=
 OpenBabel10232412213D

 51 57  0  0  1  0  0  0  0  0999 V2000
  186.8820  177.6570  143.0860 N   0  0  0  0  0  0  0  0  0  0  0  0
  186.0930  178.4050  142.1430 N   0  0  2  0  0  0  0  0  0  0  0  0
  181.3740  175.6500  139.8970 O   0  0  0  0  0  0  0  0  0  0  0  0
  179.9820  177.1200  138.5290 O   0  0  0  0  0  0  0  0  0  0  0  0
  184.4720  179.2780  139.9210 C   0  0  0  0  0  1  0  0  0  0  0  0
  185.9830  177.6730  137.2380 C   0  0  0  0  0  2  0  0  0  0  0  0
  185.0100  177.5900  141.7890 N   0  0  0  0  0  2  0  0  0  0  0  0
  184.6730  176.9720  136.9030 C   0  0  2  0  0  3  0  0  0  0  0  0
  188.6520  175.8960  138.9350 F   0  0  0  0  0  0  0  0  0  0  0  0
  189.4950  178.0890  139.3660 C   0  0  0  0  0  2  0  0  0  0  0  0
  188.4220  177.2410  138.7010 C   0  0  1  0  0  3  0  0  0  0  0  0
  187.2590  177.7230  141.6980 C   0  0  1  0  0  3  0  0  0  0  0  0
  182.4910  176.6680  137.6700 C   0  0  2  0  0  3  0  0  0  0  0  0
  184.0220  178.4170  141.1010 C   0  0  2  0  0  0  0  0  0  0  0  0
  181.3760  176.8940  139.0480 S   0  0  0  0  0  0  0  0  0  0  0  0
  183.7600  177.9740  135.6900 S   0  0  0  0  0  0  0  0  0  0  0  0
  188.3630  177.5370  137.1980 C   0  0  2  0  0  3  0  0  0  0  0  0
  183.8690  176.8250  138.1070 N   0  0  0  0  0  2  0  0  0  0  0  0
  182.6230  177.8290  141.1270 C   0  0  1  0  0  3  0  0  0  0  0  0
  189.4420  177.9500  140.8800 C   0  0  0  0  0  2  0  0  0  0  0  0
  187.1210  177.0130  136.5960 N   0  0  0  0  0  0  0  0  0  0  0  0
  182.9800  179.0250  142.0070 C   0  0  0  0  0  2  0  0  0  0  0  0
  188.3130  178.6920  141.4110 N   0  0  0  0  0  2  0  0  0  0  0  0
  187.0940  177.4130  135.1890 C   0  0  0  0  0  1  0  0  0  0  0  0
  182.2060  177.6770  136.5760 C   0  0  1  0  0  3  0  0  0  0  0  0
  181.8430  178.2810  139.9830 N   0  0  0  0  0  2  0  0  0  0  0  0
  189.6130  176.9520  136.5230 C   0  0  0  0  0  2  0  0  0  0  0  0
  188.7210  171.7830  135.3340 C   0  0  0  0  0  1  0  0  0  0  0  0
  189.5580  175.4500  136.4390 C   0  0  0  0  0  0  0  0  0  0  0  0
  190.5570  174.5660  136.8710 C   0  0  0  0  0  0  0  0  0  0  0  0
  189.2110  173.1050  135.8070 C   0  0  0  0  0  0  0  0  0  0  0  0
  188.4160  174.5640  135.5630 S   0  0  0  0  0  0  0  0  0  0  0  0
  190.3430  173.2650  136.5290 N   0  0  0  0  0  0  0  0  0  0  0  0
  191.7190  174.9570  137.6970 C   0  0  0  0  0  0  0  0  0  0  0  0
  191.5520  175.6660  138.7240 O   0  0  0  0  0  0  0  0  0  0  0  0
  193.0290  174.4680  137.3980 N   0  0  0  0  0  2  0  0  0  0  0  0
  193.7220  173.8020  135.0570 C   0  0  0  0  0  2  0  0  0  0  0  0
  194.9630  173.9710  135.9240 C   0  0  0  0  0  2  0  0  0  0  0  0
  193.7410  174.8160  136.1720 C   0  0  0  0  0  0  0  0  0  0  0  0
  193.8600  176.2790  135.7890 C   0  0  0  0  0  1  0  0  0  0  0  0
  181.1590  177.1290  135.6240 C   0  0  0  0  0  2  0  0  0  0  0  0
  180.0340  175.0940  135.5190 C   0  0  0  0  0  1  0  0  0  0  0  0
  181.3480  175.7010  135.4420 N   0  0  0  0  0  2  0  0  0  0  0  0
  187.5520  178.6420  143.9310 C   0  0  0  0  0  2  0  0  0  0  0  0
  188.2230  177.9480  145.1100 C   0  0  1  0  0  3  0  0  0  0  0  0
  187.2610  177.3300  145.9060 O   0  0  0  0  0  1  0  0  0  0  0  0
  189.2850  176.9400  144.6560 C   0  0  0  0  0  2  0  0  0  0  0  0
  191.3450  177.1750  146.0980 O   0  0  0  0  0  1  0  0  0  0  0  0
  191.1540  178.6930  144.1720 C   0  0  0  0  0  2  0  0  0  0  0  0
  190.7130  177.4330  144.8800 C   0  0  0  0  0  0  0  0  0  0  0  0
  191.6310  177.3280  143.6840 C   0  0  0  0  0  2  0  0  0  0  0  0
  1 44  1  0  0  0  0
  2  7  1  6  0  0  0
  2  1  1  0  0  0  0
  4 15  2  0  0  0  0
  8  6  1  1  0  0  0
  8 18  1  0  0  0  0
 10 20  1  0  0  0  0
 11  9  1  6  0  0  0
 11 10  1  0  0  0  0
 12 23  1  1  0  0  0
 12  2  1  0  0  0  0
 12  1  1  0  0  0  0
 13 18  1  1  0  0  0
 13 15  1  0  0  0  0
 14  5  1  6  0  0  0
 14 19  1  0  0  0  0
 14  7  1  0  0  0  0
 14 22  1  0  0  0  0
 15  3  2  0  0  0  0
 15 26  1  0  0  0  0
 16 25  1  0  0  0  0
 16  8  1  0  0  0  0
 17 27  1  6  0  0  0
 17 11  1  0  0  0  0
 19 22  1  1  0  0  0
 20 23  1  0  0  0  0
 21 17  1  0  0  0  0
 21  6  1  0  0  0  0
 24 21  1  0  0  0  0
 25 41  1  6  0  0  0
 25 13  1  0  0  0  0
 26 19  1  0  0  0  0
 28 31  1  0  0  0  0
 29 27  1  0  0  0  0
 29 30  2  0  0  0  0
 30 34  1  0  0  0  0
 31 33  2  0  0  0  0
 32 31  1  0  0  0  0
 32 29  1  0  0  0  0
 33 30  1  0  0  0  0
 34 35  2  0  0  0  0
 36 34  1  0  0  0  0
 37 38  1  0  0  0  0
 37 39  1  0  0  0  0
 38 39  1  0  0  0  0
 39 36  1  0  0  0  0
 40 39  1  0  0  0  0
 43 42  1  0  0  0  0
 43 41  1  0  0  0  0
 44 45  1  0  0  0  0
 45 46  1  6  0  0  0
 47 50  1  0  0  0  0
 47 45  1  0  0  0  0
 49 50  1  0  0  0  0
 50 48  1  0  0  0  0
 51 49  1  0  0  0  0
 51 50  1  0  0  0  0
M  END
>  <MODEL>
3

>  <REMARK>
 VINA RESULT:      -5.4      2.745      8.466
  Name = 
  10 active torsions:
  status: ('A' for Active; 'I' for Inactive)
    1  A    between atoms: N_1  and  C_37
    2  A    between atoms: C_9  and  C_17
    3  A    between atoms: C_9  and  C_37
    4  A    between atoms: C_11  and  C_35
    5  A    between atoms: C_17  and  C_28
    6  A    between atoms: C_25  and  C_31
    7  A    between atoms: C_31  and  C_34
    8  A    between atoms: C_32  and  N_38
    9  A    between atoms: C_32  and  C_49
   10  A    between atoms: N_33  and  C_36
                            x       y       z     vdW  Elec       q    Type
                         _______ _______ _______ _____ _____    ______ ____

>  <TORSDO>
F 10

$$$$
=
 OpenBabel10232412213D

 51 57  0  0  1  0  0  0  0  0999 V2000
  183.9310  179.9550  139.0840 N   0  0  0  0  0  0  0  0  0  0  0  0
  184.0620  178.9180  140.0740 N   0  0  2  0  0  0  0  0  0  0  0  0
  185.5160  180.6640  145.5280 O   0  0  0  0  0  0  0  0  0  0  0  0
  185.4360  178.8450  147.1560 O   0  0  0  0  0  0  0  0  0  0  0  0
  184.8740  177.2360  142.2740 C   0  0  0  0  0  1  0  0  0  0  0  0
  188.3310  177.2380  141.9580 C   0  0  0  0  0  2  0  0  0  0  0  0
  184.3510  179.5570  141.2880 N   0  0  0  0  0  2  0  0  0  0  0  0
  188.4720  177.8030  143.3660 C   0  0  2  0  0  3  0  0  0  0  0  0
  188.7400  179.3750  139.0550 F   0  0  0  0  0  0  0  0  0  0  0  0
  187.6530  177.5870  137.9020 C   0  0  0  0  0  2  0  0  0  0  0  0
  188.2130  178.1050  139.2190 C   0  0  1  0  0  3  0  0  0  0  0  0
  185.1540  179.2060  139.2110 C   0  0  1  0  0  3  0  0  0  0  0  0
  187.2270  178.6190  145.1620 C   0  0  2  0  0  3  0  0  0  0  0  0
  184.1680  178.5880  142.3670 C   0  0  2  0  0  0  0  0  0  0  0  0
  185.6150  179.1710  145.6980 S   0  0  0  0  0  0  0  0  0  0  0  0
  188.6570  176.4270  144.5400 S   0  0  0  0  0  0  0  0  0  0  0  0
  189.2660  177.1360  139.7680 C   0  0  2  0  0  3  0  0  0  0  0  0
  187.2850  178.5730  143.7100 N   0  0  0  0  0  2  0  0  0  0  0  0
  183.9330  179.2340  143.7190 C   0  0  1  0  0  3  0  0  0  0  0  0
  186.4770  178.4320  137.4380 C   0  0  0  0  0  2  0  0  0  0  0  0
  189.5630  177.4140  141.1870 N   0  0  0  0  0  0  0  0  0  0  0  0
  182.7820  178.5750  142.9620 C   0  0  0  0  0  2  0  0  0  0  0  0
  185.2990  178.1310  138.2310 N   0  0  0  0  0  2  0  0  0  0  0  0
  190.5010  176.3970  141.6630 C   0  0  0  0  0  1  0  0  0  0  0  0
  187.5340  177.2400  145.7090 C   0  0  1  0  0  3  0  0  0  0  0  0
  184.3680  178.3620  144.8010 N   0  0  0  0  0  2  0  0  0  0  0  0
  190.5280  177.2220  138.8950 C   0  0  0  0  0  2  0  0  0  0  0  0
  190.3210  172.8660  135.7460 C   0  0  0  0  0  1  0  0  0  0  0  0
  190.7670  175.9520  138.1220 C   0  0  0  0  0  0  0  0  0  0  0  0
  192.0160  175.4650  137.7090 C   0  0  0  0  0  0  0  0  0  0  0  0
  190.6780  174.0310  136.5990 C   0  0  0  0  0  0  0  0  0  0  0  0
  189.5680  175.0270  137.3720 S   0  0  0  0  0  0  0  0  0  0  0  0
  191.9520  174.3870  136.8780 N   0  0  0  0  0  0  0  0  0  0  0  0
  193.3150  175.9950  138.1730 C   0  0  0  0  0  0  0  0  0  0  0  0
  193.3490  176.9270  139.0200 O   0  0  0  0  0  0  0  0  0  0  0  0
  194.5440  175.4070  137.7400 N   0  0  0  0  0  2  0  0  0  0  0  0
  195.1560  174.1130  135.6530 C   0  0  0  0  0  2  0  0  0  0  0  0
  196.3740  174.8830  136.1470 C   0  0  0  0  0  2  0  0  0  0  0  0
  194.9890  175.4400  136.3510 C   0  0  0  0  0  0  0  0  0  0  0  0
  194.6290  176.6420  135.4980 C   0  0  0  0  0  1  0  0  0  0  0  0
  188.1930  177.3560  147.0720 C   0  0  0  0  0  2  0  0  0  0  0  0
  190.4450  176.9190  147.4640 C   0  0  0  0  0  1  0  0  0  0  0  0
  189.5290  177.9090  146.9340 N   0  0  0  0  0  2  0  0  0  0  0  0
  183.0190  179.4380  138.0670 C   0  0  0  0  0  2  0  0  0  0  0  0
  181.6160  179.3050  138.6450 C   0  0  1  0  0  3  0  0  0  0  0  0
  180.8140  180.3470  138.1870 O   0  0  0  0  0  1  0  0  0  0  0  0
  180.9850  177.9460  138.3190 C   0  0  0  0  0  2  0  0  0  0  0  0
  180.4400  177.3390  140.7090 O   0  0  0  0  0  1  0  0  0  0  0  0
  182.1840  176.0130  139.5930 C   0  0  0  0  0  2  0  0  0  0  0  0
  181.0200  176.9720  139.4940 C   0  0  0  0  0  0  0  0  0  0  0  0
  180.8150  175.5170  139.1380 C   0  0  0  0  0  2  0  0  0  0  0  0
  1 12  1  0  0  0  0
  1  2  1  0  0  0  0
  2  7  1  1  0  0  0
  3 15  2  0  0  0  0
  7 14  1  0  0  0  0
  8  6  1  6  0  0  0
  8 18  1  0  0  0  0
  8 16  1  0  0  0  0
 10 11  1  0  0  0  0
 11  9  1  6  0  0  0
 11 17  1  0  0  0  0
 12 23  1  6  0  0  0
 12  2  1  0  0  0  0
 13 18  1  6  0  0  0
 13 15  1  0  0  0  0
 13 25  1  0  0  0  0
 14  5  1  6  0  0  0
 14 22  1  0  0  0  0
 14 19  1  0  0  0  0
 15  4  2  0  0  0  0
 16 25  1  0  0  0  0
 17 27  1  6  0  0  0
 17 21  1  0  0  0  0
 19 22  1  1  0  0  0
 19 26  1  0  0  0  0
 20 10  1  0  0  0  0
 20 23  1  0  0  0  0
 21 24  1  0  0  0  0
 21  6  1  0  0  0  0
 25 41  1  1  0  0  0
 26 15  1  0  0  0  0
 28 31  1  0  0  0  0
 29 27  1  0  0  0  0
 30 29  2  0  0  0  0
 30 34  1  0  0  0  0
 31 33  2  0  0  0  0
 31 32  1  0  0  0  0
 32 29  1  0  0  0  0
 33 30  1  0  0  0  0
 34 35  2  0  0  0  0
 36 34  1  0  0  0  0
 37 38  1  0  0  0  0
 37 39  1  0  0  0  0
 38 39  1  0  0  0  0
 39 36  1  0  0  0  0
 40 39  1  0  0  0  0
 43 41  1  0  0  0  0
 43 42  1  0  0  0  0
 44 45  1  0  0  0  0
 44  1  1  0  0  0  0
 45 46  1  6  0  0  0
 47 45  1  0  0  0  0
 47 50  1  0  0  0  0
 50 49  1  0  0  0  0
 50 48  1  0  0  0  0
 51 50  1  0  0  0  0
 51 49  1  0  0  0  0
M  END
>  <MODEL>
4

>  <REMARK>
 VINA RESULT:      -5.2      2.574     10.054
  Name = 
  10 active torsions:
  status: ('A' for Active; 'I' for Inactive)
    1  A    between atoms: N_1  and  C_37
    2  A    between atoms: C_9  and  C_17
    3  A    between atoms: C_9  and  C_37
    4  A    between atoms: C_11  and  C_35
    5  A    between atoms: C_17  and  C_28
    6  A    between atoms: C_25  and  C_31
    7  A    between atoms: C_31  and  C_34
    8  A    between atoms: C_32  and  N_38
    9  A    between atoms: C_32  and  C_49
   10  A    between atoms: N_33  and  C_36
                            x       y       z     vdW  Elec       q    Type
                         _______ _______ _______ _____ _____    ______ ____

>  <TORSDO>
F 10

$$$$
=
 OpenBabel10232412213D

 51 57  0  0  1  0  0  0  0  0999 V2000
  186.7300  177.6580  143.1540 N   0  0  0  0  0  0  0  0  0  0  0  0
  185.9470  178.4020  142.2010 N   0  0  2  0  0  0  0  0  0  0  0  0
  181.3740  175.5620  139.7690 O   0  0  0  0  0  0  0  0  0  0  0  0
  179.9820  177.0200  138.3870 O   0  0  0  0  0  0  0  0  0  0  0  0
  184.3670  179.2720  139.9490 C   0  0  0  0  0  1  0  0  0  0  0  0
  185.9990  177.7610  137.2840 C   0  0  0  0  0  2  0  0  0  0  0  0
  184.8980  177.5640  141.8020 N   0  0  0  0  0  2  0  0  0  0  0  0
  184.7200  177.0310  136.8970 C   0  0  2  0  0  3  0  0  0  0  0  0
  188.6660  176.0250  139.0260 F   0  0  0  0  0  0  0  0  0  0  0  0
  189.4360  178.2320  139.5210 C   0  0  0  0  0  2  0  0  0  0  0  0
  188.4060  177.3670  138.8090 C   0  0  1  0  0  3  0  0  0  0  0  0
  187.1440  177.7610  141.7790 C   0  0  1  0  0  3  0  0  0  0  0  0
  182.5260  176.6530  137.5940 C   0  0  2  0  0  3  0  0  0  0  0  0
  183.9080  178.3780  141.1000 C   0  0  2  0  0  0  0  0  0  0  0  0
  181.3660  176.8220  138.9430 S   0  0  0  0  0  0  0  0  0  0  0  0
  183.8150  178.0290  135.6760 S   0  0  0  0  0  0  0  0  0  0  0  0
  188.3830  177.6910  137.3100 C   0  0  2  0  0  3  0  0  0  0  0  0
  183.8850  176.8390  138.0740 N   0  0  0  0  0  2  0  0  0  0  0  0
  182.5260  177.7510  141.0730 C   0  0  1  0  0  3  0  0  0  0  0  0
  189.3430  178.0630  141.0290 C   0  0  0  0  0  2  0  0  0  0  0  0
  187.1730  177.1450  136.6630 N   0  0  0  0  0  0  0  0  0  0  0  0
  182.8230  178.9390  141.9850 C   0  0  0  0  0  2  0  0  0  0  0  0
  188.1790  178.7630  141.5410 N   0  0  0  0  0  2  0  0  0  0  0  0
  187.1760  177.5700  135.2630 C   0  0  0  0  0  1  0  0  0  0  0  0
  182.2450  177.6740  136.5110 C   0  0  1  0  0  3  0  0  0  0  0  0
  181.7660  178.2030  139.9160 N   0  0  0  0  0  2  0  0  0  0  0  0
  189.6680  177.1530  136.6630 C   0  0  0  0  0  2  0  0  0  0  0  0
  188.9980  171.9140  135.6410 C   0  0  0  0  0  1  0  0  0  0  0  0
  189.6890  175.6480  136.6170 C   0  0  0  0  0  0  0  0  0  0  0  0
  190.7540  174.8300  137.0200 C   0  0  0  0  0  0  0  0  0  0  0  0
  189.4390  173.2720  136.0570 C   0  0  0  0  0  0  0  0  0  0  0  0
  188.5560  174.6810  135.8180 S   0  0  0  0  0  0  0  0  0  0  0  0
  190.5940  173.5100  136.7200 N   0  0  0  0  0  0  0  0  0  0  0  0
  191.9310  175.3020  137.7780 C   0  0  0  0  0  0  0  0  0  0  0  0
  191.7820  176.1080  138.7350 O   0  0  0  0  0  0  0  0  0  0  0  0
  193.2370  174.7910  137.5000 N   0  0  0  0  0  2  0  0  0  0  0  0
  193.8210  173.9310  135.1930 C   0  0  0  0  0  2  0  0  0  0  0  0
  195.0980  174.1060  136.0070 C   0  0  0  0  0  2  0  0  0  0  0  0
  193.9200  175.0200  136.2320 C   0  0  0  0  0  0  0  0  0  0  0  0
  194.0880  176.4450  135.7400 C   0  0  0  0  0  1  0  0  0  0  0  0
  181.2410  177.1150  135.5180 C   0  0  0  0  0  2  0  0  0  0  0  0
  180.3020  175.2080  134.5700 C   0  0  0  0  0  1  0  0  0  0  0  0
  181.3620  175.6700  135.4460 N   0  0  0  0  0  2  0  0  0  0  0  0
  187.3470  178.6450  144.0360 C   0  0  0  0  0  2  0  0  0  0  0  0
  187.3490  178.1330  145.4710 C   0  0  1  0  0  3  0  0  0  0  0  0
  186.1010  177.5980  145.7840 O   0  0  0  0  0  1  0  0  0  0  0  0
  188.4610  177.1050  145.7140 C   0  0  0  0  0  2  0  0  0  0  0  0
  190.4180  176.8200  147.2840 O   0  0  0  0  0  1  0  0  0  0  0  0
  188.2010  177.1060  148.3090 C   0  0  0  0  0  2  0  0  0  0  0  0
  189.0960  177.2270  147.0970 C   0  0  0  0  0  0  0  0  0  0  0  0
  188.7280  178.4700  147.8740 C   0  0  0  0  0  2  0  0  0  0  0  0
  1 44  1  0  0  0  0
  2  7  1  6  0  0  0
  2  1  1  0  0  0  0
  4 15  2  0  0  0  0
  8  6  1  1  0  0  0
  8 18  1  0  0  0  0
 10 20  1  0  0  0  0
 11  9  1  6  0  0  0
 11 10  1  0  0  0  0
 12 23  1  1  0  0  0
 12  2  1  0  0  0  0
 12  1  1  0  0  0  0
 13 18  1  1  0  0  0
 13 15  1  0  0  0  0
 14  5  1  6  0  0  0
 14  7  1  0  0  0  0
 14 22  1  0  0  0  0
 15  3  2  0  0  0  0
 15 26  1  0  0  0  0
 16 25  1  0  0  0  0
 16  8  1  0  0  0  0
 17 27  1  6  0  0  0
 17 11  1  0  0  0  0
 19 14  1  0  0  0  0
 19 22  1  1  0  0  0
 20 23  1  0  0  0  0
 21  6  1  0  0  0  0
 21 17  1  0  0  0  0
 24 21  1  0  0  0  0
 25 41  1  6  0  0  0
 25 13  1  0  0  0  0
 26 19  1  0  0  0  0
 28 31  1  0  0  0  0
 29 27  1  0  0  0  0
 29 30  2  0  0  0  0
 30 34  1  0  0  0  0
 31 33  2  0  0  0  0
 32 31  1  0  0  0  0
 32 29  1  0  0  0  0
 33 30  1  0  0  0  0
 34 35  2  0  0  0  0
 36 34  1  0  0  0  0
 37 38  1  0  0  0  0
 37 39  1  0  0  0  0
 38 39  1  0  0  0  0
 39 36  1  0  0  0  0
 40 39  1  0  0  0  0
 42 43  1  0  0  0  0
 43 41  1  0  0  0  0
 44 45  1  0  0  0  0
 45 47  1  0  0  0  0
 45 46  1  6  0  0  0
 47 50  1  0  0  0  0
 50 48  1  0  0  0  0
 50 51  1  0  0  0  0
 50 49  1  0  0  0  0
 51 49  1  0  0  0  0
M  END
>  <MODEL>
5

>  <REMARK>
 VINA RESULT:      -5.2      2.734      8.472
  Name = 
  10 active torsions:
  status: ('A' for Active; 'I' for Inactive)
    1  A    between atoms: N_1  and  C_37
    2  A    between atoms: C_9  and  C_17
    3  A    between atoms: C_9  and  C_37
    4  A    between atoms: C_11  and  C_35
    5  A    between atoms: C_17  and  C_28
    6  A    between atoms: C_25  and  C_31
    7  A    between atoms: C_31  and  C_34
    8  A    between atoms: C_32  and  N_38
    9  A    between atoms: C_32  and  C_49
   10  A    between atoms: N_33  and  C_36
                            x       y       z     vdW  Elec       q    Type
                         _______ _______ _______ _____ _____    ______ ____

>  <TORSDO>
F 10

$$$$
=
 OpenBabel10232412213D

 51 57  0  0  1  0  0  0  0  0999 V2000
  188.3530  178.3580  145.2770 N   0  0  0  0  0  0  0  0  0  0  0  0
  188.6580  177.3430  144.3020 N   0  0  2  0  0  0  0  0  0  0  0  0
  193.0260  178.5670  140.5170 O   0  0  0  0  0  0  0  0  0  0  0  0
  193.6160  176.6620  139.1050 O   0  0  0  0  0  0  0  0  0  0  0  0
  189.3500  175.8700  141.9190 C   0  0  0  0  0  1  0  0  0  0  0  0
  187.5260  177.5310  139.4770 C   0  0  0  0  0  2  0  0  0  0  0  0
  189.7470  177.8160  143.5580 N   0  0  0  0  0  2  0  0  0  0  0  0
  188.8060  177.8380  138.7110 C   0  0  2  0  0  3  0  0  0  0  0  0
  185.9040  180.0900  141.4730 F   0  0  0  0  0  0  0  0  0  0  0  0
  184.7610  178.2370  142.4590 C   0  0  0  0  0  2  0  0  0  0  0  0
  185.7590  178.7140  141.4140 C   0  0  1  0  0  3  0  0  0  0  0  0
  187.5920  178.2520  144.0590 C   0  0  1  0  0  3  0  0  0  0  0  0
  191.1270  177.6510  138.8430 C   0  0  2  0  0  3  0  0  0  0  0  0
  190.2930  176.7000  142.7890 C   0  0  2  0  0  0  0  0  0  0  0  0
  192.5110  177.2870  139.9140 S   0  0  0  0  0  0  0  0  0  0  0  0
  189.0950  176.5220  137.4910 S   0  0  0  0  0  0  0  0  0  0  0  0
  185.3220  178.2640  140.0150 C   0  0  2  0  0  3  0  0  0  0  0  0
  189.9310  177.8940  139.6330 N   0  0  0  0  0  2  0  0  0  0  0  0
  191.7340  176.9120  142.3640 C   0  0  1  0  0  3  0  0  0  0  0  0
  185.2710  178.5080  143.8660 C   0  0  0  0  0  2  0  0  0  0  0  0
  186.4250  178.3920  139.0420 N   0  0  0  0  0  0  0  0  0  0  0  0
  191.3910  175.9400  143.4910 C   0  0  0  0  0  2  0  0  0  0  0  0
  186.3150  177.5600  144.2110 N   0  0  0  0  0  2  0  0  0  0  0  0
  185.9620  177.8610  137.7590 C   0  0  0  0  0  1  0  0  0  0  0  0
  190.8630  176.4990  137.8950 C   0  0  1  0  0  3  0  0  0  0  0  0
  192.0390  176.1650  141.1520 N   0  0  0  0  0  2  0  0  0  0  0  0
  184.0900  179.0790  139.5900 C   0  0  0  0  0  2  0  0  0  0  0  0
  180.8820  175.1110  137.8870 C   0  0  0  0  0  1  0  0  0  0  0  0
  182.9670  178.1960  139.1140 C   0  0  0  0  0  0  0  0  0  0  0  0
  181.6040  178.3870  139.3820 C   0  0  0  0  0  0  0  0  0  0  0  0
  181.5100  176.3420  138.4370 C   0  0  0  0  0  0  0  0  0  0  0  0
  183.1570  176.6710  138.4110 S   0  0  0  0  0  0  0  0  0  0  0  0
  180.8040  177.3580  138.9840 N   0  0  0  0  0  0  0  0  0  0  0  0
  181.0310  179.6150  139.9700 C   0  0  0  0  0  0  0  0  0  0  0  0
  181.3920  180.7450  139.5450 O   0  0  0  0  0  0  0  0  0  0  0  0
  180.0020  179.5440  140.9610 N   0  0  0  0  0  2  0  0  0  0  0  0
  179.9960  179.8770  143.4690 C   0  0  0  0  0  2  0  0  0  0  0  0
  181.4110  179.5510  143.0050 C   0  0  0  0  0  2  0  0  0  0  0  0
  180.2200  178.9710  142.2850 C   0  0  0  0  0  0  0  0  0  0  0  0
  179.9880  177.4850  142.4840 C   0  0  0  0  0  1  0  0  0  0  0  0
  191.6890  176.6640  136.6320 C   0  0  0  0  0  2  0  0  0  0  0  0
  191.8350  174.5070  135.7720 C   0  0  0  0  0  1  0  0  0  0  0  0
  191.1860  175.7900  135.5880 N   0  0  0  0  0  2  0  0  0  0  0  0
  187.7530  177.6650  146.4150 C   0  0  0  0  0  2  0  0  0  0  0  0
  188.7590  177.5670  147.5540 C   0  0  1  0  0  3  0  0  0  0  0  0
  188.0960  177.6290  148.7780 O   0  0  0  0  0  1  0  0  0  0  0  0
  189.6140  176.2980  147.4600 C   0  0  0  0  0  2  0  0  0  0  0  0
  191.3880  177.7320  146.3750 O   0  0  0  0  0  1  0  0  0  0  0  0
  192.0010  175.4090  146.9020 C   0  0  0  0  0  2  0  0  0  0  0  0
  191.0710  176.5830  147.1030 C   0  0  0  0  0  0  0  0  0  0  0  0
  192.0800  176.2460  148.1760 C   0  0  0  0  0  2  0  0  0  0  0  0
  1 44  1  0  0  0  0
  2  7  1  6  0  0  0
  2  1  1  0  0  0  0
  4 15  2  0  0  0  0
  8  6  1  1  0  0  0
  8 18  1  0  0  0  0
 10 20  1  0  0  0  0
 11  9  1  6  0  0  0
 11 10  1  0  0  0  0
 12 23  1  1  0  0  0
 12  2  1  0  0  0  0
 12  1  1  0  0  0  0
 13 18  1  1  0  0  0
 13 15  1  0  0  0  0
 14  5  1  6  0  0  0
 14 22  1  0  0  0  0
 14  7  1  0  0  0  0
 15  3  2  0  0  0  0
 15 26  1  0  0  0  0
 16 25  1  0  0  0  0
 16  8  1  0  0  0  0
 17 27  1  6  0  0  0
 17 11  1  0  0  0  0
 19 14  1  0  0  0  0
 19 22  1  1  0  0  0
 20 23  1  0  0  0  0
 21  6  1  0  0  0  0
 21 17  1  0  0  0  0
 24 21  1  0  0  0  0
 25 41  1  6  0  0  0
 25 13  1  0  0  0  0
 26 19  1  0  0  0  0
 28 31  1  0  0  0  0
 29 30  2  0  0  0  0
 29 27  1  0  0  0  0
 30 34  1  0  0  0  0
 31 33  2  0  0  0  0
 32 31  1  0  0  0  0
 32 29  1  0  0  0  0
 33 30  1  0  0  0  0
 34 36  1  0  0  0  0
 35 34  2  0  0  0  0
 36 39  1  0  0  0  0
 38 37  1  0  0  0  0
 39 40  1  0  0  0  0
 39 38  1  0  0  0  0
 39 37  1  0  0  0  0
 43 42  1  0  0  0  0
 43 41  1  0  0  0  0
 44 45  1  0  0  0  0
 45 46  1  1  0  0  0
 47 45  1  0  0  0  0
 48 50  1  0  0  0  0
 49 50  1  0  0  0  0
 49 51  1  0  0  0  0
 50 47  1  0  0  0  0
 50 51  1  0  0  0  0
M  END
>  <MODEL>
6

>  <REMARK>
 VINA RESULT:      -5.2      1.252      1.987
  Name = 
  10 active torsions:
  status: ('A' for Active; 'I' for Inactive)
    1  A    between atoms: N_1  and  C_37
    2  A    between atoms: C_9  and  C_17
    3  A    between atoms: C_9  and  C_37
    4  A    between atoms: C_11  and  C_35
    5  A    between atoms: C_17  and  C_28
    6  A    between atoms: C_25  and  C_31
    7  A    between atoms: C_31  and  C_34
    8  A    between atoms: C_32  and  N_38
    9  A    between atoms: C_32  and  C_49
   10  A    between atoms: N_33  and  C_36
                            x       y       z     vdW  Elec       q    Type
                         _______ _______ _______ _____ _____    ______ ____

>  <TORSDO>
F 10

$$$$
=
 OpenBabel10232412213D

 51 57  0  0  1  0  0  0  0  0999 V2000
  183.7790  179.9180  139.0160 N   0  0  0  0  0  0  0  0  0  0  0  0
  183.9410  178.8940  140.0150 N   0  0  2  0  0  0  0  0  0  0  0  0
  185.4590  180.7190  145.4240 O   0  0  0  0  0  0  0  0  0  0  0  0
  185.4330  178.9160  147.0730 O   0  0  0  0  0  0  0  0  0  0  0  0
  184.8140  177.2470  142.2180 C   0  0  0  0  0  1  0  0  0  0  0  0
  188.2650  177.2960  141.8450 C   0  0  0  0  0  2  0  0  0  0  0  0
  184.2410  179.5490  141.2170 N   0  0  0  0  0  2  0  0  0  0  0  0
  188.4210  177.8780  143.2440 C   0  0  2  0  0  3  0  0  0  0  0  0
  188.5940  179.4070  138.9130 F   0  0  0  0  0  0  0  0  0  0  0  0
  187.5150  177.5910  137.7970 C   0  0  0  0  0  2  0  0  0  0  0  0
  188.0890  178.1310  139.0980 C   0  0  1  0  0  3  0  0  0  0  0  0
  185.0150  179.1880  139.1300 C   0  0  1  0  0  3  0  0  0  0  0  0
  187.1940  178.6950  145.0510 C   0  0  2  0  0  3  0  0  0  0  0  0
  184.0900  178.5900  142.3080 C   0  0  2  0  0  0  0  0  0  0  0  0
  185.5830  179.2290  145.6090 S   0  0  0  0  0  0  0  0  0  0  0  0
  188.6460  176.5180  144.4290 S   0  0  0  0  0  0  0  0  0  0  0  0
  189.1650  177.1840  139.6400 C   0  0  2  0  0  3  0  0  0  0  0  0
  187.2290  178.6340  143.6000 N   0  0  0  0  0  2  0  0  0  0  0  0
  183.8680  179.2470  143.6580 C   0  0  1  0  0  3  0  0  0  0  0  0
  186.3190  178.4150  137.3430 C   0  0  0  0  0  2  0  0  0  0  0  0
  189.4810  177.4810  141.0510 N   0  0  0  0  0  0  0  0  0  0  0  0
  182.7150  178.5630  142.9270 C   0  0  0  0  0  2  0  0  0  0  0  0
  185.1590  178.1050  138.1600 N   0  0  0  0  0  2  0  0  0  0  0  0
  190.4420  176.4840  141.5220 C   0  0  0  0  0  1  0  0  0  0  0  0
  187.5300  177.3270  145.6080 C   0  0  1  0  0  3  0  0  0  0  0  0
  184.3340  178.3920  144.7410 N   0  0  0  0  0  2  0  0  0  0  0  0
  190.4110  177.2790  138.7460 C   0  0  0  0  0  2  0  0  0  0  0  0
  190.3730  172.7640  135.8220 C   0  0  0  0  0  1  0  0  0  0  0  0
  190.6990  175.9810  138.0390 C   0  0  0  0  0  0  0  0  0  0  0  0
  191.9660  175.5190  137.6540 C   0  0  0  0  0  0  0  0  0  0  0  0
  190.6840  173.9830  136.6150 C   0  0  0  0  0  0  0  0  0  0  0  0
  189.5370  174.9760  137.3340 S   0  0  0  0  0  0  0  0  0  0  0  0
  191.9430  174.3990  136.8790 N   0  0  0  0  0  0  0  0  0  0  0  0
  193.2430  176.1180  138.0930 C   0  0  0  0  0  0  0  0  0  0  0  0
  193.2410  177.0690  138.9200 O   0  0  0  0  0  0  0  0  0  0  0  0
  194.4940  175.5780  137.6610 N   0  0  0  0  0  2  0  0  0  0  0  0
  194.9560  174.2820  135.5370 C   0  0  0  0  0  2  0  0  0  0  0  0
  196.2480  174.9210  136.0310 C   0  0  0  0  0  2  0  0  0  0  0  0
  194.9240  175.6020  136.2660 C   0  0  0  0  0  0  0  0  0  0  0  0
  194.6690  176.8520  135.4460 C   0  0  0  0  0  1  0  0  0  0  0  0
  188.2100  177.4670  146.9580 C   0  0  0  0  0  2  0  0  0  0  0  0
  190.4090  177.2600  147.6910 C   0  0  0  0  0  1  0  0  0  0  0  0
  189.3240  176.5400  147.0550 N   0  0  0  0  0  2  0  0  0  0  0  0
  182.8570  179.3760  138.0200 C   0  0  0  0  0  2  0  0  0  0  0  0
  181.5280  180.1180  138.0810 C   0  0  1  0  0  3  0  0  0  0  0  0
  180.6900  179.5130  139.0130 O   0  0  0  0  0  1  0  0  0  0  0  0
  181.7150  181.6070  138.3990 C   0  0  0  0  0  2  0  0  0  0  0  0
  180.6710  182.0010  136.1330 O   0  0  0  0  0  1  0  0  0  0  0  0
  181.4720  183.9820  137.3510 C   0  0  0  0  0  2  0  0  0  0  0  0
  181.0700  182.5250  137.3640 C   0  0  0  0  0  0  0  0  0  0  0  0
  180.1190  183.5620  137.9190 C   0  0  0  0  0  2  0  0  0  0  0  0
  1 12  1  0  0  0  0
  1  2  1  0  0  0  0
  2  7  1  1  0  0  0
  3 15  2  0  0  0  0
  7 14  1  0  0  0  0
  8  6  1  6  0  0  0
  8 18  1  0  0  0  0
  8 16  1  0  0  0  0
 10 11  1  0  0  0  0
 11  9  1  6  0  0  0
 11 17  1  0  0  0  0
 12 23  1  6  0  0  0
 12  2  1  0  0  0  0
 13 18  1  6  0  0  0
 13 25  1  0  0  0  0
 13 15  1  0  0  0  0
 14  5  1  6  0  0  0
 14 22  1  0  0  0  0
 14 19  1  0  0  0  0
 15  4  2  0  0  0  0
 16 25  1  0  0  0  0
 17 27  1  6  0  0  0
 17 21  1  0  0  0  0
 19 22  1  1  0  0  0
 19 26  1  0  0  0  0
 20 10  1  0  0  0  0
 20 23  1  0  0  0  0
 21 24  1  0  0  0  0
 21  6  1  0  0  0  0
 25 41  1  1  0  0  0
 26 15  1  0  0  0  0
 28 31  1  0  0  0  0
 29 27  1  0  0  0  0
 30 29  2  0  0  0  0
 30 34  1  0  0  0  0
 31 33  2  0  0  0  0
 31 32  1  0  0  0  0
 32 29  1  0  0  0  0
 33 30  1  0  0  0  0
 34 35  2  0  0  0  0
 36 34  1  0  0  0  0
 37 38  1  0  0  0  0
 37 39  1  0  0  0  0
 38 39  1  0  0  0  0
 39 36  1  0  0  0  0
 40 39  1  0  0  0  0
 41 43  1  0  0  0  0
 43 42  1  0  0  0  0
 44 45  1  0  0  0  0
 44  1  1  0  0  0  0
 45 47  1  0  0  0  0
 45 46  1  1  0  0  0
 48 50  1  0  0  0  0
 49 50  1  0  0  0  0
 49 51  1  0  0  0  0
 50 51  1  0  0  0  0
 50 47  1  0  0  0  0
M  END
>  <MODEL>
7

>  <REMARK>
 VINA RESULT:      -5.2      2.634     10.409
  Name = 
  10 active torsions:
  status: ('A' for Active; 'I' for Inactive)
    1  A    between atoms: N_1  and  C_37
    2  A    between atoms: C_9  and  C_17
    3  A    between atoms: C_9  and  C_37
    4  A    between atoms: C_11  and  C_35
    5  A    between atoms: C_17  and  C_28
    6  A    between atoms: C_25  and  C_31
    7  A    between atoms: C_31  and  C_34
    8  A    between atoms: C_32  and  N_38
    9  A    between atoms: C_32  and  C_49
   10  A    between atoms: N_33  and  C_36
                            x       y       z     vdW  Elec       q    Type
                         _______ _______ _______ _____ _____    ______ ____

>  <TORSDO>
F 10

$$$$
=
 OpenBabel10232412213D

 51 57  0  0  1  0  0  0  0  0999 V2000
  186.4020  179.1550  143.9280 N   0  0  0  0  0  0  0  0  0  0  0  0
  187.0380  177.9840  143.3840 N   0  0  2  0  0  0  0  0  0  0  0  0
  192.3290  178.7910  140.8840 O   0  0  0  0  0  0  0  0  0  0  0  0
  193.4070  176.6920  140.2510 O   0  0  0  0  0  0  0  0  0  0  0  0
  188.5030  176.0860  141.7770 C   0  0  0  0  0  1  0  0  0  0  0  0
  187.4840  176.9090  138.5620 C   0  0  0  0  0  2  0  0  0  0  0  0
  188.2880  178.3940  142.9000 N   0  0  0  0  0  2  0  0  0  0  0  0
  188.9290  177.1760  138.1590 C   0  0  2  0  0  3  0  0  0  0  0  0
  185.2190  179.6570  139.2580 F   0  0  0  0  0  0  0  0  0  0  0  0
  183.8930  177.9650  140.3020 C   0  0  0  0  0  2  0  0  0  0  0  0
  185.1520  178.2970  139.5150 C   0  0  1  0  0  3  0  0  0  0  0  0
  186.0710  178.6810  142.6090 C   0  0  1  0  0  3  0  0  0  0  0  0
  191.0940  177.2960  139.0170 C   0  0  2  0  0  3  0  0  0  0  0  0
  189.0910  177.2000  142.6430 C   0  0  2  0  0  0  0  0  0  0  0  0
  192.0810  177.3550  140.5060 S   0  0  0  0  0  0  0  0  0  0  0  0
  189.6380  175.6540  137.4620 S   0  0  0  0  0  0  0  0  0  0  0  0
  185.1970  177.4870  138.2140 C   0  0  2  0  0  3  0  0  0  0  0  0
  189.7020  177.5760  139.3260 N   0  0  0  0  0  2  0  0  0  0  0  0
  190.5830  177.4730  142.6250 C   0  0  1  0  0  3  0  0  0  0  0  0
  183.9220  178.6140  141.6780 C   0  0  0  0  0  2  0  0  0  0  0  0
  186.5460  177.5110  137.6140 N   0  0  0  0  0  0  0  0  0  0  0  0
  189.9380  176.7580  143.8100 C   0  0  0  0  0  2  0  0  0  0  0  0
  184.8370  177.9000  142.5490 N   0  0  0  0  0  2  0  0  0  0  0  0
  186.5330  176.6460  136.4340 C   0  0  0  0  0  1  0  0  0  0  0  0
  191.1870  175.9320  138.3630 C   0  0  1  0  0  3  0  0  0  0  0  0
  191.2840  176.5050  141.7940 N   0  0  0  0  0  2  0  0  0  0  0  0
  184.1340  178.0310  137.2480 C   0  0  0  0  0  2  0  0  0  0  0  0
  180.6120  173.9680  137.3810 C   0  0  0  0  0  1  0  0  0  0  0  0
  182.9750  177.0820  137.0920 C   0  0  0  0  0  0  0  0  0  0  0  0
  181.6500  177.4440  136.8140 C   0  0  0  0  0  0  0  0  0  0  0  0
  181.3470  175.2550  137.2560 C   0  0  0  0  0  0  0  0  0  0  0  0
  182.9990  175.4410  137.4940 S   0  0  0  0  0  0  0  0  0  0  0  0
  180.7590  176.4160  136.8910 N   0  0  0  0  0  0  0  0  0  0  0  0
  181.2220  178.7940  136.3920 C   0  0  0  0  0  0  0  0  0  0  0  0
  181.5230  179.2210  135.2460 O   0  0  0  0  0  0  0  0  0  0  0  0
  180.3930  179.5980  137.2350 N   0  0  0  0  0  2  0  0  0  0  0  0
  180.9220  181.6040  138.6840 C   0  0  0  0  0  2  0  0  0  0  0  0
  182.1870  180.7790  138.4790 C   0  0  0  0  0  2  0  0  0  0  0  0
  180.8390  180.1070  138.5280 C   0  0  0  0  0  0  0  0  0  0  0  0
  180.5570  179.2850  139.7720 C   0  0  0  0  0  1  0  0  0  0  0  0
  192.3640  175.8940  137.4050 C   0  0  0  0  0  2  0  0  0  0  0  0
  194.4790  174.9290  137.3080 C   0  0  0  0  0  1  0  0  0  0  0  0
  193.0790  174.6380  137.5440 N   0  0  0  0  0  2  0  0  0  0  0  0
  185.5000  178.6820  144.9750 C   0  0  0  0  0  2  0  0  0  0  0  0
  186.1880  178.7620  146.3310 C   0  0  1  0  0  3  0  0  0  0  0  0
  185.2730  179.1610  147.3030 O   0  0  0  0  0  1  0  0  0  0  0  0
  186.8530  177.4360  146.7190 C   0  0  0  0  0  2  0  0  0  0  0  0
  187.8600  178.0160  148.9610 O   0  0  0  0  0  1  0  0  0  0  0  0
  189.3710  178.0390  147.0210 C   0  0  0  0  0  2  0  0  0  0  0  0
  188.0580  177.6160  147.6380 C   0  0  0  0  0  0  0  0  0  0  0  0
  189.1610  176.5960  147.4700 C   0  0  0  0  0  2  0  0  0  0  0  0
  1 44  1  0  0  0  0
  2  7  1  6  0  0  0
  2  1  1  0  0  0  0
  4 15  2  0  0  0  0
  8  6  1  1  0  0  0
  8 18  1  0  0  0  0
 10 20  1  0  0  0  0
 11  9  1  6  0  0  0
 11 10  1  0  0  0  0
 12 23  1  1  0  0  0
 12  2  1  0  0  0  0
 12  1  1  0  0  0  0
 13 18  1  1  0  0  0
 13 15  1  0  0  0  0
 14  5  1  6  0  0  0
 14  7  1  0  0  0  0
 14 22  1  0  0  0  0
 15  3  2  0  0  0  0
 15 26  1  0  0  0  0
 16  8  1  0  0  0  0
 16 25  1  0  0  0  0
 17 27  1  6  0  0  0
 17 11  1  0  0  0  0
 19 14  1  0  0  0  0
 19 22  1  1  0  0  0
 20 23  1  0  0  0  0
 21 17  1  0  0  0  0
 21  6  1  0  0  0  0
 24 21  1  0  0  0  0
 25 41  1  6  0  0  0
 25 13  1  0  0  0  0
 26 19  1  0  0  0  0
 29 27  1  0  0  0  0
 29 32  1  0  0  0  0
 30 33  1  0  0  0  0
 30 29  2  0  0  0  0
 31 28  1  0  0  0  0
 31 32  1  0  0  0  0
 33 31  2  0  0  0  0
 34 30  1  0  0  0  0
 34 36  1  0  0  0  0
 35 34  2  0  0  0  0
 36 39  1  0  0  0  0
 38 39  1  0  0  0  0
 38 37  1  0  0  0  0
 39 37  1  0  0  0  0
 39 40  1  0  0  0  0
 41 43  1  0  0  0  0
 42 43  1  0  0  0  0
 44 45  1  0  0  0  0
 45 47  1  0  0  0  0
 45 46  1  1  0  0  0
 47 50  1  0  0  0  0
 49 51  1  0  0  0  0
 49 50  1  0  0  0  0
 50 48  1  0  0  0  0
 51 50  1  0  0  0  0
M  END
>  <MODEL>
8

>  <REMARK>
 VINA RESULT:      -5.1      2.028      2.698
  Name = 
  10 active torsions:
  status: ('A' for Active; 'I' for Inactive)
    1  A    between atoms: N_1  and  C_37
    2  A    between atoms: C_9  and  C_17
    3  A    between atoms: C_9  and  C_37
    4  A    between atoms: C_11  and  C_35
    5  A    between atoms: C_17  and  C_28
    6  A    between atoms: C_25  and  C_31
    7  A    between atoms: C_31  and  C_34
    8  A    between atoms: C_32  and  N_38
    9  A    between atoms: C_32  and  C_49
   10  A    between atoms: N_33  and  C_36
                            x       y       z     vdW  Elec       q    Type
                         _______ _______ _______ _____ _____    ______ ____

>  <TORSDO>
F 10

$$$$
=
 OpenBabel10232412213D

 51 57  0  0  1  0  0  0  0  0999 V2000
  189.4810  175.6460  137.0240 N   0  0  0  0  0  0  0  0  0  0  0  0
  189.3940  176.8050  137.8740 N   0  0  2  0  0  0  0  0  0  0  0  0
  188.8860  175.7820  143.6700 O   0  0  0  0  0  0  0  0  0  0  0  0
  189.0230  177.8230  145.0060 O   0  0  0  0  0  0  0  0  0  0  0  0
  188.7440  178.7300  139.9230 C   0  0  0  0  0  1  0  0  0  0  0  0
  185.2920  178.4320  140.1390 C   0  0  0  0  0  2  0  0  0  0  0  0
  189.3380  176.3330  139.1920 N   0  0  0  0  0  2  0  0  0  0  0  0
  185.4030  178.0710  141.6150 C   0  0  2  0  0  3  0  0  0  0  0  0
  184.6820  175.8660  137.6480 F   0  0  0  0  0  0  0  0  0  0  0  0
  185.4260  177.5390  136.1110 C   0  0  0  0  0  2  0  0  0  0  0  0
  185.1060  177.1810  137.5550 C   0  0  1  0  0  3  0  0  0  0  0  0
  188.2230  176.3150  137.2320 C   0  0  1  0  0  3  0  0  0  0  0  0
  186.9570  177.6210  143.2950 C   0  0  2  0  0  3  0  0  0  0  0  0
  189.5790  177.4610  140.0900 C   0  0  2  0  0  0  0  0  0  0  0  0
  188.6740  177.2730  143.6500 S   0  0  0  0  0  0  0  0  0  0  0  0
  185.2570  179.5880  142.6060 S   0  0  0  0  0  0  0  0  0  0  0  0
  184.0540  178.1420  138.1220 C   0  0  2  0  0  3  0  0  0  0  0  0
  186.6930  177.4490  141.8760 N   0  0  0  0  0  2  0  0  0  0  0  0
  190.0600  177.0400  141.4660 C   0  0  1  0  0  3  0  0  0  0  0  0
  186.5990  176.7210  135.5930 C   0  0  0  0  0  2  0  0  0  0  0  0
  183.9870  178.0550  139.5940 N   0  0  0  0  0  0  0  0  0  0  0  0
  191.0270  177.6620  140.4610 C   0  0  0  0  0  2  0  0  0  0  0  0
  187.8430  177.2200  136.1500 N   0  0  0  0  0  2  0  0  0  0  0  0
  183.0330  179.0600  140.0650 C   0  0  0  0  0  1  0  0  0  0  0  0
  186.6030  179.0400  143.6910 C   0  0  1  0  0  3  0  0  0  0  0  0
  189.7010  178.0290  142.4720 N   0  0  0  0  0  2  0  0  0  0  0  0
  182.6970  177.8370  137.4710 C   0  0  0  0  0  2  0  0  0  0  0  0
  179.9840  174.1910  140.3480 C   0  0  0  0  0  1  0  0  0  0  0  0
  182.0510  176.6100  138.0590 C   0  0  0  0  0  0  0  0  0  0  0  0
  181.6920  175.4540  137.3530 C   0  0  0  0  0  0  0  0  0  0  0  0
  180.7210  174.9910  139.3340 C   0  0  0  0  0  0  0  0  0  0  0  0
  181.3910  176.5060  139.6110 S   0  0  0  0  0  0  0  0  0  0  0  0
  180.9690  174.5550  138.0780 N   0  0  0  0  0  0  0  0  0  0  0  0
  182.1060  175.1580  135.9650 C   0  0  0  0  0  0  0  0  0  0  0  0
  181.5020  175.6960  135.0000 O   0  0  0  0  0  0  0  0  0  0  0  0
  183.2440  174.3340  135.6990 N   0  0  0  0  0  2  0  0  0  0  0  0
  184.0040  172.5550  137.3310 C   0  0  0  0  0  2  0  0  0  0  0  0
  184.6780  172.3290  135.9830 C   0  0  0  0  0  2  0  0  0  0  0  0
  183.2930  172.9190  136.0510 C   0  0  0  0  0  0  0  0  0  0  0  0
  182.1660  172.0130  135.5910 C   0  0  0  0  0  1  0  0  0  0  0  0
  186.1540  179.0790  145.1400 C   0  0  0  0  0  2  0  0  0  0  0  0
  184.4820  178.4120  146.6150 C   0  0  0  0  0  1  0  0  0  0  0  0
  185.1530  178.0550  145.3800 N   0  0  0  0  0  2  0  0  0  0  0  0
  190.1900  176.0720  135.8200 C   0  0  0  0  0  2  0  0  0  0  0  0
  191.4030  175.1810  135.5860 C   0  0  1  0  0  3  0  0  0  0  0  0
  191.1140  174.2370  134.6040 O   0  0  0  0  0  1  0  0  0  0  0  0
  192.6500  175.9920  135.2150 C   0  0  0  0  0  2  0  0  0  0  0  0
  194.7960  176.8850  136.2020 O   0  0  0  0  0  1  0  0  0  0  0  0
  193.8610  174.8520  137.2230 C   0  0  0  0  0  2  0  0  0  0  0  0
  193.6730  176.0680  136.3450 C   0  0  0  0  0  0  0  0  0  0  0  0
  193.0980  176.0660  137.7430 C   0  0  0  0  0  2  0  0  0  0  0  0
  1 12  1  0  0  0  0
  1  2  1  0  0  0  0
  2  7  1  1  0  0  0
  7 14  1  0  0  0  0
  8  6  1  6  0  0  0
  8 18  1  0  0  0  0
  8 16  1  0  0  0  0
 10 11  1  0  0  0  0
 11  9  1  6  0  0  0
 11 17  1  0  0  0  0
 12 23  1  6  0  0  0
 12  2  1  0  0  0  0
 13 18  1  6  0  0  0
 13 15  1  0  0  0  0
 13 25  1  0  0  0  0
 14  5  1  6  0  0  0
 14 22  1  0  0  0  0
 14 19  1  0  0  0  0
 15  3  2  0  0  0  0
 15  4  2  0  0  0  0
 16 25  1  0  0  0  0
 17 27  1  6  0  0  0
 17 21  1  0  0  0  0
 19 22  1  6  0  0  0
 19 26  1  0  0  0  0
 20 10  1  0  0  0  0
 20 23  1  0  0  0  0
 21 24  1  0  0  0  0
 21  6  1  0  0  0  0
 25 41  1  1  0  0  0
 26 15  1  0  0  0  0
 27 29  1  0  0  0  0
 29 32  1  0  0  0  0
 30 29  2  0  0  0  0
 30 33  1  0  0  0  0
 31 32  1  0  0  0  0
 31 28  1  0  0  0  0
 33 31  2  0  0  0  0
 34 30  1  0  0  0  0
 35 34  2  0  0  0  0
 36 34  1  0  0  0  0
 36 39  1  0  0  0  0
 38 39  1  0  0  0  0
 38 37  1  0  0  0  0
 39 37  1  0  0  0  0
 40 39  1  0  0  0  0
 41 43  1  0  0  0  0
 43 42  1  0  0  0  0
 44  1  1  0  0  0  0
 45 46  1  6  0  0  0
 45 44  1  0  0  0  0
 47 45  1  0  0  0  0
 47 50  1  0  0  0  0
 48 50  1  0  0  0  0
 49 51  1  0  0  0  0
 50 49  1  0  0  0  0
 50 51  1  0  0  0  0
M  END
>  <MODEL>
9

>  <REMARK>
 VINA RESULT:      -4.8      3.349      7.514
  Name = 
  10 active torsions:
  status: ('A' for Active; 'I' for Inactive)
    1  A    between atoms: N_1  and  C_37
    2  A    between atoms: C_9  and  C_17
    3  A    between atoms: C_9  and  C_37
    4  A    between atoms: C_11  and  C_35
    5  A    between atoms: C_17  and  C_28
    6  A    between atoms: C_25  and  C_31
    7  A    between atoms: C_31  and  C_34
    8  A    between atoms: C_32  and  N_38
    9  A    between atoms: C_32  and  C_49
   10  A    between atoms: N_33  and  C_36
                            x       y       z     vdW  Elec       q    Type
                         _______ _______ _______ _____ _____    ______ ____

>  <TORSDO>
F 10

$$$$
