=
 OpenBabel10232411143D

 33 37  0  0  1  0  0  0  0  0999 V2000
  189.1240  176.5530  144.0240 C   0  0  2  0  0  3  0  0  0  0  0  0
  183.9500  178.8420  144.7180 C   0  0  0  0  0  3  0  0  0  0  0  0
  185.6850  177.9470  143.2670 C   0  0  0  0  0  0  0  0  0  0  0  0
  183.1350  179.0730  143.6040 C   0  0  0  0  0  0  0  0  0  0  0  0
  183.6020  178.7370  142.3220 C   0  0  0  0  0  3  0  0  0  0  0  0
  185.2200  178.2820  144.5600 C   0  0  0  0  0  0  0  0  0  0  0  0
  186.0330  178.0520  145.6720 C   0  0  0  0  0  3  0  0  0  0  0  0
  184.8730  178.1760  142.1550 C   0  0  0  0  0  3  0  0  0  0  0  0
  186.9560  177.3870  143.1080 C   0  0  0  0  0  3  0  0  0  0  0  0
  187.7680  177.1580  144.2240 C   0  0  0  0  0  0  0  0  0  0  0  0
  187.3020  177.4910  145.5050 C   0  0  0  0  0  3  0  0  0  0  0  0
  181.8700  179.6340  143.7990 O   0  0  0  0  0  0  0  0  0  0  0  0
  180.8020  179.4570  142.8780 C   0  0  0  0  0  1  0  0  0  0  0  0
  190.7510  177.2300  145.9830 C   0  0  0  0  0  2  0  0  0  0  0  0
  190.2240  178.8090  144.2080 O   0  0  0  0  0  1  0  0  0  0  0  0
  191.6200  176.8910  144.7730 C   0  0  0  0  0  2  0  0  0  0  0  0
  190.2350  177.4660  144.5830 C   0  0  0  0  0  0  0  0  0  0  0  0
  189.3060  176.1280  142.5960 C   0  0  0  0  0  3  0  0  0  0  0  0
  190.0640  176.8340  141.7650 C   0  0  0  0  0  3  0  0  0  0  0  0
  190.2620  176.4700  140.3930 N   0  0  0  0  0  2  0  0  0  0  0  0
  189.4250  178.4060  139.3610 O   0  0  0  0  0  0  0  0  0  0  0  0
  189.9440  177.2650  139.2400 C   0  0  0  0  0  0  0  0  0  0  0  0
  193.9400  175.6850  137.9940 C   0  0  0  0  0  3  0  0  0  0  0  0
  189.9970  174.4880  137.2550 C   0  0  0  0  0  0  0  0  0  0  0  0
  189.2840  175.6940  137.5020 N   0  0  0  0  0  0  0  0  0  0  0  0
  192.8330  176.5460  138.0990 C   0  0  0  0  0  3  0  0  0  0  0  0
  187.9030  175.9330  137.1200 C   0  0  0  0  0  1  0  0  0  0  0  0
  189.4660  173.4100  136.8770 O   0  0  0  0  0  0  0  0  0  0  0  0
  191.4030  174.7040  137.4790 C   0  0  0  0  0  0  0  0  0  0  0  0
  190.2390  176.7450  137.8690 C   0  0  2  0  0  3  0  0  0  0  0  0
  191.5640  176.0260  137.8400 C   0  0  0  0  0  0  0  0  0  0  0  0
  192.4810  173.8300  137.3640 C   0  0  0  0  0  3  0  0  0  0  0  0
  193.7640  174.3350  137.6290 C   0  0  0  0  0  3  0  0  0  0  0  0
  1 18  1  6  0  0  0
  1 10  1  0  0  0  0
  1 17  1  0  0  0  0
  3  6  1  0  0  0  0
  4 12  1  0  0  0  0
  4  2  2  0  0  0  0
  5  4  1  0  0  0  0
  6  2  1  0  0  0  0
  6  7  2  0  0  0  0
  8  5  2  0  0  0  0
  8  3  1  0  0  0  0
  9  3  2  0  0  0  0
  9 10  1  0  0  0  0
 10 11  2  0  0  0  0
 11  7  1  0  0  0  0
 13 12  1  0  0  0  0
 15 17  1  0  0  0  0
 16 14  1  0  0  0  0
 17 16  1  0  0  0  0
 17 14  1  0  0  0  0
 19 18  2  0  0  0  0
 20 19  1  0  0  0  0
 22 21  2  0  0  0  0
 22 20  1  0  0  0  0
 23 26  1  0  0  0  0
 24 29  1  0  0  0  0
 24 25  1  0  0  0  0
 25 30  1  0  0  0  0
 27 25  1  0  0  0  0
 28 24  2  0  0  0  0
 29 31  1  0  0  0  0
 30 22  1  1  0  0  0
 31 30  1  0  0  0  0
 31 26  2  0  0  0  0
 32 29  2  0  0  0  0
 32 33  1  0  0  0  0
 33 23  2  0  0  0  0
M  END
>  <MODEL>
1

>  <REMARK>
 VINA RESULT:      -9.8      0.000      0.000
  Name = 
  6 active torsions:
  status: ('A' for Active; 'I' for Inactive)
    1  A    between atoms: C_1  and  C_11
    2  A    between atoms: C_6  and  O_7
    3  A    between atoms: C_11  and  C_25
    4  A    between atoms: C_11  and  C_33
    5  A    between atoms: N_12  and  C_16
    6  A    between atoms: C_23  and  C_28
                            x       y       z     vdW  Elec       q    Type
                         _______ _______ _______ _____ _____    ______ ____

>  <TORSDO>
F 6

$$$$
=
 OpenBabel10232411143D

 33 37  0  0  1  0  0  0  0  0999 V2000
  189.3730  177.1000  143.9350 C   0  0  2  0  0  3  0  0  0  0  0  0
  183.9700  178.7200  144.7560 C   0  0  0  0  0  3  0  0  0  0  0  0
  185.7850  178.1040  143.2580 C   0  0  0  0  0  0  0  0  0  0  0  0
  183.1220  178.9010  143.6570 C   0  0  0  0  0  0  0  0  0  0  0  0
  183.6130  178.6810  142.3590 C   0  0  0  0  0  3  0  0  0  0  0  0
  185.2960  178.3240  144.5660 C   0  0  0  0  0  0  0  0  0  0  0  0
  186.1420  178.1430  145.6630 C   0  0  0  0  0  3  0  0  0  0  0  0
  184.9400  178.2840  142.1610 C   0  0  0  0  0  3  0  0  0  0  0  0
  187.1110  177.7080  143.0670 C   0  0  0  0  0  3  0  0  0  0  0  0
  187.9560  177.5280  144.1680 C   0  0  0  0  0  0  0  0  0  0  0  0
  187.4670  177.7460  145.4660 C   0  0  0  0  0  3  0  0  0  0  0  0
  181.8010  179.2980  143.8830 O   0  0  0  0  0  0  0  0  0  0  0  0
  180.7890  179.1960  142.8900 C   0  0  0  0  0  1  0  0  0  0  0  0
  190.2920  177.0420  146.4040 C   0  0  0  0  0  2  0  0  0  0  0  0
  190.5750  179.0250  145.0210 O   0  0  0  0  0  1  0  0  0  0  0  0
  191.4820  176.8070  145.4750 C   0  0  0  0  0  2  0  0  0  0  0  0
  190.3150  177.6550  145.0230 C   0  0  0  0  0  0  0  0  0  0  0  0
  189.7870  177.3940  142.5230 C   0  0  0  0  0  3  0  0  0  0  0  0
  190.2670  176.4360  141.7390 C   0  0  0  0  0  3  0  0  0  0  0  0
  190.6790  176.6720  140.3860 N   0  0  0  0  0  2  0  0  0  0  0  0
  188.5680  176.8700  139.3750 O   0  0  0  0  0  0  0  0  0  0  0  0
  189.8210  176.8870  139.2530 C   0  0  0  0  0  0  0  0  0  0  0  0
  191.6440  173.7060  136.6880 C   0  0  0  0  0  3  0  0  0  0  0  0
  189.1970  177.0090  135.8990 C   0  0  0  0  0  0  0  0  0  0  0  0
  189.4450  177.8230  137.0390 N   0  0  0  0  0  0  0  0  0  0  0  0
  191.5420  174.8190  137.5410 C   0  0  0  0  0  3  0  0  0  0  0  0
  189.0750  179.2240  137.1530 C   0  0  0  0  0  1  0  0  0  0  0  0
  188.4410  177.3300  134.9440 O   0  0  0  0  0  0  0  0  0  0  0  0
  189.9580  175.7910  136.0020 C   0  0  0  0  0  0  0  0  0  0  0  0
  190.4160  177.1470  137.9050 C   0  0  2  0  0  3  0  0  0  0  0  0
  190.6810  175.8550  137.1760 C   0  0  0  0  0  0  0  0  0  0  0  0
  190.0410  174.7030  135.1370 C   0  0  0  0  0  3  0  0  0  0  0  0
  190.8970  173.6470  135.4950 C   0  0  0  0  0  3  0  0  0  0  0  0
  1 18  1  6  0  0  0
  1 10  1  0  0  0  0
  1 17  1  0  0  0  0
  3  6  1  0  0  0  0
  4 12  1  0  0  0  0
  4  2  2  0  0  0  0
  5  4  1  0  0  0  0
  6  2  1  0  0  0  0
  6  7  2  0  0  0  0
  8  5  2  0  0  0  0
  8  3  1  0  0  0  0
  9  3  2  0  0  0  0
  9 10  1  0  0  0  0
 10 11  2  0  0  0  0
 11  7  1  0  0  0  0
 13 12  1  0  0  0  0
 15 17  1  0  0  0  0
 16 14  1  0  0  0  0
 17 16  1  0  0  0  0
 17 14  1  0  0  0  0
 19 18  2  0  0  0  0
 20 19  1  0  0  0  0
 22 21  2  0  0  0  0
 22 20  1  0  0  0  0
 23 26  1  0  0  0  0
 24 29  1  0  0  0  0
 24 25  1  0  0  0  0
 25 27  1  0  0  0  0
 25 30  1  0  0  0  0
 28 24  2  0  0  0  0
 29 31  1  0  0  0  0
 30 22  1  1  0  0  0
 31 26  2  0  0  0  0
 31 30  1  0  0  0  0
 32 33  1  0  0  0  0
 32 29  2  0  0  0  0
 33 23  2  0  0  0  0
M  END
>  <MODEL>
2

>  <REMARK>
 VINA RESULT:      -9.2      1.349      1.760
  Name = 
  6 active torsions:
  status: ('A' for Active; 'I' for Inactive)
    1  A    between atoms: C_1  and  C_11
    2  A    between atoms: C_6  and  O_7
    3  A    between atoms: C_11  and  C_25
    4  A    between atoms: C_11  and  C_33
    5  A    between atoms: N_12  and  C_16
    6  A    between atoms: C_23  and  C_28
                            x       y       z     vdW  Elec       q    Type
                         _______ _______ _______ _____ _____    ______ ____

>  <TORSDO>
F 6

$$$$
=
 OpenBabel10232411143D

 33 37  0  0  1  0  0  0  0  0999 V2000
  188.9100  177.1850  138.2280 C   0  0  2  0  0  3  0  0  0  0  0  0
  192.6020  173.1760  136.5580 C   0  0  0  0  0  3  0  0  0  0  0  0
  192.1550  175.3640  137.5200 C   0  0  0  0  0  0  0  0  0  0  0  0
  193.9780  173.3930  136.7000 C   0  0  0  0  0  0  0  0  0  0  0  0
  194.4350  174.6000  137.2560 C   0  0  0  0  0  3  0  0  0  0  0  0
  191.6880  174.1520  136.9630 C   0  0  0  0  0  0  0  0  0  0  0  0
  190.3160  173.9350  136.8200 C   0  0  0  0  0  3  0  0  0  0  0  0
  193.5270  175.5820  137.6650 C   0  0  0  0  0  3  0  0  0  0  0  0
  191.2410  176.3410  137.9260 C   0  0  0  0  0  3  0  0  0  0  0  0
  189.8670  176.1210  137.7820 C   0  0  0  0  0  0  0  0  0  0  0  0
  189.4080  174.9160  137.2290 C   0  0  0  0  0  3  0  0  0  0  0  0
  194.8640  172.3960  136.2850 O   0  0  0  0  0  0  0  0  0  0  0  0
  195.9950  172.0060  137.0520 C   0  0  0  0  0  1  0  0  0  0  0  0
  188.8030  177.7720  135.6610 C   0  0  0  0  0  2  0  0  0  0  0  0
  188.9610  179.5350  137.3320 O   0  0  0  0  0  1  0  0  0  0  0  0
  187.4060  178.0080  136.2370 C   0  0  0  0  0  2  0  0  0  0  0  0
  188.6320  178.2000  137.1010 C   0  0  0  0  0  0  0  0  0  0  0  0
  189.3560  177.7830  139.5300 C   0  0  0  0  0  3  0  0  0  0  0  0
  188.5830  177.7270  140.6080 C   0  0  0  0  0  3  0  0  0  0  0  0
  188.9660  178.2890  141.8700 N   0  0  0  0  0  2  0  0  0  0  0  0
  188.7940  176.3670  143.2090 O   0  0  0  0  0  0  0  0  0  0  0  0
  189.0650  177.5930  143.1230 C   0  0  0  0  0  0  0  0  0  0  0  0
  186.7400  177.6630  146.9460 C   0  0  0  0  0  3  0  0  0  0  0  0
  190.8160  177.3510  146.0440 C   0  0  0  0  0  0  0  0  0  0  0  0
  190.8600  177.9090  144.7360 N   0  0  0  0  0  0  0  0  0  0  0  0
  187.3040  178.0980  145.7330 C   0  0  0  0  0  3  0  0  0  0  0  0
  192.0740  178.3160  144.0490 C   0  0  0  0  0  1  0  0  0  0  0  0
  191.8240  176.9400  146.6770 O   0  0  0  0  0  0  0  0  0  0  0  0
  189.4600  177.3590  146.5260 C   0  0  0  0  0  0  0  0  0  0  0  0
  189.5080  178.3260  144.3500 C   0  0  2  0  0  3  0  0  0  0  0  0
  188.6760  177.9280  145.5430 C   0  0  0  0  0  0  0  0  0  0  0  0
  188.9300  176.9220  147.7380 C   0  0  0  0  0  3  0  0  0  0  0  0
  187.5480  177.0770  147.9410 C   0  0  0  0  0  3  0  0  0  0  0  0
  1 18  1  1  0  0  0
  2  4  2  0  0  0  0
  2  6  1  0  0  0  0
  3  8  1  0  0  0  0
  3  9  1  0  0  0  0
  4  5  1  0  0  0  0
  5  8  2  0  0  0  0
  6  3  2  0  0  0  0
  7  6  1  0  0  0  0
  7 11  2  0  0  0  0
 10  9  2  0  0  0  0
 10  1  1  0  0  0  0
 11 10  1  0  0  0  0
 12  4  1  0  0  0  0
 12 13  1  0  0  0  0
 14 16  1  0  0  0  0
 14 17  1  0  0  0  0
 16 17  1  0  0  0  0
 17 15  1  0  0  0  0
 17  1  1  0  0  0  0
 18 19  2  0  0  0  0
 19 20  1  0  0  0  0
 20 22  1  0  0  0  0
 22 21  2  0  0  0  0
 23 33  1  0  0  0  0
 24 29  1  0  0  0  0
 24 28  2  0  0  0  0
 25 24  1  0  0  0  0
 26 23  2  0  0  0  0
 27 25  1  0  0  0  0
 29 32  1  0  0  0  0
 30 22  1  6  0  0  0
 30 25  1  0  0  0  0
 30 31  1  0  0  0  0
 31 26  1  0  0  0  0
 31 29  2  0  0  0  0
 32 33  2  0  0  0  0
M  END
>  <MODEL>
3

>  <REMARK>
 VINA RESULT:      -8.7      3.076      9.799
  Name = 
  6 active torsions:
  status: ('A' for Active; 'I' for Inactive)
    1  A    between atoms: C_1  and  C_11
    2  A    between atoms: C_6  and  O_7
    3  A    between atoms: C_11  and  C_25
    4  A    between atoms: C_11  and  C_33
    5  A    between atoms: N_12  and  C_16
    6  A    between atoms: C_23  and  C_28
                            x       y       z     vdW  Elec       q    Type
                         _______ _______ _______ _____ _____    ______ ____

>  <TORSDO>
F 6

$$$$
=
 OpenBabel10232411143D

 33 37  0  0  1  0  0  0  0  0999 V2000
  183.7850  178.9020  141.0920 C   0  0  2  0  0  3  0  0  0  0  0  0
  185.4250  178.4680  146.5340 C   0  0  0  0  0  3  0  0  0  0  0  0
  185.8880  178.1950  144.1620 C   0  0  0  0  0  0  0  0  0  0  0  0
  186.7010  177.9800  146.8400 C   0  0  0  0  0  0  0  0  0  0  0  0
  187.5670  177.6020  145.8000 C   0  0  0  0  0  3  0  0  0  0  0  0
  185.0130  178.5780  145.2040 C   0  0  0  0  0  0  0  0  0  0  0  0
  183.7400  179.0640  144.8990 C   0  0  0  0  0  3  0  0  0  0  0  0
  187.1610  177.7090  144.4660 C   0  0  0  0  0  3  0  0  0  0  0  0
  185.4760  178.3040  142.8300 C   0  0  0  0  0  3  0  0  0  0  0  0
  184.2000  178.7920  142.5280 C   0  0  0  0  0  0  0  0  0  0  0  0
  183.3340  179.1720  143.5650 C   0  0  0  0  0  3  0  0  0  0  0  0
  187.0820  177.8830  148.1810 O   0  0  0  0  0  0  0  0  0  0  0  0
  188.4350  177.9920  148.6050 C   0  0  0  0  0  1  0  0  0  0  0  0
  181.2470  178.3800  141.5730 C   0  0  0  0  0  2  0  0  0  0  0  0
  182.6730  176.7240  140.5010 O   0  0  0  0  0  1  0  0  0  0  0  0
  181.3600  178.7380  140.0920 C   0  0  0  0  0  2  0  0  0  0  0  0
  182.5150  178.0740  140.8090 C   0  0  0  0  0  0  0  0  0  0  0  0
  184.9470  178.6180  140.1850 C   0  0  0  0  0  3  0  0  0  0  0  0
  184.9330  179.0090  138.9160 C   0  0  0  0  0  3  0  0  0  0  0  0
  186.0170  178.7550  138.0130 N   0  0  0  0  0  2  0  0  0  0  0  0
  185.6410  176.4730  137.6010 O   0  0  0  0  0  0  0  0  0  0  0  0
  186.3320  177.5030  137.3820 C   0  0  0  0  0  0  0  0  0  0  0  0
  190.5830  177.0600  138.7050 C   0  0  0  0  0  3  0  0  0  0  0  0
  188.3290  175.3810  135.6030 C   0  0  0  0  0  0  0  0  0  0  0  0
  187.2790  176.3310  135.4700 N   0  0  0  0  0  0  0  0  0  0  0  0
  189.4130  177.6450  138.1890 C   0  0  0  0  0  3  0  0  0  0  0  0
  186.3600  176.4000  134.3460 C   0  0  0  0  0  1  0  0  0  0  0  0
  188.4580  174.3570  134.8820 O   0  0  0  0  0  0  0  0  0  0  0  0
  189.2180  175.7900  136.6590 C   0  0  0  0  0  0  0  0  0  0  0  0
  187.4890  177.4130  136.4390 C   0  0  2  0  0  3  0  0  0  0  0  0
  188.7400  176.9820  137.1620 C   0  0  0  0  0  0  0  0  0  0  0  0
  190.3750  175.1890  137.1480 C   0  0  0  0  0  3  0  0  0  0  0  0
  191.0600  175.8380  138.1890 C   0  0  0  0  0  3  0  0  0  0  0  0
  1 18  1  6  0  0  0
  1 10  1  0  0  0  0
  2  4  1  0  0  0  0
  3  8  2  0  0  0  0
  3  6  1  0  0  0  0
  4 12  1  0  0  0  0
  5  4  2  0  0  0  0
  6  2  2  0  0  0  0
  7  6  1  0  0  0  0
  8  5  1  0  0  0  0
  9  3  1  0  0  0  0
 10  9  2  0  0  0  0
 10 11  1  0  0  0  0
 11  7  2  0  0  0  0
 12 13  1  0  0  0  0
 15 17  1  0  0  0  0
 16 17  1  0  0  0  0
 16 14  1  0  0  0  0
 17  1  1  0  0  0  0
 17 14  1  0  0  0  0
 19 18  2  0  0  0  0
 20 19  1  0  0  0  0
 22 21  2  0  0  0  0
 22 20  1  0  0  0  0
 24 29  1  0  0  0  0
 25 24  1  0  0  0  0
 25 30  1  0  0  0  0
 26 23  1  0  0  0  0
 27 25  1  0  0  0  0
 28 24  2  0  0  0  0
 29 32  2  0  0  0  0
 29 31  1  0  0  0  0
 30 31  1  0  0  0  0
 30 22  1  1  0  0  0
 31 26  2  0  0  0  0
 32 33  1  0  0  0  0
 33 23  2  0  0  0  0
M  END
>  <MODEL>
4

>  <REMARK>
 VINA RESULT:      -8.6      2.566      5.323
  Name = 
  6 active torsions:
  status: ('A' for Active; 'I' for Inactive)
    1  A    between atoms: C_1  and  C_11
    2  A    between atoms: C_6  and  O_7
    3  A    between atoms: C_11  and  C_25
    4  A    between atoms: C_11  and  C_33
    5  A    between atoms: N_12  and  C_16
    6  A    between atoms: C_23  and  C_28
                            x       y       z     vdW  Elec       q    Type
                         _______ _______ _______ _____ _____    ______ ____

>  <TORSDO>
F 6

$$$$
=
 OpenBabel10232411143D

 33 37  0  0  1  0  0  0  0  0999 V2000
  182.8590  179.1170  142.3830 C   0  0  2  0  0  3  0  0  0  0  0  0
  186.5490  178.0340  146.5900 C   0  0  0  0  0  3  0  0  0  0  0  0
  185.9910  178.0450  144.2230 C   0  0  0  0  0  0  0  0  0  0  0  0
  187.8130  177.5120  146.2920 C   0  0  0  0  0  0  0  0  0  0  0  0
  188.1590  177.2590  144.9540 C   0  0  0  0  0  3  0  0  0  0  0  0
  185.6370  178.3030  145.5670 C   0  0  0  0  0  0  0  0  0  0  0  0
  184.3760  178.8240  145.8660 C   0  0  0  0  0  3  0  0  0  0  0  0
  187.2520  177.5250  143.9230 C   0  0  0  0  0  3  0  0  0  0  0  0
  185.0790  178.3140  143.1990 C   0  0  0  0  0  3  0  0  0  0  0  0
  183.8160  178.8360  143.5010 C   0  0  0  0  0  0  0  0  0  0  0  0
  183.4690  179.0910  144.8370 C   0  0  0  0  0  3  0  0  0  0  0  0
  188.7010  177.2550  147.3390 O   0  0  0  0  0  0  0  0  0  0  0  0
  188.7270  178.0300  148.5310 C   0  0  0  0  0  1  0  0  0  0  0  0
  180.2950  179.7130  142.2550 C   0  0  0  0  0  2  0  0  0  0  0  0
  181.1750  178.4120  144.1140 O   0  0  0  0  0  1  0  0  0  0  0  0
  180.4450  178.2640  141.7920 C   0  0  0  0  0  2  0  0  0  0  0  0
  181.4020  178.8450  142.8090 C   0  0  0  0  0  0  0  0  0  0  0  0
  183.2970  178.4210  141.1270 C   0  0  0  0  0  3  0  0  0  0  0  0
  183.5540  179.1090  140.0210 C   0  0  0  0  0  3  0  0  0  0  0  0
  183.9700  178.4870  138.7980 N   0  0  0  0  0  2  0  0  0  0  0  0
  186.2880  178.4260  139.1710 O   0  0  0  0  0  0  0  0  0  0  0  0
  185.3160  178.1600  138.4160 C   0  0  0  0  0  0  0  0  0  0  0  0
  189.2650  178.2630  136.3160 C   0  0  0  0  0  3  0  0  0  0  0  0
  186.3870  175.2840  136.9210 C   0  0  0  0  0  0  0  0  0  0  0  0
  185.2260  176.0620  137.1860 N   0  0  0  0  0  0  0  0  0  0  0  0
  187.9170  178.5330  136.6100 C   0  0  0  0  0  3  0  0  0  0  0  0
  183.8660  175.5490  137.1850 C   0  0  0  0  0  1  0  0  0  0  0  0
  186.4050  174.0260  136.8700 O   0  0  0  0  0  0  0  0  0  0  0  0
  187.5110  176.1560  136.6980 C   0  0  0  0  0  0  0  0  0  0  0  0
  185.5780  177.4840  137.1070 C   0  0  2  0  0  3  0  0  0  0  0  0
  187.0540  177.4530  136.8040 C   0  0  0  0  0  0  0  0  0  0  0  0
  188.8400  175.8590  136.4050 C   0  0  0  0  0  3  0  0  0  0  0  0
  189.7240  176.9340  136.2160 C   0  0  0  0  0  3  0  0  0  0  0  0
  1 18  1  6  0  0  0
  1 17  1  0  0  0  0
  1 10  1  0  0  0  0
  3  6  1  0  0  0  0
  4  2  1  0  0  0  0
  4 12  1  0  0  0  0
  5  4  2  0  0  0  0
  6  7  1  0  0  0  0
  6  2  2  0  0  0  0
  8  3  2  0  0  0  0
  8  5  1  0  0  0  0
  9 10  2  0  0  0  0
  9  3  1  0  0  0  0
 10 11  1  0  0  0  0
 11  7  2  0  0  0  0
 12 13  1  0  0  0  0
 14 17  1  0  0  0  0
 16 14  1  0  0  0  0
 16 17  1  0  0  0  0
 17 15  1  0  0  0  0
 19 18  2  0  0  0  0
 20 19  1  0  0  0  0
 22 20  1  0  0  0  0
 22 21  2  0  0  0  0
 23 26  1  0  0  0  0
 24 25  1  0  0  0  0
 26 31  2  0  0  0  0
 27 25  1  0  0  0  0
 28 24  2  0  0  0  0
 29 31  1  0  0  0  0
 29 24  1  0  0  0  0
 30 25  1  0  0  0  0
 30 22  1  1  0  0  0
 31 30  1  0  0  0  0
 32 29  2  0  0  0  0
 33 23  2  0  0  0  0
 33 32  1  0  0  0  0
M  END
>  <MODEL>
5

>  <REMARK>
 VINA RESULT:      -8.6      2.781      5.948
  Name = 
  6 active torsions:
  status: ('A' for Active; 'I' for Inactive)
    1  A    between atoms: C_1  and  C_11
    2  A    between atoms: C_6  and  O_7
    3  A    between atoms: C_11  and  C_25
    4  A    between atoms: C_11  and  C_33
    5  A    between atoms: N_12  and  C_16
    6  A    between atoms: C_23  and  C_28
                            x       y       z     vdW  Elec       q    Type
                         _______ _______ _______ _____ _____    ______ ____

>  <TORSDO>
F 6

$$$$
=
 OpenBabel10232411143D

 33 37  0  0  1  0  0  0  0  0999 V2000
  185.2420  179.0920  143.8680 C   0  0  2  0  0  3  0  0  0  0  0  0
  189.2300  177.1490  147.4470 C   0  0  0  0  0  3  0  0  0  0  0  0
  188.5040  177.6930  145.1910 C   0  0  0  0  0  0  0  0  0  0  0  0
  190.4720  176.7360  146.9500 C   0  0  0  0  0  0  0  0  0  0  0  0
  190.7230  176.8060  145.5690 C   0  0  0  0  0  3  0  0  0  0  0  0
  188.2460  177.6270  146.5790 C   0  0  0  0  0  0  0  0  0  0  0  0
  187.0070  178.0380  147.0760 C   0  0  0  0  0  3  0  0  0  0  0  0
  189.7420  177.2830  144.6930 C   0  0  0  0  0  3  0  0  0  0  0  0
  187.5180  178.1700  144.3210 C   0  0  0  0  0  3  0  0  0  0  0  0
  186.2780  178.5820  144.8220 C   0  0  0  0  0  0  0  0  0  0  0  0
  186.0270  178.5150  146.2020 C   0  0  0  0  0  3  0  0  0  0  0  0
  191.4350  176.2650  147.8460 O   0  0  0  0  0  0  0  0  0  0  0  0
  192.5010  175.4130  147.4480 C   0  0  0  0  0  1  0  0  0  0  0  0
  182.7280  179.8810  143.9150 C   0  0  0  0  0  2  0  0  0  0  0  0
  183.7210  178.7880  145.8500 O   0  0  0  0  0  1  0  0  0  0  0  0
  182.7230  178.3740  143.6640 C   0  0  0  0  0  2  0  0  0  0  0  0
  183.8280  179.0100  144.4780 C   0  0  0  0  0  0  0  0  0  0  0  0
  185.3960  178.4410  142.5250 C   0  0  0  0  0  3  0  0  0  0  0  0
  185.6630  179.1630  141.4430 C   0  0  0  0  0  3  0  0  0  0  0  0
  185.8140  178.5850  140.1400 N   0  0  0  0  0  2  0  0  0  0  0  0
  184.4820  180.0760  138.9080 O   0  0  0  0  0  0  0  0  0  0  0  0
  185.2260  179.0610  138.9180 C   0  0  0  0  0  0  0  0  0  0  0  0
  189.3480  178.1930  137.4080 C   0  0  0  0  0  3  0  0  0  0  0  0
  185.7690  176.0230  137.4580 C   0  0  0  0  0  0  0  0  0  0  0  0
  184.8090  177.0630  137.5910 N   0  0  0  0  0  0  0  0  0  0  0  0
  188.0790  178.7880  137.5190 C   0  0  0  0  0  3  0  0  0  0  0  0
  183.3810  176.9060  137.3740 C   0  0  0  0  0  1  0  0  0  0  0  0
  185.4850  174.8000  137.3520 O   0  0  0  0  0  0  0  0  0  0  0  0
  187.0930  176.5880  137.4380 C   0  0  0  0  0  0  0  0  0  0  0  0
  185.5060  178.3530  137.6300 C   0  0  2  0  0  3  0  0  0  0  0  0
  186.9580  177.9570  137.5380 C   0  0  0  0  0  0  0  0  0  0  0  0
  188.3370  175.9710  137.3240 C   0  0  0  0  0  3  0  0  0  0  0  0
  189.4760  176.7930  137.3130 C   0  0  0  0  0  3  0  0  0  0  0  0
  1 18  1  6  0  0  0
  1 17  1  0  0  0  0
  1 10  1  0  0  0  0
  3  6  1  0  0  0  0
  4  2  1  0  0  0  0
  4 12  1  0  0  0  0
  5  4  2  0  0  0  0
  6  7  1  0  0  0  0
  6  2  2  0  0  0  0
  8  3  2  0  0  0  0
  8  5  1  0  0  0  0
  9 10  2  0  0  0  0
  9  3  1  0  0  0  0
 10 11  1  0  0  0  0
 11  7  2  0  0  0  0
 13 12  1  0  0  0  0
 14 17  1  0  0  0  0
 16 14  1  0  0  0  0
 16 17  1  0  0  0  0
 17 15  1  0  0  0  0
 19 18  2  0  0  0  0
 20 19  1  0  0  0  0
 21 22  2  0  0  0  0
 22 20  1  0  0  0  0
 23 26  1  0  0  0  0
 24 25  1  0  0  0  0
 25 30  1  0  0  0  0
 26 31  2  0  0  0  0
 27 25  1  0  0  0  0
 28 24  2  0  0  0  0
 29 24  1  0  0  0  0
 29 31  1  0  0  0  0
 30 22  1  1  0  0  0
 31 30  1  0  0  0  0
 32 29  2  0  0  0  0
 33 32  1  0  0  0  0
 33 23  2  0  0  0  0
M  END
>  <MODEL>
6

>  <REMARK>
 VINA RESULT:      -8.6      2.782      5.988
  Name = 
  6 active torsions:
  status: ('A' for Active; 'I' for Inactive)
    1  A    between atoms: C_1  and  C_11
    2  A    between atoms: C_6  and  O_7
    3  A    between atoms: C_11  and  C_25
    4  A    between atoms: C_11  and  C_33
    5  A    between atoms: N_12  and  C_16
    6  A    between atoms: C_23  and  C_28
                            x       y       z     vdW  Elec       q    Type
                         _______ _______ _______ _____ _____    ______ ____

>  <TORSDO>
F 6

$$$$
=
 OpenBabel10232411143D

 33 37  0  0  1  0  0  0  0  0999 V2000
  184.5570  178.8670  143.2350 C   0  0  2  0  0  3  0  0  0  0  0  0
  189.3160  176.9200  145.6950 C   0  0  0  0  0  3  0  0  0  0  0  0
  187.1240  177.9590  145.8680 C   0  0  0  0  0  0  0  0  0  0  0  0
  189.4660  177.0000  147.0840 C   0  0  0  0  0  0  0  0  0  0  0  0
  188.4370  177.5610  147.8600 C   0  0  0  0  0  3  0  0  0  0  0  0
  188.1540  177.3950  145.0810 C   0  0  0  0  0  0  0  0  0  0  0  0
  188.0060  177.3150  143.6950 C   0  0  0  0  0  3  0  0  0  0  0  0
  187.2700  178.0380  147.2540 C   0  0  0  0  0  3  0  0  0  0  0  0
  185.9610  178.4340  145.2550 C   0  0  0  0  0  3  0  0  0  0  0  0
  185.8150  178.3530  143.8650 C   0  0  0  0  0  0  0  0  0  0  0  0
  186.8400  177.7910  143.0880 C   0  0  0  0  0  3  0  0  0  0  0  0
  190.6400  176.5160  147.6650 O   0  0  0  0  0  0  0  0  0  0  0  0
  191.7860  176.1630  146.9010 C   0  0  0  0  0  1  0  0  0  0  0  0
  182.0840  179.5460  143.8430 C   0  0  0  0  0  2  0  0  0  0  0  0
  183.7310  179.1630  145.5930 O   0  0  0  0  0  1  0  0  0  0  0  0
  182.2040  178.0380  144.0610 C   0  0  0  0  0  2  0  0  0  0  0  0
  183.4040  178.9370  144.2570 C   0  0  0  0  0  0  0  0  0  0  0  0
  184.2490  178.1070  141.9780 C   0  0  0  0  0  3  0  0  0  0  0  0
  184.2030  178.7230  140.8020 C   0  0  0  0  0  3  0  0  0  0  0  0
  183.9080  178.0390  139.5780 N   0  0  0  0  0  2  0  0  0  0  0  0
  185.7160  178.7880  138.2790 O   0  0  0  0  0  0  0  0  0  0  0  0
  184.6730  178.0880  138.3620 C   0  0  0  0  0  0  0  0  0  0  0  0
  186.3550  174.0740  137.3230 C   0  0  0  0  0  3  0  0  0  0  0  0
  182.5010  175.7060  137.2370 C   0  0  0  0  0  0  0  0  0  0  0  0
  182.7840  177.0990  137.1870 N   0  0  0  0  0  0  0  0  0  0  0  0
  186.0960  175.4550  137.2620 C   0  0  0  0  0  3  0  0  0  0  0  0
  181.8160  178.1300  136.8540 C   0  0  0  0  0  1  0  0  0  0  0  0
  181.3420  175.2130  137.2160 O   0  0  0  0  0  0  0  0  0  0  0  0
  183.7340  174.9640  137.2890 C   0  0  0  0  0  0  0  0  0  0  0  0
  184.2390  177.2890  137.1740 C   0  0  2  0  0  3  0  0  0  0  0  0
  184.7660  175.8790  137.2530 C   0  0  0  0  0  0  0  0  0  0  0  0
  183.9600  173.5910  137.3450 C   0  0  0  0  0  3  0  0  0  0  0  0
  185.2930  173.1480  137.3650 C   0  0  0  0  0  3  0  0  0  0  0  0
  1 18  1  6  0  0  0
  1 10  1  0  0  0  0
  1 17  1  0  0  0  0
  2  4  1  0  0  0  0
  3  8  2  0  0  0  0
  4 12  1  0  0  0  0
  4  5  2  0  0  0  0
  6  2  2  0  0  0  0
  6  3  1  0  0  0  0
  7  6  1  0  0  0  0
  8  5  1  0  0  0  0
  9  3  1  0  0  0  0
 10  9  2  0  0  0  0
 11  7  2  0  0  0  0
 11 10  1  0  0  0  0
 13 12  1  0  0  0  0
 14 16  1  0  0  0  0
 14 17  1  0  0  0  0
 16 17  1  0  0  0  0
 17 15  1  0  0  0  0
 19 18  2  0  0  0  0
 20 19  1  0  0  0  0
 21 22  2  0  0  0  0
 22 20  1  0  0  0  0
 23 33  1  0  0  0  0
 24 29  1  0  0  0  0
 25 24  1  0  0  0  0
 26 23  2  0  0  0  0
 27 25  1  0  0  0  0
 28 24  2  0  0  0  0
 29 32  1  0  0  0  0
 30 25  1  0  0  0  0
 30 31  1  0  0  0  0
 30 22  1  1  0  0  0
 31 26  1  0  0  0  0
 31 29  2  0  0  0  0
 32 33  2  0  0  0  0
M  END
>  <MODEL>
7

>  <REMARK>
 VINA RESULT:      -8.4      3.944      6.815
  Name = 
  6 active torsions:
  status: ('A' for Active; 'I' for Inactive)
    1  A    between atoms: C_1  and  C_11
    2  A    between atoms: C_6  and  O_7
    3  A    between atoms: C_11  and  C_25
    4  A    between atoms: C_11  and  C_33
    5  A    between atoms: N_12  and  C_16
    6  A    between atoms: C_23  and  C_28
                            x       y       z     vdW  Elec       q    Type
                         _______ _______ _______ _____ _____    ______ ____

>  <TORSDO>
F 6

$$$$
=
 OpenBabel10232411143D

 33 37  0  0  1  0  0  0  0  0999 V2000
  182.5280  179.0190  142.1870 C   0  0  2  0  0  3  0  0  0  0  0  0
  186.5770  178.1330  146.1000 C   0  0  0  0  0  3  0  0  0  0  0  0
  185.8150  178.0400  143.7920 C   0  0  0  0  0  0  0  0  0  0  0  0
  187.8130  177.6020  145.7150 C   0  0  0  0  0  0  0  0  0  0  0  0
  188.0450  177.2940  144.3640 C   0  0  0  0  0  3  0  0  0  0  0  0
  185.5770  178.3540  145.1490 C   0  0  0  0  0  0  0  0  0  0  0  0
  184.3430  178.8830  145.5340 C   0  0  0  0  0  3  0  0  0  0  0  0
  187.0490  177.5120  143.4060 C   0  0  0  0  0  3  0  0  0  0  0  0
  184.8160  178.2600  142.8400 C   0  0  0  0  0  3  0  0  0  0  0  0
  183.5800  178.7900  143.2280 C   0  0  0  0  0  0  0  0  0  0  0  0
  183.3480  179.1010  144.5770 C   0  0  0  0  0  3  0  0  0  0  0  0
  188.7910  177.3940  146.6910 O   0  0  0  0  0  0  0  0  0  0  0  0
  188.7400  178.0090  147.9720 C   0  0  0  0  0  1  0  0  0  0  0  0
  180.0830  178.1010  142.5390 C   0  0  0  0  0  2  0  0  0  0  0  0
  180.6050  180.4380  142.9750 O   0  0  0  0  0  1  0  0  0  0  0  0
  180.7330  178.1930  143.9190 C   0  0  0  0  0  2  0  0  0  0  0  0
  181.1290  179.1550  142.8220 C   0  0  0  0  0  0  0  0  0  0  0  0
  182.6360  177.9960  141.0940 C   0  0  0  0  0  3  0  0  0  0  0  0
  182.4170  178.3250  139.8270 C   0  0  0  0  0  3  0  0  0  0  0  0
  182.5040  177.3800  138.7520 N   0  0  0  0  0  2  0  0  0  0  0  0
  184.5190  178.0950  137.7800 O   0  0  0  0  0  0  0  0  0  0  0  0
  183.5500  177.2910  137.7710 C   0  0  0  0  0  0  0  0  0  0  0  0
  186.6770  174.1240  137.3170 C   0  0  0  0  0  3  0  0  0  0  0  0
  182.4990  174.1220  137.0570 C   0  0  0  0  0  0  0  0  0  0  0  0
  182.2320  175.4940  136.7930 N   0  0  0  0  0  0  0  0  0  0  0  0
  185.9140  175.2750  137.0540 C   0  0  0  0  0  3  0  0  0  0  0  0
  180.9580  176.0150  136.3260 C   0  0  0  0  0  1  0  0  0  0  0  0
  181.6180  173.2250  137.1300 O   0  0  0  0  0  0  0  0  0  0  0  0
  183.9190  173.9260  137.1970 C   0  0  0  0  0  0  0  0  0  0  0  0
  183.5030  176.2230  136.7250 C   0  0  2  0  0  3  0  0  0  0  0  0
  184.5240  175.1500  137.0050 C   0  0  0  0  0  0  0  0  0  0  0  0
  184.6490  172.7680  137.4550 C   0  0  0  0  0  3  0  0  0  0  0  0
  186.0480  172.8780  137.5170 C   0  0  0  0  0  3  0  0  0  0  0  0
  1 18  1  6  0  0  0
  1 17  1  0  0  0  0
  1 10  1  0  0  0  0
  3  6  1  0  0  0  0
  4  2  1  0  0  0  0
  4 12  1  0  0  0  0
  5  4  2  0  0  0  0
  6  7  1  0  0  0  0
  6  2  2  0  0  0  0
  8  3  2  0  0  0  0
  8  5  1  0  0  0  0
  9 10  2  0  0  0  0
  9  3  1  0  0  0  0
 10 11  1  0  0  0  0
 11  7  2  0  0  0  0
 12 13  1  0  0  0  0
 14 17  1  0  0  0  0
 14 16  1  0  0  0  0
 17 15  1  0  0  0  0
 17 16  1  0  0  0  0
 19 18  2  0  0  0  0
 20 19  1  0  0  0  0
 22 21  2  0  0  0  0
 22 20  1  0  0  0  0
 23 33  1  0  0  0  0
 24 28  2  0  0  0  0
 24 29  1  0  0  0  0
 25 24  1  0  0  0  0
 26 23  2  0  0  0  0
 27 25  1  0  0  0  0
 29 32  1  0  0  0  0
 30 25  1  0  0  0  0
 30 31  1  0  0  0  0
 30 22  1  1  0  0  0
 31 26  1  0  0  0  0
 31 29  2  0  0  0  0
 32 33  2  0  0  0  0
M  END
>  <MODEL>
8

>  <REMARK>
 VINA RESULT:      -8.3      4.064      6.983
  Name = 
  6 active torsions:
  status: ('A' for Active; 'I' for Inactive)
    1  A    between atoms: C_1  and  C_11
    2  A    between atoms: C_6  and  O_7
    3  A    between atoms: C_11  and  C_25
    4  A    between atoms: C_11  and  C_33
    5  A    between atoms: N_12  and  C_16
    6  A    between atoms: C_23  and  C_28
                            x       y       z     vdW  Elec       q    Type
                         _______ _______ _______ _____ _____    ______ ____

>  <TORSDO>
F 6

$$$$
=
 OpenBabel10232411143D

 33 37  0  0  1  0  0  0  0  0999 V2000
  186.9140  178.8020  141.9310 C   0  0  2  0  0  3  0  0  0  0  0  0
  189.4090  176.7790  146.6390 C   0  0  0  0  0  3  0  0  0  0  0  0
  189.5670  177.6310  144.3670 C   0  0  0  0  0  0  0  0  0  0  0  0
  190.8010  176.6360  146.6840 C   0  0  0  0  0  0  0  0  0  0  0  0
  191.5700  176.9940  145.5640 C   0  0  0  0  0  3  0  0  0  0  0  0
  188.7870  177.2740  145.4900 C   0  0  0  0  0  0  0  0  0  0  0  0
  187.3980  177.4160  145.4470 C   0  0  0  0  0  3  0  0  0  0  0  0
  190.9550  177.4890  144.4100 C   0  0  0  0  0  3  0  0  0  0  0  0
  188.9450  178.1250  143.2160 C   0  0  0  0  0  3  0  0  0  0  0  0
  187.5530  178.2670  143.1750 C   0  0  0  0  0  0  0  0  0  0  0  0
  186.7830  177.9120  144.2940 C   0  0  0  0  0  3  0  0  0  0  0  0
  191.3900  176.1390  147.8490 O   0  0  0  0  0  0  0  0  0  0  0  0
  192.7440  175.7090  147.9010 C   0  0  0  0  0  1  0  0  0  0  0  0
  184.5070  179.0660  140.8890 C   0  0  0  0  0  2  0  0  0  0  0  0
  184.9490  179.7550  143.1810 O   0  0  0  0  0  1  0  0  0  0  0  0
  184.4820  177.8190  141.7740 C   0  0  0  0  0  2  0  0  0  0  0  0
  185.3920  178.9790  142.1120 C   0  0  0  0  0  0  0  0  0  0  0  0
  187.3240  177.9910  140.7360 C   0  0  0  0  0  3  0  0  0  0  0  0
  188.1000  178.5110  139.7930 C   0  0  0  0  0  3  0  0  0  0  0  0
  188.5120  177.7750  138.6330 N   0  0  0  0  0  2  0  0  0  0  0  0
  189.0420  179.5700  137.2140 O   0  0  0  0  0  0  0  0  0  0  0  0
  188.9740  178.3250  137.3880 C   0  0  0  0  0  0  0  0  0  0  0  0
  192.4200  175.4860  137.6800 C   0  0  0  0  0  3  0  0  0  0  0  0
  188.5840  175.2200  136.0240 C   0  0  0  0  0  0  0  0  0  0  0  0
  188.2620  176.5920  135.8340 N   0  0  0  0  0  0  0  0  0  0  0  0
  191.6570  176.6050  137.3010 C   0  0  0  0  0  3  0  0  0  0  0  0
  187.1600  177.0800  135.0230 C   0  0  0  0  0  1  0  0  0  0  0  0
  187.8360  174.2600  135.6980 O   0  0  0  0  0  0  0  0  0  0  0  0
  189.8930  175.1090  136.6140 C   0  0  0  0  0  0  0  0  0  0  0  0
  189.3940  177.4130  136.2790 C   0  0  2  0  0  3  0  0  0  0  0  0
  190.3840  176.3890  136.7710 C   0  0  0  0  0  0  0  0  0  0  0  0
  190.6270  173.9820  136.9770 C   0  0  0  0  0  3  0  0  0  0  0  0
  191.9070  174.1830  137.5210 C   0  0  0  0  0  3  0  0  0  0  0  0
  1 18  1  6  0  0  0
  1 17  1  0  0  0  0
  1 10  1  0  0  0  0
  2  4  1  0  0  0  0
  3  8  2  0  0  0  0
  3  6  1  0  0  0  0
  4 12  1  0  0  0  0
  5  4  2  0  0  0  0
  6  2  2  0  0  0  0
  7  6  1  0  0  0  0
  8  5  1  0  0  0  0
  9  3  1  0  0  0  0
 10  9  2  0  0  0  0
 10 11  1  0  0  0  0
 11  7  2  0  0  0  0
 12 13  1  0  0  0  0
 14 16  1  0  0  0  0
 14 17  1  0  0  0  0
 16 17  1  0  0  0  0
 17 15  1  0  0  0  0
 19 18  2  0  0  0  0
 20 19  1  0  0  0  0
 21 22  2  0  0  0  0
 22 20  1  0  0  0  0
 24 29  1  0  0  0  0
 25 24  1  0  0  0  0
 25 30  1  0  0  0  0
 26 23  2  0  0  0  0
 27 25  1  0  0  0  0
 28 24  2  0  0  0  0
 29 31  2  0  0  0  0
 29 32  1  0  0  0  0
 30 31  1  0  0  0  0
 30 22  1  1  0  0  0
 31 26  1  0  0  0  0
 32 33  2  0  0  0  0
 33 23  1  0  0  0  0
M  END
>  <MODEL>
9

>  <REMARK>
 VINA RESULT:      -8.3      1.997      5.110
  Name = 
  6 active torsions:
  status: ('A' for Active; 'I' for Inactive)
    1  A    between atoms: C_1  and  C_11
    2  A    between atoms: C_6  and  O_7
    3  A    between atoms: C_11  and  C_25
    4  A    between atoms: C_11  and  C_33
    5  A    between atoms: N_12  and  C_16
    6  A    between atoms: C_23  and  C_28
                            x       y       z     vdW  Elec       q    Type
                         _______ _______ _______ _____ _____    ______ ____

>  <TORSDO>
F 6

$$$$
