=
 OpenBabel10232410523D

 49 56  0  0  1  0  0  0  0  0999 V2000
  190.2290  177.5800  139.1890 C   0  0  2  0  0  3  0  0  0  0  0  0
  187.9470  178.5920  136.3350 C   0  0  0  0  0  2  0  0  0  0  0  0
  187.9920  177.1020  135.9980 C   0  0  0  0  0  2  0  0  0  0  0  0
  189.0310  178.9180  137.3560 C   0  0  0  0  0  2  0  0  0  0  0  0
  187.8420  176.9540  138.5550 C   0  0  0  0  0  2  0  0  0  0  0  0
  187.8960  176.1890  137.2300 C   0  0  1  0  0  3  0  0  0  0  0  0
  188.8870  178.0770  138.6400 C   0  0  1  0  0  3  0  0  0  0  0  0
  186.6800  175.2800  137.1250 C   0  0  0  0  0  2  0  0  0  0  0  0
  185.5520  175.9510  136.3550 C   0  0  0  0  0  2  0  0  0  0  0  0
  184.2710  175.9700  137.1730 C   0  0  0  0  0  2  0  0  0  0  0  0
  183.5340  177.1360  136.8880 O   0  0  0  0  0  0  0  0  0  0  0  0
  180.9270  178.5990  138.6100 N   0  0  0  0  0  2  0  0  0  0  0  0
  184.5400  178.6360  138.5270 C   0  0  0  0  0  2  0  0  0  0  0  0
  183.5280  178.9100  140.8510 C   0  0  0  0  0  2  0  0  0  0  0  0
  182.3590  177.9700  140.5440 C   0  0  2  0  0  3  0  0  0  0  0  0
  182.7930  176.6440  139.3500 S   0  0  0  0  0  0  0  0  0  0  0  0
  183.2720  177.8730  138.0700 C   0  0  2  0  0  0  0  0  0  0  0  0
  182.1370  178.9150  137.8600 C   0  0  0  0  0  2  0  0  0  0  0  0
  181.1800  178.7990  140.0370 C   0  0  0  0  0  2  0  0  0  0  0  0
  184.7920  178.6150  140.0370 C   0  0  0  0  0  2  0  0  0  0  0  0
  191.1330  177.1450  138.0470 C   0  0  0  0  0  2  0  0  0  0  0  0
  191.4640  175.6670  138.1760 C   0  0  0  0  0  2  0  0  0  0  0  0
  191.6250  174.9760  136.8140 C   0  0  1  0  0  3  0  0  0  0  0  0
  193.0480  174.8530  136.2320 C   0  0  2  0  0  3  0  0  0  0  0  0
  194.0690  174.4480  137.2910 C   0  0  0  0  0  0  0  0  0  0  0  0
  193.9740  175.8510  136.6820 C   0  0  0  0  0  2  0  0  0  0  0  0
  194.6060  173.5630  138.1180 C   0  0  0  0  0  2  0  0  0  0  0  0
  190.8440  173.6700  136.7200 C   0  0  1  0  0  3  0  0  0  0  0  0
  189.9930  173.6850  135.4630 C   0  0  1  0  0  3  0  0  0  0  0  0
  191.2790  172.8880  135.4990 C   0  0  0  0  0  2  0  0  0  0  0  0
  188.8710  172.7780  135.6310 N   0  0  0  0  0  2  0  0  0  0  0  0
  187.9300  173.0780  134.5730 C   0  0  0  0  0  2  0  0  0  0  0  0
  185.5410  172.5040  134.3680 C   0  0  0  0  0  2  0  0  0  0  0  0
  186.9440  171.9370  134.4370 C   0  0  0  0  0  3  0  0  0  0  0  0
  186.0510  171.9020  135.6570 C   0  0  0  0  0  2  0  0  0  0  0  0
  190.0630  176.4320  140.1860 C   0  0  0  0  0  2  0  0  0  0  0  0
  190.3780  176.8710  141.5760 C   0  0  0  0  0  0  0  0  0  0  0  0
  190.1000  176.9630  143.8660 C   0  0  0  0  0  0  0  0  0  0  0  0
  191.4710  177.8740  143.5590 S   0  0  0  0  0  0  0  0  0  0  0  0
  191.4840  177.6620  141.8880 C   0  0  0  0  0  3  0  0  0  0  0  0
  189.6010  176.4690  142.6700 C   0  0  0  0  0  3  0  0  0  0  0  0
  189.5390  176.7740  145.1730 N   0  0  0  0  0  2  0  0  0  0  0  0
  185.9500  178.5100  146.6130 C   0  0  0  0  0  3  0  0  0  0  0  0
  187.0150  178.2980  147.4980 C   0  0  0  0  0  3  0  0  0  0  0  0
  184.7520  178.4280  144.1610 Cl  0  0  0  0  0  0  0  0  0  0  0  0
  186.0800  178.1560  145.2670 C   0  0  0  0  0  0  0  0  0  0  0  0
  187.2700  177.5860  144.8040 C   0  0  0  0  0  3  0  0  0  0  0  0
  188.3350  177.3590  145.6840 C   0  0  0  0  0  0  0  0  0  0  0  0
  188.2040  177.7280  147.0350 C   0  0  0  0  0  3  0  0  0  0  0  0
  1 21  1  6  0  0  0
  1 36  1  0  0  0  0
  2  4  1  0  0  0  0
  3  2  1  0  0  0  0
  3  6  1  0  0  0  0
  4  7  1  0  0  0  0
  5  7  1  0  0  0  0
  6  8  1  6  0  0  0
  6  5  1  0  0  0  0
  7  1  1  6  0  0  0
  9  8  1  0  0  0  0
  9 10  1  0  0  0  0
 11 10  1  0  0  0  0
 12 19  1  0  0  0  0
 13 20  1  0  0  0  0
 15 19  1  6  0  0  0
 15 14  1  0  0  0  0
 16 15  1  0  0  0  0
 17 11  1  6  0  0  0
 17 13  1  0  0  0  0
 17 16  1  0  0  0  0
 18 17  1  0  0  0  0
 18 12  1  0  0  0  0
 20 14  1  0  0  0  0
 21 22  1  0  0  0  0
 23 22  1  1  0  0  0
 24 26  1  0  0  0  0
 24 23  1  1  0  0  0
 24 25  1  0  0  0  0
 25 27  2  0  0  0  0
 26 25  1  0  0  0  0
 28 23  1  6  0  0  0
 29 30  1  0  0  0  0
 29 31  1  1  0  0  0
 29 28  1  0  0  0  0
 30 28  1  0  0  0  0
 32 31  1  0  0  0  0
 33 34  1  0  0  0  0
 33 35  1  0  0  0  0
 34 32  1  0  0  0  0
 34 35  1  0  0  0  0
 36 37  1  0  0  0  0
 37 40  2  0  0  0  0
 37 41  1  0  0  0  0
 38 42  1  0  0  0  0
 39 38  1  0  0  0  0
 40 39  1  0  0  0  0
 41 38  2  0  0  0  0
 42 48  1  0  0  0  0
 43 44  1  0  0  0  0
 45 46  1  0  0  0  0
 46 43  2  0  0  0  0
 47 46  1  0  0  0  0
 47 48  2  0  0  0  0
 48 49  1  0  0  0  0
 49 44  2  0  0  0  0
M  END
>  <MODEL>
1

>  <REMARK>
 VINA RESULT:      -6.8      0.000      0.000
  Name = 
  18 active torsions:
  status: ('A' for Active; 'I' for Inactive)
    1  A    between atoms: C_1  and  C_2
    2  A    between atoms: C_2  and  C_43
    3  A    between atoms: N_3  and  C_21
    4  A    between atoms: N_3  and  C_41
    5  A    between atoms: C_5  and  N_45
    6  A    between atoms: C_9  and  C_25
    7  A    between atoms: C_9  and  C_44
    8  A    between atoms: O_12  and  C_24
    9  A    between atoms: O_12  and  C_28
   10  A    between atoms: C_14  and  C_31
   11  A    between atoms: C_17  and  C_31
   12  A    between atoms: C_17  and  C_39
   13  A    between atoms: C_21  and  C_22
   14  A    between atoms: C_24  and  C_25
   15  A    between atoms: C_29  and  C_31
   16  A    between atoms: C_32  and  N_45
   17  A    between atoms: C_39  and  C_43
   18  A    between atoms: C_43  and  C_47
                            x       y       z     vdW  Elec       q    Type
                         _______ _______ _______ _____ _____    ______ ____

>  <TORSDO>
F 18

$$$$
=
 OpenBabel10232410523D

 49 56  0  0  1  0  0  0  0  0999 V2000
  189.4520  177.3650  139.1790 C   0  0  2  0  0  3  0  0  0  0  0  0
  187.8420  178.8120  136.0650 C   0  0  0  0  0  2  0  0  0  0  0  0
  187.4800  177.3540  135.7830 C   0  0  0  0  0  2  0  0  0  0  0  0
  188.8740  178.8760  137.1860 C   0  0  0  0  0  2  0  0  0  0  0  0
  187.0560  177.4150  138.3130 C   0  0  0  0  0  2  0  0  0  0  0  0
  187.0070  176.5860  137.0260 C   0  0  1  0  0  3  0  0  0  0  0  0
  188.3710  178.1930  138.4740 C   0  0  1  0  0  3  0  0  0  0  0  0
  185.5940  176.0600  136.8220 C   0  0  0  0  0  2  0  0  0  0  0  0
  184.9250  176.7220  135.6260 C   0  0  0  0  0  2  0  0  0  0  0  0
  183.5160  177.1750  135.9720 C   0  0  0  0  0  2  0  0  0  0  0  0
  183.0160  176.4170  137.0490 O   0  0  0  0  0  0  0  0  0  0  0  0
  179.9980  176.9800  138.6240 N   0  0  0  0  0  2  0  0  0  0  0  0
  183.1950  178.5940  138.1350 C   0  0  0  0  0  2  0  0  0  0  0  0
  182.1290  179.0170  140.4120 C   0  0  0  0  0  2  0  0  0  0  0  0
  181.5250  177.6110  140.4840 C   0  0  2  0  0  3  0  0  0  0  0  0
  182.5380  176.3450  139.6230 S   0  0  0  0  0  0  0  0  0  0  0  0
  182.4250  177.2540  138.0290 C   0  0  2  0  0  0  0  0  0  0  0  0
  180.9430  177.5810  137.6890 C   0  0  0  0  0  2  0  0  0  0  0  0
  180.1060  177.6560  139.9170 C   0  0  0  0  0  2  0  0  0  0  0  0
  183.4020  179.1030  139.5650 C   0  0  0  0  0  2  0  0  0  0  0  0
  189.5870  177.8050  140.6270 C   0  0  0  0  0  2  0  0  0  0  0  0
  189.9400  176.6140  141.5040 C   0  0  0  0  0  2  0  0  0  0  0  0
  189.3210  176.7090  142.9070 C   0  0  1  0  0  3  0  0  0  0  0  0
  190.2610  176.5650  144.1210 C   0  0  2  0  0  3  0  0  0  0  0  0
  191.3670  177.6150  144.1180 C   0  0  0  0  0  0  0  0  0  0  0  0
  191.5910  176.1310  143.8070 C   0  0  0  0  0  2  0  0  0  0  0  0
  191.7960  178.8620  144.2580 C   0  0  0  0  0  2  0  0  0  0  0  0
  188.3640  177.8880  143.0490 C   0  0  1  0  0  3  0  0  0  0  0  0
  186.9340  177.3810  142.9860 C   0  0  1  0  0  3  0  0  0  0  0  0
  187.5510  177.7490  144.3180 C   0  0  0  0  0  2  0  0  0  0  0  0
  186.0610  178.4600  142.5560 N   0  0  0  0  0  2  0  0  0  0  0  0
  184.7240  178.1110  142.9880 C   0  0  0  0  0  2  0  0  0  0  0  0
  183.8100  178.8900  145.1410 C   0  0  0  0  0  2  0  0  0  0  0  0
  184.1040  179.2890  143.7090 C   0  0  0  0  0  3  0  0  0  0  0  0
  182.6930  178.9330  144.1230 C   0  0  0  0  0  2  0  0  0  0  0  0
  190.8090  177.4590  138.4790 C   0  0  0  0  0  2  0  0  0  0  0  0
  191.2270  176.1380  137.9280 C   0  0  0  0  0  0  0  0  0  0  0  0
  192.7190  174.4590  137.3950 C   0  0  0  0  0  0  0  0  0  0  0  0
  191.2170  173.8570  136.9620 S   0  0  0  0  0  0  0  0  0  0  0  0
  190.3180  175.2010  137.4350 C   0  0  0  0  0  3  0  0  0  0  0  0
  192.5680  175.7350  137.9160 C   0  0  0  0  0  3  0  0  0  0  0  0
  193.9510  173.7480  137.2090 N   0  0  0  0  0  2  0  0  0  0  0  0
  197.6870  175.3530  136.0110 C   0  0  0  0  0  3  0  0  0  0  0  0
  196.5590  175.5630  135.2070 C   0  0  0  0  0  3  0  0  0  0  0  0
  198.9800  174.3720  138.2070 Cl  0  0  0  0  0  0  0  0  0  0  0  0
  197.5720  174.6260  137.2000 C   0  0  0  0  0  0  0  0  0  0  0  0
  196.3340  174.1040  137.5850 C   0  0  0  0  0  3  0  0  0  0  0  0
  195.2030  174.2980  136.7810 C   0  0  0  0  0  0  0  0  0  0  0  0
  195.3220  175.0400  135.5920 C   0  0  0  0  0  3  0  0  0  0  0  0
  1 36  1  6  0  0  0
  1 21  1  0  0  0  0
  2  4  1  0  0  0  0
  3  2  1  0  0  0  0
  3  6  1  0  0  0  0
  4  7  1  0  0  0  0
  5  7  1  0  0  0  0
  6  8  1  6  0  0  0
  6  5  1  0  0  0  0
  7  1  1  6  0  0  0
  9 10  1  0  0  0  0
  9  8  1  0  0  0  0
 10 11  1  0  0  0  0
 12 19  1  0  0  0  0
 13 20  1  0  0  0  0
 14 15  1  0  0  0  0
 15 19  1  6  0  0  0
 16 15  1  0  0  0  0
 17 11  1  6  0  0  0
 17 13  1  0  0  0  0
 17 16  1  0  0  0  0
 18 17  1  0  0  0  0
 18 12  1  0  0  0  0
 20 14  1  0  0  0  0
 21 22  1  0  0  0  0
 23 22  1  6  0  0  0
 24 23  1  6  0  0  0
 25 24  1  0  0  0  0
 25 27  2  0  0  0  0
 26 25  1  0  0  0  0
 26 24  1  0  0  0  0
 28 23  1  1  0  0  0
 28 30  1  0  0  0  0
 29 31  1  6  0  0  0
 29 28  1  0  0  0  0
 29 30  1  0  0  0  0
 31 32  1  0  0  0  0
 32 34  1  0  0  0  0
 34 35  1  0  0  0  0
 34 33  1  0  0  0  0
 35 33  1  0  0  0  0
 37 36  1  0  0  0  0
 38 41  2  0  0  0  0
 39 38  1  0  0  0  0
 39 40  1  0  0  0  0
 40 37  2  0  0  0  0
 41 37  1  0  0  0  0
 42 38  1  0  0  0  0
 43 46  1  0  0  0  0
 44 49  1  0  0  0  0
 44 43  2  0  0  0  0
 46 47  2  0  0  0  0
 46 45  1  0  0  0  0
 48 42  1  0  0  0  0
 48 47  1  0  0  0  0
 49 48  2  0  0  0  0
M  END
>  <MODEL>
2

>  <REMARK>
 VINA RESULT:      -6.7      3.302      7.810
  Name = 
  18 active torsions:
  status: ('A' for Active; 'I' for Inactive)
    1  A    between atoms: C_1  and  C_2
    2  A    between atoms: C_2  and  C_43
    3  A    between atoms: N_3  and  C_21
    4  A    between atoms: N_3  and  C_41
    5  A    between atoms: C_5  and  N_45
    6  A    between atoms: C_9  and  C_25
    7  A    between atoms: C_9  and  C_44
    8  A    between atoms: O_12  and  C_24
    9  A    between atoms: O_12  and  C_28
   10  A    between atoms: C_14  and  C_31
   11  A    between atoms: C_17  and  C_31
   12  A    between atoms: C_17  and  C_39
   13  A    between atoms: C_21  and  C_22
   14  A    between atoms: C_24  and  C_25
   15  A    between atoms: C_29  and  C_31
   16  A    between atoms: C_32  and  N_45
   17  A    between atoms: C_39  and  C_43
   18  A    between atoms: C_43  and  C_47
                            x       y       z     vdW  Elec       q    Type
                         _______ _______ _______ _____ _____    ______ ____

>  <TORSDO>
F 18

$$$$
=
 OpenBabel10232410523D

 49 56  0  0  1  0  0  0  0  0999 V2000
  187.4130  177.3540  138.2300 C   0  0  2  0  0  3  0  0  0  0  0  0
  190.0640  177.1600  135.5260 C   0  0  0  0  0  2  0  0  0  0  0  0
  190.8530  176.4020  136.5930 C   0  0  0  0  0  2  0  0  0  0  0  0
  188.8600  177.8400  136.1670 C   0  0  0  0  0  2  0  0  0  0  0  0
  188.5220  175.4140  137.0070 C   0  0  0  0  0  2  0  0  0  0  0  0
  190.0030  175.4030  137.3920 C   0  0  1  0  0  3  0  0  0  0  0  0
  187.9440  176.8330  136.8900 C   0  0  1  0  0  3  0  0  0  0  0  0
  190.5530  173.9920  137.2360 C   0  0  0  0  0  2  0  0  0  0  0  0
  190.7320  173.6280  135.7700 C   0  0  0  0  0  2  0  0  0  0  0  0
  192.1940  173.3580  135.4510 C   0  0  0  0  0  2  0  0  0  0  0  0
  192.8680  172.9220  136.6080 O   0  0  0  0  0  0  0  0  0  0  0  0
  195.7390  172.8040  138.5180 N   0  0  0  0  0  2  0  0  0  0  0  0
  194.1650  174.9060  136.0360 C   0  0  0  0  0  2  0  0  0  0  0  0
  196.7090  174.8170  135.8930 C   0  0  0  0  0  2  0  0  0  0  0  0
  196.7650  173.3460  136.3180 C   0  0  2  0  0  3  0  0  0  0  0  0
  195.2950  172.3840  135.7830 S   0  0  0  0  0  0  0  0  0  0  0  0
  194.1570  173.5050  136.6950 C   0  0  2  0  0  0  0  0  0  0  0  0
  194.6170  173.6690  138.1720 C   0  0  0  0  0  2  0  0  0  0  0  0
  196.9420  173.2780  137.8350 C   0  0  0  0  0  2  0  0  0  0  0  0
  195.4070  175.2110  135.1920 C   0  0  0  0  0  2  0  0  0  0  0  0
  186.0250  177.9450  138.0490 C   0  0  0  0  0  2  0  0  0  0  0  0
  185.1020  176.9240  137.4030 C   0  0  0  0  0  2  0  0  0  0  0  0
  183.7550  177.5290  136.9800 C   0  0  1  0  0  3  0  0  0  0  0  0
  183.2930  177.3110  135.5240 C   0  0  2  0  0  3  0  0  0  0  0  0
  183.5250  175.8780  135.0560 C   0  0  0  0  0  0  0  0  0  0  0  0
  184.3500  177.0800  134.5830 C   0  0  0  0  0  2  0  0  0  0  0  0
  183.2420  174.5830  135.0710 C   0  0  0  0  0  2  0  0  0  0  0  0
  182.6450  177.2570  137.9890 C   0  0  1  0  0  3  0  0  0  0  0  0
  182.4780  178.4690  138.8880 C   0  0  1  0  0  3  0  0  0  0  0  0
  181.4930  178.2140  137.7680 C   0  0  0  0  0  2  0  0  0  0  0  0
  181.8800  178.0570  140.1460 N   0  0  0  0  0  2  0  0  0  0  0  0
  182.6280  178.7110  141.1980 C   0  0  0  0  0  2  0  0  0  0  0  0
  184.5250  178.3760  142.7370 C   0  0  0  0  0  2  0  0  0  0  0  0
  183.9590  178.0130  141.3790 C   0  0  0  0  0  3  0  0  0  0  0  0
  185.0540  179.0500  141.4930 C   0  0  0  0  0  2  0  0  0  0  0  0
  188.3420  178.3920  138.8620 C   0  0  0  0  0  2  0  0  0  0  0  0
  189.0450  177.8370  140.0540 C   0  0  0  0  0  0  0  0  0  0  0  0
  189.2010  176.7860  142.1040 C   0  0  0  0  0  0  0  0  0  0  0  0
  190.7860  177.0580  141.6350 S   0  0  0  0  0  0  0  0  0  0  0  0
  190.4360  177.7970  140.1630 C   0  0  0  0  0  3  0  0  0  0  0  0
  188.3450  177.2710  141.1270 C   0  0  0  0  0  3  0  0  0  0  0  0
  188.8260  176.1720  143.3450 N   0  0  0  0  0  2  0  0  0  0  0  0
  187.8950  178.1610  146.9710 C   0  0  0  0  0  3  0  0  0  0  0  0
  189.2120  177.7490  146.7310 C   0  0  0  0  0  3  0  0  0  0  0  0
  185.2610  178.4460  146.3110 Cl  0  0  0  0  0  0  0  0  0  0  0  0
  186.9030  177.9230  146.0140 C   0  0  0  0  0  0  0  0  0  0  0  0
  187.2240  177.2680  144.8220 C   0  0  0  0  0  3  0  0  0  0  0  0
  188.5350  176.8400  144.5790 C   0  0  0  0  0  0  0  0  0  0  0  0
  189.5320  177.0930  145.5390 C   0  0  0  0  0  3  0  0  0  0  0  0
  1 21  1  6  0  0  0
  1 36  1  0  0  0  0
  2  4  1  0  0  0  0
  2  3  1  0  0  0  0
  3  6  1  0  0  0  0
  4  7  1  0  0  0  0
  5  6  1  0  0  0  0
  6  8  1  6  0  0  0
  7  5  1  0  0  0  0
  7  1  1  1  0  0  0
  9  8  1  0  0  0  0
 10  9  1  0  0  0  0
 10 11  1  0  0  0  0
 13 17  1  0  0  0  0
 15 14  1  1  0  0  0
 15 19  1  0  0  0  0
 16 15  1  0  0  0  0
 16 17  1  0  0  0  0
 17 11  1  6  0  0  0
 17 18  1  0  0  0  0
 18 12  1  0  0  0  0
 19 12  1  0  0  0  0
 20 14  1  0  0  0  0
 20 13  1  0  0  0  0
 22 21  1  0  0  0  0
 23 22  1  1  0  0  0
 24 23  1  1  0  0  0
 25 27  2  0  0  0  0
 25 24  1  0  0  0  0
 26 25  1  0  0  0  0
 26 24  1  0  0  0  0
 28 23  1  6  0  0  0
 28 29  1  0  0  0  0
 29 31  1  1  0  0  0
 30 28  1  0  0  0  0
 30 29  1  0  0  0  0
 31 32  1  0  0  0  0
 32 34  1  0  0  0  0
 34 35  1  0  0  0  0
 34 33  1  0  0  0  0
 35 33  1  0  0  0  0
 36 37  1  0  0  0  0
 37 40  2  0  0  0  0
 37 41  1  0  0  0  0
 38 42  1  0  0  0  0
 39 38  1  0  0  0  0
 40 39  1  0  0  0  0
 41 38  2  0  0  0  0
 42 48  1  0  0  0  0
 44 43  1  0  0  0  0
 46 45  1  0  0  0  0
 46 43  2  0  0  0  0
 47 46  1  0  0  0  0
 48 47  2  0  0  0  0
 48 49  1  0  0  0  0
 49 44  2  0  0  0  0
M  END
>  <MODEL>
3

>  <REMARK>
 VINA RESULT:      -6.7      2.805      8.429
  Name = 
  18 active torsions:
  status: ('A' for Active; 'I' for Inactive)
    1  A    between atoms: C_1  and  C_2
    2  A    between atoms: C_2  and  C_43
    3  A    between atoms: N_3  and  C_21
    4  A    between atoms: N_3  and  C_41
    5  A    between atoms: C_5  and  N_45
    6  A    between atoms: C_9  and  C_25
    7  A    between atoms: C_9  and  C_44
    8  A    between atoms: O_12  and  C_24
    9  A    between atoms: O_12  and  C_28
   10  A    between atoms: C_14  and  C_31
   11  A    between atoms: C_17  and  C_31
   12  A    between atoms: C_17  and  C_39
   13  A    between atoms: C_21  and  C_22
   14  A    between atoms: C_24  and  C_25
   15  A    between atoms: C_29  and  C_31
   16  A    between atoms: C_32  and  N_45
   17  A    between atoms: C_39  and  C_43
   18  A    between atoms: C_43  and  C_47
                            x       y       z     vdW  Elec       q    Type
                         _______ _______ _______ _____ _____    ______ ____

>  <TORSDO>
F 18

$$$$
=
 OpenBabel10232410523D

 49 56  0  0  1  0  0  0  0  0999 V2000
  186.6390  178.3800  140.8630 C   0  0  2  0  0  3  0  0  0  0  0  0
  190.1880  177.6900  142.0070 C   0  0  0  0  0  2  0  0  0  0  0  0
  190.1600  176.6430  140.8940 C   0  0  0  0  0  2  0  0  0  0  0  0
  188.7720  178.1860  142.2780 C   0  0  0  0  0  2  0  0  0  0  0  0
  188.9080  178.5480  139.7160 C   0  0  0  0  0  2  0  0  0  0  0  0
  189.4820  177.1320  139.6060 C   0  0  1  0  0  3  0  0  0  0  0  0
  188.1140  178.7720  141.0120 C   0  0  1  0  0  3  0  0  0  0  0  0
  190.4540  177.0740  138.4370 C   0  0  0  0  0  2  0  0  0  0  0  0
  190.7480  175.6370  138.0330 C   0  0  0  0  0  2  0  0  0  0  0  0
  191.5830  175.5880  136.7630 C   0  0  0  0  0  2  0  0  0  0  0  0
  192.8730  176.0960  137.0140 O   0  0  0  0  0  0  0  0  0  0  0  0
  196.2180  176.0540  136.1700 N   0  0  0  0  0  2  0  0  0  0  0  0
  193.2260  174.0890  135.6750 C   0  0  0  0  0  2  0  0  0  0  0  0
  195.3680  172.7240  135.8930 C   0  0  0  0  0  2  0  0  0  0  0  0
  195.9800  173.6910  136.9110 C   0  0  2  0  0  3  0  0  0  0  0  0
  194.7250  174.5110  137.9720 S   0  0  0  0  0  0  0  0  0  0  0  0
  193.8690  175.2240  136.5080 C   0  0  2  0  0  0  0  0  0  0  0  0
  194.8800  175.9730  135.5940 C   0  0  0  0  0  2  0  0  0  0  0  0
  196.8250  174.7230  136.1650 C   0  0  0  0  0  2  0  0  0  0  0  0
  193.8370  172.7020  135.8990 C   0  0  0  0  0  2  0  0  0  0  0  0
  186.3040  178.1500  139.3990 C   0  0  0  0  0  2  0  0  0  0  0  0
  184.8830  178.6080  139.1100 C   0  0  0  0  0  2  0  0  0  0  0  0
  183.9970  177.4780  138.5640 C   0  0  1  0  0  3  0  0  0  0  0  0
  182.7570  177.0720  139.3880 C   0  0  2  0  0  3  0  0  0  0  0  0
  182.1070  178.2690  140.0740 C   0  0  0  0  0  0  0  0  0  0  0  0
  182.9100  177.1910  140.8080 C   0  0  0  0  0  2  0  0  0  0  0  0
  181.4050  179.3940  140.0450 C   0  0  0  0  0  2  0  0  0  0  0  0
  183.6820  177.6410  137.0810 C   0  0  1  0  0  3  0  0  0  0  0  0
  184.5960  176.7360  136.2740 C   0  0  1  0  0  3  0  0  0  0  0  0
  183.1550  176.3400  136.5140 C   0  0  0  0  0  2  0  0  0  0  0  0
  184.7220  177.2620  134.9250 N   0  0  0  0  0  2  0  0  0  0  0  0
  186.1170  177.1380  134.5580 C   0  0  0  0  0  2  0  0  0  0  0  0
  187.8090  178.1950  136.0060 C   0  0  0  0  0  2  0  0  0  0  0  0
  186.9520  176.9620  135.8080 C   0  0  0  0  0  3  0  0  0  0  0  0
  188.4160  176.9370  135.4290 C   0  0  0  0  0  2  0  0  0  0  0  0
  185.6940  179.4270  141.4540 C   0  0  0  0  0  2  0  0  0  0  0  0
  185.2860  179.0680  142.8420 C   0  0  0  0  0  0  0  0  0  0  0  0
  185.5390  178.1100  144.9280 C   0  0  0  0  0  0  0  0  0  0  0  0
  184.0700  178.9120  144.9950 S   0  0  0  0  0  0  0  0  0  0  0  0
  184.1010  179.5210  143.4250 C   0  0  0  0  0  3  0  0  0  0  0  0
  186.0990  178.2840  143.6720 C   0  0  0  0  0  3  0  0  0  0  0  0
  186.0840  177.3440  146.0110 N   0  0  0  0  0  2  0  0  0  0  0  0
  189.9220  177.8070  147.7520 C   0  0  0  0  0  3  0  0  0  0  0  0
  188.7830  178.1410  148.4970 C   0  0  0  0  0  3  0  0  0  0  0  0
  191.2070  176.8970  145.5210 Cl  0  0  0  0  0  0  0  0  0  0  0  0
  189.7850  177.3200  146.4490 C   0  0  0  0  0  0  0  0  0  0  0  0
  188.5130  177.1700  145.8870 C   0  0  0  0  0  3  0  0  0  0  0  0
  187.3700  177.5120  146.6200 C   0  0  0  0  0  0  0  0  0  0  0  0
  187.5130  177.9910  147.9350 C   0  0  0  0  0  3  0  0  0  0  0  0
  1 21  1  6  0  0  0
  1 36  1  0  0  0  0
  2  4  1  0  0  0  0
  3  2  1  0  0  0  0
  5  7  1  0  0  0  0
  6  8  1  6  0  0  0
  6  5  1  0  0  0  0
  6  3  1  0  0  0  0
  7  1  1  6  0  0  0
  7  4  1  0  0  0  0
  9  8  1  0  0  0  0
 10 11  1  0  0  0  0
 10  9  1  0  0  0  0
 13 20  1  0  0  0  0
 13 17  1  0  0  0  0
 14 20  1  0  0  0  0
 15 14  1  6  0  0  0
 15 16  1  0  0  0  0
 17 11  1  1  0  0  0
 17 16  1  0  0  0  0
 18 12  1  0  0  0  0
 18 17  1  0  0  0  0
 19 12  1  0  0  0  0
 19 15  1  0  0  0  0
 22 21  1  0  0  0  0
 23 22  1  1  0  0  0
 24 23  1  6  0  0  0
 24 25  1  0  0  0  0
 24 26  1  0  0  0  0
 25 26  1  0  0  0  0
 27 25  2  0  0  0  0
 28 23  1  1  0  0  0
 29 31  1  6  0  0  0
 29 30  1  0  0  0  0
 29 28  1  0  0  0  0
 30 28  1  0  0  0  0
 32 31  1  0  0  0  0
 32 34  1  0  0  0  0
 34 33  1  0  0  0  0
 35 34  1  0  0  0  0
 35 33  1  0  0  0  0
 36 37  1  0  0  0  0
 37 40  2  0  0  0  0
 37 41  1  0  0  0  0
 38 39  1  0  0  0  0
 38 42  1  0  0  0  0
 40 39  1  0  0  0  0
 41 38  2  0  0  0  0
 42 48  1  0  0  0  0
 43 44  1  0  0  0  0
 45 46  1  0  0  0  0
 46 43  2  0  0  0  0
 47 46  1  0  0  0  0
 47 48  2  0  0  0  0
 48 49  1  0  0  0  0
 49 44  2  0  0  0  0
M  END
>  <MODEL>
4

>  <REMARK>
 VINA RESULT:      -6.6      3.102      8.327
  Name = 
  18 active torsions:
  status: ('A' for Active; 'I' for Inactive)
    1  A    between atoms: C_1  and  C_2
    2  A    between atoms: C_2  and  C_43
    3  A    between atoms: N_3  and  C_21
    4  A    between atoms: N_3  and  C_41
    5  A    between atoms: C_5  and  N_45
    6  A    between atoms: C_9  and  C_25
    7  A    between atoms: C_9  and  C_44
    8  A    between atoms: O_12  and  C_24
    9  A    between atoms: O_12  and  C_28
   10  A    between atoms: C_14  and  C_31
   11  A    between atoms: C_17  and  C_31
   12  A    between atoms: C_17  and  C_39
   13  A    between atoms: C_21  and  C_22
   14  A    between atoms: C_24  and  C_25
   15  A    between atoms: C_29  and  C_31
   16  A    between atoms: C_32  and  N_45
   17  A    between atoms: C_39  and  C_43
   18  A    between atoms: C_43  and  C_47
                            x       y       z     vdW  Elec       q    Type
                         _______ _______ _______ _____ _____    ______ ____

>  <TORSDO>
F 18

$$$$
=
 OpenBabel10232410523D

 49 56  0  0  1  0  0  0  0  0999 V2000
  190.3430  176.8660  139.0950 C   0  0  2  0  0  3  0  0  0  0  0  0
  188.0980  178.9580  136.8680 C   0  0  0  0  0  2  0  0  0  0  0  0
  187.9570  177.6570  136.0780 C   0  0  0  0  0  2  0  0  0  0  0  0
  189.2470  178.8320  137.8620 C   0  0  0  0  0  2  0  0  0  0  0  0
  187.8790  176.7170  138.4640 C   0  0  0  0  0  2  0  0  0  0  0  0
  187.7970  176.4140  136.9660 C   0  0  1  0  0  3  0  0  0  0  0  0
  189.0500  177.6440  138.8240 C   0  0  1  0  0  3  0  0  0  0  0  0
  186.4810  175.7110  136.6660 C   0  0  0  0  0  2  0  0  0  0  0  0
  185.3750  176.7130  136.3700 C   0  0  0  0  0  2  0  0  0  0  0  0
  184.5730  177.0260  137.6240 C   0  0  0  0  0  2  0  0  0  0  0  0
  184.7650  178.3710  137.9950 O   0  0  0  0  0  0  0  0  0  0  0  0
  181.6770  179.6080  138.9120 N   0  0  0  0  0  2  0  0  0  0  0  0
  184.9390  179.0020  140.3450 C   0  0  0  0  0  2  0  0  0  0  0  0
  182.9910  178.6430  141.9500 C   0  0  0  0  0  2  0  0  0  0  0  0
  182.0750  178.0990  140.8490 C   0  0  2  0  0  3  0  0  0  0  0  0
  182.9870  177.2080  139.5270 S   0  0  0  0  0  0  0  0  0  0  0  0
  184.0060  178.6920  139.1490 C   0  0  2  0  0  0  0  0  0  0  0  0
  183.0990  179.9330  138.9150 C   0  0  0  0  0  2  0  0  0  0  0  0
  181.2610  179.2560  140.2690 C   0  0  0  0  0  2  0  0  0  0  0  0
  184.4820  178.4170  141.6850 C   0  0  0  0  0  2  0  0  0  0  0  0
  190.9450  177.2970  140.4220 C   0  0  0  0  0  2  0  0  0  0  0  0
  189.8860  177.2600  141.5130 C   0  0  0  0  0  2  0  0  0  0  0  0
  190.3800  176.5670  142.7920 C   0  0  1  0  0  3  0  0  0  0  0  0
  191.6980  177.0660  143.4190 C   0  0  2  0  0  3  0  0  0  0  0  0
  191.6210  177.1310  144.9410 C   0  0  0  0  0  0  0  0  0  0  0  0
  191.6250  178.3620  144.0280 C   0  0  0  0  0  2  0  0  0  0  0  0
  191.5690  176.5560  146.1350 C   0  0  0  0  0  2  0  0  0  0  0  0
  189.2740  176.3880  143.8270 C   0  0  1  0  0  3  0  0  0  0  0  0
  188.4190  177.6410  143.8670 C   0  0  1  0  0  3  0  0  0  0  0  0
  187.9200  176.4050  143.1520 C   0  0  0  0  0  2  0  0  0  0  0  0
  187.7640  177.7350  145.1610 N   0  0  0  0  0  2  0  0  0  0  0  0
  186.6170  178.6000  144.9860 C   0  0  0  0  0  2  0  0  0  0  0  0
  184.2060  178.8460  145.4430 C   0  0  0  0  0  2  0  0  0  0  0  0
  185.3640  177.8690  145.4210 C   0  0  0  0  0  3  0  0  0  0  0  0
  184.8820  178.4450  146.7340 C   0  0  0  0  0  2  0  0  0  0  0  0
  191.3720  177.0370  137.9770 C   0  0  0  0  0  2  0  0  0  0  0  0
  191.7260  175.7270  137.3600 C   0  0  0  0  0  0  0  0  0  0  0  0
  193.1320  174.1590  136.4110 C   0  0  0  0  0  0  0  0  0  0  0  0
  191.6470  173.3940  136.5290 S   0  0  0  0  0  0  0  0  0  0  0  0
  190.8140  174.6780  137.2330 C   0  0  0  0  0  3  0  0  0  0  0  0
  193.0240  175.4480  136.9110 C   0  0  0  0  0  3  0  0  0  0  0  0
  194.3030  173.5550  135.8460 N   0  0  0  0  0  2  0  0  0  0  0  0
  198.0870  175.3790  135.2800 C   0  0  0  0  0  3  0  0  0  0  0  0
  197.0630  175.6180  134.3540 C   0  0  0  0  0  3  0  0  0  0  0  0
  199.1310  174.2590  137.5410 Cl  0  0  0  0  0  0  0  0  0  0  0  0
  197.8530  174.5510  136.3820 C   0  0  0  0  0  0  0  0  0  0  0  0
  196.6000  173.9570  136.5580 C   0  0  0  0  0  3  0  0  0  0  0  0
  195.5740  174.1800  135.6310 C   0  0  0  0  0  0  0  0  0  0  0  0
  195.8110  175.0240  134.5310 C   0  0  0  0  0  3  0  0  0  0  0  0
  1 36  1  6  0  0  0
  1 21  1  0  0  0  0
  2  4  1  0  0  0  0
  3  2  1  0  0  0  0
  3  6  1  0  0  0  0
  4  7  1  0  0  0  0
  5  7  1  0  0  0  0
  6  8  1  1  0  0  0
  6  5  1  0  0  0  0
  7  1  1  6  0  0  0
  9  8  1  0  0  0  0
  9 10  1  0  0  0  0
 10 11  1  0  0  0  0
 12 18  1  0  0  0  0
 12 19  1  0  0  0  0
 13 20  1  0  0  0  0
 15 19  1  6  0  0  0
 15 14  1  0  0  0  0
 16 15  1  0  0  0  0
 17 11  1  6  0  0  0
 17 16  1  0  0  0  0
 17 13  1  0  0  0  0
 18 17  1  0  0  0  0
 20 14  1  0  0  0  0
 21 22  1  0  0  0  0
 23 22  1  6  0  0  0
 24 23  1  6  0  0  0
 24 26  1  0  0  0  0
 24 25  1  0  0  0  0
 25 27  2  0  0  0  0
 26 25  1  0  0  0  0
 28 23  1  6  0  0  0
 28 29  1  0  0  0  0
 29 31  1  1  0  0  0
 30 28  1  0  0  0  0
 30 29  1  0  0  0  0
 32 31  1  0  0  0  0
 32 34  1  0  0  0  0
 33 35  1  0  0  0  0
 34 33  1  0  0  0  0
 34 35  1  0  0  0  0
 37 36  1  0  0  0  0
 38 39  1  0  0  0  0
 38 41  2  0  0  0  0
 39 40  1  0  0  0  0
 40 37  2  0  0  0  0
 41 37  1  0  0  0  0
 42 38  1  0  0  0  0
 43 46  1  0  0  0  0
 44 49  1  0  0  0  0
 44 43  2  0  0  0  0
 46 47  2  0  0  0  0
 46 45  1  0  0  0  0
 48 42  1  0  0  0  0
 48 47  1  0  0  0  0
 49 48  2  0  0  0  0
M  END
>  <MODEL>
5

>  <REMARK>
 VINA RESULT:      -6.3      3.206      8.242
  Name = 
  18 active torsions:
  status: ('A' for Active; 'I' for Inactive)
    1  A    between atoms: C_1  and  C_2
    2  A    between atoms: C_2  and  C_43
    3  A    between atoms: N_3  and  C_21
    4  A    between atoms: N_3  and  C_41
    5  A    between atoms: C_5  and  N_45
    6  A    between atoms: C_9  and  C_25
    7  A    between atoms: C_9  and  C_44
    8  A    between atoms: O_12  and  C_24
    9  A    between atoms: O_12  and  C_28
   10  A    between atoms: C_14  and  C_31
   11  A    between atoms: C_17  and  C_31
   12  A    between atoms: C_17  and  C_39
   13  A    between atoms: C_21  and  C_22
   14  A    between atoms: C_24  and  C_25
   15  A    between atoms: C_29  and  C_31
   16  A    between atoms: C_32  and  N_45
   17  A    between atoms: C_39  and  C_43
   18  A    between atoms: C_43  and  C_47
                            x       y       z     vdW  Elec       q    Type
                         _______ _______ _______ _____ _____    ______ ____

>  <TORSDO>
F 18

$$$$
=
 OpenBabel10232410523D

 49 56  0  0  1  0  0  0  0  0999 V2000
  190.3890  176.5200  139.3910 C   0  0  2  0  0  3  0  0  0  0  0  0
  188.4880  179.0900  137.3500 C   0  0  0  0  0  2  0  0  0  0  0  0
  188.6370  178.0590  136.2320 C   0  0  0  0  0  2  0  0  0  0  0  0
  189.4070  178.7220  138.5100 C   0  0  0  0  0  2  0  0  0  0  0  0
  188.1390  176.4850  138.1960 C   0  0  0  0  0  2  0  0  0  0  0  0
  188.4050  176.6130  136.6940 C   0  0  1  0  0  3  0  0  0  0  0  0
  189.1180  177.3060  139.0490 C   0  0  1  0  0  3  0  0  0  0  0  0
  187.2520  175.9860  135.9240 C   0  0  0  0  0  2  0  0  0  0  0  0
  186.2420  175.3450  136.8650 C   0  0  0  0  0  2  0  0  0  0  0  0
  184.8340  175.8370  136.5710 C   0  0  0  0  0  2  0  0  0  0  0  0
  184.0680  175.8430  137.7520 O   0  0  0  0  0  0  0  0  0  0  0  0
  181.2670  177.7850  137.2150 N   0  0  0  0  0  2  0  0  0  0  0  0
  184.7170  178.1460  138.2300 C   0  0  0  0  0  2  0  0  0  0  0  0
  183.1010  179.7560  139.3680 C   0  0  0  0  0  2  0  0  0  0  0  0
  181.9700  178.7250  139.4080 C   0  0  2  0  0  3  0  0  0  0  0  0
  182.5730  176.9970  139.5660 S   0  0  0  0  0  0  0  0  0  0  0  0
  183.5590  177.1390  138.0200 C   0  0  2  0  0  0  0  0  0  0  0  0
  182.6750  177.6630  136.8530 C   0  0  0  0  0  2  0  0  0  0  0  0
  181.1060  178.8910  138.1580 C   0  0  0  0  0  2  0  0  0  0  0  0
  184.5030  179.1400  139.3750 C   0  0  0  0  0  2  0  0  0  0  0  0
  190.6580  176.5830  140.8850 C   0  0  0  0  0  2  0  0  0  0  0  0
  189.4980  177.2610  141.5960 C   0  0  0  0  0  2  0  0  0  0  0  0
  189.0920  176.5370  142.8890 C   0  0  1  0  0  3  0  0  0  0  0  0
  189.9670  176.7530  144.1410 C   0  0  2  0  0  3  0  0  0  0  0  0
  190.9070  177.9440  143.9860 C   0  0  0  0  0  0  0  0  0  0  0  0
  191.3630  176.4810  143.9570 C   0  0  0  0  0  2  0  0  0  0  0  0
  191.1400  179.2470  143.9120 C   0  0  0  0  0  2  0  0  0  0  0  0
  187.6030  176.6620  143.1910 C   0  0  1  0  0  3  0  0  0  0  0  0
  187.3850  177.8070  144.1630 C   0  0  1  0  0  3  0  0  0  0  0  0
  187.0800  177.9920  142.6930 C   0  0  0  0  0  2  0  0  0  0  0  0
  186.1390  177.5980  144.8810 N   0  0  0  0  0  2  0  0  0  0  0  0
  186.4880  177.3790  146.2680 C   0  0  0  0  0  2  0  0  0  0  0  0
  188.6080  177.0640  147.4880 C   0  0  0  0  0  2  0  0  0  0  0  0
  187.8520  177.9770  146.5450 C   0  0  0  0  0  3  0  0  0  0  0  0
  187.9560  178.3210  148.0140 C   0  0  0  0  0  2  0  0  0  0  0  0
  191.6110  177.0230  138.6210 C   0  0  0  0  0  2  0  0  0  0  0  0
  192.2090  175.9430  137.7860 C   0  0  0  0  0  0  0  0  0  0  0  0
  193.8510  174.9290  136.5170 C   0  0  0  0  0  0  0  0  0  0  0  0
  192.6140  173.8030  136.6050 S   0  0  0  0  0  0  0  0  0  0  0  0
  191.5690  174.7240  137.5520 C   0  0  0  0  0  3  0  0  0  0  0  0
  193.4840  176.0670  137.2190 C   0  0  0  0  0  3  0  0  0  0  0  0
  195.0700  174.7240  135.7910 N   0  0  0  0  0  2  0  0  0  0  0  0
  198.6420  173.0140  137.3050 C   0  0  0  0  0  3  0  0  0  0  0  0
  198.5820  174.3960  137.0790 C   0  0  0  0  0  3  0  0  0  0  0  0
  197.5990  170.4910  137.3290 Cl  0  0  0  0  0  0  0  0  0  0  0  0
  197.5270  172.2150  137.0390 C   0  0  0  0  0  0  0  0  0  0  0  0
  196.3540  172.7910  136.5420 C   0  0  0  0  0  3  0  0  0  0  0  0
  196.2900  174.1690  136.3000 C   0  0  0  0  0  0  0  0  0  0  0  0
  197.4110  174.9710  136.5820 C   0  0  0  0  0  3  0  0  0  0  0  0
  1 36  1  6  0  0  0
  1 21  1  0  0  0  0
  2  4  1  0  0  0  0
  3  6  1  0  0  0  0
  3  2  1  0  0  0  0
  4  7  1  0  0  0  0
  5  7  1  0  0  0  0
  6  8  1  6  0  0  0
  6  5  1  0  0  0  0
  7  1  1  6  0  0  0
  8  9  1  0  0  0  0
 10  9  1  0  0  0  0
 10 11  1  0  0  0  0
 12 19  1  0  0  0  0
 13 20  1  0  0  0  0
 14 20  1  0  0  0  0
 14 15  1  0  0  0  0
 15 19  1  6  0  0  0
 15 16  1  0  0  0  0
 17 11  1  6  0  0  0
 17 13  1  0  0  0  0
 17 16  1  0  0  0  0
 18 12  1  0  0  0  0
 18 17  1  0  0  0  0
 21 22  1  0  0  0  0
 23 22  1  6  0  0  0
 24 23  1  6  0  0  0
 25 24  1  0  0  0  0
 26 25  1  0  0  0  0
 26 24  1  0  0  0  0
 27 25  2  0  0  0  0
 28 23  1  6  0  0  0
 28 29  1  0  0  0  0
 29 31  1  1  0  0  0
 30 28  1  0  0  0  0
 30 29  1  0  0  0  0
 31 32  1  0  0  0  0
 32 34  1  0  0  0  0
 33 35  1  0  0  0  0
 34 33  1  0  0  0  0
 34 35  1  0  0  0  0
 37 36  1  0  0  0  0
 38 39  1  0  0  0  0
 38 41  2  0  0  0  0
 39 40  1  0  0  0  0
 40 37  2  0  0  0  0
 41 37  1  0  0  0  0
 42 48  1  0  0  0  0
 42 38  1  0  0  0  0
 44 43  1  0  0  0  0
 46 43  2  0  0  0  0
 46 45  1  0  0  0  0
 47 46  1  0  0  0  0
 48 47  2  0  0  0  0
 48 49  1  0  0  0  0
 49 44  2  0  0  0  0
M  END
>  <MODEL>
6

>  <REMARK>
 VINA RESULT:      -6.2      3.244      8.374
  Name = 
  18 active torsions:
  status: ('A' for Active; 'I' for Inactive)
    1  A    between atoms: C_1  and  C_2
    2  A    between atoms: C_2  and  C_43
    3  A    between atoms: N_3  and  C_21
    4  A    between atoms: N_3  and  C_41
    5  A    between atoms: C_5  and  N_45
    6  A    between atoms: C_9  and  C_25
    7  A    between atoms: C_9  and  C_44
    8  A    between atoms: O_12  and  C_24
    9  A    between atoms: O_12  and  C_28
   10  A    between atoms: C_14  and  C_31
   11  A    between atoms: C_17  and  C_31
   12  A    between atoms: C_17  and  C_39
   13  A    between atoms: C_21  and  C_22
   14  A    between atoms: C_24  and  C_25
   15  A    between atoms: C_29  and  C_31
   16  A    between atoms: C_32  and  N_45
   17  A    between atoms: C_39  and  C_43
   18  A    between atoms: C_43  and  C_47
                            x       y       z     vdW  Elec       q    Type
                         _______ _______ _______ _____ _____    ______ ____

>  <TORSDO>
F 18

$$$$
=
 OpenBabel10232410523D

 49 56  0  0  1  0  0  0  0  0999 V2000
  189.0570  177.1860  139.1060 C   0  0  2  0  0  3  0  0  0  0  0  0
  187.4790  178.8410  136.0820 C   0  0  0  0  0  2  0  0  0  0  0  0
  187.4450  177.4150  135.5330 C   0  0  0  0  0  2  0  0  0  0  0  0
  188.3710  178.8930  137.3170 C   0  0  0  0  0  2  0  0  0  0  0  0
  186.7890  176.9480  137.9700 C   0  0  0  0  0  2  0  0  0  0  0  0
  187.0250  176.3650  136.5740 C   0  0  1  0  0  3  0  0  0  0  0  0
  187.9010  177.9130  138.4110 C   0  0  1  0  0  3  0  0  0  0  0  0
  185.7710  175.6340  136.1160 C   0  0  0  0  0  2  0  0  0  0  0  0
  185.4500  174.4620  137.0310 C   0  0  0  0  0  2  0  0  0  0  0  0
  183.9720  174.4350  137.3840 C   0  0  0  0  0  2  0  0  0  0  0  0
  183.2750  175.3860  136.6140 O   0  0  0  0  0  0  0  0  0  0  0  0
  180.5090  174.6000  138.5210 N   0  0  0  0  0  2  0  0  0  0  0  0
  182.0070  177.4520  136.8840 C   0  0  0  0  0  2  0  0  0  0  0  0
  180.8200  177.9880  139.0750 C   0  0  0  0  0  2  0  0  0  0  0  0
  181.2270  176.6590  139.7180 C   0  0  2  0  0  3  0  0  0  0  0  0
  182.8440  176.0310  139.1150 S   0  0  0  0  0  0  0  0  0  0  0  0
  182.2510  176.0040  137.3750 C   0  0  2  0  0  0  0  0  0  0  0  0
  180.9060  175.2300  137.2670 C   0  0  0  0  0  2  0  0  0  0  0  0
  180.1180  175.6350  139.4770 C   0  0  0  0  0  2  0  0  0  0  0  0
  181.7910  178.4800  137.9980 C   0  0  0  0  0  2  0  0  0  0  0  0
  189.1570  177.6270  140.5570 C   0  0  0  0  0  2  0  0  0  0  0  0
  188.0090  178.5650  140.8980 C   0  0  0  0  0  2  0  0  0  0  0  0
  187.4270  178.3030  142.2950 C   0  0  1  0  0  3  0  0  0  0  0  0
  185.9150  178.0180  142.4030 C   0  0  2  0  0  3  0  0  0  0  0  0
  185.1010  178.8500  141.4170 C   0  0  0  0  0  0  0  0  0  0  0  0
  185.1320  179.0990  142.9280 C   0  0  0  0  0  2  0  0  0  0  0  0
  184.6990  179.1430  140.1880 C   0  0  0  0  0  2  0  0  0  0  0  0
  188.2630  177.3200  143.1060 C   0  0  1  0  0  3  0  0  0  0  0  0
  188.3400  177.7980  144.5450 C   0  0  1  0  0  3  0  0  0  0  0  0
  187.4110  176.6640  144.1710 C   0  0  0  0  0  2  0  0  0  0  0  0
  189.5290  177.2450  145.1720 N   0  0  0  0  0  2  0  0  0  0  0  0
  189.1700  176.9220  146.5360 C   0  0  0  0  0  2  0  0  0  0  0  0
  189.3680  178.3390  148.5440 C   0  0  0  0  0  2  0  0  0  0  0  0
  188.6420  178.1620  147.2250 C   0  0  0  0  0  3  0  0  0  0  0  0
  187.9700  177.7650  148.5210 C   0  0  0  0  0  2  0  0  0  0  0  0
  190.3960  177.4100  138.4020 C   0  0  0  0  0  2  0  0  0  0  0  0
  190.8670  176.1690  137.7230 C   0  0  0  0  0  0  0  0  0  0  0  0
  192.3680  174.8340  136.5840 C   0  0  0  0  0  0  0  0  0  0  0  0
  191.0400  173.8520  136.8630 S   0  0  0  0  0  0  0  0  0  0  0  0
  190.1140  174.9940  137.6850 C   0  0  0  0  0  3  0  0  0  0  0  0
  192.1270  176.0910  137.1170 C   0  0  0  0  0  3  0  0  0  0  0  0
  193.5390  174.4140  135.8710 N   0  0  0  0  0  2  0  0  0  0  0  0
  196.8290  176.8090  134.6820 C   0  0  0  0  0  3  0  0  0  0  0  0
  195.5250  177.2730  134.4610 C   0  0  0  0  0  3  0  0  0  0  0  0
  198.6630  174.9960  135.5780 Cl  0  0  0  0  0  0  0  0  0  0  0  0
  197.0350  175.5700  135.2960 C   0  0  0  0  0  0  0  0  0  0  0  0
  195.9410  174.7910  135.6850 C   0  0  0  0  0  3  0  0  0  0  0  0
  194.6350  175.2400  135.4570 C   0  0  0  0  0  0  0  0  0  0  0  0
  194.4330  176.4930  134.8500 C   0  0  0  0  0  3  0  0  0  0  0  0
  1 36  1  6  0  0  0
  1 21  1  0  0  0  0
  2  4  1  0  0  0  0
  3  2  1  0  0  0  0
  3  6  1  0  0  0  0
  4  7  1  0  0  0  0
  5  7  1  0  0  0  0
  6  8  1  6  0  0  0
  6  5  1  0  0  0  0
  7  1  1  6  0  0  0
  8  9  1  0  0  0  0
  9 10  1  0  0  0  0
 11 10  1  0  0  0  0
 12 19  1  0  0  0  0
 13 17  1  0  0  0  0
 13 20  1  0  0  0  0
 15 14  1  6  0  0  0
 16 15  1  0  0  0  0
 17 11  1  6  0  0  0
 17 16  1  0  0  0  0
 18 17  1  0  0  0  0
 18 12  1  0  0  0  0
 19 15  1  0  0  0  0
 20 14  1  0  0  0  0
 21 22  1  0  0  0  0
 23 22  1  6  0  0  0
 24 23  1  6  0  0  0
 24 26  1  0  0  0  0
 25 24  1  0  0  0  0
 25 26  1  0  0  0  0
 27 25  2  0  0  0  0
 28 23  1  6  0  0  0
 28 30  1  0  0  0  0
 28 29  1  0  0  0  0
 29 31  1  1  0  0  0
 30 29  1  0  0  0  0
 31 32  1  0  0  0  0
 32 34  1  0  0  0  0
 34 35  1  0  0  0  0
 34 33  1  0  0  0  0
 35 33  1  0  0  0  0
 37 36  1  0  0  0  0
 38 39  1  0  0  0  0
 38 41  2  0  0  0  0
 39 40  1  0  0  0  0
 40 37  2  0  0  0  0
 41 37  1  0  0  0  0
 42 38  1  0  0  0  0
 43 46  1  0  0  0  0
 44 43  2  0  0  0  0
 44 49  1  0  0  0  0
 46 45  1  0  0  0  0
 46 47  2  0  0  0  0
 48 47  1  0  0  0  0
 48 42  1  0  0  0  0
 49 48  2  0  0  0  0
M  END
>  <MODEL>
7

>  <REMARK>
 VINA RESULT:      -6.1      3.287      8.697
  Name = 
  18 active torsions:
  status: ('A' for Active; 'I' for Inactive)
    1  A    between atoms: C_1  and  C_2
    2  A    between atoms: C_2  and  C_43
    3  A    between atoms: N_3  and  C_21
    4  A    between atoms: N_3  and  C_41
    5  A    between atoms: C_5  and  N_45
    6  A    between atoms: C_9  and  C_25
    7  A    between atoms: C_9  and  C_44
    8  A    between atoms: O_12  and  C_24
    9  A    between atoms: O_12  and  C_28
   10  A    between atoms: C_14  and  C_31
   11  A    between atoms: C_17  and  C_31
   12  A    between atoms: C_17  and  C_39
   13  A    between atoms: C_21  and  C_22
   14  A    between atoms: C_24  and  C_25
   15  A    between atoms: C_29  and  C_31
   16  A    between atoms: C_32  and  N_45
   17  A    between atoms: C_39  and  C_43
   18  A    between atoms: C_43  and  C_47
                            x       y       z     vdW  Elec       q    Type
                         _______ _______ _______ _____ _____    ______ ____

>  <TORSDO>
F 18

$$$$
=
 OpenBabel10232410523D

 49 56  0  0  1  0  0  0  0  0999 V2000
  188.9310  177.2100  139.4280 C   0  0  2  0  0  3  0  0  0  0  0  0
  188.1800  179.1830  136.2780 C   0  0  0  0  0  2  0  0  0  0  0  0
  188.0330  177.7970  135.6510 C   0  0  0  0  0  2  0  0  0  0  0  0
  188.8360  179.0570  137.6490 C   0  0  0  0  0  2  0  0  0  0  0  0
  186.8920  177.3650  137.9090 C   0  0  0  0  0  2  0  0  0  0  0  0
  187.2830  176.7950  136.5420 C   0  0  1  0  0  3  0  0  0  0  0  0
  188.0380  178.1300  138.5880 C   0  0  1  0  0  3  0  0  0  0  0  0
  186.0350  176.2840  135.8360 C   0  0  0  0  0  2  0  0  0  0  0  0
  186.3890  175.2830  134.7460 C   0  0  0  0  0  2  0  0  0  0  0  0
  185.4120  174.1180  134.7390 C   0  0  0  0  0  2  0  0  0  0  0  0
  185.4850  173.4200  135.9600 O   0  0  0  0  0  0  0  0  0  0  0  0
  182.8820  175.0800  137.4980 N   0  0  0  0  0  2  0  0  0  0  0  0
  184.0380  171.7060  136.9170 C   0  0  0  0  0  2  0  0  0  0  0  0
  181.5030  171.9760  136.9120 C   0  0  0  0  0  2  0  0  0  0  0  0
  181.5680  173.3640  136.2680 C   0  0  2  0  0  3  0  0  0  0  0  0
  183.0030  173.5700  135.1410 S   0  0  0  0  0  0  0  0  0  0  0  0
  184.1920  173.1870  136.4900 C   0  0  2  0  0  0  0  0  0  0  0  0
  183.9110  174.0740  137.7360 C   0  0  0  0  0  2  0  0  0  0  0  0
  181.5830  174.4190  137.3730 C   0  0  0  0  0  2  0  0  0  0  0  0
  182.6890  171.0730  136.5620 C   0  0  0  0  0  2  0  0  0  0  0  0
  188.5750  177.3370  140.9010 C   0  0  0  0  0  2  0  0  0  0  0  0
  187.5340  178.4270  141.0940 C   0  0  0  0  0  2  0  0  0  0  0  0
  186.6570  178.1930  142.3340 C   0  0  1  0  0  3  0  0  0  0  0  0
  185.1430  177.9890  142.1170 C   0  0  2  0  0  3  0  0  0  0  0  0
  184.5990  178.8700  140.9970 C   0  0  0  0  0  0  0  0  0  0  0  0
  184.3240  179.1070  142.4860 C   0  0  0  0  0  2  0  0  0  0  0  0
  184.4800  179.1930  139.7170 C   0  0  0  0  0  2  0  0  0  0  0  0
  187.2510  177.1650  143.2890 C   0  0  1  0  0  3  0  0  0  0  0  0
  188.1210  177.8750  144.3110 C   0  0  1  0  0  3  0  0  0  0  0  0
  186.7370  177.3980  144.6930 C   0  0  0  0  0  2  0  0  0  0  0  0
  189.1030  176.9430  144.8380 N   0  0  0  0  0  2  0  0  0  0  0  0
  190.0980  177.7330  145.5310 C   0  0  0  0  0  2  0  0  0  0  0  0
  191.8920  178.6010  144.0790 C   0  0  0  0  0  2  0  0  0  0  0  0
  191.4660  177.4390  144.9530 C   0  0  0  0  0  3  0  0  0  0  0  0
  191.3600  177.3350  143.4480 C   0  0  0  0  0  2  0  0  0  0  0  0
  190.4200  177.4980  139.2270 C   0  0  0  0  0  2  0  0  0  0  0  0
  191.0790  176.4200  138.4360 C   0  0  0  0  0  0  0  0  0  0  0  0
  192.8630  175.2360  137.5710 C   0  0  0  0  0  0  0  0  0  0  0  0
  191.5020  174.3950  137.0730 S   0  0  0  0  0  0  0  0  0  0  0  0
  190.3650  175.4000  137.8030 C   0  0  0  0  0  3  0  0  0  0  0  0
  192.4720  176.3370  138.3180 C   0  0  0  0  0  3  0  0  0  0  0  0
  194.2050  174.8630  137.2290 N   0  0  0  0  0  2  0  0  0  0  0  0
  196.7550  176.6680  134.3640 C   0  0  0  0  0  3  0  0  0  0  0  0
  195.4480  177.1480  134.5210 C   0  0  0  0  0  3  0  0  0  0  0  0
  198.8430  175.0140  134.9620 Cl  0  0  0  0  0  0  0  0  0  0  0  0
  197.2090  175.6080  135.1540 C   0  0  0  0  0  0  0  0  0  0  0  0
  196.3580  175.0230  136.0970 C   0  0  0  0  0  3  0  0  0  0  0  0
  195.0470  175.4870  136.2520 C   0  0  0  0  0  0  0  0  0  0  0  0
  194.5990  176.5630  135.4630 C   0  0  0  0  0  3  0  0  0  0  0  0
  1 36  1  1  0  0  0
  1 21  1  0  0  0  0
  2  4  1  0  0  0  0
  3  2  1  0  0  0  0
  3  6  1  0  0  0  0
  4  7  1  0  0  0  0
  5  7  1  0  0  0  0
  6  8  1  6  0  0  0
  6  5  1  0  0  0  0
  7  1  1  6  0  0  0
  9  8  1  0  0  0  0
 10  9  1  0  0  0  0
 10 11  1  0  0  0  0
 12 18  1  0  0  0  0
 15 14  1  1  0  0  0
 15 19  1  0  0  0  0
 16 15  1  0  0  0  0
 16 17  1  0  0  0  0
 17 11  1  6  0  0  0
 17 13  1  0  0  0  0
 17 18  1  0  0  0  0
 19 12  1  0  0  0  0
 20 14  1  0  0  0  0
 20 13  1  0  0  0  0
 21 22  1  0  0  0  0
 23 22  1  6  0  0  0
 24 23  1  1  0  0  0
 24 26  1  0  0  0  0
 25 24  1  0  0  0  0
 25 26  1  0  0  0  0
 27 25  2  0  0  0  0
 28 23  1  6  0  0  0
 28 29  1  0  0  0  0
 28 30  1  0  0  0  0
 29 30  1  0  0  0  0
 29 31  1  1  0  0  0
 31 32  1  0  0  0  0
 33 34  1  0  0  0  0
 34 32  1  0  0  0  0
 35 33  1  0  0  0  0
 35 34  1  0  0  0  0
 37 36  1  0  0  0  0
 38 41  2  0  0  0  0
 39 38  1  0  0  0  0
 39 40  1  0  0  0  0
 40 37  2  0  0  0  0
 41 37  1  0  0  0  0
 42 38  1  0  0  0  0
 43 44  2  0  0  0  0
 43 46  1  0  0  0  0
 44 49  1  0  0  0  0
 45 46  1  0  0  0  0
 46 47  2  0  0  0  0
 47 48  1  0  0  0  0
 48 42  1  0  0  0  0
 49 48  2  0  0  0  0
M  END
>  <MODEL>
8

>  <REMARK>
 VINA RESULT:      -6.1      3.595      8.783
  Name = 
  18 active torsions:
  status: ('A' for Active; 'I' for Inactive)
    1  A    between atoms: C_1  and  C_2
    2  A    between atoms: C_2  and  C_43
    3  A    between atoms: N_3  and  C_21
    4  A    between atoms: N_3  and  C_41
    5  A    between atoms: C_5  and  N_45
    6  A    between atoms: C_9  and  C_25
    7  A    between atoms: C_9  and  C_44
    8  A    between atoms: O_12  and  C_24
    9  A    between atoms: O_12  and  C_28
   10  A    between atoms: C_14  and  C_31
   11  A    between atoms: C_17  and  C_31
   12  A    between atoms: C_17  and  C_39
   13  A    between atoms: C_21  and  C_22
   14  A    between atoms: C_24  and  C_25
   15  A    between atoms: C_29  and  C_31
   16  A    between atoms: C_32  and  N_45
   17  A    between atoms: C_39  and  C_43
   18  A    between atoms: C_43  and  C_47
                            x       y       z     vdW  Elec       q    Type
                         _______ _______ _______ _____ _____    ______ ____

>  <TORSDO>
F 18

$$$$
=
 OpenBabel10232410523D

 49 56  0  0  1  0  0  0  0  0999 V2000
  187.1660  178.1010  139.8840 C   0  0  2  0  0  3  0  0  0  0  0  0
  190.8270  177.1990  140.2910 C   0  0  0  0  0  2  0  0  0  0  0  0
  190.5120  176.1560  139.2190 C   0  0  0  0  0  2  0  0  0  0  0  0
  189.5270  177.7790  140.8370 C   0  0  0  0  0  2  0  0  0  0  0  0
  189.1600  178.1330  138.2980 C   0  0  0  0  0  2  0  0  0  0  0  0
  189.6150  176.6850  138.0900 C   0  0  1  0  0  3  0  0  0  0  0  0
  188.6610  178.4030  139.7250 C   0  0  1  0  0  3  0  0  0  0  0  0
  190.3240  176.5690  136.7480 C   0  0  0  0  0  2  0  0  0  0  0  0
  191.1120  175.2720  136.6490 C   0  0  0  0  0  2  0  0  0  0  0  0
  192.5010  175.5200  136.0840 C   0  0  0  0  0  2  0  0  0  0  0  0
  193.2430  174.3230  136.0830 O   0  0  0  0  0  0  0  0  0  0  0  0
  195.3720  173.6050  138.7010 N   0  0  0  0  0  2  0  0  0  0  0  0
  195.1400  175.8410  135.8710 C   0  0  0  0  0  2  0  0  0  0  0  0
  197.5060  175.0710  136.4250 C   0  0  0  0  0  2  0  0  0  0  0  0
  197.0420  173.6780  136.8590 C   0  0  2  0  0  3  0  0  0  0  0  0
  195.5540  173.0980  135.9510 S   0  0  0  0  0  0  0  0  0  0  0  0
  194.5740  174.5500  136.5130 C   0  0  2  0  0  0  0  0  0  0  0  0
  194.6630  174.7060  138.0580 C   0  0  0  0  0  2  0  0  0  0  0  0
  196.7940  173.6880  138.3670 C   0  0  0  0  0  2  0  0  0  0  0  0
  196.5910  175.7380  135.3940 C   0  0  0  0  0  2  0  0  0  0  0  0
  186.5260  177.8940  138.5210 C   0  0  0  0  0  2  0  0  0  0  0  0
  185.1290  178.4930  138.5040 C   0  0  0  0  0  2  0  0  0  0  0  0
  184.0390  177.4420  138.2450 C   0  0  1  0  0  3  0  0  0  0  0  0
  182.6170  177.7340  138.7690 C   0  0  2  0  0  3  0  0  0  0  0  0
  182.4040  179.2160  139.0550 C   0  0  0  0  0  0  0  0  0  0  0  0
  182.5510  178.1450  140.1400 C   0  0  0  0  0  2  0  0  0  0  0  0
  182.2410  180.4720  138.6600 C   0  0  0  0  0  2  0  0  0  0  0  0
  184.0360  176.9390  136.8050 C   0  0  1  0  0  3  0  0  0  0  0  0
  184.6050  175.5320  136.7660 C   0  0  1  0  0  3  0  0  0  0  0  0
  183.1110  175.7490  136.6700 C   0  0  0  0  0  2  0  0  0  0  0  0
  185.1290  175.2620  135.4380 N   0  0  0  0  0  2  0  0  0  0  0  0
  186.5050  174.8480  135.6090 C   0  0  0  0  0  2  0  0  0  0  0  0
  187.9440  173.3710  136.9620 C   0  0  0  0  0  2  0  0  0  0  0  0
  186.6690  174.1910  136.9630 C   0  0  0  0  0  3  0  0  0  0  0  0
  186.6050  172.6890  136.7990 C   0  0  0  0  0  2  0  0  0  0  0  0
  186.4250  179.2010  140.6450 C   0  0  0  0  0  2  0  0  0  0  0  0
  186.0520  178.7550  142.0170 C   0  0  0  0  0  0  0  0  0  0  0  0
  186.3580  177.6700  144.0330 C   0  0  0  0  0  0  0  0  0  0  0  0
  184.8900  178.4620  144.1860 S   0  0  0  0  0  0  0  0  0  0  0  0
  184.8810  179.1680  142.6560 C   0  0  0  0  0  3  0  0  0  0  0  0
  186.8860  177.9240  142.7760 C   0  0  0  0  0  3  0  0  0  0  0  0
  186.9300  176.8400  145.0520 N   0  0  0  0  0  2  0  0  0  0  0  0
  189.2000  178.0850  148.4100 C   0  0  0  0  0  3  0  0  0  0  0  0
  187.8500  178.4490  148.3180 C   0  0  0  0  0  3  0  0  0  0  0  0
  191.4670  176.8490  147.5220 Cl  0  0  0  0  0  0  0  0  0  0  0  0
  189.7830  177.3110  147.4030 C   0  0  0  0  0  0  0  0  0  0  0  0
  189.0240  176.9050  146.3020 C   0  0  0  0  0  3  0  0  0  0  0  0
  187.6770  177.2750  146.1950 C   0  0  0  0  0  0  0  0  0  0  0  0
  187.0910  178.0440  147.2170 C   0  0  0  0  0  3  0  0  0  0  0  0
  1 21  1  6  0  0  0
  1 36  1  0  0  0  0
  2  4  1  0  0  0  0
  3  2  1  0  0  0  0
  5  7  1  0  0  0  0
  6  8  1  6  0  0  0
  6  5  1  0  0  0  0
  6  3  1  0  0  0  0
  7  1  1  6  0  0  0
  7  4  1  0  0  0  0
  9  8  1  0  0  0  0
 10  9  1  0  0  0  0
 11 10  1  0  0  0  0
 13 17  1  0  0  0  0
 15 14  1  6  0  0  0
 15 19  1  0  0  0  0
 16 17  1  0  0  0  0
 16 15  1  0  0  0  0
 17 11  1  6  0  0  0
 17 18  1  0  0  0  0
 18 12  1  0  0  0  0
 19 12  1  0  0  0  0
 20 13  1  0  0  0  0
 20 14  1  0  0  0  0
 22 21  1  0  0  0  0
 23 22  1  6  0  0  0
 24 23  1  1  0  0  0
 24 25  1  0  0  0  0
 24 26  1  0  0  0  0
 25 26  1  0  0  0  0
 27 25  2  0  0  0  0
 28 23  1  1  0  0  0
 29 31  1  6  0  0  0
 29 28  1  0  0  0  0
 30 29  1  0  0  0  0
 30 28  1  0  0  0  0
 31 32  1  0  0  0  0
 32 34  1  0  0  0  0
 33 34  1  0  0  0  0
 35 33  1  0  0  0  0
 35 34  1  0  0  0  0
 36 37  1  0  0  0  0
 37 40  2  0  0  0  0
 37 41  1  0  0  0  0
 38 39  1  0  0  0  0
 38 42  1  0  0  0  0
 40 39  1  0  0  0  0
 41 38  2  0  0  0  0
 42 48  1  0  0  0  0
 44 43  1  0  0  0  0
 46 45  1  0  0  0  0
 46 43  2  0  0  0  0
 47 46  1  0  0  0  0
 48 47  2  0  0  0  0
 48 49  1  0  0  0  0
 49 44  2  0  0  0  0
M  END
>  <MODEL>
9

>  <REMARK>
 VINA RESULT:      -6.1      3.117      8.249
  Name = 
  18 active torsions:
  status: ('A' for Active; 'I' for Inactive)
    1  A    between atoms: C_1  and  C_2
    2  A    between atoms: C_2  and  C_43
    3  A    between atoms: N_3  and  C_21
    4  A    between atoms: N_3  and  C_41
    5  A    between atoms: C_5  and  N_45
    6  A    between atoms: C_9  and  C_25
    7  A    between atoms: C_9  and  C_44
    8  A    between atoms: O_12  and  C_24
    9  A    between atoms: O_12  and  C_28
   10  A    between atoms: C_14  and  C_31
   11  A    between atoms: C_17  and  C_31
   12  A    between atoms: C_17  and  C_39
   13  A    between atoms: C_21  and  C_22
   14  A    between atoms: C_24  and  C_25
   15  A    between atoms: C_29  and  C_31
   16  A    between atoms: C_32  and  N_45
   17  A    between atoms: C_39  and  C_43
   18  A    between atoms: C_43  and  C_47
                            x       y       z     vdW  Elec       q    Type
                         _______ _______ _______ _____ _____    ______ ____

>  <TORSDO>
F 18

$$$$
