=
 OpenBabel10222422123D

 29 32  0  0  1  0  0  0  0  0999 V2000
  188.5810  176.3550  138.7050 O   0  0  0  0  0  1  0  0  0  0  0  0
  190.5910  177.3120  139.6090 C   0  0  0  0  0  2  0  0  0  0  0  0
  188.3790  178.3040  140.0060 N   0  0  0  0  0  2  0  0  0  0  0  0
  188.2270  177.5260  141.2380 C   0  0  0  0  0  2  0  0  0  0  0  0
  189.1970  177.5770  139.0250 C   0  0  2  0  0  0  0  0  0  0  0  0
  190.4930  176.5480  140.9260 C   0  0  0  0  0  2  0  0  0  0  0  0
  189.5850  177.2990  141.8970 C   0  0  2  0  0  3  0  0  0  0  0  0
  188.1940  178.4910  137.0070 N   0  0  0  0  0  0  0  0  0  0  0  0
  189.3570  178.4750  137.7820 C   0  0  2  0  0  3  0  0  0  0  0  0
  189.4790  177.7630  136.5930 C   0  0  0  0  0  0  0  0  0  0  0  0
  190.1330  177.0460  135.7920 O   0  0  0  0  0  0  0  0  0  0  0  0
  186.8060  178.8560  136.7820 C   0  0  0  0  0  2  0  0  0  0  0  0
  185.9030  177.6550  136.9980 C   0  0  0  0  0  2  0  0  0  0  0  0
  185.2060  179.1600  138.7660 N   0  0  0  0  0  1  0  0  0  0  0  0
  185.1630  177.7800  138.3150 C   0  0  0  0  0  2  0  0  0  0  0  0
  189.4020  176.5160  143.1080 N   0  0  0  0  0  2  0  0  0  0  0  0
  190.2620  178.7010  143.7460 C   0  0  0  0  0  1  0  0  0  0  0  0
  189.8140  177.3370  144.2380 C   0  0  1  0  0  3  0  0  0  0  0  0
  187.6360  178.0960  148.3800 O   0  0  0  0  0  0  0  0  0  0  0  0
  188.8060  177.6100  146.5290 N   0  0  0  0  0  0  0  0  0  0  0  0
  189.0060  178.0380  148.8120 C   0  0  0  0  0  3  0  0  0  0  0  0
  189.8380  177.7320  147.5320 C   0  0  0  0  0  3  0  0  0  0  0  0
  186.6600  177.8350  146.0610 C   0  0  0  0  0  0  0  0  0  0  0  0
  187.6290  177.8380  147.0330 C   0  0  0  0  0  0  0  0  0  0  0  0
  187.3300  177.6110  144.8510 C   0  0  0  0  0  3  0  0  0  0  0  0
  188.6790  177.4700  145.2000 C   0  0  0  0  0  0  0  0  0  0  0  0
  185.2030  178.1010  146.2380 C   0  0  0  0  0  2  0  0  0  0  0  0
  183.4360  179.1640  145.2190 N   0  0  0  0  0  1  0  0  0  0  0  0
  184.8060  179.2830  145.4880 N   0  0  0  0  0  2  0  0  0  0  0  0
  2  6  1  0  0  0  0
  3  4  1  0  0  0  0
  4  7  1  0  0  0  0
  5  1  1  6  0  0  0
  5  2  1  0  0  0  0
  5  3  1  0  0  0  0
  6  7  1  0  0  0  0
  7 16  1  1  0  0  0
  8  9  1  0  0  0  0
  9 10  1  6  0  0  0
  9  5  1  0  0  0  0
 10  8  1  0  0  0  0
 11 10  2  0  0  0  0
 12 13  1  0  0  0  0
 12  8  1  0  0  0  0
 13 15  1  0  0  0  0
 15 14  1  0  0  0  0
 16 18  1  0  0  0  0
 18 17  1  6  0  0  0
 18 26  1  0  0  0  0
 19 21  1  0  0  0  0
 20 24  1  0  0  0  0
 20 22  1  0  0  0  0
 22 21  2  0  0  0  0
 23 27  1  0  0  0  0
 23 24  2  0  0  0  0
 24 19  1  0  0  0  0
 25 26  2  0  0  0  0
 25 23  1  0  0  0  0
 26 20  1  0  0  0  0
 28 29  1  0  0  0  0
 29 27  1  0  0  0  0
M  END
>  <MODEL>
1

>  <REMARK>
 VINA RESULT:      -7.0      0.000      0.000
  Name = 
  9 active torsions:
  status: ('A' for Active; 'I' for Inactive)
    1  A    between atoms: C_1  and  N_6
    2  A    between atoms: C_1  and  C_23
    3  A    between atoms: C_2  and  C_16
    4  A    between atoms: C_2  and  N_27
    5  A    between atoms: CA_8  and  C_15
    6  A    between atoms: C_10  and  C_23
    7  A    between atoms: N_17  and  C_28
    8  A    between atoms: N_17  and  C_29
    9  A    between atoms: C_24  and  C_28
                            x       y       z     vdW  Elec       q    Type
                         _______ _______ _______ _____ _____    ______ ____

>  <TORSDO>
F 9

$$$$
=
 OpenBabel10222422123D

 29 32  0  0  1  0  0  0  0  0999 V2000
  190.1590  178.0030  137.8290 O   0  0  0  0  0  1  0  0  0  0  0  0
  188.1690  177.0670  138.7980 C   0  0  0  0  0  2  0  0  0  0  0  0
  190.4090  176.2110  139.3320 N   0  0  0  0  0  2  0  0  0  0  0  0
  190.5070  177.1190  140.4780 C   0  0  0  0  0  2  0  0  0  0  0  0
  189.5840  176.7980  138.2670 C   0  0  2  0  0  0  0  0  0  0  0  0
  188.2130  177.9680  140.0290 C   0  0  0  0  0  2  0  0  0  0  0  0
  189.1290  177.3600  141.0870 C   0  0  2  0  0  3  0  0  0  0  0  0
  190.5760  175.8520  136.2590 N   0  0  0  0  0  0  0  0  0  0  0  0
  189.4820  175.7690  137.1240 C   0  0  2  0  0  3  0  0  0  0  0  0
  189.1680  176.3340  135.8930 C   0  0  0  0  0  0  0  0  0  0  0  0
  188.3550  176.8630  135.0900 O   0  0  0  0  0  0  0  0  0  0  0  0
  191.9860  175.6810  135.9520 C   0  0  0  0  0  2  0  0  0  0  0  0
  192.6080  174.6530  136.8810 C   0  0  0  0  0  2  0  0  0  0  0  0
  193.6510  176.7400  137.5370 N   0  0  0  0  0  1  0  0  0  0  0  0
  193.6360  175.3090  137.7810 C   0  0  0  0  0  2  0  0  0  0  0  0
  189.2590  178.2730  142.2120 N   0  0  0  0  0  2  0  0  0  0  0  0
  191.4350  178.7240  143.2030 C   0  0  0  0  0  1  0  0  0  0  0  0
  190.2800  177.7430  143.1030 C   0  0  1  0  0  3  0  0  0  0  0  0
  190.1640  176.6190  147.7080 O   0  0  0  0  0  0  0  0  0  0  0  0
  190.3500  176.9790  145.5010 N   0  0  0  0  0  0  0  0  0  0  0  0
  191.5210  176.2710  147.3880 C   0  0  0  0  0  3  0  0  0  0  0  0
  191.6780  176.5450  145.8630 C   0  0  0  0  0  3  0  0  0  0  0  0
  188.3390  177.5440  146.2180 C   0  0  0  0  0  0  0  0  0  0  0  0
  189.5690  177.0240  146.5400 C   0  0  0  0  0  0  0  0  0  0  0  0
  188.4030  177.8680  144.8570 C   0  0  0  0  0  3  0  0  0  0  0  0
  189.6880  177.4870  144.4500 C   0  0  0  0  0  0  0  0  0  0  0  0
  187.1960  177.7960  147.1430 C   0  0  0  0  0  2  0  0  0  0  0  0
  185.4110  179.1720  146.6880 N   0  0  0  0  0  1  0  0  0  0  0  0
  185.9520  177.9130  146.3970 N   0  0  0  0  0  2  0  0  0  0  0  0
  2  6  1  0  0  0  0
  3  4  1  0  0  0  0
  4  7  1  0  0  0  0
  5  1  1  6  0  0  0
  5  2  1  0  0  0  0
  5  3  1  0  0  0  0
  6  7  1  0  0  0  0
  7 16  1  1  0  0  0
  8  9  1  0  0  0  0
  9 10  1  6  0  0  0
  9  5  1  0  0  0  0
 10  8  1  0  0  0  0
 11 10  2  0  0  0  0
 12  8  1  0  0  0  0
 12 13  1  0  0  0  0
 13 15  1  0  0  0  0
 14 15  1  0  0  0  0
 16 18  1  0  0  0  0
 18 17  1  1  0  0  0
 18 26  1  0  0  0  0
 20 22  1  0  0  0  0
 20 24  1  0  0  0  0
 21 19  1  0  0  0  0
 22 21  2  0  0  0  0
 23 24  2  0  0  0  0
 23 27  1  0  0  0  0
 24 19  1  0  0  0  0
 25 23  1  0  0  0  0
 26 25  2  0  0  0  0
 26 20  1  0  0  0  0
 29 28  1  0  0  0  0
 29 27  1  0  0  0  0
M  END
>  <MODEL>
2

>  <REMARK>
 VINA RESULT:      -6.9      2.375      3.610
  Name = 
  9 active torsions:
  status: ('A' for Active; 'I' for Inactive)
    1  A    between atoms: C_1  and  N_6
    2  A    between atoms: C_1  and  C_23
    3  A    between atoms: C_2  and  C_16
    4  A    between atoms: C_2  and  N_27
    5  A    between atoms: CA_8  and  C_15
    6  A    between atoms: C_10  and  C_23
    7  A    between atoms: N_17  and  C_28
    8  A    between atoms: N_17  and  C_29
    9  A    between atoms: C_24  and  C_28
                            x       y       z     vdW  Elec       q    Type
                         _______ _______ _______ _____ _____    ______ ____

>  <TORSDO>
F 9

$$$$
=
 OpenBabel10222422123D

 29 32  0  0  1  0  0  0  0  0999 V2000
  190.4310  178.6020  144.4070 O   0  0  0  0  0  1  0  0  0  0  0  0
  191.5300  176.6300  143.5840 C   0  0  0  0  0  2  0  0  0  0  0  0
  189.1180  176.9970  143.2960 N   0  0  0  0  0  2  0  0  0  0  0  0
  189.3470  177.6350  141.9970 C   0  0  0  0  0  2  0  0  0  0  0  0
  190.2550  177.2230  144.1990 C   0  0  2  0  0  0  0  0  0  0  0  0
  191.7910  177.2200  142.2010 C   0  0  0  0  0  2  0  0  0  0  0  0
  190.5660  177.0250  141.3110 C   0  0  2  0  0  3  0  0  0  0  0  0
  189.2750  177.2930  146.4230 N   0  0  0  0  0  0  0  0  0  0  0  0
  189.9670  176.4820  145.5200 C   0  0  2  0  0  3  0  0  0  0  0  0
  190.7520  176.9150  146.5830 C   0  0  0  0  0  0  0  0  0  0  0  0
  191.8470  176.9750  147.2010 O   0  0  0  0  0  0  0  0  0  0  0  0
  188.0860  178.0080  146.8570 C   0  0  0  0  0  2  0  0  0  0  0  0
  186.9090  177.6680  145.9600 C   0  0  0  0  0  2  0  0  0  0  0  0
  184.8580  178.4200  147.0100 N   0  0  0  0  0  1  0  0  0  0  0  0
  185.8640  178.7660  146.0230 C   0  0  0  0  0  2  0  0  0  0  0  0
  190.7730  177.6850  140.0330 N   0  0  0  0  0  2  0  0  0  0  0  0
  189.5770  177.7510  137.9150 C   0  0  0  0  0  1  0  0  0  0  0  0
  190.1610  176.8640  139.0000 C   0  0  1  0  0  3  0  0  0  0  0  0
  191.8980  173.3720  136.3030 O   0  0  0  0  0  0  0  0  0  0  0  0
  190.9120  174.8890  137.6280 N   0  0  0  0  0  0  0  0  0  0  0  0
  190.4880  173.1860  136.0950 C   0  0  0  0  0  3  0  0  0  0  0  0
  189.7860  174.2540  136.9850 C   0  0  0  0  0  3  0  0  0  0  0  0
  193.1100  175.0700  137.7340 C   0  0  0  0  0  0  0  0  0  0  0  0
  192.0380  174.3920  137.2090 C   0  0  0  0  0  0  0  0  0  0  0  0
  192.5690  176.0940  138.5230 C   0  0  0  0  0  3  0  0  0  0  0  0
  191.1810  175.9340  138.4280 C   0  0  0  0  0  0  0  0  0  0  0  0
  194.5550  174.8270  137.4560 C   0  0  0  0  0  2  0  0  0  0  0  0
  195.7280  173.7770  139.1330 N   0  0  0  0  0  1  0  0  0  0  0  0
  195.3490  175.0390  138.6570 N   0  0  0  0  0  2  0  0  0  0  0  0
  2  5  1  0  0  0  0
  3  5  1  0  0  0  0
  4  3  1  0  0  0  0
  5  1  1  1  0  0  0
  5  9  1  0  0  0  0
  6  2  1  0  0  0  0
  7 16  1  6  0  0  0
  7  4  1  0  0  0  0
  7  6  1  0  0  0  0
  8 10  1  0  0  0  0
  8 12  1  0  0  0  0
  9  8  1  0  0  0  0
  9 10  1  1  0  0  0
 10 11  2  0  0  0  0
 13 15  1  0  0  0  0
 13 12  1  0  0  0  0
 15 14  1  0  0  0  0
 18 17  1  6  0  0  0
 18 16  1  0  0  0  0
 19 24  1  0  0  0  0
 20 26  1  0  0  0  0
 21 19  1  0  0  0  0
 21 22  2  0  0  0  0
 22 20  1  0  0  0  0
 23 25  1  0  0  0  0
 24 20  1  0  0  0  0
 24 23  2  0  0  0  0
 26 25  2  0  0  0  0
 26 18  1  0  0  0  0
 27 23  1  0  0  0  0
 27 29  1  0  0  0  0
 29 28  1  0  0  0  0
M  END
>  <MODEL>
3

>  <REMARK>
 VINA RESULT:      -6.9      3.378      9.125
  Name = 
  9 active torsions:
  status: ('A' for Active; 'I' for Inactive)
    1  A    between atoms: C_1  and  N_6
    2  A    between atoms: C_1  and  C_23
    3  A    between atoms: C_2  and  C_16
    4  A    between atoms: C_2  and  N_27
    5  A    between atoms: CA_8  and  C_15
    6  A    between atoms: C_10  and  C_23
    7  A    between atoms: N_17  and  C_28
    8  A    between atoms: N_17  and  C_29
    9  A    between atoms: C_24  and  C_28
                            x       y       z     vdW  Elec       q    Type
                         _______ _______ _______ _____ _____    ______ ____

>  <TORSDO>
F 9

$$$$
=
 OpenBabel10222422123D

 29 32  0  0  1  0  0  0  0  0999 V2000
  188.9860  179.5080  138.1530 O   0  0  0  0  0  1  0  0  0  0  0  0
  187.2710  178.1580  139.1580 C   0  0  0  0  0  2  0  0  0  0  0  0
  189.4640  177.2380  138.5410 N   0  0  0  0  0  2  0  0  0  0  0  0
  189.9860  177.5240  139.8800 C   0  0  0  0  0  2  0  0  0  0  0  0
  188.4350  178.2150  138.1590 C   0  0  2  0  0  0  0  0  0  0  0  0
  187.7650  178.3970  140.5820 C   0  0  0  0  0  2  0  0  0  0  0  0
  188.8760  177.4070  140.9210 C   0  0  2  0  0  3  0  0  0  0  0  0
  187.7870  176.4350  136.6360 N   0  0  0  0  0  0  0  0  0  0  0  0
  187.8980  177.8210  136.7690 C   0  0  2  0  0  3  0  0  0  0  0  0
  188.8640  177.2710  135.9340 C   0  0  0  0  0  0  0  0  0  0  0  0
  189.8720  177.3720  135.1870 O   0  0  0  0  0  0  0  0  0  0  0  0
  187.1720  175.1580  136.9590 C   0  0  0  0  0  2  0  0  0  0  0  0
  187.7700  174.0540  136.1060 C   0  0  0  0  0  2  0  0  0  0  0  0
  189.8230  173.7050  137.3460 N   0  0  0  0  0  1  0  0  0  0  0  0
  188.5630  173.0920  136.9690 C   0  0  0  0  0  2  0  0  0  0  0  0
  189.4230  177.7070  142.2340 N   0  0  0  0  0  2  0  0  0  0  0  0
  190.6040  175.8250  143.2260 C   0  0  0  0  0  1  0  0  0  0  0  0
  189.2650  176.5240  143.0660 C   0  0  1  0  0  3  0  0  0  0  0  0
  189.2990  177.7040  147.6580 O   0  0  0  0  0  0  0  0  0  0  0  0
  189.4210  176.9850  145.5370 N   0  0  0  0  0  0  0  0  0  0  0  0
  190.6650  177.2900  147.4850 C   0  0  0  0  0  3  0  0  0  0  0  0
  190.7760  176.8150  146.0060 C   0  0  0  0  0  3  0  0  0  0  0  0
  187.4020  177.7580  145.9850 C   0  0  0  0  0  0  0  0  0  0  0  0
  188.6610  177.4910  146.4630 C   0  0  0  0  0  0  0  0  0  0  0  0
  187.4220  177.4030  144.6300 C   0  0  0  0  0  3  0  0  0  0  0  0
  188.7140  176.9160  144.3980 C   0  0  0  0  0  0  0  0  0  0  0  0
  186.2680  178.3810  146.7290 C   0  0  0  0  0  2  0  0  0  0  0  0
  184.1370  178.7890  145.9660 N   0  0  0  0  0  1  0  0  0  0  0  0
  185.4680  179.2080  145.8380 N   0  0  0  0  0  2  0  0  0  0  0  0
  2  6  1  0  0  0  0
  3  4  1  0  0  0  0
  4  7  1  0  0  0  0
  5  1  1  6  0  0  0
  5  3  1  0  0  0  0
  5  2  1  0  0  0  0
  6  7  1  0  0  0  0
  7 16  1  1  0  0  0
  8  9  1  0  0  0  0
  8 12  1  0  0  0  0
  9 10  1  6  0  0  0
  9  5  1  0  0  0  0
 10  8  1  0  0  0  0
 11 10  2  0  0  0  0
 13 12  1  0  0  0  0
 13 15  1  0  0  0  0
 15 14  1  0  0  0  0
 16 18  1  0  0  0  0
 18 17  1  1  0  0  0
 18 26  1  0  0  0  0
 20 22  1  0  0  0  0
 20 24  1  0  0  0  0
 21 19  1  0  0  0  0
 22 21  2  0  0  0  0
 23 24  2  0  0  0  0
 23 27  1  0  0  0  0
 24 19  1  0  0  0  0
 25 23  1  0  0  0  0
 26 25  2  0  0  0  0
 26 20  1  0  0  0  0
 29 28  1  0  0  0  0
 29 27  1  0  0  0  0
M  END
>  <MODEL>
4

>  <REMARK>
 VINA RESULT:      -6.9      2.100      2.685
  Name = 
  9 active torsions:
  status: ('A' for Active; 'I' for Inactive)
    1  A    between atoms: C_1  and  N_6
    2  A    between atoms: C_1  and  C_23
    3  A    between atoms: C_2  and  C_16
    4  A    between atoms: C_2  and  N_27
    5  A    between atoms: CA_8  and  C_15
    6  A    between atoms: C_10  and  C_23
    7  A    between atoms: N_17  and  C_28
    8  A    between atoms: N_17  and  C_29
    9  A    between atoms: C_24  and  C_28
                            x       y       z     vdW  Elec       q    Type
                         _______ _______ _______ _____ _____    ______ ____

>  <TORSDO>
F 9

$$$$
=
 OpenBabel10222422123D

 29 32  0  0  1  0  0  0  0  0999 V2000
  188.9710  179.5230  137.4340 O   0  0  0  0  0  1  0  0  0  0  0  0
  187.2840  178.0410  138.2900 C   0  0  0  0  0  2  0  0  0  0  0  0
  189.6220  177.3370  138.0110 N   0  0  0  0  0  2  0  0  0  0  0  0
  189.9290  177.7380  139.3870 C   0  0  0  0  0  2  0  0  0  0  0  0
  188.5590  178.1800  137.4450 C   0  0  2  0  0  0  0  0  0  0  0  0
  187.5580  178.3950  139.7480 C   0  0  0  0  0  2  0  0  0  0  0  0
  188.7090  177.5470  140.2830 C   0  0  2  0  0  3  0  0  0  0  0  0
  188.2210  176.2720  135.9760 N   0  0  0  0  0  0  0  0  0  0  0  0
  188.2540  177.6680  136.0230 C   0  0  2  0  0  3  0  0  0  0  0  0
  189.3570  177.1140  135.3830 C   0  0  0  0  0  0  0  0  0  0  0  0
  190.4620  177.2160  134.7880 O   0  0  0  0  0  0  0  0  0  0  0  0
  187.6160  174.9900  136.2970 C   0  0  0  0  0  2  0  0  0  0  0  0
  186.1070  175.0680  136.1520 C   0  0  0  0  0  2  0  0  0  0  0  0
  186.1020  173.1270  137.6040 N   0  0  0  0  0  1  0  0  0  0  0  0
  185.4290  174.3820  137.3220 C   0  0  0  0  0  2  0  0  0  0  0  0
  189.0420  177.9640  141.6360 N   0  0  0  0  0  2  0  0  0  0  0  0
  190.0500  176.1560  142.9160 C   0  0  0  0  0  1  0  0  0  0  0  0
  188.7560  176.8510  142.5300 C   0  0  1  0  0  3  0  0  0  0  0  0
  185.1410  178.4150  145.1690 O   0  0  0  0  0  0  0  0  0  0  0  0
  186.7840  177.8130  143.7650 N   0  0  0  0  0  0  0  0  0  0  0  0
  184.5410  178.4410  143.8630 C   0  0  0  0  0  3  0  0  0  0  0  0
  185.6610  177.9940  142.8760 C   0  0  0  0  0  3  0  0  0  0  0  0
  187.4830  177.7510  145.8590 C   0  0  0  0  0  0  0  0  0  0  0  0
  186.4470  178.0320  145.0020 C   0  0  0  0  0  0  0  0  0  0  0  0
  188.5330  177.2900  145.0550 C   0  0  0  0  0  3  0  0  0  0  0  0
  188.0450  177.3540  143.7440 C   0  0  0  0  0  0  0  0  0  0  0  0
  187.4690  177.8330  147.3490 C   0  0  0  0  0  2  0  0  0  0  0  0
  189.2670  178.3890  148.6710 N   0  0  0  0  0  1  0  0  0  0  0  0
  188.7280  177.3530  147.8980 N   0  0  0  0  0  2  0  0  0  0  0  0
  2  6  1  0  0  0  0
  3  4  1  0  0  0  0
  4  7  1  0  0  0  0
  5  1  1  6  0  0  0
  5  3  1  0  0  0  0
  5  2  1  0  0  0  0
  6  7  1  0  0  0  0
  7 16  1  1  0  0  0
  8  9  1  0  0  0  0
  8 12  1  0  0  0  0
  9 10  1  6  0  0  0
  9  5  1  0  0  0  0
 10  8  1  0  0  0  0
 11 10  2  0  0  0  0
 13 12  1  0  0  0  0
 13 15  1  0  0  0  0
 15 14  1  0  0  0  0
 16 18  1  0  0  0  0
 18 17  1  1  0  0  0
 18 26  1  0  0  0  0
 20 24  1  0  0  0  0
 21 19  1  0  0  0  0
 22 20  1  0  0  0  0
 22 21  2  0  0  0  0
 23 27  1  0  0  0  0
 24 19  1  0  0  0  0
 24 23  2  0  0  0  0
 25 23  1  0  0  0  0
 26 20  1  0  0  0  0
 26 25  2  0  0  0  0
 27 29  1  0  0  0  0
 29 28  1  0  0  0  0
M  END
>  <MODEL>
5

>  <REMARK>
 VINA RESULT:      -6.7      2.304      3.537
  Name = 
  9 active torsions:
  status: ('A' for Active; 'I' for Inactive)
    1  A    between atoms: C_1  and  N_6
    2  A    between atoms: C_1  and  C_23
    3  A    between atoms: C_2  and  C_16
    4  A    between atoms: C_2  and  N_27
    5  A    between atoms: CA_8  and  C_15
    6  A    between atoms: C_10  and  C_23
    7  A    between atoms: N_17  and  C_28
    8  A    between atoms: N_17  and  C_29
    9  A    between atoms: C_24  and  C_28
                            x       y       z     vdW  Elec       q    Type
                         _______ _______ _______ _____ _____    ______ ____

>  <TORSDO>
F 9

$$$$
=
 OpenBabel10222422123D

 29 32  0  0  1  0  0  0  0  0999 V2000
  184.4810  180.2870  139.0690 O   0  0  0  0  0  1  0  0  0  0  0  0
  183.8680  178.8100  140.8620 C   0  0  0  0  0  2  0  0  0  0  0  0
  185.3180  178.0890  139.0150 N   0  0  0  0  0  2  0  0  0  0  0  0
  186.5120  178.4720  139.7740 C   0  0  0  0  0  2  0  0  0  0  0  0
  184.1780  178.9470  139.3650 C   0  0  2  0  0  0  0  0  0  0  0  0
  185.0950  179.1450  141.7040 C   0  0  0  0  0  2  0  0  0  0  0  0
  186.2770  178.2820  141.2700 C   0  0  2  0  0  3  0  0  0  0  0  0
  181.7820  179.1010  138.9770 N   0  0  0  0  0  0  0  0  0  0  0  0
  182.9520  178.4530  138.5710 C   0  0  2  0  0  3  0  0  0  0  0  0
  182.1010  177.6390  139.3100 C   0  0  0  0  0  0  0  0  0  0  0  0
  181.8150  176.5430  139.8590 O   0  0  0  0  0  0  0  0  0  0  0  0
  180.9330  180.2760  139.0750 C   0  0  0  0  0  2  0  0  0  0  0  0
  181.1880  181.2110  137.9070 C   0  0  0  0  0  2  0  0  0  0  0  0
  181.0110  183.5010  137.1330 N   0  0  0  0  0  1  0  0  0  0  0  0
  180.6770  182.6030  138.2240 C   0  0  0  0  0  2  0  0  0  0  0  0
  187.4720  178.6800  141.9940 N   0  0  0  0  0  2  0  0  0  0  0  0
  189.4430  177.2810  141.7100 C   0  0  0  0  0  1  0  0  0  0  0  0
  188.1370  177.4720  142.4600 C   0  0  1  0  0  3  0  0  0  0  0  0
  187.0980  177.8140  147.0740 O   0  0  0  0  0  0  0  0  0  0  0  0
  187.4410  177.8090  144.8570 N   0  0  0  0  0  0  0  0  0  0  0  0
  185.8000  178.0380  146.4960 C   0  0  0  0  0  3  0  0  0  0  0  0
  186.0150  178.0070  144.9540 C   0  0  0  0  0  3  0  0  0  0  0  0
  189.3190  177.3880  145.9400 C   0  0  0  0  0  0  0  0  0  0  0  0
  187.9820  177.6880  146.0330 C   0  0  0  0  0  0  0  0  0  0  0  0
  189.5970  177.2910  144.5700 C   0  0  0  0  0  3  0  0  0  0  0  0
  188.3830  177.5700  143.9300 C   0  0  0  0  0  0  0  0  0  0  0  0
  190.2660  177.1290  147.0640 C   0  0  0  0  0  2  0  0  0  0  0  0
  192.2740  176.0830  147.4700 N   0  0  0  0  0  1  0  0  0  0  0  0
  191.6130  176.9130  146.5560 N   0  0  0  0  0  2  0  0  0  0  0  0
  2  6  1  0  0  0  0
  3  5  1  0  0  0  0
  3  4  1  0  0  0  0
  4  7  1  0  0  0  0
  5  1  1  6  0  0  0
  5  2  1  0  0  0  0
  7  6  1  0  0  0  0
  7 16  1  1  0  0  0
  8 12  1  0  0  0  0
  8 10  1  0  0  0  0
  9  8  1  0  0  0  0
  9 10  1  1  0  0  0
  9  5  1  0  0  0  0
 10 11  2  0  0  0  0
 13 15  1  0  0  0  0
 13 12  1  0  0  0  0
 14 15  1  0  0  0  0
 16 18  1  0  0  0  0
 18 17  1  6  0  0  0
 18 26  1  0  0  0  0
 20 22  1  0  0  0  0
 20 24  1  0  0  0  0
 21 19  1  0  0  0  0
 22 21  2  0  0  0  0
 23 24  2  0  0  0  0
 23 27  1  0  0  0  0
 24 19  1  0  0  0  0
 25 23  1  0  0  0  0
 26 25  2  0  0  0  0
 26 20  1  0  0  0  0
 29 27  1  0  0  0  0
 29 28  1  0  0  0  0
M  END
>  <MODEL>
6

>  <REMARK>
 VINA RESULT:      -6.5      3.327      5.328
  Name = 
  9 active torsions:
  status: ('A' for Active; 'I' for Inactive)
    1  A    between atoms: C_1  and  N_6
    2  A    between atoms: C_1  and  C_23
    3  A    between atoms: C_2  and  C_16
    4  A    between atoms: C_2  and  N_27
    5  A    between atoms: CA_8  and  C_15
    6  A    between atoms: C_10  and  C_23
    7  A    between atoms: N_17  and  C_28
    8  A    between atoms: N_17  and  C_29
    9  A    between atoms: C_24  and  C_28
                            x       y       z     vdW  Elec       q    Type
                         _______ _______ _______ _____ _____    ______ ____

>  <TORSDO>
F 9

$$$$
=
 OpenBabel10222422123D

 29 32  0  0  1  0  0  0  0  0999 V2000
  189.0640  179.0900  139.0460 O   0  0  0  0  0  1  0  0  0  0  0  0
  187.2400  178.2820  140.3850 C   0  0  0  0  0  2  0  0  0  0  0  0
  189.1810  176.8790  139.8410 N   0  0  0  0  0  2  0  0  0  0  0  0
  189.8600  177.3030  141.0680 C   0  0  0  0  0  2  0  0  0  0  0  0
  188.3040  177.9430  139.3320 C   0  0  2  0  0  0  0  0  0  0  0  0
  187.8900  178.6800  141.7070 C   0  0  0  0  0  2  0  0  0  0  0  0
  188.8430  177.5820  142.1710 C   0  0  2  0  0  3  0  0  0  0  0  0
  188.4180  177.4510  136.9540 N   0  0  0  0  0  0  0  0  0  0  0  0
  187.5880  177.4080  138.0770 C   0  0  2  0  0  3  0  0  0  0  0  0
  187.2360  178.4030  137.1710 C   0  0  0  0  0  0  0  0  0  0  0  0
  186.5140  179.3680  136.8080 O   0  0  0  0  0  0  0  0  0  0  0  0
  189.5650  176.9950  136.1870 C   0  0  0  0  0  2  0  0  0  0  0  0
  190.1950  175.7830  136.8500 C   0  0  0  0  0  2  0  0  0  0  0  0
  192.0490  175.0670  138.2380 N   0  0  0  0  0  1  0  0  0  0  0  0
  191.5870  176.1180  137.3500 C   0  0  0  0  0  2  0  0  0  0  0  0
  189.5450  178.0100  143.3690 N   0  0  0  0  0  2  0  0  0  0  0  0
  190.7450  176.7790  145.0910 C   0  0  0  0  0  1  0  0  0  0  0  0
  189.4250  176.9520  144.3610 C   0  0  1  0  0  3  0  0  0  0  0  0
  187.4280  178.2550  148.4600 O   0  0  0  0  0  0  0  0  0  0  0  0
  188.4990  177.5040  146.6370 N   0  0  0  0  0  0  0  0  0  0  0  0
  188.7890  178.0650  148.8810 C   0  0  0  0  0  3  0  0  0  0  0  0
  189.5560  177.5730  147.6180 C   0  0  0  0  0  3  0  0  0  0  0  0
  186.3860  177.9490  146.1740 C   0  0  0  0  0  0  0  0  0  0  0  0
  187.3660  177.9060  147.1350 C   0  0  0  0  0  0  0  0  0  0  0  0
  187.0030  177.5620  144.9770 C   0  0  0  0  0  3  0  0  0  0  0  0
  188.3320  177.2870  145.3230 C   0  0  0  0  0  0  0  0  0  0  0  0
  184.9740  178.3980  146.3460 C   0  0  0  0  0  2  0  0  0  0  0  0
  183.1250  179.1630  145.2120 N   0  0  0  0  0  1  0  0  0  0  0  0
  184.5250  179.1280  145.1700 N   0  0  0  0  0  2  0  0  0  0  0  0
  2  6  1  0  0  0  0
  3  4  1  0  0  0  0
  4  7  1  0  0  0  0
  5  1  1  6  0  0  0
  5  3  1  0  0  0  0
  5  2  1  0  0  0  0
  6  7  1  0  0  0  0
  7 16  1  1  0  0  0
  8 10  1  0  0  0  0
  8  9  1  0  0  0  0
  9 10  1  6  0  0  0
  9  5  1  0  0  0  0
 11 10  2  0  0  0  0
 12 13  1  0  0  0  0
 12  8  1  0  0  0  0
 13 15  1  0  0  0  0
 15 14  1  0  0  0  0
 16 18  1  0  0  0  0
 18 17  1  1  0  0  0
 18 26  1  0  0  0  0
 19 21  1  0  0  0  0
 20 24  1  0  0  0  0
 20 22  1  0  0  0  0
 22 21  2  0  0  0  0
 23 27  1  0  0  0  0
 23 24  2  0  0  0  0
 24 19  1  0  0  0  0
 25 26  2  0  0  0  0
 25 23  1  0  0  0  0
 26 20  1  0  0  0  0
 29 28  1  0  0  0  0
 29 27  1  0  0  0  0
M  END
>  <MODEL>
7

>  <REMARK>
 VINA RESULT:      -6.4      1.710      2.769
  Name = 
  9 active torsions:
  status: ('A' for Active; 'I' for Inactive)
    1  A    between atoms: C_1  and  N_6
    2  A    between atoms: C_1  and  C_23
    3  A    between atoms: C_2  and  C_16
    4  A    between atoms: C_2  and  N_27
    5  A    between atoms: CA_8  and  C_15
    6  A    between atoms: C_10  and  C_23
    7  A    between atoms: N_17  and  C_28
    8  A    between atoms: N_17  and  C_29
    9  A    between atoms: C_24  and  C_28
                            x       y       z     vdW  Elec       q    Type
                         _______ _______ _______ _____ _____    ______ ____

>  <TORSDO>
F 9

$$$$
=
 OpenBabel10222422123D

 29 32  0  0  1  0  0  0  0  0999 V2000
  190.2260  175.5520  142.7450 O   0  0  0  0  0  1  0  0  0  0  0  0
  189.1750  177.7030  142.5260 C   0  0  0  0  0  2  0  0  0  0  0  0
  191.4240  177.2520  141.6470 N   0  0  0  0  0  2  0  0  0  0  0  0
  190.8640  176.8760  140.3460 C   0  0  0  0  0  2  0  0  0  0  0  0
  190.4880  176.9330  142.7330 C   0  0  2  0  0  0  0  0  0  0  0  0
  188.5720  177.3900  141.1600 C   0  0  0  0  0  2  0  0  0  0  0  0
  189.5930  177.6710  140.0620 C   0  0  2  0  0  3  0  0  0  0  0  0
  190.1460  177.6680  145.0250 N   0  0  0  0  0  0  0  0  0  0  0  0
  191.1190  177.4040  144.0580 C   0  0  2  0  0  3  0  0  0  0  0  0
  190.9460  178.7610  144.3060 C   0  0  0  0  0  0  0  0  0  0  0  0
  191.2170  179.9710  144.0920 O   0  0  0  0  0  0  0  0  0  0  0  0
  189.1140  177.2460  145.9570 C   0  0  0  0  0  2  0  0  0  0  0  0
  189.7120  176.9980  147.3300 C   0  0  0  0  0  2  0  0  0  0  0  0
  187.8560  177.7680  148.6860 N   0  0  0  0  0  1  0  0  0  0  0  0
  189.2300  178.0490  148.3120 C   0  0  0  0  0  2  0  0  0  0  0  0
  189.0570  177.2670  138.7730 N   0  0  0  0  0  2  0  0  0  0  0  0
  188.9710  178.9010  136.9710 C   0  0  0  0  0  1  0  0  0  0  0  0
  188.3000  178.3870  138.2320 C   0  0  1  0  0  3  0  0  0  0  0  0
  184.8060  175.6790  136.5150 O   0  0  0  0  0  0  0  0  0  0  0  0
  186.5560  176.9390  137.1330 N   0  0  0  0  0  0  0  0  0  0  0  0
  185.9440  175.0730  135.8780 C   0  0  0  0  0  3  0  0  0  0  0  0
  187.1750  175.9180  136.3220 C   0  0  0  0  0  3  0  0  0  0  0  0
  184.6990  177.6580  138.0880 C   0  0  0  0  0  0  0  0  0  0  0  0
  185.2720  176.7550  137.2270 C   0  0  0  0  0  0  0  0  0  0  0  0
  185.7510  178.4410  138.5800 C   0  0  0  0  0  3  0  0  0  0  0  0
  186.8990  177.9530  137.9450 C   0  0  0  0  0  0  0  0  0  0  0  0
  183.2640  177.7370  138.4890 C   0  0  0  0  0  2  0  0  0  0  0  0
  182.3180  175.7870  139.2590 N   0  0  0  0  0  1  0  0  0  0  0  0
  183.0200  176.9260  139.6730 N   0  0  0  0  0  2  0  0  0  0  0  0
  2  5  1  0  0  0  0
  3  5  1  0  0  0  0
  4  3  1  0  0  0  0
  5  1  1  1  0  0  0
  5  9  1  0  0  0  0
  6  2  1  0  0  0  0
  7 16  1  6  0  0  0
  7  4  1  0  0  0  0
  7  6  1  0  0  0  0
  8 12  1  0  0  0  0
  9 10  1  6  0  0  0
  9  8  1  0  0  0  0
 10  8  1  0  0  0  0
 11 10  2  0  0  0  0
 12 13  1  0  0  0  0
 13 15  1  0  0  0  0
 15 14  1  0  0  0  0
 18 17  1  6  0  0  0
 18 16  1  0  0  0  0
 19 24  1  0  0  0  0
 20 24  1  0  0  0  0
 20 26  1  0  0  0  0
 21 22  2  0  0  0  0
 21 19  1  0  0  0  0
 22 20  1  0  0  0  0
 23 27  1  0  0  0  0
 23 25  1  0  0  0  0
 24 23  2  0  0  0  0
 26 18  1  0  0  0  0
 26 25  2  0  0  0  0
 27 29  1  0  0  0  0
 28 29  1  0  0  0  0
M  END
>  <MODEL>
8

>  <REMARK>
 VINA RESULT:      -6.4      2.706      8.023
  Name = 
  9 active torsions:
  status: ('A' for Active; 'I' for Inactive)
    1  A    between atoms: C_1  and  N_6
    2  A    between atoms: C_1  and  C_23
    3  A    between atoms: C_2  and  C_16
    4  A    between atoms: C_2  and  N_27
    5  A    between atoms: CA_8  and  C_15
    6  A    between atoms: C_10  and  C_23
    7  A    between atoms: N_17  and  C_28
    8  A    between atoms: N_17  and  C_29
    9  A    between atoms: C_24  and  C_28
                            x       y       z     vdW  Elec       q    Type
                         _______ _______ _______ _____ _____    ______ ____

>  <TORSDO>
F 9

$$$$
=
 OpenBabel10222422123D

 29 32  0  0  1  0  0  0  0  0999 V2000
  187.7920  176.1510  143.7570 O   0  0  0  0  0  1  0  0  0  0  0  0
  188.3920  178.2300  142.7120 C   0  0  0  0  0  2  0  0  0  0  0  0
  190.0290  176.8590  143.9270 N   0  0  0  0  0  2  0  0  0  0  0  0
  190.3960  176.1630  142.6910 C   0  0  0  0  0  2  0  0  0  0  0  0
  188.6200  177.2780  143.8940 C   0  0  2  0  0  0  0  0  0  0  0  0
  188.8090  177.5750  141.3980 C   0  0  0  0  0  2  0  0  0  0  0  0
  190.2540  177.0950  141.4910 C   0  0  2  0  0  3  0  0  0  0  0  0
  188.4840  177.2330  146.3210 N   0  0  0  0  0  0  0  0  0  0  0  0
  188.3230  178.0460  145.1970 C   0  0  2  0  0  3  0  0  0  0  0  0
  187.1190  177.6870  145.7920 C   0  0  0  0  0  0  0  0  0  0  0  0
  185.8610  177.7010  145.8480 O   0  0  0  0  0  0  0  0  0  0  0  0
  189.3040  176.4740  147.2510 C   0  0  0  0  0  2  0  0  0  0  0  0
  190.6610  177.1340  147.4160 C   0  0  0  0  0  2  0  0  0  0  0  0
  192.7350  176.1660  148.2160 N   0  0  0  0  0  1  0  0  0  0  0  0
  191.7700  176.1380  147.1320 C   0  0  0  0  0  2  0  0  0  0  0  0
  190.6140  176.3720  140.2820 N   0  0  0  0  0  2  0  0  0  0  0  0
  192.6810  177.6550  140.3280 C   0  0  0  0  0  1  0  0  0  0  0  0
  191.4870  177.2270  139.4930 C   0  0  1  0  0  3  0  0  0  0  0  0
  191.3610  175.6580  135.0200 O   0  0  0  0  0  0  0  0  0  0  0  0
  191.2100  176.3450  137.1500 N   0  0  0  0  0  0  0  0  0  0  0  0
  190.0470  176.2310  135.1330 C   0  0  0  0  0  3  0  0  0  0  0  0
  189.9360  176.7420  136.6000 C   0  0  0  0  0  3  0  0  0  0  0  0
  193.2110  175.5050  136.7400 C   0  0  0  0  0  0  0  0  0  0  0  0
  191.9580  175.7810  136.2490 C   0  0  0  0  0  0  0  0  0  0  0  0
  193.2200  175.9800  138.0570 C   0  0  0  0  0  3  0  0  0  0  0  0
  191.9350  176.4950  138.2700 C   0  0  0  0  0  0  0  0  0  0  0  0
  194.3580  174.9040  135.9990 C   0  0  0  0  0  2  0  0  0  0  0  0
  196.3580  176.0240  136.1850 N   0  0  0  0  0  1  0  0  0  0  0  0
  195.5830  175.0180  136.7760 N   0  0  0  0  0  2  0  0  0  0  0  0
  2  5  1  0  0  0  0
  4  3  1  0  0  0  0
  5  1  1  6  0  0  0
  5  3  1  0  0  0  0
  5  9  1  0  0  0  0
  6  7  1  0  0  0  0
  6  2  1  0  0  0  0
  7 16  1  6  0  0  0
  7  4  1  0  0  0  0
  8 12  1  0  0  0  0
  9 10  1  6  0  0  0
  9  8  1  0  0  0  0
 10 11  2  0  0  0  0
 10  8  1  0  0  0  0
 12 13  1  0  0  0  0
 15 13  1  0  0  0  0
 15 14  1  0  0  0  0
 18 16  1  0  0  0  0
 18 17  1  1  0  0  0
 19 21  1  0  0  0  0
 19 24  1  0  0  0  0
 20 26  1  0  0  0  0
 21 22  2  0  0  0  0
 22 20  1  0  0  0  0
 23 25  1  0  0  0  0
 24 23  2  0  0  0  0
 24 20  1  0  0  0  0
 25 26  2  0  0  0  0
 26 18  1  0  0  0  0
 27 23  1  0  0  0  0
 27 29  1  0  0  0  0
 28 29  1  0  0  0  0
M  END
>  <MODEL>
9

>  <REMARK>
 VINA RESULT:      -6.4      3.371      9.703
  Name = 
  9 active torsions:
  status: ('A' for Active; 'I' for Inactive)
    1  A    between atoms: C_1  and  N_6
    2  A    between atoms: C_1  and  C_23
    3  A    between atoms: C_2  and  C_16
    4  A    between atoms: C_2  and  N_27
    5  A    between atoms: CA_8  and  C_15
    6  A    between atoms: C_10  and  C_23
    7  A    between atoms: N_17  and  C_28
    8  A    between atoms: N_17  and  C_29
    9  A    between atoms: C_24  and  C_28
                            x       y       z     vdW  Elec       q    Type
                         _______ _______ _______ _____ _____    ______ ____

>  <TORSDO>
F 9

$$$$
