=
 OpenBabel10232410573D

 42 47  0  0  1  0  0  0  0  0999 V2000
  185.1450  179.1830  140.1320 N   0  0  0  0  0  1  0  0  0  0  0  0
  185.9690  177.7510  145.5780 C   0  0  0  0  0  3  0  0  0  0  0  0
  188.1640  177.9370  143.7980 N   0  0  0  0  0  0  0  0  0  0  0  0
  185.7490  178.1680  144.1890 C   0  0  0  0  0  0  0  0  0  0  0  0
  191.2240  177.4650  145.1550 S   0  0  0  0  0  0  0  0  0  0  0  0
  187.2040  177.6320  146.0660 C   0  0  0  0  0  0  0  0  0  0  0  0
  188.5630  176.6850  147.8340 N   0  0  0  0  0  0  0  0  0  0  0  0
  184.2340  178.7750  142.3930 C   0  0  0  0  0  0  0  0  0  0  0  0
  186.8390  178.2270  143.3060 C   0  0  2  0  0  3  0  0  0  0  0  0
  190.9990  176.3860  147.3890 C   0  0  0  0  0  3  0  0  0  0  0  0
  189.7190  176.7880  146.9940 C   0  0  0  0  0  0  0  0  0  0  0  0
  186.6200  178.5630  141.9630 C   0  0  0  0  0  3  0  0  0  0  0  0
  189.6540  177.3730  145.7410 C   0  0  0  0  0  0  0  0  0  0  0  0
  185.3290  178.8400  141.5030 C   0  0  0  0  0  0  0  0  0  0  0  0
  188.4120  178.0740  145.2460 C   0  0  0  0  0  0  0  0  0  0  0  0
  184.4570  178.4310  143.7310 C   0  0  0  0  0  3  0  0  0  0  0  0
  187.3900  177.0680  147.4200 C   0  0  0  0  0  3  0  0  0  0  0  0
  191.9820  176.6860  146.4460 C   0  0  0  0  0  3  0  0  0  0  0  0
  180.4220  179.0330  142.7390 C   0  0  0  0  0  3  0  0  0  0  0  0
  181.8690  179.0660  143.1630 C   0  0  0  0  0  2  0  0  0  0  0  0
  182.8220  179.0530  141.9690 C   0  0  2  0  0  3  0  0  0  0  0  0
  182.3420  178.0630  140.9170 C   0  0  0  0  0  2  0  0  0  0  0  0
  180.0500  178.7390  141.5360 N   0  0  0  0  0  0  0  0  0  0  0  0
  180.9690  178.5140  140.4340 C   0  0  0  0  0  2  0  0  0  0  0  0
  189.2420  177.9040  142.8960 N   0  0  0  0  0  2  0  0  0  0  0  0
  189.2870  176.5710  142.3180 C   0  0  0  0  0  2  0  0  0  0  0  0
  190.3310  176.5330  141.2240 C   0  0  0  0  0  2  0  0  0  0  0  0
  189.7430  177.0940  139.9480 C   0  0  0  0  0  2  0  0  0  0  0  0
  190.7450  176.9380  138.8220 C   0  0  0  0  0  2  0  0  0  0  0  0
  190.5110  174.7810  137.8460 O   0  0  0  0  0  1  0  0  0  0  0  0
  190.1390  176.1190  137.6940 C   0  0  1  0  0  3  0  0  0  0  0  0
  186.6850  175.3170  136.9840 C   0  0  0  0  0  2  0  0  0  0  0  0
  188.0180  175.0200  137.3450 O   0  0  0  0  0  0  0  0  0  0  0  0
  188.6170  176.2400  137.7150 C   0  0  2  0  0  3  0  0  0  0  0  0
  186.6550  176.4910  136.0150 C   0  0  1  0  0  0  0  0  0  0  0  0
  188.0390  177.4900  136.5460 P   0  0  1  0  0  0  0  0  0  0  0  0
  187.5860  178.9220  137.3260 O   0  0  0  0  0  1  0  0  0  0  0  0
  189.0220  177.7500  135.4270 O   0  0  0  0  0  0  0  0  0  0  0  0
  186.8600  176.0420  134.7090 O   0  0  0  0  0  1  0  0  0  0  0  0
  185.3510  177.2720  136.1160 C   0  0  0  0  0  2  0  0  0  0  0  0
  184.7440  177.1000  137.4280 N   0  0  0  0  0  2  0  0  0  0  0  0
  183.3330  177.3980  137.2740 C   0  0  0  0  0  1  0  0  0  0  0  0
  1 14  1  0  0  0  0
  2  6  1  0  0  0  0
  3 15  1  0  0  0  0
  4  2  2  0  0  0  0
  5 13  1  0  0  0  0
  5 18  1  0  0  0  0
  6 17  1  0  0  0  0
  8 16  2  0  0  0  0
  9 12  1  6  0  0  0
  9  3  1  0  0  0  0
  9  4  1  0  0  0  0
 11 10  1  0  0  0  0
 11  7  1  0  0  0  0
 13 11  2  0  0  0  0
 14 12  2  0  0  0  0
 14  8  1  0  0  0  0
 15 13  1  0  0  0  0
 15  6  2  0  0  0  0
 16  4  1  0  0  0  0
 17  7  2  0  0  0  0
 18 10  2  0  0  0  0
 19 20  1  0  0  0  0
 21  8  1  1  0  0  0
 21 20  1  0  0  0  0
 22 21  1  0  0  0  0
 23 19  2  0  0  0  0
 24 22  1  0  0  0  0
 24 23  1  0  0  0  0
 25  3  1  0  0  0  0
 26 25  1  0  0  0  0
 27 26  1  0  0  0  0
 28 27  1  0  0  0  0
 29 28  1  0  0  0  0
 31 30  1  1  0  0  0
 31 29  1  0  0  0  0
 32 33  1  0  0  0  0
 33 34  1  0  0  0  0
 34 31  1  6  0  0  0
 35 39  1  6  0  0  0
 35 40  1  0  0  0  0
 35 36  1  0  0  0  0
 35 32  1  0  0  0  0
 36 38  2  6  0  0  0
 36 37  1  0  0  0  0
 36 34  1  0  0  0  0
 40 41  1  0  0  0  0
 42 41  1  0  0  0  0
M  END
>  <MODEL>
1

>  <REMARK>
 VINA RESULT:      -9.0      0.000      0.000
  Name = 
  10 active torsions:
  status: ('A' for Active; 'I' for Inactive)
    1  A    between atoms: C_5  and  C_36
    2  A    between atoms: N_6  and  N_21
    3  A    between atoms: C_7  and  C_25
    4  A    between atoms: N_8  and  C_25
    5  A    between atoms: C_13  and  C_20
    6  A    between atoms: C_15  and  C_17
    7  A    between atoms: C_15  and  C_41
    8  A    between atoms: C_17  and  C_22
    9  A    between atoms: N_21  and  C_22
   10  A    between atoms: C_36  and  C_41
                            x       y       z     vdW  Elec       q    Type
                         _______ _______ _______ _____ _____    ______ ____

>  <TORSDO>
F 10

$$$$
=
 OpenBabel10232410573D

 42 47  0  0  1  0  0  0  0  0999 V2000
  188.3430  178.2080  138.6550 N   0  0  0  0  0  1  0  0  0  0  0  0
  191.1760  176.6770  143.3480 C   0  0  0  0  0  3  0  0  0  0  0  0
  188.6030  177.8450  143.5450 N   0  0  0  0  0  0  0  0  0  0  0  0
  190.4360  177.0230  142.1290 C   0  0  0  0  0  0  0  0  0  0  0  0
  187.3010  178.0600  146.6570 S   0  0  0  0  0  0  0  0  0  0  0  0
  190.5860  176.7360  144.5420 C   0  0  0  0  0  0  0  0  0  0  0  0
  190.9450  176.8320  146.9360 N   0  0  0  0  0  0  0  0  0  0  0  0
  190.3350  177.1970  139.7110 C   0  0  0  0  0  0  0  0  0  0  0  0
  189.1740  177.6300  142.2380 C   0  0  0  0  0  0  0  0  0  0  0  0
  189.1020  177.7430  148.3490 C   0  0  0  0  0  3  0  0  0  0  0  0
  189.6370  177.3910  147.1050 C   0  0  0  0  0  0  0  0  0  0  0  0
  188.4950  178.0180  141.0740 C   0  0  0  0  0  3  0  0  0  0  0  0
  188.7750  177.5530  146.0340 C   0  0  0  0  0  0  0  0  0  0  0  0
  189.0640  177.8030  139.8160 C   0  0  0  0  0  0  0  0  0  0  0  0
  189.0900  177.0120  144.6610 C   0  0  0  0  0  0  0  0  0  0  0  0
  191.0120  176.8180  140.8750 C   0  0  0  0  0  2  0  0  0  0  0  0
  191.4020  176.5250  145.7570 C   0  0  0  0  0  3  0  0  0  0  0  0
  187.7740  178.1620  148.2740 C   0  0  0  0  0  3  0  0  0  0  0  0
  191.1540  175.3380  136.4560 C   0  0  0  0  0  3  0  0  0  0  0  0
  190.3240  175.8180  137.6210 C   0  0  0  0  0  2  0  0  0  0  0  0
  191.0100  176.9410  138.3950 C   0  0  2  0  0  3  0  0  0  0  0  0
  192.4920  176.6390  138.5690 C   0  0  0  0  0  2  0  0  0  0  0  0
  192.4030  175.6400  136.3140 N   0  0  0  0  0  0  0  0  0  0  0  0
  193.1220  176.5530  137.1840 C   0  0  0  0  0  2  0  0  0  0  0  0
  187.3840  178.5360  143.6580 N   0  0  0  0  0  2  0  0  0  0  0  0
  186.3260  177.6240  143.2550 C   0  0  0  0  0  2  0  0  0  0  0  0
  184.9840  178.2950  143.4480 C   0  0  0  0  0  2  0  0  0  0  0  0
  184.2120  178.2580  142.1480 C   0  0  0  0  0  2  0  0  0  0  0  0
  184.8950  179.1520  141.1330 C   0  0  0  0  0  2  0  0  0  0  0  0
  184.4520  180.3010  139.0980 O   0  0  0  0  0  1  0  0  0  0  0  0
  184.1050  179.1660  139.8350 C   0  0  1  0  0  3  0  0  0  0  0  0
  184.9770  177.1280  136.9780 C   0  0  0  0  0  2  0  0  0  0  0  0
  185.1090  178.2330  137.8470 O   0  0  0  0  0  0  0  0  0  0  0  0
  184.4040  177.9070  139.0230 C   0  0  2  0  0  3  0  0  0  0  0  0
  183.5170  176.7070  136.8850 C   0  0  1  0  0  0  0  0  0  0  0  0
  182.8850  177.0730  138.5160 P   0  0  1  0  0  0  0  0  0  0  0  0
  182.5780  175.6970  139.4520 O   0  0  0  0  0  1  0  0  0  0  0  0
  181.6890  177.9980  138.4750 O   0  0  0  0  0  0  0  0  0  0  0  0
  182.8540  177.4790  135.9290 O   0  0  0  0  0  1  0  0  0  0  0  0
  183.3770  175.2230  136.5690 C   0  0  0  0  0  2  0  0  0  0  0  0
  184.5780  174.4960  136.9510 N   0  0  0  0  0  2  0  0  0  0  0  0
  184.1670  173.1330  137.2280 C   0  0  0  0  0  1  0  0  0  0  0  0
  1 14  1  0  0  0  0
  2  6  1  0  0  0  0
  3 25  1  0  0  0  0
  3 15  1  0  0  0  0
  4  9  1  0  0  0  0
  4  2  2  0  0  0  0
  5 18  1  0  0  0  0
  6 15  2  0  0  0  0
  6 17  1  0  0  0  0
  7 11  1  0  0  0  0
  8 14  2  0  0  0  0
  8 16  1  0  0  0  0
  9  3  1  0  0  0  0
 11 10  1  0  0  0  0
 12  9  2  0  0  0  0
 13  5  1  0  0  0  0
 13 11  2  0  0  0  0
 14 12  1  0  0  0  0
 15 13  1  0  0  0  0
 16  4  1  0  0  0  0
 17  7  2  0  0  0  0
 18 10  2  0  0  0  0
 19 20  1  0  0  0  0
 20 21  1  0  0  0  0
 21 22  1  0  0  0  0
 21  8  1  1  0  0  0
 23 19  2  0  0  0  0
 23 24  1  0  0  0  0
 24 22  1  0  0  0  0
 26 27  1  0  0  0  0
 26 25  1  0  0  0  0
 28 27  1  0  0  0  0
 29 28  1  0  0  0  0
 31 30  1  6  0  0  0
 31 29  1  0  0  0  0
 32 33  1  0  0  0  0
 33 34  1  0  0  0  0
 34 31  1  6  0  0  0
 35 39  1  6  0  0  0
 35 32  1  0  0  0  0
 35 36  1  0  0  0  0
 36 38  2  6  0  0  0
 36 34  1  0  0  0  0
 36 37  1  0  0  0  0
 40 35  1  0  0  0  0
 40 41  1  0  0  0  0
 41 42  1  0  0  0  0
M  END
>  <MODEL>
2

>  <REMARK>
 VINA RESULT:      -8.6      2.765      6.212
  Name = 
  10 active torsions:
  status: ('A' for Active; 'I' for Inactive)
    1  A    between atoms: C_5  and  C_36
    2  A    between atoms: N_6  and  N_21
    3  A    between atoms: C_7  and  C_25
    4  A    between atoms: N_8  and  C_25
    5  A    between atoms: C_13  and  C_20
    6  A    between atoms: C_15  and  C_17
    7  A    between atoms: C_15  and  C_41
    8  A    between atoms: C_17  and  C_22
    9  A    between atoms: N_21  and  C_22
   10  A    between atoms: C_36  and  C_41
                            x       y       z     vdW  Elec       q    Type
                         _______ _______ _______ _____ _____    ______ ____

>  <TORSDO>
F 10

$$$$
=
 OpenBabel10232410573D

 42 47  0  0  1  0  0  0  0  0999 V2000
  188.3710  178.0120  138.8360 N   0  0  0  0  0  1  0  0  0  0  0  0
  191.2740  176.6910  143.5490 C   0  0  0  0  0  3  0  0  0  0  0  0
  188.6660  177.7820  143.7310 N   0  0  0  0  0  0  0  0  0  0  0  0
  190.5180  176.9820  142.3270 C   0  0  0  0  0  0  0  0  0  0  0  0
  187.3740  178.0340  146.8440 S   0  0  0  0  0  0  0  0  0  0  0  0
  190.6880  176.7610  144.7450 C   0  0  0  0  0  0  0  0  0  0  0  0
  191.0560  176.9290  147.1340 N   0  0  0  0  0  0  0  0  0  0  0  0
  190.4000  177.0920  139.9050 C   0  0  0  0  0  0  0  0  0  0  0  0
  189.2380  177.5520  142.4270 C   0  0  0  0  0  0  0  0  0  0  0  0
  189.1920  177.8170  148.5340 C   0  0  0  0  0  3  0  0  0  0  0  0
  189.7320  177.4510  147.2960 C   0  0  0  0  0  0  0  0  0  0  0  0
  188.5420  177.8890  141.2580 C   0  0  0  0  0  3  0  0  0  0  0  0
  188.8600  177.5580  146.2260 C   0  0  0  0  0  0  0  0  0  0  0  0
  189.1110  177.6600  140.0020 C   0  0  0  0  0  0  0  0  0  0  0  0
  189.1860  176.9930  144.8650 C   0  0  0  0  0  0  0  0  0  0  0  0
  191.0950  176.7640  141.0750 C   0  0  0  0  0  2  0  0  0  0  0  0
  191.5170  176.6070  145.9600 C   0  0  0  0  0  3  0  0  0  0  0  0
  187.8500  178.1920  148.4560 C   0  0  0  0  0  3  0  0  0  0  0  0
  191.3390  175.1340  136.7430 C   0  0  0  0  0  3  0  0  0  0  0  0
  190.4850  175.6020  137.8950 C   0  0  0  0  0  2  0  0  0  0  0  0
  191.0770  176.8250  138.5930 C   0  0  2  0  0  3  0  0  0  0  0  0
  192.5820  176.6690  138.7540 C   0  0  0  0  0  2  0  0  0  0  0  0
  192.5530  175.5400  136.5590 N   0  0  0  0  0  0  0  0  0  0  0  0
  193.1980  176.5610  137.3640 C   0  0  0  0  0  2  0  0  0  0  0  0
  187.4270  178.4360  143.8340 N   0  0  0  0  0  2  0  0  0  0  0  0
  186.3930  177.4660  143.5110 C   0  0  0  0  0  2  0  0  0  0  0  0
  185.1780  178.1880  142.9720 C   0  0  0  0  0  2  0  0  0  0  0  0
  184.2000  178.4370  144.1000 C   0  0  0  0  0  2  0  0  0  0  0  0
  183.1300  179.4030  143.6330 C   0  0  0  0  0  2  0  0  0  0  0  0
  180.9060  178.5730  143.7820 O   0  0  0  0  0  1  0  0  0  0  0  0
  182.0130  178.6450  142.9330 C   0  0  1  0  0  3  0  0  0  0  0  0
  180.0720  179.4830  140.0000 C   0  0  0  0  0  2  0  0  0  0  0  0
  180.2560  179.1840  141.3680 O   0  0  0  0  0  0  0  0  0  0  0  0
  181.6290  179.3540  141.6360 C   0  0  2  0  0  3  0  0  0  0  0  0
  181.0990  178.7370  139.1580 C   0  0  1  0  0  0  0  0  0  0  0  0
  182.5320  178.6800  140.2250 P   0  0  1  0  0  0  0  0  0  0  0  0
  183.7870  179.7030  139.7330 O   0  0  0  0  0  0  0  0  0  0  0  0
  183.0200  177.2680  140.4560 O   0  0  0  0  0  1  0  0  0  0  0  0
  180.6500  177.4430  138.8880 O   0  0  0  0  0  1  0  0  0  0  0  0
  181.4130  179.4780  137.8650 C   0  0  0  0  0  2  0  0  0  0  0  0
  180.9700  180.8620  137.9390 N   0  0  0  0  0  2  0  0  0  0  0  0
  180.7520  181.3010  136.5740 C   0  0  0  0  0  1  0  0  0  0  0  0
  1 14  1  0  0  0  0
  2  6  1  0  0  0  0
  3 25  1  0  0  0  0
  3 15  1  0  0  0  0
  4  9  1  0  0  0  0
  4  2  2  0  0  0  0
  5 18  1  0  0  0  0
  6 15  2  0  0  0  0
  6 17  1  0  0  0  0
  7 11  1  0  0  0  0
  8 14  2  0  0  0  0
  8 16  1  0  0  0  0
  9  3  1  0  0  0  0
 11 10  1  0  0  0  0
 12  9  2  0  0  0  0
 13  5  1  0  0  0  0
 13 11  2  0  0  0  0
 14 12  1  0  0  0  0
 15 13  1  0  0  0  0
 16  4  1  0  0  0  0
 17  7  2  0  0  0  0
 18 10  2  0  0  0  0
 19 20  1  0  0  0  0
 20 21  1  0  0  0  0
 21 22  1  0  0  0  0
 21  8  1  1  0  0  0
 23 19  2  0  0  0  0
 23 24  1  0  0  0  0
 24 22  1  0  0  0  0
 26 25  1  0  0  0  0
 27 26  1  0  0  0  0
 27 28  1  0  0  0  0
 29 28  1  0  0  0  0
 31 29  1  0  0  0  0
 31 30  1  1  0  0  0
 32 33  1  0  0  0  0
 33 34  1  0  0  0  0
 34 31  1  1  0  0  0
 35 39  1  6  0  0  0
 35 32  1  0  0  0  0
 35 36  1  0  0  0  0
 36 37  2  6  0  0  0
 36 38  1  0  0  0  0
 36 34  1  0  0  0  0
 40 41  1  0  0  0  0
 40 35  1  0  0  0  0
 42 41  1  0  0  0  0
M  END
>  <MODEL>
3

>  <REMARK>
 VINA RESULT:      -8.1      3.462      7.074
  Name = 
  10 active torsions:
  status: ('A' for Active; 'I' for Inactive)
    1  A    between atoms: C_5  and  C_36
    2  A    between atoms: N_6  and  N_21
    3  A    between atoms: C_7  and  C_25
    4  A    between atoms: N_8  and  C_25
    5  A    between atoms: C_13  and  C_20
    6  A    between atoms: C_15  and  C_17
    7  A    between atoms: C_15  and  C_41
    8  A    between atoms: C_17  and  C_22
    9  A    between atoms: N_21  and  C_22
   10  A    between atoms: C_36  and  C_41
                            x       y       z     vdW  Elec       q    Type
                         _______ _______ _______ _____ _____    ______ ____

>  <TORSDO>
F 10

$$$$
=
 OpenBabel10232410573D

 42 47  0  0  1  0  0  0  0  0999 V2000
  189.5090  177.8830  141.5710 N   0  0  0  0  0  1  0  0  0  0  0  0
  184.3960  178.3500  144.0270 C   0  0  0  0  0  3  0  0  0  0  0  0
  184.7070  178.8620  141.2580 N   0  0  0  0  0  0  0  0  0  0  0  0
  185.7090  178.1790  143.3960 C   0  0  0  0  0  0  0  0  0  0  0  0
  181.8750  179.5410  139.5430 S   0  0  0  0  0  0  0  0  0  0  0  0
  183.3090  178.5660  143.2860 C   0  0  0  0  0  0  0  0  0  0  0  0
  181.0190  179.3570  143.2980 N   0  0  0  0  0  0  0  0  0  0  0  0
  188.0810  177.6970  143.5790 C   0  0  0  0  0  0  0  0  0  0  0  0
  185.8600  178.4650  142.0300 C   0  0  0  0  0  0  0  0  0  0  0  0
  180.0450  180.1200  141.1320 C   0  0  0  0  0  3  0  0  0  0  0  0
  181.1010  179.6030  141.8890 C   0  0  0  0  0  0  0  0  0  0  0  0
  187.1290  178.3640  141.4410 C   0  0  0  0  0  3  0  0  0  0  0  0
  182.2300  179.2690  141.1610 C   0  0  0  0  0  0  0  0  0  0  0  0
  188.2350  177.9800  142.2040 C   0  0  0  0  0  0  0  0  0  0  0  0
  183.3720  178.4880  141.7640 C   0  0  1  0  0  3  0  0  0  0  0  0
  186.8140  177.8080  144.1630 C   0  0  0  0  0  3  0  0  0  0  0  0
  182.0310  178.8800  143.9620 C   0  0  0  0  0  3  0  0  0  0  0  0
  180.3230  180.1670  139.7660 C   0  0  0  0  0  3  0  0  0  0  0  0
  189.9460  176.9970  146.8570 C   0  0  0  0  0  3  0  0  0  0  0  0
  188.7780  177.1040  145.9090 C   0  0  0  0  0  2  0  0  0  0  0  0
  189.2240  177.2870  144.4600 C   0  0  2  0  0  3  0  0  0  0  0  0
  190.3820  178.2710  144.3800 C   0  0  0  0  0  2  0  0  0  0  0  0
  191.1540  177.3100  146.5190 N   0  0  0  0  0  0  0  0  0  0  0  0
  191.5480  177.6950  145.1750 C   0  0  0  0  0  2  0  0  0  0  0  0
  184.8740  179.2380  139.9140 N   0  0  0  0  0  2  0  0  0  0  0  0
  184.7280  178.0390  139.1050 C   0  0  0  0  0  2  0  0  0  0  0  0
  185.5330  178.1920  137.8320 C   0  0  0  0  0  2  0  0  0  0  0  0
  185.0170  177.2220  136.7920 C   0  0  0  0  0  2  0  0  0  0  0  0
  186.1890  176.5780  136.0800 C   0  0  0  0  0  2  0  0  0  0  0  0
  186.1690  174.3500  136.9150 O   0  0  0  0  0  1  0  0  0  0  0  0
  186.8580  175.5630  136.9920 C   0  0  1  0  0  3  0  0  0  0  0  0
  190.2440  174.2950  137.0850 C   0  0  0  0  0  2  0  0  0  0  0  0
  188.8370  174.1900  137.1600 O   0  0  0  0  0  0  0  0  0  0  0  0
  188.3140  175.3610  136.5770 C   0  0  2  0  0  3  0  0  0  0  0  0
  190.6950  175.6560  137.5980 C   0  0  1  0  0  0  0  0  0  0  0  0
  189.3520  176.7340  137.1220 P   0  0  1  0  0  0  0  0  0  0  0  0
  189.7370  177.7790  135.8470 O   0  0  0  0  0  0  0  0  0  0  0  0
  188.7700  177.4820  138.3000 O   0  0  0  0  0  1  0  0  0  0  0  0
  190.8180  175.6280  138.9890 O   0  0  0  0  0  1  0  0  0  0  0  0
  192.0020  176.0980  136.9520 C   0  0  0  0  0  2  0  0  0  0  0  0
  193.1260  175.8650  137.8460 N   0  0  0  0  0  2  0  0  0  0  0  0
  194.0460  174.9950  137.1370 C   0  0  0  0  0  1  0  0  0  0  0  0
  1 14  1  0  0  0  0
  3 15  1  0  0  0  0
  3  9  1  0  0  0  0
  4  2  1  0  0  0  0
  4 16  1  0  0  0  0
  5 18  1  0  0  0  0
  5 13  1  0  0  0  0
  6 17  1  0  0  0  0
  6  2  2  0  0  0  0
  7 17  2  0  0  0  0
  8 16  2  0  0  0  0
  9  4  2  0  0  0  0
 10 11  1  0  0  0  0
 11  7  1  0  0  0  0
 12  9  1  0  0  0  0
 12 14  2  0  0  0  0
 13 11  2  0  0  0  0
 14  8  1  0  0  0  0
 15 13  1  6  0  0  0
 15  6  1  0  0  0  0
 18 10  2  0  0  0  0
 20 19  1  0  0  0  0
 21  8  1  6  0  0  0
 21 20  1  0  0  0  0
 22 21  1  0  0  0  0
 22 24  1  0  0  0  0
 23 19  2  0  0  0  0
 24 23  1  0  0  0  0
 25  3  1  0  0  0  0
 26 25  1  0  0  0  0
 27 26  1  0  0  0  0
 28 27  1  0  0  0  0
 29 28  1  0  0  0  0
 29 31  1  0  0  0  0
 31 30  1  6  0  0  0
 32 33  1  0  0  0  0
 32 35  1  0  0  0  0
 34 31  1  1  0  0  0
 34 36  1  0  0  0  0
 34 33  1  0  0  0  0
 35 39  1  1  0  0  0
 36 37  2  6  0  0  0
 36 35  1  0  0  0  0
 36 38  1  0  0  0  0
 40 35  1  0  0  0  0
 40 41  1  0  0  0  0
 42 41  1  0  0  0  0
M  END
>  <MODEL>
4

>  <REMARK>
 VINA RESULT:      -8.1      2.522      6.996
  Name = 
  10 active torsions:
  status: ('A' for Active; 'I' for Inactive)
    1  A    between atoms: C_5  and  C_36
    2  A    between atoms: N_6  and  N_21
    3  A    between atoms: C_7  and  C_25
    4  A    between atoms: N_8  and  C_25
    5  A    between atoms: C_13  and  C_20
    6  A    between atoms: C_15  and  C_17
    7  A    between atoms: C_15  and  C_41
    8  A    between atoms: C_17  and  C_22
    9  A    between atoms: N_21  and  C_22
   10  A    between atoms: C_36  and  C_41
                            x       y       z     vdW  Elec       q    Type
                         _______ _______ _______ _____ _____    ______ ____

>  <TORSDO>
F 10

$$$$
=
 OpenBabel10232410573D

 42 47  0  0  1  0  0  0  0  0999 V2000
  184.6410  177.9260  140.8740 N   0  0  0  0  0  1  0  0  0  0  0  0
  186.4180  178.4430  146.2560 C   0  0  0  0  0  3  0  0  0  0  0  0
  188.1180  177.3210  144.2870 N   0  0  0  0  0  0  0  0  0  0  0  0
  185.9660  178.3590  144.8630 C   0  0  0  0  0  0  0  0  0  0  0  0
  191.2460  176.5340  145.2970 S   0  0  0  0  0  0  0  0  0  0  0  0
  187.6810  178.1660  146.5790 C   0  0  0  0  0  0  0  0  0  0  0  0
  189.1940  177.5970  148.3840 N   0  0  0  0  0  0  0  0  0  0  0  0
  184.2280  178.6630  143.1960 C   0  0  0  0  0  0  0  0  0  0  0  0
  186.8040  177.7730  143.9000 C   0  0  2  0  0  3  0  0  0  0  0  0
  191.3390  176.4720  147.7860 C   0  0  0  0  0  3  0  0  0  0  0  0
  190.1140  177.0470  147.4330 C   0  0  0  0  0  0  0  0  0  0  0  0
  186.3470  177.6360  142.5820 C   0  0  0  0  0  3  0  0  0  0  0  0
  189.8750  177.1180  146.0710 C   0  0  0  0  0  0  0  0  0  0  0  0
  185.0700  178.0780  142.2250 C   0  0  0  0  0  0  0  0  0  0  0  0
  188.7250  177.9080  145.4970 C   0  0  0  0  0  0  0  0  0  0  0  0
  184.6860  178.7910  144.5120 C   0  0  0  0  0  3  0  0  0  0  0  0
  188.0620  178.1160  148.0070 C   0  0  0  0  0  3  0  0  0  0  0  0
  192.1110  176.1070  146.6830 C   0  0  0  0  0  3  0  0  0  0  0  0
  180.4390  179.0740  143.6340 C   0  0  0  0  0  3  0  0  0  0  0  0
  181.8790  178.8750  144.0370 C   0  0  0  0  0  2  0  0  0  0  0  0
  182.8450  179.1540  142.8870 C   0  0  2  0  0  3  0  0  0  0  0  0
  182.3110  178.5630  141.5890 C   0  0  0  0  0  2  0  0  0  0  0  0
  180.0640  179.1830  142.4020 N   0  0  0  0  0  0  0  0  0  0  0  0
  180.9800  179.2340  141.2760 C   0  0  0  0  0  2  0  0  0  0  0  0
  188.9200  176.6500  143.3480 N   0  0  0  0  0  2  0  0  0  0  0  0
  189.2820  177.6120  142.3190 C   0  0  0  0  0  2  0  0  0  0  0  0
  190.1230  176.9250  141.2650 C   0  0  0  0  0  2  0  0  0  0  0  0
  189.9740  177.6570  139.9490 C   0  0  0  0  0  2  0  0  0  0  0  0
  188.5540  178.1700  139.8180 C   0  0  0  0  0  2  0  0  0  0  0  0
  187.1900  178.7960  137.9720 O   0  0  0  0  0  1  0  0  0  0  0  0
  187.9710  177.7540  138.4770 C   0  0  1  0  0  3  0  0  0  0  0  0
  189.6890  177.4180  135.3130 C   0  0  0  0  0  2  0  0  0  0  0  0
  188.8870  178.0820  136.2680 O   0  0  0  0  0  0  0  0  0  0  0  0
  189.0930  177.4220  137.4960 C   0  0  2  0  0  3  0  0  0  0  0  0
  189.4720  175.9140  135.4020 C   0  0  1  0  0  0  0  0  0  0  0  0
  189.1570  175.6520  137.1420 P   0  0  1  0  0  0  0  0  0  0  0  0
  190.4300  174.8920  137.9580 O   0  0  0  0  0  1  0  0  0  0  0  0
  187.8390  174.9530  137.3890 O   0  0  0  0  0  0  0  0  0  0  0  0
  188.3550  175.5440  134.6510 O   0  0  0  0  0  1  0  0  0  0  0  0
  190.7040  175.1390  134.9510 C   0  0  0  0  0  2  0  0  0  0  0  0
  191.9010  175.9570  135.0640 N   0  0  0  0  0  2  0  0  0  0  0  0
  193.0050  175.1450  134.5870 C   0  0  0  0  0  1  0  0  0  0  0  0
  1 14  1  0  0  0  0
  2  6  1  0  0  0  0
  3 15  1  0  0  0  0
  4  2  2  0  0  0  0
  5 13  1  0  0  0  0
  5 18  1  0  0  0  0
  6 17  1  0  0  0  0
  8 16  2  0  0  0  0
  9 12  1  1  0  0  0
  9  3  1  0  0  0  0
  9  4  1  0  0  0  0
 11 10  1  0  0  0  0
 11  7  1  0  0  0  0
 13 11  2  0  0  0  0
 14 12  2  0  0  0  0
 14  8  1  0  0  0  0
 15 13  1  0  0  0  0
 15  6  2  0  0  0  0
 16  4  1  0  0  0  0
 17  7  2  0  0  0  0
 18 10  2  0  0  0  0
 19 20  1  0  0  0  0
 21  8  1  1  0  0  0
 21 20  1  0  0  0  0
 22 21  1  0  0  0  0
 23 19  2  0  0  0  0
 24 22  1  0  0  0  0
 24 23  1  0  0  0  0
 25  3  1  0  0  0  0
 26 25  1  0  0  0  0
 27 26  1  0  0  0  0
 28 27  1  0  0  0  0
 29 28  1  0  0  0  0
 31 30  1  6  0  0  0
 31 29  1  0  0  0  0
 32 35  1  0  0  0  0
 32 33  1  0  0  0  0
 33 34  1  0  0  0  0
 34 31  1  1  0  0  0
 35 39  1  6  0  0  0
 35 36  1  0  0  0  0
 36 38  2  1  0  0  0
 36 34  1  0  0  0  0
 36 37  1  0  0  0  0
 40 41  1  0  0  0  0
 40 35  1  0  0  0  0
 42 41  1  0  0  0  0
M  END
>  <MODEL>
5

>  <REMARK>
 VINA RESULT:      -8.1      1.824      2.882
  Name = 
  10 active torsions:
  status: ('A' for Active; 'I' for Inactive)
    1  A    between atoms: C_5  and  C_36
    2  A    between atoms: N_6  and  N_21
    3  A    between atoms: C_7  and  C_25
    4  A    between atoms: N_8  and  C_25
    5  A    between atoms: C_13  and  C_20
    6  A    between atoms: C_15  and  C_17
    7  A    between atoms: C_15  and  C_41
    8  A    between atoms: C_17  and  C_22
    9  A    between atoms: N_21  and  C_22
   10  A    between atoms: C_36  and  C_41
                            x       y       z     vdW  Elec       q    Type
                         _______ _______ _______ _____ _____    ______ ____

>  <TORSDO>
F 10

$$$$
=
 OpenBabel10232410573D

 42 47  0  0  1  0  0  0  0  0999 V2000
  193.9890  176.7590  136.4400 N   0  0  0  0  0  1  0  0  0  0  0  0
  189.3860  173.4570  136.9860 C   0  0  0  0  0  3  0  0  0  0  0  0
  189.1120  176.2040  136.3480 N   0  0  0  0  0  0  0  0  0  0  0  0
  190.5820  174.2870  136.8010 C   0  0  0  0  0  0  0  0  0  0  0  0
  185.9660  177.2850  135.7500 S   0  0  0  0  0  0  0  0  0  0  0  0
  188.1760  173.9300  136.6830 C   0  0  0  0  0  0  0  0  0  0  0  0
  185.7910  173.6400  136.9960 N   0  0  0  0  0  0  0  0  0  0  0  0
  192.9950  174.5360  136.8590 C   0  0  0  0  0  0  0  0  0  0  0  0
  190.4350  175.6540  136.5150 C   0  0  0  0  0  0  0  0  0  0  0  0
  184.3230  175.6190  136.6080 C   0  0  0  0  0  3  0  0  0  0  0  0
  185.5830  175.0130  136.6450 C   0  0  0  0  0  0  0  0  0  0  0  0
  191.5760  176.4590  136.4010 C   0  0  0  0  0  3  0  0  0  0  0  0
  186.6300  175.8230  136.2400 C   0  0  0  0  0  0  0  0  0  0  0  0
  192.8510  175.9100  136.5670 C   0  0  0  0  0  0  0  0  0  0  0  0
  188.0170  175.2800  135.9920 C   0  0  1  0  0  3  0  0  0  0  0  0
  191.8520  173.7380  136.9800 C   0  0  0  0  0  3  0  0  0  0  0  0
  186.9850  173.1220  137.0220 C   0  0  0  0  0  3  0  0  0  0  0  0
  184.3590  176.9300  136.1310 C   0  0  0  0  0  3  0  0  0  0  0  0
  195.4960  171.6550  137.2620 C   0  0  0  0  0  3  0  0  0  0  0  0
  194.2650  172.3790  136.7780 C   0  0  0  0  0  2  0  0  0  0  0  0
  194.3300  173.8800  137.0570 C   0  0  2  0  0  3  0  0  0  0  0  0
  194.8860  174.1380  138.4500 C   0  0  0  0  0  2  0  0  0  0  0  0
  196.3560  172.1930  138.0650 N   0  0  0  0  0  0  0  0  0  0  0  0
  196.3010  173.5750  138.5060 C   0  0  0  0  0  2  0  0  0  0  0  0
  188.9600  177.5870  136.1550 N   0  0  0  0  0  2  0  0  0  0  0  0
  189.2750  178.2400  137.4160 C   0  0  0  0  0  2  0  0  0  0  0  0
  188.1890  177.9340  138.4240 C   0  0  0  0  0  2  0  0  0  0  0  0
  188.8030  177.8100  139.8020 C   0  0  0  0  0  2  0  0  0  0  0  0
  190.3110  177.7370  139.6740 C   0  0  0  0  0  2  0  0  0  0  0  0
  192.2620  177.4680  141.0080 O   0  0  0  0  0  1  0  0  0  0  0  0
  190.9110  177.1220  140.9280 C   0  0  1  0  0  3  0  0  0  0  0  0
  190.4290  178.5100  144.2320 C   0  0  0  0  0  2  0  0  0  0  0  0
  191.0130  178.4400  142.9480 O   0  0  0  0  0  0  0  0  0  0  0  0
  190.1710  177.6250  142.1660 C   0  0  2  0  0  3  0  0  0  0  0  0
  190.0700  177.1140  144.7210 C   0  0  1  0  0  0  0  0  0  0  0  0
  189.6350  176.2560  143.2150 P   0  0  1  0  0  0  0  0  0  0  0  0
  187.9780  175.9530  143.0580 O   0  0  0  0  0  1  0  0  0  0  0  0
  190.4540  175.0010  143.0110 O   0  0  0  0  0  0  0  0  0  0  0  0
  191.1830  176.5120  145.3120 O   0  0  0  0  0  1  0  0  0  0  0  0
  188.8950  177.1400  145.6910 C   0  0  0  0  0  2  0  0  0  0  0  0
  189.1990  177.9630  146.8510 N   0  0  0  0  0  2  0  0  0  0  0  0
  188.5410  177.3410  147.9840 C   0  0  0  0  0  1  0  0  0  0  0  0
  1 14  1  0  0  0  0
  3  9  1  0  0  0  0
  4 16  1  0  0  0  0
  4  2  1  0  0  0  0
  5 18  1  0  0  0  0
  5 13  1  0  0  0  0
  6  2  2  0  0  0  0
  6 17  1  0  0  0  0
  7 17  2  0  0  0  0
  8 16  2  0  0  0  0
  9  4  2  0  0  0  0
 10 11  1  0  0  0  0
 11  7  1  0  0  0  0
 12  9  1  0  0  0  0
 12 14  2  0  0  0  0
 13 11  2  0  0  0  0
 14  8  1  0  0  0  0
 15 13  1  1  0  0  0
 15  3  1  0  0  0  0
 15  6  1  0  0  0  0
 18 10  2  0  0  0  0
 19 23  2  0  0  0  0
 20 21  1  0  0  0  0
 20 19  1  0  0  0  0
 21  8  1  1  0  0  0
 21 22  1  0  0  0  0
 22 24  1  0  0  0  0
 23 24  1  0  0  0  0
 25  3  1  0  0  0  0
 25 26  1  0  0  0  0
 26 27  1  0  0  0  0
 27 28  1  0  0  0  0
 29 28  1  0  0  0  0
 29 31  1  0  0  0  0
 31 30  1  1  0  0  0
 32 35  1  0  0  0  0
 33 32  1  0  0  0  0
 34 31  1  6  0  0  0
 34 33  1  0  0  0  0
 34 36  1  0  0  0  0
 35 39  1  1  0  0  0
 35 40  1  0  0  0  0
 36 38  2  6  0  0  0
 36 35  1  0  0  0  0
 37 36  1  0  0  0  0
 40 41  1  0  0  0  0
 41 42  1  0  0  0  0
M  END
>  <MODEL>
6

>  <REMARK>
 VINA RESULT:      -7.6      4.629     10.290
  Name = 
  10 active torsions:
  status: ('A' for Active; 'I' for Inactive)
    1  A    between atoms: C_5  and  C_36
    2  A    between atoms: N_6  and  N_21
    3  A    between atoms: C_7  and  C_25
    4  A    between atoms: N_8  and  C_25
    5  A    between atoms: C_13  and  C_20
    6  A    between atoms: C_15  and  C_17
    7  A    between atoms: C_15  and  C_41
    8  A    between atoms: C_17  and  C_22
    9  A    between atoms: N_21  and  C_22
   10  A    between atoms: C_36  and  C_41
                            x       y       z     vdW  Elec       q    Type
                         _______ _______ _______ _____ _____    ______ ____

>  <TORSDO>
F 10

$$$$
=
 OpenBabel10232410573D

 42 47  0  0  1  0  0  0  0  0999 V2000
  185.6060  178.4780  139.3710 N   0  0  0  0  0  1  0  0  0  0  0  0
  186.1480  178.0180  145.0170 C   0  0  0  0  0  3  0  0  0  0  0  0
  188.3860  177.6200  143.3260 N   0  0  0  0  0  0  0  0  0  0  0  0
  186.0070  178.1860  143.5670 C   0  0  0  0  0  0  0  0  0  0  0  0
  191.3420  177.0780  144.8730 S   0  0  0  0  0  0  0  0  0  0  0  0
  187.3510  177.8580  145.5690 C   0  0  0  0  0  0  0  0  0  0  0  0
  188.5550  177.1170  147.5370 N   0  0  0  0  0  0  0  0  0  0  0  0
  184.6090  178.6080  141.6280 C   0  0  0  0  0  0  0  0  0  0  0  0
  187.1140  177.9570  142.7350 C   0  0  2  0  0  3  0  0  0  0  0  0
  190.9480  176.4720  147.2570 C   0  0  0  0  0  3  0  0  0  0  0  0
  189.7320  176.9310  146.7420 C   0  0  0  0  0  0  0  0  0  0  0  0
  186.9620  178.0560  141.3450 C   0  0  0  0  0  3  0  0  0  0  0  0
  189.7600  177.2720  145.4010 C   0  0  0  0  0  0  0  0  0  0  0  0
  185.7220  178.3820  140.7880 C   0  0  0  0  0  0  0  0  0  0  0  0
  188.6190  178.0010  144.7330 C   0  0  0  0  0  0  0  0  0  0  0  0
  184.7640  178.5000  143.0140 C   0  0  0  0  0  3  0  0  0  0  0  0
  187.4440  177.5420  147.0110 C   0  0  0  0  0  3  0  0  0  0  0  0
  191.9780  176.4780  146.3170 C   0  0  0  0  0  3  0  0  0  0  0  0
  180.8170  179.1800  141.7290 C   0  0  0  0  0  3  0  0  0  0  0  0
  182.2380  179.1390  142.2330 C   0  0  0  0  0  2  0  0  0  0  0  0
  183.2480  178.9540  141.1020 C   0  0  2  0  0  3  0  0  0  0  0  0
  182.7460  177.9190  140.1050 C   0  0  0  0  0  2  0  0  0  0  0  0
  180.4860  178.8160  140.5330 N   0  0  0  0  0  0  0  0  0  0  0  0
  181.4400  178.4300  139.5080 C   0  0  0  0  0  2  0  0  0  0  0  0
  189.4700  177.2990  142.4910 N   0  0  0  0  0  2  0  0  0  0  0  0
  189.4650  178.2440  141.3870 C   0  0  0  0  0  2  0  0  0  0  0  0
  189.7540  177.5100  140.0960 C   0  0  0  0  0  2  0  0  0  0  0  0
  191.1880  177.0280  140.1020 C   0  0  0  0  0  2  0  0  0  0  0  0
  191.5720  176.5800  138.7060 C   0  0  0  0  0  2  0  0  0  0  0  0
  193.6360  177.2880  139.6550 O   0  0  0  0  0  1  0  0  0  0  0  0
  193.0610  176.7930  138.4820 C   0  0  1  0  0  3  0  0  0  0  0  0
  195.6200  174.2480  138.2620 C   0  0  0  0  0  2  0  0  0  0  0  0
  194.8330  175.2150  138.9260 O   0  0  0  0  0  0  0  0  0  0  0  0
  193.7270  175.4750  138.0930 C   0  0  2  0  0  3  0  0  0  0  0  0
  195.8520  174.6650  136.8160 C   0  0  1  0  0  0  0  0  0  0  0  0
  194.3420  175.5240  136.3960 P   0  0  1  0  0  0  0  0  0  0  0  0
  193.3420  174.6630  135.3370 O   0  0  0  0  0  0  0  0  0  0  0  0
  194.6000  176.9300  135.9020 O   0  0  0  0  0  1  0  0  0  0  0  0
  196.9390  175.5370  136.7370 O   0  0  0  0  0  1  0  0  0  0  0  0
  196.0620  173.4590  135.9080 C   0  0  0  0  0  2  0  0  0  0  0  0
  195.8990  172.2180  136.6500 N   0  0  0  0  0  2  0  0  0  0  0  0
  196.9950  171.3520  136.2550 C   0  0  0  0  0  1  0  0  0  0  0  0
  1 14  1  0  0  0  0
  2  6  1  0  0  0  0
  3 15  1  0  0  0  0
  4  2  2  0  0  0  0
  5 13  1  0  0  0  0
  5 18  1  0  0  0  0
  6 17  1  0  0  0  0
  8 16  2  0  0  0  0
  9 12  1  6  0  0  0
  9  3  1  0  0  0  0
  9  4  1  0  0  0  0
 11 10  1  0  0  0  0
 11  7  1  0  0  0  0
 13 11  2  0  0  0  0
 14 12  2  0  0  0  0
 14  8  1  0  0  0  0
 15 13  1  0  0  0  0
 15  6  2  0  0  0  0
 16  4  1  0  0  0  0
 17  7  2  0  0  0  0
 18 10  2  0  0  0  0
 19 20  1  0  0  0  0
 21  8  1  1  0  0  0
 21 20  1  0  0  0  0
 22 21  1  0  0  0  0
 23 19  2  0  0  0  0
 24 22  1  0  0  0  0
 24 23  1  0  0  0  0
 25  3  1  0  0  0  0
 26 25  1  0  0  0  0
 27 28  1  0  0  0  0
 27 26  1  0  0  0  0
 29 28  1  0  0  0  0
 31 29  1  0  0  0  0
 31 30  1  1  0  0  0
 32 33  1  0  0  0  0
 34 31  1  1  0  0  0
 34 33  1  0  0  0  0
 35 39  1  6  0  0  0
 35 32  1  0  0  0  0
 36 37  2  6  0  0  0
 36 35  1  0  0  0  0
 36 34  1  0  0  0  0
 38 36  1  0  0  0  0
 40 41  1  0  0  0  0
 40 35  1  0  0  0  0
 42 41  1  0  0  0  0
M  END
>  <MODEL>
7

>  <REMARK>
 VINA RESULT:      -7.4      3.458      4.974
  Name = 
  10 active torsions:
  status: ('A' for Active; 'I' for Inactive)
    1  A    between atoms: C_5  and  C_36
    2  A    between atoms: N_6  and  N_21
    3  A    between atoms: C_7  and  C_25
    4  A    between atoms: N_8  and  C_25
    5  A    between atoms: C_13  and  C_20
    6  A    between atoms: C_15  and  C_17
    7  A    between atoms: C_15  and  C_41
    8  A    between atoms: C_17  and  C_22
    9  A    between atoms: N_21  and  C_22
   10  A    between atoms: C_36  and  C_41
                            x       y       z     vdW  Elec       q    Type
                         _______ _______ _______ _____ _____    ______ ____

>  <TORSDO>
F 10

$$$$
=
 OpenBabel10232410573D

 42 47  0  0  1  0  0  0  0  0999 V2000
  186.4920  177.7150  143.6160 N   0  0  0  0  0  1  0  0  0  0  0  0
  191.8510  177.3030  141.7460 C   0  0  0  0  0  3  0  0  0  0  0  0
  189.6820  177.0500  139.9430 N   0  0  0  0  0  0  0  0  0  0  0  0
  190.4760  177.4590  142.2320 C   0  0  0  0  0  0  0  0  0  0  0  0
  190.4920  176.7070  136.6790 S   0  0  0  0  0  0  0  0  0  0  0  0
  192.1070  177.2240  140.4400 C   0  0  0  0  0  0  0  0  0  0  0  0
  193.7310  176.5690  138.7660 N   0  0  0  0  0  0  0  0  0  0  0  0
  188.9210  177.7830  144.0660 C   0  0  0  0  0  0  0  0  0  0  0  0
  189.4060  177.3010  141.3360 C   0  0  0  0  0  0  0  0  0  0  0  0
  192.8940  176.0810  136.4670 C   0  0  0  0  0  3  0  0  0  0  0  0
  192.6820  176.4590  137.7970 C   0  0  0  0  0  0  0  0  0  0  0  0
  188.0910  177.3870  141.8140 C   0  0  0  0  0  3  0  0  0  0  0  0
  191.3750  176.7980  138.1040 C   0  0  0  0  0  0  0  0  0  0  0  0
  187.8420  177.6300  143.1670 C   0  0  0  0  0  0  0  0  0  0  0  0
  191.0010  177.4480  139.4130 C   0  0  1  0  0  3  0  0  0  0  0  0
  190.2320  177.6890  143.5860 C   0  0  0  0  0  3  0  0  0  0  0  0
  193.4830  176.9190  139.9940 C   0  0  0  0  0  3  0  0  0  0  0  0
  191.7400  176.1530  135.6860 C   0  0  0  0  0  3  0  0  0  0  0  0
  189.4880  177.3520  147.8360 C   0  0  0  0  0  3  0  0  0  0  0  0
  189.8240  177.3730  146.3650 C   0  0  0  0  0  2  0  0  0  0  0  0
  188.7300  178.0390  145.5330 C   0  0  2  0  0  3  0  0  0  0  0  0
  187.3540  177.5950  146.0100 C   0  0  0  0  0  2  0  0  0  0  0  0
  188.3030  177.6030  148.2880 N   0  0  0  0  0  0  0  0  0  0  0  0
  187.1920  178.0350  147.4600 C   0  0  0  0  0  2  0  0  0  0  0  0
  188.6140  176.7990  139.0640 N   0  0  0  0  0  2  0  0  0  0  0  0
  187.9390  178.0650  138.8250 C   0  0  0  0  0  2  0  0  0  0  0  0
  187.3020  178.0420  137.4530 C   0  0  0  0  0  2  0  0  0  0  0  0
  186.1890  177.0170  137.4320 C   0  0  0  0  0  2  0  0  0  0  0  0
  185.2680  177.3000  136.2630 C   0  0  0  0  0  2  0  0  0  0  0  0
  183.2850  175.9860  136.3240 O   0  0  0  0  0  1  0  0  0  0  0  0
  183.8180  177.2180  136.7110 C   0  0  1  0  0  3  0  0  0  0  0  0
  182.5780  176.7470  140.0750 C   0  0  0  0  0  2  0  0  0  0  0  0
  182.9660  176.3230  138.7850 O   0  0  0  0  0  0  0  0  0  0  0  0
  183.7260  177.3700  138.2280 C   0  0  2  0  0  3  0  0  0  0  0  0
  181.9900  178.1500  140.0110 C   0  0  1  0  0  0  0  0  0  0  0  0
  182.9150  178.9170  138.6880 P   0  0  1  0  0  0  0  0  0  0  0  0
  184.0260  180.0780  139.2190 O   0  0  0  0  0  1  0  0  0  0  0  0
  182.0180  179.4590  137.5980 O   0  0  0  0  0  0  0  0  0  0  0  0
  180.6360  178.0870  139.6750 O   0  0  0  0  0  1  0  0  0  0  0  0
  182.1850  178.9050  141.3190 C   0  0  0  0  0  2  0  0  0  0  0  0
  183.3580  178.4160  142.0290 N   0  0  0  0  0  2  0  0  0  0  0  0
  183.1890  178.7960  143.4190 C   0  0  0  0  0  1  0  0  0  0  0  0
  2  4  1  0  0  0  0
  3  9  1  0  0  0  0
  4 16  1  0  0  0  0
  5 13  1  0  0  0  0
  6  2  2  0  0  0  0
  7 17  2  0  0  0  0
  9 12  1  0  0  0  0
  9  4  2  0  0  0  0
 10 11  1  0  0  0  0
 11 13  2  0  0  0  0
 11  7  1  0  0  0  0
 12 14  2  0  0  0  0
 14  1  1  0  0  0  0
 14  8  1  0  0  0  0
 15 13  1  6  0  0  0
 15  3  1  0  0  0  0
 15  6  1  0  0  0  0
 16  8  2  0  0  0  0
 17  6  1  0  0  0  0
 18 10  2  0  0  0  0
 18  5  1  0  0  0  0
 19 23  2  0  0  0  0
 20 19  1  0  0  0  0
 21  8  1  6  0  0  0
 21 22  1  0  0  0  0
 21 20  1  0  0  0  0
 22 24  1  0  0  0  0
 24 23  1  0  0  0  0
 25  3  1  0  0  0  0
 26 25  1  0  0  0  0
 27 26  1  0  0  0  0
 28 27  1  0  0  0  0
 29 31  1  0  0  0  0
 29 28  1  0  0  0  0
 31 30  1  1  0  0  0
 33 32  1  0  0  0  0
 34 31  1  6  0  0  0
 34 36  1  0  0  0  0
 34 33  1  0  0  0  0
 35 39  1  6  0  0  0
 35 32  1  0  0  0  0
 35 40  1  0  0  0  0
 36 38  2  6  0  0  0
 36 37  1  0  0  0  0
 36 35  1  0  0  0  0
 40 41  1  0  0  0  0
 41 42  1  0  0  0  0
M  END
>  <MODEL>
8

>  <REMARK>
 VINA RESULT:      -7.4      3.103      7.014
  Name = 
  10 active torsions:
  status: ('A' for Active; 'I' for Inactive)
    1  A    between atoms: C_5  and  C_36
    2  A    between atoms: N_6  and  N_21
    3  A    between atoms: C_7  and  C_25
    4  A    between atoms: N_8  and  C_25
    5  A    between atoms: C_13  and  C_20
    6  A    between atoms: C_15  and  C_17
    7  A    between atoms: C_15  and  C_41
    8  A    between atoms: C_17  and  C_22
    9  A    between atoms: N_21  and  C_22
   10  A    between atoms: C_36  and  C_41
                            x       y       z     vdW  Elec       q    Type
                         _______ _______ _______ _____ _____    ______ ____

>  <TORSDO>
F 10

$$$$
=
 OpenBabel10232410573D

 42 47  0  0  1  0  0  0  0  0999 V2000
  191.0380  178.0470  142.6140 N   0  0  0  0  0  1  0  0  0  0  0  0
  185.4940  178.1800  143.8940 C   0  0  0  0  0  3  0  0  0  0  0  0
  186.3550  178.5170  141.2160 N   0  0  0  0  0  0  0  0  0  0  0  0
  186.9230  178.0960  143.5700 C   0  0  0  0  0  0  0  0  0  0  0  0
  183.9150  178.7830  138.8920 S   0  0  0  0  0  0  0  0  0  0  0  0
  184.5790  178.2320  142.9250 C   0  0  0  0  0  0  0  0  0  0  0  0
  182.2840  178.7900  142.3850 N   0  0  0  0  0  0  0  0  0  0  0  0
  189.2290  177.8670  144.2870 C   0  0  0  0  0  0  0  0  0  0  0  0
  187.3420  178.2950  142.2440 C   0  0  0  0  0  0  0  0  0  0  0  0
  181.7430  179.2910  140.0020 C   0  0  0  0  0  3  0  0  0  0  0  0
  182.6490  178.9390  141.0080 C   0  0  0  0  0  0  0  0  0  0  0  0
  188.7110  178.2780  141.9460 C   0  0  0  0  0  3  0  0  0  0  0  0
  183.9320  178.6660  140.5660 C   0  0  0  0  0  0  0  0  0  0  0  0
  189.6540  178.0620  142.9550 C   0  0  0  0  0  0  0  0  0  0  0  0
  184.9770  178.0500  141.4640 C   0  0  1  0  0  3  0  0  0  0  0  0
  187.8620  177.8930  144.5820 C   0  0  0  0  0  3  0  0  0  0  0  0
  183.1640  178.4660  143.2870 C   0  0  0  0  0  3  0  0  0  0  0  0
  182.3050  179.2660  138.7260 C   0  0  0  0  0  3  0  0  0  0  0  0
  191.9760  176.0980  146.2980 C   0  0  0  0  0  3  0  0  0  0  0  0
  191.2120  176.5610  145.0830 C   0  0  0  0  0  2  0  0  0  0  0  0
  190.1840  177.6380  145.4220 C   0  0  2  0  0  3  0  0  0  0  0  0
  189.4560  177.2900  146.7130 C   0  0  0  0  0  2  0  0  0  0  0  0
  191.6050  176.3710  147.5060 N   0  0  0  0  0  0  0  0  0  0  0  0
  190.4840  177.2330  147.8360 C   0  0  0  0  0  2  0  0  0  0  0  0
  186.7770  178.8080  139.9080 N   0  0  0  0  0  2  0  0  0  0  0  0
  187.5830  177.6880  139.4490 C   0  0  0  0  0  2  0  0  0  0  0  0
  188.8310  178.2110  138.7720 C   0  0  0  0  0  2  0  0  0  0  0  0
  188.7160  178.0020  137.2780 C   0  0  0  0  0  2  0  0  0  0  0  0
  189.9160  177.2170  136.7880 C   0  0  0  0  0  2  0  0  0  0  0  0
  189.5140  174.9070  136.3830 O   0  0  0  0  0  1  0  0  0  0  0  0
  189.8960  175.8140  137.3740 C   0  0  1  0  0  3  0  0  0  0  0  0
  193.2860  176.2740  138.5460 C   0  0  0  0  0  2  0  0  0  0  0  0
  191.9080  176.5770  138.4680 O   0  0  0  0  0  0  0  0  0  0  0  0
  191.2790  175.4480  137.9090 C   0  0  2  0  0  3  0  0  0  0  0  0
  193.7770  175.7250  137.2130 C   0  0  1  0  0  0  0  0  0  0  0  0
  192.3540  174.8390  136.5920 P   0  0  1  0  0  0  0  0  0  0  0  0
  192.5240  173.1560  136.6430 O   0  0  0  0  0  1  0  0  0  0  0  0
  191.9350  175.3170  135.2190 O   0  0  0  0  0  0  0  0  0  0  0  0
  194.1030  176.7740  136.3520 O   0  0  0  0  0  1  0  0  0  0  0  0
  194.9640  174.7870  137.3930 C   0  0  0  0  0  2  0  0  0  0  0  0
  195.3440  174.6960  138.7940 N   0  0  0  0  0  2  0  0  0  0  0  0
  196.7430  174.3110  138.8200 C   0  0  0  0  0  1  0  0  0  0  0  0
  1 14  1  0  0  0  0
  3 15  1  0  0  0  0
  3  9  1  0  0  0  0
  4  2  1  0  0  0  0
  4 16  1  0  0  0  0
  5 13  1  0  0  0  0
  6 17  1  0  0  0  0
  6  2  2  0  0  0  0
  7 17  2  0  0  0  0
  8 16  2  0  0  0  0
  9  4  2  0  0  0  0
 10 11  1  0  0  0  0
 11  7  1  0  0  0  0
 12  9  1  0  0  0  0
 12 14  2  0  0  0  0
 13 11  2  0  0  0  0
 14  8  1  0  0  0  0
 15 13  1  6  0  0  0
 15  6  1  0  0  0  0
 18  5  1  0  0  0  0
 18 10  2  0  0  0  0
 19 23  2  0  0  0  0
 20 21  1  0  0  0  0
 20 19  1  0  0  0  0
 21  8  1  6  0  0  0
 21 22  1  0  0  0  0
 22 24  1  0  0  0  0
 23 24  1  0  0  0  0
 25  3  1  0  0  0  0
 26 25  1  0  0  0  0
 27 26  1  0  0  0  0
 28 27  1  0  0  0  0
 29 28  1  0  0  0  0
 29 31  1  0  0  0  0
 31 30  1  6  0  0  0
 33 32  1  0  0  0  0
 34 31  1  6  0  0  0
 34 33  1  0  0  0  0
 35 39  1  6  0  0  0
 35 40  1  0  0  0  0
 35 32  1  0  0  0  0
 36 38  2  6  0  0  0
 36 37  1  0  0  0  0
 36 35  1  0  0  0  0
 36 34  1  0  0  0  0
 40 41  1  0  0  0  0
 41 42  1  0  0  0  0
M  END
>  <MODEL>
9

>  <REMARK>
 VINA RESULT:      -7.2      3.031      7.417
  Name = 
  10 active torsions:
  status: ('A' for Active; 'I' for Inactive)
    1  A    between atoms: C_5  and  C_36
    2  A    between atoms: N_6  and  N_21
    3  A    between atoms: C_7  and  C_25
    4  A    between atoms: N_8  and  C_25
    5  A    between atoms: C_13  and  C_20
    6  A    between atoms: C_15  and  C_17
    7  A    between atoms: C_15  and  C_41
    8  A    between atoms: C_17  and  C_22
    9  A    between atoms: N_21  and  C_22
   10  A    between atoms: C_36  and  C_41
                            x       y       z     vdW  Elec       q    Type
                         _______ _______ _______ _____ _____    ______ ____

>  <TORSDO>
F 10

$$$$
