=
 OpenBabel10232409543D

 34 35  0  0  1  0  0  0  0  0999 V2000
  186.2190  177.6920  135.9110 C   0  0  0  0  0  0  0  0  0  0  0  0
  185.7250  173.7820  137.2850 C   0  0  0  0  0  2  0  0  0  0  0  0
  185.9950  171.9120  135.6760 C   0  0  0  0  0  3  0  0  0  0  0  0
  184.6580  172.1740  135.0610 C   0  0  0  0  0  1  0  0  0  0  0  0
  189.2760  177.4230  135.1130 O   0  0  0  0  0  0  0  0  0  0  0  0
  188.9530  172.5440  136.2380 C   0  0  0  0  0  2  0  0  0  0  0  0
  188.4540  174.6800  135.3250 O   0  0  0  0  0  0  0  0  0  0  0  0
  192.7230  174.4620  137.3700 C   0  0  0  0  0  0  0  0  0  0  0  0
  185.9750  177.5470  134.7230 O   0  0  0  0  0  0  0  0  0  0  0  0
  191.4840  176.4850  137.8560 C   0  0  0  0  0  3  0  0  0  0  0  0
  183.9360  175.6510  135.6930 O   0  0  0  0  0  1  0  0  0  0  0  0
  192.6710  175.7550  137.9030 C   0  0  0  0  0  3  0  0  0  0  0  0
  186.4900  172.6420  136.6850 C   0  0  0  0  0  0  0  0  0  0  0  0
  187.4770  178.3830  136.3310 C   0  0  0  0  0  2  0  0  0  0  0  0
  191.5840  173.9150  136.7800 C   0  0  0  0  0  3  0  0  0  0  0  0
  187.8360  172.3050  137.2500 C   0  0  0  0  0  2  0  0  0  0  0  0
  190.3860  174.6410  136.7080 C   0  0  0  0  0  0  0  0  0  0  0  0
  188.6650  177.4790  136.2140 C   0  0  0  0  0  0  0  0  0  0  0  0
  189.2210  174.0060  136.0610 C   0  0  0  0  0  0  0  0  0  0  0  0
  185.9400  174.9360  136.5270 O   0  0  0  0  0  0  0  0  0  0  0  0
  190.3370  175.9460  137.2600 C   0  0  0  0  0  0  0  0  0  0  0  0
  185.2540  177.2060  136.9540 C   0  0  0  0  0  2  0  0  0  0  0  0
  184.8300  175.7490  136.7610 C   0  0  1  0  0  3  0  0  0  0  0  0
  189.1120  176.6910  137.3340 N   0  0  0  0  0  0  0  0  0  0  0  0
  188.5140  176.9100  138.6490 C   0  0  0  0  0  2  0  0  0  0  0  0
  188.9570  179.2150  139.1670 O   0  0  0  0  0  1  0  0  0  0  0  0
  189.3380  177.9020  139.4590 C   0  0  1  0  0  3  0  0  0  0  0  0
  189.2180  177.6300  140.9580 C   0  0  0  0  0  2  0  0  0  0  0  0
  190.4380  176.9800  141.5250 C   0  0  0  0  0  0  0  0  0  0  0  0
  190.3130  175.8370  142.3630 N   0  0  0  0  0  1  0  0  0  0  0  0
  191.5790  177.4280  141.2420 O   0  0  0  0  0  0  0  0  0  0  0  0
  193.9280  173.6940  137.4140 N   0  0  0  0  0  2  0  0  0  0  0  0
  194.9110  173.8980  138.3940 N   0  0  0  0  0  2  0  0  0  0  0  0
  195.2710  172.6770  138.8570 O   0  0  0  0  0  1  0  0  0  0  0  0
  1 14  1  0  0  0  0
  1 22  1  0  0  0  0
  3 13  2  0  0  0  0
  4  3  1  0  0  0  0
  5 18  2  0  0  0  0
  6 16  1  0  0  0  0
  7 19  2  0  0  0  0
  8 32  1  0  0  0  0
  8 12  1  0  0  0  0
  9  1  2  0  0  0  0
 10 12  2  0  0  0  0
 13 16  1  0  0  0  0
 13  2  1  0  0  0  0
 15  8  2  0  0  0  0
 17 15  1  0  0  0  0
 17 21  2  0  0  0  0
 18 14  1  0  0  0  0
 18 24  1  0  0  0  0
 19  6  1  0  0  0  0
 19 17  1  0  0  0  0
 20 23  1  0  0  0  0
 20  2  1  0  0  0  0
 21 24  1  0  0  0  0
 21 10  1  0  0  0  0
 23 11  1  6  0  0  0
 23 22  1  0  0  0  0
 24 25  1  0  0  0  0
 25 27  1  0  0  0  0
 27 26  1  1  0  0  0
 27 28  1  0  0  0  0
 28 29  1  0  0  0  0
 29 30  1  0  0  0  0
 31 29  2  0  0  0  0
 32 33  1  0  0  0  0
 33 34  1  0  0  0  0
M  END
>  <MODEL>
1

>  <REMARK>
 VINA RESULT:      -6.7      0.000      0.000
  Name = 
  6 active torsions:
  status: ('A' for Active; 'I' for Inactive)
    1  A    between atoms: C_8  and  N_11
    2  A    between atoms: C_9  and  C_23
    3  A    between atoms: C_9  and  N_34
    4  A    between atoms: C_10  and  C_15
    5  A    between atoms: N_11  and  N_21
    6  A    between atoms: C_15  and  C_23
                            x       y       z     vdW  Elec       q    Type
                         _______ _______ _______ _____ _____    ______ ____

>  <TORSDO>
F 6

$$$$
=
 OpenBabel10232409543D

 34 35  0  0  1  0  0  0  0  0999 V2000
  188.5580  177.3200  134.6360 C   0  0  0  0  0  0  0  0  0  0  0  0
  190.5700  175.4070  137.7520 C   0  0  0  0  0  2  0  0  0  0  0  0
  192.2780  176.6800  139.0250 C   0  0  0  0  0  3  0  0  0  0  0  0
  193.2750  176.5590  137.9180 C   0  0  0  0  0  1  0  0  0  0  0  0
  187.1210  179.5170  136.4140 O   0  0  0  0  0  0  0  0  0  0  0  0
  189.7220  177.7820  140.3380 C   0  0  0  0  0  2  0  0  0  0  0  0
  189.1960  178.5750  138.1610 O   0  0  0  0  0  0  0  0  0  0  0  0
  185.6010  178.9690  141.2240 C   0  0  0  0  0  0  0  0  0  0  0  0
  189.3630  178.1900  134.3460 O   0  0  0  0  0  0  0  0  0  0  0  0
  184.9600  178.1800  139.0270 C   0  0  0  0  0  3  0  0  0  0  0  0
  191.3590  176.0910  134.8990 O   0  0  0  0  0  1  0  0  0  0  0  0
  184.6080  178.6510  140.2910 C   0  0  0  0  0  3  0  0  0  0  0  0
  191.0430  176.1630  138.9550 C   0  0  0  0  0  0  0  0  0  0  0  0
  187.1320  177.6860  134.9000 C   0  0  0  0  0  2  0  0  0  0  0  0
  186.9450  178.8260  140.8750 C   0  0  0  0  0  3  0  0  0  0  0  0
  190.1090  176.3220  140.1160 C   0  0  0  0  0  2  0  0  0  0  0  0
  187.3170  178.3710  139.6020 C   0  0  0  0  0  0  0  0  0  0  0  0
  186.9620  178.2750  136.2670 C   0  0  0  0  0  0  0  0  0  0  0  0
  188.7560  178.2520  139.2950 C   0  0  0  0  0  0  0  0  0  0  0  0
  190.0980  176.3070  136.7930 O   0  0  0  0  0  0  0  0  0  0  0  0
  186.3060  178.0390  138.6660 C   0  0  0  0  0  0  0  0  0  0  0  0
  188.9790  175.8790  134.7020 C   0  0  0  0  0  2  0  0  0  0  0  0
  190.2170  175.6460  135.5690 C   0  0  1  0  0  3  0  0  0  0  0  0
  186.6160  177.4480  137.3940 N   0  0  0  0  0  0  0  0  0  0  0  0
  186.2490  176.0510  137.1740 C   0  0  0  0  0  2  0  0  0  0  0  0
  184.7190  175.3780  135.4470 O   0  0  0  0  0  1  0  0  0  0  0  0
  184.7990  175.9370  136.7250 C   0  0  1  0  0  3  0  0  0  0  0  0
  183.9730  175.1210  137.7200 C   0  0  0  0  0  2  0  0  0  0  0  0
  183.9150  173.6700  137.3660 C   0  0  0  0  0  0  0  0  0  0  0  0
  184.9820  172.8040  137.7320 N   0  0  0  0  0  1  0  0  0  0  0  0
  182.9100  173.2080  136.7670 O   0  0  0  0  0  0  0  0  0  0  0  0
  185.2630  179.4470  142.5280 N   0  0  0  0  0  2  0  0  0  0  0  0
  184.2570  178.8520  143.3050 N   0  0  0  0  0  2  0  0  0  0  0  0
  183.8010  179.7990  144.1590 O   0  0  0  0  0  1  0  0  0  0  0  0
  1 22  1  0  0  0  0
  1 14  1  0  0  0  0
  2 13  1  0  0  0  0
  4  3  1  0  0  0  0
  7 19  2  0  0  0  0
  8 32  1  0  0  0  0
  9  1  2  0  0  0  0
 10 12  1  0  0  0  0
 12  8  2  0  0  0  0
 13  3  2  0  0  0  0
 13 16  1  0  0  0  0
 14 18  1  0  0  0  0
 15  8  1  0  0  0  0
 16  6  1  0  0  0  0
 17 15  2  0  0  0  0
 18  5  2  0  0  0  0
 18 24  1  0  0  0  0
 19 17  1  0  0  0  0
 19  6  1  0  0  0  0
 20  2  1  0  0  0  0
 21 10  2  0  0  0  0
 21 17  1  0  0  0  0
 22 23  1  0  0  0  0
 23 11  1  6  0  0  0
 23 20  1  0  0  0  0
 24 21  1  0  0  0  0
 25 24  1  0  0  0  0
 27 26  1  6  0  0  0
 27 25  1  0  0  0  0
 27 28  1  0  0  0  0
 29 28  1  0  0  0  0
 29 30  1  0  0  0  0
 31 29  2  0  0  0  0
 32 33  1  0  0  0  0
 33 34  1  0  0  0  0
M  END
>  <MODEL>
2

>  <REMARK>
 VINA RESULT:      -5.8      3.266      7.164
  Name = 
  6 active torsions:
  status: ('A' for Active; 'I' for Inactive)
    1  A    between atoms: C_8  and  N_11
    2  A    between atoms: C_9  and  C_23
    3  A    between atoms: C_9  and  N_34
    4  A    between atoms: C_10  and  C_15
    5  A    between atoms: N_11  and  N_21
    6  A    between atoms: C_15  and  C_23
                            x       y       z     vdW  Elec       q    Type
                         _______ _______ _______ _____ _____    ______ ____

>  <TORSDO>
F 6

$$$$
=
 OpenBabel10232409543D

 34 35  0  0  1  0  0  0  0  0999 V2000
  181.5090  179.3670  138.4070 C   0  0  0  0  0  0  0  0  0  0  0  0
  182.5850  175.4790  137.3360 C   0  0  0  0  0  2  0  0  0  0  0  0
  183.7470  175.1190  135.1730 C   0  0  0  0  0  3  0  0  0  0  0  0
  182.4800  175.2930  134.3990 C   0  0  0  0  0  1  0  0  0  0  0  0
  184.4530  180.5310  138.5880 O   0  0  0  0  0  0  0  0  0  0  0  0
  186.1100  176.1180  136.8710 C   0  0  0  0  0  2  0  0  0  0  0  0
  184.8410  178.1150  137.0870 O   0  0  0  0  0  0  0  0  0  0  0  0
  188.6210  177.9730  139.9420 C   0  0  0  0  0  0  0  0  0  0  0  0
  181.4490  179.8960  137.3090 O   0  0  0  0  0  0  0  0  0  0  0  0
  186.6130  178.8360  140.9840 C   0  0  0  0  0  3  0  0  0  0  0  0
  180.3190  177.3060  136.4690 O   0  0  0  0  0  1  0  0  0  0  0  0
  187.9880  178.6070  141.0170 C   0  0  0  0  0  3  0  0  0  0  0  0
  183.8040  175.2070  136.5090 C   0  0  0  0  0  0  0  0  0  0  0  0
  182.3220  179.9990  139.4930 C   0  0  0  0  0  2  0  0  0  0  0  0
  187.8690  177.5840  138.8330 C   0  0  0  0  0  3  0  0  0  0  0  0
  185.1150  175.0100  137.2070 C   0  0  0  0  0  2  0  0  0  0  0  0
  186.4880  177.8220  138.7750 C   0  0  0  0  0  0  0  0  0  0  0  0
  183.7850  179.7390  139.3040 C   0  0  0  0  0  0  0  0  0  0  0  0
  185.7550  177.3940  137.5670 C   0  0  0  0  0  0  0  0  0  0  0  0
  182.3600  176.8570  137.3920 O   0  0  0  0  0  0  0  0  0  0  0  0
  185.8510  178.4540  139.8720 C   0  0  0  0  0  0  0  0  0  0  0  0
  180.7530  178.1000  138.6880 C   0  0  0  0  0  2  0  0  0  0  0  0
  180.9960  177.0030  137.6510 C   0  0  1  0  0  3  0  0  0  0  0  0
  184.4250  178.6110  139.9320 N   0  0  0  0  0  0  0  0  0  0  0  0
  183.6830  177.8160  140.9080 C   0  0  0  0  0  2  0  0  0  0  0  0
  181.9930  178.5820  142.4360 O   0  0  0  0  0  1  0  0  0  0  0  0
  183.3590  178.6430  142.1450 C   0  0  1  0  0  3  0  0  0  0  0  0
  184.1840  178.1870  143.3480 C   0  0  0  0  0  2  0  0  0  0  0  0
  184.2910  179.2390  144.4040 C   0  0  0  0  0  0  0  0  0  0  0  0
  184.0010  178.9190  145.7600 N   0  0  0  0  0  1  0  0  0  0  0  0
  184.6610  180.4020  144.1000 O   0  0  0  0  0  0  0  0  0  0  0  0
  190.0280  177.7230  139.9580 N   0  0  0  0  0  2  0  0  0  0  0  0
  190.7680  177.6820  141.1490 N   0  0  0  0  0  2  0  0  0  0  0  0
  192.0380  177.3480  140.8180 O   0  0  0  0  0  1  0  0  0  0  0  0
  1 22  1  0  0  0  0
  1 14  1  0  0  0  0
  2 20  1  0  0  0  0
  3 13  2  0  0  0  0
  4  3  1  0  0  0  0
  5 18  2  0  0  0  0
  6 16  1  0  0  0  0
  6 19  1  0  0  0  0
  7 19  2  0  0  0  0
  8 32  1  0  0  0  0
  8 12  1  0  0  0  0
  9  1  2  0  0  0  0
 10 12  2  0  0  0  0
 13 16  1  0  0  0  0
 13  2  1  0  0  0  0
 15  8  2  0  0  0  0
 17 15  1  0  0  0  0
 17 21  2  0  0  0  0
 18 14  1  0  0  0  0
 18 24  1  0  0  0  0
 19 17  1  0  0  0  0
 20 23  1  0  0  0  0
 21 24  1  0  0  0  0
 21 10  1  0  0  0  0
 23 11  1  6  0  0  0
 23 22  1  0  0  0  0
 24 25  1  0  0  0  0
 25 27  1  0  0  0  0
 27 26  1  1  0  0  0
 27 28  1  0  0  0  0
 28 29  1  0  0  0  0
 29 30  1  0  0  0  0
 31 29  2  0  0  0  0
 32 33  1  0  0  0  0
 34 33  1  0  0  0  0
M  END
>  <MODEL>
3

>  <REMARK>
 VINA RESULT:      -5.5      4.068      5.696
  Name = 
  6 active torsions:
  status: ('A' for Active; 'I' for Inactive)
    1  A    between atoms: C_8  and  N_11
    2  A    between atoms: C_9  and  C_23
    3  A    between atoms: C_9  and  N_34
    4  A    between atoms: C_10  and  C_15
    5  A    between atoms: N_11  and  N_21
    6  A    between atoms: C_15  and  C_23
                            x       y       z     vdW  Elec       q    Type
                         _______ _______ _______ _____ _____    ______ ____

>  <TORSDO>
F 6

$$$$
=
 OpenBabel10232409543D

 34 35  0  0  1  0  0  0  0  0999 V2000
  190.0680  175.6550  134.9820 C   0  0  0  0  0  0  0  0  0  0  0  0
  190.8550  175.6020  139.0810 C   0  0  0  0  0  2  0  0  0  0  0  0
  191.7290  177.6640  140.1520 C   0  0  0  0  0  3  0  0  0  0  0  0
  193.0970  177.4410  139.5910 C   0  0  0  0  0  1  0  0  0  0  0  0
  187.7790  177.8470  135.0710 O   0  0  0  0  0  0  0  0  0  0  0  0
  188.7480  178.4020  139.9620 C   0  0  0  0  0  2  0  0  0  0  0  0
  189.0610  178.1970  137.6150 O   0  0  0  0  0  0  0  0  0  0  0  0
  184.5130  178.6330  138.8730 C   0  0  0  0  0  0  0  0  0  0  0  0
  190.8110  176.5540  134.6210 O   0  0  0  0  0  0  0  0  0  0  0  0
  184.9210  176.9750  137.1570 C   0  0  0  0  0  3  0  0  0  0  0  0
  192.6460  175.4270  136.6340 O   0  0  0  0  0  1  0  0  0  0  0  0
  184.0310  177.7430  137.9070 C   0  0  0  0  0  3  0  0  0  0  0  0
  190.7030  176.8340  139.9200 C   0  0  0  0  0  0  0  0  0  0  0  0
  188.6250  175.6800  134.5900 C   0  0  0  0  0  2  0  0  0  0  0  0
  185.8890  178.7540  139.0730 C   0  0  0  0  0  3  0  0  0  0  0  0
  189.3650  177.1260  140.5300 C   0  0  0  0  0  2  0  0  0  0  0  0
  186.7980  178.0020  138.3150 C   0  0  0  0  0  0  0  0  0  0  0  0
  187.8440  176.6420  135.4320 C   0  0  0  0  0  0  0  0  0  0  0  0
  188.2410  178.1860  138.5700 C   0  0  0  0  0  0  0  0  0  0  0  0
  190.7080  175.9380  137.7330 O   0  0  0  0  0  0  0  0  0  0  0  0
  186.3040  177.0940  137.3460 C   0  0  0  0  0  0  0  0  0  0  0  0
  190.5970  174.5080  135.7960 C   0  0  0  0  0  2  0  0  0  0  0  0
  191.3930  174.9490  137.0250 C   0  0  1  0  0  3  0  0  0  0  0  0
  187.1730  176.2040  136.6280 N   0  0  0  0  0  0  0  0  0  0  0  0
  187.0990  174.7760  136.9290 C   0  0  0  0  0  2  0  0  0  0  0  0
  185.9820  173.5430  135.1940 O   0  0  0  0  0  1  0  0  0  0  0  0
  185.7910  174.1840  136.4210 C   0  0  1  0  0  3  0  0  0  0  0  0
  185.1860  173.2200  137.4420 C   0  0  0  0  0  2  0  0  0  0  0  0
  183.8660  172.6730  137.0060 C   0  0  0  0  0  0  0  0  0  0  0  0
  183.7370  171.2930  136.6830 N   0  0  0  0  0  1  0  0  0  0  0  0
  182.8600  173.4270  136.9470 O   0  0  0  0  0  0  0  0  0  0  0  0
  183.6190  179.4250  139.6580 N   0  0  0  0  0  2  0  0  0  0  0  0
  182.6420  178.8520  140.4870 N   0  0  0  0  0  2  0  0  0  0  0  0
  183.1670  178.7890  141.7340 O   0  0  0  0  0  1  0  0  0  0  0  0
  1 22  1  0  0  0  0
  2 13  1  0  0  0  0
  4  3  1  0  0  0  0
  5 18  2  0  0  0  0
  6 16  1  0  0  0  0
  7 19  2  0  0  0  0
  8 15  1  0  0  0  0
  8 32  1  0  0  0  0
  9  1  2  0  0  0  0
 10 21  2  0  0  0  0
 10 12  1  0  0  0  0
 12  8  2  0  0  0  0
 13  3  2  0  0  0  0
 13 16  1  0  0  0  0
 14  1  1  0  0  0  0
 14 18  1  0  0  0  0
 17 19  1  0  0  0  0
 17 15  2  0  0  0  0
 18 24  1  0  0  0  0
 19  6  1  0  0  0  0
 20  2  1  0  0  0  0
 21 17  1  0  0  0  0
 22 23  1  0  0  0  0
 23 11  1  6  0  0  0
 23 20  1  0  0  0  0
 24 25  1  0  0  0  0
 24 21  1  0  0  0  0
 27 26  1  6  0  0  0
 27 25  1  0  0  0  0
 27 28  1  0  0  0  0
 29 28  1  0  0  0  0
 30 29  1  0  0  0  0
 31 29  2  0  0  0  0
 32 33  1  0  0  0  0
 33 34  1  0  0  0  0
M  END
>  <MODEL>
4

>  <REMARK>
 VINA RESULT:      -5.2      3.044      7.532
  Name = 
  6 active torsions:
  status: ('A' for Active; 'I' for Inactive)
    1  A    between atoms: C_8  and  N_11
    2  A    between atoms: C_9  and  C_23
    3  A    between atoms: C_9  and  N_34
    4  A    between atoms: C_10  and  C_15
    5  A    between atoms: N_11  and  N_21
    6  A    between atoms: C_15  and  C_23
                            x       y       z     vdW  Elec       q    Type
                         _______ _______ _______ _____ _____    ______ ____

>  <TORSDO>
F 6

$$$$
=
 OpenBabel10232409543D

 34 35  0  0  1  0  0  0  0  0999 V2000
  189.3780  177.5970  137.2990 C   0  0  0  0  0  0  0  0  0  0  0  0
  189.0330  176.4570  141.3000 C   0  0  0  0  0  2  0  0  0  0  0  0
  189.2090  178.2020  143.0550 C   0  0  0  0  0  3  0  0  0  0  0  0
  190.6940  178.2840  142.9030 C   0  0  0  0  0  1  0  0  0  0  0  0
  186.7990  179.4390  137.2140 O   0  0  0  0  0  0  0  0  0  0  0  0
  186.3070  178.6690  142.1470 C   0  0  0  0  0  2  0  0  0  0  0  0
  187.2690  179.1730  140.0330 O   0  0  0  0  0  0  0  0  0  0  0  0
  182.5470  178.7860  139.9050 C   0  0  0  0  0  0  0  0  0  0  0  0
  190.0190  178.6300  137.4130 O   0  0  0  0  0  0  0  0  0  0  0  0
  183.6870  177.7340  138.0460 C   0  0  0  0  0  3  0  0  0  0  0  0
  191.4170  177.1610  139.5540 O   0  0  0  0  0  1  0  0  0  0  0  0
  182.5080  178.1660  138.6510 C   0  0  0  0  0  3  0  0  0  0  0  0
  188.4460  177.3770  142.3250 C   0  0  0  0  0  0  0  0  0  0  0  0
  188.1130  177.5920  136.5020 C   0  0  0  0  0  2  0  0  0  0  0  0
  183.7750  178.9790  140.5390 C   0  0  0  0  0  3  0  0  0  0  0  0
  186.9640  177.3520  142.5480 C   0  0  0  0  0  2  0  0  0  0  0  0
  184.9730  178.5660  139.9370 C   0  0  0  0  0  0  0  0  0  0  0  0
  186.9770  178.1930  137.2730 C   0  0  0  0  0  0  0  0  0  0  0  0
  186.2380  178.8110  140.6590 C   0  0  0  0  0  0  0  0  0  0  0  0
  189.1970  177.1460  140.0960 O   0  0  0  0  0  0  0  0  0  0  0  0
  184.9250  177.9290  138.6720 C   0  0  0  0  0  0  0  0  0  0  0  0
  189.8640  176.3240  137.9310 C   0  0  0  0  0  2  0  0  0  0  0  0
  190.2100  176.4720  139.4130 C   0  0  1  0  0  3  0  0  0  0  0  0
  186.0980  177.3690  138.0620 N   0  0  0  0  0  0  0  0  0  0  0  0
  186.2000  175.9150  137.9680 C   0  0  0  0  0  2  0  0  0  0  0  0
  185.8790  174.9800  135.7770 O   0  0  0  0  0  1  0  0  0  0  0  0
  185.2150  175.3680  136.9430 C   0  0  1  0  0  3  0  0  0  0  0  0
  184.4100  174.2020  137.5150 C   0  0  0  0  0  2  0  0  0  0  0  0
  185.1090  172.8900  137.3650 C   0  0  0  0  0  0  0  0  0  0  0  0
  184.6040  171.9120  136.4640 N   0  0  0  0  0  1  0  0  0  0  0  0
  186.1600  172.6590  138.0160 O   0  0  0  0  0  0  0  0  0  0  0  0
  181.3490  179.2310  140.5460 N   0  0  0  0  0  2  0  0  0  0  0  0
  181.0570  178.9210  141.8830 N   0  0  0  0  0  2  0  0  0  0  0  0
  180.7860  180.0890  142.5120 O   0  0  0  0  0  1  0  0  0  0  0  0
  1  9  2  0  0  0  0
  1 22  1  0  0  0  0
  2 13  1  0  0  0  0
  4  3  1  0  0  0  0
  5 18  2  0  0  0  0
  6 16  1  0  0  0  0
  7 19  2  0  0  0  0
  8 15  1  0  0  0  0
  8 32  1  0  0  0  0
 10 12  1  0  0  0  0
 10 21  2  0  0  0  0
 12  8  2  0  0  0  0
 13 16  1  0  0  0  0
 13  3  2  0  0  0  0
 14 18  1  0  0  0  0
 14  1  1  0  0  0  0
 17 15  2  0  0  0  0
 17 19  1  0  0  0  0
 18 24  1  0  0  0  0
 19  6  1  0  0  0  0
 20  2  1  0  0  0  0
 21 17  1  0  0  0  0
 22 23  1  0  0  0  0
 23 11  1  6  0  0  0
 23 20  1  0  0  0  0
 24 21  1  0  0  0  0
 25 24  1  0  0  0  0
 27 26  1  6  0  0  0
 27 28  1  0  0  0  0
 27 25  1  0  0  0  0
 29 28  1  0  0  0  0
 29 31  2  0  0  0  0
 30 29  1  0  0  0  0
 32 33  1  0  0  0  0
 33 34  1  0  0  0  0
M  END
>  <MODEL>
5

>  <REMARK>
 VINA RESULT:      -4.5      3.647      8.257
  Name = 
  6 active torsions:
  status: ('A' for Active; 'I' for Inactive)
    1  A    between atoms: C_8  and  N_11
    2  A    between atoms: C_9  and  C_23
    3  A    between atoms: C_9  and  N_34
    4  A    between atoms: C_10  and  C_15
    5  A    between atoms: N_11  and  N_21
    6  A    between atoms: C_15  and  C_23
                            x       y       z     vdW  Elec       q    Type
                         _______ _______ _______ _____ _____    ______ ____

>  <TORSDO>
F 6

$$$$
=
 OpenBabel10232409543D

 34 35  0  0  1  0  0  0  0  0999 V2000
  182.2220  179.2560  138.9940 C   0  0  0  0  0  0  0  0  0  0  0  0
  182.4930  175.1070  138.6200 C   0  0  0  0  0  2  0  0  0  0  0  0
  182.6810  174.1270  136.3480 C   0  0  0  0  0  3  0  0  0  0  0  0
  181.2290  174.3490  136.0710 C   0  0  0  0  0  1  0  0  0  0  0  0
  185.0790  179.9250  137.7930 O   0  0  0  0  0  0  0  0  0  0  0  0
  185.5890  175.0420  136.7610 C   0  0  0  0  0  2  0  0  0  0  0  0
  184.6620  177.2240  136.9130 O   0  0  0  0  0  0  0  0  0  0  0  0
  189.2370  177.0380  138.1340 C   0  0  0  0  0  0  0  0  0  0  0  0
  181.7750  179.5530  137.8980 O   0  0  0  0  0  0  0  0  0  0  0  0
  187.8720  178.4150  139.5830 C   0  0  0  0  0  3  0  0  0  0  0  0
  180.2130  177.0720  138.2070 O   0  0  0  0  0  1  0  0  0  0  0  0
  189.1270  177.9720  139.1700 C   0  0  0  0  0  3  0  0  0  0  0  0
  183.2650  174.4740  137.5030 C   0  0  0  0  0  0  0  0  0  0  0  0
  183.4410  179.9500  139.5130 C   0  0  0  0  0  2  0  0  0  0  0  0
  188.0830  176.5620  137.5110 C   0  0  0  0  0  3  0  0  0  0  0  0
  184.7260  174.2060  137.7020 C   0  0  0  0  0  2  0  0  0  0  0  0
  186.8130  177.0100  137.9010 C   0  0  0  0  0  0  0  0  0  0  0  0
  184.6880  179.4170  138.8780 C   0  0  0  0  0  0  0  0  0  0  0  0
  185.6340  176.4740  137.1930 C   0  0  0  0  0  0  0  0  0  0  0  0
  182.4130  176.4860  138.4060 O   0  0  0  0  0  0  0  0  0  0  0  0
  186.7080  177.9490  138.9590 C   0  0  0  0  0  0  0  0  0  0  0  0
  181.5430  178.2160  139.8400 C   0  0  0  0  0  2  0  0  0  0  0  0
  181.2760  176.9060  139.0980 C   0  0  1  0  0  3  0  0  0  0  0  0
  185.4360  178.3500  139.4910 N   0  0  0  0  0  0  0  0  0  0  0  0
  185.0790  177.9040  140.8370 C   0  0  0  0  0  2  0  0  0  0  0  0
  185.2290  179.7740  142.3390 O   0  0  0  0  0  1  0  0  0  0  0  0
  185.9040  178.6380  141.8860 C   0  0  1  0  0  3  0  0  0  0  0  0
  186.2550  177.7190  143.0560 C   0  0  0  0  0  2  0  0  0  0  0  0
  187.6920  177.3090  143.0560 C   0  0  0  0  0  0  0  0  0  0  0  0
  188.0400  175.9350  143.1780 N   0  0  0  0  0  1  0  0  0  0  0  0
  188.5940  178.1750  142.9220 O   0  0  0  0  0  0  0  0  0  0  0  0
  190.5140  176.5640  137.6990 N   0  0  0  0  0  2  0  0  0  0  0  0
  191.1840  175.5160  138.3480 N   0  0  0  0  0  2  0  0  0  0  0  0
  190.6330  174.3590  137.9060 O   0  0  0  0  0  1  0  0  0  0  0  0
  1 14  1  0  0  0  0
  1 22  1  0  0  0  0
  3 13  2  0  0  0  0
  4  3  1  0  0  0  0
  5 18  2  0  0  0  0
  6 19  1  0  0  0  0
  6 16  1  0  0  0  0
  7 19  2  0  0  0  0
  8 12  1  0  0  0  0
  9  1  2  0  0  0  0
 12 10  2  0  0  0  0
 13 16  1  0  0  0  0
 13  2  1  0  0  0  0
 15 17  1  0  0  0  0
 15  8  2  0  0  0  0
 17 21  2  0  0  0  0
 18 24  1  0  0  0  0
 18 14  1  0  0  0  0
 19 17  1  0  0  0  0
 20  2  1  0  0  0  0
 20 23  1  0  0  0  0
 21 24  1  0  0  0  0
 21 10  1  0  0  0  0
 23 11  1  6  0  0  0
 23 22  1  0  0  0  0
 24 25  1  0  0  0  0
 25 27  1  0  0  0  0
 27 26  1  1  0  0  0
 27 28  1  0  0  0  0
 28 29  1  0  0  0  0
 29 30  1  0  0  0  0
 31 29  2  0  0  0  0
 32  8  1  0  0  0  0
 32 33  1  0  0  0  0
 34 33  1  0  0  0  0
M  END
>  <MODEL>
6

>  <REMARK>
 VINA RESULT:      -4.4      3.204      4.434
  Name = 
  6 active torsions:
  status: ('A' for Active; 'I' for Inactive)
    1  A    between atoms: C_8  and  N_11
    2  A    between atoms: C_9  and  C_23
    3  A    between atoms: C_9  and  N_34
    4  A    between atoms: C_10  and  C_15
    5  A    between atoms: N_11  and  N_21
    6  A    between atoms: C_15  and  C_23
                            x       y       z     vdW  Elec       q    Type
                         _______ _______ _______ _____ _____    ______ ____

>  <TORSDO>
F 6

$$$$
=
 OpenBabel10232409543D

 34 35  0  0  1  0  0  0  0  0999 V2000
  191.0720  177.4670  139.8720 C   0  0  0  0  0  0  0  0  0  0  0  0
  188.7160  176.1620  143.0610 C   0  0  0  0  0  2  0  0  0  0  0  0
  188.0850  177.7950  144.8200 C   0  0  0  0  0  3  0  0  0  0  0  0
  189.4490  177.7500  145.4290 C   0  0  0  0  0  1  0  0  0  0  0  0
  188.9820  179.5350  138.6860 O   0  0  0  0  0  0  0  0  0  0  0  0
  186.0520  178.5670  142.6420 C   0  0  0  0  0  2  0  0  0  0  0  0
  187.9660  179.0870  141.3340 O   0  0  0  0  0  0  0  0  0  0  0  0
  183.9270  179.1340  138.8560 C   0  0  0  0  0  0  0  0  0  0  0  0
  191.6250  178.4310  140.3780 O   0  0  0  0  0  0  0  0  0  0  0  0
  185.7850  178.0780  137.7180 C   0  0  0  0  0  3  0  0  0  0  0  0
  191.6860  176.7360  142.7900 O   0  0  0  0  0  1  0  0  0  0  0  0
  184.4860  178.5840  137.6970 C   0  0  0  0  0  3  0  0  0  0  0  0
  187.7450  177.0800  143.7390 C   0  0  0  0  0  0  0  0  0  0  0  0
  190.3750  177.6160  138.5570 C   0  0  0  0  0  2  0  0  0  0  0  0
  184.6820  179.1830  140.0280 C   0  0  0  0  0  3  0  0  0  0  0  0
  186.3510  177.1770  143.1970 C   0  0  0  0  0  2  0  0  0  0  0  0
  185.9970  178.6950  140.0630 C   0  0  0  0  0  0  0  0  0  0  0  0
  189.0410  178.2770  138.7150 C   0  0  0  0  0  0  0  0  0  0  0  0
  186.7430  178.7880  141.3330 C   0  0  0  0  0  0  0  0  0  0  0  0
  189.4950  176.8940  142.1610 O   0  0  0  0  0  0  0  0  0  0  0  0
  186.5530  178.1290  138.8890 C   0  0  0  0  0  0  0  0  0  0  0  0
  191.1090  176.1240  140.5450 C   0  0  0  0  0  2  0  0  0  0  0  0
  190.6770  176.1660  142.0110 C   0  0  1  0  0  3  0  0  0  0  0  0
  187.8430  177.4970  138.8910 N   0  0  0  0  0  0  0  0  0  0  0  0
  187.9000  176.0460  138.7310 C   0  0  0  0  0  2  0  0  0  0  0  0
  188.3900  175.9270  136.3810 O   0  0  0  0  0  1  0  0  0  0  0  0
  187.4220  175.6340  137.3450 C   0  0  1  0  0  3  0  0  0  0  0  0
  187.0550  174.1510  137.3030 C   0  0  0  0  0  2  0  0  0  0  0  0
  185.5790  173.9220  137.3470 C   0  0  0  0  0  0  0  0  0  0  0  0
  184.7080  174.7320  136.5650 N   0  0  0  0  0  1  0  0  0  0  0  0
  185.1060  172.9960  138.0550 O   0  0  0  0  0  0  0  0  0  0  0  0
  182.5950  179.6520  138.8580 N   0  0  0  0  0  2  0  0  0  0  0  0
  181.6830  179.3670  139.8860 N   0  0  0  0  0  2  0  0  0  0  0  0
  181.1450  178.1530  139.6150 O   0  0  0  0  0  1  0  0  0  0  0  0
  1  9  2  0  0  0  0
  1 22  1  0  0  0  0
  2 13  1  0  0  0  0
  3  4  1  0  0  0  0
  5 18  2  0  0  0  0
  6 16  1  0  0  0  0
  8 32  1  0  0  0  0
  8 15  1  0  0  0  0
 10 21  2  0  0  0  0
 12 10  1  0  0  0  0
 12  8  2  0  0  0  0
 13  3  2  0  0  0  0
 14 18  1  0  0  0  0
 14  1  1  0  0  0  0
 15 17  2  0  0  0  0
 16 13  1  0  0  0  0
 17 19  1  0  0  0  0
 18 24  1  0  0  0  0
 19  7  2  0  0  0  0
 19  6  1  0  0  0  0
 20  2  1  0  0  0  0
 21 24  1  0  0  0  0
 21 17  1  0  0  0  0
 22 23  1  0  0  0  0
 23 20  1  0  0  0  0
 23 11  1  1  0  0  0
 25 24  1  0  0  0  0
 27 26  1  6  0  0  0
 27 25  1  0  0  0  0
 28 27  1  0  0  0  0
 28 29  1  0  0  0  0
 29 31  2  0  0  0  0
 30 29  1  0  0  0  0
 32 33  1  0  0  0  0
 34 33  1  0  0  0  0
M  END
>  <MODEL>
7

>  <REMARK>
 VINA RESULT:      -4.3      3.227      8.226
  Name = 
  6 active torsions:
  status: ('A' for Active; 'I' for Inactive)
    1  A    between atoms: C_8  and  N_11
    2  A    between atoms: C_9  and  C_23
    3  A    between atoms: C_9  and  N_34
    4  A    between atoms: C_10  and  C_15
    5  A    between atoms: N_11  and  N_21
    6  A    between atoms: C_15  and  C_23
                            x       y       z     vdW  Elec       q    Type
                         _______ _______ _______ _____ _____    ______ ____

>  <TORSDO>
F 6

$$$$
=
 OpenBabel10232409543D

 34 35  0  0  1  0  0  0  0  0999 V2000
  191.0450  177.4670  140.0380 C   0  0  0  0  0  0  0  0  0  0  0  0
  188.6180  176.1590  143.1720 C   0  0  0  0  0  2  0  0  0  0  0  0
  187.9490  177.7890  144.9190 C   0  0  0  0  0  3  0  0  0  0  0  0
  189.2990  177.7430  145.5590 C   0  0  0  0  0  1  0  0  0  0  0  0
  188.9820  179.5380  138.8100 O   0  0  0  0  0  0  0  0  0  0  0  0
  185.9650  178.5650  142.6990 C   0  0  0  0  0  2  0  0  0  0  0  0
  187.9080  179.0870  141.4330 O   0  0  0  0  0  0  0  0  0  0  0  0
  183.9240  179.1390  138.8670 C   0  0  0  0  0  0  0  0  0  0  0  0
  191.5860  178.4300  140.5580 O   0  0  0  0  0  0  0  0  0  0  0  0
  185.8060  178.0840  137.7690 C   0  0  0  0  0  3  0  0  0  0  0  0
  191.5940  176.7320  142.9680 O   0  0  0  0  0  1  0  0  0  0  0  0
  184.5080  178.5910  137.7200 C   0  0  0  0  0  3  0  0  0  0  0  0
  187.6330  177.0760  143.8300 C   0  0  0  0  0  0  0  0  0  0  0  0
  190.3770  177.6180  138.7080 C   0  0  0  0  0  2  0  0  0  0  0  0
  184.6540  179.1870  140.0560 C   0  0  0  0  0  3  0  0  0  0  0  0
  186.2510  177.1740  143.2580 C   0  0  0  0  0  2  0  0  0  0  0  0
  185.9660  178.6980  140.1190 C   0  0  0  0  0  0  0  0  0  0  0  0
  189.0400  178.2800  138.8380 C   0  0  0  0  0  0  0  0  0  0  0  0
  186.6850  178.7880  141.4060 C   0  0  0  0  0  0  0  0  0  0  0  0
  189.4170  176.8920  142.2910 O   0  0  0  0  0  0  0  0  0  0  0  0
  186.5480  178.1330  138.9560 C   0  0  0  0  0  0  0  0  0  0  0  0
  191.0660  176.1240  140.7100 C   0  0  0  0  0  2  0  0  0  0  0  0
  190.6010  176.1630  142.1660 C   0  0  1  0  0  3  0  0  0  0  0  0
  187.8380  177.5010  138.9860 N   0  0  0  0  0  0  0  0  0  0  0  0
  187.8980  176.0490  138.8250 C   0  0  0  0  0  2  0  0  0  0  0  0
  189.1650  175.0460  137.0470 O   0  0  0  0  0  1  0  0  0  0  0  0
  187.9530  175.6700  137.3520 C   0  0  1  0  0  3  0  0  0  0  0  0
  186.7760  174.7740  136.9660 C   0  0  0  0  0  2  0  0  0  0  0  0
  186.2250  175.0970  135.6150 C   0  0  0  0  0  0  0  0  0  0  0  0
  185.1400  174.3430  135.0890 N   0  0  0  0  0  1  0  0  0  0  0  0
  186.7040  176.0530  134.9520 O   0  0  0  0  0  0  0  0  0  0  0  0
  182.5920  179.6580  138.8410 N   0  0  0  0  0  2  0  0  0  0  0  0
  182.3270  181.0340  138.7600 N   0  0  0  0  0  2  0  0  0  0  0  0
  181.4750  181.2130  137.7220 O   0  0  0  0  0  1  0  0  0  0  0  0
  1  9  2  0  0  0  0
  1 22  1  0  0  0  0
  2 13  1  0  0  0  0
  3  4  1  0  0  0  0
  5 18  2  0  0  0  0
  6 16  1  0  0  0  0
  8 15  1  0  0  0  0
 10 21  2  0  0  0  0
 12 10  1  0  0  0  0
 12  8  2  0  0  0  0
 13  3  2  0  0  0  0
 14 18  1  0  0  0  0
 14  1  1  0  0  0  0
 15 17  2  0  0  0  0
 16 13  1  0  0  0  0
 17 19  1  0  0  0  0
 18 24  1  0  0  0  0
 19  7  2  0  0  0  0
 19  6  1  0  0  0  0
 20  2  1  0  0  0  0
 21 24  1  0  0  0  0
 21 17  1  0  0  0  0
 22 23  1  0  0  0  0
 23 20  1  0  0  0  0
 23 11  1  1  0  0  0
 25 24  1  0  0  0  0
 27 26  1  1  0  0  0
 27 25  1  0  0  0  0
 28 27  1  0  0  0  0
 29 28  1  0  0  0  0
 30 29  1  0  0  0  0
 31 29  2  0  0  0  0
 32  8  1  0  0  0  0
 33 32  1  0  0  0  0
 34 33  1  0  0  0  0
M  END
>  <MODEL>
8

>  <REMARK>
 VINA RESULT:      -4.2      3.302      8.353
  Name = 
  6 active torsions:
  status: ('A' for Active; 'I' for Inactive)
    1  A    between atoms: C_8  and  N_11
    2  A    between atoms: C_9  and  C_23
    3  A    between atoms: C_9  and  N_34
    4  A    between atoms: C_10  and  C_15
    5  A    between atoms: N_11  and  N_21
    6  A    between atoms: C_15  and  C_23
                            x       y       z     vdW  Elec       q    Type
                         _______ _______ _______ _____ _____    ______ ____

>  <TORSDO>
F 6

$$$$
=
 OpenBabel10232409543D

 34 35  0  0  1  0  0  0  0  0999 V2000
  188.8740  178.3450  138.9270 C   0  0  0  0  0  0  0  0  0  0  0  0
  185.9860  177.5050  141.8220 C   0  0  0  0  0  2  0  0  0  0  0  0
  184.5440  179.3530  142.6360 C   0  0  0  0  0  3  0  0  0  0  0  0
  185.6440  179.9150  143.4780 C   0  0  0  0  0  1  0  0  0  0  0  0
  186.8600  179.1980  136.6310 O   0  0  0  0  0  0  0  0  0  0  0  0
  183.1420  178.7370  139.9670 C   0  0  0  0  0  2  0  0  0  0  0  0
  185.2140  179.3500  138.9770 O   0  0  0  0  0  0  0  0  0  0  0  0
  182.1740  177.3900  135.9150 C   0  0  0  0  0  0  0  0  0  0  0  0
  189.0440  179.5380  139.1170 O   0  0  0  0  0  0  0  0  0  0  0  0
  184.4600  176.6250  135.6830 C   0  0  0  0  0  3  0  0  0  0  0  0
  188.7230  178.8150  141.9580 O   0  0  0  0  0  1  0  0  0  0  0  0
  183.1520  176.6870  135.2020 C   0  0  0  0  0  3  0  0  0  0  0  0
  184.6930  178.2590  141.8760 C   0  0  0  0  0  0  0  0  0  0  0  0
  188.5850  177.8460  137.5470 C   0  0  0  0  0  2  0  0  0  0  0  0
  182.5190  178.0380  137.1010 C   0  0  0  0  0  3  0  0  0  0  0  0
  183.5350  177.7570  141.0690 C   0  0  0  0  0  2  0  0  0  0  0  0
  183.8330  178.0020  137.5900 C   0  0  0  0  0  0  0  0  0  0  0  0
  187.1600  178.0940  137.1600 C   0  0  0  0  0  0  0  0  0  0  0  0
  184.1330  178.7180  138.8460 C   0  0  0  0  0  0  0  0  0  0  0  0
  186.8340  178.1020  140.8870 O   0  0  0  0  0  0  0  0  0  0  0  0
  184.8170  177.2780  136.8690 C   0  0  0  0  0  0  0  0  0  0  0  0
  188.9770  177.3680  140.0640 C   0  0  0  0  0  2  0  0  0  0  0  0
  188.1280  177.7510  141.2760 C   0  0  1  0  0  3  0  0  0  0  0  0
  186.1470  177.0950  137.3790 N   0  0  0  0  0  0  0  0  0  0  0  0
  186.5400  175.7560  137.8150 C   0  0  0  0  0  2  0  0  0  0  0  0
  187.5890  174.8560  135.8490 O   0  0  0  0  0  1  0  0  0  0  0  0
  186.4560  174.7660  136.6610 C   0  0  1  0  0  3  0  0  0  0  0  0
  186.2730  173.3360  137.1710 C   0  0  0  0  0  2  0  0  0  0  0  0
  185.1160  172.6400  136.5300 C   0  0  0  0  0  0  0  0  0  0  0  0
  184.1050  172.0480  137.3360 N   0  0  0  0  0  1  0  0  0  0  0  0
  185.0220  172.5980  135.2760 O   0  0  0  0  0  0  0  0  0  0  0  0
  180.8260  177.4600  135.4440 N   0  0  0  0  0  2  0  0  0  0  0  0
  180.0320  176.3160  135.2750 N   0  0  0  0  0  2  0  0  0  0  0  0
  179.9820  175.6860  136.4740 O   0  0  0  0  0  1  0  0  0  0  0  0
  1  9  2  0  0  0  0
  1 22  1  0  0  0  0
  2 13  1  0  0  0  0
  3  4  1  0  0  0  0
  5 18  2  0  0  0  0
  6 16  1  0  0  0  0
  8 15  1  0  0  0  0
 10 21  2  0  0  0  0
 12 10  1  0  0  0  0
 12  8  2  0  0  0  0
 13  3  2  0  0  0  0
 14  1  1  0  0  0  0
 15 17  2  0  0  0  0
 16 13  1  0  0  0  0
 17 19  1  0  0  0  0
 18 24  1  0  0  0  0
 18 14  1  0  0  0  0
 19  7  2  0  0  0  0
 19  6  1  0  0  0  0
 20 23  1  0  0  0  0
 20  2  1  0  0  0  0
 21 24  1  0  0  0  0
 21 17  1  0  0  0  0
 22 23  1  0  0  0  0
 23 11  1  6  0  0  0
 24 25  1  0  0  0  0
 27 26  1  1  0  0  0
 27 28  1  0  0  0  0
 27 25  1  0  0  0  0
 29 28  1  0  0  0  0
 29 30  1  0  0  0  0
 31 29  2  0  0  0  0
 32  8  1  0  0  0  0
 33 32  1  0  0  0  0
 33 34  1  0  0  0  0
M  END
>  <MODEL>
9

>  <REMARK>
 VINA RESULT:      -3.8      3.745      8.252
  Name = 
  6 active torsions:
  status: ('A' for Active; 'I' for Inactive)
    1  A    between atoms: C_8  and  N_11
    2  A    between atoms: C_9  and  C_23
    3  A    between atoms: C_9  and  N_34
    4  A    between atoms: C_10  and  C_15
    5  A    between atoms: N_11  and  N_21
    6  A    between atoms: C_15  and  C_23
                            x       y       z     vdW  Elec       q    Type
                         _______ _______ _______ _____ _____    ______ ____

>  <TORSDO>
F 6

$$$$
