=
 OpenBabel10232408463D

 55 62  0  0  1  0  0  0  0  0999 V2000
  184.4810  174.9260  137.2800 C   0  0  2  0  0  3  0  0  0  0  0  0
  182.5400  178.1610  137.1070 C   0  0  2  0  0  3  0  0  0  0  0  0
  183.1830  175.6080  136.9050 C   0  0  0  0  0  2  0  0  0  0  0  0
  188.7090  178.7060  136.4650 F   0  0  0  0  0  0  0  0  0  0  0  0
  185.2340  177.5870  135.7650 C   0  0  0  0  0  2  0  0  0  0  0  0
  183.4440  176.9670  137.4520 C   0  0  1  0  0  3  0  0  0  0  0  0
  186.7140  177.8460  135.6140 C   0  0  0  0  0  3  0  0  0  0  0  0
  184.9240  177.1570  137.2160 C   0  0  1  0  0  0  0  0  0  0  0  0
  185.5110  175.8900  137.4270 O   0  0  0  0  0  0  0  0  0  0  0  0
  186.7100  178.7300  137.8830 C   0  0  0  0  0  3  0  0  0  0  0  0
  183.5820  179.7130  138.6130 C   0  0  0  0  0  2  0  0  0  0  0  0
  185.5160  178.1910  138.1680 C   0  0  0  0  0  0  0  0  0  0  0  0
  182.3440  178.9570  138.3440 N   0  0  1  0  0  0  0  0  0  0  0  0
  187.3990  178.3980  136.6220 C   0  0  0  0  0  0  0  0  0  0  0  0
  184.7040  178.8670  139.2360 C   0  0  2  0  0  3  0  0  0  0  0  0
  181.2250  177.6750  136.4840 C   0  0  0  0  0  1  0  0  0  0  0  0
  180.7330  180.3170  139.5820 C   0  0  0  0  0  2  0  0  0  0  0  0
  181.2080  179.8960  138.2110 C   0  0  1  0  0  3  0  0  0  0  0  0
  180.9750  182.1610  138.1540 C   0  0  2  0  0  3  0  0  0  0  0  0
  181.5460  181.0620  137.4860 O   0  0  0  0  0  0  0  0  0  0  0  0
  180.1720  181.6720  139.3340 C   0  0  0  0  0  2  0  0  0  0  0  0
  180.1200  182.9020  137.2380 N   0  0  0  0  0  2  0  0  0  0  0  0
  180.8700  184.4320  136.9190 S   0  0  0  0  0  0  0  0  0  0  0  0
  180.9990  184.6670  135.2650 F   0  0  0  0  0  0  0  0  0  0  0  0
  182.2410  184.4450  137.5290 O   0  0  0  0  0  0  0  0  0  0  0  0
  180.0490  185.5380  137.5180 O   0  0  0  0  0  0  0  0  0  0  0  0
  186.3470  172.8150  137.6380 O   0  0  0  0  0  0  0  0  0  0  0  0
  185.7520  172.8820  136.5280 C   0  0  0  0  0  0  0  0  0  0  0  0
  185.9400  171.8600  135.5460 N   0  0  0  0  0  2  0  0  0  0  0  0
  184.8390  173.9440  136.2670 N   0  0  0  0  0  2  0  0  0  0  0  0
  186.9460  170.8800  135.6250 N   0  0  0  0  0  2  0  0  0  0  0  0
  188.2360  171.0230  135.0250 C   0  0  0  0  0  0  0  0  0  0  0  0
  188.9500  169.6930  134.3920 S   0  0  0  0  0  0  0  0  0  0  0  0
  188.8800  172.3060  135.0240 N   0  0  0  0  0  2  0  0  0  0  0  0
  191.3770  174.3050  136.8090 C   0  0  2  0  0  3  0  0  0  0  0  0
  190.1490  173.5700  136.6090 C   0  0  2  0  0  3  0  0  0  0  0  0
  191.7160  172.5220  134.8350 S   0  0  0  0  0  0  0  0  0  0  0  0
  190.9260  175.6830  137.0280 N   0  0  0  0  0  2  0  0  0  0  0  0
  192.1390  174.1690  135.5000 C   0  0  0  0  0  2  0  0  0  0  0  0
  190.1220  172.6730  135.6400 C   0  0  2  0  0  3  0  0  0  0  0  0
  189.5500  175.6360  137.3800 N   0  0  0  0  0  2  0  0  0  0  0  0
  189.0700  174.3900  136.9520 N   0  0  0  0  0  2  0  0  0  0  0  0
  184.2210  177.9210  140.3340 C   0  0  0  0  0  2  0  0  0  0  0  0
  183.4030  178.9990  145.3220 C   0  0  0  0  0  3  0  0  0  0  0  0
  183.0800  178.5960  142.9660 C   0  0  0  0  0  3  0  0  0  0  0  0
  182.5480  178.8930  144.2230 C   0  0  0  0  0  3  0  0  0  0  0  0
  186.4280  177.9280  141.4950 C   0  0  0  0  0  3  0  0  0  0  0  0
  185.0420  178.0960  141.5740 C   0  0  0  0  0  0  0  0  0  0  0  0
  185.2870  178.5270  143.9540 C   0  0  0  0  0  0  0  0  0  0  0  0
  186.6300  178.3560  143.8380 N   0  0  0  0  0  0  0  0  0  0  0  0
  187.2110  178.0630  142.6430 C   0  0  0  0  0  0  0  0  0  0  0  0
  184.7420  178.8160  145.1670 N   0  0  0  0  0  0  0  0  0  0  0  0
  184.4580  178.4040  142.8170 C   0  0  0  0  0  0  0  0  0  0  0  0
  188.6350  177.9010  142.5590 C   0  0  0  0  0  0  0  0  0  0  0  0
  189.7830  177.7730  142.4900 N   0  0  0  0  0  0  0  0  0  0  0  0
  1 30  1  6  0  0  0
  1  9  1  0  0  0  0
  2 16  1  1  0  0  0
  2  6  1  0  0  0  0
  2 13  1  0  0  0  0
  3  1  1  0  0  0  0
  4 14  1  0  0  0  0
  6  3  1  6  0  0  0
  7  5  1  0  0  0  0
  7 14  2  0  0  0  0
  8  5  1  6  0  0  0
  8  9  1  0  0  0  0
  8  6  1  0  0  0  0
  8 12  1  0  0  0  0
 10 12  2  0  0  0  0
 11 15  1  0  0  0  0
 12 15  1  0  0  0  0
 13 11  1  6  0  0  0
 14 10  1  0  0  0  0
 15 43  1  1  0  0  0
 18 13  1  0  0  0  0
 18 17  1  1  0  0  0
 19 22  1  6  0  0  0
 19 21  1  0  0  0  0
 20 19  1  0  0  0  0
 20 18  1  0  0  0  0
 21 17  1  0  0  0  0
 23 22  1  0  0  0  0
 23 26  2  0  0  0  0
 23 25  2  0  0  0  0
 24 23  1  0  0  0  0
 28 27  2  0  0  0  0
 29 31  1  0  0  0  0
 29 28  1  0  0  0  0
 30 28  1  0  0  0  0
 32 31  1  0  0  0  0
 33 32  2  0  0  0  0
 34 32  1  0  0  0  0
 35 39  1  6  0  0  0
 35 38  1  0  0  0  0
 36 35  1  0  0  0  0
 36 42  1  6  0  0  0
 37 39  1  0  0  0  0
 37 40  1  0  0  0  0
 38 41  1  0  0  0  0
 40 34  1  6  0  0  0
 40 36  1  0  0  0  0
 42 41  1  0  0  0  0
 43 48  1  0  0  0  0
 45 46  2  0  0  0  0
 46 44  1  0  0  0  0
 47 48  1  0  0  0  0
 47 51  2  0  0  0  0
 48 53  2  0  0  0  0
 49 52  1  0  0  0  0
 50 49  2  0  0  0  0
 51 50  1  0  0  0  0
 52 44  2  0  0  0  0
 53 45  1  0  0  0  0
 53 49  1  0  0  0  0
 54 51  1  0  0  0  0
 55 54  3  0  0  0  0
M  END
>  <MODEL>
1

>  <REMARK>
 VINA RESULT:      -7.4      0.000      0.000
  Name = 
  11 active torsions:
  status: ('A' for Active; 'I' for Inactive)
    1  A    between atoms: C_3  and  N_54
    2  A    between atoms: N_10  and  S_17
    3  A    between atoms: N_10  and  C_36
    4  A    between atoms: C_23  and  N_25
    5  A    between atoms: C_24  and  C_43
    6  A    between atoms: N_25  and  C_40
    7  A    between atoms: C_30  and  N_34
    8  A    between atoms: N_39  and  N_41
    9  A    between atoms: C_40  and  N_41
   10  A    between atoms: C_43  and  C_47
   11  A    between atoms: C_46  and  C_48
                            x       y       z     vdW  Elec       q    Type
                         _______ _______ _______ _____ _____    ______ ____

>  <TORSDO>
F 11

$$$$
=
 OpenBabel10232408463D

 55 62  0  0  1  0  0  0  0  0999 V2000
  189.6310  176.5310  140.1240 C   0  0  2  0  0  3  0  0  0  0  0  0
  191.8700  176.2460  137.0950 C   0  0  2  0  0  3  0  0  0  0  0  0
  191.0460  176.4180  139.5980 C   0  0  0  0  0  2  0  0  0  0  0  0
  186.5650  179.3840  136.2130 F   0  0  0  0  0  0  0  0  0  0  0  0
  189.8680  178.4940  137.6670 C   0  0  0  0  0  2  0  0  0  0  0  0
  190.7630  176.1710  138.1580 C   0  0  1  0  0  3  0  0  0  0  0  0
  188.6110  179.2570  137.3280 C   0  0  0  0  0  3  0  0  0  0  0  0
  189.5300  177.0050  137.9000 C   0  0  1  0  0  0  0  0  0  0  0  0
  188.7550  176.9170  139.0770 O   0  0  0  0  0  0  0  0  0  0  0  0
  187.8350  177.2890  136.1240 C   0  0  0  0  0  3  0  0  0  0  0  0
  190.5220  175.4640  135.2690 C   0  0  0  0  0  2  0  0  0  0  0  0
  188.7450  176.4900  136.6980 C   0  0  0  0  0  0  0  0  0  0  0  0
  191.6630  175.1270  136.1430 N   0  0  1  0  0  0  0  0  0  0  0  0
  187.6600  178.6780  136.5870 C   0  0  0  0  0  0  0  0  0  0  0  0
  189.1510  175.2630  135.9320 C   0  0  2  0  0  3  0  0  0  0  0  0
  193.2520  176.2270  137.7600 C   0  0  0  0  0  1  0  0  0  0  0  0
  193.1950  176.1300  134.5230 C   0  0  0  0  0  2  0  0  0  0  0  0
  192.8670  174.8870  135.3160 C   0  0  1  0  0  3  0  0  0  0  0  0
  195.1020  175.2470  135.5640 C   0  0  2  0  0  3  0  0  0  0  0  0
  194.0010  174.5460  136.0890 O   0  0  0  0  0  0  0  0  0  0  0  0
  194.6690  176.0290  134.3480 C   0  0  0  0  0  2  0  0  0  0  0  0
  196.1560  174.3090  135.2070 N   0  0  0  0  0  2  0  0  0  0  0  0
  197.3700  174.3670  136.4430 S   0  0  0  0  0  0  0  0  0  0  0  0
  198.8180  173.7740  135.8440 F   0  0  0  0  0  0  0  0  0  0  0  0
  196.9330  173.5230  137.6040 O   0  0  0  0  0  0  0  0  0  0  0  0
  197.5650  175.7840  136.9030 O   0  0  0  0  0  0  0  0  0  0  0  0
  190.2550  175.9600  142.8350 O   0  0  0  0  0  0  0  0  0  0  0  0
  189.9490  177.1490  142.5480 C   0  0  0  0  0  0  0  0  0  0  0  0
  190.0310  178.1750  143.5400 N   0  0  0  0  0  2  0  0  0  0  0  0
  189.5800  177.4920  141.2150 N   0  0  0  0  0  2  0  0  0  0  0  0
  190.2010  177.9180  144.9130 N   0  0  0  0  0  2  0  0  0  0  0  0
  189.1270  177.5710  145.7900 C   0  0  0  0  0  0  0  0  0  0  0  0
  189.4180  177.5380  147.4000 S   0  0  0  0  0  0  0  0  0  0  0  0
  187.8450  177.2290  145.2420 N   0  0  0  0  0  2  0  0  0  0  0  0
  184.7210  179.1000  144.8370 C   0  0  2  0  0  3  0  0  0  0  0  0
  185.9740  178.7060  145.4400 C   0  0  2  0  0  3  0  0  0  0  0  0
  186.3060  178.0030  142.9710 S   0  0  0  0  0  0  0  0  0  0  0  0
  183.7180  178.7210  145.8370 N   0  0  0  0  0  2  0  0  0  0  0  0
  184.6020  178.2510  143.5810 C   0  0  0  0  0  2  0  0  0  0  0  0
  186.8640  178.1060  144.6710 C   0  0  2  0  0  3  0  0  0  0  0  0
  184.3890  178.5600  147.0800 N   0  0  0  0  0  2  0  0  0  0  0  0
  185.7480  178.3830  146.7820 N   0  0  0  0  0  2  0  0  0  0  0  0
  189.0430  173.9700  136.7380 C   0  0  0  0  0  2  0  0  0  0  0  0
  186.9830  169.7730  134.5360 C   0  0  0  0  0  3  0  0  0  0  0  0
  188.5360  171.4650  135.2700 C   0  0  0  0  0  3  0  0  0  0  0  0
  188.2880  170.2670  134.5960 C   0  0  0  0  0  3  0  0  0  0  0  0
  186.5850  174.0080  137.1530 C   0  0  0  0  0  3  0  0  0  0  0  0
  187.6840  173.3630  136.5760 C   0  0  0  0  0  0  0  0  0  0  0  0
  186.1790  171.6240  135.7890 C   0  0  0  0  0  0  0  0  0  0  0  0
  185.1360  172.2780  136.3640 N   0  0  0  0  0  0  0  0  0  0  0  0
  185.3110  173.4480  137.0360 C   0  0  0  0  0  0  0  0  0  0  0  0
  185.9650  170.4540  135.1270 N   0  0  0  0  0  0  0  0  0  0  0  0
  187.4840  172.1570  135.8800 C   0  0  0  0  0  0  0  0  0  0  0  0
  184.1820  174.1150  137.6190 C   0  0  0  0  0  0  0  0  0  0  0  0
  183.2680  174.6490  138.0900 N   0  0  0  0  0  0  0  0  0  0  0  0
  1 30  1  1  0  0  0
  2 16  1  1  0  0  0
  2  6  1  0  0  0  0
  3  1  1  0  0  0  0
  4 14  1  0  0  0  0
  6  3  1  1  0  0  0
  7  5  1  0  0  0  0
  8  5  1  6  0  0  0
  8  6  1  0  0  0  0
  8  9  1  0  0  0  0
  9  1  1  0  0  0  0
 10 14  1  0  0  0  0
 10 12  2  0  0  0  0
 11 15  1  0  0  0  0
 12  8  1  0  0  0  0
 13 11  1  6  0  0  0
 13  2  1  0  0  0  0
 14  7  2  0  0  0  0
 15 12  1  0  0  0  0
 15 43  1  1  0  0  0
 18 17  1  1  0  0  0
 18 20  1  0  0  0  0
 18 13  1  0  0  0  0
 19 22  1  6  0  0  0
 19 20  1  0  0  0  0
 21 17  1  0  0  0  0
 21 19  1  0  0  0  0
 22 23  1  0  0  0  0
 23 26  2  0  0  0  0
 23 25  2  0  0  0  0
 24 23  1  0  0  0  0
 28 27  2  0  0  0  0
 28 29  1  0  0  0  0
 29 31  1  0  0  0  0
 30 28  1  0  0  0  0
 31 32  1  0  0  0  0
 32 33  2  0  0  0  0
 34 32  1  0  0  0  0
 35 39  1  6  0  0  0
 35 36  1  0  0  0  0
 35 38  1  0  0  0  0
 36 42  1  1  0  0  0
 37 39  1  0  0  0  0
 37 40  1  0  0  0  0
 38 41  1  0  0  0  0
 40 34  1  1  0  0  0
 40 36  1  0  0  0  0
 42 41  1  0  0  0  0
 44 46  1  0  0  0  0
 44 52  2  0  0  0  0
 45 53  1  0  0  0  0
 46 45  2  0  0  0  0
 48 43  1  0  0  0  0
 48 47  1  0  0  0  0
 49 53  1  0  0  0  0
 49 50  2  0  0  0  0
 50 51  1  0  0  0  0
 51 47  2  0  0  0  0
 51 54  1  0  0  0  0
 52 49  1  0  0  0  0
 53 48  2  0  0  0  0
 54 55  3  0  0  0  0
M  END
>  <MODEL>
2

>  <REMARK>
 VINA RESULT:      -6.9      4.613     11.329
  Name = 
  11 active torsions:
  status: ('A' for Active; 'I' for Inactive)
    1  A    between atoms: C_3  and  N_54
    2  A    between atoms: N_10  and  S_17
    3  A    between atoms: N_10  and  C_36
    4  A    between atoms: C_23  and  N_25
    5  A    between atoms: C_24  and  C_43
    6  A    between atoms: N_25  and  C_40
    7  A    between atoms: C_30  and  N_34
    8  A    between atoms: N_39  and  N_41
    9  A    between atoms: C_40  and  N_41
   10  A    between atoms: C_43  and  C_47
   11  A    between atoms: C_46  and  C_48
                            x       y       z     vdW  Elec       q    Type
                         _______ _______ _______ _____ _____    ______ ____

>  <TORSDO>
F 11

$$$$
=
 OpenBabel10232408463D

 55 62  0  0  1  0  0  0  0  0999 V2000
  189.2670  176.5370  140.2990 C   0  0  2  0  0  3  0  0  0  0  0  0
  191.8870  176.2520  137.5940 C   0  0  2  0  0  3  0  0  0  0  0  0
  190.7400  176.4450  139.9650 C   0  0  0  0  0  2  0  0  0  0  0  0
  186.6880  179.2710  135.9740 F   0  0  0  0  0  0  0  0  0  0  0  0
  189.7880  178.4680  137.8610 C   0  0  0  0  0  2  0  0  0  0  0  0
  190.6520  176.1710  138.5040 C   0  0  1  0  0  3  0  0  0  0  0  0
  188.5730  179.2020  137.3480 C   0  0  0  0  0  3  0  0  0  0  0  0
  189.4480  176.9770  138.0740 C   0  0  1  0  0  0  0  0  0  0  0  0
  188.5280  176.8900  139.1410 O   0  0  0  0  0  0  0  0  0  0  0  0
  187.9960  177.2010  136.0870 C   0  0  0  0  0  3  0  0  0  0  0  0
  190.8040  175.4170  135.6210 C   0  0  0  0  0  2  0  0  0  0  0  0
  188.8370  176.4280  136.7880 C   0  0  0  0  0  0  0  0  0  0  0  0
  191.8260  175.1150  136.6420 N   0  0  1  0  0  0  0  0  0  0  0  0
  187.7370  178.5930  136.4990 C   0  0  0  0  0  0  0  0  0  0  0  0
  189.3610  175.1990  136.1030 C   0  0  2  0  0  3  0  0  0  0  0  0
  193.1710  176.2710  138.4340 C   0  0  0  0  0  1  0  0  0  0  0  0
  193.6150  176.1720  135.3540 C   0  0  0  0  0  2  0  0  0  0  0  0
  193.1320  174.8870  135.9830 C   0  0  1  0  0  3  0  0  0  0  0  0
  195.3150  175.1270  136.5860 C   0  0  2  0  0  3  0  0  0  0  0  0
  194.1250  174.4370  136.8830 O   0  0  0  0  0  0  0  0  0  0  0  0
  195.0950  176.0200  135.3890 C   0  0  0  0  0  2  0  0  0  0  0  0
  196.3790  174.1730  136.3100 N   0  0  0  0  0  2  0  0  0  0  0  0
  197.4070  174.0950  137.7030 S   0  0  0  0  0  0  0  0  0  0  0  0
  196.5060  173.6730  139.0510 F   0  0  0  0  0  0  0  0  0  0  0  0
  198.0340  175.4400  137.9290 O   0  0  0  0  0  0  0  0  0  0  0  0
  198.4870  173.0740  137.4860 O   0  0  0  0  0  0  0  0  0  0  0  0
  188.2120  175.9550  142.8710 O   0  0  0  0  0  0  0  0  0  0  0  0
  188.5630  177.1440  142.6430 C   0  0  0  0  0  0  0  0  0  0  0  0
  188.5300  178.1190  143.6890 N   0  0  0  0  0  2  0  0  0  0  0  0
  189.0560  177.5130  141.3580 N   0  0  0  0  0  2  0  0  0  0  0  0
  187.8940  177.9120  144.9270 N   0  0  0  0  0  2  0  0  0  0  0  0
  186.5890  178.4070  145.2360 C   0  0  0  0  0  0  0  0  0  0  0  0
  186.0160  178.1890  146.7530 S   0  0  0  0  0  0  0  0  0  0  0  0
  185.8100  179.0420  144.2120 N   0  0  0  0  0  2  0  0  0  0  0  0
  183.5210  178.3590  141.4340 C   0  0  2  0  0  3  0  0  0  0  0  0
  184.7640  178.3570  142.1730 C   0  0  2  0  0  3  0  0  0  0  0  0
  183.0010  178.5810  144.0560 S   0  0  0  0  0  0  0  0  0  0  0  0
  183.8140  179.1890  140.2610 N   0  0  0  0  0  2  0  0  0  0  0  0
  182.5130  179.0290  142.3540 C   0  0  0  0  0  2  0  0  0  0  0  0
  184.6970  178.5030  143.4840 C   0  0  2  0  0  3  0  0  0  0  0  0
  185.2270  179.2590  140.1250 N   0  0  0  0  0  2  0  0  0  0  0  0
  185.7680  178.9060  141.3700 N   0  0  0  0  0  2  0  0  0  0  0  0
  189.1720  173.9160  136.9100 C   0  0  0  0  0  2  0  0  0  0  0  0
  187.1380  169.8550  134.4430 C   0  0  0  0  0  3  0  0  0  0  0  0
  188.6860  171.4870  135.3130 C   0  0  0  0  0  3  0  0  0  0  0  0
  188.4460  170.3240  134.5760 C   0  0  0  0  0  3  0  0  0  0  0  0
  186.7000  173.9770  137.2290 C   0  0  0  0  0  3  0  0  0  0  0  0
  187.8110  173.3400  136.6680 C   0  0  0  0  0  0  0  0  0  0  0  0
  186.3130  171.6630  135.7450 C   0  0  0  0  0  0  0  0  0  0  0  0
  185.2570  172.3090  136.3060 N   0  0  0  0  0  0  0  0  0  0  0  0
  185.4230  173.4460  137.0360 C   0  0  0  0  0  0  0  0  0  0  0  0
  186.1070  170.5270  135.0230 N   0  0  0  0  0  0  0  0  0  0  0  0
  187.6210  172.1690  135.9110 C   0  0  0  0  0  0  0  0  0  0  0  0
  184.2810  174.1050  137.6030 C   0  0  0  0  0  0  0  0  0  0  0  0
  183.3590  174.6380  138.0570 N   0  0  0  0  0  0  0  0  0  0  0  0
  1 30  1  1  0  0  0
  2 16  1  1  0  0  0
  2  6  1  0  0  0  0
  3  1  1  0  0  0  0
  4 14  1  0  0  0  0
  6  3  1  1  0  0  0
  7  5  1  0  0  0  0
  8  5  1  6  0  0  0
  8  6  1  0  0  0  0
  8  9  1  0  0  0  0
  9  1  1  0  0  0  0
 10 14  1  0  0  0  0
 10 12  2  0  0  0  0
 11 15  1  0  0  0  0
 12  8  1  0  0  0  0
 13 11  1  6  0  0  0
 13  2  1  0  0  0  0
 14  7  2  0  0  0  0
 15 12  1  0  0  0  0
 15 43  1  1  0  0  0
 17 21  1  0  0  0  0
 18 17  1  1  0  0  0
 18 13  1  0  0  0  0
 18 20  1  0  0  0  0
 19 22  1  6  0  0  0
 19 20  1  0  0  0  0
 21 19  1  0  0  0  0
 22 23  1  0  0  0  0
 23 25  2  0  0  0  0
 23 24  1  0  0  0  0
 26 23  2  0  0  0  0
 28 27  2  0  0  0  0
 28 29  1  0  0  0  0
 29 31  1  0  0  0  0
 30 28  1  0  0  0  0
 31 32  1  0  0  0  0
 32 33  2  0  0  0  0
 34 32  1  0  0  0  0
 35 36  1  0  0  0  0
 35 39  1  1  0  0  0
 36 42  1  6  0  0  0
 36 40  1  0  0  0  0
 38 35  1  0  0  0  0
 39 37  1  0  0  0  0
 40 37  1  0  0  0  0
 40 34  1  6  0  0  0
 41 38  1  0  0  0  0
 41 42  1  0  0  0  0
 44 46  1  0  0  0  0
 44 52  2  0  0  0  0
 45 53  1  0  0  0  0
 46 45  2  0  0  0  0
 48 43  1  0  0  0  0
 48 47  1  0  0  0  0
 49 53  1  0  0  0  0
 49 50  2  0  0  0  0
 50 51  1  0  0  0  0
 51 47  2  0  0  0  0
 51 54  1  0  0  0  0
 52 49  1  0  0  0  0
 53 48  2  0  0  0  0
 54 55  3  0  0  0  0
M  END
>  <MODEL>
3

>  <REMARK>
 VINA RESULT:      -6.9      4.278     11.193
  Name = 
  11 active torsions:
  status: ('A' for Active; 'I' for Inactive)
    1  A    between atoms: C_3  and  N_54
    2  A    between atoms: N_10  and  S_17
    3  A    between atoms: N_10  and  C_36
    4  A    between atoms: C_23  and  N_25
    5  A    between atoms: C_24  and  C_43
    6  A    between atoms: N_25  and  C_40
    7  A    between atoms: C_30  and  N_34
    8  A    between atoms: N_39  and  N_41
    9  A    between atoms: C_40  and  N_41
   10  A    between atoms: C_43  and  C_47
   11  A    between atoms: C_46  and  C_48
                            x       y       z     vdW  Elec       q    Type
                         _______ _______ _______ _____ _____    ______ ____

>  <TORSDO>
F 11

$$$$
=
 OpenBabel10232408463D

 55 62  0  0  1  0  0  0  0  0999 V2000
  187.9780  177.2730  139.4840 C   0  0  2  0  0  3  0  0  0  0  0  0
  190.9090  176.4310  137.2570 C   0  0  2  0  0  3  0  0  0  0  0  0
  189.4810  177.1580  139.3560 C   0  0  0  0  0  2  0  0  0  0  0  0
  185.9200  178.7540  134.3460 F   0  0  0  0  0  0  0  0  0  0  0  0
  188.7740  178.5620  136.7190 C   0  0  0  0  0  2  0  0  0  0  0  0
  189.5730  176.5300  138.0090 C   0  0  1  0  0  3  0  0  0  0  0  0
  187.6240  179.0990  135.9020 C   0  0  0  0  0  3  0  0  0  0  0  0
  188.4240  177.1570  137.2560 C   0  0  1  0  0  0  0  0  0  0  0  0
  187.3820  177.3010  138.1970 O   0  0  0  0  0  0  0  0  0  0  0  0
  187.2220  176.8280  135.1220 C   0  0  0  0  0  3  0  0  0  0  0  0
  190.0810  175.0940  135.4430 C   0  0  0  0  0  2  0  0  0  0  0  0
  187.9780  176.2850  136.0860 C   0  0  0  0  0  0  0  0  0  0  0  0
  190.9740  175.0930  136.6180 N   0  0  1  0  0  0  0  0  0  0  0  0
  186.9030  178.2670  135.1410 C   0  0  0  0  0  0  0  0  0  0  0  0
  188.5920  174.9460  135.7940 C   0  0  2  0  0  3  0  0  0  0  0  0
  192.0810  176.7060  138.2080 C   0  0  0  0  0  1  0  0  0  0  0  0
  192.8660  175.8260  135.2540 C   0  0  0  0  0  2  0  0  0  0  0  0
  192.3520  174.7600  136.1920 C   0  0  1  0  0  3  0  0  0  0  0  0
  194.4450  175.3030  136.9070 C   0  0  2  0  0  3  0  0  0  0  0  0
  193.2500  174.6610  137.2800 O   0  0  0  0  0  0  0  0  0  0  0  0
  194.3360  175.7830  135.4800 C   0  0  0  0  0  2  0  0  0  0  0  0
  195.5610  174.3780  137.0400 N   0  0  0  0  0  2  0  0  0  0  0  0
  195.9250  174.2120  138.7270 S   0  0  0  0  0  0  0  0  0  0  0  0
  197.5850  174.1790  138.9490 F   0  0  0  0  0  0  0  0  0  0  0  0
  195.3330  172.9290  139.2350 O   0  0  0  0  0  0  0  0  0  0  0  0
  195.3420  175.3650  139.4920 O   0  0  0  0  0  0  0  0  0  0  0  0
  185.6680  177.5720  141.1090 O   0  0  0  0  0  0  0  0  0  0  0  0
  186.4770  178.5380  141.0680 C   0  0  0  0  0  0  0  0  0  0  0  0
  186.2790  179.6830  141.9010 N   0  0  0  0  0  2  0  0  0  0  0  0
  187.6310  178.4710  140.2350 N   0  0  0  0  0  2  0  0  0  0  0  0
  185.0910  179.9310  142.6130 N   0  0  0  0  0  2  0  0  0  0  0  0
  184.7900  179.3360  143.8770 C   0  0  0  0  0  0  0  0  0  0  0  0
  183.2580  178.8290  144.1510 S   0  0  0  0  0  0  0  0  0  0  0  0
  185.8150  179.2330  144.8760 N   0  0  0  0  0  2  0  0  0  0  0  0
  188.0800  177.0500  146.7530 C   0  0  2  0  0  3  0  0  0  0  0  0
  186.8870  177.8190  146.4790 C   0  0  2  0  0  3  0  0  0  0  0  0
  187.7820  177.3220  144.1020 S   0  0  0  0  0  0  0  0  0  0  0  0
  188.6790  177.7360  147.9030 N   0  0  0  0  0  2  0  0  0  0  0  0
  188.9410  177.1960  145.5080 C   0  0  0  0  0  2  0  0  0  0  0  0
  186.6070  178.0870  145.2170 C   0  0  2  0  0  3  0  0  0  0  0  0
  187.6680  178.5330  148.5050 N   0  0  0  0  0  2  0  0  0  0  0  0
  186.6640  178.7030  147.5400 N   0  0  0  0  0  2  0  0  0  0  0  0
  188.3170  173.8950  136.8690 C   0  0  0  0  0  2  0  0  0  0  0  0
  186.1570  169.6730  134.8160 C   0  0  0  0  0  3  0  0  0  0  0  0
  187.7530  171.3440  135.5050 C   0  0  0  0  0  3  0  0  0  0  0  0
  187.4760  170.1260  134.8800 C   0  0  0  0  0  3  0  0  0  0  0  0
  185.8540  174.0340  137.2310 C   0  0  0  0  0  3  0  0  0  0  0  0
  186.9410  173.3270  136.7070 C   0  0  0  0  0  0  0  0  0  0  0  0
  185.3930  171.6050  135.9680 C   0  0  0  0  0  0  0  0  0  0  0  0
  184.3630  172.3190  136.4910 N   0  0  0  0  0  0  0  0  0  0  0  0
  184.5650  173.5120  137.1130 C   0  0  0  0  0  0  0  0  0  0  0  0
  185.1520  170.4140  135.3550 N   0  0  0  0  0  0  0  0  0  0  0  0
  186.7140  172.0980  136.0610 C   0  0  0  0  0  0  0  0  0  0  0  0
  183.4480  174.2420  137.6420 C   0  0  0  0  0  0  0  0  0  0  0  0
  182.5450  174.8320  138.0650 N   0  0  0  0  0  0  0  0  0  0  0  0
  1 30  1  6  0  0  0
  2  6  1  0  0  0  0
  2 16  1  1  0  0  0
  3  1  1  0  0  0  0
  4 14  1  0  0  0  0
  6  3  1  1  0  0  0
  7  5  1  0  0  0  0
  8  5  1  6  0  0  0
  8  6  1  0  0  0  0
  8  9  1  0  0  0  0
  9  1  1  0  0  0  0
 10 14  1  0  0  0  0
 10 12  2  0  0  0  0
 11 15  1  0  0  0  0
 12  8  1  0  0  0  0
 13 11  1  6  0  0  0
 13  2  1  0  0  0  0
 14  7  2  0  0  0  0
 15 12  1  0  0  0  0
 15 43  1  1  0  0  0
 17 21  1  0  0  0  0
 18 17  1  6  0  0  0
 18 13  1  0  0  0  0
 18 20  1  0  0  0  0
 19 22  1  6  0  0  0
 19 20  1  0  0  0  0
 21 19  1  0  0  0  0
 22 23  1  0  0  0  0
 23 24  1  0  0  0  0
 23 25  2  0  0  0  0
 23 26  2  0  0  0  0
 28 27  2  0  0  0  0
 28 29  1  0  0  0  0
 29 31  1  0  0  0  0
 30 28  1  0  0  0  0
 31 32  1  0  0  0  0
 32 33  2  0  0  0  0
 32 34  1  0  0  0  0
 35 39  1  6  0  0  0
 35 38  1  0  0  0  0
 36 35  1  0  0  0  0
 36 42  1  1  0  0  0
 37 40  1  0  0  0  0
 37 39  1  0  0  0  0
 38 41  1  0  0  0  0
 40 34  1  1  0  0  0
 40 36  1  0  0  0  0
 42 41  1  0  0  0  0
 44 46  1  0  0  0  0
 44 52  2  0  0  0  0
 45 53  1  0  0  0  0
 46 45  2  0  0  0  0
 48 43  1  0  0  0  0
 48 47  1  0  0  0  0
 49 53  1  0  0  0  0
 49 50  2  0  0  0  0
 50 51  1  0  0  0  0
 51 47  2  0  0  0  0
 51 54  1  0  0  0  0
 52 49  1  0  0  0  0
 53 48  2  0  0  0  0
 54 55  3  0  0  0  0
M  END
>  <MODEL>
4

>  <REMARK>
 VINA RESULT:      -5.8      4.220     10.882
  Name = 
  11 active torsions:
  status: ('A' for Active; 'I' for Inactive)
    1  A    between atoms: C_3  and  N_54
    2  A    between atoms: N_10  and  S_17
    3  A    between atoms: N_10  and  C_36
    4  A    between atoms: C_23  and  N_25
    5  A    between atoms: C_24  and  C_43
    6  A    between atoms: N_25  and  C_40
    7  A    between atoms: C_30  and  N_34
    8  A    between atoms: N_39  and  N_41
    9  A    between atoms: C_40  and  N_41
   10  A    between atoms: C_43  and  C_47
   11  A    between atoms: C_46  and  C_48
                            x       y       z     vdW  Elec       q    Type
                         _______ _______ _______ _____ _____    ______ ____

>  <TORSDO>
F 11

$$$$
=
 OpenBabel10232408463D

 55 62  0  0  1  0  0  0  0  0999 V2000
  185.5830  175.0500  137.2200 C   0  0  2  0  0  3  0  0  0  0  0  0
  183.2730  178.0380  137.2450 C   0  0  2  0  0  3  0  0  0  0  0  0
  184.2310  175.6110  136.8370 C   0  0  0  0  0  2  0  0  0  0  0  0
  189.3530  179.3610  137.0250 F   0  0  0  0  0  0  0  0  0  0  0  0
  186.0770  177.9230  136.0160 C   0  0  0  0  0  2  0  0  0  0  0  0
  184.2980  176.9290  137.5270 C   0  0  1  0  0  3  0  0  0  0  0  0
  187.5190  178.3670  135.9790 C   0  0  0  0  0  3  0  0  0  0  0  0
  185.7530  177.3130  137.3980 C   0  0  1  0  0  0  0  0  0  0  0  0
  186.4790  176.1080  137.5200 O   0  0  0  0  0  0  0  0  0  0  0  0
  187.3010  179.0060  138.3180 C   0  0  0  0  0  3  0  0  0  0  0  0
  184.0450  179.5380  138.9530 C   0  0  0  0  0  2  0  0  0  0  0  0
  186.1690  178.3060  138.4790 C   0  0  0  0  0  0  0  0  0  0  0  0
  182.9230  178.6740  138.5390 N   0  0  1  0  0  0  0  0  0  0  0  0
  188.0840  178.8880  137.0740 C   0  0  0  0  0  0  0  0  0  0  0  0
  185.2310  178.7690  139.5560 C   0  0  2  0  0  3  0  0  0  0  0  0
  182.0580  177.4680  136.5010 C   0  0  0  0  0  1  0  0  0  0  0  0
  181.1080  179.7130  139.8050 C   0  0  0  0  0  2  0  0  0  0  0  0
  181.6880  179.4840  138.4310 C   0  0  1  0  0  3  0  0  0  0  0  0
  181.1860  181.7010  138.5650 C   0  0  2  0  0  3  0  0  0  0  0  0
  181.9140  180.7450  137.8320 O   0  0  0  0  0  0  0  0  0  0  0  0
  180.3980  181.0120  139.6510 C   0  0  0  0  0  2  0  0  0  0  0  0
  180.2880  182.4220  137.6740 N   0  0  0  0  0  2  0  0  0  0  0  0
  181.0540  183.9110  137.2260 S   0  0  0  0  0  0  0  0  0  0  0  0
  182.5870  183.9860  137.8990 F   0  0  0  0  0  0  0  0  0  0  0  0
  180.2330  185.0600  137.7360 O   0  0  0  0  0  0  0  0  0  0  0  0
  181.1600  184.0020  135.7310 O   0  0  0  0  0  0  0  0  0  0  0  0
  187.9590  173.5010  137.3510 O   0  0  0  0  0  0  0  0  0  0  0  0
  187.2830  173.4380  136.2890 C   0  0  0  0  0  0  0  0  0  0  0  0
  187.6540  172.5290  135.2490 N   0  0  0  0  0  2  0  0  0  0  0  0
  186.1050  174.2270  136.1410 N   0  0  0  0  0  2  0  0  0  0  0  0
  188.8850  171.8490  135.2130 N   0  0  0  0  0  2  0  0  0  0  0  0
  190.1000  172.4410  134.7460 C   0  0  0  0  0  0  0  0  0  0  0  0
  190.1800  174.0720  134.6460 S   0  0  0  0  0  0  0  0  0  0  0  0
  191.1920  171.6000  134.3480 N   0  0  0  0  0  2  0  0  0  0  0  0
  194.3260  170.7660  136.0530 C   0  0  2  0  0  3  0  0  0  0  0  0
  193.1570  171.5440  135.7120 C   0  0  2  0  0  3  0  0  0  0  0  0
  192.4160  169.1390  135.1060 S   0  0  0  0  0  0  0  0  0  0  0  0
  195.4440  171.5940  135.5890 N   0  0  0  0  0  2  0  0  0  0  0  0
  194.2040  169.4880  135.2390 C   0  0  0  0  0  2  0  0  0  0  0  0
  192.1270  170.9060  135.1860 C   0  0  2  0  0  3  0  0  0  0  0  0
  194.9590  172.9200  135.4250 N   0  0  0  0  0  2  0  0  0  0  0  0
  193.5620  172.8280  135.3340 N   0  0  0  0  0  2  0  0  0  0  0  0
  184.8160  177.6660  140.5280 C   0  0  0  0  0  2  0  0  0  0  0  0
  183.0030  179.2160  145.1130 C   0  0  0  0  0  3  0  0  0  0  0  0
  183.1700  178.6030  142.7860 C   0  0  0  0  0  3  0  0  0  0  0  0
  182.3960  179.0260  143.8690 C   0  0  0  0  0  3  0  0  0  0  0  0
  186.7250  177.7370  142.1290 C   0  0  0  0  0  3  0  0  0  0  0  0
  185.3610  177.9390  141.8950 C   0  0  0  0  0  0  0  0  0  0  0  0
  185.1140  178.5830  144.2260 C   0  0  0  0  0  0  0  0  0  0  0  0
  186.4430  178.3760  144.4150 N   0  0  0  0  0  0  0  0  0  0  0  0
  187.2520  177.9630  143.4020 C   0  0  0  0  0  0  0  0  0  0  0  0
  184.3360  178.9940  145.2640 N   0  0  0  0  0  0  0  0  0  0  0  0
  184.5400  178.3720  142.9520 C   0  0  0  0  0  0  0  0  0  0  0  0
  188.6540  177.7650  143.6410 C   0  0  0  0  0  0  0  0  0  0  0  0
  189.7860  177.6110  143.8310 N   0  0  0  0  0  0  0  0  0  0  0  0
  1 30  1  6  0  0  0
  1  9  1  0  0  0  0
  2 16  1  1  0  0  0
  2  6  1  0  0  0  0
  2 13  1  0  0  0  0
  3  1  1  0  0  0  0
  4 14  1  0  0  0  0
  6  3  1  6  0  0  0
  7  5  1  0  0  0  0
  7 14  2  0  0  0  0
  8  5  1  6  0  0  0
  8  9  1  0  0  0  0
  8  6  1  0  0  0  0
  8 12  1  0  0  0  0
 10 12  2  0  0  0  0
 11 15  1  0  0  0  0
 12 15  1  0  0  0  0
 13 11  1  6  0  0  0
 14 10  1  0  0  0  0
 15 43  1  6  0  0  0
 18 13  1  0  0  0  0
 18 17  1  1  0  0  0
 19 22  1  6  0  0  0
 19 21  1  0  0  0  0
 20 18  1  0  0  0  0
 20 19  1  0  0  0  0
 21 17  1  0  0  0  0
 23 22  1  0  0  0  0
 23 25  2  0  0  0  0
 23 24  1  0  0  0  0
 26 23  2  0  0  0  0
 28 27  2  0  0  0  0
 29 28  1  0  0  0  0
 30 28  1  0  0  0  0
 31 29  1  0  0  0  0
 32 31  1  0  0  0  0
 33 32  2  0  0  0  0
 34 32  1  0  0  0  0
 35 39  1  6  0  0  0
 36 42  1  6  0  0  0
 36 35  1  0  0  0  0
 37 40  1  0  0  0  0
 37 39  1  0  0  0  0
 38 35  1  0  0  0  0
 40 34  1  6  0  0  0
 40 36  1  0  0  0  0
 41 38  1  0  0  0  0
 42 41  1  0  0  0  0
 43 48  1  0  0  0  0
 44 52  2  0  0  0  0
 45 53  1  0  0  0  0
 45 46  2  0  0  0  0
 46 44  1  0  0  0  0
 47 51  2  0  0  0  0
 48 47  1  0  0  0  0
 48 53  2  0  0  0  0
 49 50  2  0  0  0  0
 49 52  1  0  0  0  0
 51 54  1  0  0  0  0
 51 50  1  0  0  0  0
 53 49  1  0  0  0  0
 54 55  3  0  0  0  0
M  END
>  <MODEL>
5

>  <REMARK>
 VINA RESULT:      -5.6      1.955      2.247
  Name = 
  11 active torsions:
  status: ('A' for Active; 'I' for Inactive)
    1  A    between atoms: C_3  and  N_54
    2  A    between atoms: N_10  and  S_17
    3  A    between atoms: N_10  and  C_36
    4  A    between atoms: C_23  and  N_25
    5  A    between atoms: C_24  and  C_43
    6  A    between atoms: N_25  and  C_40
    7  A    between atoms: C_30  and  N_34
    8  A    between atoms: N_39  and  N_41
    9  A    between atoms: C_40  and  N_41
   10  A    between atoms: C_43  and  C_47
   11  A    between atoms: C_46  and  C_48
                            x       y       z     vdW  Elec       q    Type
                         _______ _______ _______ _____ _____    ______ ____

>  <TORSDO>
F 11

$$$$
=
 OpenBabel10232408463D

 55 62  0  0  1  0  0  0  0  0999 V2000
  186.6300  174.9660  137.2790 C   0  0  2  0  0  3  0  0  0  0  0  0
  183.8400  177.4800  137.6760 C   0  0  2  0  0  3  0  0  0  0  0  0
  185.1660  175.2800  137.0620 C   0  0  0  0  0  2  0  0  0  0  0  0
  189.5250  179.8960  136.8950 F   0  0  0  0  0  0  0  0  0  0  0  0
  186.4690  177.9110  136.1620 C   0  0  0  0  0  2  0  0  0  0  0  0
  185.0710  176.5700  137.8000 C   0  0  1  0  0  3  0  0  0  0  0  0
  187.7960  178.6110  135.9980 C   0  0  0  0  0  3  0  0  0  0  0  0
  186.4120  177.2160  137.5400 C   0  0  1  0  0  0  0  0  0  0  0  0
  187.3510  176.1610  137.5330 O   0  0  0  0  0  0  0  0  0  0  0  0
  187.7230  179.1380  138.3730 C   0  0  0  0  0  3  0  0  0  0  0  0
  184.5140  179.0510  139.3620 C   0  0  0  0  0  2  0  0  0  0  0  0
  186.7590  178.2400  138.6170 C   0  0  0  0  0  0  0  0  0  0  0  0
  183.5250  178.0080  139.0270 N   0  0  1  0  0  0  0  0  0  0  0  0
  188.3740  179.1980  137.0520 C   0  0  0  0  0  0  0  0  0  0  0  0
  185.8760  178.4960  139.8050 C   0  0  2  0  0  3  0  0  0  0  0  0
  182.6730  176.7180  137.0350 C   0  0  0  0  0  1  0  0  0  0  0  0
  181.6270  178.4860  140.4910 C   0  0  0  0  0  2  0  0  0  0  0  0
  182.1620  178.5810  139.0820 C   0  0  1  0  0  3  0  0  0  0  0  0
  181.2790  180.6200  139.5820 C   0  0  2  0  0  3  0  0  0  0  0  0
  182.1240  179.9380  138.6870 O   0  0  0  0  0  0  0  0  0  0  0  0
  180.6880  179.6380  140.5650 C   0  0  0  0  0  2  0  0  0  0  0  0
  180.2180  181.2880  138.8430 N   0  0  0  0  0  2  0  0  0  0  0  0
  180.9440  182.4920  137.8290 S   0  0  0  0  0  0  0  0  0  0  0  0
  182.4470  182.9150  138.4360 F   0  0  0  0  0  0  0  0  0  0  0  0
  180.0630  183.7070  137.7990 O   0  0  0  0  0  0  0  0  0  0  0  0
  181.1020  181.9590  136.4340 O   0  0  0  0  0  0  0  0  0  0  0  0
  188.4440  172.7820  137.3660 O   0  0  0  0  0  0  0  0  0  0  0  0
  188.0440  173.1600  136.2310 C   0  0  0  0  0  0  0  0  0  0  0  0
  188.4120  172.4320  135.0570 N   0  0  0  0  0  2  0  0  0  0  0  0
  187.1710  174.2800  136.1150 N   0  0  0  0  0  2  0  0  0  0  0  0
  189.4070  171.4370  135.0380 N   0  0  0  0  0  2  0  0  0  0  0  0
  190.7900  171.7090  134.8010 C   0  0  0  0  0  0  0  0  0  0  0  0
  191.7620  170.4680  134.3620 S   0  0  0  0  0  0  0  0  0  0  0  0
  191.2940  173.0400  134.9870 N   0  0  0  0  0  2  0  0  0  0  0  0
  193.3270  174.8250  137.4580 C   0  0  2  0  0  3  0  0  0  0  0  0
  192.3010  173.9340  136.9640 C   0  0  2  0  0  3  0  0  0  0  0  0
  193.9840  173.9830  134.9970 S   0  0  0  0  0  0  0  0  0  0  0  0
  192.5720  175.8880  138.1280 N   0  0  0  0  0  2  0  0  0  0  0  0
  194.0340  175.3430  136.2150 C   0  0  0  0  0  2  0  0  0  0  0  0
  192.4410  173.4550  135.7410 C   0  0  2  0  0  3  0  0  0  0  0  0
  191.2650  175.3920  138.3870 N   0  0  0  0  0  2  0  0  0  0  0  0
  191.0750  174.2980  137.5300 N   0  0  0  0  0  2  0  0  0  0  0  0
  185.7730  177.3100  140.7630 C   0  0  0  0  0  2  0  0  0  0  0  0
  190.4910  177.6690  142.8430 C   0  0  0  0  0  3  0  0  0  0  0  0
  188.6690  177.2830  141.3100 C   0  0  0  0  0  3  0  0  0  0  0  0
  190.0410  177.2950  141.5750 C   0  0  0  0  0  3  0  0  0  0  0  0
  185.5180  178.0200  143.1390 C   0  0  0  0  0  3  0  0  0  0  0  0
  186.3700  177.6560  142.0920 C   0  0  0  0  0  0  0  0  0  0  0  0
  188.2590  178.0120  143.5800 C   0  0  0  0  0  0  0  0  0  0  0  0
  187.4000  178.3600  144.5730 N   0  0  0  0  0  0  0  0  0  0  0  0
  186.0530  178.3700  144.3800 C   0  0  0  0  0  0  0  0  0  0  0  0
  189.6000  178.0160  143.8100 N   0  0  0  0  0  0  0  0  0  0  0  0
  187.7600  177.6460  142.3100 C   0  0  0  0  0  0  0  0  0  0  0  0
  185.1770  178.7330  145.4590 C   0  0  0  0  0  0  0  0  0  0  0  0
  184.4690  179.0230  146.3270 N   0  0  0  0  0  0  0  0  0  0  0  0
  1 30  1  6  0  0  0
  1  9  1  0  0  0  0
  2 16  1  1  0  0  0
  2  6  1  0  0  0  0
  2 13  1  0  0  0  0
  3  1  1  0  0  0  0
  4 14  1  0  0  0  0
  6  3  1  6  0  0  0
  7  5  1  0  0  0  0
  7 14  2  0  0  0  0
  8  5  1  6  0  0  0
  8  6  1  0  0  0  0
  8 12  1  0  0  0  0
  9  8  1  0  0  0  0
 10 12  2  0  0  0  0
 11 15  1  0  0  0  0
 12 15  1  0  0  0  0
 13 18  1  0  0  0  0
 13 11  1  6  0  0  0
 14 10  1  0  0  0  0
 15 43  1  6  0  0  0
 17 21  1  0  0  0  0
 18 17  1  1  0  0  0
 19 22  1  6  0  0  0
 19 21  1  0  0  0  0
 20 18  1  0  0  0  0
 20 19  1  0  0  0  0
 23 24  1  0  0  0  0
 23 22  1  0  0  0  0
 25 23  2  0  0  0  0
 26 23  2  0  0  0  0
 28 27  2  0  0  0  0
 29 28  1  0  0  0  0
 30 28  1  0  0  0  0
 31 29  1  0  0  0  0
 32 34  1  0  0  0  0
 32 31  1  0  0  0  0
 33 32  2  0  0  0  0
 35 39  1  6  0  0  0
 35 38  1  0  0  0  0
 36 35  1  0  0  0  0
 36 42  1  6  0  0  0
 37 40  1  0  0  0  0
 37 39  1  0  0  0  0
 38 41  1  0  0  0  0
 40 34  1  6  0  0  0
 40 36  1  0  0  0  0
 42 41  1  0  0  0  0
 43 48  1  0  0  0  0
 44 52  2  0  0  0  0
 45 46  2  0  0  0  0
 45 53  1  0  0  0  0
 46 44  1  0  0  0  0
 47 51  2  0  0  0  0
 48 53  2  0  0  0  0
 48 47  1  0  0  0  0
 49 52  1  0  0  0  0
 49 50  2  0  0  0  0
 51 50  1  0  0  0  0
 51 54  1  0  0  0  0
 53 49  1  0  0  0  0
 54 55  3  0  0  0  0
M  END
>  <MODEL>
6

>  <REMARK>
 VINA RESULT:      -4.8      1.737      2.972
  Name = 
  11 active torsions:
  status: ('A' for Active; 'I' for Inactive)
    1  A    between atoms: C_3  and  N_54
    2  A    between atoms: N_10  and  S_17
    3  A    between atoms: N_10  and  C_36
    4  A    between atoms: C_23  and  N_25
    5  A    between atoms: C_24  and  C_43
    6  A    between atoms: N_25  and  C_40
    7  A    between atoms: C_30  and  N_34
    8  A    between atoms: N_39  and  N_41
    9  A    between atoms: C_40  and  N_41
   10  A    between atoms: C_43  and  C_47
   11  A    between atoms: C_46  and  C_48
                            x       y       z     vdW  Elec       q    Type
                         _______ _______ _______ _____ _____    ______ ____

>  <TORSDO>
F 11

$$$$
=
 OpenBabel10232408463D

 55 62  0  0  1  0  0  0  0  0999 V2000
  184.1250  177.9210  141.3260 C   0  0  2  0  0  3  0  0  0  0  0  0
  186.1040  178.0790  138.1130 C   0  0  2  0  0  3  0  0  0  0  0  0
  185.4870  178.0510  140.6800 C   0  0  0  0  0  2  0  0  0  0  0  0
  180.3120  180.3410  137.8000 F   0  0  0  0  0  0  0  0  0  0  0  0
  183.8290  179.9590  138.9380 C   0  0  0  0  0  2  0  0  0  0  0  0
  185.1210  177.7990  139.2600 C   0  0  1  0  0  3  0  0  0  0  0  0
  182.4420  180.5180  138.7350 C   0  0  0  0  0  3  0  0  0  0  0  0
  183.7530  178.4300  139.1390 C   0  0  1  0  0  0  0  0  0  0  0  0
  183.1090  178.1870  140.3720 O   0  0  0  0  0  0  0  0  0  0  0  0
  181.8850  178.4820  137.5220 C   0  0  0  0  0  3  0  0  0  0  0  0
  184.7420  177.1380  136.3750 C   0  0  0  0  0  2  0  0  0  0  0  0
  182.9570  177.8250  137.9860 C   0  0  0  0  0  0  0  0  0  0  0  0
  185.9930  176.9670  137.1370 N   0  0  1  0  0  0  0  0  0  0  0  0
  181.5330  179.8120  138.0530 C   0  0  0  0  0  0  0  0  0  0  0  0
  183.4830  176.7010  137.1410 C   0  0  2  0  0  3  0  0  0  0  0  0
  187.5250  178.2670  138.6590 C   0  0  0  0  0  1  0  0  0  0  0  0
  187.5630  178.3610  135.8840 C   0  0  0  0  0  2  0  0  0  0  0  0
  187.1430  176.9460  136.2040 C   0  0  1  0  0  3  0  0  0  0  0  0
  189.4090  177.0170  136.4210 C   0  0  2  0  0  3  0  0  0  0  0  0
  188.2620  176.2630  136.7330 O   0  0  0  0  0  0  0  0  0  0  0  0
  189.0140  178.2150  135.5910 C   0  0  0  0  0  2  0  0  0  0  0  0
  190.3560  176.1900  135.6890 N   0  0  0  0  0  2  0  0  0  0  0  0
  191.1910  175.1880  136.8300 S   0  0  0  0  0  0  0  0  0  0  0  0
  190.4760  173.6730  136.8840 F   0  0  0  0  0  0  0  0  0  0  0  0
  191.1140  175.8190  138.1900 O   0  0  0  0  0  0  0  0  0  0  0  0
  192.6310  175.0450  136.4290 O   0  0  0  0  0  0  0  0  0  0  0  0
  184.8360  177.2950  144.0030 O   0  0  0  0  0  0  0  0  0  0  0  0
  184.4350  178.4670  143.7680 C   0  0  0  0  0  0  0  0  0  0  0  0
  184.4540  179.4570  144.7990 N   0  0  0  0  0  2  0  0  0  0  0  0
  184.0180  178.8320  142.4550 N   0  0  0  0  0  2  0  0  0  0  0  0
  184.6670  179.1620  146.1580 N   0  0  0  0  0  2  0  0  0  0  0  0
  185.9640  178.9950  146.7350 C   0  0  0  0  0  0  0  0  0  0  0  0
  186.3850  179.9580  147.9900 S   0  0  0  0  0  0  0  0  0  0  0  0
  186.8670  178.0250  146.1850 N   0  0  0  0  0  2  0  0  0  0  0  0
  190.3250  177.4030  145.1460 C   0  0  2  0  0  3  0  0  0  0  0  0
  188.9800  177.9270  145.0680 C   0  0  2  0  0  3  0  0  0  0  0  0
  189.2940  177.5910  147.6150 S   0  0  0  0  0  0  0  0  0  0  0  0
  190.4020  176.4700  144.0170 N   0  0  0  0  0  2  0  0  0  0  0  0
  190.3890  176.6720  146.4780 C   0  0  0  0  0  2  0  0  0  0  0  0
  188.3010  178.0460  146.1940 C   0  0  2  0  0  3  0  0  0  0  0  0
  189.3500  176.7950  143.1170 N   0  0  0  0  0  2  0  0  0  0  0  0
  188.4160  177.5440  143.8470 N   0  0  0  0  0  2  0  0  0  0  0  0
  183.6540  175.3870  137.9010 C   0  0  0  0  0  2  0  0  0  0  0  0
  186.8240  171.7250  136.0960 C   0  0  0  0  0  3  0  0  0  0  0  0
  185.9450  173.6480  137.2560 C   0  0  0  0  0  3  0  0  0  0  0  0
  187.0180  172.8050  136.9610 C   0  0  0  0  0  3  0  0  0  0  0  0
  182.3500  173.9310  136.3530 C   0  0  0  0  0  3  0  0  0  0  0  0
  183.5750  174.2230  136.9620 C   0  0  0  0  0  0  0  0  0  0  0  0
  184.5380  172.3080  135.8160 C   0  0  0  0  0  0  0  0  0  0  0  0
  183.3320  172.0550  135.2440 N   0  0  0  0  0  0  0  0  0  0  0  0
  182.2460  172.8370  135.4920 C   0  0  0  0  0  0  0  0  0  0  0  0
  185.6000  171.5010  135.5460 N   0  0  0  0  0  0  0  0  0  0  0  0
  184.6880  173.4080  136.6900 C   0  0  0  0  0  0  0  0  0  0  0  0
  180.9920  172.5430  134.8590 C   0  0  0  0  0  0  0  0  0  0  0  0
  179.9820  172.3020  134.3460 N   0  0  0  0  0  0  0  0  0  0  0  0
  1 30  1  1  0  0  0
  2 16  1  1  0  0  0
  2  6  1  0  0  0  0
  3  1  1  0  0  0  0
  4 14  1  0  0  0  0
  6  3  1  1  0  0  0
  7  5  1  0  0  0  0
  8  5  1  6  0  0  0
  8  6  1  0  0  0  0
  8  9  1  0  0  0  0
  9  1  1  0  0  0  0
 10 12  2  0  0  0  0
 10 14  1  0  0  0  0
 11 15  1  0  0  0  0
 12  8  1  0  0  0  0
 13 11  1  6  0  0  0
 13  2  1  0  0  0  0
 14  7  2  0  0  0  0
 15 43  1  1  0  0  0
 15 12  1  0  0  0  0
 18 17  1  1  0  0  0
 18 20  1  0  0  0  0
 18 13  1  0  0  0  0
 19 22  1  6  0  0  0
 19 20  1  0  0  0  0
 21 17  1  0  0  0  0
 21 19  1  0  0  0  0
 22 23  1  0  0  0  0
 23 24  1  0  0  0  0
 23 25  2  0  0  0  0
 26 23  2  0  0  0  0
 28 27  2  0  0  0  0
 28 29  1  0  0  0  0
 29 31  1  0  0  0  0
 30 28  1  0  0  0  0
 31 32  1  0  0  0  0
 32 33  2  0  0  0  0
 34 32  1  0  0  0  0
 35 39  1  1  0  0  0
 36 42  1  6  0  0  0
 36 35  1  0  0  0  0
 36 40  1  0  0  0  0
 38 35  1  0  0  0  0
 39 37  1  0  0  0  0
 40 34  1  6  0  0  0
 40 37  1  0  0  0  0
 41 42  1  0  0  0  0
 41 38  1  0  0  0  0
 44 46  1  0  0  0  0
 46 45  2  0  0  0  0
 47 48  1  0  0  0  0
 48 43  1  0  0  0  0
 49 53  1  0  0  0  0
 50 51  1  0  0  0  0
 50 49  2  0  0  0  0
 51 47  2  0  0  0  0
 52 49  1  0  0  0  0
 52 44  2  0  0  0  0
 53 48  2  0  0  0  0
 53 45  1  0  0  0  0
 54 51  1  0  0  0  0
 55 54  3  0  0  0  0
M  END
>  <MODEL>
7

>  <REMARK>
 VINA RESULT:      -4.7      3.781      9.583
  Name = 
  11 active torsions:
  status: ('A' for Active; 'I' for Inactive)
    1  A    between atoms: C_3  and  N_54
    2  A    between atoms: N_10  and  S_17
    3  A    between atoms: N_10  and  C_36
    4  A    between atoms: C_23  and  N_25
    5  A    between atoms: C_24  and  C_43
    6  A    between atoms: N_25  and  C_40
    7  A    between atoms: C_30  and  N_34
    8  A    between atoms: N_39  and  N_41
    9  A    between atoms: C_40  and  N_41
   10  A    between atoms: C_43  and  C_47
   11  A    between atoms: C_46  and  C_48
                            x       y       z     vdW  Elec       q    Type
                         _______ _______ _______ _____ _____    ______ ____

>  <TORSDO>
F 11

$$$$
=
 OpenBabel10232408463D

 55 62  0  0  1  0  0  0  0  0999 V2000
  184.1810  177.9570  141.4670 C   0  0  2  0  0  3  0  0  0  0  0  0
  186.2080  178.0310  138.2810 C   0  0  2  0  0  3  0  0  0  0  0  0
  185.5550  178.0460  140.8400 C   0  0  0  0  0  2  0  0  0  0  0  0
  180.4790  180.4340  137.8630 F   0  0  0  0  0  0  0  0  0  0  0  0
  183.9700  179.9760  139.0540 C   0  0  0  0  0  2  0  0  0  0  0  0
  185.2020  177.7880  139.4170 C   0  0  1  0  0  3  0  0  0  0  0  0
  182.6000  180.5670  138.8260 C   0  0  0  0  0  3  0  0  0  0  0  0
  183.8530  178.4510  139.2700 C   0  0  1  0  0  0  0  0  0  0  0  0
  183.1860  178.2380  140.4960 O   0  0  0  0  0  0  0  0  0  0  0  0
  182.0090  178.5330  137.6270 C   0  0  0  0  0  3  0  0  0  0  0  0
  184.8460  177.1050  136.5340 C   0  0  0  0  0  2  0  0  0  0  0  0
  183.0570  177.8550  138.1130 C   0  0  0  0  0  0  0  0  0  0  0  0
  186.0830  176.9110  137.3150 N   0  0  1  0  0  0  0  0  0  0  0  0
  181.6830  179.8770  138.1380 C   0  0  0  0  0  0  0  0  0  0  0  0
  183.5670  176.7080  137.2870 C   0  0  2  0  0  3  0  0  0  0  0  0
  187.6260  178.1890  138.8460 C   0  0  0  0  0  1  0  0  0  0  0  0
  187.5310  178.2290  135.8510 C   0  0  0  0  0  2  0  0  0  0  0  0
  187.2440  176.8520  136.3990 C   0  0  1  0  0  3  0  0  0  0  0  0
  189.4880  177.1800  136.6030 C   0  0  2  0  0  3  0  0  0  0  0  0
  188.4160  176.3770  137.0330 O   0  0  0  0  0  0  0  0  0  0  0  0
  188.9940  178.1810  135.5870 C   0  0  0  0  0  2  0  0  0  0  0  0
  190.5240  176.3410  136.0160 N   0  0  0  0  0  2  0  0  0  0  0  0
  191.4930  175.7020  137.3030 S   0  0  0  0  0  0  0  0  0  0  0  0
  193.0700  175.4940  136.7770 F   0  0  0  0  0  0  0  0  0  0  0  0
  190.9350  174.3750  137.7290 O   0  0  0  0  0  0  0  0  0  0  0  0
  191.4780  176.6450  138.4720 O   0  0  0  0  0  0  0  0  0  0  0  0
  184.8340  177.3410  144.1620 O   0  0  0  0  0  0  0  0  0  0  0  0
  184.4680  178.5210  143.9080 C   0  0  0  0  0  0  0  0  0  0  0  0
  184.4990  179.5210  144.9290 N   0  0  0  0  0  2  0  0  0  0  0  0
  184.0820  178.8830  142.5850 N   0  0  0  0  0  2  0  0  0  0  0  0
  184.6820  179.2340  146.2940 N   0  0  0  0  0  2  0  0  0  0  0  0
  185.9650  179.0420  146.8940 C   0  0  0  0  0  0  0  0  0  0  0  0
  186.4150  180.0470  148.1060 S   0  0  0  0  0  0  0  0  0  0  0  0
  186.8320  178.0090  146.4030 N   0  0  0  0  0  2  0  0  0  0  0  0
  190.1830  177.4370  145.0380 C   0  0  2  0  0  3  0  0  0  0  0  0
  188.8360  177.9590  145.0990 C   0  0  2  0  0  3  0  0  0  0  0  0
  189.3760  177.5290  147.5940 S   0  0  0  0  0  0  0  0  0  0  0  0
  190.1590  176.5470  143.8720 N   0  0  0  0  0  2  0  0  0  0  0  0
  190.3650  176.6570  146.3300 C   0  0  0  0  0  2  0  0  0  0  0  0
  188.2610  178.0330  146.2850 C   0  0  2  0  0  3  0  0  0  0  0  0
  189.0320  176.9010  143.0820 N   0  0  0  0  0  2  0  0  0  0  0  0
  188.1660  177.6200  143.9190 N   0  0  0  0  0  2  0  0  0  0  0  0
  183.6940  175.3990  138.0630 C   0  0  0  0  0  2  0  0  0  0  0  0
  180.0370  172.9310  135.3710 C   0  0  0  0  0  3  0  0  0  0  0  0
  181.1790  174.4550  136.8500 C   0  0  0  0  0  3  0  0  0  0  0  0
  179.9960  174.0130  136.2530 C   0  0  0  0  0  3  0  0  0  0  0  0
  184.7810  173.5380  136.8100 C   0  0  0  0  0  3  0  0  0  0  0  0
  183.6090  174.2280  137.1340 C   0  0  0  0  0  0  0  0  0  0  0  0
  182.3840  172.7220  135.6700 C   0  0  0  0  0  0  0  0  0  0  0  0
  183.5440  172.0760  135.3790 N   0  0  0  0  0  0  0  0  0  0  0  0
  184.7290  172.4580  135.9270 C   0  0  0  0  0  0  0  0  0  0  0  0
  181.2180  172.3130  135.1010 N   0  0  0  0  0  0  0  0  0  0  0  0
  182.3900  173.8170  136.5630 C   0  0  0  0  0  0  0  0  0  0  0  0
  185.9310  171.7420  135.6020 C   0  0  0  0  0  0  0  0  0  0  0  0
  186.9030  171.1680  135.3430 N   0  0  0  0  0  0  0  0  0  0  0  0
  1 30  1  1  0  0  0
  2 16  1  1  0  0  0
  2  6  1  0  0  0  0
  3  1  1  0  0  0  0
  4 14  1  0  0  0  0
  6  3  1  1  0  0  0
  7  5  1  0  0  0  0
  8  5  1  6  0  0  0
  8  6  1  0  0  0  0
  8  9  1  0  0  0  0
  9  1  1  0  0  0  0
 10 12  2  0  0  0  0
 10 14  1  0  0  0  0
 11 15  1  0  0  0  0
 12  8  1  0  0  0  0
 13 11  1  6  0  0  0
 13  2  1  0  0  0  0
 14  7  2  0  0  0  0
 15 43  1  1  0  0  0
 15 12  1  0  0  0  0
 18 17  1  1  0  0  0
 18 20  1  0  0  0  0
 18 13  1  0  0  0  0
 19 22  1  6  0  0  0
 19 20  1  0  0  0  0
 21 17  1  0  0  0  0
 21 19  1  0  0  0  0
 22 23  1  0  0  0  0
 23 25  2  0  0  0  0
 23 26  2  0  0  0  0
 24 23  1  0  0  0  0
 28 27  2  0  0  0  0
 28 29  1  0  0  0  0
 29 31  1  0  0  0  0
 30 28  1  0  0  0  0
 31 32  1  0  0  0  0
 32 33  2  0  0  0  0
 34 32  1  0  0  0  0
 35 36  1  0  0  0  0
 35 39  1  1  0  0  0
 36 42  1  6  0  0  0
 36 40  1  0  0  0  0
 38 35  1  0  0  0  0
 39 37  1  0  0  0  0
 40 34  1  6  0  0  0
 40 37  1  0  0  0  0
 41 38  1  0  0  0  0
 41 42  1  0  0  0  0
 44 46  1  0  0  0  0
 46 45  2  0  0  0  0
 47 48  1  0  0  0  0
 48 43  1  0  0  0  0
 49 53  1  0  0  0  0
 50 49  2  0  0  0  0
 50 51  1  0  0  0  0
 51 47  2  0  0  0  0
 52 44  2  0  0  0  0
 52 49  1  0  0  0  0
 53 45  1  0  0  0  0
 53 48  2  0  0  0  0
 54 51  1  0  0  0  0
 55 54  3  0  0  0  0
M  END
>  <MODEL>
8

>  <REMARK>
 VINA RESULT:      -4.6      3.761      9.408
  Name = 
  11 active torsions:
  status: ('A' for Active; 'I' for Inactive)
    1  A    between atoms: C_3  and  N_54
    2  A    between atoms: N_10  and  S_17
    3  A    between atoms: N_10  and  C_36
    4  A    between atoms: C_23  and  N_25
    5  A    between atoms: C_24  and  C_43
    6  A    between atoms: N_25  and  C_40
    7  A    between atoms: C_30  and  N_34
    8  A    between atoms: N_39  and  N_41
    9  A    between atoms: C_40  and  N_41
   10  A    between atoms: C_43  and  C_47
   11  A    between atoms: C_46  and  C_48
                            x       y       z     vdW  Elec       q    Type
                         _______ _______ _______ _____ _____    ______ ____

>  <TORSDO>
F 11

$$$$
=
 OpenBabel10232408463D

 55 62  0  0  1  0  0  0  0  0999 V2000
  188.9840  176.6390  139.6520 C   0  0  2  0  0  3  0  0  0  0  0  0
  191.8370  175.9940  137.2630 C   0  0  2  0  0  3  0  0  0  0  0  0
  190.4820  176.5310  139.4650 C   0  0  0  0  0  2  0  0  0  0  0  0
  186.7720  178.5920  134.7400 F   0  0  0  0  0  0  0  0  0  0  0  0
  189.7000  178.1730  136.9920 C   0  0  0  0  0  2  0  0  0  0  0  0
  190.5270  176.0280  138.0650 C   0  0  1  0  0  3  0  0  0  0  0  0
  188.5280  178.7860  136.2650 C   0  0  0  0  0  3  0  0  0  0  0  0
  189.3580  176.7260  137.4090 C   0  0  1  0  0  0  0  0  0  0  0  0
  188.3470  176.7860  138.3930 O   0  0  0  0  0  0  0  0  0  0  0  0
  188.0860  176.5980  135.2940 C   0  0  0  0  0  3  0  0  0  0  0  0
  190.9430  174.8320  135.3620 C   0  0  0  0  0  2  0  0  0  0  0  0
  188.8690  175.9660  136.1800 C   0  0  0  0  0  0  0  0  0  0  0  0
  191.8730  174.7200  136.5020 N   0  0  1  0  0  0  0  0  0  0  0  0
  187.7770  178.0300  135.4550 C   0  0  0  0  0  0  0  0  0  0  0  0
  189.4650  174.6570  135.7470 C   0  0  2  0  0  3  0  0  0  0  0  0
  193.0410  176.1760  138.1970 C   0  0  0  0  0  1  0  0  0  0  0  0
  193.8170  175.6540  135.3510 C   0  0  0  0  0  2  0  0  0  0  0  0
  193.2340  174.4230  136.0040 C   0  0  1  0  0  3  0  0  0  0  0  0
  195.3470  174.6570  136.8220 C   0  0  2  0  0  3  0  0  0  0  0  0
  194.1140  174.0120  137.0320 O   0  0  0  0  0  0  0  0  0  0  0  0
  195.2790  175.4740  135.5550 C   0  0  0  0  0  2  0  0  0  0  0  0
  196.4080  173.6650  136.7220 N   0  0  0  0  0  2  0  0  0  0  0  0
  197.9000  174.4250  137.1730 S   0  0  0  0  0  0  0  0  0  0  0  0
  198.8170  173.3720  138.0980 F   0  0  0  0  0  0  0  0  0  0  0  0
  197.6010  175.6570  137.9770 O   0  0  0  0  0  0  0  0  0  0  0  0
  198.6710  174.8100  135.9430 O   0  0  0  0  0  0  0  0  0  0  0  0
  188.0750  176.4290  142.3350 O   0  0  0  0  0  0  0  0  0  0  0  0
  188.2590  177.5880  141.8730 C   0  0  0  0  0  0  0  0  0  0  0  0
  188.1210  178.7330  142.7190 N   0  0  0  0  0  2  0  0  0  0  0  0
  188.6700  177.7640  140.5200 N   0  0  0  0  0  2  0  0  0  0  0  0
  187.5460  178.6870  144.0020 N   0  0  0  0  0  2  0  0  0  0  0  0
  188.1470  178.0150  145.1120 C   0  0  0  0  0  0  0  0  0  0  0  0
  187.1850  177.5510  146.3520 S   0  0  0  0  0  0  0  0  0  0  0  0
  189.5650  177.7980  145.1270 N   0  0  0  0  0  2  0  0  0  0  0  0
  191.9040  175.4060  146.6210 C   0  0  2  0  0  3  0  0  0  0  0  0
  190.7790  176.3110  146.5550 C   0  0  2  0  0  3  0  0  0  0  0  0
  191.0850  175.6270  144.0770 S   0  0  0  0  0  0  0  0  0  0  0  0
  192.8100  176.0470  147.5800 N   0  0  0  0  0  2  0  0  0  0  0  0
  192.4920  175.4010  145.2190 C   0  0  0  0  0  2  0  0  0  0  0  0
  190.2710  176.5720  145.3640 C   0  0  2  0  0  3  0  0  0  0  0  0
  192.0510  176.9860  148.3300 N   0  0  0  0  0  2  0  0  0  0  0  0
  190.8920  177.2500  147.5850 N   0  0  0  0  0  2  0  0  0  0  0  0
  189.2180  173.5130  136.7290 C   0  0  0  0  0  2  0  0  0  0  0  0
  186.9090  169.4270  134.5670 C   0  0  0  0  0  3  0  0  0  0  0  0
  188.5610  171.0320  135.2810 C   0  0  0  0  0  3  0  0  0  0  0  0
  188.2400  169.8460  134.6160 C   0  0  0  0  0  3  0  0  0  0  0  0
  186.7680  173.6950  137.1560 C   0  0  0  0  0  3  0  0  0  0  0  0
  187.8250  172.9850  136.5780 C   0  0  0  0  0  0  0  0  0  0  0  0
  186.2190  171.3290  135.8110 C   0  0  0  0  0  0  0  0  0  0  0  0
  185.2190  172.0460  136.3850 N   0  0  0  0  0  0  0  0  0  0  0  0
  185.4640  173.2090  137.0480 C   0  0  0  0  0  0  0  0  0  0  0  0
  185.9350  170.1690  135.1580 N   0  0  0  0  0  0  0  0  0  0  0  0
  187.5530  171.7870  135.8910 C   0  0  0  0  0  0  0  0  0  0  0  0
  184.3770  173.9440  137.6320 C   0  0  0  0  0  0  0  0  0  0  0  0
  183.4990  174.5320  138.1050 N   0  0  0  0  0  0  0  0  0  0  0  0
  1 30  1  1  0  0  0
  2  6  1  0  0  0  0
  2 16  1  1  0  0  0
  3  1  1  0  0  0  0
  4 14  1  0  0  0  0
  6  3  1  1  0  0  0
  7  5  1  0  0  0  0
  8  5  1  6  0  0  0
  8  6  1  0  0  0  0
  8  9  1  0  0  0  0
  9  1  1  0  0  0  0
 10 14  1  0  0  0  0
 10 12  2  0  0  0  0
 11 15  1  0  0  0  0
 12  8  1  0  0  0  0
 13 11  1  6  0  0  0
 13  2  1  0  0  0  0
 14  7  2  0  0  0  0
 15 12  1  0  0  0  0
 15 43  1  1  0  0  0
 17 21  1  0  0  0  0
 18 17  1  1  0  0  0
 18 13  1  0  0  0  0
 18 20  1  0  0  0  0
 19 22  1  6  0  0  0
 19 20  1  0  0  0  0
 21 19  1  0  0  0  0
 22 23  1  0  0  0  0
 23 25  2  0  0  0  0
 23 24  1  0  0  0  0
 26 23  2  0  0  0  0
 28 27  2  0  0  0  0
 28 29  1  0  0  0  0
 29 31  1  0  0  0  0
 30 28  1  0  0  0  0
 31 32  1  0  0  0  0
 32 34  1  0  0  0  0
 32 33  2  0  0  0  0
 35 39  1  6  0  0  0
 35 38  1  0  0  0  0
 36 35  1  0  0  0  0
 36 42  1  6  0  0  0
 37 39  1  0  0  0  0
 37 40  1  0  0  0  0
 38 41  1  0  0  0  0
 40 34  1  6  0  0  0
 40 36  1  0  0  0  0
 42 41  1  0  0  0  0
 44 46  1  0  0  0  0
 44 52  2  0  0  0  0
 45 53  1  0  0  0  0
 46 45  2  0  0  0  0
 48 43  1  0  0  0  0
 48 47  1  0  0  0  0
 49 53  1  0  0  0  0
 49 50  2  0  0  0  0
 50 51  1  0  0  0  0
 51 47  2  0  0  0  0
 51 54  1  0  0  0  0
 52 49  1  0  0  0  0
 53 48  2  0  0  0  0
 54 55  3  0  0  0  0
M  END
>  <MODEL>
9

>  <REMARK>
 VINA RESULT:      -4.5      5.163     11.274
  Name = 
  11 active torsions:
  status: ('A' for Active; 'I' for Inactive)
    1  A    between atoms: C_3  and  N_54
    2  A    between atoms: N_10  and  S_17
    3  A    between atoms: N_10  and  C_36
    4  A    between atoms: C_23  and  N_25
    5  A    between atoms: C_24  and  C_43
    6  A    between atoms: N_25  and  C_40
    7  A    between atoms: C_30  and  N_34
    8  A    between atoms: N_39  and  N_41
    9  A    between atoms: C_40  and  N_41
   10  A    between atoms: C_43  and  C_47
   11  A    between atoms: C_46  and  C_48
                            x       y       z     vdW  Elec       q    Type
                         _______ _______ _______ _____ _____    ______ ____

>  <TORSDO>
F 11

$$$$
