=
 OpenBabel10232411283D

 36 39  0  0  1  0  0  0  0  0999 V2000
  181.3850  179.7050  135.0080 C   0  0  0  0  0  2  0  0  0  0  0  0
  188.0130  177.1000  137.7220 C   0  0  1  0  0  3  0  0  0  0  0  0
  184.1650  178.2790  140.1620 C   0  0  0  0  0  0  0  0  0  0  0  0
  187.6370  177.9640  135.5720 C   0  0  0  0  0  2  0  0  0  0  0  0
  186.2360  179.0920  141.2300 N   0  0  0  0  0  2  0  0  0  0  0  0
  187.6320  178.8270  141.1140 C   0  0  0  0  0  0  0  0  0  0  0  0
  187.4090  176.0700  136.9870 O   0  0  0  0  0  0  0  0  0  0  0  0
  183.0510  179.5120  138.3960 C   0  0  0  0  0  3  0  0  0  0  0  0
  181.0510  178.5690  137.1930 C   0  0  1  0  0  3  0  0  0  0  0  0
  185.3860  177.1020  136.2130 C   0  0  0  0  0  2  0  0  0  0  0  0
  184.0850  179.4010  139.3260 C   0  0  0  0  0  3  0  0  0  0  0  0
  186.8260  176.7140  135.8800 C   0  0  1  0  0  3  0  0  0  0  0  0
  189.0260  176.5550  138.7380 C   0  0  2  0  0  3  0  0  0  0  0  0
  188.5730  178.1050  136.7400 C   0  0  0  0  0  2  0  0  0  0  0  0
  182.9720  176.5170  136.1060 C   0  0  0  0  0  2  0  0  0  0  0  0
  188.0720  177.5890  140.5510 N   0  0  0  0  0  2  0  0  0  0  0  0
  189.2540  177.5330  139.8010 N   0  0  0  0  0  2  0  0  0  0  0  0
  182.1150  177.4070  139.1820 C   0  0  0  0  0  0  0  0  0  0  0  0
  179.9840  179.6210  137.5060 C   0  0  0  0  0  1  0  0  0  0  0  0
  182.6270  177.7160  135.3550 N   0  0  0  0  0  2  0  0  0  0  0  0
  181.6780  178.6880  135.8130 C   0  0  0  0  0  0  0  0  0  0  0  0
  184.6170  174.7230  136.4560 C   0  0  0  0  0  1  0  0  0  0  0  0
  183.1860  177.2880  140.0810 C   0  0  0  0  0  3  0  0  0  0  0  0
  188.4670  179.7290  141.4030 O   0  0  0  0  0  0  0  0  0  0  0  0
  184.3730  176.0480  135.7540 C   0  0  2  0  0  3  0  0  0  0  0  0
  185.3040  178.0730  140.9940 N   0  0  0  0  0  2  0  0  0  0  0  0
  182.0800  178.5060  138.2920 C   0  0  0  0  0  0  0  0  0  0  0  0
  181.0580  175.4240  140.2620 C   0  0  0  0  0  2  0  0  0  0  0  0
  181.0810  176.2990  139.0880 C   0  0  1  0  0  3  0  0  0  0  0  0
  180.2320  177.3970  140.9900 O   0  0  0  0  0  1  0  0  0  0  0  0
  179.9820  176.4110  140.0900 N   0  0  0  0  0  0  0  0  0  0  0  0
  191.4420  176.4000  138.7310 N   0  0  0  0  0  0  0  0  0  0  0  0
  190.3280  176.1510  138.1190 C   0  0  0  0  0  3  0  0  0  0  0  0
  192.9300  174.7890  137.5610 N   0  0  0  0  0  1  0  0  0  0  0  0
  192.7120  176.0600  138.1720 C   0  0  0  0  0  0  0  0  0  0  0  0
  193.6530  176.8920  138.2220 O   0  0  0  0  0  0  0  0  0  0  0  0
  1 21  2  0  0  0  0
  2 14  1  6  0  0  0
  2 13  1  0  0  0  0
  3 26  1  0  0  0  0
  4 14  1  0  0  0  0
  6  5  1  0  0  0  0
  6 24  2  0  0  0  0
  7  2  1  0  0  0  0
  8 11  1  0  0  0  0
  9 19  1  1  0  0  0
  9 27  1  0  0  0  0
 11  3  2  0  0  0  0
 12  4  1  1  0  0  0
 12 10  1  0  0  0  0
 12  7  1  0  0  0  0
 13 33  1  6  0  0  0
 13 17  1  0  0  0  0
 16  6  1  0  0  0  0
 17 16  1  0  0  0  0
 18 23  2  0  0  0  0
 20 21  1  0  0  0  0
 20 15  1  0  0  0  0
 21  9  1  0  0  0  0
 23  3  1  0  0  0  0
 25 15  1  0  0  0  0
 25 10  1  0  0  0  0
 25 22  1  1  0  0  0
 26  5  1  0  0  0  0
 27  8  2  0  0  0  0
 27 18  1  0  0  0  0
 29 18  1  1  0  0  0
 29 31  1  0  0  0  0
 29 28  1  0  0  0  0
 31 28  1  0  0  0  0
 31 30  1  0  0  0  0
 33 32  2  0  0  0  0
 34 35  1  0  0  0  0
 35 36  2  0  0  0  0
 35 32  1  0  0  0  0
M  END
>  <MODEL>
1

>  <REMARK>
 VINA RESULT:      -5.3      0.000      0.000
  Name = 
  3 active torsions:
  status: ('A' for Active; 'I' for Inactive)
    1  A    between atoms: N_3  and  C_28
    2  A    between atoms: C_8  and  C_16
    3  A    between atoms: C_21  and  C_23
                            x       y       z     vdW  Elec       q    Type
                         _______ _______ _______ _____ _____    ______ ____

>  <TORSDO>
F 3

$$$$
=
 OpenBabel10232411283D

 36 39  0  0  1  0  0  0  0  0999 V2000
  183.7440  177.7310  140.7550 C   0  0  0  0  0  1  0  0  0  0  0  0
  188.7630  174.6400  135.9250 C   0  0  1  0  0  3  0  0  0  0  0  0
  184.0790  174.1850  135.8930 C   0  0  0  0  0  0  0  0  0  0  0  0
  189.2510  175.5820  138.0190 C   0  0  0  0  0  2  0  0  0  0  0  0
  185.2300  172.0470  135.4530 N   0  0  0  0  0  2  0  0  0  0  0  0
  186.5450  171.6360  135.0900 C   0  0  0  0  0  0  0  0  0  0  0  0
  188.7760  176.0280  135.7350 O   0  0  0  0  0  0  0  0  0  0  0  0
  183.6790  175.0010  138.1410 C   0  0  0  0  0  3  0  0  0  0  0  0
  182.6770  177.2720  138.5580 C   0  0  1  0  0  3  0  0  0  0  0  0
  187.1720  176.7880  137.3500 C   0  0  0  0  0  2  0  0  0  0  0  0
  184.1730  174.0190  137.2810 C   0  0  0  0  0  3  0  0  0  0  0  0
  188.6500  176.5680  137.0280 C   0  0  1  0  0  3  0  0  0  0  0  0
  189.2840  173.8930  134.6890 C   0  0  2  0  0  3  0  0  0  0  0  0
  189.5020  174.3390  137.2100 C   0  0  0  0  0  2  0  0  0  0  0  0
  185.2410  178.3520  137.4000 C   0  0  0  0  0  2  0  0  0  0  0  0
  187.4260  172.5660  134.4550 N   0  0  0  0  0  2  0  0  0  0  0  0
  188.8050  172.5110  134.6940 N   0  0  0  0  0  2  0  0  0  0  0  0
  182.9180  176.2980  136.2270 C   0  0  0  0  0  0  0  0  0  0  0  0
  181.4030  176.9060  139.3240 C   0  0  0  0  0  1  0  0  0  0  0  0
  185.0510  178.2090  138.8360 N   0  0  0  0  0  0  0  0  0  0  0  0
  183.8290  177.7500  139.4280 C   0  0  0  0  0  0  0  0  0  0  0  0
  186.8580  178.5150  135.5540 C   0  0  0  0  0  1  0  0  0  0  0  0
  183.4590  175.3240  135.3750 C   0  0  0  0  0  3  0  0  0  0  0  0
  186.9620  170.4940  135.4320 O   0  0  0  0  0  0  0  0  0  0  0  0
  186.7090  178.2140  137.0350 C   0  0  2  0  0  3  0  0  0  0  0  0
  184.7270  173.2770  135.0070 N   0  0  0  0  0  2  0  0  0  0  0  0
  183.0800  176.1590  137.6260 C   0  0  0  0  0  0  0  0  0  0  0  0
  181.6190  177.3090  134.3550 C   0  0  0  0  0  2  0  0  0  0  0  0
  182.2790  177.5450  135.6400 C   0  0  1  0  0  3  0  0  0  0  0  0
  180.3320  176.2430  135.8750 O   0  0  0  0  0  1  0  0  0  0  0  0
  180.7920  177.4800  135.5580 N   0  0  0  0  0  0  0  0  0  0  0  0
  191.4500  172.8170  134.5830 N   0  0  0  0  0  0  0  0  0  0  0  0
  190.7750  173.9230  134.5630 C   0  0  0  0  0  3  0  0  0  0  0  0
  193.5850  171.5610  134.3700 N   0  0  0  0  0  1  0  0  0  0  0  0
  192.8760  172.7930  134.4940 C   0  0  0  0  0  0  0  0  0  0  0  0
  193.5170  173.8740  134.5270 O   0  0  0  0  0  0  0  0  0  0  0  0
  2 14  1  1  0  0  0
  3 11  1  0  0  0  0
  6 24  2  0  0  0  0
  6  5  1  0  0  0  0
  7  2  1  0  0  0  0
  7 12  1  0  0  0  0
  9 19  1  1  0  0  0
  9 21  1  0  0  0  0
 11  8  2  0  0  0  0
 12 10  1  1  0  0  0
 12  4  1  0  0  0  0
 13 33  1  1  0  0  0
 13 17  1  0  0  0  0
 13  2  1  0  0  0  0
 14  4  1  0  0  0  0
 15 20  1  0  0  0  0
 16 17  1  0  0  0  0
 16  6  1  0  0  0  0
 18 27  2  0  0  0  0
 20 21  2  0  0  0  0
 21  1  1  0  0  0  0
 23  3  2  0  0  0  0
 23 18  1  0  0  0  0
 25 22  1  6  0  0  0
 25 10  1  0  0  0  0
 25 15  1  0  0  0  0
 26  5  1  0  0  0  0
 26  3  1  0  0  0  0
 27  8  1  0  0  0  0
 27  9  1  0  0  0  0
 28 31  1  0  0  0  0
 28 29  1  0  0  0  0
 29 18  1  1  0  0  0
 31 29  1  0  0  0  0
 31 30  1  0  0  0  0
 33 32  2  0  0  0  0
 34 35  1  0  0  0  0
 35 36  2  0  0  0  0
 35 32  1  0  0  0  0
M  END
>  <MODEL>
2

>  <REMARK>
 VINA RESULT:      -4.0      3.270      5.369
  Name = 
  3 active torsions:
  status: ('A' for Active; 'I' for Inactive)
    1  A    between atoms: N_3  and  C_28
    2  A    between atoms: C_8  and  C_16
    3  A    between atoms: C_21  and  C_23
                            x       y       z     vdW  Elec       q    Type
                         _______ _______ _______ _____ _____    ______ ____

>  <TORSDO>
F 3

$$$$
=
 OpenBabel10232411283D

 36 39  0  0  1  0  0  0  0  0999 V2000
  180.7680  175.6660  134.3460 C   0  0  0  0  0  2  0  0  0  0  0  0
  188.0530  174.7770  136.3990 C   0  0  1  0  0  3  0  0  0  0  0  0
  184.9580  177.9150  138.0490 C   0  0  0  0  0  0  0  0  0  0  0  0
  187.0380  173.9030  134.4720 C   0  0  0  0  0  2  0  0  0  0  0  0
  187.1810  178.9120  137.6560 N   0  0  0  0  0  2  0  0  0  0  0  0
  188.5050  178.4310  137.4390 C   0  0  0  0  0  0  0  0  0  0  0  0
  187.3440  173.6420  136.8130 O   0  0  0  0  0  0  0  0  0  0  0  0
  183.3150  177.6810  136.2800 C   0  0  0  0  0  3  0  0  0  0  0  0
  181.1320  176.4880  136.6630 C   0  0  1  0  0  3  0  0  0  0  0  0
  185.1180  174.1140  136.0500 C   0  0  0  0  0  2  0  0  0  0  0  0
  184.5720  178.1050  136.7150 C   0  0  0  0  0  3  0  0  0  0  0  0
  186.4340  173.3890  135.7700 C   0  0  1  0  0  3  0  0  0  0  0  0
  189.3430  174.9670  137.2090 C   0  0  2  0  0  3  0  0  0  0  0  0
  188.2480  174.6840  134.9020 C   0  0  0  0  0  2  0  0  0  0  0  0
  182.8150  174.0100  136.9820 C   0  0  0  0  0  2  0  0  0  0  0  0
  188.8580  177.1130  137.8640 N   0  0  0  0  0  2  0  0  0  0  0  0
  189.7870  176.3590  137.1350 N   0  0  0  0  0  2  0  0  0  0  0  0
  182.7830  176.9370  138.5370 C   0  0  0  0  0  0  0  0  0  0  0  0
  180.1220  177.5990  136.3600 C   0  0  0  0  0  1  0  0  0  0  0  0
  182.1930  174.3530  135.7110 N   0  0  0  0  0  2  0  0  0  0  0  0
  181.3430  175.4930  135.5320 C   0  0  0  0  0  0  0  0  0  0  0  0
  184.6150  172.7720  138.1120 C   0  0  0  0  0  1  0  0  0  0  0  0
  184.0660  177.3280  138.9480 C   0  0  0  0  0  3  0  0  0  0  0  0
  189.3230  179.1270  136.7730 O   0  0  0  0  0  0  0  0  0  0  0  0
  184.0940  173.2200  136.7580 C   0  0  2  0  0  3  0  0  0  0  0  0
  186.2930  178.1880  138.4640 N   0  0  0  0  0  2  0  0  0  0  0  0
  182.4260  177.0660  137.1740 C   0  0  0  0  0  0  0  0  0  0  0  0
  181.9810  176.7760  140.8910 C   0  0  0  0  0  2  0  0  0  0  0  0
  181.8430  176.2690  139.5250 C   0  0  1  0  0  3  0  0  0  0  0  0
  181.0440  178.4740  139.7320 O   0  0  0  0  0  1  0  0  0  0  0  0
  180.8150  177.1860  140.0960 N   0  0  0  0  0  0  0  0  0  0  0  0
  191.6790  174.3510  137.0560 N   0  0  0  0  0  0  0  0  0  0  0  0
  190.4480  174.0490  136.7880 C   0  0  0  0  0  3  0  0  0  0  0  0
  194.0210  173.5660  137.3420 N   0  0  0  0  0  1  0  0  0  0  0  0
  192.7720  173.5220  136.6530 C   0  0  0  0  0  0  0  0  0  0  0  0
  192.6310  172.7450  135.6750 O   0  0  0  0  0  0  0  0  0  0  0  0
  1 21  2  0  0  0  0
  2 14  1  6  0  0  0
  2  7  1  0  0  0  0
  2 13  1  0  0  0  0
  3 26  1  0  0  0  0
  3 23  1  0  0  0  0
  4 14  1  0  0  0  0
  5 26  1  0  0  0  0
  6  5  1  0  0  0  0
  6 16  1  0  0  0  0
  8 11  1  0  0  0  0
  8 27  2  0  0  0  0
  9 19  1  6  0  0  0
  9 27  1  0  0  0  0
 10 25  1  0  0  0  0
 11  3  2  0  0  0  0
 12  4  1  6  0  0  0
 12 10  1  0  0  0  0
 12  7  1  0  0  0  0
 13 33  1  6  0  0  0
 17 13  1  0  0  0  0
 17 16  1  0  0  0  0
 18 23  2  0  0  0  0
 20 15  1  0  0  0  0
 21 20  1  0  0  0  0
 21  9  1  0  0  0  0
 24  6  2  0  0  0  0
 25 15  1  0  0  0  0
 25 22  1  1  0  0  0
 27 18  1  0  0  0  0
 29 18  1  6  0  0  0
 29 31  1  0  0  0  0
 29 28  1  0  0  0  0
 30 31  1  0  0  0  0
 31 28  1  0  0  0  0
 33 32  2  0  0  0  0
 35 32  1  0  0  0  0
 35 34  1  0  0  0  0
 36 35  2  0  0  0  0
M  END
>  <MODEL>
3

>  <REMARK>
 VINA RESULT:      -3.9      2.347      2.910
  Name = 
  3 active torsions:
  status: ('A' for Active; 'I' for Inactive)
    1  A    between atoms: N_3  and  C_28
    2  A    between atoms: C_8  and  C_16
    3  A    between atoms: C_21  and  C_23
                            x       y       z     vdW  Elec       q    Type
                         _______ _______ _______ _____ _____    ______ ____

>  <TORSDO>
F 3

$$$$
=
 OpenBabel10232411283D

 36 39  0  0  1  0  0  0  0  0999 V2000
  199.3120  173.2620  134.3510 C   0  0  0  0  0  2  0  0  0  0  0  0
  192.5050  175.3740  137.0510 C   0  0  1  0  0  3  0  0  0  0  0  0
  193.8690  171.0690  135.7270 C   0  0  0  0  0  0  0  0  0  0  0  0
  194.1750  176.8020  136.2270 C   0  0  0  0  0  2  0  0  0  0  0  0
  191.5940  171.6130  134.9400 N   0  0  0  0  0  2  0  0  0  0  0  0
  190.6030  172.5910  135.2400 C   0  0  0  0  0  0  0  0  0  0  0  0
  193.4440  175.5120  138.0830 O   0  0  0  0  0  0  0  0  0  0  0  0
  195.8550  171.7400  134.5080 C   0  0  0  0  0  3  0  0  0  0  0  0
  198.1630  171.3400  135.4300 C   0  0  1  0  0  3  0  0  0  0  0  0
  195.4860  174.8340  137.0210 C   0  0  0  0  0  2  0  0  0  0  0  0
  194.4650  171.6920  134.6220 C   0  0  0  0  0  3  0  0  0  0  0  0
  194.6010  176.0040  137.4500 C   0  0  1  0  0  3  0  0  0  0  0  0
  191.0780  175.2320  137.5980 C   0  0  2  0  0  3  0  0  0  0  0  0
  192.7060  176.5170  136.0820 C   0  0  0  0  0  2  0  0  0  0  0  0
  197.4030  173.3420  137.5500 C   0  0  0  0  0  2  0  0  0  0  0  0
  190.6350  173.2650  136.5010 N   0  0  0  0  0  2  0  0  0  0  0  0
  190.2150  174.5980  136.6020 N   0  0  0  0  0  2  0  0  0  0  0  0
  196.0720  170.4680  136.5720 C   0  0  0  0  0  0  0  0  0  0  0  0
  198.7730  170.4480  134.3460 C   0  0  0  0  0  1  0  0  0  0  0  0
  198.1460  173.7330  136.3610 N   0  0  0  0  0  2  0  0  0  0  0  0
  198.5730  172.8030  135.3570 C   0  0  0  0  0  0  0  0  0  0  0  0
  195.9260  174.0760  139.3740 C   0  0  0  0  0  1  0  0  0  0  0  0
  194.6740  170.4670  136.6960 C   0  0  0  0  0  3  0  0  0  0  0  0
  189.7750  172.9380  134.3520 O   0  0  0  0  0  0  0  0  0  0  0  0
  196.5600  174.4990  138.0610 C   0  0  2  0  0  3  0  0  0  0  0  0
  192.4640  171.1590  135.9410 N   0  0  0  0  0  2  0  0  0  0  0  0
  196.6680  171.1610  135.4920 C   0  0  0  0  0  0  0  0  0  0  0  0
  196.2870  168.6940  138.3100 C   0  0  0  0  0  2  0  0  0  0  0  0
  196.9270  169.8380  137.6570 C   0  0  1  0  0  3  0  0  0  0  0  0
  196.7710  167.9780  136.2220 O   0  0  0  0  0  1  0  0  0  0  0  0
  197.3700  168.4490  137.3460 N   0  0  0  0  0  0  0  0  0  0  0  0
  189.7020  176.5630  139.0790 N   0  0  0  0  0  0  0  0  0  0  0  0
  190.4830  176.5300  138.0460 C   0  0  0  0  0  3  0  0  0  0  0  0
  188.5320  178.7050  138.6090 N   0  0  0  0  0  1  0  0  0  0  0  0
  189.0880  177.7710  139.5330 C   0  0  0  0  0  0  0  0  0  0  0  0
  189.0390  178.0150  140.7650 O   0  0  0  0  0  0  0  0  0  0  0  0
  1 21  2  0  0  0  0
  2 14  1  6  0  0  0
  2 13  1  0  0  0  0
  2  7  1  0  0  0  0
  3 26  1  0  0  0  0
  3 23  1  0  0  0  0
  5  6  1  0  0  0  0
  5 26  1  0  0  0  0
  6 16  1  0  0  0  0
  8 11  1  0  0  0  0
  8 27  2  0  0  0  0
  9 19  1  6  0  0  0
  9 27  1  0  0  0  0
 10 12  1  0  0  0  0
 10 25  1  0  0  0  0
 11  3  2  0  0  0  0
 12  4  1  6  0  0  0
 12  7  1  0  0  0  0
 13 33  1  6  0  0  0
 14  4  1  0  0  0  0
 15 25  1  0  0  0  0
 16 17  1  0  0  0  0
 17 13  1  0  0  0  0
 18 23  2  0  0  0  0
 20 15  1  0  0  0  0
 21  9  1  0  0  0  0
 21 20  1  0  0  0  0
 24  6  2  0  0  0  0
 25 22  1  1  0  0  0
 27 18  1  0  0  0  0
 29 18  1  6  0  0  0
 29 28  1  0  0  0  0
 30 31  1  0  0  0  0
 31 29  1  0  0  0  0
 31 28  1  0  0  0  0
 32 35  1  0  0  0  0
 33 32  2  0  0  0  0
 34 35  1  0  0  0  0
 35 36  2  0  0  0  0
M  END
>  <MODEL>
4

>  <REMARK>
 VINA RESULT:      -3.9      5.700     12.664
  Name = 
  3 active torsions:
  status: ('A' for Active; 'I' for Inactive)
    1  A    between atoms: N_3  and  C_28
    2  A    between atoms: C_8  and  C_16
    3  A    between atoms: C_21  and  C_23
                            x       y       z     vdW  Elec       q    Type
                         _______ _______ _______ _____ _____    ______ ____

>  <TORSDO>
F 3

$$$$
=
 OpenBabel10232411283D

 36 39  0  0  1  0  0  0  0  0999 V2000
  192.0230  171.8880  134.6530 C   0  0  0  0  0  1  0  0  0  0  0  0
  187.7780  177.1840  138.1190 C   0  0  1  0  0  3  0  0  0  0  0  0
  192.3780  176.3610  138.6760 C   0  0  0  0  0  0  0  0  0  0  0  0
  186.9800  175.3090  136.9550 C   0  0  0  0  0  2  0  0  0  0  0  0
  191.2360  176.7790  140.8240 N   0  0  0  0  0  2  0  0  0  0  0  0
  189.9860  177.3220  141.2410 C   0  0  0  0  0  0  0  0  0  0  0  0
  187.8530  177.5090  136.7580 O   0  0  0  0  0  0  0  0  0  0  0  0
  192.4230  174.1690  137.6400 C   0  0  0  0  0  3  0  0  0  0  0  0
  193.4280  173.8120  135.3600 C   0  0  1  0  0  3  0  0  0  0  0  0
  189.1870  175.7240  135.8700 C   0  0  0  0  0  2  0  0  0  0  0  0
  192.0440  175.0010  138.6950 C   0  0  0  0  0  3  0  0  0  0  0  0
  187.7780  176.2730  136.0900 C   0  0  1  0  0  3  0  0  0  0  0  0
  187.4450  178.4110  138.9790 C   0  0  2  0  0  3  0  0  0  0  0  0
  186.8210  176.0220  138.2680 C   0  0  0  0  0  2  0  0  0  0  0  0
  191.1420  175.4960  134.3510 C   0  0  0  0  0  2  0  0  0  0  0  0
  189.2630  178.1880  140.3630 N   0  0  0  0  0  2  0  0  0  0  0  0
  187.8620  178.1870  140.3630 N   0  0  0  0  0  2  0  0  0  0  0  0
  193.5480  176.0410  136.5660 C   0  0  0  0  0  0  0  0  0  0  0  0
  194.5380  172.8050  135.6720 C   0  0  0  0  0  1  0  0  0  0  0  0
  191.0800  174.0410  134.3490 N   0  0  0  0  0  0  0  0  0  0  0  0
  192.1650  173.2050  134.7700 C   0  0  0  0  0  0  0  0  0  0  0  0
  189.8690  177.6000  134.3460 C   0  0  0  0  0  1  0  0  0  0  0  0
  193.1210  176.8730  137.6110 C   0  0  0  0  0  3  0  0  0  0  0  0
  189.4730  176.9460  142.3320 O   0  0  0  0  0  0  0  0  0  0  0  0
  189.7520  176.0930  134.4950 C   0  0  2  0  0  3  0  0  0  0  0  0
  191.8550  177.2510  139.6580 N   0  0  0  0  0  2  0  0  0  0  0  0
  193.1460  174.6850  136.5550 C   0  0  0  0  0  0  0  0  0  0  0  0
  195.2720  177.6720  135.8020 C   0  0  0  0  0  2  0  0  0  0  0  0
  194.3250  176.6290  135.4010 C   0  0  1  0  0  3  0  0  0  0  0  0
  196.1420  175.7520  136.6150 O   0  0  0  0  0  1  0  0  0  0  0  0
  195.7880  176.3420  135.4440 N   0  0  0  0  0  0  0  0  0  0  0  0
  185.3260  178.9290  140.0290 N   0  0  0  0  0  0  0  0  0  0  0  0
  185.9990  178.7950  138.9300 C   0  0  0  0  0  3  0  0  0  0  0  0
  183.0400  178.6720  140.9710 N   0  0  0  0  0  1  0  0  0  0  0  0
  183.9380  179.2670  140.0360 C   0  0  0  0  0  0  0  0  0  0  0  0
  183.5010  180.1010  139.2020 O   0  0  0  0  0  0  0  0  0  0  0  0
  1 21  1  0  0  0  0
  2 14  1  6  0  0  0
  2 13  1  0  0  0  0
  3 11  1  0  0  0  0
  3 26  1  0  0  0  0
  4 14  1  0  0  0  0
  5  6  1  0  0  0  0
  6 24  2  0  0  0  0
  7  2  1  0  0  0  0
  8 11  2  0  0  0  0
  9 19  1  1  0  0  0
  9 27  1  0  0  0  0
 12 10  1  1  0  0  0
 12  7  1  0  0  0  0
 12  4  1  0  0  0  0
 13 33  1  1  0  0  0
 13 17  1  0  0  0  0
 15 25  1  0  0  0  0
 16  6  1  0  0  0  0
 17 16  1  0  0  0  0
 18 23  1  0  0  0  0
 20 15  1  0  0  0  0
 20 21  2  0  0  0  0
 21  9  1  0  0  0  0
 23  3  2  0  0  0  0
 25 22  1  1  0  0  0
 25 10  1  0  0  0  0
 26  5  1  0  0  0  0
 27 18  2  0  0  0  0
 27  8  1  0  0  0  0
 29 31  1  0  0  0  0
 29 28  1  0  0  0  0
 29 18  1  1  0  0  0
 31 28  1  0  0  0  0
 31 30  1  0  0  0  0
 32 35  1  0  0  0  0
 33 32  2  0  0  0  0
 35 34  1  0  0  0  0
 36 35  2  0  0  0  0
M  END
>  <MODEL>
5

>  <REMARK>
 VINA RESULT:      -3.7      3.012      9.353
  Name = 
  3 active torsions:
  status: ('A' for Active; 'I' for Inactive)
    1  A    between atoms: N_3  and  C_28
    2  A    between atoms: C_8  and  C_16
    3  A    between atoms: C_21  and  C_23
                            x       y       z     vdW  Elec       q    Type
                         _______ _______ _______ _____ _____    ______ ____

>  <TORSDO>
F 3

$$$$
=
 OpenBabel10232411283D

 36 39  0  0  1  0  0  0  0  0999 V2000
  180.2370  176.3140  141.6260 C   0  0  0  0  0  2  0  0  0  0  0  0
  187.6520  177.8240  142.5300 C   0  0  1  0  0  3  0  0  0  0  0  0
  185.0040  178.5730  138.7120 C   0  0  0  0  0  0  0  0  0  0  0  0
  186.3430  176.4310  143.8920 C   0  0  0  0  0  2  0  0  0  0  0  0
  187.2190  177.6430  138.1460 N   0  0  0  0  0  2  0  0  0  0  0  0
  188.4700  177.4780  138.8080 C   0  0  0  0  0  0  0  0  0  0  0  0
  186.9290  178.6750  143.3770 O   0  0  0  0  0  0  0  0  0  0  0  0
  183.1370  177.1670  139.3560 C   0  0  0  0  0  3  0  0  0  0  0  0
  180.9470  178.1530  140.1120 C   0  0  1  0  0  3  0  0  0  0  0  0
  184.6590  178.0170  142.9590 C   0  0  0  0  0  2  0  0  0  0  0  0
  184.4630  177.3020  138.9440 C   0  0  0  0  0  3  0  0  0  0  0  0
  185.8780  177.8790  143.8710 C   0  0  1  0  0  3  0  0  0  0  0  0
  189.0450  178.3870  142.2140 C   0  0  2  0  0  3  0  0  0  0  0  0
  187.6470  176.4420  143.1430 C   0  0  0  0  0  2  0  0  0  0  0  0
  182.4930  179.1480  142.4990 C   0  0  0  0  0  2  0  0  0  0  0  0
  188.7880  178.2980  139.9350 N   0  0  0  0  0  2  0  0  0  0  0  0
  189.5650  177.7900  140.9840 N   0  0  0  0  0  2  0  0  0  0  0  0
  182.8510  179.5820  139.2320 C   0  0  0  0  0  0  0  0  0  0  0  0
  179.9820  177.5830  139.0700 C   0  0  0  0  0  1  0  0  0  0  0  0
  181.7370  177.9040  142.5420 N   0  0  0  0  0  2  0  0  0  0  0  0
  180.9460  177.4240  141.4470 C   0  0  0  0  0  0  0  0  0  0  0  0
  184.3380  180.4560  143.4640 C   0  0  0  0  0  1  0  0  0  0  0  0
  184.1980  179.7030  138.8630 C   0  0  0  0  0  3  0  0  0  0  0  0
  189.2390  176.5350  138.4690 O   0  0  0  0  0  0  0  0  0  0  0  0
  183.6790  179.0880  143.4480 C   0  0  2  0  0  3  0  0  0  0  0  0
  186.3970  178.7350  138.4570 N   0  0  0  0  0  2  0  0  0  0  0  0
  182.3310  178.3010  139.5350 C   0  0  0  0  0  0  0  0  0  0  0  0
  182.3470  181.9100  138.5000 C   0  0  0  0  0  2  0  0  0  0  0  0
  182.0040  180.8270  139.4240 C   0  0  1  0  0  3  0  0  0  0  0  0
  181.3790  180.3280  137.2090 O   0  0  0  0  0  1  0  0  0  0  0  0
  181.1170  181.1390  138.2670 N   0  0  0  0  0  0  0  0  0  0  0  0
  190.5810  177.0520  143.5250 N   0  0  0  0  0  0  0  0  0  0  0  0
  190.0240  178.2060  143.3310 C   0  0  0  0  0  3  0  0  0  0  0  0
  192.0050  175.5120  144.8590 N   0  0  0  0  0  1  0  0  0  0  0  0
  191.5020  176.8200  144.5930 C   0  0  0  0  0  0  0  0  0  0  0  0
  191.8720  177.7830  145.3110 O   0  0  0  0  0  0  0  0  0  0  0  0
  2 14  1  1  0  0  0
  2  7  1  0  0  0  0
  3 23  2  0  0  0  0
  3 11  1  0  0  0  0
  5 26  1  0  0  0  0
  5  6  1  0  0  0  0
  6 16  1  0  0  0  0
  7 12  1  0  0  0  0
  8 27  1  0  0  0  0
  9 19  1  6  0  0  0
  9 21  1  0  0  0  0
 10 25  1  0  0  0  0
 11  8  2  0  0  0  0
 12 10  1  6  0  0  0
 12  4  1  0  0  0  0
 13  2  1  0  0  0  0
 13 33  1  1  0  0  0
 14  4  1  0  0  0  0
 15 20  1  0  0  0  0
 15 25  1  0  0  0  0
 16 17  1  0  0  0  0
 17 13  1  0  0  0  0
 18 27  2  0  0  0  0
 21  1  2  0  0  0  0
 21 20  1  0  0  0  0
 23 18  1  0  0  0  0
 24  6  2  0  0  0  0
 25 22  1  6  0  0  0
 26  3  1  0  0  0  0
 27  9  1  0  0  0  0
 28 29  1  0  0  0  0
 29 18  1  6  0  0  0
 30 31  1  0  0  0  0
 31 28  1  0  0  0  0
 31 29  1  0  0  0  0
 32 35  1  0  0  0  0
 33 32  2  0  0  0  0
 35 34  1  0  0  0  0
 35 36  2  0  0  0  0
M  END
>  <MODEL>
6

>  <REMARK>
 VINA RESULT:      -3.5      3.043      5.484
  Name = 
  3 active torsions:
  status: ('A' for Active; 'I' for Inactive)
    1  A    between atoms: N_3  and  C_28
    2  A    between atoms: C_8  and  C_16
    3  A    between atoms: C_21  and  C_23
                            x       y       z     vdW  Elec       q    Type
                         _______ _______ _______ _____ _____    ______ ____

>  <TORSDO>
F 3

$$$$
=
 OpenBabel10232411283D

 36 39  0  0  1  0  0  0  0  0999 V2000
  183.9000  178.8890  134.3460 C   0  0  0  0  0  2  0  0  0  0  0  0
  187.7520  177.6920  140.8120 C   0  0  1  0  0  3  0  0  0  0  0  0
  183.1080  177.3690  140.1240 C   0  0  0  0  0  0  0  0  0  0  0  0
  188.5580  178.7880  138.8990 C   0  0  0  0  0  2  0  0  0  0  0  0
  183.6630  178.5000  142.2460 N   0  0  0  0  0  2  0  0  0  0  0  0
  184.8150  178.6360  143.0740 C   0  0  0  0  0  0  0  0  0  0  0  0
  188.1040  176.6850  139.9030 O   0  0  0  0  0  0  0  0  0  0  0  0
  183.0300  178.5530  138.0090 C   0  0  0  0  0  3  0  0  0  0  0  0
  182.6510  177.3410  135.8360 C   0  0  1  0  0  3  0  0  0  0  0  0
  186.8200  177.2640  137.9610 C   0  0  0  0  0  2  0  0  0  0  0  0
  183.2210  178.5580  139.3920 C   0  0  0  0  0  3  0  0  0  0  0  0
  188.1780  177.3350  138.6580 C   0  0  1  0  0  3  0  0  0  0  0  0
  188.0110  177.2650  142.2630 C   0  0  2  0  0  3  0  0  0  0  0  0
  188.4510  178.9650  140.3880 C   0  0  0  0  0  2  0  0  0  0  0  0
  185.3470  176.0920  136.3380 C   0  0  0  0  0  2  0  0  0  0  0  0
  185.8700  177.6770  142.9810 N   0  0  0  0  0  2  0  0  0  0  0  0
  187.2010  178.0670  143.1790 N   0  0  0  0  0  2  0  0  0  0  0  0
  182.5310  176.1710  138.0850 C   0  0  0  0  0  0  0  0  0  0  0  0
  181.3630  178.0030  135.3390 C   0  0  0  0  0  1  0  0  0  0  0  0
  185.1950  177.2690  135.4950 N   0  0  0  0  0  2  0  0  0  0  0  0
  183.9260  177.8610  135.1880 C   0  0  0  0  0  0  0  0  0  0  0  0
  186.8660  174.7630  137.7430 C   0  0  0  0  0  1  0  0  0  0  0  0
  182.7700  176.1850  139.4670 C   0  0  0  0  0  3  0  0  0  0  0  0
  184.9470  179.6620  143.7990 O   0  0  0  0  0  0  0  0  0  0  0  0
  186.7150  176.0780  136.9980 C   0  0  2  0  0  3  0  0  0  0  0  0
  183.4650  177.3280  141.5030 N   0  0  0  0  0  2  0  0  0  0  0  0
  182.7180  177.3610  137.3410 C   0  0  0  0  0  0  0  0  0  0  0  0
  181.3400  173.9840  138.1810 C   0  0  0  0  0  2  0  0  0  0  0  0
  182.1990  174.8640  137.3870 C   0  0  1  0  0  3  0  0  0  0  0  0
  180.0110  175.7110  137.5820 O   0  0  0  0  0  1  0  0  0  0  0  0
  180.7560  174.7110  137.0440 N   0  0  0  0  0  0  0  0  0  0  0  0
  189.8890  176.6340  143.6530 N   0  0  0  0  0  0  0  0  0  0  0  0
  189.4540  177.3330  142.6530 C   0  0  0  0  0  3  0  0  0  0  0  0
  191.8830  175.5420  144.6600 N   0  0  0  0  0  1  0  0  0  0  0  0
  191.2520  176.6830  144.0830 C   0  0  0  0  0  0  0  0  0  0  0  0
  191.9030  177.7510  143.9520 O   0  0  0  0  0  0  0  0  0  0  0  0
  1 21  2  0  0  0  0
  2 14  1  6  0  0  0
  2 13  1  0  0  0  0
  3 26  1  0  0  0  0
  4 14  1  0  0  0  0
  5  6  1  0  0  0  0
  6 24  2  0  0  0  0
  7  2  1  0  0  0  0
  8 11  1  0  0  0  0
  9 19  1  1  0  0  0
  9 27  1  0  0  0  0
 11  3  2  0  0  0  0
 12 10  1  1  0  0  0
 12  4  1  0  0  0  0
 12  7  1  0  0  0  0
 13 33  1  1  0  0  0
 13 17  1  0  0  0  0
 15 25  1  0  0  0  0
 16  6  1  0  0  0  0
 16 17  1  0  0  0  0
 18 23  2  0  0  0  0
 20 15  1  0  0  0  0
 21 20  1  0  0  0  0
 21  9  1  0  0  0  0
 23  3  1  0  0  0  0
 25 22  1  1  0  0  0
 25 10  1  0  0  0  0
 26  5  1  0  0  0  0
 27  8  2  0  0  0  0
 27 18  1  0  0  0  0
 29 18  1  1  0  0  0
 29 28  1  0  0  0  0
 31 29  1  0  0  0  0
 31 30  1  0  0  0  0
 31 28  1  0  0  0  0
 32 35  1  0  0  0  0
 33 32  2  0  0  0  0
 35 34  1  0  0  0  0
 36 35  2  0  0  0  0
M  END
>  <MODEL>
7

>  <REMARK>
 VINA RESULT:      -2.4      2.788      3.441
  Name = 
  3 active torsions:
  status: ('A' for Active; 'I' for Inactive)
    1  A    between atoms: N_3  and  C_28
    2  A    between atoms: C_8  and  C_16
    3  A    between atoms: C_21  and  C_23
                            x       y       z     vdW  Elec       q    Type
                         _______ _______ _______ _____ _____    ______ ____

>  <TORSDO>
F 3

$$$$
