=
 OpenBabel10232408523D

 25 28  0  0  1  0  0  0  0  0999 V2000
  186.8960  178.8740  140.7680 N   0  0  0  0  0  0  0  0  0  0  0  0
  187.8850  178.1210  142.7470 C   0  0  1  0  0  3  0  0  0  0  0  0
  188.8000  177.9340  141.5670 C   0  0  0  0  0  0  0  0  0  0  0  0
  190.0620  177.4660  141.6160 C   0  0  0  0  0  0  0  0  0  0  0  0
  190.6560  177.4410  139.1790 N   0  0  0  0  0  0  0  0  0  0  0  0
  186.7270  178.7660  142.1500 N   0  0  0  0  0  2  0  0  0  0  0  0
  190.9020  177.2110  140.4320 C   0  0  0  0  0  3  0  0  0  0  0  0
  189.5330  178.0100  138.4980 C   0  0  0  0  0  3  0  0  0  0  0  0
  188.0420  178.4080  140.4140 C   0  0  0  0  0  0  0  0  0  0  0  0
  188.4340  178.4180  139.0450 N   0  0  0  0  0  0  0  0  0  0  0  0
  191.1910  175.9840  143.2020 N   0  0  0  0  0  0  0  0  0  0  0  0
  190.8140  178.1010  144.0600 C   0  0  0  0  0  2  0  0  0  0  0  0
  191.5140  177.2640  145.1290 C   0  0  2  0  0  3  0  0  0  0  0  0
  191.6940  175.9670  144.5010 N   0  0  0  0  0  2  0  0  0  0  0  0
  190.7140  177.1450  142.9120 C   0  0  0  0  0  0  0  0  0  0  0  0
  190.6450  177.1280  146.3000 C   0  0  0  0  0  0  0  0  0  0  0  0
  189.9590  177.0200  147.2250 N   0  0  0  0  0  0  0  0  0  0  0  0
  187.4710  176.7890  143.2990 C   0  0  0  0  0  3  0  0  0  0  0  0
  186.7900  176.6220  144.4340 C   0  0  0  0  0  3  0  0  0  0  0  0
  186.3520  177.6960  145.3440 C   0  0  0  0  0  0  0  0  0  0  0  0
  185.1090  179.3180  146.2190 N   0  0  0  0  0  0  0  0  0  0  0  0
  186.2180  179.0860  146.9580 C   0  0  0  0  0  3  0  0  0  0  0  0
  185.2080  178.4380  145.2120 C   0  0  0  0  0  0  0  0  0  0  0  0
  184.2460  178.3120  144.1710 N   0  0  0  0  0  1  0  0  0  0  0  0
  186.9980  178.1010  146.4520 N   0  0  0  0  0  2  0  0  0  0  0  0
  1  6  1  0  0  0  0
  2 18  1  6  0  0  0
  3  4  2  0  0  0  0
  3  2  1  0  0  0  0
  4 15  1  0  0  0  0
  5  7  2  0  0  0  0
  6  2  1  0  0  0  0
  7  4  1  0  0  0  0
  8 10  2  0  0  0  0
  8  5  1  0  0  0  0
  9  1  2  0  0  0  0
  9  3  1  0  0  0  0
 10  9  1  0  0  0  0
 11 14  1  0  0  0  0
 12 13  1  0  0  0  0
 13 16  1  1  0  0  0
 14 13  1  0  0  0  0
 15 11  2  0  0  0  0
 15 12  1  0  0  0  0
 16 17  3  0  0  0  0
 18 19  2  0  0  0  0
 19 20  1  0  0  0  0
 20 25  1  0  0  0  0
 21 22  2  0  0  0  0
 23 20  2  0  0  0  0
 23 21  1  0  0  0  0
 24 23  1  0  0  0  0
 25 22  1  0  0  0  0
M  END
>  <MODEL>
1

>  <REMARK>
 VINA RESULT:      -8.0      0.000      0.000
  Name = 
  4 active torsions:
  status: ('A' for Active; 'I' for Inactive)
    1  A    between atoms: C_3  and  C_6
    2  A    between atoms: C_4  and  C_16
    3  A    between atoms: C_8  and  C_12
    4  A    between atoms: C_10  and  C_22
                            x       y       z     vdW  Elec       q    Type
                         _______ _______ _______ _____ _____    ______ ____

>  <TORSDO>
F 4

$$$$
=
 OpenBabel10232408523D

 25 28  0  0  1  0  0  0  0  0999 V2000
  188.1770  177.7870  146.5160 N   0  0  0  0  0  0  0  0  0  0  0  0
  188.1560  177.6350  144.1840 C   0  0  1  0  0  3  0  0  0  0  0  0
  186.8140  178.0530  144.7220 C   0  0  0  0  0  0  0  0  0  0  0  0
  185.7360  178.3780  143.9830 C   0  0  0  0  0  0  0  0  0  0  0  0
  184.0370  178.8040  145.7790 N   0  0  0  0  0  0  0  0  0  0  0  0
  188.9630  177.5400  145.3890 N   0  0  0  0  0  2  0  0  0  0  0  0
  184.4090  178.6960  144.5410 C   0  0  0  0  0  3  0  0  0  0  0  0
  184.7380  178.6700  147.0180 C   0  0  0  0  0  3  0  0  0  0  0  0
  186.9690  178.0680  146.1730 C   0  0  0  0  0  0  0  0  0  0  0  0
  185.9860  178.3600  147.1610 N   0  0  0  0  0  0  0  0  0  0  0  0
  186.8500  178.7940  141.8450 N   0  0  0  0  0  0  0  0  0  0  0  0
  184.6480  178.1250  141.5970 C   0  0  0  0  0  2  0  0  0  0  0  0
  185.2410  178.3600  140.2090 C   0  0  2  0  0  3  0  0  0  0  0  0
  186.6050  178.7810  140.4730 N   0  0  0  0  0  2  0  0  0  0  0  0
  185.8050  178.4220  142.4990 C   0  0  0  0  0  0  0  0  0  0  0  0
  184.5140  179.4390  139.5360 C   0  0  0  0  0  0  0  0  0  0  0  0
  183.9410  180.2910  139.0040 N   0  0  0  0  0  0  0  0  0  0  0  0
  188.0620  176.2800  143.5510 C   0  0  0  0  0  3  0  0  0  0  0  0
  188.9400  175.7980  142.6680 C   0  0  0  0  0  3  0  0  0  0  0  0
  190.1220  176.5100  142.1490 C   0  0  0  0  0  0  0  0  0  0  0  0
  192.1940  177.3010  142.0170 N   0  0  0  0  0  0  0  0  0  0  0  0
  191.4600  177.6420  140.9320 C   0  0  0  0  0  3  0  0  0  0  0  0
  191.3400  176.5910  142.7680 C   0  0  2  0  0  3  0  0  0  0  0  0
  191.6800  176.0140  144.0240 N   0  0  0  0  0  1  0  0  0  0  0  0
  190.1910  177.1730  140.9810 N   0  0  0  0  0  0  0  0  0  0  0  0
  2 18  1  1  0  0  0
  2  3  1  0  0  0  0
  2  6  1  0  0  0  0
  3  9  1  0  0  0  0
  4  7  1  0  0  0  0
  4  3  2  0  0  0  0
  5  8  1  0  0  0  0
  6  1  1  0  0  0  0
  7  5  2  0  0  0  0
  8 10  2  0  0  0  0
  9  1  2  0  0  0  0
  9 10  1  0  0  0  0
 11 15  2  0  0  0  0
 12 15  1  0  0  0  0
 13 16  1  1  0  0  0
 13 14  1  0  0  0  0
 13 12  1  0  0  0  0
 14 11  1  0  0  0  0
 15  4  1  0  0  0  0
 17 16  3  0  0  0  0
 19 18  2  0  0  0  0
 20 19  1  0  0  0  0
 20 23  1  0  0  0  0
 21 23  1  0  0  0  0
 22 25  1  0  0  0  0
 22 21  2  0  0  0  0
 23 24  1  6  0  0  0
 25 20  2  0  0  0  0
M  END
>  <MODEL>
2

>  <REMARK>
 VINA RESULT:      -7.8      1.854      6.884
  Name = 
  4 active torsions:
  status: ('A' for Active; 'I' for Inactive)
    1  A    between atoms: C_3  and  C_6
    2  A    between atoms: C_4  and  C_16
    3  A    between atoms: C_8  and  C_12
    4  A    between atoms: C_10  and  C_22
                            x       y       z     vdW  Elec       q    Type
                         _______ _______ _______ _____ _____    ______ ____

>  <TORSDO>
F 4

$$$$
=
 OpenBabel10232408523D

 25 28  0  0  1  0  0  0  0  0999 V2000
  184.4830  178.4880  142.4130 N   0  0  0  0  0  0  0  0  0  0  0  0
  186.7500  177.9960  142.1240 C   0  0  1  0  0  3  0  0  0  0  0  0
  186.3770  178.0420  143.5810 C   0  0  0  0  0  0  0  0  0  0  0  0
  187.1980  177.7680  144.6130 C   0  0  0  0  0  0  0  0  0  0  0  0
  185.6860  178.2290  146.5610 N   0  0  0  0  0  0  0  0  0  0  0  0
  185.4770  178.2400  141.4640 N   0  0  0  0  0  2  0  0  0  0  0  0
  186.8270  177.9090  146.0320 C   0  0  0  0  0  3  0  0  0  0  0  0
  184.4090  178.5420  145.9970 C   0  0  0  0  0  3  0  0  0  0  0  0
  184.9610  178.3920  143.6040 C   0  0  0  0  0  0  0  0  0  0  0  0
  184.1230  178.6020  144.7370 N   0  0  0  0  0  0  0  0  0  0  0  0
  188.8940  176.2730  143.6770 N   0  0  0  0  0  0  0  0  0  0  0  0
  189.7950  177.9280  145.0200 C   0  0  0  0  0  2  0  0  0  0  0  0
  190.9360  177.0560  144.4970 C   0  0  2  0  0  3  0  0  0  0  0  0
  190.2690  176.0550  143.6830 N   0  0  0  0  0  2  0  0  0  0  0  0
  188.5920  177.3050  144.3850 C   0  0  0  0  0  0  0  0  0  0  0  0
  191.6160  176.4050  145.6180 C   0  0  0  0  0  0  0  0  0  0  0  0
  192.1540  175.8900  146.5040 N   0  0  0  0  0  0  0  0  0  0  0  0
  187.6940  179.1120  141.7940 C   0  0  0  0  0  3  0  0  0  0  0  0
  188.5830  179.0790  140.7980 C   0  0  0  0  0  3  0  0  0  0  0  0
  188.8070  177.9490  139.8800 C   0  0  0  0  0  0  0  0  0  0  0  0
  188.5560  176.5840  138.1430 N   0  0  0  0  0  0  0  0  0  0  0  0
  189.5940  176.2090  138.9260 C   0  0  0  0  0  3  0  0  0  0  0  0
  188.0760  177.6760  138.7550 C   0  0  0  0  0  0  0  0  0  0  0  0
  186.9650  178.4280  138.2780 N   0  0  0  0  0  1  0  0  0  0  0  0
  189.7750  177.0220  139.9940 N   0  0  0  0  0  2  0  0  0  0  0  0
  1  9  2  0  0  0  0
  2 18  1  1  0  0  0
  2  3  1  0  0  0  0
  3  9  1  0  0  0  0
  3  4  2  0  0  0  0
  4  7  1  0  0  0  0
  6  2  1  0  0  0  0
  6  1  1  0  0  0  0
  7  5  2  0  0  0  0
  8  5  1  0  0  0  0
  9 10  1  0  0  0  0
 10  8  2  0  0  0  0
 11 14  1  0  0  0  0
 11 15  2  0  0  0  0
 13 12  1  0  0  0  0
 13 16  1  1  0  0  0
 14 13  1  0  0  0  0
 15  4  1  0  0  0  0
 15 12  1  0  0  0  0
 16 17  3  0  0  0  0
 19 18  2  0  0  0  0
 20 25  1  0  0  0  0
 20 19  1  0  0  0  0
 21 23  1  0  0  0  0
 21 22  2  0  0  0  0
 22 25  1  0  0  0  0
 23 20  2  0  0  0  0
 24 23  1  0  0  0  0
M  END
>  <MODEL>
3

>  <REMARK>
 VINA RESULT:      -7.3      1.494      5.389
  Name = 
  4 active torsions:
  status: ('A' for Active; 'I' for Inactive)
    1  A    between atoms: C_3  and  C_6
    2  A    between atoms: C_4  and  C_16
    3  A    between atoms: C_8  and  C_12
    4  A    between atoms: C_10  and  C_22
                            x       y       z     vdW  Elec       q    Type
                         _______ _______ _______ _____ _____    ______ ____

>  <TORSDO>
F 4

$$$$
=
 OpenBabel10232408523D

 25 28  0  0  1  0  0  0  0  0999 V2000
  190.6300  176.8220  140.7700 N   0  0  0  0  0  0  0  0  0  0  0  0
  189.4350  177.4350  142.6830 C   0  0  1  0  0  3  0  0  0  0  0  0
  188.6320  177.6710  141.4310 C   0  0  0  0  0  0  0  0  0  0  0  0
  187.3590  178.1070  141.3830 C   0  0  0  0  0  0  0  0  0  0  0  0
  187.0020  178.2640  138.9050 N   0  0  0  0  0  0  0  0  0  0  0  0
  190.6620  176.8520  142.1660 N   0  0  0  0  0  2  0  0  0  0  0  0
  186.6300  178.4140  140.1390 C   0  0  0  0  0  3  0  0  0  0  0  0
  188.2000  177.7600  138.3060 C   0  0  0  0  0  3  0  0  0  0  0  0
  189.5110  177.2820  140.3330 C   0  0  0  0  0  0  0  0  0  0  0  0
  189.2520  177.3450  138.9340 N   0  0  0  0  0  0  0  0  0  0  0  0
  186.6020  177.5460  143.6410 N   0  0  0  0  0  0  0  0  0  0  0  0
  185.6070  179.4630  142.8080 C   0  0  0  0  0  2  0  0  0  0  0  0
  185.0610  179.2060  144.2120 C   0  0  2  0  0  3  0  0  0  0  0  0
  185.7340  177.9910  144.6360 N   0  0  0  0  0  2  0  0  0  0  0  0
  186.5770  178.3380  142.6260 C   0  0  0  0  0  0  0  0  0  0  0  0
  183.6170  178.9720  144.1470 C   0  0  0  0  0  0  0  0  0  0  0  0
  182.4760  178.7880  144.0960 N   0  0  0  0  0  0  0  0  0  0  0  0
  189.7560  178.7410  143.3460 C   0  0  0  0  0  3  0  0  0  0  0  0
  190.2840  178.8560  144.5670 C   0  0  0  0  0  3  0  0  0  0  0  0
  190.6160  177.7410  145.4730 C   0  0  0  0  0  0  0  0  0  0  0  0
  190.3980  176.2050  147.0640 N   0  0  0  0  0  0  0  0  0  0  0  0
  191.6070  176.1310  146.4620 C   0  0  0  0  0  3  0  0  0  0  0  0
  189.7890  177.2180  146.4310 C   0  0  2  0  0  3  0  0  0  0  0  0
  188.4710  177.6630  146.7310 N   0  0  0  0  0  1  0  0  0  0  0  0
  191.7720  177.0530  145.4850 N   0  0  0  0  0  0  0  0  0  0  0  0
  1  6  1  0  0  0  0
  2 18  1  6  0  0  0
  3  2  1  0  0  0  0
  4  3  2  0  0  0  0
  4 15  1  0  0  0  0
  5  7  2  0  0  0  0
  6  2  1  0  0  0  0
  7  4  1  0  0  0  0
  8  5  1  0  0  0  0
  8 10  2  0  0  0  0
  9  1  2  0  0  0  0
  9  3  1  0  0  0  0
 10  9  1  0  0  0  0
 11 14  1  0  0  0  0
 12 13  1  0  0  0  0
 13 16  1  6  0  0  0
 13 14  1  0  0  0  0
 15 12  1  0  0  0  0
 15 11  2  0  0  0  0
 17 16  3  0  0  0  0
 18 19  2  0  0  0  0
 19 20  1  0  0  0  0
 20 25  2  0  0  0  0
 20 23  1  0  0  0  0
 22 21  2  0  0  0  0
 23 24  1  6  0  0  0
 23 21  1  0  0  0  0
 25 22  1  0  0  0  0
M  END
>  <MODEL>
4

>  <REMARK>
 VINA RESULT:      -7.0      1.617      4.769
  Name = 
  4 active torsions:
  status: ('A' for Active; 'I' for Inactive)
    1  A    between atoms: C_3  and  C_6
    2  A    between atoms: C_4  and  C_16
    3  A    between atoms: C_8  and  C_12
    4  A    between atoms: C_10  and  C_22
                            x       y       z     vdW  Elec       q    Type
                         _______ _______ _______ _____ _____    ______ ____

>  <TORSDO>
F 4

$$$$
=
 OpenBabel10232408523D

 25 28  0  0  1  0  0  0  0  0999 V2000
  184.0990  178.8130  145.5360 N   0  0  0  0  0  0  0  0  0  0  0  0
  185.2850  178.2680  143.5970 C   0  0  1  0  0  3  0  0  0  0  0  0
  186.1590  178.1860  144.8200 C   0  0  0  0  0  0  0  0  0  0  0  0
  187.4440  177.7830  144.8440 C   0  0  0  0  0  0  0  0  0  0  0  0
  188.0010  178.1090  147.2690 N   0  0  0  0  0  0  0  0  0  0  0  0
  183.9910  178.6220  144.1570 N   0  0  0  0  0  2  0  0  0  0  0  0
  188.3000  177.8010  146.0440 C   0  0  0  0  0  3  0  0  0  0  0  0
  186.7830  178.5230  147.8950 C   0  0  0  0  0  3  0  0  0  0  0  0
  185.3020  178.5850  145.9320 C   0  0  0  0  0  0  0  0  0  0  0  0
  185.6470  178.7150  147.3070 N   0  0  0  0  0  0  0  0  0  0  0  0
  188.2550  176.0460  143.3240 N   0  0  0  0  0  0  0  0  0  0  0  0
  188.7960  178.1840  142.6190 C   0  0  0  0  0  2  0  0  0  0  0  0
  189.3520  177.1850  141.6050 C   0  0  2  0  0  3  0  0  0  0  0  0
  188.9720  175.8900  142.1390 N   0  0  0  0  0  2  0  0  0  0  0  0
  188.1200  177.2940  143.6150 C   0  0  0  0  0  0  0  0  0  0  0  0
  190.8120  177.2890  141.5570 C   0  0  0  0  0  0  0  0  0  0  0  0
  191.9660  177.3720  141.5190 N   0  0  0  0  0  0  0  0  0  0  0  0
  185.7500  179.3760  142.7000 C   0  0  0  0  0  3  0  0  0  0  0  0
  185.3900  179.5120  141.4220 C   0  0  0  0  0  3  0  0  0  0  0  0
  184.5090  178.5980  140.6710 C   0  0  0  0  0  0  0  0  0  0  0  0
  183.6880  177.3940  138.9940 N   0  0  0  0  0  0  0  0  0  0  0  0
  182.9670  177.2280  140.1260 C   0  0  0  0  0  3  0  0  0  0  0  0
  184.6510  178.2540  139.3540 C   0  0  0  0  0  0  0  0  0  0  0  0
  185.6660  178.7230  138.4730 N   0  0  0  0  0  1  0  0  0  0  0  0
  183.4420  177.9480  141.1690 N   0  0  0  0  0  2  0  0  0  0  0  0
  1  9  2  0  0  0  0
  2 18  1  6  0  0  0
  2  6  1  0  0  0  0
  2  3  1  0  0  0  0
  3  4  2  0  0  0  0
  3  9  1  0  0  0  0
  4  7  1  0  0  0  0
  5  8  1  0  0  0  0
  6  1  1  0  0  0  0
  7  5  2  0  0  0  0
  9 10  1  0  0  0  0
 10  8  2  0  0  0  0
 11 15  2  0  0  0  0
 12 15  1  0  0  0  0
 13 16  1  1  0  0  0
 13 14  1  0  0  0  0
 13 12  1  0  0  0  0
 14 11  1  0  0  0  0
 15  4  1  0  0  0  0
 17 16  3  0  0  0  0
 19 18  2  0  0  0  0
 20 25  1  0  0  0  0
 20 19  1  0  0  0  0
 21 23  1  0  0  0  0
 21 22  2  0  0  0  0
 22 25  1  0  0  0  0
 23 20  2  0  0  0  0
 24 23  1  0  0  0  0
M  END
>  <MODEL>
5

>  <REMARK>
 VINA RESULT:      -7.0      2.361      5.663
  Name = 
  4 active torsions:
  status: ('A' for Active; 'I' for Inactive)
    1  A    between atoms: C_3  and  C_6
    2  A    between atoms: C_4  and  C_16
    3  A    between atoms: C_8  and  C_12
    4  A    between atoms: C_10  and  C_22
                            x       y       z     vdW  Elec       q    Type
                         _______ _______ _______ _____ _____    ______ ____

>  <TORSDO>
F 4

$$$$
=
 OpenBabel10232408523D

 25 28  0  0  1  0  0  0  0  0999 V2000
  187.3740  178.6160  141.0680 N   0  0  0  0  0  0  0  0  0  0  0  0
  188.5530  177.8470  139.2030 C   0  0  1  0  0  3  0  0  0  0  0  0
  189.3620  177.7040  140.4640 C   0  0  0  0  0  0  0  0  0  0  0  0
  190.5830  177.1420  140.5570 C   0  0  0  0  0  0  0  0  0  0  0  0
  191.0840  177.4920  142.9900 N   0  0  0  0  0  0  0  0  0  0  0  0
  187.2950  178.3850  139.6940 N   0  0  0  0  0  2  0  0  0  0  0  0
  191.3870  177.0990  141.7910 C   0  0  0  0  0  3  0  0  0  0  0  0
  189.9070  178.0820  143.5500 C   0  0  0  0  0  3  0  0  0  0  0  0
  188.5220  178.2530  141.5230 C   0  0  0  0  0  0  0  0  0  0  0  0
  188.8280  178.3930  142.9070 N   0  0  0  0  0  0  0  0  0  0  0  0
  190.8480  175.4140  138.8460 N   0  0  0  0  0  0  0  0  0  0  0  0
  192.4690  177.0620  138.7200 C   0  0  0  0  0  2  0  0  0  0  0  0
  192.7320  176.0390  137.6150 C   0  0  2  0  0  3  0  0  0  0  0  0
  191.6790  175.0550  137.7870 N   0  0  0  0  0  2  0  0  0  0  0  0
  191.2360  176.5210  139.3760 C   0  0  0  0  0  0  0  0  0  0  0  0
  194.0360  175.4060  137.8270 C   0  0  0  0  0  0  0  0  0  0  0  0
  195.0660  174.9070  137.9950 N   0  0  0  0  0  0  0  0  0  0  0  0
  189.1900  178.8490  138.2880 C   0  0  0  0  0  3  0  0  0  0  0  0
  188.9820  178.9070  136.9710 C   0  0  0  0  0  3  0  0  0  0  0  0
  188.1250  177.9950  136.1920 C   0  0  0  0  0  0  0  0  0  0  0  0
  187.5190  176.3180  134.8650 N   0  0  0  0  0  0  0  0  0  0  0  0
  186.4470  177.0090  135.3160 C   0  0  0  0  0  3  0  0  0  0  0  0
  188.5620  176.9490  135.4250 C   0  0  0  0  0  0  0  0  0  0  0  0
  189.9180  176.5620  135.2340 N   0  0  0  0  0  1  0  0  0  0  0  0
  186.7820  178.0380  136.1290 N   0  0  0  0  0  2  0  0  0  0  0  0
  1  9  2  0  0  0  0
  2 18  1  6  0  0  0
  2  6  1  0  0  0  0
  2  3  1  0  0  0  0
  3  4  2  0  0  0  0
  3  9  1  0  0  0  0
  4  7  1  0  0  0  0
  5  8  1  0  0  0  0
  6  1  1  0  0  0  0
  7  5  2  0  0  0  0
  9 10  1  0  0  0  0
 10  8  2  0  0  0  0
 11 15  2  0  0  0  0
 12 15  1  0  0  0  0
 13 14  1  0  0  0  0
 13 16  1  1  0  0  0
 13 12  1  0  0  0  0
 14 11  1  0  0  0  0
 15  4  1  0  0  0  0
 16 17  3  0  0  0  0
 19 18  2  0  0  0  0
 20 19  1  0  0  0  0
 21 22  2  0  0  0  0
 21 23  1  0  0  0  0
 22 25  1  0  0  0  0
 23 20  2  0  0  0  0
 24 23  1  0  0  0  0
 25 20  1  0  0  0  0
M  END
>  <MODEL>
6

>  <REMARK>
 VINA RESULT:      -6.8      2.866      7.082
  Name = 
  4 active torsions:
  status: ('A' for Active; 'I' for Inactive)
    1  A    between atoms: C_3  and  C_6
    2  A    between atoms: C_4  and  C_16
    3  A    between atoms: C_8  and  C_12
    4  A    between atoms: C_10  and  C_22
                            x       y       z     vdW  Elec       q    Type
                         _______ _______ _______ _____ _____    ______ ____

>  <TORSDO>
F 4

$$$$
=
 OpenBabel10232408523D

 25 28  0  0  1  0  0  0  0  0999 V2000
  185.1890  179.1420  141.2510 N   0  0  0  0  0  0  0  0  0  0  0  0
  186.5190  178.4970  143.0620 C   0  0  1  0  0  3  0  0  0  0  0  0
  187.2490  178.3340  141.7560 C   0  0  0  0  0  0  0  0  0  0  0  0
  188.5290  177.9420  141.6130 C   0  0  0  0  0  0  0  0  0  0  0  0
  188.7360  177.8880  139.1140 N   0  0  0  0  0  0  0  0  0  0  0  0
  185.2450  179.0590  142.6430 N   0  0  0  0  0  2  0  0  0  0  0  0
  189.1880  177.7050  140.3160 C   0  0  0  0  0  3  0  0  0  0  0  0
  187.4890  178.3750  138.6090 C   0  0  0  0  0  3  0  0  0  0  0  0
  186.2930  178.7350  140.7290 C   0  0  0  0  0  0  0  0  0  0  0  0
  186.4660  178.7320  139.3150 N   0  0  0  0  0  0  0  0  0  0  0  0
  190.2950  178.5130  143.2080 N   0  0  0  0  0  0  0  0  0  0  0  0
  189.3780  176.4230  143.5910 C   0  0  0  0  0  2  0  0  0  0  0  0
  190.4660  176.6720  144.6350 C   0  0  2  0  0  3  0  0  0  0  0  0
  190.9780  177.9900  144.3030 N   0  0  0  0  0  2  0  0  0  0  0  0
  189.3930  177.6910  142.7960 C   0  0  0  0  0  0  0  0  0  0  0  0
  191.5310  175.6780  144.4860 C   0  0  0  0  0  0  0  0  0  0  0  0
  192.3740  174.8940  144.3700 N   0  0  0  0  0  0  0  0  0  0  0  0
  186.2780  177.1590  143.6930 C   0  0  0  0  0  3  0  0  0  0  0  0
  186.1890  176.9500  145.0080 C   0  0  0  0  0  3  0  0  0  0  0  0
  186.3330  177.9770  146.0560 C   0  0  0  0  0  0  0  0  0  0  0  0
  185.8220  179.6440  147.4340 N   0  0  0  0  0  0  0  0  0  0  0  0
  187.0890  179.2100  147.6240 C   0  0  0  0  0  3  0  0  0  0  0  0
  185.3620  178.8590  146.4490 C   0  0  0  0  0  0  0  0  0  0  0  0
  184.0480  178.9500  145.9090 N   0  0  0  0  0  1  0  0  0  0  0  0
  187.4320  178.1930  146.8010 N   0  0  0  0  0  2  0  0  0  0  0  0
  1  6  1  0  0  0  0
  2 18  1  6  0  0  0
  3  2  1  0  0  0  0
  4  3  2  0  0  0  0
  4 15  1  0  0  0  0
  5  7  2  0  0  0  0
  6  2  1  0  0  0  0
  7  4  1  0  0  0  0
  8  5  1  0  0  0  0
  8 10  2  0  0  0  0
  9  1  2  0  0  0  0
  9  3  1  0  0  0  0
 10  9  1  0  0  0  0
 11 14  1  0  0  0  0
 12 13  1  0  0  0  0
 13 16  1  6  0  0  0
 14 13  1  0  0  0  0
 15 11  2  0  0  0  0
 15 12  1  0  0  0  0
 17 16  3  0  0  0  0
 18 19  2  0  0  0  0
 19 20  1  0  0  0  0
 20 23  2  0  0  0  0
 20 25  1  0  0  0  0
 21 22  2  0  0  0  0
 23 21  1  0  0  0  0
 24 23  1  0  0  0  0
 25 22  1  0  0  0  0
M  END
>  <MODEL>
7

>  <REMARK>
 VINA RESULT:      -6.8      1.481      1.887
  Name = 
  4 active torsions:
  status: ('A' for Active; 'I' for Inactive)
    1  A    between atoms: C_3  and  C_6
    2  A    between atoms: C_4  and  C_16
    3  A    between atoms: C_8  and  C_12
    4  A    between atoms: C_10  and  C_22
                            x       y       z     vdW  Elec       q    Type
                         _______ _______ _______ _____ _____    ______ ____

>  <TORSDO>
F 4

$$$$
=
 OpenBabel10232408523D

 25 28  0  0  1  0  0  0  0  0999 V2000
  185.4560  178.8470  138.1750 N   0  0  0  0  0  0  0  0  0  0  0  0
  184.2290  178.9320  140.1620 C   0  0  1  0  0  3  0  0  0  0  0  0
  185.6940  178.7130  140.4270 C   0  0  0  0  0  0  0  0  0  0  0  0
  186.2730  178.6450  141.6420 C   0  0  0  0  0  0  0  0  0  0  0  0
  188.6520  178.1630  141.0100 N   0  0  0  0  0  0  0  0  0  0  0  0
  184.1850  179.0530  138.7140 N   0  0  0  0  0  2  0  0  0  0  0  0
  187.6960  178.3400  141.8700 C   0  0  0  0  0  3  0  0  0  0  0  0
  188.6910  178.2030  139.5810 C   0  0  0  0  0  3  0  0  0  0  0  0
  186.3170  178.6460  139.1100 C   0  0  0  0  0  0  0  0  0  0  0  0
  187.6860  178.4140  138.7940 N   0  0  0  0  0  0  0  0  0  0  0  0
  184.7800  179.9160  143.1060 N   0  0  0  0  0  0  0  0  0  0  0  0
  185.4840  177.9230  144.0490 C   0  0  0  0  0  2  0  0  0  0  0  0
  184.5680  178.6320  145.0450 C   0  0  2  0  0  3  0  0  0  0  0  0
  184.1940  179.8610  144.3690 N   0  0  0  0  0  2  0  0  0  0  0  0
  185.4840  178.8610  142.8830 C   0  0  0  0  0  0  0  0  0  0  0  0
  185.3130  178.9480  146.2660 C   0  0  0  0  0  0  0  0  0  0  0  0
  185.9020  179.2000  147.2290 N   0  0  0  0  0  0  0  0  0  0  0  0
  183.4410  177.7260  140.5750 C   0  0  0  0  0  3  0  0  0  0  0  0
  182.1390  177.7400  140.8700 C   0  0  0  0  0  3  0  0  0  0  0  0
  181.2670  178.9290  140.8660 C   0  0  0  0  0  0  0  0  0  0  0  0
  180.0130  180.6040  141.6150 N   0  0  0  0  0  0  0  0  0  0  0  0
  180.0990  180.6100  140.2650 C   0  0  0  0  0  3  0  0  0  0  0  0
  180.7510  179.5440  141.9750 C   0  0  2  0  0  3  0  0  0  0  0  0
  180.9550  179.1420  143.3250 N   0  0  0  0  0  1  0  0  0  0  0  0
  180.8580  179.6020  139.7760 N   0  0  0  0  0  0  0  0  0  0  0  0
  1  6  1  0  0  0  0
  1  9  2  0  0  0  0
  2  3  1  0  0  0  0
  2 18  1  6  0  0  0
  3  4  2  0  0  0  0
  4  7  1  0  0  0  0
  4 15  1  0  0  0  0
  5  7  2  0  0  0  0
  6  2  1  0  0  0  0
  8  5  1  0  0  0  0
  9  3  1  0  0  0  0
 10  9  1  0  0  0  0
 10  8  2  0  0  0  0
 11 14  1  0  0  0  0
 12 13  1  0  0  0  0
 13 16  1  1  0  0  0
 14 13  1  0  0  0  0
 15 11  2  0  0  0  0
 15 12  1  0  0  0  0
 16 17  3  0  0  0  0
 18 19  2  0  0  0  0
 20 19  1  0  0  0  0
 20 23  1  0  0  0  0
 21 23  1  0  0  0  0
 22 21  2  0  0  0  0
 23 24  1  1  0  0  0
 25 22  1  0  0  0  0
 25 20  2  0  0  0  0
M  END
>  <MODEL>
8

>  <REMARK>
 VINA RESULT:      -6.8      3.576      5.525
  Name = 
  4 active torsions:
  status: ('A' for Active; 'I' for Inactive)
    1  A    between atoms: C_3  and  C_6
    2  A    between atoms: C_4  and  C_16
    3  A    between atoms: C_8  and  C_12
    4  A    between atoms: C_10  and  C_22
                            x       y       z     vdW  Elec       q    Type
                         _______ _______ _______ _____ _____    ______ ____

>  <TORSDO>
F 4

$$$$
=
 OpenBabel10232408523D

 25 28  0  0  1  0  0  0  0  0999 V2000
  185.2630  178.9280  140.1070 N   0  0  0  0  0  0  0  0  0  0  0  0
  187.3910  177.9820  140.3060 C   0  0  1  0  0  3  0  0  0  0  0  0
  186.7580  178.2050  141.6540 C   0  0  0  0  0  0  0  0  0  0  0  0
  187.2870  177.8500  142.8400 C   0  0  0  0  0  0  0  0  0  0  0  0
  185.5510  178.7370  144.4200 N   0  0  0  0  0  0  0  0  0  0  0  0
  186.3510  178.4240  139.3920 N   0  0  0  0  0  2  0  0  0  0  0  0
  186.6830  178.1630  144.1480 C   0  0  0  0  0  3  0  0  0  0  0  0
  184.5020  179.2530  143.5960 C   0  0  0  0  0  3  0  0  0  0  0  0
  185.4680  178.8260  141.3740 C   0  0  0  0  0  0  0  0  0  0  0  0
  184.4870  179.2770  142.3020 N   0  0  0  0  0  0  0  0  0  0  0  0
  188.6710  175.8340  142.7620 N   0  0  0  0  0  0  0  0  0  0  0  0
  189.8820  177.7380  143.2740 C   0  0  0  0  0  2  0  0  0  0  0  0
  190.8390  176.5470  143.2570 C   0  0  2  0  0  3  0  0  0  0  0  0
  189.9870  175.4150  142.9400 N   0  0  0  0  0  2  0  0  0  0  0  0
  188.5720  177.1080  142.9190 C   0  0  0  0  0  0  0  0  0  0  0  0
  191.4260  176.3640  144.5870 C   0  0  0  0  0  0  0  0  0  0  0  0
  191.8910  176.2200  145.6360 N   0  0  0  0  0  0  0  0  0  0  0  0
  188.5910  178.8660  140.1440 C   0  0  0  0  0  3  0  0  0  0  0  0
  189.7000  178.5190  139.4870 C   0  0  0  0  0  3  0  0  0  0  0  0
  189.9470  177.2180  138.8390 C   0  0  0  0  0  0  0  0  0  0  0  0
  190.9860  175.3510  138.2260 N   0  0  0  0  0  0  0  0  0  0  0  0
  189.7310  175.4110  137.7250 C   0  0  0  0  0  3  0  0  0  0  0  0
  191.1040  176.4910  138.9220 C   0  0  2  0  0  3  0  0  0  0  0  0
  192.2750  176.8640  139.6400 N   0  0  0  0  0  1  0  0  0  0  0  0
  189.0690  176.5370  138.0810 N   0  0  0  0  0  0  0  0  0  0  0  0
  1  9  2  0  0  0  0
  2 18  1  1  0  0  0
  2  3  1  0  0  0  0
  3  4  2  0  0  0  0
  4 15  1  0  0  0  0
  4  7  1  0  0  0  0
  6  1  1  0  0  0  0
  6  2  1  0  0  0  0
  7  5  2  0  0  0  0
  8  5  1  0  0  0  0
  9  3  1  0  0  0  0
  9 10  1  0  0  0  0
 10  8  2  0  0  0  0
 11 15  2  0  0  0  0
 11 14  1  0  0  0  0
 13 12  1  0  0  0  0
 13 16  1  1  0  0  0
 14 13  1  0  0  0  0
 15 12  1  0  0  0  0
 16 17  3  0  0  0  0
 19 18  2  0  0  0  0
 20 23  1  0  0  0  0
 20 19  1  0  0  0  0
 21 23  1  0  0  0  0
 22 25  1  0  0  0  0
 22 21  2  0  0  0  0
 23 24  1  1  0  0  0
 25 20  2  0  0  0  0
M  END
>  <MODEL>
9

>  <REMARK>
 VINA RESULT:      -6.6      1.712      5.709
  Name = 
  4 active torsions:
  status: ('A' for Active; 'I' for Inactive)
    1  A    between atoms: C_3  and  C_6
    2  A    between atoms: C_4  and  C_16
    3  A    between atoms: C_8  and  C_12
    4  A    between atoms: C_10  and  C_22
                            x       y       z     vdW  Elec       q    Type
                         _______ _______ _______ _____ _____    ______ ____

>  <TORSDO>
F 4

$$$$
