=
 OpenBabel10232410433D

 64 74  0  0  1  0  0  0  0  0999 V2000
  188.5790  177.5110  142.3930 C   0  0  0  0  0  0  0  0  0  0  0  0
  189.5100  177.4210  143.3060 C   0  0  0  0  0  3  0  0  0  0  0  0
  186.2080  176.6670  134.8250 N   0  0  0  0  0  0  0  0  0  0  0  0
  185.6130  178.6730  142.2760 C   0  0  0  0  0  0  0  0  0  0  0  0
  187.9270  176.9180  136.5130 C   0  0  2  0  0  3  0  0  0  0  0  0
  187.5590  176.4160  135.1580 C   0  0  0  0  0  0  0  0  0  0  0  0
  189.7270  178.6220  138.4850 O   0  0  0  0  0  1  0  0  0  0  0  0
  189.9100  175.3660  136.8630 C   0  0  0  0  0  2  0  0  0  0  0  0
  187.6550  177.5490  141.4730 C   0  0  0  0  0  3  0  0  0  0  0  0
  186.6010  178.8810  137.4610 C   0  0  0  0  0  2  0  0  0  0  0  0
  188.5530  175.8420  137.4350 C   0  0  2  0  0  0  0  0  0  0  0  0
  192.4180  176.9010  139.4370 C   0  0  1  0  0  3  0  0  0  0  0  0
  188.3690  175.8950  134.3500 O   0  0  0  0  0  0  0  0  0  0  0  0
  184.4110  178.3040  141.9420 N   0  0  0  0  0  0  0  0  0  0  0  0
  192.3620  178.8010  141.6650 O   0  0  0  0  0  1  0  0  0  0  0  0
  186.9810  178.9890  138.8680 N   0  0  0  0  0  0  0  0  0  0  0  0
  191.2440  176.7530  138.4440 C   0  0  2  0  0  3  0  0  0  0  0  0
  184.8740  178.1850  139.6150 N   0  0  0  0  0  0  0  0  0  0  0  0
  191.7720  177.1520  143.8920 O   0  0  0  0  0  0  0  0  0  0  0  0
  186.7370  178.7180  141.2650 C   0  0  1  0  0  3  0  0  0  0  0  0
  185.8920  178.9710  143.6390 N   0  0  0  0  0  1  0  0  0  0  0  0
  191.4440  177.7460  141.6010 C   0  0  2  0  0  3  0  0  0  0  0  0
  187.6460  174.6170  137.5560 C   0  0  0  0  0  1  0  0  0  0  0  0
  186.5590  177.4220  137.0210 C   0  0  1  0  0  3  0  0  0  0  0  0
  189.9440  177.3460  138.9890 C   0  0  2  0  0  3  0  0  0  0  0  0
  190.9480  177.4090  142.9750 C   0  0  0  0  0  0  0  0  0  0  0  0
  186.2040  178.6680  139.8570 C   0  0  0  0  0  0  0  0  0  0  0  0
  184.0410  178.0040  140.5910 C   0  0  0  0  0  3  0  0  0  0  0  0
  188.7210  176.4310  138.8390 C   0  0  0  0  0  2  0  0  0  0  0  0
  192.0540  176.5400  140.8910 C   0  0  0  0  0  2  0  0  0  0  0  0
  191.0430  175.3330  137.8970 C   0  0  0  0  0  2  0  0  0  0  0  0
  185.6590  177.2470  135.8360 C   0  0  0  0  0  0  0  0  0  0  0  0
  196.9170  175.0650  136.0240 C   0  0  0  0  0  3  0  0  0  0  0  0
  196.9410  176.0030  135.1240 N   0  0  0  0  0  0  0  0  0  0  0  0
  193.8810  175.7630  137.6420 C   0  0  2  0  0  3  0  0  0  0  0  0
  193.7920  176.4760  136.5130 C   0  0  0  0  0  2  0  0  0  0  0  0
  193.6310  176.2230  138.9580 N   0  0  2  0  0  0  0  0  0  0  0  0
  194.5340  175.4840  139.8530 C   0  0  0  0  0  2  0  0  0  0  0  0
  194.8290  175.8850  135.6670 C   0  0  2  0  0  3  0  0  0  0  0  0
  195.5320  174.8980  136.4250 C   0  0  2  0  0  3  0  0  0  0  0  0
  194.9730  174.8440  137.6200 C   0  0  1  0  0  3  0  0  0  0  0  0
  195.6610  176.5610  134.9520 N   0  0  0  0  0  2  0  0  0  0  0  0
  195.5880  174.7810  138.9650 C   0  0  0  0  0  2  0  0  0  0  0  0
  183.9870  177.8800  135.7530 S   0  0  0  0  0  0  0  0  0  0  0  0
  182.4160  175.7590  136.4850 C   0  0  2  0  0  3  0  0  0  0  0  0
  183.2640  176.2690  135.3360 C   0  0  2  0  0  3  0  0  0  0  0  0
  183.8380  175.2600  136.3000 C   0  0  0  0  0  2  0  0  0  0  0  0
  180.6680  173.9880  137.1120 C   0  0  2  0  0  0  0  0  0  0  0  0
  180.0470  175.1210  136.3040 C   0  0  2  0  0  3  0  0  0  0  0  0
  180.5600  175.1320  134.8850 C   0  0  0  0  0  2  0  0  0  0  0  0
  181.4710  174.6700  135.9990 C   0  0  1  0  0  0  0  0  0  0  0  0
  180.3420  172.5380  136.7600 C   0  0  2  0  0  3  0  0  0  0  0  0
  179.9820  171.8380  137.9140 O   0  0  0  0  0  1  0  0  0  0  0  0
  181.3030  170.4190  135.6790 C   0  0  0  0  0  0  0  0  0  0  0  0
  181.9210  169.9880  134.3520 C   0  0  0  0  0  1  0  0  0  0  0  0
  179.9980  169.7490  136.1000 C   0  0  0  0  0  1  0  0  0  0  0  0
  181.5380  171.8890  136.0360 C   0  0  2  0  0  3  0  0  0  0  0  0
  182.2200  170.7850  136.8420 C   0  0  2  0  0  3  0  0  0  0  0  0
  184.3730  172.0140  137.0010 C   0  0  0  0  0  1  0  0  0  0  0  0
  183.7020  170.7590  136.4850 C   0  0  0  0  0  2  0  0  0  0  0  0
  181.1570  174.2630  138.4110 O   0  0  0  0  0  0  0  0  0  0  0  0
  180.8060  176.4640  139.2200 C   0  0  0  0  0  1  0  0  0  0  0  0
  180.2260  175.0670  139.0820 C   0  0  0  0  0  3  0  0  0  0  0  0
  179.9830  174.5160  140.4750 C   0  0  0  0  0  1  0  0  0  0  0  0
  1  2  2  0  0  0  0
  3  6  1  0  0  0  0
  3 32  2  0  0  0  0
  4 21  1  0  0  0  0
  5  6  1  6  0  0  0
  5 24  1  0  0  0  0
  5 11  1  0  0  0  0
  8 11  1  0  0  0  0
  8 31  1  0  0  0  0
  9  1  2  0  0  0  0
 10 16  1  0  0  0  0
 11 23  1  1  0  0  0
 11 29  1  0  0  0  0
 12 30  1  1  0  0  0
 13  6  2  0  0  0  0
 14  4  2  0  0  0  0
 16 27  2  0  0  0  0
 17 31  1  1  0  0  0
 17 25  1  0  0  0  0
 17 12  1  0  0  0  0
 18 27  1  0  0  0  0
 18 28  2  0  0  0  0
 20  9  1  1  0  0  0
 20  4  1  0  0  0  0
 22 15  1  1  0  0  0
 22 26  1  0  0  0  0
 24 10  1  6  0  0  0
 25  7  1  6  0  0  0
 26  2  1  0  0  0  0
 26 19  2  0  0  0  0
 27 20  1  0  0  0  0
 28 14  1  0  0  0  0
 29 25  1  0  0  0  0
 30 22  1  0  0  0  0
 32 24  1  0  0  0  0
 34 33  2  0  0  0  0
 35 36  1  6  0  0  0
 35 37  1  0  0  0  0
 37 12  1  0  0  0  0
 37 38  1  1  0  0  0
 39 40  1  0  0  0  0
 39 36  1  1  0  0  0
 40 33  1  1  0  0  0
 40 41  1  0  0  0  0
 41 35  1  0  0  0  0
 41 43  1  1  0  0  0
 42 34  1  0  0  0  0
 42 39  1  0  0  0  0
 43 38  1  0  0  0  0
 44 32  1  0  0  0  0
 45 47  1  1  0  0  0
 46 44  1  1  0  0  0
 46 47  1  0  0  0  0
 46 45  1  0  0  0  0
 48 61  1  1  0  0  0
 49 50  1  6  0  0  0
 49 48  1  0  0  0  0
 51 50  1  6  0  0  0
 51 49  1  0  0  0  0
 51 45  1  0  0  0  0
 51 48  1  0  0  0  0
 52 48  1  0  0  0  0
 52 53  1  1  0  0  0
 54 57  1  0  0  0  0
 54 56  1  0  0  0  0
 54 58  1  0  0  0  0
 55 54  1  0  0  0  0
 57 52  1  1  0  0  0
 57 58  1  0  0  0  0
 58 60  1  6  0  0  0
 60 59  1  0  0  0  0
 61 63  1  0  0  0  0
 63 62  1  0  0  0  0
 63 64  1  0  0  0  0
M  END
>  <MODEL>
1

>  <REMARK>
 VINA RESULT:      -3.4      0.000      0.000
  Name = 
  9 active torsions:
  status: ('A' for Active; 'I' for Inactive)
    1  A    between atoms: O_6  and  C_19
    2  A    between atoms: O_6  and  C_21
    3  A    between atoms: C_14  and  C_19
    4  A    between atoms: C_14  and  C_57
    5  A    between atoms: C_22  and  N_30
    6  A    between atoms: C_24  and  C_51
    7  A    between atoms: C_41  and  C_64
    8  A    between atoms: S_52  and  C_60
    9  A    between atoms: S_52  and  C_63
                            x       y       z     vdW  Elec       q    Type
                         _______ _______ _______ _____ _____    ______ ____

>  <TORSDO>
F 9

$$$$
