=
 OpenBabel10232410023D

 26 28  0  0  1  0  0  0  0  0999 V2000
  187.7170  178.2430  144.4870 C   0  0  2  0  0  3  0  0  0  0  0  0
  185.7800  179.4240  141.5120 C   0  0  0  0  0  2  0  0  0  0  0  0
  187.1830  177.5640  143.2000 C   0  0  2  0  0  0  0  0  0  0  0  0
  187.6590  176.1240  143.0910 C   0  0  0  0  0  1  0  0  0  0  0  0
  187.6940  178.3340  141.9630 C   0  0  0  0  0  2  0  0  0  0  0  0
  185.0540  178.8900  142.7560 C   0  0  2  0  0  3  0  0  0  0  0  0
  185.6440  177.5520  143.2120 C   0  0  0  0  0  2  0  0  0  0  0  0
  186.6870  178.4810  140.9930 O   0  0  0  0  0  0  0  0  0  0  0  0
  183.6360  178.7380  142.4690 N   0  0  0  0  0  2  0  0  0  0  0  0
  182.6240  178.9160  143.4660 C   0  0  0  0  0  0  0  0  0  0  0  0
  182.9380  179.2430  144.6410 O   0  0  0  0  0  0  0  0  0  0  0  0
  180.2840  178.5760  144.0730 C   0  0  0  0  0  2  0  0  0  0  0  0
  181.2090  178.7250  143.1340 C   0  0  0  0  0  3  0  0  0  0  0  0
  189.1680  177.9930  144.8060 C   0  0  0  0  0  0  0  0  0  0  0  0
  191.5300  178.2400  144.3090 C   0  0  0  0  0  3  0  0  0  0  0  0
  191.8500  177.5030  145.4520 C   0  0  0  0  0  3  0  0  0  0  0  0
  190.1940  178.4830  143.9840 C   0  0  0  0  0  3  0  0  0  0  0  0
  189.4920  177.2550  145.9490 C   0  0  0  0  0  3  0  0  0  0  0  0
  190.8310  176.9960  146.2710 C   0  0  0  0  0  0  0  0  0  0  0  0
  192.3940  176.7030  148.0350 O   0  0  0  0  0  0  0  0  0  0  0  0
  192.4310  175.4800  147.3450 C   0  0  0  0  0  2  0  0  0  0  0  0
  191.1690  176.2390  147.5150 C   0  0  2  0  0  3  0  0  0  0  0  0
  186.8250  178.1620  145.7000 C   0  0  0  0  0  0  0  0  0  0  0  0
  186.7070  176.8480  146.3960 C   0  0  0  0  0  1  0  0  0  0  0  0
  186.1420  179.2280  146.1230 C   0  0  0  0  0  3  0  0  0  0  0  0
  185.2840  179.1670  147.2600 N   0  0  0  0  0  1  0  0  0  0  0  0
  1 14  1  0  0  0  0
  1 23  1  1  0  0  0
  2  6  1  0  0  0  0
  3  4  1  6  0  0  0
  3  7  1  0  0  0  0
  3  1  1  0  0  0  0
  5  3  1  0  0  0  0
  6  9  1  6  0  0  0
  6  7  1  0  0  0  0
  8  2  1  0  0  0  0
  8  5  1  0  0  0  0
  9 10  1  0  0  0  0
 10 11  2  0  0  0  0
 13 10  1  0  0  0  0
 13 12  2  0  0  0  0
 14 18  1  0  0  0  0
 15 16  2  0  0  0  0
 16 19  1  0  0  0  0
 17 15  1  0  0  0  0
 17 14  2  0  0  0  0
 18 19  2  0  0  0  0
 21 22  1  0  0  0  0
 21 20  1  0  0  0  0
 22 19  1  6  0  0  0
 22 20  1  0  0  0  0
 23 25  2  0  0  0  0
 23 24  1  0  0  0  0
 25 26  1  0  0  0  0
M  END
>  <MODEL>
1

>  <REMARK>
 VINA RESULT:      -7.5      0.000      0.000
  Name = 
  6 active torsions:
  status: ('A' for Active; 'I' for Inactive)
    1  A    between atoms: C_4  and  C_25
    2  A    between atoms: C_5  and  C_25
    3  A    between atoms: C_6  and  C_25
    4  A    between atoms: N_10  and  C_12
    5  A    between atoms: C_15  and  C_18
    6  A    between atoms: C_22  and  C_24
                            x       y       z     vdW  Elec       q    Type
                         _______ _______ _______ _____ _____    ______ ____

>  <TORSDO>
F 6

$$$$
=
 OpenBabel10232410023D

 26 28  0  0  1  0  0  0  0  0999 V2000
  189.6820  176.8950  143.4490 C   0  0  2  0  0  3  0  0  0  0  0  0
  189.2640  177.3780  139.7620 C   0  0  0  0  0  2  0  0  0  0  0  0
  189.9900  178.0520  142.4630 C   0  0  2  0  0  0  0  0  0  0  0  0
  190.4630  179.2970  143.1960 C   0  0  0  0  0  1  0  0  0  0  0  0
  188.7090  178.4120  141.6800 C   0  0  0  0  0  2  0  0  0  0  0  0
  190.5610  176.7810  140.3310 C   0  0  2  0  0  3  0  0  0  0  0  0
  191.1020  177.6290  141.4880 C   0  0  0  0  0  2  0  0  0  0  0  0
  188.9830  178.6390  140.3190 O   0  0  0  0  0  0  0  0  0  0  0  0
  191.5590  176.6820  139.2770 N   0  0  0  0  0  2  0  0  0  0  0  0
  191.5170  175.6660  138.2690 C   0  0  0  0  0  0  0  0  0  0  0  0
  190.5780  174.8260  138.2500 O   0  0  0  0  0  0  0  0  0  0  0  0
  193.7980  175.2110  137.5300 C   0  0  0  0  0  2  0  0  0  0  0  0
  192.5610  175.5910  137.2420 C   0  0  0  0  0  3  0  0  0  0  0  0
  188.5530  177.1400  144.4150 C   0  0  0  0  0  0  0  0  0  0  0  0
  186.2180  177.6000  144.8870 C   0  0  0  0  0  3  0  0  0  0  0  0
  186.4900  177.5830  146.2580 C   0  0  0  0  0  3  0  0  0  0  0  0
  187.2450  177.3820  143.9680 C   0  0  0  0  0  3  0  0  0  0  0  0
  188.8210  177.1240  145.7880 C   0  0  0  0  0  3  0  0  0  0  0  0
  187.7960  177.3570  146.7140 C   0  0  0  0  0  0  0  0  0  0  0  0
  187.7140  178.5180  148.7850 O   0  0  0  0  0  0  0  0  0  0  0  0
  189.0870  178.3220  148.5620 C   0  0  0  0  0  2  0  0  0  0  0  0
  188.0840  177.3000  148.1800 C   0  0  2  0  0  3  0  0  0  0  0  0
  190.8760  176.2360  144.0930 C   0  0  0  0  0  0  0  0  0  0  0  0
  191.6740  177.0340  145.0690 C   0  0  0  0  0  1  0  0  0  0  0  0
  191.2220  174.9860  143.7810 C   0  0  0  0  0  3  0  0  0  0  0  0
  192.3550  174.3510  144.3700 N   0  0  0  0  0  1  0  0  0  0  0  0
  1 23  1  1  0  0  0
  1 14  1  0  0  0  0
  2  8  1  0  0  0  0
  2  6  1  0  0  0  0
  3  4  1  1  0  0  0
  3  1  1  0  0  0  0
  5  3  1  0  0  0  0
  6  9  1  6  0  0  0
  6  7  1  0  0  0  0
  7  3  1  0  0  0  0
  8  5  1  0  0  0  0
 10  9  1  0  0  0  0
 11 10  2  0  0  0  0
 13 12  2  0  0  0  0
 13 10  1  0  0  0  0
 14 18  1  0  0  0  0
 15 16  2  0  0  0  0
 16 19  1  0  0  0  0
 17 14  2  0  0  0  0
 17 15  1  0  0  0  0
 18 19  2  0  0  0  0
 21 20  1  0  0  0  0
 22 19  1  6  0  0  0
 22 21  1  0  0  0  0
 22 20  1  0  0  0  0
 23 24  1  0  0  0  0
 25 23  2  0  0  0  0
 25 26  1  0  0  0  0
M  END
>  <MODEL>
2

>  <REMARK>
 VINA RESULT:      -7.4      4.144      6.717
  Name = 
  6 active torsions:
  status: ('A' for Active; 'I' for Inactive)
    1  A    between atoms: C_4  and  C_25
    2  A    between atoms: C_5  and  C_25
    3  A    between atoms: C_6  and  C_25
    4  A    between atoms: N_10  and  C_12
    5  A    between atoms: C_15  and  C_18
    6  A    between atoms: C_22  and  C_24
                            x       y       z     vdW  Elec       q    Type
                         _______ _______ _______ _____ _____    ______ ____

>  <TORSDO>
F 6

$$$$
=
 OpenBabel10232410023D

 26 28  0  0  1  0  0  0  0  0999 V2000
  189.6430  177.0170  143.6390 C   0  0  2  0  0  3  0  0  0  0  0  0
  189.2740  177.4850  139.9450 C   0  0  0  0  0  2  0  0  0  0  0  0
  189.9620  178.1710  142.6530 C   0  0  2  0  0  0  0  0  0  0  0  0
  190.4220  179.4200  143.3880 C   0  0  0  0  0  1  0  0  0  0  0  0
  188.6910  178.5260  141.8510 C   0  0  0  0  0  2  0  0  0  0  0  0
  190.5650  176.8940  140.5330 C   0  0  2  0  0  3  0  0  0  0  0  0
  191.0880  177.7470  141.6940 C   0  0  0  0  0  2  0  0  0  0  0  0
  188.9820  178.7480  140.4930 O   0  0  0  0  0  0  0  0  0  0  0  0
  191.5760  176.7930  139.4930 N   0  0  0  0  0  2  0  0  0  0  0  0
  191.5120  175.8180  138.4470 C   0  0  0  0  0  0  0  0  0  0  0  0
  190.5400  175.0180  138.3810 O   0  0  0  0  0  0  0  0  0  0  0  0
  193.7550  175.2050  137.7040 C   0  0  0  0  0  2  0  0  0  0  0  0
  192.5700  175.7370  137.4360 C   0  0  0  0  0  3  0  0  0  0  0  0
  188.5440  177.2880  144.6310 C   0  0  0  0  0  0  0  0  0  0  0  0
  187.7430  177.5310  146.9090 C   0  0  0  0  0  3  0  0  0  0  0  0
  186.4590  177.8060  146.4310 C   0  0  0  0  0  3  0  0  0  0  0  0
  188.7820  177.2710  146.0140 C   0  0  0  0  0  3  0  0  0  0  0  0
  187.2560  177.5620  144.1570 C   0  0  0  0  0  3  0  0  0  0  0  0
  186.2070  177.8100  145.0520 C   0  0  0  0  0  0  0  0  0  0  0  0
  184.9220  178.4750  143.1690 O   0  0  0  0  0  0  0  0  0  0  0  0
  184.7810  179.5450  144.0680 C   0  0  0  0  0  2  0  0  0  0  0  0
  184.8430  178.1400  144.5350 C   0  0  2  0  0  3  0  0  0  0  0  0
  190.8320  176.3200  144.2520 C   0  0  0  0  0  0  0  0  0  0  0  0
  191.5860  177.0340  145.3230 C   0  0  0  0  0  1  0  0  0  0  0  0
  191.2130  175.1120  143.8320 C   0  0  0  0  0  3  0  0  0  0  0  0
  192.3410  174.4440  144.3910 N   0  0  0  0  0  1  0  0  0  0  0  0
  1 23  1  1  0  0  0
  1 14  1  0  0  0  0
  2  8  1  0  0  0  0
  2  6  1  0  0  0  0
  3  4  1  1  0  0  0
  3  1  1  0  0  0  0
  5  3  1  0  0  0  0
  6  9  1  6  0  0  0
  6  7  1  0  0  0  0
  7  3  1  0  0  0  0
  8  5  1  0  0  0  0
 10  9  1  0  0  0  0
 11 10  2  0  0  0  0
 13 12  2  0  0  0  0
 13 10  1  0  0  0  0
 14 17  1  0  0  0  0
 16 15  1  0  0  0  0
 17 15  2  0  0  0  0
 18 14  2  0  0  0  0
 18 19  1  0  0  0  0
 19 16  2  0  0  0  0
 20 21  1  0  0  0  0
 20 22  1  0  0  0  0
 21 22  1  0  0  0  0
 22 19  1  1  0  0  0
 23 24  1  0  0  0  0
 25 23  2  0  0  0  0
 25 26  1  0  0  0  0
M  END
>  <MODEL>
3

>  <REMARK>
 VINA RESULT:      -7.3      3.926      7.139
  Name = 
  6 active torsions:
  status: ('A' for Active; 'I' for Inactive)
    1  A    between atoms: C_4  and  C_25
    2  A    between atoms: C_5  and  C_25
    3  A    between atoms: C_6  and  C_25
    4  A    between atoms: N_10  and  C_12
    5  A    between atoms: C_15  and  C_18
    6  A    between atoms: C_22  and  C_24
                            x       y       z     vdW  Elec       q    Type
                         _______ _______ _______ _____ _____    ______ ____

>  <TORSDO>
F 6

$$$$
=
 OpenBabel10232410023D

 26 28  0  0  1  0  0  0  0  0999 V2000
  187.0510  178.2070  144.7250 C   0  0  2  0  0  3  0  0  0  0  0  0
  188.8360  178.7000  147.9770 C   0  0  0  0  0  2  0  0  0  0  0  0
  186.9310  177.5760  146.1370 C   0  0  2  0  0  0  0  0  0  0  0  0
  185.7450  176.6290  146.2240 C   0  0  0  0  0  1  0  0  0  0  0  0
  186.7320  178.6940  147.1830 C   0  0  0  0  0  2  0  0  0  0  0  0
  189.3420  177.6680  146.9560 C   0  0  2  0  0  3  0  0  0  0  0  0
  188.2010  176.7710  146.4620 C   0  0  0  0  0  2  0  0  0  0  0  0
  187.4970  178.4610  148.3400 O   0  0  0  0  0  0  0  0  0  0  0  0
  190.3900  176.8580  147.5550 N   0  0  0  0  0  2  0  0  0  0  0  0
  191.5370  176.4140  146.8210 C   0  0  0  0  0  0  0  0  0  0  0  0
  191.6860  176.7430  145.6140 O   0  0  0  0  0  0  0  0  0  0  0  0
  193.0580  175.8730  148.6510 C   0  0  0  0  0  2  0  0  0  0  0  0
  192.5540  175.5760  147.4620 C   0  0  0  0  0  3  0  0  0  0  0  0
  185.7530  178.4390  143.9990 C   0  0  0  0  0  0  0  0  0  0  0  0
  183.3970  179.0180  143.9820 C   0  0  0  0  0  3  0  0  0  0  0  0
  183.3670  178.8650  142.5930 C   0  0  0  0  0  3  0  0  0  0  0  0
  184.5840  178.8040  144.6840 C   0  0  0  0  0  3  0  0  0  0  0  0
  185.7190  178.2860  142.6080 C   0  0  0  0  0  3  0  0  0  0  0  0
  184.5260  178.4860  141.9020 C   0  0  0  0  0  0  0  0  0  0  0  0
  185.1060  179.4930  139.8300 O   0  0  0  0  0  0  0  0  0  0  0  0
  183.7020  179.4400  139.7980 C   0  0  0  0  0  2  0  0  0  0  0  0
  184.5070  178.3580  140.4110 C   0  0  2  0  0  3  0  0  0  0  0  0
  188.1320  177.6440  143.8360 C   0  0  0  0  0  0  0  0  0  0  0  0
  187.9860  176.2380  143.3600 C   0  0  0  0  0  1  0  0  0  0  0  0
  189.1990  178.3750  143.5050 C   0  0  0  0  0  3  0  0  0  0  0  0
  190.2360  177.8560  142.6760 N   0  0  0  0  0  1  0  0  0  0  0  0
  1 23  1  6  0  0  0
  1  3  1  0  0  0  0
  2  8  1  0  0  0  0
  3  4  1  1  0  0  0
  3  7  1  0  0  0  0
  3  5  1  0  0  0  0
  5  8  1  0  0  0  0
  6  9  1  1  0  0  0
  6  2  1  0  0  0  0
  7  6  1  0  0  0  0
 10 13  1  0  0  0  0
 10  9  1  0  0  0  0
 11 10  2  0  0  0  0
 13 12  2  0  0  0  0
 14 17  1  0  0  0  0
 14  1  1  0  0  0  0
 15 17  2  0  0  0  0
 16 15  1  0  0  0  0
 18 14  2  0  0  0  0
 19 16  2  0  0  0  0
 19 18  1  0  0  0  0
 20 22  1  0  0  0  0
 21 20  1  0  0  0  0
 21 22  1  0  0  0  0
 22 19  1  1  0  0  0
 24 23  1  0  0  0  0
 25 23  2  0  0  0  0
 26 25  1  0  0  0  0
M  END
>  <MODEL>
4

>  <REMARK>
 VINA RESULT:      -7.1      2.477      7.735
  Name = 
  6 active torsions:
  status: ('A' for Active; 'I' for Inactive)
    1  A    between atoms: C_4  and  C_25
    2  A    between atoms: C_5  and  C_25
    3  A    between atoms: C_6  and  C_25
    4  A    between atoms: N_10  and  C_12
    5  A    between atoms: C_15  and  C_18
    6  A    between atoms: C_22  and  C_24
                            x       y       z     vdW  Elec       q    Type
                         _______ _______ _______ _____ _____    ______ ____

>  <TORSDO>
F 6

$$$$
=
 OpenBabel10232410023D

 26 28  0  0  1  0  0  0  0  0999 V2000
  189.1160  177.7440  143.3610 C   0  0  2  0  0  3  0  0  0  0  0  0
  191.7380  177.8770  140.6940 C   0  0  0  0  0  2  0  0  0  0  0  0
  190.0320  176.6910  142.6840 C   0  0  2  0  0  0  0  0  0  0  0  0
  189.8950  175.3280  143.3430 C   0  0  0  0  0  1  0  0  0  0  0  0
  191.5040  177.1380  142.8050 C   0  0  0  0  0  2  0  0  0  0  0  0
  190.2640  177.6380  140.3310 C   0  0  2  0  0  3  0  0  0  0  0  0
  189.6490  176.5380  141.2010 C   0  0  0  0  0  2  0  0  0  0  0  0
  192.2110  176.9180  141.6090 O   0  0  0  0  0  0  0  0  0  0  0  0
  190.1580  177.2800  138.9250 N   0  0  0  0  0  2  0  0  0  0  0  0
  189.4580  178.0900  137.9740 C   0  0  0  0  0  0  0  0  0  0  0  0
  188.9260  179.1750  138.3310 O   0  0  0  0  0  0  0  0  0  0  0  0
  190.0660  176.6650  136.0870 C   0  0  0  0  0  2  0  0  0  0  0  0
  189.3550  177.6740  136.5720 C   0  0  0  0  0  3  0  0  0  0  0  0
  189.0140  177.6560  144.8600 C   0  0  0  0  0  0  0  0  0  0  0  0
  187.7320  177.7730  146.9180 C   0  0  0  0  0  3  0  0  0  0  0  0
  188.8820  177.4720  147.6530 C   0  0  0  0  0  3  0  0  0  0  0  0
  187.7970  177.8680  145.5260 C   0  0  0  0  0  3  0  0  0  0  0  0
  190.1620  177.3550  145.6010 C   0  0  0  0  0  3  0  0  0  0  0  0
  190.1050  177.2730  146.9980 C   0  0  0  0  0  0  0  0  0  0  0  0
  192.3570  176.5240  146.8970 O   0  0  0  0  0  0  0  0  0  0  0  0
  191.6870  175.4900  147.5730 C   0  0  0  0  0  2  0  0  0  0  0  0
  191.3290  176.9130  147.7790 C   0  0  2  0  0  3  0  0  0  0  0  0
  187.7880  177.9970  142.6930 C   0  0  0  0  0  0  0  0  0  0  0  0
  186.6010  177.2400  143.1870 C   0  0  0  0  0  1  0  0  0  0  0  0
  187.6830  178.8530  141.6740 C   0  0  0  0  0  3  0  0  0  0  0  0
  186.4380  179.0950  141.0230 N   0  0  0  0  0  1  0  0  0  0  0  0
  1 23  1  6  0  0  0
  1 14  1  0  0  0  0
  2  8  1  0  0  0  0
  3  5  1  0  0  0  0
  3  4  1  1  0  0  0
  3  1  1  0  0  0  0
  6  9  1  6  0  0  0
  6  2  1  0  0  0  0
  6  7  1  0  0  0  0
  7  3  1  0  0  0  0
  8  5  1  0  0  0  0
 10 11  2  0  0  0  0
 10  9  1  0  0  0  0
 12 13  2  0  0  0  0
 13 10  1  0  0  0  0
 14 17  2  0  0  0  0
 14 18  1  0  0  0  0
 15 16  2  0  0  0  0
 17 15  1  0  0  0  0
 18 19  2  0  0  0  0
 19 16  1  0  0  0  0
 20 21  1  0  0  0  0
 20 22  1  0  0  0  0
 21 22  1  0  0  0  0
 22 19  1  6  0  0  0
 23 24  1  0  0  0  0
 25 23  2  0  0  0  0
 26 25  1  0  0  0  0
M  END
>  <MODEL>
5

>  <REMARK>
 VINA RESULT:      -6.9      3.203      5.469
  Name = 
  6 active torsions:
  status: ('A' for Active; 'I' for Inactive)
    1  A    between atoms: C_4  and  C_25
    2  A    between atoms: C_5  and  C_25
    3  A    between atoms: C_6  and  C_25
    4  A    between atoms: N_10  and  C_12
    5  A    between atoms: C_15  and  C_18
    6  A    between atoms: C_22  and  C_24
                            x       y       z     vdW  Elec       q    Type
                         _______ _______ _______ _____ _____    ______ ____

>  <TORSDO>
F 6

$$$$
=
 OpenBabel10232410023D

 26 28  0  0  1  0  0  0  0  0999 V2000
  188.4620  178.2600  143.3670 C   0  0  2  0  0  3  0  0  0  0  0  0
  188.2810  178.2300  147.1050 C   0  0  0  0  0  2  0  0  0  0  0  0
  187.8740  177.2840  144.4180 C   0  0  2  0  0  0  0  0  0  0  0  0
  187.1080  176.1490  143.7560 C   0  0  0  0  0  1  0  0  0  0  0  0
  186.9000  178.0480  145.3400 C   0  0  0  0  0  2  0  0  0  0  0  0
  189.4760  177.5960  146.3740 C   0  0  2  0  0  3  0  0  0  0  0  0
  189.0080  176.6630  145.2520 C   0  0  0  0  0  2  0  0  0  0  0  0
  187.0590  177.6720  146.6860 O   0  0  0  0  0  0  0  0  0  0  0  0
  190.2970  176.8620  147.3230 N   0  0  0  0  0  2  0  0  0  0  0  0
  191.5760  176.3170  146.9770 C   0  0  0  0  0  0  0  0  0  0  0  0
  192.0480  176.4860  145.8210 O   0  0  0  0  0  0  0  0  0  0  0  0
  193.1100  176.1640  148.8700 C   0  0  0  0  0  2  0  0  0  0  0  0
  192.3550  175.5610  147.9610 C   0  0  0  0  0  3  0  0  0  0  0  0
  187.7140  178.3490  142.0640 C   0  0  0  0  0  0  0  0  0  0  0  0
  185.7170  178.8670  140.7860 C   0  0  0  0  0  3  0  0  0  0  0  0
  186.3730  178.5000  139.6080 C   0  0  0  0  0  3  0  0  0  0  0  0
  186.3830  178.7900  142.0110 C   0  0  0  0  0  3  0  0  0  0  0  0
  188.3660  177.9810  140.8820 C   0  0  0  0  0  3  0  0  0  0  0  0
  187.6970  178.0430  139.6530 C   0  0  0  0  0  0  0  0  0  0  0  0
  189.7820  178.0010  138.5160 O   0  0  0  0  0  0  0  0  0  0  0  0
  189.0020  178.8900  137.7570 C   0  0  0  0  0  2  0  0  0  0  0  0
  188.4150  177.6850  138.3900 C   0  0  2  0  0  3  0  0  0  0  0  0
  189.9590  178.2180  143.1860 C   0  0  0  0  0  0  0  0  0  0  0  0
  190.7620  179.3530  143.7240 C   0  0  0  0  0  1  0  0  0  0  0  0
  190.5450  177.2070  142.5400 C   0  0  0  0  0  3  0  0  0  0  0  0
  191.9560  177.1560  142.3490 N   0  0  0  0  0  1  0  0  0  0  0  0
  1 23  1  6  0  0  0
  1  3  1  0  0  0  0
  3  4  1  6  0  0  0
  3  7  1  0  0  0  0
  3  5  1  0  0  0  0
  5  8  1  0  0  0  0
  6  2  1  0  0  0  0
  6  9  1  1  0  0  0
  7  6  1  0  0  0  0
  8  2  1  0  0  0  0
 10  9  1  0  0  0  0
 10 13  1  0  0  0  0
 11 10  2  0  0  0  0
 13 12  2  0  0  0  0
 14  1  1  0  0  0  0
 15 17  2  0  0  0  0
 16 19  2  0  0  0  0
 16 15  1  0  0  0  0
 17 14  1  0  0  0  0
 18 14  2  0  0  0  0
 19 18  1  0  0  0  0
 21 22  1  0  0  0  0
 21 20  1  0  0  0  0
 22 20  1  0  0  0  0
 22 19  1  1  0  0  0
 23 24  1  0  0  0  0
 25 23  2  0  0  0  0
 26 25  1  0  0  0  0
M  END
>  <MODEL>
6

>  <REMARK>
 VINA RESULT:      -6.7      3.139      7.436
  Name = 
  6 active torsions:
  status: ('A' for Active; 'I' for Inactive)
    1  A    between atoms: C_4  and  C_25
    2  A    between atoms: C_5  and  C_25
    3  A    between atoms: C_6  and  C_25
    4  A    between atoms: N_10  and  C_12
    5  A    between atoms: C_15  and  C_18
    6  A    between atoms: C_22  and  C_24
                            x       y       z     vdW  Elec       q    Type
                         _______ _______ _______ _____ _____    ______ ____

>  <TORSDO>
F 6

$$$$
=
 OpenBabel10232410023D

 26 28  0  0  1  0  0  0  0  0999 V2000
  189.2780  177.7130  143.2460 C   0  0  2  0  0  3  0  0  0  0  0  0
  191.8520  177.8920  140.5360 C   0  0  0  0  0  2  0  0  0  0  0  0
  190.1850  176.6730  142.5390 C   0  0  2  0  0  0  0  0  0  0  0  0
  190.0640  175.3010  143.1830 C   0  0  0  0  0  1  0  0  0  0  0  0
  191.6580  177.1240  142.6400 C   0  0  0  0  0  2  0  0  0  0  0  0
  190.3720  177.6520  140.1950 C   0  0  2  0  0  3  0  0  0  0  0  0
  189.7760  176.5380  141.0620 C   0  0  0  0  0  2  0  0  0  0  0  0
  192.3440  176.9220  141.4290 O   0  0  0  0  0  0  0  0  0  0  0  0
  190.2420  177.3120  138.7870 N   0  0  0  0  0  2  0  0  0  0  0  0
  189.4910  178.1120  137.8670 C   0  0  0  0  0  0  0  0  0  0  0  0
  188.9310  179.1720  138.2550 O   0  0  0  0  0  0  0  0  0  0  0  0
  188.1860  177.6060  135.8670 C   0  0  0  0  0  2  0  0  0  0  0  0
  189.3660  177.7130  136.4620 C   0  0  0  0  0  3  0  0  0  0  0  0
  189.2320  177.6290  144.7490 C   0  0  0  0  0  0  0  0  0  0  0  0
  190.3060  177.2690  146.8950 C   0  0  0  0  0  3  0  0  0  0  0  0
  189.0880  177.4910  147.5440 C   0  0  0  0  0  3  0  0  0  0  0  0
  190.3790  177.3350  145.5020 C   0  0  0  0  0  3  0  0  0  0  0  0
  188.0150  177.8490  145.4030 C   0  0  0  0  0  3  0  0  0  0  0  0
  187.9350  177.7700  146.7990 C   0  0  0  0  0  0  0  0  0  0  0  0
  185.5780  177.9580  146.5670 O   0  0  0  0  0  0  0  0  0  0  0  0
  185.9860  179.2520  146.9320 C   0  0  0  0  0  2  0  0  0  0  0  0
  186.6370  178.0450  147.4910 C   0  0  2  0  0  3  0  0  0  0  0  0
  187.9220  177.9420  142.6270 C   0  0  0  0  0  0  0  0  0  0  0  0
  186.7700  177.1550  143.1550 C   0  0  0  0  0  1  0  0  0  0  0  0
  187.7630  178.8040  141.6210 C   0  0  0  0  0  3  0  0  0  0  0  0
  186.4910  179.0240  141.0150 N   0  0  0  0  0  1  0  0  0  0  0  0
  1 23  1  6  0  0  0
  1 14  1  0  0  0  0
  2  8  1  0  0  0  0
  3  5  1  0  0  0  0
  3  4  1  1  0  0  0
  3  1  1  0  0  0  0
  6  9  1  6  0  0  0
  6  2  1  0  0  0  0
  6  7  1  0  0  0  0
  7  3  1  0  0  0  0
  8  5  1  0  0  0  0
 10 11  2  0  0  0  0
 10  9  1  0  0  0  0
 12 13  2  0  0  0  0
 13 10  1  0  0  0  0
 14 18  2  0  0  0  0
 14 17  1  0  0  0  0
 15 16  1  0  0  0  0
 17 15  2  0  0  0  0
 18 19  1  0  0  0  0
 19 16  2  0  0  0  0
 20 21  1  0  0  0  0
 20 22  1  0  0  0  0
 21 22  1  0  0  0  0
 22 19  1  6  0  0  0
 23 24  1  0  0  0  0
 25 23  2  0  0  0  0
 26 25  1  0  0  0  0
M  END
>  <MODEL>
7

>  <REMARK>
 VINA RESULT:      -6.6      3.312      5.825
  Name = 
  6 active torsions:
  status: ('A' for Active; 'I' for Inactive)
    1  A    between atoms: C_4  and  C_25
    2  A    between atoms: C_5  and  C_25
    3  A    between atoms: C_6  and  C_25
    4  A    between atoms: N_10  and  C_12
    5  A    between atoms: C_15  and  C_18
    6  A    between atoms: C_22  and  C_24
                            x       y       z     vdW  Elec       q    Type
                         _______ _______ _______ _____ _____    ______ ____

>  <TORSDO>
F 6

$$$$
=
 OpenBabel10232410023D

 26 28  0  0  1  0  0  0  0  0999 V2000
  182.6430  179.2850  139.6300 C   0  0  2  0  0  3  0  0  0  0  0  0
  180.7750  179.5890  142.8590 C   0  0  0  0  0  2  0  0  0  0  0  0
  181.8220  178.3040  140.5070 C   0  0  2  0  0  0  0  0  0  0  0  0
  181.6590  176.9540  139.8270 C   0  0  0  0  0  1  0  0  0  0  0  0
  180.4150  178.8910  140.7520 C   0  0  0  0  0  2  0  0  0  0  0  0
  182.2630  179.2020  142.8490 C   0  0  2  0  0  3  0  0  0  0  0  0
  182.5370  178.0740  141.8490 C   0  0  0  0  0  2  0  0  0  0  0  0
  180.0020  178.7040  142.0840 O   0  0  0  0  0  0  0  0  0  0  0  0
  182.6730  178.7960  144.1840 N   0  0  0  0  0  2  0  0  0  0  0  0
  183.9660  179.0990  144.7200 C   0  0  0  0  0  0  0  0  0  0  0  0
  184.7950  179.7650  144.0430 O   0  0  0  0  0  0  0  0  0  0  0  0
  185.6030  178.3880  146.3840 C   0  0  0  0  0  2  0  0  0  0  0  0
  184.3430  178.6440  146.0610 C   0  0  0  0  0  3  0  0  0  0  0  0
  181.9090  179.8960  138.4660 C   0  0  0  0  0  0  0  0  0  0  0  0
  180.8490  179.7230  136.2900 C   0  0  0  0  0  3  0  0  0  0  0  0
  180.5390  181.0850  136.3300 C   0  0  0  0  0  3  0  0  0  0  0  0
  181.5340  179.1290  137.3520 C   0  0  0  0  0  3  0  0  0  0  0  0
  181.5970  181.2590  138.5020 C   0  0  0  0  0  3  0  0  0  0  0  0
  180.9230  181.8620  137.4320 C   0  0  0  0  0  0  0  0  0  0  0  0
  180.9080  183.9420  136.2860 O   0  0  0  0  0  0  0  0  0  0  0  0
  181.7650  184.1640  137.3770 C   0  0  0  0  0  2  0  0  0  0  0  0
  180.5590  183.3110  137.4960 C   0  0  2  0  0  3  0  0  0  0  0  0
  184.0440  178.8500  139.2820 C   0  0  0  0  0  0  0  0  0  0  0  0
  184.2520  178.1240  137.9950 C   0  0  0  0  0  1  0  0  0  0  0  0
  185.0630  179.0860  140.1110 C   0  0  0  0  0  3  0  0  0  0  0  0
  186.3920  178.6710  139.8030 N   0  0  0  0  0  1  0  0  0  0  0  0
  1 23  1  6  0  0  0
  1  3  1  0  0  0  0
  3  4  1  6  0  0  0
  3  5  1  0  0  0  0
  3  7  1  0  0  0  0
  5  8  1  0  0  0  0
  6  2  1  0  0  0  0
  6  9  1  1  0  0  0
  7  6  1  0  0  0  0
  8  2  1  0  0  0  0
  9 10  1  0  0  0  0
 10 13  1  0  0  0  0
 11 10  2  0  0  0  0
 13 12  2  0  0  0  0
 14 18  1  0  0  0  0
 14  1  1  0  0  0  0
 15 16  2  0  0  0  0
 15 17  1  0  0  0  0
 16 19  1  0  0  0  0
 17 14  2  0  0  0  0
 19 18  2  0  0  0  0
 20 21  1  0  0  0  0
 20 22  1  0  0  0  0
 21 22  1  0  0  0  0
 22 19  1  6  0  0  0
 23 25  2  0  0  0  0
 24 23  1  0  0  0  0
 26 25  1  0  0  0  0
M  END
>  <MODEL>
8

>  <REMARK>
 VINA RESULT:      -6.6      4.567      9.598
  Name = 
  6 active torsions:
  status: ('A' for Active; 'I' for Inactive)
    1  A    between atoms: C_4  and  C_25
    2  A    between atoms: C_5  and  C_25
    3  A    between atoms: C_6  and  C_25
    4  A    between atoms: N_10  and  C_12
    5  A    between atoms: C_15  and  C_18
    6  A    between atoms: C_22  and  C_24
                            x       y       z     vdW  Elec       q    Type
                         _______ _______ _______ _____ _____    ______ ____

>  <TORSDO>
F 6

$$$$
=
 OpenBabel10232410023D

 26 28  0  0  1  0  0  0  0  0999 V2000
  190.0280  176.8470  143.9820 C   0  0  2  0  0  3  0  0  0  0  0  0
  189.0580  177.5380  140.4340 C   0  0  0  0  0  2  0  0  0  0  0  0
  190.4850  177.8700  142.9100 C   0  0  2  0  0  0  0  0  0  0  0  0
  191.4670  178.8780  143.4860 C   0  0  0  0  0  1  0  0  0  0  0  0
  189.2580  178.6440  142.3820 C   0  0  0  0  0  2  0  0  0  0  0  0
  190.1830  176.5420  140.7580 C   0  0  2  0  0  3  0  0  0  0  0  0
  191.1850  177.1400  141.7510 C   0  0  0  0  0  2  0  0  0  0  0  0
  189.3110  178.8080  140.9860 O   0  0  0  0  0  0  0  0  0  0  0  0
  190.8640  176.1570  139.5320 N   0  0  0  0  0  2  0  0  0  0  0  0
  190.4430  176.6090  138.2410 C   0  0  0  0  0  0  0  0  0  0  0  0
  189.4620  177.3930  138.1290 O   0  0  0  0  0  0  0  0  0  0  0  0
  190.5600  176.1760  135.8410 C   0  0  0  0  0  2  0  0  0  0  0  0
  191.1450  176.1710  137.0310 C   0  0  0  0  0  3  0  0  0  0  0  0
  188.7200  177.1520  144.6630 C   0  0  0  0  0  0  0  0  0  0  0  0
  186.2940  177.1750  144.7010 C   0  0  0  0  0  3  0  0  0  0  0  0
  186.3170  177.7350  145.9820 C   0  0  0  0  0  3  0  0  0  0  0  0
  187.4900  176.8870  144.0420 C   0  0  0  0  0  3  0  0  0  0  0  0
  188.7390  177.7130  145.9440 C   0  0  0  0  0  3  0  0  0  0  0  0
  187.5410  178.0180  146.6040 C   0  0  0  0  0  0  0  0  0  0  0  0
  188.8540  178.4120  148.5430 O   0  0  0  0  0  0  0  0  0  0  0  0
  187.8600  177.5230  148.9840 C   0  0  0  0  0  2  0  0  0  0  0  0
  187.5700  178.5820  147.9890 C   0  0  2  0  0  3  0  0  0  0  0  0
  191.0910  176.3650  144.9360 C   0  0  0  0  0  0  0  0  0  0  0  0
  191.9820  175.2550  144.4900 C   0  0  0  0  0  1  0  0  0  0  0  0
  191.2150  176.8990  146.1540 C   0  0  0  0  0  3  0  0  0  0  0  0
  192.2060  176.4470  147.0740 N   0  0  0  0  0  1  0  0  0  0  0  0
  1 14  1  0  0  0  0
  1 23  1  1  0  0  0
  2  6  1  0  0  0  0
  2  8  1  0  0  0  0
  3  4  1  1  0  0  0
  3  1  1  0  0  0  0
  5  3  1  0  0  0  0
  6  9  1  6  0  0  0
  6  7  1  0  0  0  0
  7  3  1  0  0  0  0
  8  5  1  0  0  0  0
 10  9  1  0  0  0  0
 11 10  2  0  0  0  0
 12 13  2  0  0  0  0
 13 10  1  0  0  0  0
 14 18  1  0  0  0  0
 15 16  2  0  0  0  0
 16 19  1  0  0  0  0
 17 14  2  0  0  0  0
 17 15  1  0  0  0  0
 18 19  2  0  0  0  0
 20 21  1  0  0  0  0
 22 19  1  6  0  0  0
 22 20  1  0  0  0  0
 22 21  1  0  0  0  0
 23 25  2  0  0  0  0
 24 23  1  0  0  0  0
 25 26  1  0  0  0  0
M  END
>  <MODEL>
9

>  <REMARK>
 VINA RESULT:      -6.5      3.615      6.183
  Name = 
  6 active torsions:
  status: ('A' for Active; 'I' for Inactive)
    1  A    between atoms: C_4  and  C_25
    2  A    between atoms: C_5  and  C_25
    3  A    between atoms: C_6  and  C_25
    4  A    between atoms: N_10  and  C_12
    5  A    between atoms: C_15  and  C_18
    6  A    between atoms: C_22  and  C_24
                            x       y       z     vdW  Elec       q    Type
                         _______ _______ _______ _____ _____    ______ ____

>  <TORSDO>
F 6

$$$$
