=
 OpenBabel10232410003D

 58 61  0  0  1  0  0  0  0  0999 V2000
  181.9270  178.8860  138.3790 C   0  0  0  0  0  3  0  0  0  0  0  0
  181.4300  178.6750  139.5900 C   0  0  0  0  0  2  0  0  0  0  0  0
  182.1590  178.5020  140.8670 C   0  0  0  0  0  3  0  0  0  0  0  0
  184.5440  178.6420  138.8170 C   0  0  0  0  0  0  0  0  0  0  0  0
  183.3860  179.1340  137.9980 C   0  0  0  0  0  3  0  0  0  0  0  0
  184.5620  178.4290  140.1300 C   0  0  0  0  0  3  0  0  0  0  0  0
  183.4680  178.3420  141.1480 C   0  0  0  0  0  0  0  0  0  0  0  0
  184.0170  177.9630  142.5710 C   0  0  0  0  0  2  0  0  0  0  0  0
  185.2780  178.6790  143.1240 C   0  0  2  0  0  3  0  0  0  0  0  0
  184.9210  180.1470  143.4120 C   0  0  0  0  0  1  0  0  0  0  0  0
  186.4510  178.5280  142.1200 C   0  0  0  0  0  2  0  0  0  0  0  0
  187.7190  178.2260  142.8030 N   0  0  0  0  0  0  0  0  0  0  0  0
  191.1980  177.6760  142.5280 C   0  0  1  0  0  3  0  0  0  0  0  0
  188.7750  177.1460  140.1370 O   0  0  0  0  0  0  0  0  0  0  0  0
  190.5070  176.7630  141.6380 N   0  0  0  0  0  2  0  0  0  0  0  0
  189.3320  177.4380  141.2230 C   0  0  0  0  0  0  0  0  0  0  0  0
  188.9510  178.5730  142.1120 C   0  0  2  0  0  3  0  0  0  0  0  0
  190.1400  178.6180  143.0890 C   0  0  0  0  0  2  0  0  0  0  0  0
  191.9660  176.9020  143.5780 C   0  0  0  0  0  3  0  0  0  0  0  0
  191.4370  176.9320  145.0010 N   0  0  0  0  0  0  0  0  0  0  0  0
  191.6830  176.1240  146.1800 C   0  0  0  0  0  0  0  0  0  0  0  0
  191.1520  176.4990  147.5240 N   0  0  0  0  0  1  0  0  0  0  0  0
  192.2950  175.0710  146.1370 O   0  0  0  0  0  0  0  0  0  0  0  0
  187.7480  176.8190  143.2250 C   0  0  0  0  0  2  0  0  0  0  0  0
  187.4690  176.4540  144.6720 C   0  0  0  0  0  2  0  0  0  0  0  0
  187.8270  177.7270  145.4750 C   0  0  0  0  0  2  0  0  0  0  0  0
  187.0640  178.1510  146.7590 C   0  0  2  0  0  0  0  0  0  0  0  0
  186.1780  177.0380  147.2770 C   0  0  0  0  0  1  0  0  0  0  0  0
  186.1260  179.3030  146.4300 C   0  0  0  0  0  2  0  0  0  0  0  0
  186.0110  180.1410  147.6020 N   0  0  0  0  0  1  0  0  0  0  0  0
  188.0480  177.9360  149.1080 O   0  0  0  0  0  1  0  0  0  0  0  0
  188.1900  178.4510  147.7950 C   0  0  0  0  0  2  0  0  0  0  0  0
  185.8800  178.3440  138.1560 C   0  0  0  0  0  2  0  0  0  0  0  0
  186.2570  176.6850  136.3100 C   0  0  0  0  0  0  0  0  0  0  0  0
  186.1910  176.9380  137.6290 C   0  0  0  0  0  3  0  0  0  0  0  0
  185.8900  177.7240  135.3300 C   0  0  0  0  0  1  0  0  0  0  0  0
  186.5500  175.3630  135.6930 C   0  0  0  0  0  3  0  0  0  0  0  0
  187.7440  174.8640  135.3530 C   0  0  0  0  0  0  0  0  0  0  0  0
  187.6390  173.3940  134.9050 C   0  0  0  0  0  1  0  0  0  0  0  0
  189.8460  176.6320  136.1360 C   0  0  1  0  0  3  0  0  0  0  0  0
  189.1570  176.4860  134.8910 O   0  0  0  0  0  0  0  0  0  0  0  0
  189.1170  175.3800  135.6670 C   0  0  2  0  0  3  0  0  0  0  0  0
  191.2250  176.2100  136.0010 N   0  0  0  0  0  2  0  0  0  0  0  0
  191.7520  176.6530  138.3360 C   0  0  0  0  0  1  0  0  0  0  0  0
  191.8340  175.6800  137.1920 C   0  0  2  0  0  3  0  0  0  0  0  0
  193.8290  174.0730  136.8750 N   0  0  0  0  0  2  0  0  0  0  0  0
  193.2710  175.4230  137.0340 C   0  0  0  0  0  0  0  0  0  0  0  0
  194.0900  176.4120  136.9340 O   0  0  0  0  0  0  0  0  0  0  0  0
  195.2440  173.8220  136.6920 C   0  0  1  0  0  3  0  0  0  0  0  0
  195.0770  172.5470  134.5330 O   0  0  0  0  0  1  0  0  0  0  0  0
  196.0480  170.1040  135.1760 N   0  0  0  0  0  1  0  0  0  0  0  0
  195.6790  171.1780  137.2800 S   0  0  0  0  0  0  0  0  0  0  0  0
  195.5990  172.4750  135.8630 C   0  0  2  0  0  0  0  0  0  0  0  0
  196.5570  171.3200  135.8040 C   0  0  2  0  0  3  0  0  0  0  0  0
  196.1550  174.7700  137.1540 O   0  0  0  0  0  0  0  0  0  0  0  0
  196.5820  174.3900  138.8230 S   0  0  0  0  0  0  0  0  0  0  0  0
  198.6140  175.7660  139.0160 N   0  0  0  0  0  1  0  0  0  0  0  0
  198.2630  174.4650  138.4320 C   0  0  0  0  0  2  0  0  0  0  0  0
  1  2  1  0  0  0  0
  2  3  1  0  0  0  0
  3  7  2  0  0  0  0
  4  6  2  0  0  0  0
  5  1  2  0  0  0  0
  5  4  1  0  0  0  0
  6  7  1  0  0  0  0
  7  8  1  0  0  0  0
  8  9  1  0  0  0  0
  9 10  1  6  0  0  0
 11 12  1  0  0  0  0
 11  9  1  0  0  0  0
 12 24  1  0  0  0  0
 13 18  1  0  0  0  0
 13 19  1  1  0  0  0
 14 16  2  0  0  0  0
 15 13  1  0  0  0  0
 16 15  1  0  0  0  0
 16 17  1  0  0  0  0
 17 12  1  1  0  0  0
 17 18  1  0  0  0  0
 19 20  2  0  0  0  0
 20 21  1  0  0  0  0
 21 22  1  0  0  0  0
 23 21  2  0  0  0  0
 24 25  1  0  0  0  0
 25 26  1  0  0  0  0
 26 27  1  0  0  0  0
 27 28  1  1  0  0  0
 27 32  1  0  0  0  0
 29 27  1  0  0  0  0
 29 30  1  0  0  0  0
 32 31  1  0  0  0  0
 33  4  1  0  0  0  0
 34 35  2  0  0  0  0
 35 33  1  0  0  0  0
 36 34  1  0  0  0  0
 37 34  1  0  0  0  0
 38 37  2  0  0  0  0
 39 38  1  0  0  0  0
 40 43  1  6  0  0  0
 41 42  1  0  0  0  0
 41 40  1  0  0  0  0
 42 38  1  1  0  0  0
 42 40  1  0  0  0  0
 43 45  1  0  0  0  0
 45 44  1  1  0  0  0
 46 47  1  0  0  0  0
 47 45  1  0  0  0  0
 48 47  2  0  0  0  0
 49 46  1  6  0  0  0
 49 55  1  0  0  0  0
 53 50  1  6  0  0  0
 53 49  1  0  0  0  0
 53 52  1  0  0  0  0
 54 51  1  6  0  0  0
 54 53  1  0  0  0  0
 54 52  1  0  0  0  0
 55 56  1  0  0  0  0
 58 56  1  0  0  0  0
 58 57  1  0  0  0  0
M  END
>  <MODEL>
1

>  <REMARK>
 VINA RESULT:      -5.7      0.000      0.000
  Name = 
  25 active torsions:
  status: ('A' for Active; 'I' for Inactive)
    1  A    between atoms: C_2  and  C_30
    2  A    between atoms: C_5  and  C_16
    3  A    between atoms: C_7  and  N_17
    4  A    between atoms: C_7  and  C_57
    5  A    between atoms: C_8  and  C_13
    6  A    between atoms: C_8  and  C_35
    7  A    between atoms: C_9  and  C_21
    8  A    between atoms: C_9  and  C_49
    9  A    between atoms: C_10  and  C_14
   10  A    between atoms: C_11  and  N_34
   11  A    between atoms: C_14  and  C_32
   12  A    between atoms: C_14  and  C_39
   13  A    between atoms: N_17  and  C_21
   14  A    between atoms: N_17  and  C_50
   15  A    between atoms: C_19  and  N_34
   16  A    between atoms: C_19  and  C_38
   17  A    between atoms: C_23  and  N_24
   18  A    between atoms: C_23  and  C_36
   19  A    between atoms: C_23  and  O_43
   20  A    between atoms: N_25  and  C_30
   21  A    between atoms: C_27  and  C_40
   22  A    between atoms: C_32  and  C_57
   23  A    between atoms: O_43  and  S_53
   24  A    between atoms: C_46  and  S_53
   25  A    between atoms: C_49  and  C_56
                            x       y       z     vdW  Elec       q    Type
                         _______ _______ _______ _____ _____    ______ ____

>  <TORSDO>
F 25

$$$$
=
 OpenBabel10232410003D

 58 61  0  0  1  0  0  0  0  0999 V2000
  181.9890  178.8830  138.3830 C   0  0  0  0  0  3  0  0  0  0  0  0
  181.4610  178.6330  139.5730 C   0  0  0  0  0  2  0  0  0  0  0  0
  182.1530  178.4550  140.8690 C   0  0  0  0  0  3  0  0  0  0  0  0
  184.5970  178.7070  138.9010 C   0  0  0  0  0  0  0  0  0  0  0  0
  183.4520  179.1820  138.0550 C   0  0  0  0  0  3  0  0  0  0  0  0
  184.5800  178.4680  140.2090 C   0  0  0  0  0  3  0  0  0  0  0  0
  183.4570  178.3280  141.1900 C   0  0  0  0  0  0  0  0  0  0  0  0
  183.9720  177.9360  142.6220 C   0  0  0  0  0  2  0  0  0  0  0  0
  185.2390  178.6210  143.1970 C   0  0  2  0  0  3  0  0  0  0  0  0
  184.9020  180.0880  143.5140 C   0  0  0  0  0  1  0  0  0  0  0  0
  186.4160  178.4740  142.1970 C   0  0  0  0  0  2  0  0  0  0  0  0
  187.6740  178.1270  142.8800 N   0  0  0  0  0  0  0  0  0  0  0  0
  191.1350  177.5000  142.5580 C   0  0  1  0  0  3  0  0  0  0  0  0
  188.7030  177.2520  140.1300 O   0  0  0  0  0  0  0  0  0  0  0  0
  190.4190  176.6890  141.5920 N   0  0  0  0  0  2  0  0  0  0  0  0
  189.2660  177.4320  141.2370 C   0  0  0  0  0  0  0  0  0  0  0  0
  188.9160  178.4960  142.2220 C   0  0  2  0  0  3  0  0  0  0  0  0
  190.1040  178.4210  143.1990 C   0  0  0  0  0  2  0  0  0  0  0  0
  191.8770  176.6150  143.5360 C   0  0  0  0  0  3  0  0  0  0  0  0
  191.5130  176.7310  145.0060 N   0  0  0  0  0  0  0  0  0  0  0  0
  191.8840  175.9860  146.1930 C   0  0  0  0  0  0  0  0  0  0  0  0
  191.5110  176.4420  147.5650 N   0  0  0  0  0  1  0  0  0  0  0  0
  192.4790  174.9230  146.1410 O   0  0  0  0  0  0  0  0  0  0  0  0
  187.6850  176.7010  143.2330 C   0  0  0  0  0  2  0  0  0  0  0  0
  187.8400  176.2790  144.6830 C   0  0  0  0  0  2  0  0  0  0  0  0
  187.9150  177.6070  145.4740 C   0  0  0  0  0  2  0  0  0  0  0  0
  186.9400  177.9480  146.6330 C   0  0  2  0  0  0  0  0  0  0  0  0
  185.7380  177.0280  146.6430 C   0  0  0  0  0  1  0  0  0  0  0  0
  186.3840  179.3490  146.4270 C   0  0  0  0  0  2  0  0  0  0  0  0
  185.7680  179.7780  147.6640 N   0  0  0  0  0  1  0  0  0  0  0  0
  189.1500  178.0960  147.9080 O   0  0  0  0  0  1  0  0  0  0  0  0
  187.7840  177.7230  147.9250 C   0  0  0  0  0  2  0  0  0  0  0  0
  185.9620  178.4620  138.2780 C   0  0  0  0  0  2  0  0  0  0  0  0
  186.6400  177.0090  136.3460 C   0  0  0  0  0  0  0  0  0  0  0  0
  186.2940  177.1070  137.6430 C   0  0  0  0  0  3  0  0  0  0  0  0
  186.5680  178.1870  135.4630 C   0  0  0  0  0  1  0  0  0  0  0  0
  186.9810  175.7500  135.6310 C   0  0  0  0  0  3  0  0  0  0  0  0
  188.1940  175.2170  135.4430 C   0  0  0  0  0  0  0  0  0  0  0  0
  188.1070  173.8180  134.8060 C   0  0  0  0  0  1  0  0  0  0  0  0
  190.1270  176.5720  137.0510 C   0  0  1  0  0  3  0  0  0  0  0  0
  189.5180  176.9360  135.8080 O   0  0  0  0  0  0  0  0  0  0  0  0
  189.5090  175.6050  136.0490 C   0  0  2  0  0  3  0  0  0  0  0  0
  191.5360  176.2980  136.8610 N   0  0  0  0  0  2  0  0  0  0  0  0
  192.9250  176.7620  138.8050 C   0  0  0  0  0  1  0  0  0  0  0  0
  192.2150  175.7170  137.9880 C   0  0  2  0  0  3  0  0  0  0  0  0
  194.7050  175.0710  137.7680 N   0  0  0  0  0  0  0  0  0  0  0  0
  193.2750  174.7790  137.5960 C   0  0  0  0  0  0  0  0  0  0  0  0
  192.9630  173.6050  137.1670 O   0  0  0  0  0  0  0  0  0  0  0  0
  195.7490  174.1320  137.4060 C   0  0  0  0  0  0  0  0  0  0  0  0
  197.0570  175.1140  139.3150 O   0  0  0  0  0  1  0  0  0  0  0  0
  199.6150  175.0040  138.4370 N   0  0  0  0  0  1  0  0  0  0  0  0
  198.2910  174.5970  136.4880 S   0  0  0  0  0  0  0  0  0  0  0  0
  197.1990  174.4380  138.0610 C   0  0  2  0  0  0  0  0  0  0  0  0
  198.6330  173.9900  138.0630 C   0  0  2  0  0  3  0  0  0  0  0  0
  195.4150  173.0330  136.6190 O   0  0  0  0  0  0  0  0  0  0  0  0
  195.7970  171.5550  137.5050 S   0  0  0  0  0  0  0  0  0  0  0  0
  194.8550  171.6140  135.2300 N   0  0  0  0  0  1  0  0  0  0  0  0
  195.0430  170.6010  136.2770 C   0  0  0  0  0  2  0  0  0  0  0  0
  1  2  1  0  0  0  0
  2  3  1  0  0  0  0
  3  7  2  0  0  0  0
  4  6  2  0  0  0  0
  5  1  2  0  0  0  0
  5  4  1  0  0  0  0
  6  7  1  0  0  0  0
  7  8  1  0  0  0  0
  8  9  1  0  0  0  0
  9 10  1  6  0  0  0
 11 12  1  0  0  0  0
 11  9  1  0  0  0  0
 12 24  1  0  0  0  0
 13 18  1  0  0  0  0
 13 19  1  1  0  0  0
 14 16  2  0  0  0  0
 15 13  1  0  0  0  0
 16 15  1  0  0  0  0
 16 17  1  0  0  0  0
 17 12  1  1  0  0  0
 17 18  1  0  0  0  0
 19 20  2  0  0  0  0
 20 21  1  0  0  0  0
 21 22  1  0  0  0  0
 23 21  2  0  0  0  0
 24 25  1  0  0  0  0
 25 26  1  0  0  0  0
 26 27  1  0  0  0  0
 27 28  1  6  0  0  0
 27 32  1  0  0  0  0
 29 27  1  0  0  0  0
 29 30  1  0  0  0  0
 31 32  1  0  0  0  0
 33  4  1  0  0  0  0
 34 35  2  0  0  0  0
 35 33  1  0  0  0  0
 36 34  1  0  0  0  0
 37 34  1  0  0  0  0
 38 37  2  0  0  0  0
 39 38  1  0  0  0  0
 40 43  1  6  0  0  0
 41 42  1  0  0  0  0
 41 40  1  0  0  0  0
 42 38  1  1  0  0  0
 42 40  1  0  0  0  0
 43 45  1  0  0  0  0
 45 44  1  6  0  0  0
 47 46  1  0  0  0  0
 47 45  1  0  0  0  0
 48 47  2  0  0  0  0
 49 46  2  0  0  0  0
 49 53  1  0  0  0  0
 52 53  1  0  0  0  0
 52 54  1  0  0  0  0
 53 54  1  0  0  0  0
 53 50  1  1  0  0  0
 54 51  1  1  0  0  0
 55 49  1  0  0  0  0
 55 56  1  0  0  0  0
 57 58  1  0  0  0  0
 58 56  1  0  0  0  0
M  END
>  <MODEL>
2

>  <REMARK>
 VINA RESULT:      -5.7      0.985      2.050
  Name = 
  25 active torsions:
  status: ('A' for Active; 'I' for Inactive)
    1  A    between atoms: C_2  and  C_30
    2  A    between atoms: C_5  and  C_16
    3  A    between atoms: C_7  and  N_17
    4  A    between atoms: C_7  and  C_57
    5  A    between atoms: C_8  and  C_13
    6  A    between atoms: C_8  and  C_35
    7  A    between atoms: C_9  and  C_21
    8  A    between atoms: C_9  and  C_49
    9  A    between atoms: C_10  and  C_14
   10  A    between atoms: C_11  and  N_34
   11  A    between atoms: C_14  and  C_32
   12  A    between atoms: C_14  and  C_39
   13  A    between atoms: N_17  and  C_21
   14  A    between atoms: N_17  and  C_50
   15  A    between atoms: C_19  and  N_34
   16  A    between atoms: C_19  and  C_38
   17  A    between atoms: C_23  and  N_24
   18  A    between atoms: C_23  and  C_36
   19  A    between atoms: C_23  and  O_43
   20  A    between atoms: N_25  and  C_30
   21  A    between atoms: C_27  and  C_40
   22  A    between atoms: C_32  and  C_57
   23  A    between atoms: O_43  and  S_53
   24  A    between atoms: C_46  and  S_53
   25  A    between atoms: C_49  and  C_56
                            x       y       z     vdW  Elec       q    Type
                         _______ _______ _______ _____ _____    ______ ____

>  <TORSDO>
F 25

$$$$
=
 OpenBabel10232410003D

 58 61  0  0  1  0  0  0  0  0999 V2000
  190.8140  177.5940  146.1170 C   0  0  0  0  0  3  0  0  0  0  0  0
  191.5930  177.7670  145.0580 C   0  0  0  0  0  3  0  0  0  0  0  0
  191.1980  177.9160  143.6390 C   0  0  0  0  0  3  0  0  0  0  0  0
  188.4170  177.3140  144.9870 C   0  0  0  0  0  0  0  0  0  0  0  0
  189.2870  177.6280  146.1690 C   0  0  0  0  0  2  0  0  0  0  0  0
  188.7220  177.4800  143.7030 C   0  0  0  0  0  3  0  0  0  0  0  0
  190.0180  177.7570  143.0060 C   0  0  0  0  0  0  0  0  0  0  0  0
  189.8560  177.7620  141.4430 C   0  0  0  0  0  2  0  0  0  0  0  0
  190.7450  176.8330  140.5750 C   0  0  2  0  0  3  0  0  0  0  0  0
  192.1030  177.5220  140.3530 C   0  0  0  0  0  1  0  0  0  0  0  0
  190.0150  176.4940  139.2490 C   0  0  0  0  0  2  0  0  0  0  0  0
  190.4480  177.3700  138.1480 N   0  0  0  0  0  0  0  0  0  0  0  0
  187.5540  177.7010  136.1490 C   0  0  1  0  0  3  0  0  0  0  0  0
  187.9310  178.5020  139.4780 O   0  0  0  0  0  0  0  0  0  0  0  0
  187.1520  177.5060  137.5280 N   0  0  0  0  0  2  0  0  0  0  0  0
  188.1740  178.0890  138.3180 C   0  0  0  0  0  0  0  0  0  0  0  0
  189.4590  178.2770  137.5860 C   0  0  2  0  0  3  0  0  0  0  0  0
  189.0700  177.8550  136.1580 C   0  0  0  0  0  2  0  0  0  0  0  0
  187.0460  176.5620  135.2910 C   0  0  0  0  0  2  0  0  0  0  0  0
  186.7490  175.2410  135.9790 N   0  0  0  0  0  2  0  0  0  0  0  0
  187.4640  173.9850  136.0920 C   0  0  0  0  0  0  0  0  0  0  0  0
  187.0090  172.8910  137.0020 N   0  0  0  0  0  1  0  0  0  0  0  0
  188.4490  173.7280  135.4210 O   0  0  0  0  0  0  0  0  0  0  0  0
  191.0780  176.5780  137.0840 C   0  0  0  0  0  2  0  0  0  0  0  0
  191.9540  175.3900  137.4390 C   0  0  0  0  0  2  0  0  0  0  0  0
  193.2630  175.6150  136.6450 C   0  0  0  0  0  2  0  0  0  0  0  0
  194.4980  174.6830  136.7820 C   0  0  2  0  0  0  0  0  0  0  0  0
  194.9340  174.5410  138.2250 C   0  0  0  0  0  1  0  0  0  0  0  0
  195.6810  175.3050  136.0550 C   0  0  0  0  0  2  0  0  0  0  0  0
  195.3550  176.6820  135.7550 N   0  0  0  0  0  1  0  0  0  0  0  0
  193.7690  172.2660  137.1780 O   0  0  0  0  0  1  0  0  0  0  0  0
  194.0030  173.3060  136.2450 C   0  0  0  0  0  2  0  0  0  0  0  0
  187.0180  176.7540  145.1890 C   0  0  0  0  0  2  0  0  0  0  0  0
  185.1610  178.0540  144.1100 C   0  0  0  0  0  0  0  0  0  0  0  0
  185.8050  177.6900  145.2340 C   0  0  0  0  0  3  0  0  0  0  0  0
  185.6940  177.6750  142.7880 C   0  0  0  0  0  1  0  0  0  0  0  0
  183.9780  178.9530  144.0390 C   0  0  0  0  0  3  0  0  0  0  0  0
  183.0490  179.0110  143.0780 C   0  0  0  0  0  0  0  0  0  0  0  0
  181.8930  179.9530  143.4620 C   0  0  0  0  0  1  0  0  0  0  0  0
  182.7550  178.0570  140.4020 C   0  0  1  0  0  3  0  0  0  0  0  0
  181.8410  178.7470  141.2580 O   0  0  0  0  0  0  0  0  0  0  0  0
  182.8130  178.0830  141.9240 C   0  0  2  0  0  3  0  0  0  0  0  0
  182.3040  176.7010  140.1700 N   0  0  0  0  0  2  0  0  0  0  0  0
  180.2180  175.4710  140.4210 C   0  0  0  0  0  1  0  0  0  0  0  0
  180.9510  176.5660  139.6980 C   0  0  2  0  0  3  0  0  0  0  0  0
  181.7090  175.1250  137.6940 N   0  0  0  0  0  2  0  0  0  0  0  0
  180.8750  176.1830  138.2820 C   0  0  0  0  0  0  0  0  0  0  0  0
  179.9820  176.7160  137.5220 O   0  0  0  0  0  0  0  0  0  0  0  0
  181.6140  174.7290  136.3030 C   0  0  1  0  0  3  0  0  0  0  0  0
  180.0690  172.7600  136.5340 O   0  0  0  0  0  1  0  0  0  0  0  0
  181.6250  170.6630  135.8240 N   0  0  0  0  0  1  0  0  0  0  0  0
  183.1580  172.4680  136.1460 S   0  0  0  0  0  0  0  0  0  0  0  0
  181.3630  173.1470  136.0590 C   0  0  2  0  0  0  0  0  0  0  0  0
  181.7920  171.9790  135.2170 C   0  0  2  0  0  3  0  0  0  0  0  0
  181.6600  175.7170  135.3230 O   0  0  0  0  0  0  0  0  0  0  0  0
  183.3410  175.9840  134.8560 S   0  0  0  0  0  0  0  0  0  0  0  0
  182.2690  178.1550  134.4130 N   0  0  0  0  0  1  0  0  0  0  0  0
  183.2460  177.6290  135.3750 C   0  0  0  0  0  2  0  0  0  0  0  0
  1  5  1  0  0  0  0
  2  1  2  0  0  0  0
  3  2  1  0  0  0  0
  4 33  1  0  0  0  0
  4  5  1  0  0  0  0
  6  4  2  0  0  0  0
  7  3  2  0  0  0  0
  7  6  1  0  0  0  0
  8  7  1  0  0  0  0
  9 10  1  6  0  0  0
  9  8  1  0  0  0  0
 11  9  1  0  0  0  0
 12 11  1  0  0  0  0
 13 19  1  6  0  0  0
 13 18  1  0  0  0  0
 13 15  1  0  0  0  0
 15 16  1  0  0  0  0
 16 14  2  0  0  0  0
 17 12  1  1  0  0  0
 17 16  1  0  0  0  0
 18 17  1  0  0  0  0
 19 20  1  0  0  0  0
 20 21  1  0  0  0  0
 21 22  1  0  0  0  0
 23 21  2  0  0  0  0
 24 25  1  0  0  0  0
 24 12  1  0  0  0  0
 26 27  1  0  0  0  0
 26 25  1  0  0  0  0
 27 28  1  1  0  0  0
 29 27  1  0  0  0  0
 30 29  1  0  0  0  0
 32 27  1  0  0  0  0
 32 31  1  0  0  0  0
 33 35  1  0  0  0  0
 34 35  2  0  0  0  0
 36 34  1  0  0  0  0
 37 34  1  0  0  0  0
 38 39  1  0  0  0  0
 38 37  2  0  0  0  0
 40 43  1  1  0  0  0
 40 41  1  0  0  0  0
 40 42  1  0  0  0  0
 41 42  1  0  0  0  0
 42 38  1  6  0  0  0
 45 43  1  0  0  0  0
 45 44  1  1  0  0  0
 46 47  1  0  0  0  0
 47 45  1  0  0  0  0
 48 47  2  0  0  0  0
 49 55  1  1  0  0  0
 49 46  1  0  0  0  0
 53 52  1  0  0  0  0
 53 49  1  0  0  0  0
 53 50  1  1  0  0  0
 54 51  1  1  0  0  0
 54 53  1  0  0  0  0
 54 52  1  0  0  0  0
 56 55  1  0  0  0  0
 56 58  1  0  0  0  0
 57 58  1  0  0  0  0
M  END
>  <MODEL>
3

>  <REMARK>
 VINA RESULT:      -5.6      4.659     10.848
  Name = 
  25 active torsions:
  status: ('A' for Active; 'I' for Inactive)
    1  A    between atoms: C_2  and  C_30
    2  A    between atoms: C_5  and  C_16
    3  A    between atoms: C_7  and  N_17
    4  A    between atoms: C_7  and  C_57
    5  A    between atoms: C_8  and  C_13
    6  A    between atoms: C_8  and  C_35
    7  A    between atoms: C_9  and  C_21
    8  A    between atoms: C_9  and  C_49
    9  A    between atoms: C_10  and  C_14
   10  A    between atoms: C_11  and  N_34
   11  A    between atoms: C_14  and  C_32
   12  A    between atoms: C_14  and  C_39
   13  A    between atoms: N_17  and  C_21
   14  A    between atoms: N_17  and  C_50
   15  A    between atoms: C_19  and  N_34
   16  A    between atoms: C_19  and  C_38
   17  A    between atoms: C_23  and  N_24
   18  A    between atoms: C_23  and  C_36
   19  A    between atoms: C_23  and  O_43
   20  A    between atoms: N_25  and  C_30
   21  A    between atoms: C_27  and  C_40
   22  A    between atoms: C_32  and  C_57
   23  A    between atoms: O_43  and  S_53
   24  A    between atoms: C_46  and  S_53
   25  A    between atoms: C_49  and  C_56
                            x       y       z     vdW  Elec       q    Type
                         _______ _______ _______ _____ _____    ______ ____

>  <TORSDO>
F 25

$$$$
=
 OpenBabel10232410003D

 58 61  0  0  1  0  0  0  0  0999 V2000
  183.0360  179.0370  145.1490 C   0  0  0  0  0  3  0  0  0  0  0  0
  182.4160  179.0030  143.9780 C   0  0  0  0  0  3  0  0  0  0  0  0
  182.9540  178.5930  142.6610 C   0  0  0  0  0  3  0  0  0  0  0  0
  185.5400  178.4460  144.4510 C   0  0  0  0  0  0  0  0  0  0  0  0
  184.4450  178.5390  145.4740 C   0  0  0  0  0  2  0  0  0  0  0  0
  185.3980  178.2480  143.1430 C   0  0  0  0  0  3  0  0  0  0  0  0
  184.2050  178.3130  142.2410 C   0  0  0  0  0  0  0  0  0  0  0  0
  184.5940  178.0970  140.7340 C   0  0  0  0  0  2  0  0  0  0  0  0
  183.5540  178.3890  139.6220 C   0  0  2  0  0  3  0  0  0  0  0  0
  182.6240  179.5160  140.1030 C   0  0  0  0  0  1  0  0  0  0  0  0
  182.7890  177.0880  139.2620 C   0  0  0  0  0  2  0  0  0  0  0  0
  181.9590  177.2570  138.0580 N   0  0  0  0  0  0  0  0  0  0  0  0
  180.2720  174.4390  136.7560 C   0  0  1  0  0  3  0  0  0  0  0  0
  180.8580  175.2170  140.0600 O   0  0  0  0  0  0  0  0  0  0  0  0
  180.8630  174.0850  138.0310 N   0  0  0  0  0  2  0  0  0  0  0  0
  180.8590  175.2710  138.8070 C   0  0  0  0  0  0  0  0  0  0  0  0
  180.7110  176.5130  137.9950 C   0  0  2  0  0  3  0  0  0  0  0  0
  180.4790  175.9400  136.5850 C   0  0  0  0  0  2  0  0  0  0  0  0
  180.8690  173.5960  135.6500 C   0  0  0  0  0  2  0  0  0  0  0  0
  181.5700  172.3090  136.0470 N   0  0  0  0  0  2  0  0  0  0  0  0
  182.8270  171.6920  135.6660 C   0  0  0  0  0  0  0  0  0  0  0  0
  183.3630  170.4870  136.3660 N   0  0  0  0  0  1  0  0  0  0  0  0
  183.4940  172.0900  134.7270 O   0  0  0  0  0  0  0  0  0  0  0  0
  182.7600  177.0160  136.8500 C   0  0  0  0  0  2  0  0  0  0  0  0
  184.0610  176.2410  136.9430 C   0  0  0  0  0  2  0  0  0  0  0  0
  185.1580  177.2650  136.5630 C   0  0  0  0  0  2  0  0  0  0  0  0
  186.5440  176.8410  136.0070 C   0  0  2  0  0  0  0  0  0  0  0  0
  186.4360  176.2730  134.6080 C   0  0  0  0  0  1  0  0  0  0  0  0
  187.1090  175.7180  136.8640 C   0  0  0  0  0  2  0  0  0  0  0  0
  188.0000  174.9280  136.0440 N   0  0  0  0  0  1  0  0  0  0  0  0
  187.5520  178.8710  137.1890 O   0  0  0  0  0  1  0  0  0  0  0  0
  187.3670  178.1660  135.9740 C   0  0  0  0  0  2  0  0  0  0  0  0
  186.9960  178.5650  144.8720 C   0  0  0  0  0  2  0  0  0  0  0  0
  189.2550  177.4720  144.9470 C   0  0  0  0  0  0  0  0  0  0  0  0
  187.9210  177.3430  144.8280 C   0  0  0  0  0  3  0  0  0  0  0  0
  189.8770  178.8080  144.9770 C   0  0  0  0  0  1  0  0  0  0  0  0
  190.2400  176.3580  144.9190 C   0  0  0  0  0  3  0  0  0  0  0  0
  190.9960  175.9570  143.8910 C   0  0  0  0  0  0  0  0  0  0  0  0
  192.0140  174.8830  144.3180 C   0  0  0  0  0  1  0  0  0  0  0  0
  190.4830  177.0620  141.3070 C   0  0  1  0  0  3  0  0  0  0  0  0
  190.6600  175.7070  141.7310 O   0  0  0  0  0  0  0  0  0  0  0  0
  191.2220  176.6140  142.5610 C   0  0  2  0  0  3  0  0  0  0  0  0
  191.5910  177.4780  140.4730 N   0  0  0  0  0  2  0  0  0  0  0  0
  190.0810  176.6790  138.7390 C   0  0  0  0  0  1  0  0  0  0  0  0
  191.3740  177.3780  139.0540 C   0  0  2  0  0  3  0  0  0  0  0  0
  192.1450  175.8530  137.1190 N   0  0  0  0  0  2  0  0  0  0  0  0
  192.3980  176.5750  138.3740 C   0  0  0  0  0  0  0  0  0  0  0  0
  193.6040  176.5590  138.8270 O   0  0  0  0  0  0  0  0  0  0  0  0
  193.1650  175.0830  136.4350 C   0  0  1  0  0  3  0  0  0  0  0  0
  191.2420  173.9570  135.2710 O   0  0  0  0  0  1  0  0  0  0  0  0
  192.1720  171.4580  134.8100 N   0  0  0  0  0  1  0  0  0  0  0  0
  193.7200  172.3970  136.3700 S   0  0  0  0  0  0  0  0  0  0  0  0
  192.6170  173.7870  135.6310 C   0  0  2  0  0  0  0  0  0  0  0  0
  193.0570  172.6180  134.7960 C   0  0  2  0  0  3  0  0  0  0  0  0
  194.4770  175.5480  136.4520 O   0  0  0  0  0  0  0  0  0  0  0  0
  195.0200  175.7990  134.7920 S   0  0  0  0  0  0  0  0  0  0  0  0
  197.4220  176.1000  134.3460 N   0  0  0  0  0  1  0  0  0  0  0  0
  196.4630  176.5630  135.3570 C   0  0  0  0  0  2  0  0  0  0  0  0
  1  5  1  0  0  0  0
  2  1  2  0  0  0  0
  3  2  1  0  0  0  0
  4 33  1  0  0  0  0
  4  5  1  0  0  0  0
  6  4  2  0  0  0  0
  7  3  2  0  0  0  0
  7  6  1  0  0  0  0
  8  7  1  0  0  0  0
  9 10  1  1  0  0  0
  9  8  1  0  0  0  0
 11  9  1  0  0  0  0
 12 11  1  0  0  0  0
 13 19  1  6  0  0  0
 13 15  1  0  0  0  0
 15 16  1  0  0  0  0
 16 14  2  0  0  0  0
 17 12  1  6  0  0  0
 17 16  1  0  0  0  0
 18 13  1  0  0  0  0
 18 17  1  0  0  0  0
 19 20  1  0  0  0  0
 21 20  1  0  0  0  0
 21 22  1  0  0  0  0
 23 21  2  0  0  0  0
 24 25  1  0  0  0  0
 24 12  1  0  0  0  0
 26 25  1  0  0  0  0
 27 28  1  6  0  0  0
 27 26  1  0  0  0  0
 27 29  1  0  0  0  0
 30 29  1  0  0  0  0
 32 27  1  0  0  0  0
 32 31  1  0  0  0  0
 34 36  1  0  0  0  0
 35 33  1  0  0  0  0
 35 34  2  0  0  0  0
 37 34  1  0  0  0  0
 38 39  1  0  0  0  0
 38 37  2  0  0  0  0
 40 43  1  6  0  0  0
 40 41  1  0  0  0  0
 40 42  1  0  0  0  0
 41 42  1  0  0  0  0
 42 38  1  1  0  0  0
 45 44  1  1  0  0  0
 45 43  1  0  0  0  0
 46 47  1  0  0  0  0
 47 48  2  0  0  0  0
 47 45  1  0  0  0  0
 49 55  1  6  0  0  0
 49 46  1  0  0  0  0
 53 50  1  1  0  0  0
 53 52  1  0  0  0  0
 53 49  1  0  0  0  0
 54 51  1  1  0  0  0
 54 53  1  0  0  0  0
 54 52  1  0  0  0  0
 56 58  1  0  0  0  0
 56 55  1  0  0  0  0
 57 58  1  0  0  0  0
M  END
>  <MODEL>
4

>  <REMARK>
 VINA RESULT:      -5.6      3.722      8.249
  Name = 
  25 active torsions:
  status: ('A' for Active; 'I' for Inactive)
    1  A    between atoms: C_2  and  C_30
    2  A    between atoms: C_5  and  C_16
    3  A    between atoms: C_7  and  N_17
    4  A    between atoms: C_7  and  C_57
    5  A    between atoms: C_8  and  C_13
    6  A    between atoms: C_8  and  C_35
    7  A    between atoms: C_9  and  C_21
    8  A    between atoms: C_9  and  C_49
    9  A    between atoms: C_10  and  C_14
   10  A    between atoms: C_11  and  N_34
   11  A    between atoms: C_14  and  C_32
   12  A    between atoms: C_14  and  C_39
   13  A    between atoms: N_17  and  C_21
   14  A    between atoms: N_17  and  C_50
   15  A    between atoms: C_19  and  N_34
   16  A    between atoms: C_19  and  C_38
   17  A    between atoms: C_23  and  N_24
   18  A    between atoms: C_23  and  C_36
   19  A    between atoms: C_23  and  O_43
   20  A    between atoms: N_25  and  C_30
   21  A    between atoms: C_27  and  C_40
   22  A    between atoms: C_32  and  C_57
   23  A    between atoms: O_43  and  S_53
   24  A    between atoms: C_46  and  S_53
   25  A    between atoms: C_49  and  C_56
                            x       y       z     vdW  Elec       q    Type
                         _______ _______ _______ _____ _____    ______ ____

>  <TORSDO>
F 25

$$$$
=
 OpenBabel10232410003D

 58 61  0  0  1  0  0  0  0  0999 V2000
  183.2030  178.9750  145.1030 C   0  0  0  0  0  3  0  0  0  0  0  0
  182.4690  178.8910  144.0020 C   0  0  0  0  0  3  0  0  0  0  0  0
  182.8870  178.4630  142.6480 C   0  0  0  0  0  3  0  0  0  0  0  0
  185.6420  178.4430  144.1700 C   0  0  0  0  0  0  0  0  0  0  0  0
  184.6530  178.5290  145.2960 C   0  0  0  0  0  2  0  0  0  0  0  0
  185.3770  178.2070  142.8880 C   0  0  0  0  0  3  0  0  0  0  0  0
  184.0980  178.2120  142.1100 C   0  0  0  0  0  0  0  0  0  0  0  0
  184.3420  177.9680  140.5770 C   0  0  0  0  0  2  0  0  0  0  0  0
  183.2170  178.2920  139.5590 C   0  0  2  0  0  3  0  0  0  0  0  0
  182.3130  179.3830  140.1580 C   0  0  0  0  0  1  0  0  0  0  0  0
  182.4430  176.9960  139.2000 C   0  0  0  0  0  2  0  0  0  0  0  0
  181.5600  177.1910  138.0380 N   0  0  0  0  0  0  0  0  0  0  0  0
  180.2400  174.3120  136.4740 C   0  0  1  0  0  3  0  0  0  0  0  0
  180.7680  174.8410  139.8370 O   0  0  0  0  0  0  0  0  0  0  0  0
  180.8920  173.9180  137.7080 N   0  0  0  0  0  2  0  0  0  0  0  0
  180.7430  175.0140  138.5940 C   0  0  0  0  0  0  0  0  0  0  0  0
  180.4200  176.2970  137.9070 C   0  0  2  0  0  3  0  0  0  0  0  0
  180.2440  175.8350  136.4490 C   0  0  0  0  0  2  0  0  0  0  0  0
  180.9270  173.6650  135.2900 C   0  0  0  0  0  2  0  0  0  0  0  0
  181.7890  172.4430  135.5580 N   0  0  0  0  0  2  0  0  0  0  0  0
  181.5640  171.0140  135.4540 C   0  0  0  0  0  0  0  0  0  0  0  0
  182.6700  170.0240  135.6100 N   0  0  0  0  0  1  0  0  0  0  0  0
  180.4560  170.5360  135.2810 O   0  0  0  0  0  0  0  0  0  0  0  0
  182.3460  177.2050  136.7970 C   0  0  0  0  0  2  0  0  0  0  0  0
  183.8020  177.6330  136.8250 C   0  0  0  0  0  2  0  0  0  0  0  0
  184.5690  176.4600  136.1690 C   0  0  0  0  0  2  0  0  0  0  0  0
  186.0730  176.5480  135.7930 C   0  0  2  0  0  0  0  0  0  0  0  0
  186.7970  177.5910  136.6180 C   0  0  0  0  0  1  0  0  0  0  0  0
  186.2040  177.0060  134.3470 C   0  0  0  0  0  2  0  0  0  0  0  0
  186.6890  178.3680  134.3460 N   0  0  0  0  0  1  0  0  0  0  0  0
  187.2090  174.9200  137.4020 O   0  0  0  0  0  1  0  0  0  0  0  0
  186.6370  175.1330  136.1230 C   0  0  0  0  0  2  0  0  0  0  0  0
  187.1280  178.6180  144.4390 C   0  0  0  0  0  2  0  0  0  0  0  0
  189.3820  177.5320  144.6580 C   0  0  0  0  0  0  0  0  0  0  0  0
  188.0470  177.3960  144.5500 C   0  0  0  0  0  3  0  0  0  0  0  0
  190.0090  178.8600  144.5280 C   0  0  0  0  0  1  0  0  0  0  0  0
  190.3620  176.4200  144.7720 C   0  0  0  0  0  3  0  0  0  0  0  0
  191.1930  175.9600  143.8300 C   0  0  0  0  0  0  0  0  0  0  0  0
  192.1710  174.9140  144.3970 C   0  0  0  0  0  1  0  0  0  0  0  0
  190.8660  177.1220  141.2410 C   0  0  1  0  0  3  0  0  0  0  0  0
  190.7540  175.7660  141.6830 O   0  0  0  0  0  0  0  0  0  0  0  0
  191.5220  176.5370  142.4860 C   0  0  2  0  0  3  0  0  0  0  0  0
  192.0160  177.2770  140.3750 N   0  0  0  0  0  2  0  0  0  0  0  0
  190.4560  176.5170  138.6690 C   0  0  0  0  0  1  0  0  0  0  0  0
  191.7430  177.2370  138.9630 C   0  0  2  0  0  3  0  0  0  0  0  0
  192.8730  175.0300  138.2440 N   0  0  0  0  0  2  0  0  0  0  0  0
  192.7580  176.4950  138.2050 C   0  0  0  0  0  0  0  0  0  0  0  0
  193.5340  177.1230  137.3910 O   0  0  0  0  0  0  0  0  0  0  0  0
  193.8580  174.2970  137.4740 C   0  0  1  0  0  3  0  0  0  0  0  0
  195.4580  175.0350  139.2670 O   0  0  0  0  0  1  0  0  0  0  0  0
  197.8420  175.0900  137.9870 N   0  0  0  0  0  1  0  0  0  0  0  0
  196.2240  174.9270  136.2360 S   0  0  0  0  0  0  0  0  0  0  0  0
  195.3960  174.5370  137.9260 C   0  0  2  0  0  0  0  0  0  0  0  0
  196.8100  174.1180  137.6400 C   0  0  2  0  0  3  0  0  0  0  0  0
  193.4150  173.4110  136.4950 O   0  0  0  0  0  0  0  0  0  0  0  0
  192.9020  174.3300  135.0790 S   0  0  0  0  0  0  0  0  0  0  0  0
  191.5860  172.3200  135.6160 N   0  0  0  0  0  1  0  0  0  0  0  0
  191.2970  173.7080  135.2310 C   0  0  0  0  0  2  0  0  0  0  0  0
  1  5  1  0  0  0  0
  2  1  2  0  0  0  0
  3  2  1  0  0  0  0
  4 33  1  0  0  0  0
  4  5  1  0  0  0  0
  6  4  2  0  0  0  0
  7  3  2  0  0  0  0
  7  6  1  0  0  0  0
  8  7  1  0  0  0  0
  9 10  1  1  0  0  0
  9  8  1  0  0  0  0
 11  9  1  0  0  0  0
 12 11  1  0  0  0  0
 13 19  1  6  0  0  0
 13 15  1  0  0  0  0
 15 16  1  0  0  0  0
 16 14  2  0  0  0  0
 17 12  1  6  0  0  0
 17 16  1  0  0  0  0
 18 13  1  0  0  0  0
 18 17  1  0  0  0  0
 19 20  1  0  0  0  0
 21 20  1  0  0  0  0
 21 22  1  0  0  0  0
 23 21  2  0  0  0  0
 24 25  1  0  0  0  0
 24 12  1  0  0  0  0
 26 25  1  0  0  0  0
 27 32  1  0  0  0  0
 27 26  1  0  0  0  0
 27 28  1  1  0  0  0
 29 27  1  0  0  0  0
 30 29  1  0  0  0  0
 32 31  1  0  0  0  0
 33 35  1  0  0  0  0
 34 37  1  0  0  0  0
 35 34  2  0  0  0  0
 36 34  1  0  0  0  0
 38 39  1  0  0  0  0
 38 37  2  0  0  0  0
 40 43  1  6  0  0  0
 40 41  1  0  0  0  0
 40 42  1  0  0  0  0
 41 42  1  0  0  0  0
 42 38  1  1  0  0  0
 45 44  1  1  0  0  0
 45 43  1  0  0  0  0
 47 46  1  0  0  0  0
 47 45  1  0  0  0  0
 48 47  2  0  0  0  0
 49 55  1  1  0  0  0
 49 53  1  0  0  0  0
 49 46  1  0  0  0  0
 52 54  1  0  0  0  0
 52 53  1  0  0  0  0
 53 50  1  1  0  0  0
 54 53  1  0  0  0  0
 54 51  1  1  0  0  0
 56 58  1  0  0  0  0
 56 55  1  0  0  0  0
 58 57  1  0  0  0  0
M  END
>  <MODEL>
5

>  <REMARK>
 VINA RESULT:      -5.4      3.914      8.592
  Name = 
  25 active torsions:
  status: ('A' for Active; 'I' for Inactive)
    1  A    between atoms: C_2  and  C_30
    2  A    between atoms: C_5  and  C_16
    3  A    between atoms: C_7  and  N_17
    4  A    between atoms: C_7  and  C_57
    5  A    between atoms: C_8  and  C_13
    6  A    between atoms: C_8  and  C_35
    7  A    between atoms: C_9  and  C_21
    8  A    between atoms: C_9  and  C_49
    9  A    between atoms: C_10  and  C_14
   10  A    between atoms: C_11  and  N_34
   11  A    between atoms: C_14  and  C_32
   12  A    between atoms: C_14  and  C_39
   13  A    between atoms: N_17  and  C_21
   14  A    between atoms: N_17  and  C_50
   15  A    between atoms: C_19  and  N_34
   16  A    between atoms: C_19  and  C_38
   17  A    between atoms: C_23  and  N_24
   18  A    between atoms: C_23  and  C_36
   19  A    between atoms: C_23  and  O_43
   20  A    between atoms: N_25  and  C_30
   21  A    between atoms: C_27  and  C_40
   22  A    between atoms: C_32  and  C_57
   23  A    between atoms: O_43  and  S_53
   24  A    between atoms: C_46  and  S_53
   25  A    between atoms: C_49  and  C_56
                            x       y       z     vdW  Elec       q    Type
                         _______ _______ _______ _____ _____    ______ ____

>  <TORSDO>
F 25

$$$$
=
 OpenBabel10232410003D

 58 61  0  0  1  0  0  0  0  0999 V2000
  191.8850  175.1390  145.8020 C   0  0  0  0  0  3  0  0  0  0  0  0
  192.0470  174.6650  144.5740 C   0  0  0  0  0  3  0  0  0  0  0  0
  191.9560  175.3910  143.2870 C   0  0  0  0  0  3  0  0  0  0  0  0
  191.0930  177.6380  145.3180 C   0  0  0  0  0  0  0  0  0  0  0  0
  191.6840  176.5950  146.2220 C   0  0  0  0  0  2  0  0  0  0  0  0
  191.1470  177.6670  143.9890 C   0  0  0  0  0  3  0  0  0  0  0  0
  191.5360  176.6350  142.9760 C   0  0  0  0  0  0  0  0  0  0  0  0
  191.3230  177.1440  141.5050 C   0  0  0  0  0  2  0  0  0  0  0  0
  189.8860  177.2670  140.9350 C   0  0  2  0  0  3  0  0  0  0  0  0
  188.8950  176.7370  141.9870 C   0  0  0  0  0  1  0  0  0  0  0  0
  189.7900  176.5150  139.5820 C   0  0  0  0  0  2  0  0  0  0  0  0
  190.4780  177.2430  138.5030 N   0  0  0  0  0  0  0  0  0  0  0  0
  188.5990  176.5790  135.5860 C   0  0  1  0  0  3  0  0  0  0  0  0
  187.4900  177.9160  138.5620 O   0  0  0  0  0  0  0  0  0  0  0  0
  187.7230  176.4940  136.7390 N   0  0  0  0  0  2  0  0  0  0  0  0
  188.2370  177.4120  137.6880 C   0  0  0  0  0  0  0  0  0  0  0  0
  189.6560  177.7960  137.4390 C   0  0  2  0  0  3  0  0  0  0  0  0
  189.9390  177.0930  136.0980 C   0  0  0  0  0  2  0  0  0  0  0  0
  188.6700  175.2400  134.8830 C   0  0  0  0  0  2  0  0  0  0  0  0
  188.1830  174.0190  135.6430 N   0  0  0  0  0  2  0  0  0  0  0  0
  188.7020  173.2650  136.7680 C   0  0  0  0  0  0  0  0  0  0  0  0
  187.9070  172.1940  137.4400 N   0  0  0  0  0  1  0  0  0  0  0  0
  189.8300  173.4260  137.2010 O   0  0  0  0  0  0  0  0  0  0  0  0
  191.5580  176.4200  137.9410 C   0  0  0  0  0  2  0  0  0  0  0  0
  192.9880  176.6220  138.4070 C   0  0  0  0  0  2  0  0  0  0  0  0
  193.7230  175.3230  137.9970 C   0  0  0  0  0  2  0  0  0  0  0  0
  194.2440  175.0730  136.5560 C   0  0  2  0  0  0  0  0  0  0  0  0
  194.4340  176.3690  135.7970 C   0  0  0  0  0  1  0  0  0  0  0  0
  193.2030  174.2870  135.7730 C   0  0  0  0  0  2  0  0  0  0  0  0
  193.5440  174.3580  134.3700 N   0  0  0  0  0  1  0  0  0  0  0  0
  196.6300  175.0780  137.4730 O   0  0  0  0  0  1  0  0  0  0  0  0
  195.6250  174.3780  136.7610 C   0  0  0  0  0  2  0  0  0  0  0  0
  190.3500  178.8280  145.9010 C   0  0  0  0  0  2  0  0  0  0  0  0
  187.9490  178.1350  146.1530 C   0  0  0  0  0  0  0  0  0  0  0  0
  189.0690  178.6200  146.7190 C   0  0  0  0  0  3  0  0  0  0  0  0
  187.8790  177.9260  144.6950 C   0  0  0  0  0  1  0  0  0  0  0  0
  186.6570  177.8950  146.8500 C   0  0  0  0  0  3  0  0  0  0  0  0
  185.4220  178.1110  146.3850 C   0  0  0  0  0  0  0  0  0  0  0  0
  184.3500  177.5680  147.3480 C   0  0  0  0  0  1  0  0  0  0  0  0
  184.8820  179.6220  144.0230 C   0  0  1  0  0  3  0  0  0  0  0  0
  184.1500  179.4970  145.2450 O   0  0  0  0  0  0  0  0  0  0  0  0
  184.9730  178.4540  144.9960 C   0  0  2  0  0  3  0  0  0  0  0  0
  184.1510  179.0120  142.9320 N   0  0  0  0  0  2  0  0  0  0  0  0
  186.2270  179.3000  141.6940 C   0  0  0  0  0  1  0  0  0  0  0  0
  184.9520  178.5160  141.8440 C   0  0  2  0  0  3  0  0  0  0  0  0
  183.1900  177.7680  140.1130 N   0  0  0  0  0  2  0  0  0  0  0  0
  184.2890  178.6450  140.5410 C   0  0  0  0  0  0  0  0  0  0  0  0
  184.6020  179.6180  139.7570 O   0  0  0  0  0  0  0  0  0  0  0  0
  182.5180  177.9130  138.8370 C   0  0  1  0  0  3  0  0  0  0  0  0
  183.0720  177.7870  136.3890 O   0  0  0  0  0  1  0  0  0  0  0  0
  183.9200  175.2370  136.0740 N   0  0  0  0  0  1  0  0  0  0  0  0
  182.8810  175.2640  138.2270 S   0  0  0  0  0  0  0  0  0  0  0  0
  183.1700  177.0640  137.6200 C   0  0  2  0  0  0  0  0  0  0  0  0
  184.1560  175.9740  137.3110 C   0  0  2  0  0  3  0  0  0  0  0  0
  181.3550  178.6780  138.7780 O   0  0  0  0  0  0  0  0  0  0  0  0
  180.3830  178.3560  140.2150 S   0  0  0  0  0  0  0  0  0  0  0  0
  180.3690  180.6400  139.2970 N   0  0  0  0  0  1  0  0  0  0  0  0
  180.4080  180.0320  140.6330 C   0  0  0  0  0  2  0  0  0  0  0  0
  1  5  1  0  0  0  0
  2  1  2  0  0  0  0
  3  2  1  0  0  0  0
  4 33  1  0  0  0  0
  4  5  1  0  0  0  0
  6  4  2  0  0  0  0
  7  3  2  0  0  0  0
  7  6  1  0  0  0  0
  8  7  1  0  0  0  0
  9  8  1  0  0  0  0
  9 10  1  1  0  0  0
 11  9  1  0  0  0  0
 12 11  1  0  0  0  0
 13 19  1  1  0  0  0
 13 18  1  0  0  0  0
 13 15  1  0  0  0  0
 15 16  1  0  0  0  0
 16 14  2  0  0  0  0
 17 16  1  0  0  0  0
 17 12  1  1  0  0  0
 18 17  1  0  0  0  0
 19 20  1  0  0  0  0
 20 21  1  0  0  0  0
 21 23  2  0  0  0  0
 21 22  1  0  0  0  0
 24 25  1  0  0  0  0
 24 12  1  0  0  0  0
 26 25  1  0  0  0  0
 27 28  1  6  0  0  0
 27 32  1  0  0  0  0
 27 26  1  0  0  0  0
 29 27  1  0  0  0  0
 30 29  1  0  0  0  0
 32 31  1  0  0  0  0
 33 35  1  0  0  0  0
 34 35  2  0  0  0  0
 34 37  1  0  0  0  0
 36 34  1  0  0  0  0
 38 37  2  0  0  0  0
 38 39  1  0  0  0  0
 40 43  1  6  0  0  0
 40 42  1  0  0  0  0
 40 41  1  0  0  0  0
 42 41  1  0  0  0  0
 42 38  1  1  0  0  0
 45 44  1  6  0  0  0
 45 43  1  0  0  0  0
 46 47  1  0  0  0  0
 47 45  1  0  0  0  0
 48 47  2  0  0  0  0
 49 55  1  1  0  0  0
 49 46  1  0  0  0  0
 53 50  1  6  0  0  0
 53 52  1  0  0  0  0
 53 49  1  0  0  0  0
 54 51  1  6  0  0  0
 54 53  1  0  0  0  0
 54 52  1  0  0  0  0
 55 56  1  0  0  0  0
 56 58  1  0  0  0  0
 57 58  1  0  0  0  0
M  END
>  <MODEL>
6

>  <REMARK>
 VINA RESULT:      -5.4      4.074     11.098
  Name = 
  25 active torsions:
  status: ('A' for Active; 'I' for Inactive)
    1  A    between atoms: C_2  and  C_30
    2  A    between atoms: C_5  and  C_16
    3  A    between atoms: C_7  and  N_17
    4  A    between atoms: C_7  and  C_57
    5  A    between atoms: C_8  and  C_13
    6  A    between atoms: C_8  and  C_35
    7  A    between atoms: C_9  and  C_21
    8  A    between atoms: C_9  and  C_49
    9  A    between atoms: C_10  and  C_14
   10  A    between atoms: C_11  and  N_34
   11  A    between atoms: C_14  and  C_32
   12  A    between atoms: C_14  and  C_39
   13  A    between atoms: N_17  and  C_21
   14  A    between atoms: N_17  and  C_50
   15  A    between atoms: C_19  and  N_34
   16  A    between atoms: C_19  and  C_38
   17  A    between atoms: C_23  and  N_24
   18  A    between atoms: C_23  and  C_36
   19  A    between atoms: C_23  and  O_43
   20  A    between atoms: N_25  and  C_30
   21  A    between atoms: C_27  and  C_40
   22  A    between atoms: C_32  and  C_57
   23  A    between atoms: O_43  and  S_53
   24  A    between atoms: C_46  and  S_53
   25  A    between atoms: C_49  and  C_56
                            x       y       z     vdW  Elec       q    Type
                         _______ _______ _______ _____ _____    ______ ____

>  <TORSDO>
F 25

$$$$
=
 OpenBabel10232410003D

 58 61  0  0  1  0  0  0  0  0999 V2000
  184.0170  178.1200  146.7700 C   0  0  0  0  0  3  0  0  0  0  0  0
  183.0760  178.2710  145.8490 C   0  0  0  0  0  3  0  0  0  0  0  0
  183.2380  178.5170  144.3990 C   0  0  0  0  0  3  0  0  0  0  0  0
  186.2270  178.6470  145.3780 C   0  0  0  0  0  0  0  0  0  0  0  0
  185.5280  178.0350  146.5560 C   0  0  0  0  0  2  0  0  0  0  0  0
  185.7190  178.8560  144.1660 C   0  0  0  0  0  3  0  0  0  0  0  0
  184.3150  178.8190  143.6460 C   0  0  0  0  0  0  0  0  0  0  0  0
  184.2360  179.2500  142.1370 C   0  0  0  0  0  2  0  0  0  0  0  0
  184.4510  178.1930  141.0230 C   0  0  2  0  0  3  0  0  0  0  0  0
  185.2520  178.8410  139.8800 C   0  0  0  0  0  1  0  0  0  0  0  0
  183.0820  177.6310  140.5590 C   0  0  0  0  0  2  0  0  0  0  0  0
  182.8140  177.9440  139.1450 N   0  0  0  0  0  0  0  0  0  0  0  0
  180.5660  180.5850  138.4760 C   0  0  1  0  0  3  0  0  0  0  0  0
  181.5340  178.0420  136.3630 O   0  0  0  0  0  0  0  0  0  0  0  0
  181.1840  180.1680  137.2320 N   0  0  0  0  0  2  0  0  0  0  0  0
  181.4460  178.7830  137.3720 C   0  0  0  0  0  0  0  0  0  0  0  0
  181.4550  178.3180  138.7890 C   0  0  2  0  0  3  0  0  0  0  0  0
  181.0170  179.5900  139.5380 C   0  0  0  0  0  2  0  0  0  0  0  0
  180.9190  182.0250  138.7790 C   0  0  0  0  0  2  0  0  0  0  0  0
  180.6980  183.0500  137.6800 N   0  0  0  0  0  2  0  0  0  0  0  0
  181.4860  184.1520  137.1620 C   0  0  0  0  0  0  0  0  0  0  0  0
  181.0930  184.8980  135.9300 N   0  0  0  0  0  1  0  0  0  0  0  0
  182.4850  184.5650  137.7250 O   0  0  0  0  0  0  0  0  0  0  0  0
  183.2870  176.8520  138.2830 C   0  0  0  0  0  2  0  0  0  0  0  0
  182.9780  175.4100  138.6450 C   0  0  0  0  0  2  0  0  0  0  0  0
  183.1290  174.6310  137.3160 C   0  0  0  0  0  2  0  0  0  0  0  0
  181.9900  173.7610  136.7200 C   0  0  2  0  0  0  0  0  0  0  0  0
  180.7030  173.9090  137.5050 C   0  0  0  0  0  1  0  0  0  0  0  0
  182.3690  172.2910  136.8290 C   0  0  0  0  0  2  0  0  0  0  0  0
  181.1540  171.5180  136.9600 N   0  0  0  0  0  1  0  0  0  0  0  0
  182.8080  175.1430  134.7320 O   0  0  0  0  0  1  0  0  0  0  0  0
  181.7930  174.3190  135.2780 C   0  0  0  0  0  2  0  0  0  0  0  0
  187.6760  179.0920  145.4900 C   0  0  0  0  0  2  0  0  0  0  0  0
  189.3560  177.6870  146.7180 C   0  0  0  0  0  0  0  0  0  0  0  0
  188.8060  178.0570  145.5480 C   0  0  0  0  0  3  0  0  0  0  0  0
  188.9860  178.3750  147.9680 C   0  0  0  0  0  1  0  0  0  0  0  0
  190.4520  176.6950  146.8880 C   0  0  0  0  0  3  0  0  0  0  0  0
  191.2150  176.1470  145.9360 C   0  0  0  0  0  0  0  0  0  0  0  0
  192.3520  175.3000  146.5380 C   0  0  0  0  0  1  0  0  0  0  0  0
  190.9770  175.9960  143.0940 C   0  0  1  0  0  3  0  0  0  0  0  0
  191.9080  175.3860  143.9920 O   0  0  0  0  0  0  0  0  0  0  0  0
  191.3330  176.5050  144.4850 C   0  0  2  0  0  3  0  0  0  0  0  0
  191.6460  176.9780  142.2660 N   0  0  0  0  0  2  0  0  0  0  0  0
  189.4860  178.0570  141.9540 C   0  0  0  0  0  1  0  0  0  0  0  0
  190.8050  177.6850  141.3360 C   0  0  2  0  0  3  0  0  0  0  0  0
  189.7040  177.4210  139.0160 N   0  0  0  0  0  2  0  0  0  0  0  0
  190.4450  176.8780  140.1630 C   0  0  0  0  0  0  0  0  0  0  0  0
  190.8630  175.6630  140.0690 O   0  0  0  0  0  0  0  0  0  0  0  0
  189.3730  176.6310  137.8470 C   0  0  1  0  0  3  0  0  0  0  0  0
  190.9500  177.2750  135.9990 O   0  0  0  0  0  1  0  0  0  0  0  0
  192.3110  174.9870  135.5170 N   0  0  0  0  0  1  0  0  0  0  0  0
  190.4540  174.3100  136.8620 S   0  0  0  0  0  0  0  0  0  0  0  0
  190.6360  176.2230  136.9170 C   0  0  2  0  0  0  0  0  0  0  0  0
  191.8420  175.3300  136.8560 C   0  0  2  0  0  3  0  0  0  0  0  0
  188.0520  176.2270  137.6670 O   0  0  0  0  0  0  0  0  0  0  0  0
  187.4860  176.7990  136.0960 S   0  0  0  0  0  0  0  0  0  0  0  0
  187.4730  179.1780  136.7320 N   0  0  0  0  0  1  0  0  0  0  0  0
  186.5550  178.0390  136.8600 C   0  0  0  0  0  2  0  0  0  0  0  0
  2  1  2  0  0  0  0
  3  2  1  0  0  0  0
  4 33  1  0  0  0  0
  4  5  1  0  0  0  0
  5  1  1  0  0  0  0
  6  4  2  0  0  0  0
  7  6  1  0  0  0  0
  7  3  2  0  0  0  0
  8  7  1  0  0  0  0
  9 10  1  6  0  0  0
  9  8  1  0  0  0  0
 11  9  1  0  0  0  0
 12 11  1  0  0  0  0
 13 19  1  1  0  0  0
 13 18  1  0  0  0  0
 14 16  2  0  0  0  0
 15 16  1  0  0  0  0
 15 13  1  0  0  0  0
 16 17  1  0  0  0  0
 17 12  1  1  0  0  0
 17 18  1  0  0  0  0
 20 19  1  0  0  0  0
 21 20  1  0  0  0  0
 21 23  2  0  0  0  0
 22 21  1  0  0  0  0
 24 25  1  0  0  0  0
 24 12  1  0  0  0  0
 26 25  1  0  0  0  0
 27 29  1  0  0  0  0
 27 26  1  0  0  0  0
 27 28  1  1  0  0  0
 29 30  1  0  0  0  0
 31 32  1  0  0  0  0
 32 27  1  0  0  0  0
 33 35  1  0  0  0  0
 34 37  1  0  0  0  0
 34 36  1  0  0  0  0
 35 34  2  0  0  0  0
 38 39  1  0  0  0  0
 38 37  2  0  0  0  0
 40 43  1  6  0  0  0
 40 41  1  0  0  0  0
 40 42  1  0  0  0  0
 41 42  1  0  0  0  0
 42 38  1  1  0  0  0
 45 44  1  1  0  0  0
 45 43  1  0  0  0  0
 46 47  1  0  0  0  0
 47 45  1  0  0  0  0
 48 47  2  0  0  0  0
 49 55  1  1  0  0  0
 49 46  1  0  0  0  0
 52 53  1  0  0  0  0
 53 50  1  6  0  0  0
 53 49  1  0  0  0  0
 54 51  1  6  0  0  0
 54 52  1  0  0  0  0
 54 53  1  0  0  0  0
 56 58  1  0  0  0  0
 56 55  1  0  0  0  0
 57 58  1  0  0  0  0
M  END
>  <MODEL>
7

>  <REMARK>
 VINA RESULT:      -5.1      4.378      9.596
  Name = 
  25 active torsions:
  status: ('A' for Active; 'I' for Inactive)
    1  A    between atoms: C_2  and  C_30
    2  A    between atoms: C_5  and  C_16
    3  A    between atoms: C_7  and  N_17
    4  A    between atoms: C_7  and  C_57
    5  A    between atoms: C_8  and  C_13
    6  A    between atoms: C_8  and  C_35
    7  A    between atoms: C_9  and  C_21
    8  A    between atoms: C_9  and  C_49
    9  A    between atoms: C_10  and  C_14
   10  A    between atoms: C_11  and  N_34
   11  A    between atoms: C_14  and  C_32
   12  A    between atoms: C_14  and  C_39
   13  A    between atoms: N_17  and  C_21
   14  A    between atoms: N_17  and  C_50
   15  A    between atoms: C_19  and  N_34
   16  A    between atoms: C_19  and  C_38
   17  A    between atoms: C_23  and  N_24
   18  A    between atoms: C_23  and  C_36
   19  A    between atoms: C_23  and  O_43
   20  A    between atoms: N_25  and  C_30
   21  A    between atoms: C_27  and  C_40
   22  A    between atoms: C_32  and  C_57
   23  A    between atoms: O_43  and  S_53
   24  A    between atoms: C_46  and  S_53
   25  A    between atoms: C_49  and  C_56
                            x       y       z     vdW  Elec       q    Type
                         _______ _______ _______ _____ _____    ______ ____

>  <TORSDO>
F 25

$$$$
=
 OpenBabel10232410003D

 58 61  0  0  1  0  0  0  0  0999 V2000
  184.0900  178.1960  146.6610 C   0  0  0  0  0  3  0  0  0  0  0  0
  183.1220  178.3010  145.7610 C   0  0  0  0  0  3  0  0  0  0  0  0
  183.2410  178.4890  144.2970 C   0  0  0  0  0  3  0  0  0  0  0  0
  186.2550  178.6840  145.1850 C   0  0  0  0  0  0  0  0  0  0  0  0
  185.5950  178.1150  146.4070 C   0  0  0  0  0  2  0  0  0  0  0  0
  185.7110  178.8390  143.9810 C   0  0  0  0  0  3  0  0  0  0  0  0
  184.2940  178.7680  143.5030 C   0  0  0  0  0  0  0  0  0  0  0  0
  184.1680  179.1360  141.9800 C   0  0  0  0  0  2  0  0  0  0  0  0
  184.5540  178.0900  140.9020 C   0  0  2  0  0  3  0  0  0  0  0  0
  185.4180  178.7830  139.8330 C   0  0  0  0  0  1  0  0  0  0  0  0
  183.2730  177.4410  140.3160 C   0  0  0  0  0  2  0  0  0  0  0  0
  183.0210  177.8800  138.9330 N   0  0  0  0  0  0  0  0  0  0  0  0
  180.6710  180.4660  138.4090 C   0  0  1  0  0  3  0  0  0  0  0  0
  181.7830  178.1220  136.1410 O   0  0  0  0  0  0  0  0  0  0  0  0
  181.3270  180.1650  137.1510 N   0  0  0  0  0  2  0  0  0  0  0  0
  181.6470  178.7850  137.1980 C   0  0  0  0  0  0  0  0  0  0  0  0
  181.6530  178.2210  138.5780 C   0  0  2  0  0  3  0  0  0  0  0  0
  181.1480  179.4170  139.4060 C   0  0  0  0  0  2  0  0  0  0  0  0
  180.9570  181.8950  138.8190 C   0  0  0  0  0  2  0  0  0  0  0  0
  180.7210  182.9830  137.7870 N   0  0  0  0  0  2  0  0  0  0  0  0
  181.5140  184.0980  137.3050 C   0  0  0  0  0  0  0  0  0  0  0  0
  181.0970  184.9190  136.1290 N   0  0  0  0  0  1  0  0  0  0  0  0
  182.5390  184.4600  137.8560 O   0  0  0  0  0  0  0  0  0  0  0  0
  183.5700  176.9050  137.9820 C   0  0  0  0  0  2  0  0  0  0  0  0
  183.6110  175.4310  138.3430 C   0  0  0  0  0  2  0  0  0  0  0  0
  184.2330  174.7400  137.1060 C   0  0  0  0  0  2  0  0  0  0  0  0
  183.6070  173.4840  136.4440 C   0  0  2  0  0  0  0  0  0  0  0  0
  183.8320  173.4670  134.9470 C   0  0  0  0  0  1  0  0  0  0  0  0
  182.0960  173.5160  136.6310 C   0  0  0  0  0  2  0  0  0  0  0  0
  181.5210  172.4410  135.8540 N   0  0  0  0  0  1  0  0  0  0  0  0
  185.3330  171.6030  136.3340 O   0  0  0  0  0  1  0  0  0  0  0  0
  184.3590  172.2860  137.1010 C   0  0  0  0  0  2  0  0  0  0  0  0
  187.7020  179.1460  145.2390 C   0  0  0  0  0  2  0  0  0  0  0  0
  189.3450  177.7540  146.5310 C   0  0  0  0  0  0  0  0  0  0  0  0
  188.8410  178.1240  145.3400 C   0  0  0  0  0  3  0  0  0  0  0  0
  188.9110  178.4300  147.7680 C   0  0  0  0  0  1  0  0  0  0  0  0
  190.4440  176.7750  146.7430 C   0  0  0  0  0  3  0  0  0  0  0  0
  191.2110  176.1900  145.8160 C   0  0  0  0  0  0  0  0  0  0  0  0
  192.3510  175.3740  146.4540 C   0  0  0  0  0  1  0  0  0  0  0  0
  191.0500  175.8830  142.9810 C   0  0  1  0  0  3  0  0  0  0  0  0
  192.0120  175.4020  143.9250 O   0  0  0  0  0  0  0  0  0  0  0  0
  191.3290  176.4880  144.3510 C   0  0  2  0  0  3  0  0  0  0  0  0
  191.6470  176.8800  142.1170 N   0  0  0  0  0  2  0  0  0  0  0  0
  189.3670  177.7180  141.9630 C   0  0  0  0  0  1  0  0  0  0  0  0
  190.7260  177.6480  141.3230 C   0  0  2  0  0  3  0  0  0  0  0  0
  190.1450  177.8570  138.8160 N   0  0  0  0  0  2  0  0  0  0  0  0
  190.4770  177.0550  140.0020 C   0  0  0  0  0  0  0  0  0  0  0  0
  190.6410  175.7900  139.8280 O   0  0  0  0  0  0  0  0  0  0  0  0
  189.9270  177.2740  137.5070 C   0  0  1  0  0  3  0  0  0  0  0  0
  187.7910  175.9580  137.3580 O   0  0  0  0  0  1  0  0  0  0  0  0
  186.2180  177.5010  135.7870 N   0  0  0  0  0  1  0  0  0  0  0  0
  188.4110  178.4160  135.5260 S   0  0  0  0  0  0  0  0  0  0  0  0
  188.3780  177.2210  137.0320 C   0  0  2  0  0  0  0  0  0  0  0  0
  187.1950  178.0850  136.7010 C   0  0  2  0  0  3  0  0  0  0  0  0
  191.0340  176.8940  136.7530 O   0  0  0  0  0  0  0  0  0  0  0  0
  190.5640  175.5900  135.6600 S   0  0  0  0  0  0  0  0  0  0  0  0
  191.0390  173.7410  137.2150 N   0  0  0  0  0  1  0  0  0  0  0  0
  191.8160  174.5810  136.2940 C   0  0  0  0  0  2  0  0  0  0  0  0
  2  1  2  0  0  0  0
  3  2  1  0  0  0  0
  4 33  1  0  0  0  0
  4  5  1  0  0  0  0
  5  1  1  0  0  0  0
  6  4  2  0  0  0  0
  7  6  1  0  0  0  0
  7  3  2  0  0  0  0
  8  7  1  0  0  0  0
  9 10  1  6  0  0  0
  9  8  1  0  0  0  0
 11  9  1  0  0  0  0
 12 11  1  0  0  0  0
 13 19  1  1  0  0  0
 13 18  1  0  0  0  0
 14 16  2  0  0  0  0
 15 16  1  0  0  0  0
 15 13  1  0  0  0  0
 16 17  1  0  0  0  0
 17 12  1  1  0  0  0
 17 18  1  0  0  0  0
 20 19  1  0  0  0  0
 21 20  1  0  0  0  0
 21 23  2  0  0  0  0
 22 21  1  0  0  0  0
 24 25  1  0  0  0  0
 24 12  1  0  0  0  0
 26 25  1  0  0  0  0
 27 28  1  6  0  0  0
 27 29  1  0  0  0  0
 27 32  1  0  0  0  0
 27 26  1  0  0  0  0
 30 29  1  0  0  0  0
 31 32  1  0  0  0  0
 33 35  1  0  0  0  0
 34 37  1  0  0  0  0
 34 36  1  0  0  0  0
 35 34  2  0  0  0  0
 38 39  1  0  0  0  0
 38 37  2  0  0  0  0
 40 43  1  6  0  0  0
 40 41  1  0  0  0  0
 40 42  1  0  0  0  0
 41 42  1  0  0  0  0
 42 38  1  1  0  0  0
 45 44  1  1  0  0  0
 45 43  1  0  0  0  0
 46 47  1  0  0  0  0
 47 45  1  0  0  0  0
 48 47  2  0  0  0  0
 49 55  1  6  0  0  0
 49 46  1  0  0  0  0
 52 54  1  0  0  0  0
 52 53  1  0  0  0  0
 53 50  1  6  0  0  0
 53 49  1  0  0  0  0
 54 51  1  6  0  0  0
 54 53  1  0  0  0  0
 56 58  1  0  0  0  0
 56 55  1  0  0  0  0
 58 57  1  0  0  0  0
M  END
>  <MODEL>
8

>  <REMARK>
 VINA RESULT:      -5.1      4.263      9.547
  Name = 
  25 active torsions:
  status: ('A' for Active; 'I' for Inactive)
    1  A    between atoms: C_2  and  C_30
    2  A    between atoms: C_5  and  C_16
    3  A    between atoms: C_7  and  N_17
    4  A    between atoms: C_7  and  C_57
    5  A    between atoms: C_8  and  C_13
    6  A    between atoms: C_8  and  C_35
    7  A    between atoms: C_9  and  C_21
    8  A    between atoms: C_9  and  C_49
    9  A    between atoms: C_10  and  C_14
   10  A    between atoms: C_11  and  N_34
   11  A    between atoms: C_14  and  C_32
   12  A    between atoms: C_14  and  C_39
   13  A    between atoms: N_17  and  C_21
   14  A    between atoms: N_17  and  C_50
   15  A    between atoms: C_19  and  N_34
   16  A    between atoms: C_19  and  C_38
   17  A    between atoms: C_23  and  N_24
   18  A    between atoms: C_23  and  C_36
   19  A    between atoms: C_23  and  O_43
   20  A    between atoms: N_25  and  C_30
   21  A    between atoms: C_27  and  C_40
   22  A    between atoms: C_32  and  C_57
   23  A    between atoms: O_43  and  S_53
   24  A    between atoms: C_46  and  S_53
   25  A    between atoms: C_49  and  C_56
                            x       y       z     vdW  Elec       q    Type
                         _______ _______ _______ _____ _____    ______ ____

>  <TORSDO>
F 25

$$$$
=
 OpenBabel10232410003D

 58 61  0  0  1  0  0  0  0  0999 V2000
  187.7370  176.5870  143.9530 C   0  0  0  0  0  3  0  0  0  0  0  0
  188.7450  176.0550  143.2770 C   0  0  0  0  0  3  0  0  0  0  0  0
  189.3720  176.5360  142.0260 C   0  0  0  0  0  3  0  0  0  0  0  0
  186.9810  178.5620  142.3300 C   0  0  0  0  0  0  0  0  0  0  0  0
  187.0320  177.9170  143.6850 C   0  0  0  0  0  2  0  0  0  0  0  0
  187.8770  178.4440  141.3540 C   0  0  0  0  0  3  0  0  0  0  0  0
  189.0230  177.5010  141.1500 C   0  0  0  0  0  0  0  0  0  0  0  0
  189.7210  177.7160  139.7590 C   0  0  0  0  0  2  0  0  0  0  0  0
  190.9600  176.8620  139.3810 C   0  0  2  0  0  3  0  0  0  0  0  0
  192.1610  177.3460  140.2120 C   0  0  0  0  0  1  0  0  0  0  0  0
  191.2100  176.9460  137.8530 C   0  0  0  0  0  2  0  0  0  0  0  0
  191.4590  175.6190  137.2660 N   0  0  0  0  0  0  0  0  0  0  0  0
  188.2910  174.6500  136.0390 C   0  0  1  0  0  3  0  0  0  0  0  0
  191.2560  172.9060  135.8570 O   0  0  0  0  0  0  0  0  0  0  0  0
  189.3190  174.0250  135.2300 N   0  0  0  0  0  2  0  0  0  0  0  0
  190.4200  173.8110  136.0950 C   0  0  0  0  0  0  0  0  0  0  0  0
  190.3800  174.6460  137.3300 C   0  0  2  0  0  3  0  0  0  0  0  0
  189.0080  175.3330  137.1980 C   0  0  0  0  0  2  0  0  0  0  0  0
  187.4500  175.5790  135.1900 C   0  0  0  0  0  2  0  0  0  0  0  0
  187.3490  177.0310  135.6230 N   0  0  0  0  0  2  0  0  0  0  0  0
  186.7790  177.6960  136.7790 C   0  0  0  0  0  0  0  0  0  0  0  0
  186.9880  179.1510  137.0410 N   0  0  0  0  0  1  0  0  0  0  0  0
  186.0600  177.1210  137.5780 O   0  0  0  0  0  0  0  0  0  0  0  0
  192.6980  175.0460  137.8090 C   0  0  0  0  0  2  0  0  0  0  0  0
  194.0390  175.4310  137.2120 C   0  0  0  0  0  2  0  0  0  0  0  0
  195.0330  174.3850  137.7710 C   0  0  0  0  0  2  0  0  0  0  0  0
  196.3070  173.9440  137.0010 C   0  0  2  0  0  0  0  0  0  0  0  0
  196.3880  174.5900  135.6340 C   0  0  0  0  0  1  0  0  0  0  0  0
  196.2470  172.4450  136.7430 C   0  0  0  0  0  2  0  0  0  0  0  0
  196.1570  172.2350  135.3150 N   0  0  0  0  0  1  0  0  0  0  0  0
  197.1920  174.9290  139.1870 O   0  0  0  0  0  1  0  0  0  0  0  0
  197.4880  174.4450  137.8890 C   0  0  0  0  0  2  0  0  0  0  0  0
  185.8230  179.4730  141.9560 C   0  0  0  0  0  2  0  0  0  0  0  0
  183.4750  179.1770  142.7940 C   0  0  0  0  0  0  0  0  0  0  0  0
  184.3980  178.9160  141.8510 C   0  0  0  0  0  3  0  0  0  0  0  0
  183.8490  179.8880  144.0300 C   0  0  0  0  0  1  0  0  0  0  0  0
  182.0690  178.6900  142.7910 C   0  0  0  0  0  3  0  0  0  0  0  0
  181.3260  178.3370  141.7360 C   0  0  0  0  0  0  0  0  0  0  0  0
  179.9820  177.7220  142.1670 C   0  0  0  0  0  1  0  0  0  0  0  0
  181.7830  178.8540  138.9640 C   0  0  1  0  0  3  0  0  0  0  0  0
  180.5950  178.4770  139.6650 O   0  0  0  0  0  0  0  0  0  0  0  0
  181.7350  178.1370  140.3070 C   0  0  2  0  0  3  0  0  0  0  0  0
  182.2190  177.7800  138.0960 N   0  0  0  0  0  2  0  0  0  0  0  0
  180.0200  177.2260  137.2130 C   0  0  0  0  0  1  0  0  0  0  0  0
  181.4440  177.5920  136.8990 C   0  0  2  0  0  3  0  0  0  0  0  0
  182.2840  175.1660  136.6240 N   0  0  0  0  0  2  0  0  0  0  0  0
  181.9320  176.4820  136.0700 C   0  0  0  0  0  0  0  0  0  0  0  0
  181.9740  176.6100  134.7900 O   0  0  0  0  0  0  0  0  0  0  0  0
  182.7390  174.0630  135.8010 C   0  0  1  0  0  3  0  0  0  0  0  0
  184.3770  173.7430  137.6810 O   0  0  0  0  0  1  0  0  0  0  0  0
  186.2180  172.0660  136.6230 N   0  0  0  0  0  1  0  0  0  0  0  0
  184.9500  172.8290  134.7460 S   0  0  0  0  0  0  0  0  0  0  0  0
  184.0310  173.2700  136.3750 C   0  0  2  0  0  0  0  0  0  0  0  0
  184.8100  171.9930  136.2450 C   0  0  2  0  0  3  0  0  0  0  0  0
  182.0050  173.7300  134.6650 O   0  0  0  0  0  0  0  0  0  0  0  0
  180.5920  172.7910  135.1500 S   0  0  0  0  0  0  0  0  0  0  0  0
  180.0160  172.5880  137.5350 N   0  0  0  0  0  1  0  0  0  0  0  0
  181.2480  172.5840  136.7360 C   0  0  0  0  0  2  0  0  0  0  0  0
  2  1  2  0  0  0  0
  3  2  1  0  0  0  0
  4  5  1  0  0  0  0
  5  1  1  0  0  0  0
  6  4  2  0  0  0  0
  7  6  1  0  0  0  0
  7  3  2  0  0  0  0
  8  7  1  0  0  0  0
  9  8  1  0  0  0  0
  9 10  1  1  0  0  0
 11  9  1  0  0  0  0
 12 24  1  0  0  0  0
 12 11  1  0  0  0  0
 13 19  1  6  0  0  0
 13 18  1  0  0  0  0
 14 16  2  0  0  0  0
 15 13  1  0  0  0  0
 15 16  1  0  0  0  0
 16 17  1  0  0  0  0
 17 12  1  6  0  0  0
 18 17  1  0  0  0  0
 19 20  1  0  0  0  0
 20 21  1  0  0  0  0
 21 22  1  0  0  0  0
 21 23  2  0  0  0  0
 25 26  1  0  0  0  0
 25 24  1  0  0  0  0
 27 28  1  6  0  0  0
 27 26  1  0  0  0  0
 27 32  1  0  0  0  0
 29 27  1  0  0  0  0
 30 29  1  0  0  0  0
 32 31  1  0  0  0  0
 33  4  1  0  0  0  0
 34 36  1  0  0  0  0
 35 33  1  0  0  0  0
 35 34  2  0  0  0  0
 37 34  1  0  0  0  0
 38 39  1  0  0  0  0
 38 37  2  0  0  0  0
 40 43  1  6  0  0  0
 40 41  1  0  0  0  0
 40 42  1  0  0  0  0
 41 42  1  0  0  0  0
 42 38  1  1  0  0  0
 45 44  1  1  0  0  0
 45 43  1  0  0  0  0
 47 46  1  0  0  0  0
 47 45  1  0  0  0  0
 48 47  2  0  0  0  0
 49 55  1  1  0  0  0
 49 53  1  0  0  0  0
 49 46  1  0  0  0  0
 52 54  1  0  0  0  0
 52 53  1  0  0  0  0
 53 50  1  1  0  0  0
 54 53  1  0  0  0  0
 54 51  1  1  0  0  0
 55 56  1  0  0  0  0
 56 58  1  0  0  0  0
 58 57  1  0  0  0  0
M  END
>  <MODEL>
9

>  <REMARK>
 VINA RESULT:      -4.9      4.392     10.590
  Name = 
  25 active torsions:
  status: ('A' for Active; 'I' for Inactive)
    1  A    between atoms: C_2  and  C_30
    2  A    between atoms: C_5  and  C_16
    3  A    between atoms: C_7  and  N_17
    4  A    between atoms: C_7  and  C_57
    5  A    between atoms: C_8  and  C_13
    6  A    between atoms: C_8  and  C_35
    7  A    between atoms: C_9  and  C_21
    8  A    between atoms: C_9  and  C_49
    9  A    between atoms: C_10  and  C_14
   10  A    between atoms: C_11  and  N_34
   11  A    between atoms: C_14  and  C_32
   12  A    between atoms: C_14  and  C_39
   13  A    between atoms: N_17  and  C_21
   14  A    between atoms: N_17  and  C_50
   15  A    between atoms: C_19  and  N_34
   16  A    between atoms: C_19  and  C_38
   17  A    between atoms: C_23  and  N_24
   18  A    between atoms: C_23  and  C_36
   19  A    between atoms: C_23  and  O_43
   20  A    between atoms: N_25  and  C_30
   21  A    between atoms: C_27  and  C_40
   22  A    between atoms: C_32  and  C_57
   23  A    between atoms: O_43  and  S_53
   24  A    between atoms: C_46  and  S_53
   25  A    between atoms: C_49  and  C_56
                            x       y       z     vdW  Elec       q    Type
                         _______ _______ _______ _____ _____    ______ ____

>  <TORSDO>
F 25

$$$$
