=
 OpenBabel10222421443D

 31 35  0  0  1  0  0  0  0  0999 V2000
  187.9390  178.0460  139.4850 C   0  0  0  0  0  0  0  0  0  0  0  0
  185.7970  178.6940  140.3870 C   0  0  0  0  0  0  0  0  0  0  0  0
  186.5330  178.4130  139.2920 C   0  0  0  0  0  3  0  0  0  0  0  0
  187.5550  172.8710  136.1230 C   0  0  1  0  0  3  0  0  0  0  0  0
  190.8910  176.9200  142.0130 Cl  0  0  0  0  0  0  0  0  0  0  0  0
  190.0190  177.1700  139.4000 C   0  0  0  0  0  0  0  0  0  0  0  0
  188.4890  177.9440  140.8150 C   0  0  0  0  0  0  0  0  0  0  0  0
  189.8190  177.3740  140.7010 C   0  0  0  0  0  0  0  0  0  0  0  0
  189.9020  173.5680  136.8360 O   0  0  0  0  0  0  0  0  0  0  0  0
  191.1890  176.5140  138.7510 C   0  0  0  0  0  2  0  0  0  0  0  0
  188.8620  177.6160  138.6290 C   0  0  0  0  0  0  0  0  0  0  0  0
  190.8610  175.2260  138.1220 N   0  0  0  0  0  0  0  0  0  0  0  0
  187.0960  173.6900  137.3280 C   0  0  2  0  0  3  0  0  0  0  0  0
  185.3460  173.4800  137.5770 Cl  0  0  0  0  0  0  0  0  0  0  0  0
  189.0260  173.1210  135.8060 C   0  0  0  0  0  0  0  0  0  0  0  0
  189.6760  172.2640  134.7440 C   0  0  0  0  0  2  0  0  0  0  0  0
  189.8320  174.8490  137.4030 C   0  0  0  0  0  0  0  0  0  0  0  0
  186.4210  178.5970  141.7420 C   0  0  0  0  0  0  0  0  0  0  0  0
  188.6110  175.6980  137.1790 C   0  0  0  0  0  0  0  0  0  0  0  0
  185.7460  178.8730  142.7680 O   0  0  0  0  0  0  0  0  0  0  0  0
  189.3100  173.7130  134.4440 C   0  0  0  0  0  2  0  0  0  0  0  0
  187.3830  175.1520  137.1660 C   0  0  0  0  0  3  0  0  0  0  0  0
  187.3600  171.5130  136.3870 O   0  0  0  0  0  1  0  0  0  0  0  0
  188.7170  177.1960  137.2040 C   0  0  1  0  0  3  0  0  0  0  0  0
  187.7910  178.1710  141.8840 N   0  0  0  0  0  0  0  0  0  0  0  0
  183.8660  179.5170  139.0670 C   0  0  0  0  0  1  0  0  0  0  0  0
  184.4510  179.0670  140.2820 O   0  0  0  0  0  0  0  0  0  0  0  0
  187.6340  177.9360  136.4170 C   0  0  0  0  0  2  0  0  0  0  0  0
  187.8110  177.6280  134.6330 S   0  0  0  0  0  0  0  0  0  0  0  0
  185.2880  177.2670  135.6200 C   0  0  0  0  0  1  0  0  0  0  0  0
  186.0170  177.6430  134.3460 C   0  0  0  0  0  2  0  0  0  0  0  0
  1  7  1  0  0  0  0
  2 18  1  0  0  0  0
  3  1  1  0  0  0  0
  3  2  2  0  0  0  0
  4 23  1  1  0  0  0
  4 13  1  0  0  0  0
  6  8  2  0  0  0  0
  7 25  2  0  0  0  0
  8  7  1  0  0  0  0
  8  5  1  0  0  0  0
  9 17  1  0  0  0  0
 10  6  1  0  0  0  0
 11  6  1  0  0  0  0
 11  1  2  0  0  0  0
 12 10  1  0  0  0  0
 13 14  1  6  0  0  0
 15  4  1  0  0  0  0
 15  9  1  0  0  0  0
 16 15  1  0  0  0  0
 17 12  2  0  0  0  0
 18 25  1  0  0  0  0
 18 20  2  0  0  0  0
 19 24  1  0  0  0  0
 19 17  1  0  0  0  0
 21 16  1  0  0  0  0
 21 15  1  0  0  0  0
 22 19  2  0  0  0  0
 22 13  1  0  0  0  0
 24 28  1  1  0  0  0
 24 11  1  0  0  0  0
 26 27  1  0  0  0  0
 27  2  1  0  0  0  0
 29 28  1  0  0  0  0
 31 29  1  0  0  0  0
 31 30  1  0  0  0  0
M  END
>  <MODEL>
1

>  <REMARK>
 VINA RESULT:      -6.3      0.000      0.000
  Name = 
  4 active torsions:
  status: ('A' for Active; 'I' for Inactive)
    1  A    between atoms: C_2  and  O_26
    2  A    between atoms: S_5  and  C_6
    3  A    between atoms: S_5  and  C_27
    4  A    between atoms: C_6  and  C_30
                            x       y       z     vdW  Elec       q    Type
                         _______ _______ _______ _____ _____    ______ ____

>  <TORSDO>
F 4

$$$$
=
 OpenBabel10222421443D

 31 35  0  0  1  0  0  0  0  0999 V2000
  185.2370  178.8350  141.1900 C   0  0  0  0  0  0  0  0  0  0  0  0
  184.4000  178.6470  143.4450 C   0  0  0  0  0  0  0  0  0  0  0  0
  184.1470  178.9700  142.1600 C   0  0  0  0  0  3  0  0  0  0  0  0
  181.9310  175.4450  137.2130 C   0  0  1  0  0  3  0  0  0  0  0  0
  188.9160  177.3940  140.3180 Cl  0  0  0  0  0  0  0  0  0  0  0  0
  186.5500  178.4840  139.3860 C   0  0  0  0  0  0  0  0  0  0  0  0
  186.5210  178.3240  141.6040 C   0  0  0  0  0  0  0  0  0  0  0  0
  187.3190  178.1130  140.4090 C   0  0  0  0  0  0  0  0  0  0  0  0
  184.2060  176.2420  136.3800 O   0  0  0  0  0  0  0  0  0  0  0  0
  186.8570  178.3780  137.9320 C   0  0  0  0  0  2  0  0  0  0  0  0
  185.2580  178.9660  139.8660 C   0  0  0  0  0  0  0  0  0  0  0  0
  186.0080  177.4070  137.2260 N   0  0  0  0  0  0  0  0  0  0  0  0
  182.5370  175.6150  138.6060 C   0  0  2  0  0  3  0  0  0  0  0  0
  181.4160  174.9900  139.8390 Cl  0  0  0  0  0  0  0  0  0  0  0  0
  182.8110  176.0790  136.1410 C   0  0  0  0  0  0  0  0  0  0  0  0
  182.4350  175.8550  134.6940 C   0  0  0  0  0  2  0  0  0  0  0  0
  184.7260  177.1540  137.3110 C   0  0  0  0  0  0  0  0  0  0  0  0
  185.7560  178.1440  143.8270 C   0  0  0  0  0  0  0  0  0  0  0  0
  183.8160  177.7690  138.3390 C   0  0  0  0  0  0  0  0  0  0  0  0
  186.0060  177.8550  145.0260 O   0  0  0  0  0  0  0  0  0  0  0  0
  182.1770  177.2040  135.3550 C   0  0  0  0  0  2  0  0  0  0  0  0
  182.8450  177.0470  138.9220 C   0  0  0  0  0  3  0  0  0  0  0  0
  181.7740  174.0840  136.9420 O   0  0  0  0  0  1  0  0  0  0  0  0
  184.1260  179.1250  138.9060 C   0  0  1  0  0  3  0  0  0  0  0  0
  186.7770  177.9690  142.8240 N   0  0  0  0  0  0  0  0  0  0  0  0
  182.0260  178.8420  144.1340 C   0  0  0  0  0  1  0  0  0  0  0  0
  183.4140  178.7640  144.4320 O   0  0  0  0  0  0  0  0  0  0  0  0
  182.9190  179.8920  139.4500 C   0  0  0  0  0  2  0  0  0  0  0  0
  181.7730  180.3240  138.1040 S   0  0  0  0  0  0  0  0  0  0  0  0
  180.6080  179.6710  140.4880 C   0  0  0  0  0  1  0  0  0  0  0  0
  180.3470  180.4610  139.2210 C   0  0  0  0  0  2  0  0  0  0  0  0
  1  7  1  0  0  0  0
  1  3  1  0  0  0  0
  2 18  1  0  0  0  0
  2 27  1  0  0  0  0
  3  2  2  0  0  0  0
  4 23  1  6  0  0  0
  4 13  1  0  0  0  0
  5  8  1  0  0  0  0
  6 11  1  0  0  0  0
  6  8  2  0  0  0  0
  7 25  2  0  0  0  0
  8  7  1  0  0  0  0
  9 17  1  0  0  0  0
 10  6  1  0  0  0  0
 11  1  2  0  0  0  0
 12 17  2  0  0  0  0
 12 10  1  0  0  0  0
 13 22  1  0  0  0  0
 13 14  1  1  0  0  0
 15  9  1  0  0  0  0
 15  4  1  0  0  0  0
 16 21  1  0  0  0  0
 16 15  1  0  0  0  0
 17 19  1  0  0  0  0
 18 20  2  0  0  0  0
 19 24  1  0  0  0  0
 19 22  2  0  0  0  0
 21 15  1  0  0  0  0
 24 28  1  1  0  0  0
 24 11  1  0  0  0  0
 25 18  1  0  0  0  0
 26 27  1  0  0  0  0
 29 31  1  0  0  0  0
 29 28  1  0  0  0  0
 31 30  1  0  0  0  0
M  END
>  <MODEL>
2

>  <REMARK>
 VINA RESULT:      -5.7      4.023      5.274
  Name = 
  4 active torsions:
  status: ('A' for Active; 'I' for Inactive)
    1  A    between atoms: C_2  and  O_26
    2  A    between atoms: S_5  and  C_6
    3  A    between atoms: S_5  and  C_27
    4  A    between atoms: C_6  and  C_30
                            x       y       z     vdW  Elec       q    Type
                         _______ _______ _______ _____ _____    ______ ____

>  <TORSDO>
F 4

$$$$
=
 OpenBabel10222421443D

 31 35  0  0  1  0  0  0  0  0999 V2000
  187.5190  178.0590  139.2450 C   0  0  0  0  0  0  0  0  0  0  0  0
  185.3970  178.7960  140.1250 C   0  0  0  0  0  0  0  0  0  0  0  0
  186.1150  178.4290  139.0450 C   0  0  0  0  0  3  0  0  0  0  0  0
  187.0330  172.6630  136.2660 C   0  0  1  0  0  3  0  0  0  0  0  0
  190.4920  177.0800  141.8110 Cl  0  0  0  0  0  0  0  0  0  0  0  0
  189.5870  177.1540  139.1970 C   0  0  0  0  0  0  0  0  0  0  0  0
  188.0860  178.0460  140.5730 C   0  0  0  0  0  0  0  0  0  0  0  0
  189.4080  177.4520  140.4830 C   0  0  0  0  0  0  0  0  0  0  0  0
  189.3970  173.3810  136.8990 O   0  0  0  0  0  0  0  0  0  0  0  0
  190.7420  176.4390  138.5820 C   0  0  0  0  0  2  0  0  0  0  0  0
  188.4250  177.5580  138.4110 C   0  0  0  0  0  0  0  0  0  0  0  0
  190.3910  175.1140  138.0510 N   0  0  0  0  0  0  0  0  0  0  0  0
  186.5990  173.5720  137.4160 C   0  0  2  0  0  3  0  0  0  0  0  0
  184.8500  173.4010  137.7000 Cl  0  0  0  0  0  0  0  0  0  0  0  0
  188.5020  172.8720  135.9140 C   0  0  0  0  0  0  0  0  0  0  0  0
  189.1280  171.9340  134.9080 C   0  0  0  0  0  2  0  0  0  0  0  0
  189.3490  174.6990  137.3740 C   0  0  0  0  0  0  0  0  0  0  0  0
  186.0380  178.7880  141.4760 C   0  0  0  0  0  0  0  0  0  0  0  0
  188.1340  175.5450  137.1050 C   0  0  0  0  0  0  0  0  0  0  0  0
  185.3800  179.1440  142.4880 O   0  0  0  0  0  0  0  0  0  0  0  0
  188.7740  173.3620  134.5100 C   0  0  0  0  0  2  0  0  0  0  0  0
  186.9000  175.0140  137.1460 C   0  0  0  0  0  3  0  0  0  0  0  0
  186.8250  171.3300  136.6290 O   0  0  0  0  0  1  0  0  0  0  0  0
  188.2580  177.0390  137.0210 C   0  0  1  0  0  3  0  0  0  0  0  0
  187.4050  178.3560  141.6310 N   0  0  0  0  0  0  0  0  0  0  0  0
  183.5380  179.8590  138.8760 C   0  0  0  0  0  1  0  0  0  0  0  0
  184.0540  179.1770  140.0100 O   0  0  0  0  0  0  0  0  0  0  0  0
  187.1720  177.7350  136.1970 C   0  0  0  0  0  2  0  0  0  0  0  0
  187.5970  177.7150  134.4280 S   0  0  0  0  0  0  0  0  0  0  0  0
  190.1380  176.7140  134.3460 C   0  0  0  0  0  1  0  0  0  0  0  0
  189.3690  177.9570  134.7450 C   0  0  0  0  0  2  0  0  0  0  0  0
  1  7  1  0  0  0  0
  2 18  1  0  0  0  0
  3  1  1  0  0  0  0
  3  2  2  0  0  0  0
  4 23  1  1  0  0  0
  4 13  1  0  0  0  0
  6  8  2  0  0  0  0
  7 25  2  0  0  0  0
  8  7  1  0  0  0  0
  8  5  1  0  0  0  0
  9 17  1  0  0  0  0
 10  6  1  0  0  0  0
 11  6  1  0  0  0  0
 11  1  2  0  0  0  0
 12 10  1  0  0  0  0
 13 14  1  6  0  0  0
 15  4  1  0  0  0  0
 15  9  1  0  0  0  0
 16 15  1  0  0  0  0
 17 12  2  0  0  0  0
 18 25  1  0  0  0  0
 18 20  2  0  0  0  0
 19 22  2  0  0  0  0
 19 17  1  0  0  0  0
 21 16  1  0  0  0  0
 21 15  1  0  0  0  0
 22 13  1  0  0  0  0
 24 28  1  1  0  0  0
 24 19  1  0  0  0  0
 24 11  1  0  0  0  0
 26 27  1  0  0  0  0
 27  2  1  0  0  0  0
 29 31  1  0  0  0  0
 29 28  1  0  0  0  0
 30 31  1  0  0  0  0
M  END
>  <MODEL>
3

>  <REMARK>
 VINA RESULT:      -5.7      0.867      1.201
  Name = 
  4 active torsions:
  status: ('A' for Active; 'I' for Inactive)
    1  A    between atoms: C_2  and  O_26
    2  A    between atoms: S_5  and  C_6
    3  A    between atoms: S_5  and  C_27
    4  A    between atoms: C_6  and  C_30
                            x       y       z     vdW  Elec       q    Type
                         _______ _______ _______ _____ _____    ______ ____

>  <TORSDO>
F 4

$$$$
=
 OpenBabel10222421443D

 31 35  0  0  1  0  0  0  0  0999 V2000
  184.4070  177.6580  137.6470 C   0  0  0  0  0  0  0  0  0  0  0  0
  186.7760  178.0160  137.3560 C   0  0  0  0  0  0  0  0  0  0  0  0
  185.5790  178.5380  137.6900 C   0  0  0  0  0  3  0  0  0  0  0  0
  182.5570  179.0290  143.3860 C   0  0  1  0  0  3  0  0  0  0  0  0
  182.9300  173.8980  137.4060 Cl  0  0  0  0  0  0  0  0  0  0  0  0
  182.4610  176.5640  137.9820 C   0  0  0  0  0  0  0  0  0  0  0  0
  184.5570  176.2640  137.3040 C   0  0  0  0  0  0  0  0  0  0  0  0
  183.2820  175.6110  137.5420 C   0  0  0  0  0  0  0  0  0  0  0  0
  180.9350  177.6430  141.9900 O   0  0  0  0  0  0  0  0  0  0  0  0
  181.0590  176.4040  138.4620 C   0  0  0  0  0  2  0  0  0  0  0  0
  183.1460  177.8520  138.0220 C   0  0  1  0  0  3  0  0  0  0  0  0
  180.9000  176.6690  139.8990 N   0  0  0  0  0  0  0  0  0  0  0  0
  183.6260  178.4650  142.4510 C   0  0  2  0  0  3  0  0  0  0  0  0
  185.2450  178.9360  143.0210 Cl  0  0  0  0  0  0  0  0  0  0  0  0
  181.1530  178.7480  142.8620 C   0  0  0  0  0  0  0  0  0  0  0  0
  179.9830  179.0980  143.7520 C   0  0  0  0  0  2  0  0  0  0  0  0
  181.4090  177.5980  140.6710 C   0  0  0  0  0  0  0  0  0  0  0  0
  186.8730  176.5700  136.9840 C   0  0  0  0  0  0  0  0  0  0  0  0
  182.4570  178.5790  140.2220 C   0  0  0  0  0  0  0  0  0  0  0  0
  187.9840  176.0770  136.6560 O   0  0  0  0  0  0  0  0  0  0  0  0
  180.3160  179.9670  142.5460 C   0  0  0  0  0  2  0  0  0  0  0  0
  183.4590  178.9420  141.0400 C   0  0  0  0  0  3  0  0  0  0  0  0
  182.7050  178.4590  144.6520 O   0  0  0  0  0  1  0  0  0  0  0  0
  182.5410  178.9870  138.7790 C   0  0  1  0  0  3  0  0  0  0  0  0
  185.7030  175.7290  137.0180 N   0  0  0  0  0  2  0  0  0  0  0  0
  188.9480  178.6800  138.3510 C   0  0  0  0  0  1  0  0  0  0  0  0
  187.9370  178.7980  137.3580 O   0  0  0  0  0  0  0  0  0  0  0  0
  183.1870  180.3510  138.5270 C   0  0  0  0  0  2  0  0  0  0  0  0
  181.9240  181.6590  138.4700 S   0  0  0  0  0  0  0  0  0  0  0  0
  180.7110  180.9340  136.1310 C   0  0  0  0  0  1  0  0  0  0  0  0
  180.7210  180.6040  137.6100 C   0  0  0  0  0  2  0  0  0  0  0  0
  1  3  1  0  0  0  0
  2 27  1  0  0  0  0
  2  3  2  0  0  0  0
  4 23  1  1  0  0  0
  5  8  1  0  0  0  0
  6 11  1  0  0  0  0
  6 10  1  0  0  0  0
  7  8  1  0  0  0  0
  7  1  2  0  0  0  0
  8  6  2  0  0  0  0
  9 15  1  0  0  0  0
 10 12  1  0  0  0  0
 11  1  1  1  0  0  0
 11 24  1  0  0  0  0
 12 17  2  0  0  0  0
 13 14  1  1  0  0  0
 13  4  1  0  0  0  0
 15  4  1  0  0  0  0
 15 16  1  0  0  0  0
 17  9  1  0  0  0  0
 18 25  1  0  0  0  0
 18  2  1  0  0  0  0
 19 17  1  0  0  0  0
 19 22  2  0  0  0  0
 20 18  2  0  0  0  0
 21 15  1  0  0  0  0
 21 16  1  0  0  0  0
 22 13  1  0  0  0  0
 24 28  1  1  0  0  0
 24 19  1  0  0  0  0
 25  7  1  0  0  0  0
 27 26  1  0  0  0  0
 29 28  1  0  0  0  0
 30 31  1  0  0  0  0
 31 29  1  0  0  0  0
M  END
>  <MODEL>
4

>  <REMARK>
 VINA RESULT:      -5.4      3.947      8.287
  Name = 
  4 active torsions:
  status: ('A' for Active; 'I' for Inactive)
    1  A    between atoms: C_2  and  O_26
    2  A    between atoms: S_5  and  C_6
    3  A    between atoms: S_5  and  C_27
    4  A    between atoms: C_6  and  C_30
                            x       y       z     vdW  Elec       q    Type
                         _______ _______ _______ _____ _____    ______ ____

>  <TORSDO>
F 4

$$$$
=
 OpenBabel10222421443D

 31 35  0  0  1  0  0  0  0  0999 V2000
  183.6650  178.9380  140.5770 C   0  0  0  0  0  0  0  0  0  0  0  0
  182.5080  178.9350  142.6940 C   0  0  0  0  0  0  0  0  0  0  0  0
  182.4240  179.0240  141.3510 C   0  0  0  0  0  3  0  0  0  0  0  0
  181.5780  174.5060  136.8040 C   0  0  1  0  0  3  0  0  0  0  0  0
  187.6070  178.0280  140.4740 Cl  0  0  0  0  0  0  0  0  0  0  0  0
  185.2910  178.5590  139.0560 C   0  0  0  0  0  0  0  0  0  0  0  0
  184.9250  178.7150  141.2440 C   0  0  0  0  0  0  0  0  0  0  0  0
  185.9290  178.4730  140.2230 C   0  0  0  0  0  0  0  0  0  0  0  0
  183.8180  175.5480  136.1720 O   0  0  0  0  0  0  0  0  0  0  0  0
  185.8440  178.2990  137.6970 C   0  0  0  0  0  2  0  0  0  0  0  0
  183.8820  178.8800  139.2660 C   0  0  0  0  0  0  0  0  0  0  0  0
  185.2710  177.1080  137.0520 N   0  0  0  0  0  0  0  0  0  0  0  0
  181.9170  174.9730  138.2190 C   0  0  2  0  0  3  0  0  0  0  0  0
  180.7120  174.3510  139.3720 Cl  0  0  0  0  0  0  0  0  0  0  0  0
  182.5190  175.1200  135.7730 C   0  0  0  0  0  0  0  0  0  0  0  0
  182.4200  174.6310  134.3460 C   0  0  0  0  0  2  0  0  0  0  0  0
  184.0410  176.6580  137.0000 C   0  0  0  0  0  0  0  0  0  0  0  0
  183.8420  178.7280  143.3390 C   0  0  0  0  0  0  0  0  0  0  0  0
  182.8970  177.2520  137.7760 C   0  0  0  0  0  0  0  0  0  0  0  0
  183.9330  178.6600  144.5920 O   0  0  0  0  0  0  0  0  0  0  0  0
  181.8650  175.9980  134.7300 C   0  0  0  0  0  2  0  0  0  0  0  0
  181.9590  176.4670  138.3310 C   0  0  0  0  0  3  0  0  0  0  0  0
  181.6650  173.1130  136.7450 O   0  0  0  0  0  1  0  0  0  0  0  0
  182.9110  178.7070  138.1460 C   0  0  1  0  0  3  0  0  0  0  0  0
  185.0280  178.5870  142.5300 N   0  0  0  0  0  0  0  0  0  0  0  0
  180.1810  179.6910  143.0940 C   0  0  0  0  0  1  0  0  0  0  0  0
  181.3680  179.0240  143.5020 O   0  0  0  0  0  0  0  0  0  0  0  0
  181.5330  179.3290  138.3810 C   0  0  0  0  0  2  0  0  0  0  0  0
  180.7490  179.7720  136.8010 S   0  0  0  0  0  0  0  0  0  0  0  0
  181.3620  181.9250  138.3690 C   0  0  0  0  0  1  0  0  0  0  0  0
  180.3390  181.4530  137.3560 C   0  0  0  0  0  2  0  0  0  0  0  0
  1  7  1  0  0  0  0
  1  3  1  0  0  0  0
  2 18  1  0  0  0  0
  2 27  1  0  0  0  0
  3  2  2  0  0  0  0
  4 23  1  1  0  0  0
  4 13  1  0  0  0  0
  6 11  1  0  0  0  0
  6  8  2  0  0  0  0
  7 25  2  0  0  0  0
  8  5  1  0  0  0  0
  8  7  1  0  0  0  0
  9 17  1  0  0  0  0
 10  6  1  0  0  0  0
 11  1  2  0  0  0  0
 12 10  1  0  0  0  0
 13 22  1  0  0  0  0
 13 14  1  1  0  0  0
 15  9  1  0  0  0  0
 15  4  1  0  0  0  0
 16 21  1  0  0  0  0
 16 15  1  0  0  0  0
 17 12  2  0  0  0  0
 17 19  1  0  0  0  0
 18 20  2  0  0  0  0
 19 24  1  0  0  0  0
 19 22  2  0  0  0  0
 21 15  1  0  0  0  0
 24 28  1  1  0  0  0
 24 11  1  0  0  0  0
 25 18  1  0  0  0  0
 26 27  1  0  0  0  0
 29 31  1  0  0  0  0
 29 28  1  0  0  0  0
 31 30  1  0  0  0  0
M  END
>  <MODEL>
5

>  <REMARK>
 VINA RESULT:      -5.0      4.411      5.612
  Name = 
  4 active torsions:
  status: ('A' for Active; 'I' for Inactive)
    1  A    between atoms: C_2  and  O_26
    2  A    between atoms: S_5  and  C_6
    3  A    between atoms: S_5  and  C_27
    4  A    between atoms: C_6  and  C_30
                            x       y       z     vdW  Elec       q    Type
                         _______ _______ _______ _____ _____    ______ ____

>  <TORSDO>
F 4

$$$$
=
 OpenBabel10222421443D

 31 35  0  0  1  0  0  0  0  0999 V2000
  187.8870  177.8090  137.9260 C   0  0  0  0  0  0  0  0  0  0  0  0
  189.1260  177.1030  139.8730 C   0  0  0  0  0  0  0  0  0  0  0  0
  187.9280  177.4150  139.3370 C   0  0  0  0  0  3  0  0  0  0  0  0
  183.4620  173.7610  136.4200 C   0  0  1  0  0  3  0  0  0  0  0  0
  189.7710  178.0200  134.3510 Cl  0  0  0  0  0  0  0  0  0  0  0  0
  187.3900  178.1670  135.7530 C   0  0  0  0  0  0  0  0  0  0  0  0
  189.0940  177.8100  137.1350 C   0  0  0  0  0  0  0  0  0  0  0  0
  188.7160  178.0400  135.7520 C   0  0  0  0  0  0  0  0  0  0  0  0
  184.0790  175.4620  134.6230 O   0  0  0  0  0  0  0  0  0  0  0  0
  186.4910  178.3220  134.5740 C   0  0  0  0  0  2  0  0  0  0  0  0
  186.8660  178.0550  137.1110 C   0  0  0  0  0  0  0  0  0  0  0  0
  185.6140  177.1620  134.3530 N   0  0  0  0  0  0  0  0  0  0  0  0
  184.8650  174.0310  136.9600 C   0  0  2  0  0  3  0  0  0  0  0  0
  185.2330  172.9060  138.2910 Cl  0  0  0  0  0  0  0  0  0  0  0  0
  183.0660  174.7850  135.3600 C   0  0  0  0  0  0  0  0  0  0  0  0
  181.7730  174.5610  134.6100 C   0  0  0  0  0  2  0  0  0  0  0  0
  184.9350  176.4180  135.1900 C   0  0  0  0  0  0  0  0  0  0  0  0
  190.3520  177.1440  139.0160 C   0  0  0  0  0  0  0  0  0  0  0  0
  185.0400  176.5290  136.6870 C   0  0  0  0  0  0  0  0  0  0  0  0
  191.4760  176.8710  139.5110 O   0  0  0  0  0  0  0  0  0  0  0  0
  181.8590  175.6340  135.6900 C   0  0  0  0  0  2  0  0  0  0  0  0
  185.0220  175.4330  137.4630 C   0  0  0  0  0  3  0  0  0  0  0  0
  183.4180  172.4790  135.8680 O   0  0  0  0  0  1  0  0  0  0  0  0
  185.4040  177.8400  137.3220 C   0  0  1  0  0  3  0  0  0  0  0  0
  190.2510  177.4770  137.6160 N   0  0  0  0  0  0  0  0  0  0  0  0
  189.1520  177.6630  142.2880 C   0  0  0  0  0  1  0  0  0  0  0  0
  189.2480  176.7330  141.2180 O   0  0  0  0  0  0  0  0  0  0  0  0
  184.9260  178.0170  138.7650 C   0  0  0  0  0  2  0  0  0  0  0  0
  183.5860  179.2440  138.8520 S   0  0  0  0  0  0  0  0  0  0  0  0
  182.6870  176.9180  139.9700 C   0  0  0  0  0  1  0  0  0  0  0  0
  182.2900  177.9760  138.9610 C   0  0  0  0  0  2  0  0  0  0  0  0
  1  3  1  0  0  0  0
  2 27  1  0  0  0  0
  3  2  2  0  0  0  0
  4 23  1  6  0  0  0
  4 13  1  0  0  0  0
  5  8  1  0  0  0  0
  6 11  1  0  0  0  0
  7 25  2  0  0  0  0
  7  1  1  0  0  0  0
  8  6  2  0  0  0  0
  8  7  1  0  0  0  0
  9 17  1  0  0  0  0
  9 15  1  0  0  0  0
 10  6  1  0  0  0  0
 11 24  1  0  0  0  0
 11  1  2  0  0  0  0
 12 10  1  0  0  0  0
 12 17  2  0  0  0  0
 13 22  1  0  0  0  0
 13 14  1  1  0  0  0
 15 21  1  0  0  0  0
 15  4  1  0  0  0  0
 16 15  1  0  0  0  0
 16 21  1  0  0  0  0
 17 19  1  0  0  0  0
 18 20  2  0  0  0  0
 18  2  1  0  0  0  0
 19 24  1  0  0  0  0
 19 22  2  0  0  0  0
 24 28  1  1  0  0  0
 25 18  1  0  0  0  0
 27 26  1  0  0  0  0
 28 29  1  0  0  0  0
 29 31  1  0  0  0  0
 31 30  1  0  0  0  0
M  END
>  <MODEL>
6

>  <REMARK>
 VINA RESULT:      -4.7      3.357      5.172
  Name = 
  4 active torsions:
  status: ('A' for Active; 'I' for Inactive)
    1  A    between atoms: C_2  and  O_26
    2  A    between atoms: S_5  and  C_6
    3  A    between atoms: S_5  and  C_27
    4  A    between atoms: C_6  and  C_30
                            x       y       z     vdW  Elec       q    Type
                         _______ _______ _______ _____ _____    ______ ____

>  <TORSDO>
F 4

$$$$
=
 OpenBabel10222421443D

 31 35  0  0  1  0  0  0  0  0999 V2000
  184.1060  176.3360  137.3970 C   0  0  0  0  0  0  0  0  0  0  0  0
  183.7980  174.7100  135.6410 C   0  0  0  0  0  0  0  0  0  0  0  0
  183.2470  175.4100  136.6530 C   0  0  0  0  0  3  0  0  0  0  0  0
  180.2840  181.1560  136.7710 C   0  0  1  0  0  3  0  0  0  0  0  0
  187.6060  178.3520  137.6340 Cl  0  0  0  0  0  0  0  0  0  0  0  0
  185.0170  178.0440  138.5590 C   0  0  0  0  0  0  0  0  0  0  0  0
  185.4850  176.5170  137.0120 C   0  0  0  0  0  0  0  0  0  0  0  0
  186.0170  177.6250  137.7840 C   0  0  0  0  0  0  0  0  0  0  0  0
  182.2540  181.4900  138.3560 O   0  0  0  0  0  0  0  0  0  0  0  0
  185.0080  179.2190  139.4760 C   0  0  0  0  0  2  0  0  0  0  0  0
  183.8280  177.2240  138.3470 C   0  0  1  0  0  3  0  0  0  0  0  0
  184.1020  180.2920  139.0390 N   0  0  0  0  0  0  0  0  0  0  0  0
  181.1640  180.0860  136.1260 C   0  0  2  0  0  3  0  0  0  0  0  0
  180.3890  179.4710  134.6460 Cl  0  0  0  0  0  0  0  0  0  0  0  0
  180.8570  181.6190  138.1070 C   0  0  0  0  0  0  0  0  0  0  0  0
  180.1930  182.7900  138.7930 C   0  0  0  0  0  2  0  0  0  0  0  0
  182.8920  180.2550  138.5390 C   0  0  0  0  0  0  0  0  0  0  0  0
  185.2390  174.9160  135.2980 C   0  0  0  0  0  0  0  0  0  0  0  0
  182.1840  178.9850  138.1500 C   0  0  0  0  0  0  0  0  0  0  0  0
  185.7660  174.2560  134.3650 O   0  0  0  0  0  0  0  0  0  0  0  0
  179.9820  181.3740  139.3150 C   0  0  0  0  0  2  0  0  0  0  0  0
  181.4220  178.9310  137.0450 C   0  0  0  0  0  3  0  0  0  0  0  0
  180.1760  182.2470  135.9060 O   0  0  0  0  0  1  0  0  0  0  0  0
  182.5050  177.6970  138.8510 C   0  0  1  0  0  3  0  0  0  0  0  0
  186.0270  175.8850  136.0190 N   0  0  0  0  0  2  0  0  0  0  0  0
  181.7820  173.3010  135.3220 C   0  0  0  0  0  1  0  0  0  0  0  0
  183.0440  173.7950  134.8940 O   0  0  0  0  0  0  0  0  0  0  0  0
  181.3900  176.6500  138.8260 C   0  0  0  0  0  2  0  0  0  0  0  0
  180.0790  177.0780  140.0120 S   0  0  0  0  0  0  0  0  0  0  0  0
  180.4310  178.9110  142.0080 C   0  0  0  0  0  1  0  0  0  0  0  0
  181.2160  177.9870  141.1000 C   0  0  0  0  0  2  0  0  0  0  0  0
  2  3  2  0  0  0  0
  3  1  1  0  0  0  0
  4 23  1  6  0  0  0
  4 15  1  0  0  0  0
  5  8  1  0  0  0  0
  6 10  1  0  0  0  0
  7  1  2  0  0  0  0
  7  8  1  0  0  0  0
  8  6  2  0  0  0  0
  9 17  1  0  0  0  0
 11  1  1  6  0  0  0
 11  6  1  0  0  0  0
 11 24  1  0  0  0  0
 12 10  1  0  0  0  0
 13 14  1  6  0  0  0
 13  4  1  0  0  0  0
 13 22  1  0  0  0  0
 15  9  1  0  0  0  0
 15 16  1  0  0  0  0
 15 21  1  0  0  0  0
 16 21  1  0  0  0  0
 17 12  2  0  0  0  0
 18  2  1  0  0  0  0
 18 25  1  0  0  0  0
 19 17  1  0  0  0  0
 19 24  1  0  0  0  0
 20 18  2  0  0  0  0
 22 19  2  0  0  0  0
 24 28  1  6  0  0  0
 25  7  1  0  0  0  0
 27 26  1  0  0  0  0
 27  2  1  0  0  0  0
 28 29  1  0  0  0  0
 29 31  1  0  0  0  0
 31 30  1  0  0  0  0
M  END
>  <MODEL>
7

>  <REMARK>
 VINA RESULT:      -4.4      4.327      8.488
  Name = 
  4 active torsions:
  status: ('A' for Active; 'I' for Inactive)
    1  A    between atoms: C_2  and  O_26
    2  A    between atoms: S_5  and  C_6
    3  A    between atoms: S_5  and  C_27
    4  A    between atoms: C_6  and  C_30
                            x       y       z     vdW  Elec       q    Type
                         _______ _______ _______ _____ _____    ______ ____

>  <TORSDO>
F 4

$$$$
=
 OpenBabel10222421443D

 31 35  0  0  1  0  0  0  0  0999 V2000
  181.3800  178.3430  137.8730 C   0  0  0  0  0  0  0  0  0  0  0  0
  180.9780  179.1970  140.0940 C   0  0  0  0  0  0  0  0  0  0  0  0
  181.4470  178.1900  139.3300 C   0  0  0  0  0  3  0  0  0  0  0  0
  187.3470  176.9950  136.9680 C   0  0  1  0  0  3  0  0  0  0  0  0
  180.8060  180.7690  134.6860 Cl  0  0  0  0  0  0  0  0  0  0  0  0
  181.7140  178.3350  135.6400 C   0  0  0  0  0  0  0  0  0  0  0  0
  180.8700  179.5610  137.2920 C   0  0  0  0  0  0  0  0  0  0  0  0
  181.1140  179.5040  135.8620 C   0  0  0  0  0  0  0  0  0  0  0  0
  185.9100  177.1720  134.8690 O   0  0  0  0  0  0  0  0  0  0  0  0
  182.2620  177.8250  134.3520 C   0  0  0  0  0  2  0  0  0  0  0  0
  181.8560  177.5890  136.8870 C   0  0  0  0  0  0  0  0  0  0  0  0
  183.7280  177.7090  134.3470 N   0  0  0  0  0  0  0  0  0  0  0  0
  186.2850  177.8940  137.6020 C   0  0  2  0  0  3  0  0  0  0  0  0
  186.7980  178.3860  139.2340 Cl  0  0  0  0  0  0  0  0  0  0  0  0
  186.8870  176.4550  135.6180 C   0  0  0  0  0  0  0  0  0  0  0  0
  187.8860  175.6830  134.7880 C   0  0  0  0  0  2  0  0  0  0  0  0
  184.5660  177.2760  135.2570 C   0  0  0  0  0  0  0  0  0  0  0  0
  180.4370  180.4300  139.4410 C   0  0  0  0  0  0  0  0  0  0  0  0
  184.1650  176.9110  136.6600 C   0  0  0  0  0  0  0  0  0  0  0  0
  179.9820  181.3680  140.1460 O   0  0  0  0  0  0  0  0  0  0  0  0
  186.7680  174.9510  135.5210 C   0  0  0  0  0  2  0  0  0  0  0  0
  184.9530  177.2160  137.7050 C   0  0  0  0  0  3  0  0  0  0  0  0
  188.5270  177.7230  136.8020 O   0  0  0  0  0  1  0  0  0  0  0  0
  182.7760  176.4150  136.9430 C   0  0  1  0  0  3  0  0  0  0  0  0
  180.4500  180.5590  138.0050 N   0  0  0  0  0  0  0  0  0  0  0  0
  180.0320  178.3810  142.2360 C   0  0  0  0  0  1  0  0  0  0  0  0
  180.9940  179.1180  141.4920 O   0  0  0  0  0  0  0  0  0  0  0  0
  182.6410  175.5450  138.1950 C   0  0  0  0  0  2  0  0  0  0  0  0
  181.6640  174.0530  137.8380 S   0  0  0  0  0  0  0  0  0  0  0  0
  180.1500  174.9560  139.9260 C   0  0  0  0  0  1  0  0  0  0  0  0
  180.1140  174.8020  138.4190 C   0  0  0  0  0  2  0  0  0  0  0  0
  1  3  1  0  0  0  0
  2 27  1  0  0  0  0
  3  2  2  0  0  0  0
  4 23  1  6  0  0  0
  4 13  1  0  0  0  0
  5  8  1  0  0  0  0
  6  8  2  0  0  0  0
  6 11  1  0  0  0  0
  7  1  1  0  0  0  0
  7 25  2  0  0  0  0
  8  7  1  0  0  0  0
  9 17  1  0  0  0  0
  9 15  1  0  0  0  0
 10  6  1  0  0  0  0
 11 24  1  0  0  0  0
 11  1  2  0  0  0  0
 12 10  1  0  0  0  0
 12 17  2  0  0  0  0
 13 22  1  0  0  0  0
 13 14  1  1  0  0  0
 15  4  1  0  0  0  0
 16 21  1  0  0  0  0
 16 15  1  0  0  0  0
 17 19  1  0  0  0  0
 18  2  1  0  0  0  0
 18 20  2  0  0  0  0
 19 24  1  0  0  0  0
 19 22  2  0  0  0  0
 21 15  1  0  0  0  0
 24 28  1  1  0  0  0
 25 18  1  0  0  0  0
 27 26  1  0  0  0  0
 29 28  1  0  0  0  0
 29 31  1  0  0  0  0
 31 30  1  0  0  0  0
M  END
>  <MODEL>
8

>  <REMARK>
 VINA RESULT:      -4.3      4.616      6.825
  Name = 
  4 active torsions:
  status: ('A' for Active; 'I' for Inactive)
    1  A    between atoms: C_2  and  O_26
    2  A    between atoms: S_5  and  C_6
    3  A    between atoms: S_5  and  C_27
    4  A    between atoms: C_6  and  C_30
                            x       y       z     vdW  Elec       q    Type
                         _______ _______ _______ _____ _____    ______ ____

>  <TORSDO>
F 4

$$$$
=
 OpenBabel10222421443D

 31 35  0  0  1  0  0  0  0  0999 V2000
  184.2450  175.4630  135.9350 C   0  0  0  0  0  0  0  0  0  0  0  0
  186.4840  176.0220  135.2330 C   0  0  0  0  0  0  0  0  0  0  0  0
  185.2310  176.4500  135.4890 C   0  0  0  0  0  3  0  0  0  0  0  0
  182.5000  178.7220  140.8910 C   0  0  1  0  0  3  0  0  0  0  0  0
  183.4830  171.7460  137.3430 Cl  0  0  0  0  0  0  0  0  0  0  0  0
  182.5580  174.3170  136.9060 C   0  0  0  0  0  0  0  0  0  0  0  0
  184.6320  174.0870  136.1370 C   0  0  0  0  0  0  0  0  0  0  0  0
  183.5170  173.4020  136.7650 C   0  0  0  0  0  0  0  0  0  0  0  0
  181.0880  176.6690  140.3510 O   0  0  0  0  0  0  0  0  0  0  0  0
  181.2400  174.1560  137.5820 C   0  0  0  0  0  2  0  0  0  0  0  0
  182.9930  175.6010  136.3620 C   0  0  1  0  0  3  0  0  0  0  0  0
  181.1170  174.9470  138.8160 N   0  0  0  0  0  0  0  0  0  0  0  0
  183.6000  177.9970  140.1180 C   0  0  2  0  0  3  0  0  0  0  0  0
  185.1330  178.8920  140.2550 Cl  0  0  0  0  0  0  0  0  0  0  0  0
  181.1450  178.0490  140.6960 C   0  0  0  0  0  0  0  0  0  0  0  0
  179.9830  178.5470  141.5250 C   0  0  0  0  0  2  0  0  0  0  0  0
  181.4860  176.1710  139.1010 C   0  0  0  0  0  0  0  0  0  0  0  0
  186.8280  174.5810  135.4350 C   0  0  0  0  0  0  0  0  0  0  0  0
  182.3060  177.0350  138.1820 C   0  0  0  0  0  0  0  0  0  0  0  0
  187.9910  174.1690  135.1830 O   0  0  0  0  0  0  0  0  0  0  0  0
  180.0790  178.9010  140.0450 C   0  0  0  0  0  2  0  0  0  0  0  0
  183.2670  177.8400  138.6650 C   0  0  0  0  0  3  0  0  0  0  0  0
  182.8230  178.7350  142.2500 O   0  0  0  0  0  1  0  0  0  0  0  0
  182.2300  176.8400  136.6950 C   0  0  1  0  0  3  0  0  0  0  0  0
  185.8390  173.6590  135.9360 N   0  0  0  0  0  2  0  0  0  0  0  0
  188.2910  177.6620  135.6730 C   0  0  0  0  0  1  0  0  0  0  0  0
  187.4780  176.9040  134.7880 O   0  0  0  0  0  0  0  0  0  0  0  0
  182.5950  178.0690  135.8600 C   0  0  0  0  0  2  0  0  0  0  0  0
  181.2970  178.4220  134.6350 S   0  0  0  0  0  0  0  0  0  0  0  0
  180.9010  180.2490  136.6280 C   0  0  0  0  0  1  0  0  0  0  0  0
  180.1830  179.1500  135.8710 C   0  0  0  0  0  2  0  0  0  0  0  0
  1  7  2  0  0  0  0
  2 18  1  0  0  0  0
  2  3  2  0  0  0  0
  3  1  1  0  0  0  0
  4 23  1  1  0  0  0
  6 10  1  0  0  0  0
  7  8  1  0  0  0  0
  8  6  2  0  0  0  0
  8  5  1  0  0  0  0
  9 15  1  0  0  0  0
 10 12  1  0  0  0  0
 11  1  1  1  0  0  0
 11 24  1  0  0  0  0
 11  6  1  0  0  0  0
 12 17  2  0  0  0  0
 13 14  1  6  0  0  0
 13  4  1  0  0  0  0
 15  4  1  0  0  0  0
 15 16  1  0  0  0  0
 17  9  1  0  0  0  0
 18 25  1  0  0  0  0
 19 22  2  0  0  0  0
 19 17  1  0  0  0  0
 20 18  2  0  0  0  0
 21 15  1  0  0  0  0
 21 16  1  0  0  0  0
 22 13  1  0  0  0  0
 24 28  1  6  0  0  0
 24 19  1  0  0  0  0
 25  7  1  0  0  0  0
 27  2  1  0  0  0  0
 27 26  1  0  0  0  0
 29 28  1  0  0  0  0
 29 31  1  0  0  0  0
 31 30  1  0  0  0  0
M  END
>  <MODEL>
9

>  <REMARK>
 VINA RESULT:      -4.3      3.899      8.086
  Name = 
  4 active torsions:
  status: ('A' for Active; 'I' for Inactive)
    1  A    between atoms: C_2  and  O_26
    2  A    between atoms: S_5  and  C_6
    3  A    between atoms: S_5  and  C_27
    4  A    between atoms: C_6  and  C_30
                            x       y       z     vdW  Elec       q    Type
                         _______ _______ _______ _____ _____    ______ ____

>  <TORSDO>
F 4

$$$$
