=
 OpenBabel10232412103D

 39 43  0  0  1  0  0  0  0  0999 V2000
  184.9280  178.8560  142.0330 C   0  0  0  0  0  3  0  0  0  0  0  0
  186.7550  177.8000  143.2140 C   0  0  0  0  0  0  0  0  0  0  0  0
  185.6930  178.9120  140.8590 C   0  0  0  0  0  0  0  0  0  0  0  0
  185.4530  178.3050  143.2030 C   0  0  0  0  0  3  0  0  0  0  0  0
  187.0100  178.4110  140.8730 C   0  0  0  0  0  0  0  0  0  0  0  0
  187.5320  177.8580  142.0550 C   0  0  0  0  0  3  0  0  0  0  0  0
  187.2690  177.6730  138.5580 N   0  0  0  0  0  0  0  0  0  0  0  0
  189.2050  177.8600  139.8480 C   0  0  0  0  0  3  0  0  0  0  0  0
  189.3200  176.8770  138.9750 C   0  0  0  0  0  0  0  0  0  0  0  0
  188.1110  176.7690  138.1820 C   0  0  0  0  0  3  0  0  0  0  0  0
  187.8540  178.4740  139.6300 C   0  0  2  0  0  3  0  0  0  0  0  0
  190.4700  176.0410  138.8620 N   0  0  0  0  0  2  0  0  0  0  0  0
  191.7890  176.5840  138.5750 C   0  0  0  0  0  2  0  0  0  0  0  0
  192.2640  176.1130  137.2110 C   0  0  0  0  0  2  0  0  0  0  0  0
  193.7540  176.1190  137.1220 C   0  0  0  0  0  0  0  0  0  0  0  0
  194.4030  176.9490  136.2150 O   0  0  0  0  0  0  0  0  0  0  0  0
  194.4260  175.3470  137.8550 O   0  0  0  0  0  1  0  0  0  0  0  0
  185.1680  179.4790  139.6450 N   0  0  0  0  0  2  0  0  0  0  0  0
  181.5540  178.6690  137.6940 N   0  0  0  0  0  0  0  0  0  0  0  0
  181.7700  179.9090  138.2060 C   0  0  0  0  0  3  0  0  0  0  0  0
  182.9710  180.1820  138.8580 C   0  0  0  0  0  3  0  0  0  0  0  0
  183.9320  179.1800  138.9770 C   0  0  0  0  0  0  0  0  0  0  0  0
  183.6550  177.9210  138.4310 C   0  0  0  0  0  3  0  0  0  0  0  0
  182.4700  177.7040  137.8040 N   0  0  0  0  0  0  0  0  0  0  0  0
  187.3220  177.2240  144.4640 C   0  0  0  0  0  2  0  0  0  0  0  0
  186.4950  177.6590  145.6580 C   0  0  0  0  0  2  0  0  0  0  0  0
  187.2920  177.4500  146.9300 C   0  0  0  0  0  2  0  0  0  0  0  0
  189.7660  177.3630  147.4490 C   0  0  0  0  0  0  0  0  0  0  0  0
  188.6540  177.0570  146.6030 N   0  0  0  0  0  2  0  0  0  0  0  0
  189.5870  177.9530  148.5490 O   0  0  0  0  0  0  0  0  0  0  0  0
  191.4990  175.5700  147.3660 C   0  0  0  0  0  1  0  0  0  0  0  0
  191.1590  177.0140  147.0280 C   0  0  1  0  0  3  0  0  0  0  0  0
  190.8580  176.3880  143.3210 C   0  0  2  0  0  3  0  0  0  0  0  0
  191.6690  176.1990  144.6160 C   0  0  0  0  0  2  0  0  0  0  0  0
  191.3990  177.3190  145.5770 C   0  0  0  0  0  0  0  0  0  0  0  0
  191.7240  176.8550  142.2440 C   0  0  0  0  0  2  0  0  0  0  0  0
  191.3490  178.5670  145.0940 C   0  0  0  0  0  3  0  0  0  0  0  0
  191.5730  178.7580  143.6250 C   0  0  0  0  0  2  0  0  0  0  0  0
  190.7720  177.8040  142.8450 N   0  0  2  0  0  0  0  0  0  0  0  0
  1  4  1  0  0  0  0
  2 25  1  0  0  0  0
  3  5  1  0  0  0  0
  3  1  2  0  0  0  0
  4  2  2  0  0  0  0
  5  6  2  0  0  0  0
  6  2  1  0  0  0  0
  7 11  1  0  0  0  0
  9  8  2  0  0  0  0
 10  7  2  0  0  0  0
 10  9  1  0  0  0  0
 11  8  1  0  0  0  0
 11  5  1  1  0  0  0
 12  9  1  0  0  0  0
 13 12  1  0  0  0  0
 14 13  1  0  0  0  0
 15 14  1  0  0  0  0
 15 17  1  0  0  0  0
 16 15  2  0  0  0  0
 18  3  1  0  0  0  0
 19 24  2  0  0  0  0
 19 20  1  0  0  0  0
 20 21  2  0  0  0  0
 21 22  1  0  0  0  0
 22 18  1  0  0  0  0
 23 22  2  0  0  0  0
 24 23  1  0  0  0  0
 25 26  1  0  0  0  0
 26 27  1  0  0  0  0
 28 30  2  0  0  0  0
 29 27  1  0  0  0  0
 29 28  1  0  0  0  0
 32 31  1  6  0  0  0
 32 28  1  0  0  0  0
 33 36  1  6  0  0  0
 33 34  1  0  0  0  0
 34 35  1  0  0  0  0
 35 32  1  0  0  0  0
 37 35  2  0  0  0  0
 38 37  1  0  0  0  0
 39 36  1  6  0  0  0
 39 33  1  0  0  0  0
 39 38  1  0  0  0  0
M  END
>  <MODEL>
1

>  <REMARK>
 VINA RESULT:      -8.3      0.000      0.000
  Name = 
  13 active torsions:
  status: ('A' for Active; 'I' for Inactive)
    1  A    between atoms: C_6  and  C_33
    2  A    between atoms: C_7  and  C_31
    3  A    between atoms: C_8  and  C_22
    4  A    between atoms: C_11  and  N_35
    5  A    between atoms: C_13  and  C_31
    6  A    between atoms: N_15  and  C_16
    7  A    between atoms: N_15  and  C_21
    8  A    between atoms: C_18  and  N_25
    9  A    between atoms: C_18  and  C_34
   10  A    between atoms: C_20  and  C_23
   11  A    between atoms: C_22  and  C_34
   12  A    between atoms: C_29  and  C_33
   13  A    between atoms: C_29  and  N_35
                            x       y       z     vdW  Elec       q    Type
                         _______ _______ _______ _____ _____    ______ ____

>  <TORSDO>
F 13

$$$$
=
 OpenBabel10232412103D

 39 43  0  0  1  0  0  0  0  0999 V2000
  187.5020  178.1430  141.6800 C   0  0  0  0  0  3  0  0  0  0  0  0
  185.3590  178.3350  142.7840 C   0  0  0  0  0  0  0  0  0  0  0  0
  186.9110  178.4250  140.4400 C   0  0  0  0  0  0  0  0  0  0  0  0
  186.7340  178.0970  142.8440 C   0  0  0  0  0  3  0  0  0  0  0  0
  185.5220  178.6560  140.3780 C   0  0  0  0  0  0  0  0  0  0  0  0
  184.7550  178.6080  141.5550 C   0  0  0  0  0  3  0  0  0  0  0  0
  184.1940  180.2450  139.0810 N   0  0  0  0  0  0  0  0  0  0  0  0
  183.7610  177.9730  138.7640 C   0  0  0  0  0  3  0  0  0  0  0  0
  182.6580  178.6820  138.6210 C   0  0  0  0  0  0  0  0  0  0  0  0
  182.9380  180.0900  138.8230 C   0  0  0  0  0  3  0  0  0  0  0  0
  184.8630  178.9470  139.0580 C   0  0  2  0  0  3  0  0  0  0  0  0
  181.3800  178.1180  138.3330 N   0  0  0  0  0  2  0  0  0  0  0  0
  180.2010  178.4450  139.1200 C   0  0  0  0  0  2  0  0  0  0  0  0
  180.3410  177.8970  140.5300 C   0  0  0  0  0  2  0  0  0  0  0  0
  180.6270  178.9850  141.5110 C   0  0  0  0  0  0  0  0  0  0  0  0
  180.1840  180.2810  141.2730 O   0  0  0  0  0  0  0  0  0  0  0  0
  181.2970  178.7330  142.5460 O   0  0  0  0  0  1  0  0  0  0  0  0
  187.6870  178.4740  139.2290 N   0  0  0  0  0  2  0  0  0  0  0  0
  189.5550  175.3190  137.2090 N   0  0  0  0  0  0  0  0  0  0  0  0
  190.2640  176.0420  138.1160 C   0  0  0  0  0  3  0  0  0  0  0  0
  189.6470  177.0940  138.7890 C   0  0  0  0  0  3  0  0  0  0  0  0
  188.3120  177.3920  138.5210 C   0  0  0  0  0  0  0  0  0  0  0  0
  187.6300  176.6150  137.5780 C   0  0  0  0  0  3  0  0  0  0  0  0
  188.2760  175.5970  136.9490 N   0  0  0  0  0  0  0  0  0  0  0  0
  184.5360  178.2740  144.0230 C   0  0  0  0  0  2  0  0  0  0  0  0
  185.1360  179.1670  145.0910 C   0  0  0  0  0  2  0  0  0  0  0  0
  185.8160  178.3140  146.1430 C   0  0  0  0  0  2  0  0  0  0  0  0
  188.1770  177.7220  146.8330 C   0  0  0  0  0  0  0  0  0  0  0  0
  187.2470  178.2570  145.8860 N   0  0  0  0  0  2  0  0  0  0  0  0
  187.7680  177.2300  147.9200 O   0  0  0  0  0  0  0  0  0  0  0  0
  190.4150  176.8320  147.4840 C   0  0  0  0  0  1  0  0  0  0  0  0
  189.6470  177.7640  146.5590 C   0  0  1  0  0  3  0  0  0  0  0  0
  191.6890  178.0630  143.4030 C   0  0  2  0  0  3  0  0  0  0  0  0
  190.5250  178.5930  144.2610 C   0  0  0  0  0  2  0  0  0  0  0  0
  189.9570  177.4970  145.1130 C   0  0  0  0  0  0  0  0  0  0  0  0
  191.2590  177.8880  142.0190 C   0  0  0  0  0  2  0  0  0  0  0  0
  189.7740  176.2930  144.5570 C   0  0  0  0  0  3  0  0  0  0  0  0
  190.1430  176.1260  143.1150 C   0  0  0  0  0  2  0  0  0  0  0  0
  191.4740  176.6900  142.8470 N   0  0  2  0  0  0  0  0  0  0  0  0
  1  4  1  0  0  0  0
  2  4  2  0  0  0  0
  2 25  1  0  0  0  0
  3  1  2  0  0  0  0
  5  3  1  0  0  0  0
  5  6  2  0  0  0  0
  6  2  1  0  0  0  0
  8 11  1  0  0  0  0
  9  8  2  0  0  0  0
  9 10  1  0  0  0  0
 10  7  2  0  0  0  0
 11  7  1  0  0  0  0
 11  5  1  1  0  0  0
 12  9  1  0  0  0  0
 12 13  1  0  0  0  0
 13 14  1  0  0  0  0
 14 15  1  0  0  0  0
 15 17  1  0  0  0  0
 16 15  2  0  0  0  0
 18  3  1  0  0  0  0
 19 20  1  0  0  0  0
 20 21  2  0  0  0  0
 22 21  1  0  0  0  0
 22 18  1  0  0  0  0
 23 22  2  0  0  0  0
 24 19  2  0  0  0  0
 24 23  1  0  0  0  0
 25 26  1  0  0  0  0
 26 27  1  0  0  0  0
 28 30  2  0  0  0  0
 29 27  1  0  0  0  0
 29 28  1  0  0  0  0
 32 28  1  0  0  0  0
 32 31  1  1  0  0  0
 33 36  1  6  0  0  0
 33 34  1  0  0  0  0
 34 35  1  0  0  0  0
 35 32  1  0  0  0  0
 37 35  2  0  0  0  0
 38 37  1  0  0  0  0
 39 36  1  6  0  0  0
 39 38  1  0  0  0  0
 39 33  1  0  0  0  0
M  END
>  <MODEL>
2

>  <REMARK>
 VINA RESULT:      -8.2      3.198      6.334
  Name = 
  13 active torsions:
  status: ('A' for Active; 'I' for Inactive)
    1  A    between atoms: C_6  and  C_33
    2  A    between atoms: C_7  and  C_31
    3  A    between atoms: C_8  and  C_22
    4  A    between atoms: C_11  and  N_35
    5  A    between atoms: C_13  and  C_31
    6  A    between atoms: N_15  and  C_16
    7  A    between atoms: N_15  and  C_21
    8  A    between atoms: C_18  and  N_25
    9  A    between atoms: C_18  and  C_34
   10  A    between atoms: C_20  and  C_23
   11  A    between atoms: C_22  and  C_34
   12  A    between atoms: C_29  and  C_33
   13  A    between atoms: C_29  and  N_35
                            x       y       z     vdW  Elec       q    Type
                         _______ _______ _______ _____ _____    ______ ____

>  <TORSDO>
F 13

$$$$
=
 OpenBabel10232412103D

 39 43  0  0  1  0  0  0  0  0999 V2000
  186.7960  178.4270  141.0350 C   0  0  0  0  0  3  0  0  0  0  0  0
  186.4060  178.1110  143.4000 C   0  0  0  0  0  0  0  0  0  0  0  0
  188.1670  178.1820  141.2070 C   0  0  0  0  0  0  0  0  0  0  0  0
  185.9210  178.3930  142.1210 C   0  0  0  0  0  3  0  0  0  0  0  0
  188.6570  177.9080  142.5000 C   0  0  0  0  0  0  0  0  0  0  0  0
  187.7690  177.8750  143.5890 C   0  0  0  0  0  3  0  0  0  0  0  0
  190.4110  176.2250  142.7490 N   0  0  0  0  0  0  0  0  0  0  0  0
  190.5820  178.1550  144.0510 C   0  0  0  0  0  3  0  0  0  0  0  0
  191.0750  177.1130  144.6940 C   0  0  0  0  0  0  0  0  0  0  0  0
  190.9600  175.9210  143.8780 C   0  0  0  0  0  3  0  0  0  0  0  0
  190.1240  177.6560  142.7120 C   0  0  2  0  0  3  0  0  0  0  0  0
  191.6150  177.1740  146.0120 N   0  0  0  0  0  2  0  0  0  0  0  0
  190.9090  176.6230  147.1580 C   0  0  0  0  0  2  0  0  0  0  0  0
  189.4140  176.8540  147.0140 C   0  0  0  0  0  2  0  0  0  0  0  0
  188.9290  177.8910  147.9720 C   0  0  0  0  0  0  0  0  0  0  0  0
  187.5960  178.2870  147.9670 O   0  0  0  0  0  0  0  0  0  0  0  0
  189.7380  178.4320  148.7690 O   0  0  0  0  0  1  0  0  0  0  0  0
  189.0840  178.2160  140.0990 N   0  0  0  0  0  2  0  0  0  0  0  0
  190.0070  175.1720  137.3780 N   0  0  0  0  0  0  0  0  0  0  0  0
  188.8250  175.8330  137.2610 C   0  0  0  0  0  3  0  0  0  0  0  0
  188.5130  176.8450  138.1660 C   0  0  0  0  0  3  0  0  0  0  0  0
  189.4160  177.1640  139.1790 C   0  0  0  0  0  0  0  0  0  0  0  0
  190.6180  176.4510  139.2510 C   0  0  0  0  0  3  0  0  0  0  0  0
  190.8770  175.4730  138.3440 N   0  0  0  0  0  0  0  0  0  0  0  0
  185.4760  178.0870  144.5620 C   0  0  0  0  0  2  0  0  0  0  0  0
  184.6290  179.3450  144.5770 C   0  0  0  0  0  2  0  0  0  0  0  0
  183.1620  178.9690  144.5360 C   0  0  0  0  0  2  0  0  0  0  0  0
  181.3100  178.7600  142.8260 C   0  0  0  0  0  0  0  0  0  0  0  0
  182.6580  179.0860  143.1760 N   0  0  0  0  0  2  0  0  0  0  0  0
  180.4900  178.4010  143.7130 O   0  0  0  0  0  0  0  0  0  0  0  0
  180.0860  180.0880  141.1040 C   0  0  0  0  0  1  0  0  0  0  0  0
  180.8630  178.8130  141.3980 C   0  0  1  0  0  3  0  0  0  0  0  0
  182.7330  177.0620  138.6320 C   0  0  2  0  0  3  0  0  0  0  0  0
  182.5000  177.2380  140.1440 C   0  0  0  0  0  2  0  0  0  0  0  0
  182.0070  178.6220  140.4440 C   0  0  0  0  0  0  0  0  0  0  0  0
  184.1600  177.0980  138.3300 C   0  0  0  0  0  2  0  0  0  0  0  0
  182.5910  179.6510  139.8180 C   0  0  0  0  0  3  0  0  0  0  0  0
  183.7050  179.3480  138.8630 C   0  0  0  0  0  2  0  0  0  0  0  0
  183.3300  178.2550  137.9530 N   0  0  2  0  0  0  0  0  0  0  0  0
  1  3  2  0  0  0  0
  1  4  1  0  0  0  0
  2  6  1  0  0  0  0
  2 25  1  0  0  0  0
  3  5  1  0  0  0  0
  4  2  2  0  0  0  0
  5  6  2  0  0  0  0
  7 10  2  0  0  0  0
  8  9  2  0  0  0  0
  9 12  1  0  0  0  0
 10  9  1  0  0  0  0
 11  5  1  1  0  0  0
 11  7  1  0  0  0  0
 11  8  1  0  0  0  0
 12 13  1  0  0  0  0
 14 13  1  0  0  0  0
 14 15  1  0  0  0  0
 15 17  1  0  0  0  0
 16 15  2  0  0  0  0
 18  3  1  0  0  0  0
 19 24  1  0  0  0  0
 20 19  2  0  0  0  0
 20 21  1  0  0  0  0
 21 22  2  0  0  0  0
 22 23  1  0  0  0  0
 22 18  1  0  0  0  0
 24 23  2  0  0  0  0
 25 26  1  0  0  0  0
 27 26  1  0  0  0  0
 28 29  1  0  0  0  0
 28 30  2  0  0  0  0
 29 27  1  0  0  0  0
 32 31  1  6  0  0  0
 32 28  1  0  0  0  0
 33 36  1  1  0  0  0
 33 34  1  0  0  0  0
 34 35  1  0  0  0  0
 35 32  1  0  0  0  0
 37 35  2  0  0  0  0
 38 37  1  0  0  0  0
 39 36  1  1  0  0  0
 39 33  1  0  0  0  0
 39 38  1  0  0  0  0
M  END
>  <MODEL>
3

>  <REMARK>
 VINA RESULT:      -8.1      3.285      8.041
  Name = 
  13 active torsions:
  status: ('A' for Active; 'I' for Inactive)
    1  A    between atoms: C_6  and  C_33
    2  A    between atoms: C_7  and  C_31
    3  A    between atoms: C_8  and  C_22
    4  A    between atoms: C_11  and  N_35
    5  A    between atoms: C_13  and  C_31
    6  A    between atoms: N_15  and  C_16
    7  A    between atoms: N_15  and  C_21
    8  A    between atoms: C_18  and  N_25
    9  A    between atoms: C_18  and  C_34
   10  A    between atoms: C_20  and  C_23
   11  A    between atoms: C_22  and  C_34
   12  A    between atoms: C_29  and  C_33
   13  A    between atoms: C_29  and  N_35
                            x       y       z     vdW  Elec       q    Type
                         _______ _______ _______ _____ _____    ______ ____

>  <TORSDO>
F 13

$$$$
=
 OpenBabel10232412103D

 39 43  0  0  1  0  0  0  0  0999 V2000
  188.3280  178.5410  140.5170 C   0  0  0  0  0  3  0  0  0  0  0  0
  189.9440  176.9840  141.4160 C   0  0  0  0  0  0  0  0  0  0  0  0
  188.6920  178.1940  139.2070 C   0  0  0  0  0  0  0  0  0  0  0  0
  188.9480  177.9430  141.6140 C   0  0  0  0  0  3  0  0  0  0  0  0
  189.7030  177.2340  139.0080 C   0  0  0  0  0  0  0  0  0  0  0  0
  190.3230  176.6350  140.1180 C   0  0  0  0  0  3  0  0  0  0  0  0
  189.4870  175.6070  137.1980 N   0  0  0  0  0  0  0  0  0  0  0  0
  191.5890  176.5630  137.5360 C   0  0  0  0  0  3  0  0  0  0  0  0
  191.7050  175.3210  137.1040 C   0  0  0  0  0  0  0  0  0  0  0  0
  190.3940  174.7370  136.9000 C   0  0  0  0  0  3  0  0  0  0  0  0
  190.1200  176.8550  137.6140 C   0  0  2  0  0  3  0  0  0  0  0  0
  192.9540  174.6640  136.8970 N   0  0  0  0  0  2  0  0  0  0  0  0
  194.2090  175.3970  136.8430 C   0  0  0  0  0  2  0  0  0  0  0  0
  195.3740  174.4670  137.1370 C   0  0  0  0  0  2  0  0  0  0  0  0
  195.4670  174.1550  138.5930 C   0  0  0  0  0  0  0  0  0  0  0  0
  195.5270  172.8360  139.0290 O   0  0  0  0  0  0  0  0  0  0  0  0
  195.4630  175.0910  139.4350 O   0  0  0  0  0  1  0  0  0  0  0  0
  188.0640  178.8030  138.0650 N   0  0  0  0  0  2  0  0  0  0  0  0
  185.0390  177.2420  135.6280 N   0  0  0  0  0  0  0  0  0  0  0  0
  184.8580  177.2750  136.9750 C   0  0  0  0  0  3  0  0  0  0  0  0
  185.8630  177.7920  137.7890 C   0  0  0  0  0  3  0  0  0  0  0  0
  187.0400  178.2650  137.2120 C   0  0  0  0  0  0  0  0  0  0  0  0
  187.1720  178.2060  135.8200 C   0  0  0  0  0  3  0  0  0  0  0  0
  186.1630  177.6950  135.0680 N   0  0  0  0  0  0  0  0  0  0  0  0
  190.6170  176.3540  142.5850 C   0  0  0  0  0  2  0  0  0  0  0  0
  191.4230  177.3910  143.3420 C   0  0  0  0  0  2  0  0  0  0  0  0
  191.6340  176.9270  144.7690 C   0  0  0  0  0  2  0  0  0  0  0  0
  189.4410  177.6120  145.8270 C   0  0  0  0  0  0  0  0  0  0  0  0
  190.3540  176.6050  145.3800 N   0  0  0  0  0  2  0  0  0  0  0  0
  189.7050  178.8330  145.6550 O   0  0  0  0  0  0  0  0  0  0  0  0
  188.1040  177.8370  147.9220 C   0  0  0  0  0  1  0  0  0  0  0  0
  188.1750  177.2310  146.5280 C   0  0  1  0  0  3  0  0  0  0  0  0
  185.1680  179.3030  145.5860 C   0  0  2  0  0  3  0  0  0  0  0  0
  185.7390  178.1180  146.3860 C   0  0  0  0  0  2  0  0  0  0  0  0
  186.9590  177.5640  145.7110 C   0  0  0  0  0  0  0  0  0  0  0  0
  183.9700  178.8950  144.8600 C   0  0  0  0  0  2  0  0  0  0  0  0
  186.9330  177.4150  144.3810 C   0  0  0  0  0  3  0  0  0  0  0  0
  185.6790  177.8060  143.6580 C   0  0  0  0  0  2  0  0  0  0  0  0
  185.2110  179.1270  144.1010 N   0  0  2  0  0  0  0  0  0  0  0  0
  1  4  1  0  0  0  0
  2  4  2  0  0  0  0
  2 25  1  0  0  0  0
  3  1  2  0  0  0  0
  5  3  1  0  0  0  0
  5  6  2  0  0  0  0
  6  2  1  0  0  0  0
  7 11  1  0  0  0  0
  8 11  1  0  0  0  0
  9  8  2  0  0  0  0
 10  9  1  0  0  0  0
 10  7  2  0  0  0  0
 11  5  1  1  0  0  0
 12  9  1  0  0  0  0
 13 12  1  0  0  0  0
 13 14  1  0  0  0  0
 14 15  1  0  0  0  0
 15 16  2  0  0  0  0
 15 17  1  0  0  0  0
 18  3  1  0  0  0  0
 19 20  1  0  0  0  0
 20 21  2  0  0  0  0
 22 21  1  0  0  0  0
 22 18  1  0  0  0  0
 23 22  2  0  0  0  0
 24 19  2  0  0  0  0
 24 23  1  0  0  0  0
 25 26  1  0  0  0  0
 26 27  1  0  0  0  0
 27 29  1  0  0  0  0
 28 32  1  0  0  0  0
 29 28  1  0  0  0  0
 30 28  2  0  0  0  0
 32 31  1  1  0  0  0
 33 36  1  1  0  0  0
 33 34  1  0  0  0  0
 35 34  1  0  0  0  0
 35 32  1  0  0  0  0
 37 35  2  0  0  0  0
 38 37  1  0  0  0  0
 39 38  1  1  0  0  0
 39 36  1  0  0  0  0
 39 33  1  0  0  0  0
M  END
>  <MODEL>
4

>  <REMARK>
 VINA RESULT:      -8.1      2.170      4.268
  Name = 
  13 active torsions:
  status: ('A' for Active; 'I' for Inactive)
    1  A    between atoms: C_6  and  C_33
    2  A    between atoms: C_7  and  C_31
    3  A    between atoms: C_8  and  C_22
    4  A    between atoms: C_11  and  N_35
    5  A    between atoms: C_13  and  C_31
    6  A    between atoms: N_15  and  C_16
    7  A    between atoms: N_15  and  C_21
    8  A    between atoms: C_18  and  N_25
    9  A    between atoms: C_18  and  C_34
   10  A    between atoms: C_20  and  C_23
   11  A    between atoms: C_22  and  C_34
   12  A    between atoms: C_29  and  C_33
   13  A    between atoms: C_29  and  N_35
                            x       y       z     vdW  Elec       q    Type
                         _______ _______ _______ _____ _____    ______ ____

>  <TORSDO>
F 13

$$$$
=
 OpenBabel10232412103D

 39 43  0  0  1  0  0  0  0  0999 V2000
  187.1520  178.0960  141.8370 C   0  0  0  0  0  3  0  0  0  0  0  0
  184.9450  178.4450  142.7610 C   0  0  0  0  0  0  0  0  0  0  0  0
  186.6960  178.4570  140.5600 C   0  0  0  0  0  0  0  0  0  0  0  0
  186.2850  178.0880  142.9300 C   0  0  0  0  0  3  0  0  0  0  0  0
  185.3430  178.8070  140.3890 C   0  0  0  0  0  0  0  0  0  0  0  0
  184.4750  178.7980  141.4950 C   0  0  0  0  0  3  0  0  0  0  0  0
  183.9420  180.3430  139.1040 N   0  0  0  0  0  0  0  0  0  0  0  0
  183.9660  178.1060  138.4430 C   0  0  0  0  0  3  0  0  0  0  0  0
  182.7840  178.6460  138.2170 C   0  0  0  0  0  0  0  0  0  0  0  0
  182.7800  180.0340  138.6340 C   0  0  0  0  0  3  0  0  0  0  0  0
  184.8280  179.1850  139.0270 C   0  0  2  0  0  3  0  0  0  0  0  0
  181.6770  177.9380  137.6610 N   0  0  0  0  0  2  0  0  0  0  0  0
  181.8380  177.0040  136.5580 C   0  0  0  0  0  2  0  0  0  0  0  0
  181.3980  175.6120  136.9800 C   0  0  0  0  0  2  0  0  0  0  0  0
  182.5540  174.6700  137.0370 C   0  0  0  0  0  0  0  0  0  0  0  0
  183.4490  174.7160  138.1000 O   0  0  0  0  0  1  0  0  0  0  0  0
  182.7360  173.8460  136.1020 O   0  0  0  0  0  0  0  0  0  0  0  0
  187.5760  178.4670  139.4210 N   0  0  0  0  0  2  0  0  0  0  0  0
  190.6170  175.7470  138.4810 N   0  0  0  0  0  0  0  0  0  0  0  0
  190.8050  176.6310  139.4960 C   0  0  0  0  0  3  0  0  0  0  0  0
  189.7970  177.5400  139.8110 C   0  0  0  0  0  3  0  0  0  0  0  0
  188.6100  177.5300  139.0790 C   0  0  0  0  0  0  0  0  0  0  0  0
  188.4710  176.5980  138.0450 C   0  0  0  0  0  3  0  0  0  0  0  0
  189.4830  175.7310  137.7770 N   0  0  0  0  0  0  0  0  0  0  0  0
  184.0150  178.4250  143.9230 C   0  0  0  0  0  2  0  0  0  0  0  0
  184.5130  179.3660  145.0040 C   0  0  0  0  0  2  0  0  0  0  0  0
  185.0860  178.5610  146.1520 C   0  0  0  0  0  2  0  0  0  0  0  0
  187.3890  177.9100  146.9730 C   0  0  0  0  0  0  0  0  0  0  0  0
  186.5210  178.7870  146.2490 N   0  0  0  0  0  2  0  0  0  0  0  0
  186.9340  176.8690  147.5180 O   0  0  0  0  0  0  0  0  0  0  0  0
  189.3040  178.1080  148.5610 C   0  0  0  0  0  1  0  0  0  0  0  0
  188.8440  178.2320  147.1160 C   0  0  1  0  0  3  0  0  0  0  0  0
  190.3200  177.3210  143.7680 C   0  0  2  0  0  3  0  0  0  0  0  0
  189.2000  177.1090  144.8030 C   0  0  0  0  0  2  0  0  0  0  0  0
  189.6940  177.4140  146.1860 C   0  0  0  0  0  0  0  0  0  0  0  0
  190.8490  176.0350  143.3240 C   0  0  0  0  0  2  0  0  0  0  0  0
  190.9070  176.9690  146.5360 C   0  0  0  0  0  3  0  0  0  0  0  0
  191.6850  176.1880  145.5210 C   0  0  0  0  0  2  0  0  0  0  0  0
  191.6730  176.8670  144.2180 N   0  0  2  0  0  0  0  0  0  0  0  0
  1  4  1  0  0  0  0
  2  4  2  0  0  0  0
  2 25  1  0  0  0  0
  3  1  2  0  0  0  0
  5  3  1  0  0  0  0
  5  6  2  0  0  0  0
  6  2  1  0  0  0  0
  8 11  1  0  0  0  0
  9  8  2  0  0  0  0
  9 10  1  0  0  0  0
 10  7  2  0  0  0  0
 11  7  1  0  0  0  0
 11  5  1  1  0  0  0
 12  9  1  0  0  0  0
 13 14  1  0  0  0  0
 13 12  1  0  0  0  0
 14 15  1  0  0  0  0
 15 16  1  0  0  0  0
 17 15  2  0  0  0  0
 18  3  1  0  0  0  0
 19 20  1  0  0  0  0
 20 21  2  0  0  0  0
 22 18  1  0  0  0  0
 22 21  1  0  0  0  0
 23 22  2  0  0  0  0
 24 23  1  0  0  0  0
 24 19  2  0  0  0  0
 25 26  1  0  0  0  0
 26 27  1  0  0  0  0
 27 29  1  0  0  0  0
 28 32  1  0  0  0  0
 28 30  2  0  0  0  0
 29 28  1  0  0  0  0
 32 31  1  1  0  0  0
 33 36  1  6  0  0  0
 33 39  1  0  0  0  0
 33 34  1  0  0  0  0
 34 35  1  0  0  0  0
 35 37  2  0  0  0  0
 35 32  1  0  0  0  0
 38 37  1  0  0  0  0
 39 36  1  6  0  0  0
 39 38  1  0  0  0  0
M  END
>  <MODEL>
5

>  <REMARK>
 VINA RESULT:      -7.9      3.017      5.824
  Name = 
  13 active torsions:
  status: ('A' for Active; 'I' for Inactive)
    1  A    between atoms: C_6  and  C_33
    2  A    between atoms: C_7  and  C_31
    3  A    between atoms: C_8  and  C_22
    4  A    between atoms: C_11  and  N_35
    5  A    between atoms: C_13  and  C_31
    6  A    between atoms: N_15  and  C_16
    7  A    between atoms: N_15  and  C_21
    8  A    between atoms: C_18  and  N_25
    9  A    between atoms: C_18  and  C_34
   10  A    between atoms: C_20  and  C_23
   11  A    between atoms: C_22  and  C_34
   12  A    between atoms: C_29  and  C_33
   13  A    between atoms: C_29  and  N_35
                            x       y       z     vdW  Elec       q    Type
                         _______ _______ _______ _____ _____    ______ ____

>  <TORSDO>
F 13

$$$$
=
 OpenBabel10232412103D

 39 43  0  0  1  0  0  0  0  0999 V2000
  185.4750  178.7530  140.6610 C   0  0  0  0  0  3  0  0  0  0  0  0
  187.8500  178.3960  140.9460 C   0  0  0  0  0  0  0  0  0  0  0  0
  185.5670  178.4200  139.3020 C   0  0  0  0  0  0  0  0  0  0  0  0
  186.6060  178.7430  141.4790 C   0  0  0  0  0  3  0  0  0  0  0  0
  186.8240  178.0800  138.7630 C   0  0  0  0  0  0  0  0  0  0  0  0
  187.9580  178.0710  139.5920 C   0  0  0  0  0  3  0  0  0  0  0  0
  186.8160  176.2930  137.0950 N   0  0  0  0  0  0  0  0  0  0  0  0
  188.3170  178.0520  136.7770 C   0  0  0  0  0  3  0  0  0  0  0  0
  188.8200  176.9210  136.3210 C   0  0  0  0  0  0  0  0  0  0  0  0
  187.8820  175.8360  136.5270 C   0  0  0  0  0  3  0  0  0  0  0  0
  186.9500  177.7320  137.3050 C   0  0  2  0  0  3  0  0  0  0  0  0
  190.1160  176.8050  135.7350 N   0  0  0  0  0  2  0  0  0  0  0  0
  191.1620  175.9960  136.3390 C   0  0  0  0  0  2  0  0  0  0  0  0
  191.5010  176.5240  137.7230 C   0  0  0  0  0  2  0  0  0  0  0  0
  192.9770  176.5660  137.9430 C   0  0  0  0  0  0  0  0  0  0  0  0
  193.8510  176.1800  136.9340 O   0  0  0  0  0  0  0  0  0  0  0  0
  193.4320  176.9280  139.0600 O   0  0  0  0  0  1  0  0  0  0  0  0
  184.4120  178.4280  138.4440 N   0  0  0  0  0  2  0  0  0  0  0  0
  181.5340  175.4280  137.9510 N   0  0  0  0  0  0  0  0  0  0  0  0
  181.9350  175.7660  139.2050 C   0  0  0  0  0  3  0  0  0  0  0  0
  182.8940  176.7630  139.3730 C   0  0  0  0  0  3  0  0  0  0  0  0
  183.4300  177.3970  138.2540 C   0  0  0  0  0  0  0  0  0  0  0  0
  182.9810  177.0080  136.9870 C   0  0  0  0  0  3  0  0  0  0  0  0
  182.0420  176.0320  136.8740 N   0  0  0  0  0  0  0  0  0  0  0  0
  189.0600  178.3970  141.8120 C   0  0  0  0  0  2  0  0  0  0  0  0
  189.9450  177.2140  141.4710 C   0  0  0  0  0  2  0  0  0  0  0  0
  190.7400  176.8050  142.6940 C   0  0  0  0  0  2  0  0  0  0  0  0
  189.8490  177.2990  145.0100 C   0  0  0  0  0  0  0  0  0  0  0  0
  189.8380  176.5300  143.8020 N   0  0  0  0  0  2  0  0  0  0  0  0
  190.6220  178.2870  145.1300 O   0  0  0  0  0  0  0  0  0  0  0  0
  189.7170  176.9430  147.4760 C   0  0  0  0  0  1  0  0  0  0  0  0
  188.9620  176.9230  146.1550 C   0  0  1  0  0  3  0  0  0  0  0  0
  185.4460  177.8720  145.1790 C   0  0  2  0  0  3  0  0  0  0  0  0
  186.9580  178.0430  144.9450 C   0  0  0  0  0  2  0  0  0  0  0  0
  187.7220  177.7690  146.2060 C   0  0  0  0  0  0  0  0  0  0  0  0
  184.7950  179.1750  145.2660 C   0  0  0  0  0  2  0  0  0  0  0  0
  187.2470  178.2670  147.3540 C   0  0  0  0  0  3  0  0  0  0  0  0
  185.9850  179.0730  147.2970 C   0  0  0  0  0  2  0  0  0  0  0  0
  184.9610  178.3850  146.4980 N   0  0  2  0  0  0  0  0  0  0  0  0
  1  4  1  0  0  0  0
  2  4  2  0  0  0  0
  2 25  1  0  0  0  0
  3  1  2  0  0  0  0
  5  3  1  0  0  0  0
  5  6  2  0  0  0  0
  6  2  1  0  0  0  0
  7 11  1  0  0  0  0
  8 11  1  0  0  0  0
  9 10  1  0  0  0  0
  9  8  2  0  0  0  0
 10  7  2  0  0  0  0
 11  5  1  1  0  0  0
 12  9  1  0  0  0  0
 12 13  1  0  0  0  0
 13 14  1  0  0  0  0
 14 15  1  0  0  0  0
 15 17  1  0  0  0  0
 16 15  2  0  0  0  0
 18  3  1  0  0  0  0
 19 20  1  0  0  0  0
 20 21  2  0  0  0  0
 22 18  1  0  0  0  0
 22 21  1  0  0  0  0
 23 22  2  0  0  0  0
 24 23  1  0  0  0  0
 24 19  2  0  0  0  0
 26 25  1  0  0  0  0
 26 27  1  0  0  0  0
 27 29  1  0  0  0  0
 28 30  2  0  0  0  0
 28 32  1  0  0  0  0
 29 28  1  0  0  0  0
 32 35  1  0  0  0  0
 32 31  1  1  0  0  0
 33 34  1  1  0  0  0
 33 36  1  0  0  0  0
 33 39  1  0  0  0  0
 34 35  1  0  0  0  0
 35 37  2  0  0  0  0
 38 37  1  0  0  0  0
 39 36  1  6  0  0  0
 39 38  1  0  0  0  0
M  END
>  <MODEL>
6

>  <REMARK>
 VINA RESULT:      -7.7      1.840      3.585
  Name = 
  13 active torsions:
  status: ('A' for Active; 'I' for Inactive)
    1  A    between atoms: C_6  and  C_33
    2  A    between atoms: C_7  and  C_31
    3  A    between atoms: C_8  and  C_22
    4  A    between atoms: C_11  and  N_35
    5  A    between atoms: C_13  and  C_31
    6  A    between atoms: N_15  and  C_16
    7  A    between atoms: N_15  and  C_21
    8  A    between atoms: C_18  and  N_25
    9  A    between atoms: C_18  and  C_34
   10  A    between atoms: C_20  and  C_23
   11  A    between atoms: C_22  and  C_34
   12  A    between atoms: C_29  and  C_33
   13  A    between atoms: C_29  and  N_35
                            x       y       z     vdW  Elec       q    Type
                         _______ _______ _______ _____ _____    ______ ____

>  <TORSDO>
F 13

$$$$
=
 OpenBabel10232412103D

 39 43  0  0  1  0  0  0  0  0999 V2000
  181.6640  178.9340  141.2210 C   0  0  0  0  0  3  0  0  0  0  0  0
  183.8630  178.5770  142.1610 C   0  0  0  0  0  0  0  0  0  0  0  0
  182.1920  178.9060  139.9220 C   0  0  0  0  0  0  0  0  0  0  0  0
  182.4910  178.7720  142.3340 C   0  0  0  0  0  3  0  0  0  0  0  0
  183.5780  178.7190  139.7490 C   0  0  0  0  0  0  0  0  0  0  0  0
  184.4050  178.5560  140.8740 C   0  0  0  0  0  3  0  0  0  0  0  0
  183.8700  177.4420  137.6870 N   0  0  0  0  0  0  0  0  0  0  0  0
  185.6680  178.7440  138.4060 C   0  0  0  0  0  3  0  0  0  0  0  0
  186.0960  177.6570  137.7940 C   0  0  0  0  0  0  0  0  0  0  0  0
  184.9710  176.8550  137.3540 C   0  0  0  0  0  3  0  0  0  0  0  0
  184.1700  178.6990  138.3670 C   0  0  2  0  0  3  0  0  0  0  0  0
  187.4740  177.3280  137.6230 N   0  0  0  0  0  2  0  0  0  0  0  0
  188.5240  178.3240  137.7660 C   0  0  0  0  0  2  0  0  0  0  0  0
  189.5020  177.9040  138.8510 C   0  0  0  0  0  2  0  0  0  0  0  0
  190.4370  176.8490  138.3620 C   0  0  0  0  0  0  0  0  0  0  0  0
  190.8560  175.8310  139.2100 O   0  0  0  0  0  1  0  0  0  0  0  0
  190.8710  176.8970  137.1810 O   0  0  0  0  0  0  0  0  0  0  0  0
  181.3540  179.0740  138.7650 N   0  0  0  0  0  2  0  0  0  0  0  0
  180.6820  182.4910  136.4410 N   0  0  0  0  0  0  0  0  0  0  0  0
  180.4750  181.2640  135.8950 C   0  0  0  0  0  3  0  0  0  0  0  0
  180.6990  180.1240  136.6640 C   0  0  0  0  0  3  0  0  0  0  0  0
  181.1350  180.2590  137.9810 C   0  0  0  0  0  0  0  0  0  0  0  0
  181.3320  181.5470  138.4910 C   0  0  0  0  0  3  0  0  0  0  0  0
  181.0980  182.6280  137.7020 N   0  0  0  0  0  0  0  0  0  0  0  0
  184.7490  178.4170  143.3470 C   0  0  0  0  0  2  0  0  0  0  0  0
  184.3890  179.4400  144.4070 C   0  0  0  0  0  2  0  0  0  0  0  0
  184.4330  178.7900  145.7740 C   0  0  0  0  0  2  0  0  0  0  0  0
  186.7330  177.9710  146.4390 C   0  0  0  0  0  0  0  0  0  0  0  0
  185.7390  179.0000  146.3810 N   0  0  0  0  0  2  0  0  0  0  0  0
  186.5180  176.8460  145.9130 O   0  0  0  0  0  0  0  0  0  0  0  0
  187.9950  177.6620  148.5700 C   0  0  0  0  0  1  0  0  0  0  0  0
  188.0280  178.2080  147.1500 C   0  0  1  0  0  3  0  0  0  0  0  0
  190.7140  178.3680  144.5090 C   0  0  2  0  0  3  0  0  0  0  0  0
  189.2890  177.9330  144.8980 C   0  0  0  0  0  2  0  0  0  0  0  0
  189.2000  177.6780  146.3740 C   0  0  0  0  0  0  0  0  0  0  0  0
  191.4190  177.2680  143.8570 C   0  0  0  0  0  2  0  0  0  0  0  0
  190.1970  177.0070  146.9610 C   0  0  0  0  0  3  0  0  0  0  0  0
  191.3340  176.5480  146.0990 C   0  0  0  0  0  2  0  0  0  0  0  0
  191.8030  177.6370  145.2300 N   0  0  2  0  0  0  0  0  0  0  0  0
  1  4  1  0  0  0  0
  2  4  2  0  0  0  0
  2 25  1  0  0  0  0
  3  1  2  0  0  0  0
  5  3  1  0  0  0  0
  5  6  2  0  0  0  0
  6  2  1  0  0  0  0
  7 11  1  0  0  0  0
  9  8  2  0  0  0  0
 10  7  2  0  0  0  0
 10  9  1  0  0  0  0
 11  8  1  0  0  0  0
 11  5  1  1  0  0  0
 12 13  1  0  0  0  0
 12  9  1  0  0  0  0
 13 14  1  0  0  0  0
 15 14  1  0  0  0  0
 15 16  1  0  0  0  0
 17 15  2  0  0  0  0
 18  3  1  0  0  0  0
 19 24  1  0  0  0  0
 20 19  2  0  0  0  0
 20 21  1  0  0  0  0
 21 22  2  0  0  0  0
 22 23  1  0  0  0  0
 22 18  1  0  0  0  0
 24 23  2  0  0  0  0
 25 26  1  0  0  0  0
 26 27  1  0  0  0  0
 27 29  1  0  0  0  0
 28 32  1  0  0  0  0
 29 28  1  0  0  0  0
 30 28  2  0  0  0  0
 32 31  1  1  0  0  0
 33 36  1  6  0  0  0
 33 34  1  0  0  0  0
 33 39  1  0  0  0  0
 34 35  1  0  0  0  0
 35 37  2  0  0  0  0
 35 32  1  0  0  0  0
 38 37  1  0  0  0  0
 39 36  1  6  0  0  0
 39 38  1  0  0  0  0
M  END
>  <MODEL>
7

>  <REMARK>
 VINA RESULT:      -7.7      2.171      3.507
  Name = 
  13 active torsions:
  status: ('A' for Active; 'I' for Inactive)
    1  A    between atoms: C_6  and  C_33
    2  A    between atoms: C_7  and  C_31
    3  A    between atoms: C_8  and  C_22
    4  A    between atoms: C_11  and  N_35
    5  A    between atoms: C_13  and  C_31
    6  A    between atoms: N_15  and  C_16
    7  A    between atoms: N_15  and  C_21
    8  A    between atoms: C_18  and  N_25
    9  A    between atoms: C_18  and  C_34
   10  A    between atoms: C_20  and  C_23
   11  A    between atoms: C_22  and  C_34
   12  A    between atoms: C_29  and  C_33
   13  A    between atoms: C_29  and  N_35
                            x       y       z     vdW  Elec       q    Type
                         _______ _______ _______ _____ _____    ______ ____

>  <TORSDO>
F 13

$$$$
=
 OpenBabel10232412103D

 39 43  0  0  1  0  0  0  0  0999 V2000
  192.4440  176.9180  139.4110 C   0  0  0  0  0  3  0  0  0  0  0  0
  190.6220  177.4870  140.8950 C   0  0  0  0  0  0  0  0  0  0  0  0
  191.5510  176.7630  138.3410 C   0  0  0  0  0  0  0  0  0  0  0  0
  191.9860  177.2770  140.6800 C   0  0  0  0  0  3  0  0  0  0  0  0
  190.1740  176.9660  138.5620 C   0  0  0  0  0  0  0  0  0  0  0  0
  189.7200  177.3270  139.8410 C   0  0  0  0  0  3  0  0  0  0  0  0
  189.0950  178.0090  136.6340 N   0  0  0  0  0  0  0  0  0  0  0  0
  187.8020  176.5710  137.9390 C   0  0  0  0  0  3  0  0  0  0  0  0
  187.0600  177.5400  137.4390 C   0  0  0  0  0  0  0  0  0  0  0  0
  187.8740  178.4290  136.6330 C   0  0  0  0  0  3  0  0  0  0  0  0
  189.1960  176.7910  137.4330 C   0  0  2  0  0  3  0  0  0  0  0  0
  185.6630  177.6850  137.6900 N   0  0  0  0  0  2  0  0  0  0  0  0
  185.1340  178.7870  138.4790 C   0  0  0  0  0  2  0  0  0  0  0  0
  184.1600  178.2660  139.5220 C   0  0  0  0  0  2  0  0  0  0  0  0
  184.5250  178.7380  140.8900 C   0  0  0  0  0  0  0  0  0  0  0  0
  183.7930  178.3240  141.9970 O   0  0  0  0  0  1  0  0  0  0  0  0
  185.4850  179.5390  141.0400 O   0  0  0  0  0  0  0  0  0  0  0  0
  192.0070  176.3910  137.0280 N   0  0  0  0  0  2  0  0  0  0  0  0
  195.6210  174.5890  135.9230 N   0  0  0  0  0  0  0  0  0  0  0  0
  194.6150  173.8180  136.4150 C   0  0  0  0  0  3  0  0  0  0  0  0
  193.4120  174.4140  136.7860 C   0  0  0  0  0  3  0  0  0  0  0  0
  193.2570  175.7920  136.6490 C   0  0  0  0  0  0  0  0  0  0  0  0
  194.3250  176.5370  136.1380 C   0  0  0  0  0  3  0  0  0  0  0  0
  195.4790  175.9100  135.7890 N   0  0  0  0  0  0  0  0  0  0  0  0
  190.1280  177.8570  142.2500 C   0  0  0  0  0  2  0  0  0  0  0  0
  190.9110  177.1070  143.3110 C   0  0  0  0  0  2  0  0  0  0  0  0
  191.2130  178.0350  144.4690 C   0  0  0  0  0  2  0  0  0  0  0  0
  189.8940  177.2870  146.4940 C   0  0  0  0  0  0  0  0  0  0  0  0
  190.0560  178.1270  145.3470 N   0  0  0  0  0  2  0  0  0  0  0  0
  190.7920  176.4610  146.8120 O   0  0  0  0  0  0  0  0  0  0  0  0
  188.7700  178.3860  148.4320 C   0  0  0  0  0  1  0  0  0  0  0  0
  188.6460  177.3590  147.3160 C   0  0  1  0  0  3  0  0  0  0  0  0
  185.5970  179.2790  146.2020 C   0  0  2  0  0  3  0  0  0  0  0  0
  186.1900  178.1710  147.0920 C   0  0  0  0  0  2  0  0  0  0  0  0
  187.4290  177.5990  146.4690 C   0  0  0  0  0  0  0  0  0  0  0  0
  184.4160  178.7870  145.5010 C   0  0  0  0  0  2  0  0  0  0  0  0
  187.4170  177.3500  145.1540 C   0  0  0  0  0  3  0  0  0  0  0  0
  186.1610  177.6540  144.3960 C   0  0  0  0  0  2  0  0  0  0  0  0
  185.6560  178.9920  144.7340 N   0  0  2  0  0  0  0  0  0  0  0  0
  1  4  1  0  0  0  0
  2 25  1  0  0  0  0
  3  5  1  0  0  0  0
  3  1  2  0  0  0  0
  4  2  2  0  0  0  0
  5  6  2  0  0  0  0
  6  2  1  0  0  0  0
  7 11  1  0  0  0  0
  9 12  1  0  0  0  0
  9  8  2  0  0  0  0
 10  7  2  0  0  0  0
 10  9  1  0  0  0  0
 11  8  1  0  0  0  0
 11  5  1  1  0  0  0
 12 13  1  0  0  0  0
 13 14  1  0  0  0  0
 14 15  1  0  0  0  0
 15 17  2  0  0  0  0
 15 16  1  0  0  0  0
 18  3  1  0  0  0  0
 19 20  1  0  0  0  0
 20 21  2  0  0  0  0
 22 21  1  0  0  0  0
 22 18  1  0  0  0  0
 23 22  2  0  0  0  0
 24 19  2  0  0  0  0
 24 23  1  0  0  0  0
 25 26  1  0  0  0  0
 26 27  1  0  0  0  0
 27 29  1  0  0  0  0
 28 30  2  0  0  0  0
 28 32  1  0  0  0  0
 29 28  1  0  0  0  0
 32 31  1  1  0  0  0
 33 36  1  1  0  0  0
 33 34  1  0  0  0  0
 35 34  1  0  0  0  0
 35 32  1  0  0  0  0
 37 35  2  0  0  0  0
 38 37  1  0  0  0  0
 39 38  1  1  0  0  0
 39 36  1  0  0  0  0
 39 33  1  0  0  0  0
M  END
>  <MODEL>
8

>  <REMARK>
 VINA RESULT:      -7.6      2.929      7.405
  Name = 
  13 active torsions:
  status: ('A' for Active; 'I' for Inactive)
    1  A    between atoms: C_6  and  C_33
    2  A    between atoms: C_7  and  C_31
    3  A    between atoms: C_8  and  C_22
    4  A    between atoms: C_11  and  N_35
    5  A    between atoms: C_13  and  C_31
    6  A    between atoms: N_15  and  C_16
    7  A    between atoms: N_15  and  C_21
    8  A    between atoms: C_18  and  N_25
    9  A    between atoms: C_18  and  C_34
   10  A    between atoms: C_20  and  C_23
   11  A    between atoms: C_22  and  C_34
   12  A    between atoms: C_29  and  C_33
   13  A    between atoms: C_29  and  N_35
                            x       y       z     vdW  Elec       q    Type
                         _______ _______ _______ _____ _____    ______ ____

>  <TORSDO>
F 13

$$$$
=
 OpenBabel10232412103D

 39 43  0  0  1  0  0  0  0  0999 V2000
  186.2640  178.7150  141.5730 C   0  0  0  0  0  3  0  0  0  0  0  0
  184.6310  178.6420  143.3540 C   0  0  0  0  0  0  0  0  0  0  0  0
  185.2440  178.7940  140.6130 C   0  0  0  0  0  0  0  0  0  0  0  0
  185.9630  178.6390  142.9330 C   0  0  0  0  0  3  0  0  0  0  0  0
  183.9010  178.7870  141.0380 C   0  0  0  0  0  0  0  0  0  0  0  0
  183.6050  178.7100  142.4090 C   0  0  0  0  0  3  0  0  0  0  0  0
  181.5130  179.1530  140.6700 N   0  0  0  0  0  0  0  0  0  0  0  0
  182.5640  177.5310  139.3620 C   0  0  0  0  0  3  0  0  0  0  0  0
  181.3120  177.1940  139.6060 C   0  0  0  0  0  0  0  0  0  0  0  0
  180.6700  178.2060  140.4220 C   0  0  0  0  0  3  0  0  0  0  0  0
  182.7900  178.8560  140.0270 C   0  0  2  0  0  3  0  0  0  0  0  0
  180.7060  175.9890  139.1420 N   0  0  0  0  0  2  0  0  0  0  0  0
  181.0410  175.4090  137.8510 C   0  0  0  0  0  2  0  0  0  0  0  0
  180.7840  173.9110  137.8650 C   0  0  0  0  0  2  0  0  0  0  0  0
  181.4940  173.2270  136.7450 C   0  0  0  0  0  0  0  0  0  0  0  0
  181.3300  173.6630  135.4350 O   0  0  0  0  0  0  0  0  0  0  0  0
  182.2240  172.2300  136.9840 O   0  0  0  0  0  1  0  0  0  0  0  0
  185.5380  178.8710  139.2060 N   0  0  0  0  0  2  0  0  0  0  0  0
  188.1290  176.4500  136.9820 N   0  0  0  0  0  0  0  0  0  0  0  0
  188.6180  177.1560  138.0350 C   0  0  0  0  0  3  0  0  0  0  0  0
  187.7600  177.9650  138.7760 C   0  0  0  0  0  3  0  0  0  0  0  0
  186.4120  178.0390  138.4270 C   0  0  0  0  0  0  0  0  0  0  0  0
  185.9640  177.2900  137.3330 C   0  0  0  0  0  3  0  0  0  0  0  0
  186.8400  176.5150  136.6420 N   0  0  0  0  0  0  0  0  0  0  0  0
  184.3060  178.5470  144.8030 C   0  0  0  0  0  2  0  0  0  0  0  0
  185.4340  179.1350  145.6280 C   0  0  0  0  0  2  0  0  0  0  0  0
  186.1580  178.0250  146.3630 C   0  0  0  0  0  2  0  0  0  0  0  0
  188.5750  177.4680  146.8620 C   0  0  0  0  0  0  0  0  0  0  0  0
  187.5710  178.0410  146.0170 N   0  0  0  0  0  2  0  0  0  0  0  0
  188.2510  176.8790  147.9280 O   0  0  0  0  0  0  0  0  0  0  0  0
  190.8610  176.5310  147.2120 C   0  0  0  0  0  1  0  0  0  0  0  0
  190.0230  177.5860  146.5050 C   0  0  1  0  0  3  0  0  0  0  0  0
  189.1910  176.6190  142.9570 C   0  0  2  0  0  3  0  0  0  0  0  0
  189.9750  176.3090  144.2460 C   0  0  0  0  0  2  0  0  0  0  0  0
  190.2380  177.5680  145.0180 C   0  0  0  0  0  0  0  0  0  0  0  0
  190.0760  176.5540  141.7980 C   0  0  0  0  0  2  0  0  0  0  0  0
  190.6290  178.6550  144.3420 C   0  0  0  0  0  3  0  0  0  0  0  0
  190.7840  178.5360  142.8560 C   0  0  0  0  0  2  0  0  0  0  0  0
  189.6150  177.8740  142.2600 N   0  0  2  0  0  0  0  0  0  0  0  0
  1  4  1  0  0  0  0
  2 25  1  0  0  0  0
  3  5  1  0  0  0  0
  3  1  2  0  0  0  0
  4  2  2  0  0  0  0
  5  6  2  0  0  0  0
  6  2  1  0  0  0  0
  8  9  2  0  0  0  0
  8 11  1  0  0  0  0
  9 10  1  0  0  0  0
 10  7  2  0  0  0  0
 11  7  1  0  0  0  0
 11  5  1  1  0  0  0
 12  9  1  0  0  0  0
 13 14  1  0  0  0  0
 13 12  1  0  0  0  0
 15 17  1  0  0  0  0
 15 14  1  0  0  0  0
 16 15  2  0  0  0  0
 18  3  1  0  0  0  0
 19 20  1  0  0  0  0
 20 21  2  0  0  0  0
 22 21  1  0  0  0  0
 22 18  1  0  0  0  0
 23 22  2  0  0  0  0
 24 19  2  0  0  0  0
 24 23  1  0  0  0  0
 25 26  1  0  0  0  0
 26 27  1  0  0  0  0
 28 30  2  0  0  0  0
 29 27  1  0  0  0  0
 29 28  1  0  0  0  0
 32 28  1  0  0  0  0
 32 31  1  1  0  0  0
 33 36  1  6  0  0  0
 33 34  1  0  0  0  0
 34 35  1  0  0  0  0
 35 32  1  0  0  0  0
 37 35  2  0  0  0  0
 38 37  1  0  0  0  0
 39 36  1  6  0  0  0
 39 38  1  0  0  0  0
 39 33  1  0  0  0  0
M  END
>  <MODEL>
9

>  <REMARK>
 VINA RESULT:      -7.5      3.592      5.844
  Name = 
  13 active torsions:
  status: ('A' for Active; 'I' for Inactive)
    1  A    between atoms: C_6  and  C_33
    2  A    between atoms: C_7  and  C_31
    3  A    between atoms: C_8  and  C_22
    4  A    between atoms: C_11  and  N_35
    5  A    between atoms: C_13  and  C_31
    6  A    between atoms: N_15  and  C_16
    7  A    between atoms: N_15  and  C_21
    8  A    between atoms: C_18  and  N_25
    9  A    between atoms: C_18  and  C_34
   10  A    between atoms: C_20  and  C_23
   11  A    between atoms: C_22  and  C_34
   12  A    between atoms: C_29  and  C_33
   13  A    between atoms: C_29  and  N_35
                            x       y       z     vdW  Elec       q    Type
                         _______ _______ _______ _____ _____    ______ ____

>  <TORSDO>
F 13

$$$$
