=
 OpenBabel10232407433D

 36 38  0  0  1  0  0  0  0  0999 V2000
  192.4390  177.0800  141.1310 O   0  0  0  0  0  0  0  0  0  0  0  0
  190.7800  177.8840  142.6190 C   0  0  0  0  0  0  0  0  0  0  0  0
  191.2360  177.4230  141.2880 C   0  0  0  0  0  0  0  0  0  0  0  0
  188.8200  177.5100  140.5770 C   0  0  1  0  0  3  0  0  0  0  0  0
  190.2860  177.4040  140.1020 C   0  0  2  0  0  3  0  0  0  0  0  0
  188.6630  178.6380  141.5950 C   0  0  0  0  0  2  0  0  0  0  0  0
  189.5640  178.4140  142.7690 C   0  0  0  0  0  3  0  0  0  0  0  0
  190.0560  176.4460  137.9390 C   0  0  0  0  0  2  0  0  0  0  0  0
  191.4690  176.4650  138.2730 C   0  0  1  0  0  3  0  0  0  0  0  0
  190.4760  176.1760  139.3260 N   0  0  1  0  0  0  0  0  0  0  0  0
  192.1130  175.1670  137.8360 C   0  0  0  0  0  2  0  0  0  0  0  0
  193.3570  175.4660  137.0260 C   0  0  0  0  0  2  0  0  0  0  0  0
  194.5000  175.5660  137.9140 N   0  0  0  0  0  2  0  0  0  0  0  0
  195.4780  174.5960  137.4450 C   0  0  0  0  0  2  0  0  0  0  0  0
  196.1300  173.8710  138.6180 C   0  0  2  0  0  3  0  0  0  0  0  0
  195.3790  172.7440  138.9590 O   0  0  0  0  0  1  0  0  0  0  0  0
  196.2730  174.7800  139.8320 C   0  0  0  0  0  2  0  0  0  0  0  0
  198.0110  175.1380  141.4400 O   0  0  0  0  0  1  0  0  0  0  0  0
  197.7290  175.1490  140.0730 C   0  0  0  0  0  2  0  0  0  0  0  0
  187.8850  177.7660  139.4060 C   0  0  0  0  0  2  0  0  0  0  0  0
  186.7320  178.5400  139.8470 N   0  0  0  0  0  2  0  0  0  0  0  0
  185.5600  178.7840  139.0580 C   0  0  0  0  0  0  0  0  0  0  0  0
  184.7280  179.6360  139.4650 O   0  0  0  0  0  0  0  0  0  0  0  0
  185.3010  178.1050  137.8200 N   0  0  0  0  0  2  0  0  0  0  0  0
  185.9800  176.9010  137.3660 C   0  0  0  0  0  2  0  0  0  0  0  0
  185.8730  176.7910  135.9220 N   0  0  0  0  0  1  0  0  0  0  0  0
  191.6580  177.7390  143.8200 C   0  0  0  0  0  2  0  0  0  0  0  0
  188.7310  177.3930  146.2060 C   0  0  0  0  0  0  0  0  0  0  0  0
  189.3480  176.8020  147.3150 C   0  0  0  0  0  3  0  0  0  0  0  0
  189.4860  177.7050  145.0690 C   0  0  0  0  0  3  0  0  0  0  0  0
  191.4680  176.8160  146.1440 C   0  0  0  0  0  3  0  0  0  0  0  0
  190.7160  176.5120  147.2820 C   0  0  0  0  0  3  0  0  0  0  0  0
  190.8550  177.4130  145.0350 C   0  0  0  0  0  0  0  0  0  0  0  0
  187.2810  177.7220  146.2490 C   0  0  0  0  0  2  0  0  0  0  0  0
  186.7100  177.6030  144.9170 N   0  0  0  0  0  2  0  0  0  0  0  0
  185.5480  178.4710  144.8810 C   0  0  0  0  0  1  0  0  0  0  0  0
  1  3  2  0  0  0  0
  2  7  2  0  0  0  0
  2 27  1  0  0  0  0
  3  2  1  0  0  0  0
  4 20  1  6  0  0  0
  4  6  1  0  0  0  0
  5  4  1  0  0  0  0
  5  3  1  1  0  0  0
  6  7  1  0  0  0  0
  8  9  1  0  0  0  0
  9 11  1  6  0  0  0
  9 10  1  0  0  0  0
 10  8  1  6  0  0  0
 10  5  1  0  0  0  0
 12 11  1  0  0  0  0
 12 13  1  0  0  0  0
 14 13  1  0  0  0  0
 14 15  1  0  0  0  0
 15 16  1  1  0  0  0
 15 17  1  0  0  0  0
 17 19  1  0  0  0  0
 19 18  1  0  0  0  0
 20 21  1  0  0  0  0
 22 23  2  0  0  0  0
 22 21  1  0  0  0  0
 24 22  1  0  0  0  0
 25 24  1  0  0  0  0
 26 25  1  0  0  0  0
 27 33  1  0  0  0  0
 28 34  1  0  0  0  0
 28 29  1  0  0  0  0
 30 28  2  0  0  0  0
 31 32  1  0  0  0  0
 32 29  2  0  0  0  0
 33 30  1  0  0  0  0
 33 31  2  0  0  0  0
 35 34  1  0  0  0  0
 36 35  1  0  0  0  0
M  END
>  <MODEL>
1

>  <REMARK>
 VINA RESULT:      -7.8      0.000      0.000
  Name = 
  15 active torsions:
  status: ('A' for Active; 'I' for Inactive)
    1  A    between atoms: N_1  and  C_24
    2  A    between atoms: N_1  and  C_29
    3  A    between atoms: C_3  and  C_20
    4  A    between atoms: C_4  and  C_24
    5  A    between atoms: C_4  and  C_27
    6  A    between atoms: N_5  and  C_7
    7  A    between atoms: C_6  and  C_32
    8  A    between atoms: C_7  and  C_23
    9  A    between atoms: N_10  and  C_32
   10  A    between atoms: C_14  and  C_27
   11  A    between atoms: C_16  and  C_29
   12  A    between atoms: C_16  and  C_33
   13  A    between atoms: C_20  and  C_35
   14  A    between atoms: N_22  and  C_31
   15  A    between atoms: C_25  and  N_34
                            x       y       z     vdW  Elec       q    Type
                         _______ _______ _______ _____ _____    ______ ____

>  <TORSDO>
F 15

$$$$
=
 OpenBabel10232407433D

 36 38  0  0  1  0  0  0  0  0999 V2000
  187.7820  177.9770  140.5870 O   0  0  0  0  0  0  0  0  0  0  0  0
  186.0760  178.6040  142.1060 C   0  0  0  0  0  0  0  0  0  0  0  0
  187.3900  178.0020  141.7840 C   0  0  0  0  0  0  0  0  0  0  0  0
  187.7640  177.8200  144.2690 C   0  0  1  0  0  3  0  0  0  0  0  0
  188.2450  177.3720  142.8710 C   0  0  2  0  0  3  0  0  0  0  0  0
  186.2480  177.6790  144.3900 C   0  0  0  0  0  2  0  0  0  0  0  0
  185.5620  178.4880  143.3320 C   0  0  0  0  0  3  0  0  0  0  0  0
  190.4820  176.6430  143.2080 C   0  0  0  0  0  2  0  0  0  0  0  0
  190.2520  176.7390  141.7780 C   0  0  1  0  0  3  0  0  0  0  0  0
  189.6500  177.7400  142.6800 N   0  0  1  0  0  0  0  0  0  0  0  0
  191.4640  177.3500  141.1070 C   0  0  0  0  0  2  0  0  0  0  0  0
  191.3030  177.2750  139.6030 C   0  0  0  0  0  2  0  0  0  0  0  0
  190.8210  175.9570  139.2350 N   0  0  0  0  0  2  0  0  0  0  0  0
  190.6480  175.9650  137.7900 C   0  0  0  0  0  2  0  0  0  0  0  0
  189.2190  176.3430  137.4160 C   0  0  2  0  0  3  0  0  0  0  0  0
  188.5880  175.2650  136.7910 O   0  0  0  0  0  1  0  0  0  0  0  0
  189.1790  177.5610  136.5030 C   0  0  0  0  0  2  0  0  0  0  0  0
  187.6300  179.3530  136.8550 O   0  0  0  0  0  1  0  0  0  0  0  0
  188.8480  178.8230  137.2840 C   0  0  0  0  0  2  0  0  0  0  0  0
  188.4260  176.9940  145.3630 C   0  0  0  0  0  2  0  0  0  0  0  0
  188.0040  177.4710  146.6730 N   0  0  0  0  0  2  0  0  0  0  0  0
  188.8340  177.4970  147.8410 C   0  0  0  0  0  0  0  0  0  0  0  0
  188.2990  177.7310  148.9550 O   0  0  0  0  0  0  0  0  0  0  0  0
  190.2490  177.2580  147.7930 N   0  0  0  0  0  2  0  0  0  0  0  0
  191.0630  177.2780  146.5880 C   0  0  0  0  0  2  0  0  0  0  0  0
  192.0530  176.2180  146.6460 N   0  0  0  0  0  1  0  0  0  0  0  0
  185.3160  179.3740  141.0740 C   0  0  0  0  0  2  0  0  0  0  0  0
  184.0110  177.4790  138.0590 C   0  0  0  0  0  0  0  0  0  0  0  0
  182.9530  176.7580  138.6250 C   0  0  0  0  0  3  0  0  0  0  0  0
  184.7770  178.3380  138.8570 C   0  0  0  0  0  3  0  0  0  0  0  0
  183.4380  177.7370  140.7870 C   0  0  0  0  0  3  0  0  0  0  0  0
  182.6690  176.8860  139.9880 C   0  0  0  0  0  3  0  0  0  0  0  0
  184.4940  178.4640  140.2220 C   0  0  0  0  0  0  0  0  0  0  0  0
  184.3000  177.3600  136.6050 C   0  0  0  0  0  2  0  0  0  0  0  0
  185.5350  176.6190  136.4070 N   0  0  0  0  0  2  0  0  0  0  0  0
  185.8650  176.7220  134.9980 C   0  0  0  0  0  1  0  0  0  0  0  0
  1  3  2  0  0  0  0
  2  7  2  0  0  0  0
  3  2  1  0  0  0  0
  4  6  1  0  0  0  0
  4 20  1  1  0  0  0
  5  3  1  6  0  0  0
  5  4  1  0  0  0  0
  7  6  1  0  0  0  0
  9 11  1  6  0  0  0
  9 10  1  0  0  0  0
  9  8  1  0  0  0  0
 10  5  1  0  0  0  0
 10  8  1  1  0  0  0
 12 11  1  0  0  0  0
 13 12  1  0  0  0  0
 14 13  1  0  0  0  0
 15 16  1  6  0  0  0
 15 14  1  0  0  0  0
 17 19  1  0  0  0  0
 17 15  1  0  0  0  0
 18 19  1  0  0  0  0
 20 21  1  0  0  0  0
 21 22  1  0  0  0  0
 22 23  2  0  0  0  0
 24 22  1  0  0  0  0
 25 26  1  0  0  0  0
 25 24  1  0  0  0  0
 27  2  1  0  0  0  0
 28 29  2  0  0  0  0
 28 30  1  0  0  0  0
 29 32  1  0  0  0  0
 30 33  2  0  0  0  0
 32 31  2  0  0  0  0
 33 31  1  0  0  0  0
 33 27  1  0  0  0  0
 34 28  1  0  0  0  0
 35 34  1  0  0  0  0
 36 35  1  0  0  0  0
M  END
>  <MODEL>
2

>  <REMARK>
 VINA RESULT:      -7.7      3.465      7.846
  Name = 
  15 active torsions:
  status: ('A' for Active; 'I' for Inactive)
    1  A    between atoms: N_1  and  C_24
    2  A    between atoms: N_1  and  C_29
    3  A    between atoms: C_3  and  C_20
    4  A    between atoms: C_4  and  C_24
    5  A    between atoms: C_4  and  C_27
    6  A    between atoms: N_5  and  C_7
    7  A    between atoms: C_6  and  C_32
    8  A    between atoms: C_7  and  C_23
    9  A    between atoms: N_10  and  C_32
   10  A    between atoms: C_14  and  C_27
   11  A    between atoms: C_16  and  C_29
   12  A    between atoms: C_16  and  C_33
   13  A    between atoms: C_20  and  C_35
   14  A    between atoms: N_22  and  C_31
   15  A    between atoms: C_25  and  N_34
                            x       y       z     vdW  Elec       q    Type
                         _______ _______ _______ _____ _____    ______ ____

>  <TORSDO>
F 15

$$$$
=
 OpenBabel10232407433D

 36 38  0  0  1  0  0  0  0  0999 V2000
  187.3080  178.5160  139.8660 O   0  0  0  0  0  0  0  0  0  0  0  0
  189.2770  177.7770  138.7740 C   0  0  0  0  0  0  0  0  0  0  0  0
  188.4600  178.0190  139.9860 C   0  0  0  0  0  0  0  0  0  0  0  0
  190.2560  176.8070  141.2740 C   0  0  1  0  0  3  0  0  0  0  0  0
  189.0130  177.7210  141.3690 C   0  0  2  0  0  3  0  0  0  0  0  0
  191.2290  177.3290  140.2190 C   0  0  0  0  0  2  0  0  0  0  0  0
  190.5570  177.4150  138.8840 C   0  0  0  0  0  3  0  0  0  0  0  0
  188.3640  177.2580  143.6080 C   0  0  0  0  0  2  0  0  0  0  0  0
  187.3670  178.1370  143.0250 C   0  0  1  0  0  3  0  0  0  0  0  0
  187.9830  177.0840  142.1940 N   0  0  1  0  0  0  0  0  0  0  0  0
  185.9830  177.6860  143.4410 C   0  0  0  0  0  2  0  0  0  0  0  0
  185.0780  178.8920  143.5810 C   0  0  0  0  0  2  0  0  0  0  0  0
  185.1840  179.4220  144.9270 N   0  0  0  0  0  2  0  0  0  0  0  0
  185.0360  178.2940  145.8330 C   0  0  0  0  0  2  0  0  0  0  0  0
  185.8270  178.5210  147.1180 C   0  0  2  0  0  3  0  0  0  0  0  0
  185.8660  179.8830  147.4200 O   0  0  0  0  0  1  0  0  0  0  0  0
  187.2460  177.9770  147.0090 C   0  0  0  0  0  2  0  0  0  0  0  0
  189.1290  178.3890  148.4290 O   0  0  0  0  0  1  0  0  0  0  0  0
  187.8690  177.7900  148.3830 C   0  0  0  0  0  2  0  0  0  0  0  0
  190.9740  176.7240  142.6120 C   0  0  0  0  0  2  0  0  0  0  0  0
  191.5580  178.0150  142.9470 N   0  0  0  0  0  2  0  0  0  0  0  0
  191.7830  178.4920  144.2800 C   0  0  0  0  0  0  0  0  0  0  0  0
  192.0950  179.6990  144.4430 O   0  0  0  0  0  0  0  0  0  0  0  0
  191.6570  177.6500  145.4360 N   0  0  0  0  0  2  0  0  0  0  0  0
  191.6090  176.1970  145.4150 C   0  0  0  0  0  2  0  0  0  0  0  0
  192.2020  175.6670  146.6300 N   0  0  0  0  0  1  0  0  0  0  0  0
  188.6760  177.9040  137.4110 C   0  0  0  0  0  2  0  0  0  0  0  0
  186.7470  174.7090  136.7350 C   0  0  0  0  0  0  0  0  0  0  0  0
  187.6000  174.0570  135.8370 C   0  0  0  0  0  3  0  0  0  0  0  0
  187.1010  175.9610  137.2530 C   0  0  0  0  0  3  0  0  0  0  0  0
  189.1510  175.9140  135.9590 C   0  0  0  0  0  3  0  0  0  0  0  0
  188.8000  174.6610  135.4480 C   0  0  0  0  0  3  0  0  0  0  0  0
  188.3020  176.5660  136.8630 C   0  0  0  0  0  0  0  0  0  0  0  0
  185.4800  174.0580  137.1650 C   0  0  0  0  0  2  0  0  0  0  0  0
  184.3500  174.9020  136.8160 N   0  0  0  0  0  2  0  0  0  0  0  0
  183.5150  174.9930  137.9990 C   0  0  0  0  0  1  0  0  0  0  0  0
  1  3  2  0  0  0  0
  2  7  2  0  0  0  0
  2  3  1  0  0  0  0
  4  5  1  0  0  0  0
  4 20  1  1  0  0  0
  5  3  1  6  0  0  0
  5 10  1  0  0  0  0
  6  4  1  0  0  0  0
  7  6  1  0  0  0  0
  9 11  1  1  0  0  0
  9  8  1  0  0  0  0
 10  9  1  0  0  0  0
 10  8  1  1  0  0  0
 11 12  1  0  0  0  0
 12 13  1  0  0  0  0
 13 14  1  0  0  0  0
 14 15  1  0  0  0  0
 15 16  1  6  0  0  0
 17 15  1  0  0  0  0
 17 19  1  0  0  0  0
 19 18  1  0  0  0  0
 20 21  1  0  0  0  0
 21 22  1  0  0  0  0
 22 23  2  0  0  0  0
 22 24  1  0  0  0  0
 25 24  1  0  0  0  0
 25 26  1  0  0  0  0
 27  2  1  0  0  0  0
 28 34  1  0  0  0  0
 28 30  1  0  0  0  0
 29 28  2  0  0  0  0
 31 33  1  0  0  0  0
 32 29  1  0  0  0  0
 32 31  2  0  0  0  0
 33 30  2  0  0  0  0
 33 27  1  0  0  0  0
 35 34  1  0  0  0  0
 35 36  1  0  0  0  0
M  END
>  <MODEL>
3

>  <REMARK>
 VINA RESULT:      -7.7      3.688      9.250
  Name = 
  15 active torsions:
  status: ('A' for Active; 'I' for Inactive)
    1  A    between atoms: N_1  and  C_24
    2  A    between atoms: N_1  and  C_29
    3  A    between atoms: C_3  and  C_20
    4  A    between atoms: C_4  and  C_24
    5  A    between atoms: C_4  and  C_27
    6  A    between atoms: N_5  and  C_7
    7  A    between atoms: C_6  and  C_32
    8  A    between atoms: C_7  and  C_23
    9  A    between atoms: N_10  and  C_32
   10  A    between atoms: C_14  and  C_27
   11  A    between atoms: C_16  and  C_29
   12  A    between atoms: C_16  and  C_33
   13  A    between atoms: C_20  and  C_35
   14  A    between atoms: N_22  and  C_31
   15  A    between atoms: C_25  and  N_34
                            x       y       z     vdW  Elec       q    Type
                         _______ _______ _______ _____ _____    ______ ____

>  <TORSDO>
F 15

$$$$
=
 OpenBabel10232407433D

 36 38  0  0  1  0  0  0  0  0999 V2000
  185.4860  178.9240  141.4050 O   0  0  0  0  0  0  0  0  0  0  0  0
  185.0040  178.9740  143.7250 C   0  0  0  0  0  0  0  0  0  0  0  0
  185.8490  178.5990  142.5680 C   0  0  0  0  0  0  0  0  0  0  0  0
  187.5580  177.8100  144.2420 C   0  0  1  0  0  3  0  0  0  0  0  0
  187.1190  177.7880  142.7610 C   0  0  2  0  0  3  0  0  0  0  0  0
  186.3760  177.5050  145.1600 C   0  0  0  0  0  2  0  0  0  0  0  0
  185.2750  178.4960  144.9410 C   0  0  0  0  0  3  0  0  0  0  0  0
  189.1010  177.2100  141.5830 C   0  0  0  0  0  2  0  0  0  0  0  0
  188.1070  177.6290  140.6110 C   0  0  1  0  0  3  0  0  0  0  0  0
  188.1880  178.3200  141.9120 N   0  0  1  0  0  0  0  0  0  0  0  0
  188.7600  178.4930  139.5540 C   0  0  0  0  0  2  0  0  0  0  0  0
  188.1890  178.1500  138.1940 C   0  0  0  0  0  2  0  0  0  0  0  0
  188.5920  176.8060  137.8270 N   0  0  0  0  0  2  0  0  0  0  0  0
  189.8160  176.9340  137.0520 C   0  0  0  0  0  2  0  0  0  0  0  0
  190.8410  175.8870  137.4760 C   0  0  2  0  0  3  0  0  0  0  0  0
  190.2020  174.6740  137.7430 O   0  0  0  0  0  1  0  0  0  0  0  0
  191.6280  176.3340  138.7010 C   0  0  0  0  0  2  0  0  0  0  0  0
  193.7500  177.2050  139.3870 O   0  0  0  0  0  1  0  0  0  0  0  0
  193.1060  176.4860  138.3780 C   0  0  0  0  0  2  0  0  0  0  0  0
  188.6590  176.7920  144.4990 C   0  0  0  0  0  2  0  0  0  0  0  0
  189.1080  176.8790  145.8820 N   0  0  0  0  0  2  0  0  0  0  0  0
  190.4750  177.0180  146.2920 C   0  0  0  0  0  0  0  0  0  0  0  0
  190.7550  176.8710  147.5090 O   0  0  0  0  0  0  0  0  0  0  0  0
  191.5360  177.3060  145.3700 N   0  0  0  0  0  2  0  0  0  0  0  0
  191.3570  177.7990  144.0130 C   0  0  0  0  0  2  0  0  0  0  0  0
  191.2750  179.2490  144.0240 N   0  0  0  0  0  1  0  0  0  0  0  0
  183.8540  179.9150  143.5580 C   0  0  0  0  0  2  0  0  0  0  0  0
  181.1420  178.1220  141.6050 C   0  0  0  0  0  0  0  0  0  0  0  0
  180.2440  177.7870  142.6260 C   0  0  0  0  0  3  0  0  0  0  0  0
  182.3160  178.8220  141.9080 C   0  0  0  0  0  3  0  0  0  0  0  0
  181.7010  178.8320  144.2540 C   0  0  0  0  0  3  0  0  0  0  0  0
  180.5260  178.1400  143.9500 C   0  0  0  0  0  3  0  0  0  0  0  0
  182.5990  179.1750  143.2340 C   0  0  0  0  0  0  0  0  0  0  0  0
  180.8320  177.7650  140.1950 C   0  0  0  0  0  2  0  0  0  0  0  0
  181.6810  176.6650  139.7680 N   0  0  0  0  0  2  0  0  0  0  0  0
  180.8350  175.4890  139.6910 C   0  0  0  0  0  1  0  0  0  0  0  0
  1  3  2  0  0  0  0
  2  7  2  0  0  0  0
  3  2  1  0  0  0  0
  4 20  1  6  0  0  0
  4  6  1  0  0  0  0
  5  3  1  1  0  0  0
  5  4  1  0  0  0  0
  7  6  1  0  0  0  0
  9 11  1  6  0  0  0
  9  8  1  0  0  0  0
  9 10  1  0  0  0  0
 10  8  1  1  0  0  0
 10  5  1  0  0  0  0
 12 11  1  0  0  0  0
 13 12  1  0  0  0  0
 14 15  1  0  0  0  0
 14 13  1  0  0  0  0
 15 16  1  1  0  0  0
 15 17  1  0  0  0  0
 19 17  1  0  0  0  0
 19 18  1  0  0  0  0
 20 21  1  0  0  0  0
 21 22  1  0  0  0  0
 22 23  2  0  0  0  0
 24 22  1  0  0  0  0
 25 26  1  0  0  0  0
 25 24  1  0  0  0  0
 27  2  1  0  0  0  0
 28 30  2  0  0  0  0
 28 29  1  0  0  0  0
 29 32  2  0  0  0  0
 30 33  1  0  0  0  0
 32 31  1  0  0  0  0
 33 27  1  0  0  0  0
 33 31  2  0  0  0  0
 34 28  1  0  0  0  0
 35 34  1  0  0  0  0
 36 35  1  0  0  0  0
M  END
>  <MODEL>
4

>  <REMARK>
 VINA RESULT:      -7.7      3.291      7.171
  Name = 
  15 active torsions:
  status: ('A' for Active; 'I' for Inactive)
    1  A    between atoms: N_1  and  C_24
    2  A    between atoms: N_1  and  C_29
    3  A    between atoms: C_3  and  C_20
    4  A    between atoms: C_4  and  C_24
    5  A    between atoms: C_4  and  C_27
    6  A    between atoms: N_5  and  C_7
    7  A    between atoms: C_6  and  C_32
    8  A    between atoms: C_7  and  C_23
    9  A    between atoms: N_10  and  C_32
   10  A    between atoms: C_14  and  C_27
   11  A    between atoms: C_16  and  C_29
   12  A    between atoms: C_16  and  C_33
   13  A    between atoms: C_20  and  C_35
   14  A    between atoms: N_22  and  C_31
   15  A    between atoms: C_25  and  N_34
                            x       y       z     vdW  Elec       q    Type
                         _______ _______ _______ _____ _____    ______ ____

>  <TORSDO>
F 15

$$$$
=
 OpenBabel10232407433D

 36 38  0  0  1  0  0  0  0  0999 V2000
  187.3410  178.0380  140.3540 O   0  0  0  0  0  0  0  0  0  0  0  0
  185.7630  178.6020  142.0290 C   0  0  0  0  0  0  0  0  0  0  0  0
  187.0650  178.0560  141.5840 C   0  0  0  0  0  0  0  0  0  0  0  0
  187.6860  177.9110  144.0220 C   0  0  1  0  0  3  0  0  0  0  0  0
  188.0480  177.4730  142.5850 C   0  0  2  0  0  3  0  0  0  0  0  0
  186.1960  177.7060  144.2890 C   0  0  0  0  0  2  0  0  0  0  0  0
  185.3760  178.4750  143.3000 C   0  0  0  0  0  3  0  0  0  0  0  0
  190.3470  176.9420  142.8730 C   0  0  0  0  0  2  0  0  0  0  0  0
  190.0330  176.8260  141.4600 C   0  0  1  0  0  3  0  0  0  0  0  0
  189.4110  177.9000  142.2570 N   0  0  1  0  0  0  0  0  0  0  0  0
  191.1590  177.4150  140.6380 C   0  0  0  0  0  2  0  0  0  0  0  0
  191.0920  176.8740  139.2250 C   0  0  0  0  0  2  0  0  0  0  0  0
  189.7600  177.0820  138.6910 N   0  0  0  0  0  2  0  0  0  0  0  0
  189.9220  177.4210  137.2850 C   0  0  0  0  0  2  0  0  0  0  0  0
  188.9270  178.5000  136.8680 C   0  0  2  0  0  3  0  0  0  0  0  0
  188.9900  179.5760  137.7560 O   0  0  0  0  0  1  0  0  0  0  0  0
  187.5040  177.9610  136.8130 C   0  0  0  0  0  2  0  0  0  0  0  0
  185.9760  177.0140  135.2310 O   0  0  0  0  0  1  0  0  0  0  0  0
  186.9610  177.9910  135.3930 C   0  0  0  0  0  2  0  0  0  0  0  0
  188.4860  177.1240  145.0490 C   0  0  0  0  0  2  0  0  0  0  0  0
  188.0570  177.4800  146.3950 N   0  0  0  0  0  2  0  0  0  0  0  0
  188.8210  177.2490  147.5860 C   0  0  0  0  0  0  0  0  0  0  0  0
  188.2590  177.4060  148.7000 O   0  0  0  0  0  0  0  0  0  0  0  0
  190.1960  176.8380  147.5580 N   0  0  0  0  0  2  0  0  0  0  0  0
  191.0690  176.9070  146.3960 C   0  0  0  0  0  2  0  0  0  0  0  0
  192.1210  175.9130  146.5130 N   0  0  0  0  0  1  0  0  0  0  0  0
  184.8740  179.3310  141.0730 C   0  0  0  0  0  2  0  0  0  0  0  0
  182.6510  176.6730  139.5310 C   0  0  0  0  0  0  0  0  0  0  0  0
  181.4100  176.9890  140.0980 C   0  0  0  0  0  3  0  0  0  0  0  0
  183.7790  177.4410  139.8430 C   0  0  0  0  0  3  0  0  0  0  0  0
  182.4280  178.8260  141.3050 C   0  0  0  0  0  3  0  0  0  0  0  0
  181.3010  178.0630  140.9870 C   0  0  0  0  0  3  0  0  0  0  0  0
  183.6690  178.5160  140.7340 C   0  0  0  0  0  0  0  0  0  0  0  0
  182.7640  175.5430  138.5700 C   0  0  0  0  0  2  0  0  0  0  0  0
  183.9470  175.7160  137.7430 N   0  0  0  0  0  2  0  0  0  0  0  0
  184.4280  174.3870  137.4160 C   0  0  0  0  0  1  0  0  0  0  0  0
  1  3  2  0  0  0  0
  2  7  2  0  0  0  0
  3  2  1  0  0  0  0
  4  6  1  0  0  0  0
  4 20  1  1  0  0  0
  5  3  1  6  0  0  0
  5  4  1  0  0  0  0
  7  6  1  0  0  0  0
  9 11  1  6  0  0  0
  9 10  1  0  0  0  0
  9  8  1  0  0  0  0
 10  5  1  0  0  0  0
 10  8  1  1  0  0  0
 12 11  1  0  0  0  0
 13 12  1  0  0  0  0
 14 13  1  0  0  0  0
 15 14  1  0  0  0  0
 15 16  1  1  0  0  0
 17 15  1  0  0  0  0
 18 19  1  0  0  0  0
 19 17  1  0  0  0  0
 20 21  1  0  0  0  0
 21 22  1  0  0  0  0
 22 23  2  0  0  0  0
 24 22  1  0  0  0  0
 25 26  1  0  0  0  0
 25 24  1  0  0  0  0
 27  2  1  0  0  0  0
 28 30  2  0  0  0  0
 28 29  1  0  0  0  0
 29 32  2  0  0  0  0
 30 33  1  0  0  0  0
 32 31  1  0  0  0  0
 33 27  1  0  0  0  0
 33 31  2  0  0  0  0
 34 28  1  0  0  0  0
 35 34  1  0  0  0  0
 36 35  1  0  0  0  0
M  END
>  <MODEL>
5

>  <REMARK>
 VINA RESULT:      -7.6      3.736      8.085
  Name = 
  15 active torsions:
  status: ('A' for Active; 'I' for Inactive)
    1  A    between atoms: N_1  and  C_24
    2  A    between atoms: N_1  and  C_29
    3  A    between atoms: C_3  and  C_20
    4  A    between atoms: C_4  and  C_24
    5  A    between atoms: C_4  and  C_27
    6  A    between atoms: N_5  and  C_7
    7  A    between atoms: C_6  and  C_32
    8  A    between atoms: C_7  and  C_23
    9  A    between atoms: N_10  and  C_32
   10  A    between atoms: C_14  and  C_27
   11  A    between atoms: C_16  and  C_29
   12  A    between atoms: C_16  and  C_33
   13  A    between atoms: C_20  and  C_35
   14  A    between atoms: N_22  and  C_31
   15  A    between atoms: C_25  and  N_34
                            x       y       z     vdW  Elec       q    Type
                         _______ _______ _______ _____ _____    ______ ____

>  <TORSDO>
F 15

$$$$
=
 OpenBabel10232407433D

 36 38  0  0  1  0  0  0  0  0999 V2000
  185.7160  178.8340  141.5190 O   0  0  0  0  0  0  0  0  0  0  0  0
  185.1140  178.9510  143.8070 C   0  0  0  0  0  0  0  0  0  0  0  0
  186.0150  178.5390  142.7070 C   0  0  0  0  0  0  0  0  0  0  0  0
  187.6280  177.7830  144.4900 C   0  0  1  0  0  3  0  0  0  0  0  0
  187.2670  177.7240  142.9890 C   0  0  2  0  0  3  0  0  0  0  0  0
  186.3960  177.5130  145.3520 C   0  0  0  0  0  2  0  0  0  0  0  0
  185.3170  178.5050  145.0490 C   0  0  0  0  0  3  0  0  0  0  0  0
  189.2090  177.0700  141.7860 C   0  0  0  0  0  2  0  0  0  0  0  0
  188.2620  177.6300  140.8380 C   0  0  1  0  0  3  0  0  0  0  0  0
  188.3830  178.2250  142.1830 N   0  0  1  0  0  0  0  0  0  0  0  0
  188.9930  178.5080  139.8450 C   0  0  0  0  0  2  0  0  0  0  0  0
  189.6950  177.6400  138.8220 C   0  0  0  0  0  2  0  0  0  0  0  0
  188.7150  176.8350  138.1180 N   0  0  0  0  0  2  0  0  0  0  0  0
  188.6010  177.3940  136.7790 C   0  0  0  0  0  2  0  0  0  0  0  0
  187.2810  178.1400  136.6130 C   0  0  2  0  0  3  0  0  0  0  0  0
  187.4830  179.5110  136.7810 O   0  0  0  0  0  1  0  0  0  0  0  0
  186.2290  177.6510  137.6000 C   0  0  0  0  0  2  0  0  0  0  0  0
  185.2570  176.9970  135.5110 O   0  0  0  0  0  1  0  0  0  0  0  0
  184.9960  177.1330  136.8760 C   0  0  0  0  0  2  0  0  0  0  0  0
  188.7040  176.7640  144.8320 C   0  0  0  0  0  2  0  0  0  0  0  0
  189.1690  176.9680  146.1970 N   0  0  0  0  0  2  0  0  0  0  0  0
  190.5400  176.9060  146.6130 C   0  0  0  0  0  0  0  0  0  0  0  0
  190.7940  176.8900  147.8450 O   0  0  0  0  0  0  0  0  0  0  0  0
  191.6320  176.8530  145.6830 N   0  0  0  0  0  2  0  0  0  0  0  0
  191.5420  177.1670  144.2650 C   0  0  0  0  0  2  0  0  0  0  0  0
  191.6120  178.6050  144.0760 N   0  0  0  0  0  1  0  0  0  0  0  0
  183.9830  179.8950  143.5550 C   0  0  0  0  0  2  0  0  0  0  0  0
  181.3330  178.0860  141.5330 C   0  0  0  0  0  0  0  0  0  0  0  0
  180.3990  177.7670  142.5270 C   0  0  0  0  0  3  0  0  0  0  0  0
  182.4980  178.7860  141.8670 C   0  0  0  0  0  3  0  0  0  0  0  0
  181.8030  178.8300  144.1900 C   0  0  0  0  0  3  0  0  0  0  0  0
  180.6360  178.1380  143.8540 C   0  0  0  0  0  3  0  0  0  0  0  0
  182.7370  179.1550  143.1970 C   0  0  0  0  0  0  0  0  0  0  0  0
  181.0710  177.7110  140.1180 C   0  0  0  0  0  2  0  0  0  0  0  0
  182.1790  176.9210  139.6050 N   0  0  0  0  0  2  0  0  0  0  0  0
  181.6110  175.6880  139.0910 C   0  0  0  0  0  1  0  0  0  0  0  0
  1  3  2  0  0  0  0
  2  7  2  0  0  0  0
  3  2  1  0  0  0  0
  4 20  1  6  0  0  0
  4  6  1  0  0  0  0
  5  3  1  1  0  0  0
  5  4  1  0  0  0  0
  7  6  1  0  0  0  0
  9 11  1  6  0  0  0
  9  8  1  0  0  0  0
  9 10  1  0  0  0  0
 10  8  1  1  0  0  0
 10  5  1  0  0  0  0
 12 11  1  0  0  0  0
 13 12  1  0  0  0  0
 14 13  1  0  0  0  0
 15 14  1  0  0  0  0
 15 16  1  1  0  0  0
 15 17  1  0  0  0  0
 18 19  1  0  0  0  0
 19 17  1  0  0  0  0
 20 21  1  0  0  0  0
 21 22  1  0  0  0  0
 22 23  2  0  0  0  0
 24 22  1  0  0  0  0
 25 24  1  0  0  0  0
 26 25  1  0  0  0  0
 27  2  1  0  0  0  0
 28 30  2  0  0  0  0
 28 29  1  0  0  0  0
 29 32  2  0  0  0  0
 30 33  1  0  0  0  0
 32 31  1  0  0  0  0
 33 27  1  0  0  0  0
 33 31  2  0  0  0  0
 34 28  1  0  0  0  0
 35 34  1  0  0  0  0
 36 35  1  0  0  0  0
M  END
>  <MODEL>
6

>  <REMARK>
 VINA RESULT:      -7.5      4.175      8.209
  Name = 
  15 active torsions:
  status: ('A' for Active; 'I' for Inactive)
    1  A    between atoms: N_1  and  C_24
    2  A    between atoms: N_1  and  C_29
    3  A    between atoms: C_3  and  C_20
    4  A    between atoms: C_4  and  C_24
    5  A    between atoms: C_4  and  C_27
    6  A    between atoms: N_5  and  C_7
    7  A    between atoms: C_6  and  C_32
    8  A    between atoms: C_7  and  C_23
    9  A    between atoms: N_10  and  C_32
   10  A    between atoms: C_14  and  C_27
   11  A    between atoms: C_16  and  C_29
   12  A    between atoms: C_16  and  C_33
   13  A    between atoms: C_20  and  C_35
   14  A    between atoms: N_22  and  C_31
   15  A    between atoms: C_25  and  N_34
                            x       y       z     vdW  Elec       q    Type
                         _______ _______ _______ _____ _____    ______ ____

>  <TORSDO>
F 15

$$$$
=
 OpenBabel10232407433D

 36 38  0  0  1  0  0  0  0  0999 V2000
  184.3840  178.0390  142.9760 O   0  0  0  0  0  0  0  0  0  0  0  0
  186.5360  177.8800  143.9550 C   0  0  0  0  0  0  0  0  0  0  0  0
  185.6310  178.0450  142.7940 C   0  0  0  0  0  0  0  0  0  0  0  0
  187.6930  178.5130  141.4230 C   0  0  1  0  0  3  0  0  0  0  0  0
  186.1870  178.1730  141.3860 C   0  0  2  0  0  3  0  0  0  0  0  0
  188.4300  177.5940  142.3960 C   0  0  0  0  0  2  0  0  0  0  0  0
  187.8470  177.7110  143.7700 C   0  0  0  0  0  3  0  0  0  0  0  0
  185.5260  178.8780  139.2140 C   0  0  0  0  0  2  0  0  0  0  0  0
  184.3270  178.5500  139.9630 C   0  0  1  0  0  3  0  0  0  0  0  0
  185.4550  179.2070  140.6500 N   0  0  1  0  0  0  0  0  0  0  0  0
  183.2540  179.5810  139.6850 C   0  0  0  0  0  2  0  0  0  0  0  0
  181.8920  178.9870  139.9800 C   0  0  0  0  0  2  0  0  0  0  0  0
  181.9420  177.5490  139.7960 N   0  0  0  0  0  2  0  0  0  0  0  0
  181.3260  177.2720  138.5070 C   0  0  0  0  0  2  0  0  0  0  0  0
  181.8120  175.9380  137.9490 C   0  0  2  0  0  3  0  0  0  0  0  0
  182.7860  175.3950  138.7880 O   0  0  0  0  0  1  0  0  0  0  0  0
  182.3720  176.0880  136.5410 C   0  0  0  0  0  2  0  0  0  0  0  0
  184.6200  176.8950  136.3730 O   0  0  0  0  0  1  0  0  0  0  0  0
  183.2850  177.2990  136.4390 C   0  0  0  0  0  2  0  0  0  0  0  0
  188.3180  178.3760  140.0430 C   0  0  0  0  0  2  0  0  0  0  0  0
  189.4180  177.4220  140.0850 N   0  0  0  0  0  2  0  0  0  0  0  0
  190.0330  176.8290  138.9340 C   0  0  0  0  0  0  0  0  0  0  0  0
  190.8250  175.8670  139.1030 O   0  0  0  0  0  0  0  0  0  0  0  0
  189.7730  177.2820  137.5960 N   0  0  0  0  0  2  0  0  0  0  0  0
  189.1430  178.5450  137.2460 C   0  0  0  0  0  2  0  0  0  0  0  0
  187.9190  178.2950  136.5070 N   0  0  0  0  0  1  0  0  0  0  0  0
  186.0040  177.9300  145.3510 C   0  0  0  0  0  2  0  0  0  0  0  0
  189.3900  177.3060  146.9410 C   0  0  0  0  0  0  0  0  0  0  0  0
  189.1940  177.8360  148.2220 C   0  0  0  0  0  3  0  0  0  0  0  0
  188.3470  177.3300  146.0070 C   0  0  0  0  0  3  0  0  0  0  0  0
  186.9230  178.4330  147.6300 C   0  0  0  0  0  3  0  0  0  0  0  0
  187.9620  178.4010  148.5640 C   0  0  0  0  0  3  0  0  0  0  0  0
  187.1130  177.8980  146.3490 C   0  0  0  0  0  0  0  0  0  0  0  0
  190.6940  176.6850  146.5830 C   0  0  0  0  0  2  0  0  0  0  0  0
  191.6560  176.9140  147.6470 N   0  0  0  0  0  2  0  0  0  0  0  0
  192.4180  175.6880  147.7940 C   0  0  0  0  0  1  0  0  0  0  0  0
  2 27  1  0  0  0  0
  3  1  2  0  0  0  0
  3  2  1  0  0  0  0
  4 20  1  6  0  0  0
  4  6  1  0  0  0  0
  5  4  1  0  0  0  0
  5  3  1  1  0  0  0
  6  7  1  0  0  0  0
  7  2  2  0  0  0  0
  8  9  1  0  0  0  0
  9 11  1  6  0  0  0
  9 10  1  0  0  0  0
 10  8  1  6  0  0  0
 10  5  1  0  0  0  0
 11 12  1  0  0  0  0
 13 12  1  0  0  0  0
 14 13  1  0  0  0  0
 15 14  1  0  0  0  0
 15 16  1  1  0  0  0
 17 15  1  0  0  0  0
 18 19  1  0  0  0  0
 19 17  1  0  0  0  0
 20 21  1  0  0  0  0
 22 23  2  0  0  0  0
 22 21  1  0  0  0  0
 24 22  1  0  0  0  0
 25 24  1  0  0  0  0
 26 25  1  0  0  0  0
 27 33  1  0  0  0  0
 28 29  1  0  0  0  0
 29 32  2  0  0  0  0
 30 33  1  0  0  0  0
 30 28  2  0  0  0  0
 31 32  1  0  0  0  0
 33 31  2  0  0  0  0
 34 28  1  0  0  0  0
 34 35  1  0  0  0  0
 35 36  1  0  0  0  0
M  END
>  <MODEL>
7

>  <REMARK>
 VINA RESULT:      -7.5      3.514      7.896
  Name = 
  15 active torsions:
  status: ('A' for Active; 'I' for Inactive)
    1  A    between atoms: N_1  and  C_24
    2  A    between atoms: N_1  and  C_29
    3  A    between atoms: C_3  and  C_20
    4  A    between atoms: C_4  and  C_24
    5  A    between atoms: C_4  and  C_27
    6  A    between atoms: N_5  and  C_7
    7  A    between atoms: C_6  and  C_32
    8  A    between atoms: C_7  and  C_23
    9  A    between atoms: N_10  and  C_32
   10  A    between atoms: C_14  and  C_27
   11  A    between atoms: C_16  and  C_29
   12  A    between atoms: C_16  and  C_33
   13  A    between atoms: C_20  and  C_35
   14  A    between atoms: N_22  and  C_31
   15  A    between atoms: C_25  and  N_34
                            x       y       z     vdW  Elec       q    Type
                         _______ _______ _______ _____ _____    ______ ____

>  <TORSDO>
F 15

$$$$
=
 OpenBabel10232407433D

 36 38  0  0  1  0  0  0  0  0999 V2000
  192.4770  177.1870  141.0630 O   0  0  0  0  0  0  0  0  0  0  0  0
  190.8160  177.9200  142.5860 C   0  0  0  0  0  0  0  0  0  0  0  0
  191.2610  177.4580  141.2510 C   0  0  0  0  0  0  0  0  0  0  0  0
  188.8230  177.3790  140.6150 C   0  0  1  0  0  3  0  0  0  0  0  0
  190.2780  177.3540  140.0960 C   0  0  2  0  0  3  0  0  0  0  0  0
  188.6260  178.5180  141.6140 C   0  0  0  0  0  2  0  0  0  0  0  0
  189.5740  178.3770  142.7630 C   0  0  0  0  0  3  0  0  0  0  0  0
  190.0340  176.3320  137.9650 C   0  0  0  0  0  2  0  0  0  0  0  0
  191.4530  176.4520  138.2440 C   0  0  1  0  0  3  0  0  0  0  0  0
  190.5220  176.1230  139.3400 N   0  0  1  0  0  0  0  0  0  0  0  0
  192.1670  175.1900  137.8110 C   0  0  0  0  0  2  0  0  0  0  0  0
  193.6490  175.4680  137.6710 C   0  0  0  0  0  2  0  0  0  0  0  0
  193.8410  176.7780  137.0790 N   0  0  0  0  0  2  0  0  0  0  0  0
  194.2270  176.5560  135.6930 C   0  0  0  0  0  2  0  0  0  0  0  0
  195.6720  176.9820  135.4570 C   0  0  2  0  0  3  0  0  0  0  0  0
  195.7060  178.2430  134.8570 O   0  0  0  0  0  1  0  0  0  0  0  0
  196.4200  175.9800  134.5880 C   0  0  0  0  0  2  0  0  0  0  0  0
  197.6100  175.8080  136.6580 O   0  0  0  0  0  1  0  0  0  0  0  0
  197.6240  175.4090  135.3200 C   0  0  0  0  0  2  0  0  0  0  0  0
  187.8390  177.5500  139.4690 C   0  0  0  0  0  2  0  0  0  0  0  0
  186.7400  178.4150  139.8780 N   0  0  0  0  0  2  0  0  0  0  0  0
  185.6190  178.7600  139.0540 C   0  0  0  0  0  0  0  0  0  0  0  0
  184.8480  179.6760  139.4400 O   0  0  0  0  0  0  0  0  0  0  0  0
  185.3460  178.1110  137.8030 N   0  0  0  0  0  2  0  0  0  0  0  0
  185.9360  176.8570  137.3630 C   0  0  0  0  0  2  0  0  0  0  0  0
  186.7780  177.0910  136.2030 N   0  0  0  0  0  1  0  0  0  0  0  0
  191.7380  177.8570  143.7620 C   0  0  0  0  0  2  0  0  0  0  0  0
  189.0310  177.5370  146.3980 C   0  0  0  0  0  0  0  0  0  0  0  0
  189.6350  176.6590  147.3070 C   0  0  0  0  0  3  0  0  0  0  0  0
  189.7200  177.9330  145.2450 C   0  0  0  0  0  3  0  0  0  0  0  0
  191.6050  176.5580  145.9020 C   0  0  0  0  0  3  0  0  0  0  0  0
  190.9200  176.1690  147.0570 C   0  0  0  0  0  3  0  0  0  0  0  0
  191.0060  177.4400  144.9940 C   0  0  0  0  0  0  0  0  0  0  0  0
  187.6720  178.0750  146.6740 C   0  0  0  0  0  2  0  0  0  0  0  0
  186.9450  178.2410  145.4260 N   0  0  0  0  0  2  0  0  0  0  0  0
  185.5330  178.1810  145.7530 C   0  0  0  0  0  1  0  0  0  0  0  0
  1  3  2  0  0  0  0
  2  7  2  0  0  0  0
  2 27  1  0  0  0  0
  3  2  1  0  0  0  0
  4 20  1  6  0  0  0
  4  6  1  0  0  0  0
  5  4  1  0  0  0  0
  5  3  1  1  0  0  0
  6  7  1  0  0  0  0
  8  9  1  0  0  0  0
  9 11  1  6  0  0  0
  9 10  1  0  0  0  0
 10  8  1  6  0  0  0
 10  5  1  0  0  0  0
 12 11  1  0  0  0  0
 13 12  1  0  0  0  0
 14 13  1  0  0  0  0
 15 16  1  6  0  0  0
 15 14  1  0  0  0  0
 17 19  1  0  0  0  0
 17 15  1  0  0  0  0
 19 18  1  0  0  0  0
 20 21  1  0  0  0  0
 22 23  2  0  0  0  0
 22 21  1  0  0  0  0
 24 22  1  0  0  0  0
 25 24  1  0  0  0  0
 26 25  1  0  0  0  0
 27 33  1  0  0  0  0
 28 34  1  0  0  0  0
 28 29  1  0  0  0  0
 30 28  2  0  0  0  0
 31 32  1  0  0  0  0
 32 29  2  0  0  0  0
 33 30  1  0  0  0  0
 33 31  2  0  0  0  0
 35 36  1  0  0  0  0
 35 34  1  0  0  0  0
M  END
>  <MODEL>
8

>  <REMARK>
 VINA RESULT:      -7.4      1.733      2.093
  Name = 
  15 active torsions:
  status: ('A' for Active; 'I' for Inactive)
    1  A    between atoms: N_1  and  C_24
    2  A    between atoms: N_1  and  C_29
    3  A    between atoms: C_3  and  C_20
    4  A    between atoms: C_4  and  C_24
    5  A    between atoms: C_4  and  C_27
    6  A    between atoms: N_5  and  C_7
    7  A    between atoms: C_6  and  C_32
    8  A    between atoms: C_7  and  C_23
    9  A    between atoms: N_10  and  C_32
   10  A    between atoms: C_14  and  C_27
   11  A    between atoms: C_16  and  C_29
   12  A    between atoms: C_16  and  C_33
   13  A    between atoms: C_20  and  C_35
   14  A    between atoms: N_22  and  C_31
   15  A    between atoms: C_25  and  N_34
                            x       y       z     vdW  Elec       q    Type
                         _______ _______ _______ _____ _____    ______ ____

>  <TORSDO>
F 15

$$$$
=
 OpenBabel10232407433D

 36 38  0  0  1  0  0  0  0  0999 V2000
  187.6750  178.0620  140.5560 O   0  0  0  0  0  0  0  0  0  0  0  0
  185.8460  178.5320  141.9880 C   0  0  0  0  0  0  0  0  0  0  0  0
  187.2340  178.0790  141.7360 C   0  0  0  0  0  0  0  0  0  0  0  0
  187.5260  178.0230  144.2390 C   0  0  1  0  0  3  0  0  0  0  0  0
  188.1110  177.5900  142.8760 C   0  0  2  0  0  3  0  0  0  0  0  0
  186.0330  177.7090  144.3090 C   0  0  0  0  0  2  0  0  0  0  0  0
  185.3010  178.3970  143.1980 C   0  0  0  0  0  3  0  0  0  0  0  0
  190.3620  177.3250  143.5920 C   0  0  0  0  0  2  0  0  0  0  0  0
  190.3060  177.0300  142.1720 C   0  0  1  0  0  3  0  0  0  0  0  0
  189.4710  178.1150  142.7230 N   0  0  1  0  0  0  0  0  0  0  0  0
  191.5050  177.6390  141.4770 C   0  0  0  0  0  2  0  0  0  0  0  0
  191.3490  177.4950  139.9770 C   0  0  0  0  0  2  0  0  0  0  0  0
  190.4200  176.4180  139.6890 N   0  0  0  0  0  2  0  0  0  0  0  0
  190.4070  176.2540  138.2440 C   0  0  0  0  0  2  0  0  0  0  0  0
  188.9830  176.3210  137.7020 C   0  0  2  0  0  3  0  0  0  0  0  0
  188.5770  175.0570  137.2680 O   0  0  0  0  0  1  0  0  0  0  0  0
  188.8620  177.3200  136.5590 C   0  0  0  0  0  2  0  0  0  0  0  0
  188.9610  179.3460  137.8310 O   0  0  0  0  0  1  0  0  0  0  0  0
  188.1360  178.5790  137.0050 C   0  0  0  0  0  2  0  0  0  0  0  0
  188.2340  177.3170  145.3850 C   0  0  0  0  0  2  0  0  0  0  0  0
  187.9510  177.9970  146.6420 N   0  0  0  0  0  2  0  0  0  0  0  0
  188.6020  177.7180  147.8880 C   0  0  0  0  0  0  0  0  0  0  0  0
  188.1270  178.2190  148.9400 O   0  0  0  0  0  0  0  0  0  0  0  0
  189.7650  176.8820  147.9870 N   0  0  0  0  0  2  0  0  0  0  0  0
  190.6080  176.4830  146.8710 C   0  0  0  0  0  2  0  0  0  0  0  0
  191.9820  176.8730  147.1290 N   0  0  0  0  0  1  0  0  0  0  0  0
  185.0440  179.1740  140.9010 C   0  0  0  0  0  2  0  0  0  0  0  0
  181.3950  178.1570  141.0750 C   0  0  0  0  0  0  0  0  0  0  0  0
  181.3790  177.0440  140.2270 C   0  0  0  0  0  3  0  0  0  0  0  0
  182.5920  178.8480  141.3010 C   0  0  0  0  0  3  0  0  0  0  0  0
  183.7490  177.3230  139.8140 C   0  0  0  0  0  3  0  0  0  0  0  0
  182.5560  176.6290  139.5950 C   0  0  0  0  0  3  0  0  0  0  0  0
  183.7700  178.4330  140.6670 C   0  0  0  0  0  0  0  0  0  0  0  0
  180.1480  178.5860  141.7640 C   0  0  0  0  0  2  0  0  0  0  0  0
  180.4810  179.2750  143.0000 N   0  0  0  0  0  2  0  0  0  0  0  0
  179.9920  178.4470  144.0860 C   0  0  0  0  0  1  0  0  0  0  0  0
  1  3  2  0  0  0  0
  2  7  2  0  0  0  0
  3  2  1  0  0  0  0
  4  6  1  0  0  0  0
  4 20  1  1  0  0  0
  5  3  1  6  0  0  0
  5  4  1  0  0  0  0
  7  6  1  0  0  0  0
  9 11  1  6  0  0  0
  9 10  1  0  0  0  0
  9  8  1  0  0  0  0
 10  5  1  0  0  0  0
 10  8  1  1  0  0  0
 12 11  1  0  0  0  0
 13 12  1  0  0  0  0
 14 13  1  0  0  0  0
 15 16  1  6  0  0  0
 15 14  1  0  0  0  0
 17 19  1  0  0  0  0
 17 15  1  0  0  0  0
 19 18  1  0  0  0  0
 20 21  1  0  0  0  0
 21 22  1  0  0  0  0
 22 24  1  0  0  0  0
 22 23  2  0  0  0  0
 25 26  1  0  0  0  0
 25 24  1  0  0  0  0
 27  2  1  0  0  0  0
 28 30  1  0  0  0  0
 28 34  1  0  0  0  0
 29 28  2  0  0  0  0
 31 33  1  0  0  0  0
 32 31  2  0  0  0  0
 32 29  1  0  0  0  0
 33 27  1  0  0  0  0
 33 30  2  0  0  0  0
 34 35  1  0  0  0  0
 35 36  1  0  0  0  0
M  END
>  <MODEL>
9

>  <REMARK>
 VINA RESULT:      -7.4      3.762      7.676
  Name = 
  15 active torsions:
  status: ('A' for Active; 'I' for Inactive)
    1  A    between atoms: N_1  and  C_24
    2  A    between atoms: N_1  and  C_29
    3  A    between atoms: C_3  and  C_20
    4  A    between atoms: C_4  and  C_24
    5  A    between atoms: C_4  and  C_27
    6  A    between atoms: N_5  and  C_7
    7  A    between atoms: C_6  and  C_32
    8  A    between atoms: C_7  and  C_23
    9  A    between atoms: N_10  and  C_32
   10  A    between atoms: C_14  and  C_27
   11  A    between atoms: C_16  and  C_29
   12  A    between atoms: C_16  and  C_33
   13  A    between atoms: C_20  and  C_35
   14  A    between atoms: N_22  and  C_31
   15  A    between atoms: C_25  and  N_34
                            x       y       z     vdW  Elec       q    Type
                         _______ _______ _______ _____ _____    ______ ____

>  <TORSDO>
F 15

$$$$
