=
 OpenBabel10232410593D

 42 48  0  0  1  0  0  0  0  0999 V2000
  188.1530  177.4520  145.1980 C   0  0  0  0  0  0  0  0  0  0  0  0
  189.4130  177.1510  144.6610 C   0  0  0  0  0  0  0  0  0  0  0  0
  189.1750  177.2420  147.4190 C   0  0  0  0  0  3  0  0  0  0  0  0
  191.1960  176.6320  143.2560 N   0  0  0  0  0  0  0  0  0  0  0  0
  189.8290  176.9920  143.3140 N   0  0  0  0  0  0  0  0  0  0  0  0
  190.4160  176.9370  146.8340 C   0  0  0  0  0  0  0  0  0  0  0  0
  190.4870  176.9030  145.4420 C   0  0  0  0  0  0  0  0  0  0  0  0
  191.5940  176.5860  144.6140 N   0  0  0  0  0  0  0  0  0  0  0  0
  191.6060  176.6550  147.6830 C   0  0  0  0  0  1  0  0  0  0  0  0
  188.0480  177.4960  146.6060 C   0  0  0  0  0  3  0  0  0  0  0  0
  186.9990  177.7070  144.3240 C   0  0  0  0  0  3  0  0  0  0  0  0
  185.8720  178.2690  144.7410 C   0  0  0  0  0  3  0  0  0  0  0  0
  184.7700  178.4910  143.7670 C   0  0  2  0  0  3  0  0  0  0  0  0
  185.0270  179.6520  143.0190 O   0  0  0  0  0  0  0  0  0  0  0  0
  180.4550  177.9270  141.1200 C   0  0  0  0  0  2  0  0  0  0  0  0
  182.4870  176.9510  139.8530 C   0  0  0  0  0  2  0  0  0  0  0  0
  185.9450  178.7000  140.9630 C   0  0  0  0  0  1  0  0  0  0  0  0
  183.4540  178.6730  144.5030 C   0  0  0  0  0  2  0  0  0  0  0  0
  182.2830  179.2630  142.3090 C   0  0  1  0  0  3  0  0  0  0  0  0
  183.3530  177.3300  141.0530 C   0  0  0  0  0  2  0  0  0  0  0  0
  182.2690  178.4010  143.5810 C   0  0  0  0  0  2  0  0  0  0  0  0
  183.3710  178.8410  141.2990 C   0  0  2  0  0  3  0  0  0  0  0  0
  180.8930  179.2850  141.6670 C   0  0  0  0  0  2  0  0  0  0  0  0
  181.1270  177.6650  139.7720 C   0  0  1  0  0  3  0  0  0  0  0  0
  184.7750  179.3920  141.6540 C   0  0  1  0  0  3  0  0  0  0  0  0
  180.2230  176.9950  138.8340 N   0  0  0  0  0  2  0  0  0  0  0  0
  180.7840  175.7190  138.4060 C   0  0  0  0  0  1  0  0  0  0  0  0
  189.4830  177.2790  140.9460 C   0  0  0  0  0  3  0  0  0  0  0  0
  188.9860  177.1120  142.1650 C   0  0  0  0  0  3  0  0  0  0  0  0
  188.5700  177.3950  139.7720 C   0  0  0  0  0  2  0  0  0  0  0  0
  191.6140  176.6940  137.6680 O   0  0  0  0  0  0  0  0  0  0  0  0
  189.1150  176.1000  137.3920 N   0  0  0  0  0  0  0  0  0  0  0  0
  189.2040  176.8430  138.5850 N   0  0  0  0  0  0  0  0  0  0  0  0
  190.3710  176.5830  137.8290 C   0  0  0  0  0  0  0  0  0  0  0  0
  186.6960  174.1420  137.0010 C   0  0  0  0  0  0  0  0  0  0  0  0
  186.8690  175.5290  136.7530 C   0  0  0  0  0  0  0  0  0  0  0  0
  185.8470  176.4510  136.8760 C   0  0  0  0  0  3  0  0  0  0  0  0
  188.3070  175.4020  136.4060 C   0  0  2  0  0  3  0  0  0  0  0  0
  188.4090  173.6940  136.6550 S   0  0  0  0  0  0  0  0  0  0  0  0
  185.4880  173.5940  137.3900 C   0  0  0  0  0  3  0  0  0  0  0  0
  184.5990  175.9120  137.2720 C   0  0  0  0  0  3  0  0  0  0  0  0
  184.4240  174.5170  137.5230 C   0  0  0  0  0  3  0  0  0  0  0  0
  1 10  1  0  0  0  0
  2  1  2  0  0  0  0
  2  7  1  0  0  0  0
  4  5  1  0  0  0  0
  4  8  2  0  0  0  0
  5  2  1  0  0  0  0
  6  3  1  0  0  0  0
  6  9  1  0  0  0  0
  7  6  2  0  0  0  0
  8  7  1  0  0  0  0
 10  3  2  0  0  0  0
 11 12  2  0  0  0  0
 11  1  1  0  0  0  0
 13 18  1  0  0  0  0
 13 12  1  1  0  0  0
 14 13  1  0  0  0  0
 15 23  1  0  0  0  0
 16 20  1  0  0  0  0
 19 23  1  6  0  0  0
 19 21  1  0  0  0  0
 21 18  1  0  0  0  0
 22 20  1  1  0  0  0
 22 25  1  0  0  0  0
 22 19  1  0  0  0  0
 24 26  1  6  0  0  0
 24 16  1  0  0  0  0
 24 15  1  0  0  0  0
 25 17  1  1  0  0  0
 25 14  1  0  0  0  0
 27 26  1  0  0  0  0
 28 29  2  0  0  0  0
 29  5  1  0  0  0  0
 30 28  1  0  0  0  0
 31 34  2  0  0  0  0
 32 34  1  0  0  0  0
 32 33  1  0  0  0  0
 33 30  1  0  0  0  0
 34 33  1  0  0  0  0
 35 40  1  0  0  0  0
 36 37  1  0  0  0  0
 36 35  2  0  0  0  0
 37 41  2  0  0  0  0
 38 39  1  0  0  0  0
 38 36  1  0  0  0  0
 38 32  1  1  0  0  0
 39 35  1  0  0  0  0
 40 42  2  0  0  0  0
 41 42  1  0  0  0  0
M  END
>  <MODEL>
1

>  <REMARK>
 VINA RESULT:      -9.9      0.000      0.000
  Name = 
  7 active torsions:
  status: ('A' for Active; 'I' for Inactive)
    1  A    between atoms: C_1  and  C_3
    2  A    between atoms: C_2  and  C_40
    3  A    between atoms: N_12  and  C_33
    4  A    between atoms: C_17  and  N_19
    5  A    between atoms: C_22  and  C_29
    6  A    between atoms: N_27  and  C_36
    7  A    between atoms: C_29  and  N_38
                            x       y       z     vdW  Elec       q    Type
                         _______ _______ _______ _____ _____    ______ ____

>  <TORSDO>
F 7

$$$$
=
 OpenBabel10232410593D

 42 48  0  0  1  0  0  0  0  0999 V2000
  189.7230  177.2390  143.6450 C   0  0  0  0  0  0  0  0  0  0  0  0
  188.8330  177.2340  144.7290 C   0  0  0  0  0  0  0  0  0  0  0  0
  191.5410  177.0770  145.2860 C   0  0  0  0  0  3  0  0  0  0  0  0
  186.9520  177.3490  146.0980 N   0  0  0  0  0  0  0  0  0  0  0  0
  187.4190  177.3460  144.7620 N   0  0  0  0  0  0  0  0  0  0  0  0
  190.6090  177.0840  146.3390 C   0  0  0  0  0  0  0  0  0  0  0  0
  189.2570  177.1640  146.0090 C   0  0  0  0  0  0  0  0  0  0  0  0
  188.1330  177.2280  146.8710 N   0  0  0  0  0  0  0  0  0  0  0  0
  191.0640  177.0140  147.7550 C   0  0  0  0  0  1  0  0  0  0  0  0
  191.1010  177.1560  143.9460 C   0  0  0  0  0  3  0  0  0  0  0  0
  189.2330  177.3270  142.2630 C   0  0  0  0  0  3  0  0  0  0  0  0
  190.0020  177.1380  141.1980 C   0  0  0  0  0  3  0  0  0  0  0  0
  189.3980  177.2390  139.8420 C   0  0  2  0  0  3  0  0  0  0  0  0
  190.3830  177.6120  138.9130 O   0  0  0  0  0  0  0  0  0  0  0  0
  186.0330  177.1780  136.0200 C   0  0  0  0  0  2  0  0  0  0  0  0
  187.3520  174.9590  136.1650 C   0  0  0  0  0  2  0  0  0  0  0  0
  190.9460  175.4480  137.9230 C   0  0  0  0  0  1  0  0  0  0  0  0
  188.3070  178.2950  139.8370 C   0  0  0  0  0  2  0  0  0  0  0  0
  188.0600  178.0610  137.3040 C   0  0  1  0  0  3  0  0  0  0  0  0
  188.0620  175.5210  137.3960 C   0  0  0  0  0  2  0  0  0  0  0  0
  187.3510  178.0890  138.6670 C   0  0  0  0  0  2  0  0  0  0  0  0
  188.8800  176.7740  137.0700 C   0  0  2  0  0  3  0  0  0  0  0  0
  187.0550  178.3040  136.1760 C   0  0  0  0  0  2  0  0  0  0  0  0
  186.6620  176.0020  135.2710 C   0  0  1  0  0  3  0  0  0  0  0  0
  190.2660  176.8030  137.7600 C   0  0  1  0  0  3  0  0  0  0  0  0
  185.7140  175.3760  134.3470 N   0  0  0  0  0  2  0  0  0  0  0  0
  184.7430  174.5700  135.0790 C   0  0  0  0  0  1  0  0  0  0  0  0
  185.9600  178.6450  143.3490 C   0  0  0  0  0  3  0  0  0  0  0  0
  186.5710  177.4980  143.6210 C   0  0  0  0  0  3  0  0  0  0  0  0
  185.0870  178.7640  142.1460 C   0  0  0  0  0  2  0  0  0  0  0  0
  182.3460  179.0360  144.7140 O   0  0  0  0  0  0  0  0  0  0  0  0
  182.3310  178.5550  142.1750 N   0  0  0  0  0  0  0  0  0  0  0  0
  183.6860  178.7010  142.5310 N   0  0  0  0  0  0  0  0  0  0  0  0
  182.6810  178.8270  143.5190 C   0  0  0  0  0  0  0  0  0  0  0  0
  181.6100  178.8420  139.1360 C   0  0  0  0  0  0  0  0  0  0  0  0
  181.9690  177.7320  139.9460 C   0  0  0  0  0  0  0  0  0  0  0  0
  182.6870  176.6510  139.4700 C   0  0  0  0  0  3  0  0  0  0  0  0
  181.3220  178.2720  141.1680 C   0  0  2  0  0  3  0  0  0  0  0  0
  180.7670  179.7450  140.4520 S   0  0  0  0  0  0  0  0  0  0  0  0
  181.9490  178.9370  137.8000 C   0  0  0  0  0  3  0  0  0  0  0  0
  183.0440  176.7270  138.1020 C   0  0  0  0  0  3  0  0  0  0  0  0
  182.6850  177.8420  137.2870 C   0  0  0  0  0  3  0  0  0  0  0  0
  1 10  2  0  0  0  0
  1  2  1  0  0  0  0
  2  5  1  0  0  0  0
  2  7  2  0  0  0  0
  3  6  2  0  0  0  0
  4  8  2  0  0  0  0
  5  4  1  0  0  0  0
  6  9  1  0  0  0  0
  7  6  1  0  0  0  0
  7  8  1  0  0  0  0
 10  3  1  0  0  0  0
 11  1  1  0  0  0  0
 12 11  2  0  0  0  0
 13 12  1  1  0  0  0
 14 13  1  0  0  0  0
 15 23  1  0  0  0  0
 16 20  1  0  0  0  0
 18 13  1  0  0  0  0
 19 23  1  6  0  0  0
 19 21  1  0  0  0  0
 21 18  1  0  0  0  0
 22 19  1  0  0  0  0
 22 20  1  1  0  0  0
 22 25  1  0  0  0  0
 24 26  1  1  0  0  0
 24 15  1  0  0  0  0
 24 16  1  0  0  0  0
 25 17  1  1  0  0  0
 25 14  1  0  0  0  0
 26 27  1  0  0  0  0
 28 29  2  0  0  0  0
 29  5  1  0  0  0  0
 30 33  1  0  0  0  0
 30 28  1  0  0  0  0
 32 33  1  0  0  0  0
 32 34  1  0  0  0  0
 33 34  1  0  0  0  0
 34 31  2  0  0  0  0
 35 36  1  0  0  0  0
 35 39  1  0  0  0  0
 36 38  1  0  0  0  0
 37 36  2  0  0  0  0
 38 32  1  1  0  0  0
 39 38  1  0  0  0  0
 40 35  2  0  0  0  0
 41 37  1  0  0  0  0
 42 40  1  0  0  0  0
 42 41  2  0  0  0  0
M  END
>  <MODEL>
2

>  <REMARK>
 VINA RESULT:      -9.5      2.661      6.225
  Name = 
  7 active torsions:
  status: ('A' for Active; 'I' for Inactive)
    1  A    between atoms: C_1  and  C_3
    2  A    between atoms: C_2  and  C_40
    3  A    between atoms: N_12  and  C_33
    4  A    between atoms: C_17  and  N_19
    5  A    between atoms: C_22  and  C_29
    6  A    between atoms: N_27  and  C_36
    7  A    between atoms: C_29  and  N_38
                            x       y       z     vdW  Elec       q    Type
                         _______ _______ _______ _____ _____    ______ ____

>  <TORSDO>
F 7

$$$$
=
 OpenBabel10232410593D

 42 48  0  0  1  0  0  0  0  0999 V2000
  185.4860  178.2830  144.6400 C   0  0  0  0  0  0  0  0  0  0  0  0
  186.8700  178.0530  144.6260 C   0  0  0  0  0  0  0  0  0  0  0  0
  185.6470  178.4160  147.0840 C   0  0  0  0  0  3  0  0  0  0  0  0
  189.0650  177.5660  144.0220 N   0  0  0  0  0  0  0  0  0  0  0  0
  187.7520  177.7920  143.5470 N   0  0  0  0  0  0  0  0  0  0  0  0
  187.0310  178.1750  147.0200 C   0  0  0  0  0  0  0  0  0  0  0  0
  187.6010  177.9990  145.7610 C   0  0  0  0  0  0  0  0  0  0  0  0
  188.9480  177.7060  145.4270 N   0  0  0  0  0  0  0  0  0  0  0  0
  187.8470  178.1060  148.2630 C   0  0  0  0  0  1  0  0  0  0  0  0
  184.8780  178.4680  145.9010 C   0  0  0  0  0  3  0  0  0  0  0  0
  184.7150  178.3260  143.3900 C   0  0  0  0  0  3  0  0  0  0  0  0
  183.4700  178.7800  143.3110 C   0  0  0  0  0  3  0  0  0  0  0  0
  182.7850  178.7890  141.9900 C   0  0  2  0  0  3  0  0  0  0  0  0
  181.5180  178.1960  142.1110 O   0  0  0  0  0  0  0  0  0  0  0  0
  181.8050  179.5150  137.0450 C   0  0  0  0  0  2  0  0  0  0  0  0
  180.7980  181.3970  138.5040 C   0  0  0  0  0  2  0  0  0  0  0  0
  180.0830  180.1690  142.2770 C   0  0  0  0  0  1  0  0  0  0  0  0
  183.5940  177.9950  140.9800 C   0  0  0  0  0  2  0  0  0  0  0  0
  181.7210  178.2340  139.2580 C   0  0  1  0  0  3  0  0  0  0  0  0
  181.4180  180.7150  139.7220 C   0  0  0  0  0  2  0  0  0  0  0  0
  183.2220  178.3840  139.5530 C   0  0  0  0  0  2  0  0  0  0  0  0
  180.8550  179.3090  139.9480 C   0  0  2  0  0  3  0  0  0  0  0  0
  181.4780  178.1970  137.7470 C   0  0  0  0  0  2  0  0  0  0  0  0
  180.6650  180.5140  137.2530 C   0  0  1  0  0  3  0  0  0  0  0  0
  180.5650  178.9910  141.4360 C   0  0  1  0  0  3  0  0  0  0  0  0
  180.4190  181.3150  136.0520 N   0  0  0  0  0  2  0  0  0  0  0  0
  180.4030  182.7360  136.3810 C   0  0  0  0  0  1  0  0  0  0  0  0
  187.8520  178.5420  141.2580 C   0  0  0  0  0  3  0  0  0  0  0  0
  187.3770  177.7030  142.1700 C   0  0  0  0  0  3  0  0  0  0  0  0
  187.4390  178.4130  139.8310 C   0  0  0  0  0  2  0  0  0  0  0  0
  190.7680  176.6910  139.4560 O   0  0  0  0  0  0  0  0  0  0  0  0
  188.5780  176.5950  138.0870 N   0  0  0  0  0  0  0  0  0  0  0  0
  188.3430  177.5200  139.1240 N   0  0  0  0  0  0  0  0  0  0  0  0
  189.6010  176.8780  139.0240 C   0  0  0  0  0  0  0  0  0  0  0  0
  186.7450  174.2820  137.0260 C   0  0  0  0  0  0  0  0  0  0  0  0
  186.6500  175.6970  136.9680 C   0  0  0  0  0  0  0  0  0  0  0  0
  185.4450  176.3740  136.9900 C   0  0  0  0  0  3  0  0  0  0  0  0
  188.1180  175.9050  136.8940 C   0  0  2  0  0  3  0  0  0  0  0  0
  188.5480  174.2320  136.9710 S   0  0  0  0  0  0  0  0  0  0  0  0
  185.6390  173.4580  137.1110 C   0  0  0  0  0  3  0  0  0  0  0  0
  184.2970  175.5500  137.0750 C   0  0  0  0  0  3  0  0  0  0  0  0
  184.3920  174.1270  137.1350 C   0  0  0  0  0  3  0  0  0  0  0  0
  1 10  1  0  0  0  0
  2  1  2  0  0  0  0
  2  7  1  0  0  0  0
  4  8  2  0  0  0  0
  5  4  1  0  0  0  0
  5  2  1  0  0  0  0
  6  3  1  0  0  0  0
  6  9  1  0  0  0  0
  7  6  2  0  0  0  0
  8  7  1  0  0  0  0
 10  3  2  0  0  0  0
 11  1  1  0  0  0  0
 12 11  2  0  0  0  0
 13 14  1  0  0  0  0
 13 12  1  1  0  0  0
 15 24  1  0  0  0  0
 15 23  1  0  0  0  0
 16 20  1  0  0  0  0
 18 13  1  0  0  0  0
 19 23  1  6  0  0  0
 19 21  1  0  0  0  0
 19 22  1  0  0  0  0
 21 18  1  0  0  0  0
 22 20  1  1  0  0  0
 22 25  1  0  0  0  0
 24 26  1  6  0  0  0
 24 16  1  0  0  0  0
 25 14  1  0  0  0  0
 25 17  1  1  0  0  0
 26 27  1  0  0  0  0
 28 29  2  0  0  0  0
 29  5  1  0  0  0  0
 30 28  1  0  0  0  0
 32 34  1  0  0  0  0
 32 33  1  0  0  0  0
 33 30  1  0  0  0  0
 34 33  1  0  0  0  0
 34 31  2  0  0  0  0
 35 40  1  0  0  0  0
 36 37  1  0  0  0  0
 36 35  2  0  0  0  0
 37 41  2  0  0  0  0
 38 36  1  0  0  0  0
 38 39  1  0  0  0  0
 38 32  1  1  0  0  0
 39 35  1  0  0  0  0
 40 42  2  0  0  0  0
 41 42  1  0  0  0  0
M  END
>  <MODEL>
3

>  <REMARK>
 VINA RESULT:      -9.3      2.109      3.223
  Name = 
  7 active torsions:
  status: ('A' for Active; 'I' for Inactive)
    1  A    between atoms: C_1  and  C_3
    2  A    between atoms: C_2  and  C_40
    3  A    between atoms: N_12  and  C_33
    4  A    between atoms: C_17  and  N_19
    5  A    between atoms: C_22  and  C_29
    6  A    between atoms: N_27  and  C_36
    7  A    between atoms: C_29  and  N_38
                            x       y       z     vdW  Elec       q    Type
                         _______ _______ _______ _____ _____    ______ ____

>  <TORSDO>
F 7

$$$$
=
 OpenBabel10232410593D

 42 48  0  0  1  0  0  0  0  0999 V2000
  188.1760  177.3890  145.3480 C   0  0  0  0  0  0  0  0  0  0  0  0
  189.4480  177.2070  144.7870 C   0  0  0  0  0  0  0  0  0  0  0  0
  189.2160  177.0190  147.5400 C   0  0  0  0  0  3  0  0  0  0  0  0
  191.2500  176.9180  143.3400 N   0  0  0  0  0  0  0  0  0  0  0  0
  189.8670  177.2000  143.4310 N   0  0  0  0  0  0  0  0  0  0  0  0
  190.4700  176.8370  146.9290 C   0  0  0  0  0  0  0  0  0  0  0  0
  190.5370  176.9400  145.5410 C   0  0  0  0  0  0  0  0  0  0  0  0
  191.6550  176.7620  144.6880 N   0  0  0  0  0  0  0  0  0  0  0  0
  191.6760  176.5360  147.7490 C   0  0  0  0  0  1  0  0  0  0  0  0
  188.0750  177.2920  146.7540 C   0  0  0  0  0  3  0  0  0  0  0  0
  187.0080  177.6670  144.5010 C   0  0  0  0  0  3  0  0  0  0  0  0
  185.9070  178.2640  144.9420 C   0  0  0  0  0  3  0  0  0  0  0  0
  184.7870  178.5070  143.9950 C   0  0  2  0  0  3  0  0  0  0  0  0
  185.0270  179.6870  143.2720 O   0  0  0  0  0  0  0  0  0  0  0  0
  180.4250  177.9950  141.4150 C   0  0  0  0  0  2  0  0  0  0  0  0
  182.4350  177.0580  140.0850 C   0  0  0  0  0  2  0  0  0  0  0  0
  185.9090  178.7890  141.1750 C   0  0  0  0  0  1  0  0  0  0  0  0
  183.4840  178.6660  144.7590 C   0  0  0  0  0  2  0  0  0  0  0  0
  182.2710  179.3070  142.6030 C   0  0  1  0  0  3  0  0  0  0  0  0
  183.3220  177.4090  141.2790 C   0  0  0  0  0  2  0  0  0  0  0  0
  182.2830  178.4130  143.8530 C   0  0  0  0  0  2  0  0  0  0  0  0
  183.3410  178.9140  141.5630 C   0  0  2  0  0  3  0  0  0  0  0  0
  180.8700  179.3400  141.9870 C   0  0  0  0  0  2  0  0  0  0  0  0
  181.0730  177.7690  140.0480 C   0  0  1  0  0  3  0  0  0  0  0  0
  184.7500  179.4600  141.9050 C   0  0  1  0  0  3  0  0  0  0  0  0
  180.1530  177.1210  139.1100 N   0  0  0  0  0  2  0  0  0  0  0  0
  180.7420  175.8950  138.5830 C   0  0  0  0  0  1  0  0  0  0  0  0
  189.4990  177.4960  141.0670 C   0  0  0  0  0  3  0  0  0  0  0  0
  189.0150  177.3860  142.2980 C   0  0  0  0  0  3  0  0  0  0  0  0
  188.5760  177.6840  139.9110 C   0  0  0  0  0  2  0  0  0  0  0  0
  189.2490  178.0390  136.2230 O   0  0  0  0  0  0  0  0  0  0  0  0
  190.1090  176.3860  138.0120 N   0  0  0  0  0  0  0  0  0  0  0  0
  189.2140  177.2440  138.6800 N   0  0  0  0  0  0  0  0  0  0  0  0
  189.4570  177.4180  137.2970 C   0  0  0  0  0  0  0  0  0  0  0  0
  191.9820  174.5740  136.2660 C   0  0  0  0  0  0  0  0  0  0  0  0
  192.2360  175.5470  137.2690 C   0  0  0  0  0  0  0  0  0  0  0  0
  193.3510  176.3630  137.2650 C   0  0  0  0  0  3  0  0  0  0  0  0
  191.0020  175.2400  138.0370 C   0  0  2  0  0  3  0  0  0  0  0  0
  190.4200  174.0090  136.9700 S   0  0  0  0  0  0  0  0  0  0  0  0
  192.8300  174.3610  135.1960 C   0  0  0  0  0  3  0  0  0  0  0  0
  194.2350  176.1610  136.1780 C   0  0  0  0  0  3  0  0  0  0  0  0
  193.9810  175.1840  135.1680 C   0  0  0  0  0  3  0  0  0  0  0  0
  1 10  1  0  0  0  0
  2  1  2  0  0  0  0
  2  7  1  0  0  0  0
  4  5  1  0  0  0  0
  4  8  2  0  0  0  0
  5  2  1  0  0  0  0
  6  3  1  0  0  0  0
  6  9  1  0  0  0  0
  7  6  2  0  0  0  0
  8  7  1  0  0  0  0
 10  3  2  0  0  0  0
 11 12  2  0  0  0  0
 11  1  1  0  0  0  0
 13 18  1  0  0  0  0
 13 12  1  1  0  0  0
 14 13  1  0  0  0  0
 15 23  1  0  0  0  0
 16 20  1  0  0  0  0
 19 23  1  6  0  0  0
 19 21  1  0  0  0  0
 21 18  1  0  0  0  0
 22 20  1  1  0  0  0
 22 25  1  0  0  0  0
 22 19  1  0  0  0  0
 24 26  1  6  0  0  0
 24 16  1  0  0  0  0
 24 15  1  0  0  0  0
 25 17  1  1  0  0  0
 25 14  1  0  0  0  0
 27 26  1  0  0  0  0
 28 29  2  0  0  0  0
 29  5  1  0  0  0  0
 30 28  1  0  0  0  0
 31 34  2  0  0  0  0
 32 33  1  0  0  0  0
 33 30  1  0  0  0  0
 34 32  1  0  0  0  0
 34 33  1  0  0  0  0
 35 39  1  0  0  0  0
 35 36  1  0  0  0  0
 36 38  1  0  0  0  0
 37 36  2  0  0  0  0
 38 32  1  6  0  0  0
 39 38  1  0  0  0  0
 40 35  2  0  0  0  0
 41 37  1  0  0  0  0
 42 40  1  0  0  0  0
 42 41  2  0  0  0  0
M  END
>  <MODEL>
4

>  <REMARK>
 VINA RESULT:      -9.3      1.742      3.063
  Name = 
  7 active torsions:
  status: ('A' for Active; 'I' for Inactive)
    1  A    between atoms: C_1  and  C_3
    2  A    between atoms: C_2  and  C_40
    3  A    between atoms: N_12  and  C_33
    4  A    between atoms: C_17  and  N_19
    5  A    between atoms: C_22  and  C_29
    6  A    between atoms: N_27  and  C_36
    7  A    between atoms: C_29  and  N_38
                            x       y       z     vdW  Elec       q    Type
                         _______ _______ _______ _____ _____    ______ ____

>  <TORSDO>
F 7

$$$$
=
 OpenBabel10232410593D

 42 48  0  0  1  0  0  0  0  0999 V2000
  184.2280  178.2450  138.6970 C   0  0  0  0  0  0  0  0  0  0  0  0
  184.1130  178.5390  140.0630 C   0  0  0  0  0  0  0  0  0  0  0  0
  181.7810  178.3870  138.5780 C   0  0  0  0  0  3  0  0  0  0  0  0
  184.5110  178.9020  142.3290 N   0  0  0  0  0  0  0  0  0  0  0  0
  185.1050  178.6380  141.0730 N   0  0  0  0  0  0  0  0  0  0  0  0
  181.7170  178.6720  139.9530 C   0  0  0  0  0  0  0  0  0  0  0  0
  182.9170  178.7380  140.6590 C   0  0  0  0  0  0  0  0  0  0  0  0
  183.1250  178.9650  142.0430 N   0  0  0  0  0  0  0  0  0  0  0  0
  180.4050  178.8860  140.6230 C   0  0  0  0  0  1  0  0  0  0  0  0
  183.0290  178.1720  137.9530 C   0  0  0  0  0  3  0  0  0  0  0  0
  185.5420  178.0230  138.0780 C   0  0  0  0  0  3  0  0  0  0  0  0
  185.8400  176.9540  137.3500 C   0  0  0  0  0  3  0  0  0  0  0  0
  187.2000  176.8360  136.7600 C   0  0  2  0  0  3  0  0  0  0  0  0
  187.5860  178.0700  136.2120 O   0  0  0  0  0  0  0  0  0  0  0  0
  191.6820  174.9400  135.2580 C   0  0  0  0  0  2  0  0  0  0  0  0
  191.8760  176.1600  137.5290 C   0  0  0  0  0  2  0  0  0  0  0  0
  189.0090  178.9560  137.9930 C   0  0  0  0  0  1  0  0  0  0  0  0
  187.1990  175.7960  135.6530 C   0  0  0  0  0  2  0  0  0  0  0  0
  189.6020  176.4120  135.0400 C   0  0  1  0  0  3  0  0  0  0  0  0
  190.3700  176.4130  137.4640 C   0  0  0  0  0  2  0  0  0  0  0  0
  188.6100  175.2880  135.3770 C   0  0  0  0  0  2  0  0  0  0  0  0
  189.9790  177.2770  136.2620 C   0  0  2  0  0  3  0  0  0  0  0  0
  190.8420  175.8370  134.3500 C   0  0  0  0  0  2  0  0  0  0  0  0
  192.5400  175.7960  136.1910 C   0  0  1  0  0  3  0  0  0  0  0  0
  188.9160  178.3540  136.5950 C   0  0  1  0  0  3  0  0  0  0  0  0
  193.8700  175.2180  136.3900 N   0  0  0  0  0  2  0  0  0  0  0  0
  193.9820  174.6410  137.7250 C   0  0  0  0  0  1  0  0  0  0  0  0
  187.3710  178.5090  141.8870 C   0  0  0  0  0  3  0  0  0  0  0  0
  186.5080  178.4400  140.8800 C   0  0  0  0  0  3  0  0  0  0  0  0
  188.8260  178.2920  141.6460 C   0  0  0  0  0  2  0  0  0  0  0  0
  191.7590  179.0000  143.8990 O   0  0  0  0  0  0  0  0  0  0  0  0
  189.5640  177.6790  144.2380 N   0  0  0  0  0  0  0  0  0  0  0  0
  189.5300  178.1470  142.9100 N   0  0  0  0  0  0  0  0  0  0  0  0
  190.6400  178.4480  143.7340 C   0  0  0  0  0  0  0  0  0  0  0  0
  188.0660  177.8870  146.9860 C   0  0  0  0  0  0  0  0  0  0  0  0
  187.6490  177.5110  145.6820 C   0  0  0  0  0  0  0  0  0  0  0  0
  186.3790  177.7550  145.1960 C   0  0  0  0  0  3  0  0  0  0  0  0
  188.9580  176.9130  145.3140 C   0  0  2  0  0  3  0  0  0  0  0  0
  189.7500  177.2620  146.8120 S   0  0  0  0  0  0  0  0  0  0  0  0
  187.2350  178.5310  147.8830 C   0  0  0  0  0  3  0  0  0  0  0  0
  185.5090  178.4130  146.0980 C   0  0  0  0  0  3  0  0  0  0  0  0
  185.9270  178.7920  147.4100 C   0  0  0  0  0  3  0  0  0  0  0  0
  1  2  1  0  0  0  0
  2  7  2  0  0  0  0
  2  5  1  0  0  0  0
  3  6  2  0  0  0  0
  5  4  1  0  0  0  0
  6  9  1  0  0  0  0
  6  7  1  0  0  0  0
  7  8  1  0  0  0  0
  8  4  2  0  0  0  0
 10  3  1  0  0  0  0
 10  1  2  0  0  0  0
 11  1  1  0  0  0  0
 12 11  2  0  0  0  0
 13 12  1  6  0  0  0
 14 25  1  0  0  0  0
 14 13  1  0  0  0  0
 15 24  1  0  0  0  0
 18 13  1  0  0  0  0
 19 23  1  1  0  0  0
 19 21  1  0  0  0  0
 19 22  1  0  0  0  0
 20 16  1  0  0  0  0
 21 18  1  0  0  0  0
 22 25  1  0  0  0  0
 22 20  1  1  0  0  0
 23 15  1  0  0  0  0
 24 26  1  1  0  0  0
 24 16  1  0  0  0  0
 25 17  1  1  0  0  0
 26 27  1  0  0  0  0
 29  5  1  0  0  0  0
 29 28  2  0  0  0  0
 30 28  1  0  0  0  0
 30 33  1  0  0  0  0
 33 34  1  0  0  0  0
 33 32  1  0  0  0  0
 34 31  2  0  0  0  0
 34 32  1  0  0  0  0
 35 40  1  0  0  0  0
 36 35  2  0  0  0  0
 37 36  1  0  0  0  0
 37 41  2  0  0  0  0
 38 32  1  6  0  0  0
 38 36  1  0  0  0  0
 38 39  1  0  0  0  0
 39 35  1  0  0  0  0
 41 42  1  0  0  0  0
 42 40  2  0  0  0  0
M  END
>  <MODEL>
5

>  <REMARK>
 VINA RESULT:      -9.3      3.133      9.218
  Name = 
  7 active torsions:
  status: ('A' for Active; 'I' for Inactive)
    1  A    between atoms: C_1  and  C_3
    2  A    between atoms: C_2  and  C_40
    3  A    between atoms: N_12  and  C_33
    4  A    between atoms: C_17  and  N_19
    5  A    between atoms: C_22  and  C_29
    6  A    between atoms: N_27  and  C_36
    7  A    between atoms: C_29  and  N_38
                            x       y       z     vdW  Elec       q    Type
                         _______ _______ _______ _____ _____    ______ ____

>  <TORSDO>
F 7

$$$$
=
 OpenBabel10232410593D

 42 48  0  0  1  0  0  0  0  0999 V2000
  190.6070  176.3210  136.5320 C   0  0  0  0  0  0  0  0  0  0  0  0
  191.7250  176.3440  137.3790 C   0  0  0  0  0  0  0  0  0  0  0  0
  192.0210  175.1780  134.8840 C   0  0  0  0  0  3  0  0  0  0  0  0
  193.2230  176.7320  139.1190 N   0  0  0  0  0  0  0  0  0  0  0  0
  191.8910  176.9010  138.6730 N   0  0  0  0  0  0  0  0  0  0  0  0
  193.1160  175.2330  135.7650 C   0  0  0  0  0  0  0  0  0  0  0  0
  192.9180  175.8300  137.0100 C   0  0  0  0  0  0  0  0  0  0  0  0
  193.8550  176.0470  138.0520 N   0  0  0  0  0  0  0  0  0  0  0  0
  194.4380  174.6760  135.3680 C   0  0  0  0  0  1  0  0  0  0  0  0
  190.7740  175.7210  135.2650 C   0  0  0  0  0  3  0  0  0  0  0  0
  189.3240  176.8980  136.9570 C   0  0  0  0  0  3  0  0  0  0  0  0
  188.1700  176.2450  136.8980 C   0  0  0  0  0  3  0  0  0  0  0  0
  186.9300  176.9220  137.3650 C   0  0  2  0  0  3  0  0  0  0  0  0
  186.2710  177.5070  136.2720 O   0  0  0  0  0  0  0  0  0  0  0  0
  183.2150  178.6970  140.3620 C   0  0  0  0  0  2  0  0  0  0  0  0
  182.5560  176.4570  139.2510 C   0  0  0  0  0  2  0  0  0  0  0  0
  184.5500  175.8340  135.8040 C   0  0  0  0  0  1  0  0  0  0  0  0
  187.2790  178.0150  138.3600 C   0  0  0  0  0  2  0  0  0  0  0  0
  184.8440  178.7920  138.3930 C   0  0  1  0  0  3  0  0  0  0  0  0
  183.9430  176.4250  138.6120 C   0  0  0  0  0  2  0  0  0  0  0  0
  186.0720  178.3780  139.2190 C   0  0  0  0  0  2  0  0  0  0  0  0
  184.1720  177.6080  137.6660 C   0  0  2  0  0  3  0  0  0  0  0  0
  183.8480  179.5560  139.2690 C   0  0  0  0  0  2  0  0  0  0  0  0
  182.1020  177.8320  139.7680 C   0  0  1  0  0  3  0  0  0  0  0  0
  184.8910  177.2170  136.3510 C   0  0  1  0  0  3  0  0  0  0  0  0
  180.9600  177.7150  140.6770 N   0  0  0  0  0  2  0  0  0  0  0  0
  180.9650  178.8030  141.6480 C   0  0  0  0  0  1  0  0  0  0  0  0
  190.4260  177.1380  140.5730 C   0  0  0  0  0  3  0  0  0  0  0  0
  190.8850  177.5950  139.4140 C   0  0  0  0  0  3  0  0  0  0  0  0
  189.3800  177.8950  141.3180 C   0  0  0  0  0  2  0  0  0  0  0  0
  191.4570  179.4110  144.0690 O   0  0  0  0  0  0  0  0  0  0  0  0
  189.5260  177.6940  144.0710 N   0  0  0  0  0  0  0  0  0  0  0  0
  189.7490  178.0200  142.7180 N   0  0  0  0  0  0  0  0  0  0  0  0
  190.5370  178.6230  143.7280 C   0  0  0  0  0  0  0  0  0  0  0  0
  187.7570  177.8820  146.6550 C   0  0  0  0  0  0  0  0  0  0  0  0
  187.4740  177.5190  145.3120 C   0  0  0  0  0  0  0  0  0  0  0  0
  186.2600  177.7690  144.7020 C   0  0  0  0  0  3  0  0  0  0  0  0
  188.8130  176.9210  145.0730 C   0  0  2  0  0  3  0  0  0  0  0  0
  189.4500  177.2550  146.6460 S   0  0  0  0  0  0  0  0  0  0  0  0
  186.8410  178.5210  147.4690 C   0  0  0  0  0  3  0  0  0  0  0  0
  185.3040  178.4220  145.5180 C   0  0  0  0  0  3  0  0  0  0  0  0
  185.5880  178.7890  146.8680 C   0  0  0  0  0  3  0  0  0  0  0  0
  1 11  1  0  0  0  0
  1  2  1  0  0  0  0
  2  5  1  0  0  0  0
  3 10  1  0  0  0  0
  3  6  2  0  0  0  0
  5  4  1  0  0  0  0
  5 29  1  0  0  0  0
  6  7  1  0  0  0  0
  7  2  2  0  0  0  0
  7  8  1  0  0  0  0
  8  4  2  0  0  0  0
  9  6  1  0  0  0  0
 10  1  2  0  0  0  0
 12 11  2  0  0  0  0
 13 12  1  6  0  0  0
 13 18  1  0  0  0  0
 14 25  1  0  0  0  0
 14 13  1  0  0  0  0
 16 24  1  0  0  0  0
 18 21  1  0  0  0  0
 19 21  1  1  0  0  0
 19 23  1  0  0  0  0
 20 16  1  0  0  0  0
 22 19  1  0  0  0  0
 22 20  1  1  0  0  0
 23 15  1  0  0  0  0
 24 15  1  0  0  0  0
 24 26  1  1  0  0  0
 25 17  1  1  0  0  0
 25 22  1  0  0  0  0
 26 27  1  0  0  0  0
 28 30  1  0  0  0  0
 29 28  2  0  0  0  0
 30 33  1  0  0  0  0
 33 34  1  0  0  0  0
 33 32  1  0  0  0  0
 34 31  2  0  0  0  0
 34 32  1  0  0  0  0
 35 40  1  0  0  0  0
 36 35  2  0  0  0  0
 37 36  1  0  0  0  0
 37 41  2  0  0  0  0
 38 32  1  6  0  0  0
 38 36  1  0  0  0  0
 38 39  1  0  0  0  0
 39 35  1  0  0  0  0
 41 42  1  0  0  0  0
 42 40  2  0  0  0  0
M  END
>  <MODEL>
6

>  <REMARK>
 VINA RESULT:      -9.2      2.968      7.432
  Name = 
  7 active torsions:
  status: ('A' for Active; 'I' for Inactive)
    1  A    between atoms: C_1  and  C_3
    2  A    between atoms: C_2  and  C_40
    3  A    between atoms: N_12  and  C_33
    4  A    between atoms: C_17  and  N_19
    5  A    between atoms: C_22  and  C_29
    6  A    between atoms: N_27  and  C_36
    7  A    between atoms: C_29  and  N_38
                            x       y       z     vdW  Elec       q    Type
                         _______ _______ _______ _____ _____    ______ ____

>  <TORSDO>
F 7

$$$$
=
 OpenBabel10232410593D

 42 48  0  0  1  0  0  0  0  0999 V2000
  183.7840  178.6030  141.6780 C   0  0  0  0  0  0  0  0  0  0  0  0
  184.2690  178.8470  140.3850 C   0  0  0  0  0  0  0  0  0  0  0  0
  181.5630  179.2240  140.8400 C   0  0  0  0  0  3  0  0  0  0  0  0
  185.6050  179.1720  138.5060 N   0  0  0  0  0  0  0  0  0  0  0  0
  185.5880  178.7850  139.8660 N   0  0  0  0  0  0  0  0  0  0  0  0
  182.0970  179.4630  139.5610 C   0  0  0  0  0  0  0  0  0  0  0  0
  183.4640  179.2590  139.3810 C   0  0  0  0  0  0  0  0  0  0  0  0
  184.2490  179.4640  138.2180 N   0  0  0  0  0  0  0  0  0  0  0  0
  181.2240  179.9250  138.4480 C   0  0  0  0  0  1  0  0  0  0  0  0
  182.4020  178.7990  141.8940 C   0  0  0  0  0  3  0  0  0  0  0  0
  184.6850  178.1650  142.7540 C   0  0  0  0  0  3  0  0  0  0  0  0
  185.2120  178.9890  143.6510 C   0  0  0  0  0  3  0  0  0  0  0  0
  186.1040  178.4350  144.7050 C   0  0  2  0  0  3  0  0  0  0  0  0
  185.9100  177.0480  144.8080 O   0  0  0  0  0  0  0  0  0  0  0  0
  189.5670  178.0710  148.4220 C   0  0  0  0  0  2  0  0  0  0  0  0
  190.5850  177.5160  146.1110 C   0  0  0  0  0  2  0  0  0  0  0  0
  187.8020  176.2070  143.5060 C   0  0  0  0  0  1  0  0  0  0  0  0
  185.7780  179.0680  146.0470 C   0  0  0  0  0  2  0  0  0  0  0  0
  187.3920  177.4700  147.2180 C   0  0  1  0  0  3  0  0  0  0  0  0
  189.2240  177.8290  145.4930 C   0  0  0  0  0  2  0  0  0  0  0  0
  186.9460  178.9260  147.0170 C   0  0  0  0  0  2  0  0  0  0  0  0
  188.1290  176.8840  145.9950 C   0  0  2  0  0  3  0  0  0  0  0  0
  188.2260  177.3410  148.4950 C   0  0  0  0  0  2  0  0  0  0  0  0
  190.5720  177.2400  147.6240 C   0  0  1  0  0  3  0  0  0  0  0  0
  187.1660  176.4060  144.8790 C   0  0  1  0  0  3  0  0  0  0  0  0
  191.9180  177.3170  148.1970 N   0  0  0  0  0  2  0  0  0  0  0  0
  192.5650  176.0110  148.1560 C   0  0  0  0  0  1  0  0  0  0  0  0
  187.8810  178.0580  140.0180 C   0  0  0  0  0  3  0  0  0  0  0  0
  186.7580  178.4420  140.6120 C   0  0  0  0  0  3  0  0  0  0  0  0
  189.0820  177.7140  140.8320 C   0  0  0  0  0  2  0  0  0  0  0  0
  192.7890  177.4850  140.2070 O   0  0  0  0  0  0  0  0  0  0  0  0
  190.7260  176.9880  138.7320 N   0  0  0  0  0  0  0  0  0  0  0  0
  190.2170  177.4410  139.9650 N   0  0  0  0  0  0  0  0  0  0  0  0
  191.6160  177.3500  139.7720 C   0  0  0  0  0  0  0  0  0  0  0  0
  188.5480  175.9880  136.7100 C   0  0  0  0  0  0  0  0  0  0  0  0
  189.2840  177.1960  136.8200 C   0  0  0  0  0  0  0  0  0  0  0  0
  188.7740  178.4280  136.4550 C   0  0  0  0  0  3  0  0  0  0  0  0
  190.4970  176.5380  137.3690 C   0  0  2  0  0  3  0  0  0  0  0  0
  189.8530  174.9330  137.3740 S   0  0  0  0  0  0  0  0  0  0  0  0
  187.2530  175.9390  136.2280 C   0  0  0  0  0  3  0  0  0  0  0  0
  187.4490  178.4020  135.9560 C   0  0  0  0  0  3  0  0  0  0  0  0
  186.7070  177.1870  135.8460 C   0  0  0  0  0  3  0  0  0  0  0  0
  1 10  1  0  0  0  0
  1 11  1  0  0  0  0
  2  1  2  0  0  0  0
  3 10  2  0  0  0  0
  4  5  1  0  0  0  0
  5  2  1  0  0  0  0
  5 29  1  0  0  0  0
  6  3  1  0  0  0  0
  7  6  2  0  0  0  0
  7  2  1  0  0  0  0
  8  4  2  0  0  0  0
  8  7  1  0  0  0  0
  9  6  1  0  0  0  0
 11 12  2  0  0  0  0
 13 12  1  6  0  0  0
 13 14  1  0  0  0  0
 13 18  1  0  0  0  0
 14 25  1  0  0  0  0
 15 23  1  0  0  0  0
 16 24  1  0  0  0  0
 18 21  1  0  0  0  0
 19 21  1  6  0  0  0
 19 23  1  0  0  0  0
 20 16  1  0  0  0  0
 22 20  1  6  0  0  0
 22 19  1  0  0  0  0
 24 26  1  1  0  0  0
 24 15  1  0  0  0  0
 25 17  1  6  0  0  0
 25 22  1  0  0  0  0
 27 26  1  0  0  0  0
 28 29  2  0  0  0  0
 28 30  1  0  0  0  0
 32 34  1  0  0  0  0
 32 33  1  0  0  0  0
 33 30  1  0  0  0  0
 34 33  1  0  0  0  0
 34 31  2  0  0  0  0
 35 36  1  0  0  0  0
 35 39  1  0  0  0  0
 36 38  1  0  0  0  0
 37 36  2  0  0  0  0
 38 39  1  0  0  0  0
 38 32  1  1  0  0  0
 40 35  2  0  0  0  0
 41 37  1  0  0  0  0
 42 41  2  0  0  0  0
 42 40  1  0  0  0  0
M  END
>  <MODEL>
7

>  <REMARK>
 VINA RESULT:      -9.2      2.103      7.234
  Name = 
  7 active torsions:
  status: ('A' for Active; 'I' for Inactive)
    1  A    between atoms: C_1  and  C_3
    2  A    between atoms: C_2  and  C_40
    3  A    between atoms: N_12  and  C_33
    4  A    between atoms: C_17  and  N_19
    5  A    between atoms: C_22  and  C_29
    6  A    between atoms: N_27  and  C_36
    7  A    between atoms: C_29  and  N_38
                            x       y       z     vdW  Elec       q    Type
                         _______ _______ _______ _____ _____    ______ ____

>  <TORSDO>
F 7

$$$$
=
 OpenBabel10232410593D

 42 48  0  0  1  0  0  0  0  0999 V2000
  191.7490  176.3060  138.0670 C   0  0  0  0  0  0  0  0  0  0  0  0
  191.1610  176.2550  136.7950 C   0  0  0  0  0  0  0  0  0  0  0  0
  193.9220  176.4200  136.9340 C   0  0  0  0  0  3  0  0  0  0  0  0
  189.6880  176.0620  135.0020 N   0  0  0  0  0  0  0  0  0  0  0  0
  189.8020  176.1260  136.4110 N   0  0  0  0  0  0  0  0  0  0  0  0
  193.2870  176.3580  135.6810 C   0  0  0  0  0  0  0  0  0  0  0  0
  191.8960  176.2760  135.6620 C   0  0  0  0  0  0  0  0  0  0  0  0
  191.0260  176.1630  134.5480 N   0  0  0  0  0  0  0  0  0  0  0  0
  194.0860  176.3740  134.4250 C   0  0  0  0  0  1  0  0  0  0  0  0
  193.1580  176.3920  138.1210 C   0  0  0  0  0  3  0  0  0  0  0  0
  190.9250  176.2710  139.2840 C   0  0  0  0  0  3  0  0  0  0  0  0
  190.9920  177.1860  140.2430 C   0  0  0  0  0  3  0  0  0  0  0  0
  190.1020  177.0590  141.4280 C   0  0  2  0  0  3  0  0  0  0  0  0
  190.0820  175.7240  141.8630 O   0  0  0  0  0  0  0  0  0  0  0  0
  186.8840  178.1790  145.2130 C   0  0  0  0  0  2  0  0  0  0  0  0
  189.3390  178.1530  146.0250 C   0  0  0  0  0  2  0  0  0  0  0  0
  191.6690  175.8040  143.7220 C   0  0  0  0  0  1  0  0  0  0  0  0
  188.6860  177.4680  141.0620 C   0  0  0  0  0  2  0  0  0  0  0  0
  187.8500  176.7110  143.3550 C   0  0  1  0  0  3  0  0  0  0  0  0
  189.7570  177.8540  144.5860 C   0  0  0  0  0  2  0  0  0  0  0  0
  187.8830  177.8330  142.3060 C   0  0  0  0  0  2  0  0  0  0  0  0
  189.1960  176.5210  144.0850 C   0  0  2  0  0  3  0  0  0  0  0  0
  186.7000  176.9390  144.3400 C   0  0  0  0  0  2  0  0  0  0  0  0
  187.8620  177.8770  146.3500 C   0  0  1  0  0  3  0  0  0  0  0  0
  190.2170  175.6890  143.2680 C   0  0  1  0  0  3  0  0  0  0  0  0
  187.4570  178.5210  147.6010 N   0  0  0  0  0  2  0  0  0  0  0  0
  188.2350  178.0000  148.7190 C   0  0  0  0  0  1  0  0  0  0  0  0
  187.5840  176.7230  137.1420 C   0  0  0  0  0  3  0  0  0  0  0  0
  188.6930  176.0130  137.3060 C   0  0  0  0  0  3  0  0  0  0  0  0
  186.4470  176.5720  138.0950 C   0  0  0  0  0  2  0  0  0  0  0  0
  183.8510  176.9400  135.3920 O   0  0  0  0  0  0  0  0  0  0  0  0
  184.1510  178.0600  137.7010 N   0  0  0  0  0  0  0  0  0  0  0  0
  185.2480  177.1890  137.5510 N   0  0  0  0  0  0  0  0  0  0  0  0
  184.2810  177.2880  136.5220 C   0  0  0  0  0  0  0  0  0  0  0  0
  182.5890  178.5820  140.3700 C   0  0  0  0  0  0  0  0  0  0  0  0
  183.8660  178.9870  139.9000 C   0  0  0  0  0  0  0  0  0  0  0  0
  184.9540  179.1700  140.7330 C   0  0  0  0  0  3  0  0  0  0  0  0
  183.4430  179.0630  138.4790 C   0  0  2  0  0  3  0  0  0  0  0  0
  181.8080  178.5650  138.7430 S   0  0  0  0  0  0  0  0  0  0  0  0
  182.3230  178.3330  141.7040 C   0  0  0  0  0  3  0  0  0  0  0  0
  184.7050  178.9220  142.1050 C   0  0  0  0  0  3  0  0  0  0  0  0
  183.4220  178.5130  142.5780 C   0  0  0  0  0  3  0  0  0  0  0  0
  1 10  1  0  0  0  0
  1 11  1  0  0  0  0
  2  1  2  0  0  0  0
  3 10  2  0  0  0  0
  4  5  1  0  0  0  0
  5  2  1  0  0  0  0
  5 29  1  0  0  0  0
  6  3  1  0  0  0  0
  7  6  2  0  0  0  0
  7  2  1  0  0  0  0
  8  4  2  0  0  0  0
  8  7  1  0  0  0  0
  9  6  1  0  0  0  0
 11 12  2  0  0  0  0
 13 12  1  6  0  0  0
 13 14  1  0  0  0  0
 14 25  1  0  0  0  0
 15 24  1  0  0  0  0
 16 24  1  0  0  0  0
 18 13  1  0  0  0  0
 18 21  1  0  0  0  0
 19 21  1  6  0  0  0
 19 22  1  0  0  0  0
 19 23  1  0  0  0  0
 20 16  1  0  0  0  0
 22 20  1  6  0  0  0
 23 15  1  0  0  0  0
 24 26  1  1  0  0  0
 25 17  1  6  0  0  0
 25 22  1  0  0  0  0
 26 27  1  0  0  0  0
 28 29  2  0  0  0  0
 28 30  1  0  0  0  0
 31 34  2  0  0  0  0
 33 32  1  0  0  0  0
 33 30  1  0  0  0  0
 34 33  1  0  0  0  0
 34 32  1  0  0  0  0
 35 40  1  0  0  0  0
 36 35  2  0  0  0  0
 36 37  1  0  0  0  0
 37 41  2  0  0  0  0
 38 32  1  6  0  0  0
 38 39  1  0  0  0  0
 38 36  1  0  0  0  0
 39 35  1  0  0  0  0
 40 42  2  0  0  0  0
 41 42  1  0  0  0  0
M  END
>  <MODEL>
8

>  <REMARK>
 VINA RESULT:      -9.1      2.936      7.861
  Name = 
  7 active torsions:
  status: ('A' for Active; 'I' for Inactive)
    1  A    between atoms: C_1  and  C_3
    2  A    between atoms: C_2  and  C_40
    3  A    between atoms: N_12  and  C_33
    4  A    between atoms: C_17  and  N_19
    5  A    between atoms: C_22  and  C_29
    6  A    between atoms: N_27  and  C_36
    7  A    between atoms: C_29  and  N_38
                            x       y       z     vdW  Elec       q    Type
                         _______ _______ _______ _____ _____    ______ ____

>  <TORSDO>
F 7

$$$$
=
 OpenBabel10232410593D

 42 48  0  0  1  0  0  0  0  0999 V2000
  191.3130  174.4160  136.7770 C   0  0  0  0  0  0  0  0  0  0  0  0
  192.2160  175.1750  137.5360 C   0  0  0  0  0  0  0  0  0  0  0  0
  193.1410  172.8210  136.4060 C   0  0  0  0  0  3  0  0  0  0  0  0
  193.2660  176.8330  138.7890 N   0  0  0  0  0  0  0  0  0  0  0  0
  192.0520  176.4240  138.1890 N   0  0  0  0  0  0  0  0  0  0  0  0
  194.0110  173.6200  137.1690 C   0  0  0  0  0  0  0  0  0  0  0  0
  193.5000  174.7960  137.7170 C   0  0  0  0  0  0  0  0  0  0  0  0
  194.1680  175.7860  138.4820 N   0  0  0  0  0  0  0  0  0  0  0  0
  195.4300  173.2180  137.3710 C   0  0  0  0  0  1  0  0  0  0  0  0
  191.8000  173.2180  136.2100 C   0  0  0  0  0  3  0  0  0  0  0  0
  189.9250  174.8590  136.5880 C   0  0  0  0  0  3  0  0  0  0  0  0
  188.8690  174.1260  136.9190 C   0  0  0  0  0  3  0  0  0  0  0  0
  187.5060  174.6770  136.6940 C   0  0  2  0  0  3  0  0  0  0  0  0
  187.0310  174.2660  135.4380 O   0  0  0  0  0  0  0  0  0  0  0  0
  183.1190  177.1770  137.3630 C   0  0  0  0  0  2  0  0  0  0  0  0
  182.8990  174.6790  137.9940 C   0  0  0  0  0  2  0  0  0  0  0  0
  185.5950  172.3880  136.0620 C   0  0  0  0  0  1  0  0  0  0  0  0
  187.5480  176.1950  136.7210 C   0  0  0  0  0  2  0  0  0  0  0  0
  185.0980  176.2980  136.0010 C   0  0  1  0  0  3  0  0  0  0  0  0
  184.3840  174.5200  137.6720 C   0  0  0  0  0  2  0  0  0  0  0  0
  186.1650  176.7760  136.9980 C   0  0  0  0  0  2  0  0  0  0  0  0
  184.6940  174.8220  136.2030 C   0  0  2  0  0  3  0  0  0  0  0  0
  183.8820  177.2270  136.0390 C   0  0  0  0  0  2  0  0  0  0  0  0
  182.2300  175.9330  137.4070 C   0  0  1  0  0  3  0  0  0  0  0  0
  185.6950  173.8270  135.5650 C   0  0  1  0  0  3  0  0  0  0  0  0
  180.9430  176.2060  138.0490 N   0  0  0  0  0  2  0  0  0  0  0  0
  181.0660  176.1160  139.4990 C   0  0  0  0  0  1  0  0  0  0  0  0
  190.1840  177.4460  139.3180 C   0  0  0  0  0  3  0  0  0  0  0  0
  190.8550  177.2050  138.1990 C   0  0  0  0  0  3  0  0  0  0  0  0
  188.9420  178.2700  139.2870 C   0  0  0  0  0  2  0  0  0  0  0  0
  186.2260  179.3570  141.6590 O   0  0  0  0  0  0  0  0  0  0  0  0
  188.0480  177.5290  141.7960 N   0  0  0  0  0  0  0  0  0  0  0  0
  188.2410  178.1730  140.5570 N   0  0  0  0  0  0  0  0  0  0  0  0
  187.1980  178.5960  141.4160 C   0  0  0  0  0  0  0  0  0  0  0  0
  189.4570  177.1060  144.5660 C   0  0  0  0  0  0  0  0  0  0  0  0
  188.1080  176.9920  144.1380 C   0  0  0  0  0  0  0  0  0  0  0  0
  187.0300  177.2800  144.9530 C   0  0  0  0  0  3  0  0  0  0  0  0
  188.4630  176.5350  142.7710 C   0  0  2  0  0  3  0  0  0  0  0  0
  190.1770  176.5980  142.9910 S   0  0  0  0  0  0  0  0  0  0  0  0
  189.8080  177.5180  145.8370 C   0  0  0  0  0  3  0  0  0  0  0  0
  187.3660  177.7030  146.2620 C   0  0  0  0  0  3  0  0  0  0  0  0
  188.7220  177.8200  146.6930 C   0  0  0  0  0  3  0  0  0  0  0  0
  1  2  1  0  0  0  0
  2  7  2  0  0  0  0
  2  5  1  0  0  0  0
  3  6  2  0  0  0  0
  5 29  1  0  0  0  0
  5  4  1  0  0  0  0
  6  9  1  0  0  0  0
  6  7  1  0  0  0  0
  7  8  1  0  0  0  0
  8  4  2  0  0  0  0
 10  3  1  0  0  0  0
 10  1  2  0  0  0  0
 11  1  1  0  0  0  0
 11 12  2  0  0  0  0
 13 18  1  0  0  0  0
 13 12  1  6  0  0  0
 14 25  1  0  0  0  0
 14 13  1  0  0  0  0
 15 24  1  0  0  0  0
 18 21  1  0  0  0  0
 19 23  1  1  0  0  0
 19 22  1  0  0  0  0
 19 21  1  0  0  0  0
 20 16  1  0  0  0  0
 22 20  1  1  0  0  0
 23 15  1  0  0  0  0
 24 16  1  0  0  0  0
 24 26  1  1  0  0  0
 25 17  1  1  0  0  0
 25 22  1  0  0  0  0
 26 27  1  0  0  0  0
 29 28  2  0  0  0  0
 30 28  1  0  0  0  0
 30 33  1  0  0  0  0
 33 34  1  0  0  0  0
 33 32  1  0  0  0  0
 34 31  2  0  0  0  0
 34 32  1  0  0  0  0
 35 40  1  0  0  0  0
 36 35  2  0  0  0  0
 36 37  1  0  0  0  0
 37 41  2  0  0  0  0
 38 32  1  6  0  0  0
 38 39  1  0  0  0  0
 38 36  1  0  0  0  0
 39 35  1  0  0  0  0
 40 42  2  0  0  0  0
 41 42  1  0  0  0  0
M  END
>  <MODEL>
9

>  <REMARK>
 VINA RESULT:      -8.9      2.759      7.593
  Name = 
  7 active torsions:
  status: ('A' for Active; 'I' for Inactive)
    1  A    between atoms: C_1  and  C_3
    2  A    between atoms: C_2  and  C_40
    3  A    between atoms: N_12  and  C_33
    4  A    between atoms: C_17  and  N_19
    5  A    between atoms: C_22  and  C_29
    6  A    between atoms: N_27  and  C_36
    7  A    between atoms: C_29  and  N_38
                            x       y       z     vdW  Elec       q    Type
                         _______ _______ _______ _____ _____    ______ ____

>  <TORSDO>
F 7

$$$$
