=
 OpenBabel10232408433D

 30 34  0  0  1  0  0  0  0  0999 V2000
  188.7560  176.7620  143.6770 C   0  0  1  0  0  3  0  0  0  0  0  0
  190.7050  177.5010  141.6290 O   0  0  0  0  0  0  0  0  0  0  0  0
  188.5860  177.8890  142.6730 C   0  0  0  0  0  2  0  0  0  0  0  0
  191.1460  176.5630  142.6110 C   0  0  2  0  0  3  0  0  0  0  0  0
  189.3120  177.4930  141.4100 C   0  0  1  0  0  3  0  0  0  0  0  0
  190.3920  175.3720  142.6150 O   0  0  0  0  0  0  0  0  0  0  0  0
  190.1990  176.2220  143.7300 C   0  0  2  0  0  3  0  0  0  0  0  0
  188.9210  178.3960  140.2370 C   0  0  2  0  0  3  0  0  0  0  0  0
  187.1110  178.3060  140.0540 S   0  0  0  0  0  1  0  0  0  0  0  0
  189.6160  178.0690  138.8970 C   0  0  2  0  0  3  0  0  0  0  0  0
  188.9630  178.7080  137.7200 C   0  0  0  0  0  0  0  0  0  0  0  0
  188.9600  179.9120  137.5270 O   0  0  0  0  0  0  0  0  0  0  0  0
  188.9680  176.4120  137.1760 C   0  0  0  0  0  2  0  0  0  0  0  0
  188.4300  177.7550  136.7240 C   0  0  0  0  0  2  0  0  0  0  0  0
  189.4860  176.5770  138.6020 C   0  0  0  0  0  2  0  0  0  0  0  0
  188.2760  177.1920  145.0690 C   0  0  2  0  0  3  0  0  0  0  0  0
  186.2030  178.3200  146.1990 C   0  0  0  0  0  3  0  0  0  0  0  0
  183.9420  178.9350  145.0900 C   0  0  0  0  0  3  0  0  0  0  0  0
  184.0050  178.5590  143.7820 C   0  0  0  0  0  0  0  0  0  0  0  0
  186.1840  177.7240  143.9470 C   0  0  0  0  0  0  0  0  0  0  0  0
  184.9480  178.8270  146.2040 C   0  0  0  0  0  3  0  0  0  0  0  0
  186.8800  177.7350  145.0270 C   0  0  0  0  0  0  0  0  0  0  0  0
  185.1850  177.9140  143.1620 C   0  0  0  0  0  3  0  0  0  0  0  0
  181.6350  179.2330  143.3750 N   0  0  0  0  0  0  0  0  0  0  0  0
  182.8120  178.6300  141.5940 N   0  0  0  0  0  2  0  0  0  0  0  0
  181.5830  178.9590  141.2290 N   0  0  0  0  0  0  0  0  0  0  0  0
  180.8820  179.3190  142.2920 N   0  0  0  0  0  0  0  0  0  0  0  0
  182.8310  178.8050  142.9290 C   0  0  0  0  0  0  0  0  0  0  0  0
  189.1700  178.1970  145.6300 N   0  0  0  0  0  2  0  0  0  0  0  0
  189.6260  177.6940  146.9140 C   0  0  0  0  0  1  0  0  0  0  0  0
  1  7  1  0  0  0  0
  1 16  1  1  0  0  0
  3  1  1  0  0  0  0
  4  2  1  6  0  0  0
  4  6  1  0  0  0  0
  4  7  1  0  0  0  0
  5  8  1  6  0  0  0
  5  2  1  0  0  0  0
  5  3  1  0  0  0  0
  7  6  1  6  0  0  0
  8  9  1  6  0  0  0
 10  8  1  1  0  0  0
 11 10  1  0  0  0  0
 12 11  2  0  0  0  0
 13 15  1  0  0  0  0
 14 13  1  0  0  0  0
 14 11  1  0  0  0  0
 15 10  1  0  0  0  0
 16 29  1  6  0  0  0
 17 21  2  0  0  0  0
 18 21  1  0  0  0  0
 19 18  2  0  0  0  0
 20 22  2  0  0  0  0
 22 16  1  0  0  0  0
 22 17  1  0  0  0  0
 23 19  1  0  0  0  0
 23 20  2  0  0  0  0
 25 28  1  0  0  0  0
 26 25  1  0  0  0  0
 26 27  2  0  0  0  0
 27 24  1  0  0  0  0
 28 24  2  0  0  0  0
 28 19  1  0  0  0  0
 29 30  1  0  0  0  0
M  END
>  <MODEL>
1

>  <REMARK>
 VINA RESULT:      -9.2      0.000      0.000
  Name = 
  6 active torsions:
  status: ('A' for Active; 'I' for Inactive)
    1  A    between atoms: C_2  and  C_24
    2  A    between atoms: C_3  and  C_15
    3  A    between atoms: C_7  and  C_30
    4  A    between atoms: N_8  and  C_15
    5  A    between atoms: C_15  and  C_16
    6  A    between atoms: C_22  and  C_24
                            x       y       z     vdW  Elec       q    Type
                         _______ _______ _______ _____ _____    ______ ____

>  <TORSDO>
F 6

$$$$
=
 OpenBabel10232408433D

 30 34  0  0  1  0  0  0  0  0999 V2000
  191.1870  177.1480  145.0380 C   0  0  1  0  0  3  0  0  0  0  0  0
  190.7950  178.6650  142.5710 O   0  0  0  0  0  0  0  0  0  0  0  0
  190.8480  176.5460  143.6850 C   0  0  0  0  0  2  0  0  0  0  0  0
  190.8860  179.4280  143.7740 C   0  0  2  0  0  3  0  0  0  0  0  0
  191.4650  177.4250  142.6240 C   0  0  1  0  0  3  0  0  0  0  0  0
  192.1200  179.2700  144.4370 O   0  0  0  0  0  0  0  0  0  0  0  0
  191.0030  178.6780  145.0740 C   0  0  2  0  0  3  0  0  0  0  0  0
  191.4720  176.7290  141.2600 C   0  0  2  0  0  3  0  0  0  0  0  0
  192.6930  177.5840  140.2130 S   0  0  0  0  0  1  0  0  0  0  0  0
  190.1020  176.6640  140.5500 C   0  0  2  0  0  3  0  0  0  0  0  0
  190.2070  176.4150  139.0840 C   0  0  0  0  0  0  0  0  0  0  0  0
  190.6040  175.3650  138.6090 O   0  0  0  0  0  0  0  0  0  0  0  0
  188.9560  178.4110  139.2230 C   0  0  0  0  0  2  0  0  0  0  0  0
  189.6620  177.4980  138.2400 C   0  0  0  0  0  2  0  0  0  0  0  0
  189.4190  178.0260  140.6250 C   0  0  0  0  0  2  0  0  0  0  0  0
  190.3830  176.4710  146.1550 C   0  0  2  0  0  3  0  0  0  0  0  0
  188.5640  177.6810  147.5960 C   0  0  0  0  0  3  0  0  0  0  0  0
  186.2200  178.4800  146.8310 C   0  0  0  0  0  3  0  0  0  0  0  0
  186.0780  178.1540  145.5170 C   0  0  0  0  0  0  0  0  0  0  0  0
  188.1970  177.1770  145.3510 C   0  0  0  0  0  0  0  0  0  0  0  0
  187.3590  178.2650  147.7910 C   0  0  0  0  0  3  0  0  0  0  0  0
  189.0340  177.1020  146.3240 C   0  0  0  0  0  0  0  0  0  0  0  0
  187.1160  177.4610  144.7190 C   0  0  0  0  0  3  0  0  0  0  0  0
  184.5850  178.3560  143.5250 N   0  0  0  0  0  0  0  0  0  0  0  0
  183.7430  179.0250  145.4650 N   0  0  0  0  0  2  0  0  0  0  0  0
  182.8460  179.1900  144.5060 N   0  0  0  0  0  0  0  0  0  0  0  0
  183.3480  178.7900  143.3490 N   0  0  0  0  0  0  0  0  0  0  0  0
  184.8180  178.5070  144.8420 C   0  0  0  0  0  0  0  0  0  0  0  0
  191.1080  176.5330  147.4170 N   0  0  0  0  0  2  0  0  0  0  0  0
  192.3010  175.7180  147.2650 C   0  0  0  0  0  1  0  0  0  0  0  0
  1  7  1  0  0  0  0
  1 16  1  1  0  0  0
  2  5  1  0  0  0  0
  3  1  1  0  0  0  0
  4  2  1  6  0  0  0
  4  6  1  0  0  0  0
  4  7  1  0  0  0  0
  5  8  1  6  0  0  0
  5  3  1  0  0  0  0
  7  6  1  6  0  0  0
  8  9  1  6  0  0  0
 10 15  1  0  0  0  0
 10  8  1  6  0  0  0
 11 10  1  0  0  0  0
 12 11  2  0  0  0  0
 13 15  1  0  0  0  0
 14 11  1  0  0  0  0
 14 13  1  0  0  0  0
 16 22  1  0  0  0  0
 16 29  1  1  0  0  0
 17 21  2  0  0  0  0
 18 21  1  0  0  0  0
 19 18  2  0  0  0  0
 20 22  2  0  0  0  0
 22 17  1  0  0  0  0
 23 20  2  0  0  0  0
 23 19  1  0  0  0  0
 24 28  2  0  0  0  0
 26 25  1  0  0  0  0
 27 24  1  0  0  0  0
 27 26  2  0  0  0  0
 28 25  1  0  0  0  0
 28 19  1  0  0  0  0
 30 29  1  0  0  0  0
M  END
>  <MODEL>
2

>  <REMARK>
 VINA RESULT:      -9.0      2.171      3.132
  Name = 
  6 active torsions:
  status: ('A' for Active; 'I' for Inactive)
    1  A    between atoms: C_2  and  C_24
    2  A    between atoms: C_3  and  C_15
    3  A    between atoms: C_7  and  C_30
    4  A    between atoms: N_8  and  C_15
    5  A    between atoms: C_15  and  C_16
    6  A    between atoms: C_22  and  C_24
                            x       y       z     vdW  Elec       q    Type
                         _______ _______ _______ _____ _____    ______ ____

>  <TORSDO>
F 6

$$$$
=
 OpenBabel10232408433D

 30 34  0  0  1  0  0  0  0  0999 V2000
  189.1640  176.7410  146.4860 C   0  0  1  0  0  3  0  0  0  0  0  0
  191.9710  177.2090  145.8200 O   0  0  0  0  0  0  0  0  0  0  0  0
  189.6600  177.6250  145.3540 C   0  0  0  0  0  2  0  0  0  0  0  0
  191.7180  176.5280  147.0500 C   0  0  2  0  0  3  0  0  0  0  0  0
  190.9590  177.0430  144.8530 C   0  0  1  0  0  3  0  0  0  0  0  0
  191.0400  175.3050  146.8750 O   0  0  0  0  0  0  0  0  0  0  0  0
  190.2840  176.3440  147.4680 C   0  0  2  0  0  3  0  0  0  0  0  0
  191.3600  177.6550  143.5070 C   0  0  2  0  0  3  0  0  0  0  0  0
  190.5950  179.3050  143.4040 S   0  0  0  0  0  1  0  0  0  0  0  0
  190.9920  176.8100  142.2670 C   0  0  2  0  0  3  0  0  0  0  0  0
  191.4410  177.4180  140.9820 C   0  0  0  0  0  0  0  0  0  0  0  0
  192.6140  177.5310  140.6690 O   0  0  0  0  0  0  0  0  0  0  0  0
  189.1200  177.1210  140.6770 C   0  0  0  0  0  2  0  0  0  0  0  0
  190.3460  177.7550  140.0490 C   0  0  0  0  0  2  0  0  0  0  0  0
  189.4740  176.7550  142.1160 C   0  0  0  0  0  2  0  0  0  0  0  0
  187.9940  177.4020  147.2240 C   0  0  2  0  0  3  0  0  0  0  0  0
  185.6040  178.3420  146.7150 C   0  0  0  0  0  3  0  0  0  0  0  0
  184.5490  178.7920  144.3900 C   0  0  0  0  0  3  0  0  0  0  0  0
  185.4650  178.4440  143.4440 C   0  0  0  0  0  0  0  0  0  0  0  0
  187.0800  177.7840  145.0010 C   0  0  0  0  0  0  0  0  0  0  0  0
  184.6080  178.7460  145.8940 C   0  0  0  0  0  3  0  0  0  0  0  0
  186.9160  177.8330  146.2740 C   0  0  0  0  0  0  0  0  0  0  0  0
  186.8100  177.9070  143.7520 C   0  0  0  0  0  3  0  0  0  0  0  0
  185.7300  179.4290  141.1640 N   0  0  0  0  0  0  0  0  0  0  0  0
  184.0880  177.9600  141.4220 N   0  0  0  0  0  2  0  0  0  0  0  0
  184.1090  178.3940  140.1720 N   0  0  0  0  0  0  0  0  0  0  0  0
  185.0890  179.2700  140.0190 N   0  0  0  0  0  0  0  0  0  0  0  0
  185.1000  178.6100  142.0280 C   0  0  0  0  0  0  0  0  0  0  0  0
  188.4550  178.5550  147.9860 N   0  0  0  0  0  2  0  0  0  0  0  0
  188.1740  178.2830  149.3850 C   0  0  0  0  0  1  0  0  0  0  0  0
  1 16  1  1  0  0  0
  1  7  1  0  0  0  0
  3  1  1  0  0  0  0
  4  2  1  6  0  0  0
  4  7  1  0  0  0  0
  5  8  1  6  0  0  0
  5  3  1  0  0  0  0
  5  2  1  0  0  0  0
  6  4  1  0  0  0  0
  7  6  1  6  0  0  0
  8  9  1  6  0  0  0
 10  8  1  1  0  0  0
 11 10  1  0  0  0  0
 12 11  2  0  0  0  0
 13 15  1  0  0  0  0
 14 13  1  0  0  0  0
 14 11  1  0  0  0  0
 15 10  1  0  0  0  0
 16 29  1  6  0  0  0
 18 21  1  0  0  0  0
 19 23  1  0  0  0  0
 19 18  2  0  0  0  0
 20 22  2  0  0  0  0
 21 17  2  0  0  0  0
 22 17  1  0  0  0  0
 22 16  1  0  0  0  0
 23 20  2  0  0  0  0
 24 28  2  0  0  0  0
 25 28  1  0  0  0  0
 26 25  1  0  0  0  0
 27 26  2  0  0  0  0
 27 24  1  0  0  0  0
 28 19  1  0  0  0  0
 29 30  1  0  0  0  0
M  END
>  <MODEL>
3

>  <REMARK>
 VINA RESULT:      -9.0      2.411      3.352
  Name = 
  6 active torsions:
  status: ('A' for Active; 'I' for Inactive)
    1  A    between atoms: C_2  and  C_24
    2  A    between atoms: C_3  and  C_15
    3  A    between atoms: C_7  and  C_30
    4  A    between atoms: N_8  and  C_15
    5  A    between atoms: C_15  and  C_16
    6  A    between atoms: C_22  and  C_24
                            x       y       z     vdW  Elec       q    Type
                         _______ _______ _______ _____ _____    ______ ____

>  <TORSDO>
F 6

$$$$
=
 OpenBabel10232408433D

 30 34  0  0  1  0  0  0  0  0999 V2000
  183.9550  178.2700  140.9590 C   0  0  1  0  0  3  0  0  0  0  0  0
  183.5480  177.8880  138.0910 O   0  0  0  0  0  0  0  0  0  0  0  0
  183.0390  177.2320  140.3360 C   0  0  0  0  0  2  0  0  0  0  0  0
  184.2740  179.0560  138.4760 C   0  0  2  0  0  3  0  0  0  0  0  0
  183.6380  176.8250  139.0120 C   0  0  1  0  0  3  0  0  0  0  0  0
  185.4660  178.7620  139.1680 O   0  0  0  0  0  0  0  0  0  0  0  0
  184.4310  179.3310  139.9470 C   0  0  2  0  0  3  0  0  0  0  0  0
  182.9800  175.5520  138.4710 C   0  0  2  0  0  3  0  0  0  0  0  0
  184.1210  174.8180  137.2550 S   0  0  0  0  0  1  0  0  0  0  0  0
  181.5810  175.7510  137.8480 C   0  0  2  0  0  3  0  0  0  0  0  0
  180.5630  174.7920  138.3610 C   0  0  0  0  0  0  0  0  0  0  0  0
  180.1520  174.8010  139.5090 O   0  0  0  0  0  0  0  0  0  0  0  0
  180.4980  174.4760  136.0240 C   0  0  0  0  0  2  0  0  0  0  0  0
  179.9840  173.9050  137.3300 C   0  0  0  0  0  2  0  0  0  0  0  0
  181.6350  175.4390  136.3550 C   0  0  0  0  0  2  0  0  0  0  0  0
  183.2900  178.9280  142.1750 C   0  0  2  0  0  3  0  0  0  0  0  0
  183.5530  178.9390  144.7790 C   0  0  0  0  0  3  0  0  0  0  0  0
  185.6500  178.2840  146.1560 C   0  0  0  0  0  3  0  0  0  0  0  0
  186.6280  177.9280  145.2780 C   0  0  0  0  0  0  0  0  0  0  0  0
  185.3080  178.3050  143.3850 C   0  0  0  0  0  0  0  0  0  0  0  0
  184.2360  178.7500  145.9320 C   0  0  0  0  0  3  0  0  0  0  0  0
  184.0900  178.7110  143.4250 C   0  0  0  0  0  0  0  0  0  0  0  0
  186.4630  177.9350  143.8060 C   0  0  0  0  0  3  0  0  0  0  0  0
  188.1700  177.2300  147.1150 N   0  0  0  0  0  0  0  0  0  0  0  0
  189.0470  177.3540  145.0810 N   0  0  0  0  0  2  0  0  0  0  0  0
  189.9730  176.9750  145.9460 N   0  0  0  0  0  0  0  0  0  0  0  0
  189.4490  176.9020  147.1590 N   0  0  0  0  0  0  0  0  0  0  0  0
  187.9310  177.5090  145.8200 C   0  0  0  0  0  0  0  0  0  0  0  0
  181.9430  178.4060  142.3660 N   0  0  0  0  0  2  0  0  0  0  0  0
  181.0250  179.5180  142.1890 C   0  0  0  0  0  1  0  0  0  0  0  0
  1 16  1  1  0  0  0
  2  5  1  0  0  0  0
  3  1  1  0  0  0  0
  4  2  1  1  0  0  0
  4  6  1  0  0  0  0
  4  7  1  0  0  0  0
  5  8  1  6  0  0  0
  5  3  1  0  0  0  0
  7  6  1  6  0  0  0
  7  1  1  0  0  0  0
  8  9  1  6  0  0  0
 10 11  1  0  0  0  0
 10  8  1  1  0  0  0
 11 12  2  0  0  0  0
 13 15  1  0  0  0  0
 13 14  1  0  0  0  0
 14 11  1  0  0  0  0
 15 10  1  0  0  0  0
 16 29  1  1  0  0  0
 16 22  1  0  0  0  0
 17 21  2  0  0  0  0
 19 28  1  0  0  0  0
 19 18  2  0  0  0  0
 20 22  2  0  0  0  0
 20 23  2  0  0  0  0
 21 18  1  0  0  0  0
 22 17  1  0  0  0  0
 23 19  1  0  0  0  0
 24 27  1  0  0  0  0
 25 28  1  0  0  0  0
 25 26  1  0  0  0  0
 26 27  2  0  0  0  0
 28 24  2  0  0  0  0
 30 29  1  0  0  0  0
M  END
>  <MODEL>
4

>  <REMARK>
 VINA RESULT:      -8.4      4.365      7.084
  Name = 
  6 active torsions:
  status: ('A' for Active; 'I' for Inactive)
    1  A    between atoms: C_2  and  C_24
    2  A    between atoms: C_3  and  C_15
    3  A    between atoms: C_7  and  C_30
    4  A    between atoms: N_8  and  C_15
    5  A    between atoms: C_15  and  C_16
    6  A    between atoms: C_22  and  C_24
                            x       y       z     vdW  Elec       q    Type
                         _______ _______ _______ _____ _____    ______ ____

>  <TORSDO>
F 6

$$$$
=
 OpenBabel10232408433D

 30 34  0  0  1  0  0  0  0  0999 V2000
  188.7190  177.2710  141.2930 C   0  0  1  0  0  3  0  0  0  0  0  0
  190.3470  177.4900  138.8760 O   0  0  0  0  0  0  0  0  0  0  0  0
  188.1800  177.5150  139.8940 C   0  0  0  0  0  2  0  0  0  0  0  0
  191.0550  177.4820  140.1160 C   0  0  2  0  0  3  0  0  0  0  0  0
  189.1040  176.8260  138.9190 C   0  0  1  0  0  3  0  0  0  0  0  0
  190.8620  176.2970  140.8540 O   0  0  0  0  0  0  0  0  0  0  0  0
  190.2460  177.4560  141.3850 C   0  0  2  0  0  3  0  0  0  0  0  0
  188.4700  176.7250  137.5280 C   0  0  2  0  0  3  0  0  0  0  0  0
  189.0420  178.1560  136.5580 S   0  0  0  0  0  1  0  0  0  0  0  0
  186.9280  176.6440  137.5150 C   0  0  2  0  0  3  0  0  0  0  0  0
  186.4050  175.4170  136.8510 C   0  0  0  0  0  0  0  0  0  0  0  0
  186.5500  174.2950  137.3070 O   0  0  0  0  0  0  0  0  0  0  0  0
  185.3610  177.1750  135.6740 C   0  0  0  0  0  2  0  0  0  0  0  0
  185.5750  175.6740  135.6560 C   0  0  0  0  0  2  0  0  0  0  0  0
  186.3620  177.7730  136.6580 C   0  0  0  0  0  2  0  0  0  0  0  0
  187.9950  178.1510  142.3190 C   0  0  2  0  0  3  0  0  0  0  0  0
  187.4210  177.7050  144.8340 C   0  0  0  0  0  3  0  0  0  0  0  0
  189.0600  177.0500  146.7330 C   0  0  0  0  0  3  0  0  0  0  0  0
  190.3100  176.9780  146.1960 C   0  0  0  0  0  0  0  0  0  0  0  0
  189.6060  177.5490  144.0400 C   0  0  0  0  0  0  0  0  0  0  0  0
  187.7300  177.3840  146.1110 C   0  0  0  0  0  3  0  0  0  0  0  0
  188.3860  177.7970  143.7220 C   0  0  0  0  0  0  0  0  0  0  0  0
  190.6160  177.2410  144.7710 C   0  0  0  0  0  3  0  0  0  0  0  0
  191.7610  177.2810  148.2060 N   0  0  0  0  0  0  0  0  0  0  0  0
  192.2580  175.5760  146.8750 N   0  0  0  0  0  2  0  0  0  0  0  0
  193.1040  175.6130  147.8910 N   0  0  0  0  0  0  0  0  0  0  0  0
  192.8080  176.6300  148.6840 N   0  0  0  0  0  0  0  0  0  0  0  0
  191.4290  176.6180  147.0820 C   0  0  0  0  0  0  0  0  0  0  0  0
  186.5500  178.0230  142.1730 N   0  0  0  0  0  2  0  0  0  0  0  0
  186.0340  179.3440  141.8570 C   0  0  0  0  0  1  0  0  0  0  0  0
  1  7  1  0  0  0  0
  1 16  1  1  0  0  0
  2  5  1  0  0  0  0
  3  1  1  0  0  0  0
  4  2  1  6  0  0  0
  4  6  1  0  0  0  0
  4  7  1  0  0  0  0
  5  8  1  6  0  0  0
  5  3  1  0  0  0  0
  7  6  1  1  0  0  0
  8  9  1  6  0  0  0
 10  8  1  6  0  0  0
 11 12  2  0  0  0  0
 11 10  1  0  0  0  0
 13 15  1  0  0  0  0
 14 13  1  0  0  0  0
 14 11  1  0  0  0  0
 15 10  1  0  0  0  0
 16 29  1  1  0  0  0
 16 22  1  0  0  0  0
 17 21  2  0  0  0  0
 19 18  2  0  0  0  0
 19 28  1  0  0  0  0
 20 23  2  0  0  0  0
 21 18  1  0  0  0  0
 22 20  2  0  0  0  0
 22 17  1  0  0  0  0
 23 19  1  0  0  0  0
 24 27  1  0  0  0  0
 25 28  1  0  0  0  0
 25 26  1  0  0  0  0
 26 27  2  0  0  0  0
 28 24  2  0  0  0  0
 30 29  1  0  0  0  0
M  END
>  <MODEL>
5

>  <REMARK>
 VINA RESULT:      -8.3      2.761      6.126
  Name = 
  6 active torsions:
  status: ('A' for Active; 'I' for Inactive)
    1  A    between atoms: C_2  and  C_24
    2  A    between atoms: C_3  and  C_15
    3  A    between atoms: C_7  and  C_30
    4  A    between atoms: N_8  and  C_15
    5  A    between atoms: C_15  and  C_16
    6  A    between atoms: C_22  and  C_24
                            x       y       z     vdW  Elec       q    Type
                         _______ _______ _______ _____ _____    ______ ____

>  <TORSDO>
F 6

$$$$
=
 OpenBabel10232408433D

 30 34  0  0  1  0  0  0  0  0999 V2000
  183.8900  178.3520  141.3190 C   0  0  1  0  0  3  0  0  0  0  0  0
  183.5120  178.4650  138.4240 O   0  0  0  0  0  0  0  0  0  0  0  0
  182.8130  177.6100  140.5470 C   0  0  0  0  0  2  0  0  0  0  0  0
  184.4350  179.4030  138.9780 C   0  0  2  0  0  3  0  0  0  0  0  0
  183.3670  177.2850  139.1820 C   0  0  1  0  0  3  0  0  0  0  0  0
  185.5250  178.7880  139.6260 O   0  0  0  0  0  0  0  0  0  0  0  0
  184.5930  179.4320  140.4740 C   0  0  2  0  0  3  0  0  0  0  0  0
  182.4950  176.2540  138.4580 C   0  0  2  0  0  3  0  0  0  0  0  0
  181.1430  175.7890  139.5860 S   0  0  0  0  0  1  0  0  0  0  0  0
  183.2430  174.9960  137.9630 C   0  0  2  0  0  3  0  0  0  0  0  0
  184.1880  175.2720  136.8440 C   0  0  0  0  0  0  0  0  0  0  0  0
  185.2030  175.9350  136.9730 O   0  0  0  0  0  0  0  0  0  0  0  0
  182.7750  173.5930  135.9780 C   0  0  0  0  0  2  0  0  0  0  0  0
  183.8700  174.5640  135.5870 C   0  0  0  0  0  2  0  0  0  0  0  0
  182.2470  174.0170  137.3460 C   0  0  0  0  0  2  0  0  0  0  0  0
  183.3240  178.9470  142.6140 C   0  0  2  0  0  3  0  0  0  0  0  0
  183.7790  178.7880  145.1870 C   0  0  0  0  0  3  0  0  0  0  0  0
  185.9950  178.1240  146.3580 C   0  0  0  0  0  3  0  0  0  0  0  0
  186.9160  177.8680  145.3890 C   0  0  0  0  0  0  0  0  0  0  0  0
  185.4460  178.3230  143.6270 C   0  0  0  0  0  0  0  0  0  0  0  0
  184.5530  178.5470  146.2710 C   0  0  0  0  0  3  0  0  0  0  0  0
  184.2210  178.6760  143.7840 C   0  0  0  0  0  0  0  0  0  0  0  0
  186.6420  177.9700  143.9370 C   0  0  0  0  0  3  0  0  0  0  0  0
  189.3100  177.2970  144.9650 N   0  0  0  0  0  0  0  0  0  0  0  0
  188.6320  177.2130  147.0760 N   0  0  0  0  0  2  0  0  0  0  0  0
  189.9130  176.8890  147.0040 N   0  0  0  0  0  0  0  0  0  0  0  0
  190.3170  176.9400  145.7450 N   0  0  0  0  0  0  0  0  0  0  0  0
  188.2700  177.4650  145.8030 C   0  0  0  0  0  0  0  0  0  0  0  0
  181.9970  178.4090  142.8870 N   0  0  0  0  0  2  0  0  0  0  0  0
  181.0870  179.5380  142.9710 C   0  0  0  0  0  1  0  0  0  0  0  0
  1 16  1  1  0  0  0
  2  5  1  0  0  0  0
  3  1  1  0  0  0  0
  4  2  1  1  0  0  0
  4  6  1  0  0  0  0
  4  7  1  0  0  0  0
  5  8  1  6  0  0  0
  5  3  1  0  0  0  0
  7  6  1  6  0  0  0
  7  1  1  0  0  0  0
  8  9  1  1  0  0  0
 10  8  1  6  0  0  0
 11 12  2  0  0  0  0
 11 10  1  0  0  0  0
 13 15  1  0  0  0  0
 14 13  1  0  0  0  0
 14 11  1  0  0  0  0
 15 10  1  0  0  0  0
 16 29  1  1  0  0  0
 16 22  1  0  0  0  0
 17 21  2  0  0  0  0
 19 28  1  0  0  0  0
 19 18  2  0  0  0  0
 20 22  2  0  0  0  0
 20 23  2  0  0  0  0
 21 18  1  0  0  0  0
 22 17  1  0  0  0  0
 23 19  1  0  0  0  0
 24 27  1  0  0  0  0
 24 28  2  0  0  0  0
 26 25  1  0  0  0  0
 27 26  2  0  0  0  0
 28 25  1  0  0  0  0
 29 30  1  0  0  0  0
M  END
>  <MODEL>
6

>  <REMARK>
 VINA RESULT:      -8.2      3.713      6.562
  Name = 
  6 active torsions:
  status: ('A' for Active; 'I' for Inactive)
    1  A    between atoms: C_2  and  C_24
    2  A    between atoms: C_3  and  C_15
    3  A    between atoms: C_7  and  C_30
    4  A    between atoms: N_8  and  C_15
    5  A    between atoms: C_15  and  C_16
    6  A    between atoms: C_22  and  C_24
                            x       y       z     vdW  Elec       q    Type
                         _______ _______ _______ _____ _____    ______ ____

>  <TORSDO>
F 6

$$$$
=
 OpenBabel10232408433D

 30 34  0  0  1  0  0  0  0  0999 V2000
  185.6030  178.9110  140.3910 C   0  0  1  0  0  3  0  0  0  0  0  0
  187.7780  177.4830  139.0620 O   0  0  0  0  0  0  0  0  0  0  0  0
  186.8330  178.3490  141.0830 C   0  0  0  0  0  2  0  0  0  0  0  0
  186.6140  177.7350  138.2750 C   0  0  2  0  0  3  0  0  0  0  0  0
  187.9800  178.4100  140.1040 C   0  0  1  0  0  3  0  0  0  0  0  0
  186.3380  179.1080  138.1210 O   0  0  0  0  0  0  0  0  0  0  0  0
  185.4400  178.3930  138.9490 C   0  0  2  0  0  3  0  0  0  0  0  0
  189.3230  178.1880  140.8060 C   0  0  2  0  0  3  0  0  0  0  0  0
  190.3240  177.0970  139.7440 S   0  0  0  0  0  1  0  0  0  0  0  0
  189.2290  177.6110  142.2350 C   0  0  2  0  0  3  0  0  0  0  0  0
  190.3150  178.0870  143.1380 C   0  0  0  0  0  0  0  0  0  0  0  0
  190.4150  179.2430  143.5140 O   0  0  0  0  0  0  0  0  0  0  0  0
  190.4950  175.7370  143.2400 C   0  0  0  0  0  2  0  0  0  0  0  0
  191.1920  177.0170  143.6570 C   0  0  0  0  0  2  0  0  0  0  0  0
  189.4440  176.1010  142.1950 C   0  0  0  0  0  2  0  0  0  0  0  0
  184.3400  178.6450  141.2190 C   0  0  2  0  0  3  0  0  0  0  0  0
  183.6980  179.1550  143.7040 C   0  0  0  0  0  3  0  0  0  0  0  0
  185.1100  178.6850  145.8270 C   0  0  0  0  0  3  0  0  0  0  0  0
  186.2820  178.1170  145.4280 C   0  0  0  0  0  0  0  0  0  0  0  0
  185.7390  178.1770  143.1540 C   0  0  0  0  0  0  0  0  0  0  0  0
  183.9200  179.1650  145.0390 C   0  0  0  0  0  3  0  0  0  0  0  0
  184.6350  178.6400  142.6890 C   0  0  0  0  0  0  0  0  0  0  0  0
  186.6310  177.8420  144.0160 C   0  0  0  0  0  3  0  0  0  0  0  0
  188.4230  177.1060  146.2230 N   0  0  0  0  0  0  0  0  0  0  0  0
  187.1250  178.0190  147.7730 N   0  0  0  0  0  2  0  0  0  0  0  0
  188.2170  177.5270  148.3350 N   0  0  0  0  0  0  0  0  0  0  0  0
  188.9910  176.9830  147.4100 N   0  0  0  0  0  0  0  0  0  0  0  0
  187.2650  177.7510  146.4610 C   0  0  0  0  0  0  0  0  0  0  0  0
  183.7410  177.3710  140.8420 N   0  0  0  0  0  2  0  0  0  0  0  0
  182.3570  177.6370  140.4900 C   0  0  0  0  0  1  0  0  0  0  0  0
  1  3  1  0  0  0  0
  1 16  1  1  0  0  0
  2  5  1  0  0  0  0
  4  6  1  6  0  0  0
  4  7  1  0  0  0  0
  4  2  1  0  0  0  0
  5  8  1  1  0  0  0
  5  3  1  0  0  0  0
  7  6  1  6  0  0  0
  7  1  1  0  0  0  0
  8  9  1  6  0  0  0
 10  8  1  6  0  0  0
 10 11  1  0  0  0  0
 11 12  2  0  0  0  0
 11 14  1  0  0  0  0
 13 14  1  0  0  0  0
 15 10  1  0  0  0  0
 15 13  1  0  0  0  0
 16 29  1  6  0  0  0
 16 22  1  0  0  0  0
 17 21  2  0  0  0  0
 19 18  2  0  0  0  0
 19 28  1  0  0  0  0
 20 23  2  0  0  0  0
 21 18  1  0  0  0  0
 22 20  2  0  0  0  0
 22 17  1  0  0  0  0
 23 19  1  0  0  0  0
 24 28  2  0  0  0  0
 24 27  1  0  0  0  0
 25 26  1  0  0  0  0
 27 26  2  0  0  0  0
 28 25  1  0  0  0  0
 30 29  1  0  0  0  0
M  END
>  <MODEL>
7

>  <REMARK>
 VINA RESULT:      -8.2      2.122      5.653
  Name = 
  6 active torsions:
  status: ('A' for Active; 'I' for Inactive)
    1  A    between atoms: C_2  and  C_24
    2  A    between atoms: C_3  and  C_15
    3  A    between atoms: C_7  and  C_30
    4  A    between atoms: N_8  and  C_15
    5  A    between atoms: C_15  and  C_16
    6  A    between atoms: C_22  and  C_24
                            x       y       z     vdW  Elec       q    Type
                         _______ _______ _______ _____ _____    ______ ____

>  <TORSDO>
F 6

$$$$
=
 OpenBabel10232408433D

 30 34  0  0  1  0  0  0  0  0999 V2000
  189.5220  176.3130  138.6420 C   0  0  1  0  0  3  0  0  0  0  0  0
  189.6670  174.9250  136.0750 O   0  0  0  0  0  0  0  0  0  0  0  0
  188.3430  176.0490  137.7220 C   0  0  0  0  0  2  0  0  0  0  0  0
  190.9150  175.2670  136.6800 C   0  0  2  0  0  3  0  0  0  0  0  0
  188.6110  174.7550  136.9930 C   0  0  1  0  0  3  0  0  0  0  0  0
  191.1040  174.6600  137.9380 O   0  0  0  0  0  0  0  0  0  0  0  0
  190.8800  176.0570  137.9610 C   0  0  2  0  0  3  0  0  0  0  0  0
  187.3460  174.2320  136.3050 C   0  0  2  0  0  3  0  0  0  0  0  0
  186.1000  175.5590  136.3620 S   0  0  0  0  0  1  0  0  0  0  0  0
  186.7710  172.9260  136.8970 C   0  0  2  0  0  3  0  0  0  0  0  0
  186.2830  171.9720  135.8610 C   0  0  0  0  0  0  0  0  0  0  0  0
  187.0200  171.3990  135.0770 O   0  0  0  0  0  0  0  0  0  0  0  0
  184.4060  172.2920  137.2540 C   0  0  0  0  0  2  0  0  0  0  0  0
  184.8390  171.6670  135.9430 C   0  0  0  0  0  2  0  0  0  0  0  0
  185.5150  173.2370  137.7060 C   0  0  0  0  0  2  0  0  0  0  0  0
  189.4560  177.7320  139.2230 C   0  0  2  0  0  3  0  0  0  0  0  0
  187.8650  178.0150  141.2820 C   0  0  0  0  0  3  0  0  0  0  0  0
  188.4550  177.6980  143.7860 C   0  0  0  0  0  3  0  0  0  0  0  0
  189.7710  177.3550  143.8620 C   0  0  0  0  0  0  0  0  0  0  0  0
  190.1020  177.4230  141.5480 C   0  0  0  0  0  0  0  0  0  0  0  0
  187.5750  178.0020  142.6030 C   0  0  0  0  0  3  0  0  0  0  0  0
  189.1840  177.7120  140.6970 C   0  0  0  0  0  0  0  0  0  0  0  0
  190.6580  177.2070  142.6850 C   0  0  0  0  0  3  0  0  0  0  0  0
  191.6650  176.9370  145.4350 N   0  0  0  0  0  0  0  0  0  0  0  0
  189.6400  177.0490  146.3340 N   0  0  0  0  0  2  0  0  0  0  0  0
  190.5380  176.8250  147.2790 N   0  0  0  0  0  0  0  0  0  0  0  0
  191.7460  176.7580  146.7430 N   0  0  0  0  0  0  0  0  0  0  0  0
  190.3530  177.1160  145.1930 C   0  0  0  0  0  0  0  0  0  0  0  0
  188.4230  178.5110  138.5510 N   0  0  0  0  0  2  0  0  0  0  0  0
  189.0780  179.2730  137.5020 C   0  0  0  0  0  1  0  0  0  0  0  0
  1 16  1  6  0  0  0
  2  5  1  0  0  0  0
  3  1  1  0  0  0  0
  4  2  1  1  0  0  0
  4  6  1  0  0  0  0
  4  7  1  0  0  0  0
  5  8  1  6  0  0  0
  5  3  1  0  0  0  0
  7  6  1  1  0  0  0
  7  1  1  0  0  0  0
  8  9  1  1  0  0  0
 10  8  1  6  0  0  0
 10 15  1  0  0  0  0
 11 14  1  0  0  0  0
 11 10  1  0  0  0  0
 12 11  2  0  0  0  0
 13 15  1  0  0  0  0
 14 13  1  0  0  0  0
 16 29  1  6  0  0  0
 16 22  1  0  0  0  0
 17 21  2  0  0  0  0
 18 19  2  0  0  0  0
 19 28  1  0  0  0  0
 20 23  2  0  0  0  0
 21 18  1  0  0  0  0
 22 17  1  0  0  0  0
 22 20  2  0  0  0  0
 23 19  1  0  0  0  0
 24 27  1  0  0  0  0
 25 26  1  0  0  0  0
 27 26  2  0  0  0  0
 28 24  2  0  0  0  0
 28 25  1  0  0  0  0
 30 29  1  0  0  0  0
M  END
>  <MODEL>
8

>  <REMARK>
 VINA RESULT:      -8.2      3.879      6.918
  Name = 
  6 active torsions:
  status: ('A' for Active; 'I' for Inactive)
    1  A    between atoms: C_2  and  C_24
    2  A    between atoms: C_3  and  C_15
    3  A    between atoms: C_7  and  C_30
    4  A    between atoms: N_8  and  C_15
    5  A    between atoms: C_15  and  C_16
    6  A    between atoms: C_22  and  C_24
                            x       y       z     vdW  Elec       q    Type
                         _______ _______ _______ _____ _____    ______ ____

>  <TORSDO>
F 6

$$$$
=
 OpenBabel10232408433D

 30 34  0  0  1  0  0  0  0  0999 V2000
  189.4030  177.5820  140.8290 C   0  0  1  0  0  3  0  0  0  0  0  0
  188.9040  175.9920  143.2290 O   0  0  0  0  0  0  0  0  0  0  0  0
  188.0630  177.4580  141.5340 C   0  0  0  0  0  2  0  0  0  0  0  0
  190.1700  175.8010  142.5960 C   0  0  2  0  0  3  0  0  0  0  0  0
  188.3350  177.2620  143.0060 C   0  0  1  0  0  3  0  0  0  0  0  0
  190.9480  176.9740  142.5540 O   0  0  0  0  0  0  0  0  0  0  0  0
  190.4300  176.5390  141.3110 C   0  0  2  0  0  3  0  0  0  0  0  0
  187.0660  177.4660  143.8380 C   0  0  2  0  0  3  0  0  0  0  0  0
  185.7720  178.0980  142.7220 S   0  0  0  0  0  1  0  0  0  0  0  0
  187.2260  178.3960  145.0610 C   0  0  2  0  0  3  0  0  0  0  0  0
  187.8650  177.7300  146.2310 C   0  0  0  0  0  0  0  0  0  0  0  0
  189.0280  177.3660  146.2420 O   0  0  0  0  0  0  0  0  0  0  0  0
  185.8250  178.5410  147.0960 C   0  0  0  0  0  2  0  0  0  0  0  0
  187.0130  177.6640  147.4370 C   0  0  0  0  0  2  0  0  0  0  0  0
  185.8500  178.7900  145.5910 C   0  0  0  0  0  2  0  0  0  0  0  0
  189.2270  177.5200  139.3060 C   0  0  2  0  0  3  0  0  0  0  0  0
  189.9050  175.3940  137.9380 C   0  0  0  0  0  3  0  0  0  0  0  0
  192.2950  174.6500  137.2610 C   0  0  0  0  0  3  0  0  0  0  0  0
  193.1700  175.5700  137.7520 C   0  0  0  0  0  0  0  0  0  0  0  0
  191.5050  176.8940  138.7240 C   0  0  0  0  0  0  0  0  0  0  0  0
  190.7940  174.5640  137.3440 C   0  0  0  0  0  3  0  0  0  0  0  0
  190.2500  176.6270  138.6700 C   0  0  0  0  0  0  0  0  0  0  0  0
  192.7680  176.7640  138.5310 C   0  0  0  0  0  3  0  0  0  0  0  0
  195.4550  174.7450  138.3350 N   0  0  0  0  0  0  0  0  0  0  0  0
  195.2470  175.7910  136.3890 N   0  0  0  0  0  2  0  0  0  0  0  0
  196.5030  175.4120  136.5630 N   0  0  0  0  0  0  0  0  0  0  0  0
  196.6260  174.7890  137.7230 N   0  0  0  0  0  0  0  0  0  0  0  0
  194.6060  175.3700  137.4960 C   0  0  0  0  0  0  0  0  0  0  0  0
  189.3200  178.8530  138.7260 N   0  0  0  0  0  2  0  0  0  0  0  0
  188.6110  178.8180  137.4590 C   0  0  0  0  0  1  0  0  0  0  0  0
  1 16  1  6  0  0  0
  1  7  1  0  0  0  0
  1  3  1  0  0  0  0
  3  5  1  0  0  0  0
  4  6  1  1  0  0  0
  4  2  1  0  0  0  0
  5  2  1  0  0  0  0
  5  8  1  1  0  0  0
  7  6  1  1  0  0  0
  7  4  1  0  0  0  0
  8  9  1  6  0  0  0
 10  8  1  6  0  0  0
 10 15  1  0  0  0  0
 10 11  1  0  0  0  0
 11 12  2  0  0  0  0
 11 14  1  0  0  0  0
 13 14  1  0  0  0  0
 15 13  1  0  0  0  0
 16 29  1  6  0  0  0
 17 22  1  0  0  0  0
 18 21  1  0  0  0  0
 18 19  2  0  0  0  0
 19 23  1  0  0  0  0
 21 17  2  0  0  0  0
 22 20  2  0  0  0  0
 22 16  1  0  0  0  0
 23 20  2  0  0  0  0
 25 26  1  0  0  0  0
 25 28  1  0  0  0  0
 26 27  2  0  0  0  0
 27 24  1  0  0  0  0
 28 19  1  0  0  0  0
 28 24  2  0  0  0  0
 30 29  1  0  0  0  0
M  END
>  <MODEL>
9

>  <REMARK>
 VINA RESULT:      -8.2      4.771      9.261
  Name = 
  6 active torsions:
  status: ('A' for Active; 'I' for Inactive)
    1  A    between atoms: C_2  and  C_24
    2  A    between atoms: C_3  and  C_15
    3  A    between atoms: C_7  and  C_30
    4  A    between atoms: N_8  and  C_15
    5  A    between atoms: C_15  and  C_16
    6  A    between atoms: C_22  and  C_24
                            x       y       z     vdW  Elec       q    Type
                         _______ _______ _______ _____ _____    ______ ____

>  <TORSDO>
F 6

$$$$
