=
 OpenBabel10222421303D

 34 35  0  0  1  0  0  0  0  0999 V2000
  185.9080  178.0590  142.1600 C   0  0  0  0  0  2  0  0  0  0  0  0
  184.9480  179.1450  142.6100 C   0  0  2  0  0  3  0  0  0  0  0  0
  185.3440  178.0470  143.5720 C   0  0  2  0  0  3  0  0  0  0  0  0
  181.6340  179.0660  140.6610 N   0  0  0  0  0  0  0  0  0  0  0  0
  181.1830  178.8680  142.9480 C   0  0  0  0  0  0  0  0  0  0  0  0
  183.0960  178.7970  144.9220 Cl  0  0  0  0  0  0  0  0  0  0  0  0
  182.5560  178.8940  143.2380 C   0  0  0  0  0  0  0  0  0  0  0  0
  182.9800  179.0520  140.8550 C   0  0  0  0  0  0  0  0  0  0  0  0
  183.4900  179.0100  142.1880 C   0  0  0  0  0  0  0  0  0  0  0  0
  180.7660  178.9840  141.6680 N   0  0  0  0  0  0  0  0  0  0  0  0
  183.8120  178.9990  139.6410 C   0  0  0  0  0  0  0  0  0  0  0  0
  183.8820  177.7900  138.8800 N   0  0  0  0  0  2  0  0  0  0  0  0
  184.4030  180.0390  139.2420 O   0  0  0  0  0  0  0  0  0  0  0  0
  184.5110  177.7170  137.5710 C   0  0  0  0  0  2  0  0  0  0  0  0
  185.9520  177.2340  137.6730 C   0  0  0  0  0  2  0  0  0  0  0  0
  186.9050  178.1720  136.9420 C   0  0  0  0  0  2  0  0  0  0  0  0
  189.0000  178.8080  137.3090 C   0  0  0  0  0  1  0  0  0  0  0  0
  188.2170  177.6890  137.0110 O   0  0  0  0  0  0  0  0  0  0  0  0
  180.1600  178.7060  144.0250 C   0  0  0  0  0  2  0  0  0  0  0  0
  179.9820  177.2940  144.3230 N   0  0  0  0  0  1  0  0  0  0  0  0
  186.3850  178.5740  144.5410 C   0  0  0  0  0  2  0  0  0  0  0  0
  187.0570  177.4260  145.2830 C   0  0  1  0  0  3  0  0  0  0  0  0
  189.5590  177.7150  145.1560 N   0  0  0  0  0  2  0  0  0  0  0  0
  188.3710  177.0910  144.6590 C   0  0  0  0  0  0  0  0  0  0  0  0
  188.4370  176.2690  143.7020 O   0  0  0  0  0  0  0  0  0  0  0  0
  190.8930  177.4170  144.6430 C   0  0  1  0  0  3  0  0  0  0  0  0
  191.3430  178.5080  143.6840 C   0  0  0  0  0  1  0  0  0  0  0  0
  191.8630  177.2390  145.7280 N   0  0  0  0  0  2  0  0  0  0  0  0
  190.8540  177.3380  147.8300 O   0  0  0  0  0  1  0  0  0  0  0  0
  191.2910  176.4720  146.8310 C   0  0  2  0  0  3  0  0  0  0  0  0
  192.9550  176.0580  148.5080 O   0  0  0  0  0  1  0  0  0  0  0  0
  192.3210  175.5060  147.3920 C   0  0  0  0  0  2  0  0  0  0  0  0
  187.2370  177.7520  146.7060 C   0  0  0  0  0  0  0  0  0  0  0  0
  187.3910  178.0230  147.8720 C   0  0  0  0  0  3  0  0  0  0  0  0
  1  2  1  0  0  0  0
  1  3  1  0  0  0  0
  2  9  1  6  0  0  0
  2  3  1  0  0  0  0
  3 21  1  1  0  0  0
  4  8  2  0  0  0  0
  4 10  1  0  0  0  0
  5  7  1  0  0  0  0
  5 19  1  0  0  0  0
  7  6  1  0  0  0  0
  8  9  1  0  0  0  0
  9  7  2  0  0  0  0
 10  5  2  0  0  0  0
 11  8  1  0  0  0  0
 12 11  1  0  0  0  0
 13 11  2  0  0  0  0
 14 15  1  0  0  0  0
 14 12  1  0  0  0  0
 16 18  1  0  0  0  0
 16 15  1  0  0  0  0
 18 17  1  0  0  0  0
 19 20  1  0  0  0  0
 22 21  1  6  0  0  0
 22 33  1  0  0  0  0
 24 23  1  0  0  0  0
 24 22  1  0  0  0  0
 25 24  2  0  0  0  0
 26 27  1  6  0  0  0
 26 23  1  0  0  0  0
 26 28  1  0  0  0  0
 28 30  1  0  0  0  0
 30 32  1  0  0  0  0
 30 29  1  1  0  0  0
 32 31  1  0  0  0  0
 33 34  3  0  0  0  0
M  END
>  <MODEL>
1

>  <REMARK>
 VINA RESULT:      -7.4      0.000      0.000
  Name = 
  15 active torsions:
  status: ('A' for Active; 'I' for Inactive)
    1  A    between atoms: C_2  and  C_16
    2  A    between atoms: C_3  and  C_8
    3  A    between atoms: C_3  and  O_20
    4  A    between atoms: C_4  and  C_8
    5  A    between atoms: C_4  and  N_17
    6  A    between atoms: N_6  and  C_14
    7  A    between atoms: C_7  and  C_31
    8  A    between atoms: C_9  and  C_31
    9  A    between atoms: C_10  and  C_26
   10  A    between atoms: C_13  and  C_22
   11  A    between atoms: C_13  and  N_25
   12  A    between atoms: C_14  and  N_25
   13  A    between atoms: C_24  and  C_29
   14  A    between atoms: C_28  and  C_34
   15  A    between atoms: C_31  and  C_34
                            x       y       z     vdW  Elec       q    Type
                         _______ _______ _______ _____ _____    ______ ____

>  <TORSDO>
F 15

$$$$
=
 OpenBabel10222421303D

 34 35  0  0  1  0  0  0  0  0999 V2000
  187.7530  178.1170  141.9160 C   0  0  0  0  0  2  0  0  0  0  0  0
  188.0320  176.9910  142.8940 C   0  0  2  0  0  3  0  0  0  0  0  0
  187.1610  178.1520  143.3160 C   0  0  2  0  0  3  0  0  0  0  0  0
  191.7600  176.8440  143.8260 N   0  0  0  0  0  0  0  0  0  0  0  0
  190.4830  176.9210  145.7850 C   0  0  0  0  0  0  0  0  0  0  0  0
  187.7400  177.0920  145.8600 Cl  0  0  0  0  0  0  0  0  0  0  0  0
  189.3010  177.0070  145.0310 C   0  0  0  0  0  0  0  0  0  0  0  0
  190.6670  176.9700  143.0260 C   0  0  0  0  0  0  0  0  0  0  0  0
  189.3710  177.0110  143.6220 C   0  0  0  0  0  0  0  0  0  0  0  0
  191.6730  176.8130  145.1550 N   0  0  0  0  0  0  0  0  0  0  0  0
  190.9290  177.1380  141.5870 C   0  0  0  0  0  0  0  0  0  0  0  0
  190.3280  176.2440  140.6460 N   0  0  0  0  0  2  0  0  0  0  0  0
  191.6260  178.1100  141.1880 O   0  0  0  0  0  0  0  0  0  0  0  0
  190.3720  176.4640  139.2100 C   0  0  0  0  0  2  0  0  0  0  0  0
  188.9980  176.8210  138.6600 C   0  0  0  0  0  2  0  0  0  0  0  0
  189.0200  178.1650  137.9400 C   0  0  0  0  0  2  0  0  0  0  0  0
  187.3430  178.7580  136.6120 C   0  0  0  0  0  1  0  0  0  0  0  0
  187.7480  178.7480  137.9500 O   0  0  0  0  0  0  0  0  0  0  0  0
  190.4600  176.9540  147.2780 C   0  0  0  0  0  2  0  0  0  0  0  0
  191.8140  176.8420  147.7910 N   0  0  0  0  0  1  0  0  0  0  0  0
  185.7030  177.7370  143.2630 C   0  0  0  0  0  2  0  0  0  0  0  0
  184.8140  178.8260  143.8520 C   0  0  1  0  0  3  0  0  0  0  0  0
  183.1760  178.6100  141.9470 N   0  0  0  0  0  2  0  0  0  0  0  0
  183.4130  178.6910  143.3560 C   0  0  0  0  0  0  0  0  0  0  0  0
  182.4450  178.6490  144.1670 O   0  0  0  0  0  0  0  0  0  0  0  0
  181.8470  178.4300  141.3690 C   0  0  1  0  0  3  0  0  0  0  0  0
  181.0230  179.6960  141.5410 C   0  0  0  0  0  1  0  0  0  0  0  0
  181.9200  178.0390  139.9570 N   0  0  0  0  0  2  0  0  0  0  0  0
  181.4710  179.2380  138.0060 O   0  0  0  0  0  1  0  0  0  0  0  0
  182.3110  179.1650  139.1140 C   0  0  2  0  0  3  0  0  0  0  0  0
  184.5260  180.0870  139.1090 O   0  0  0  0  0  1  0  0  0  0  0  0
  183.7550  179.0100  138.6640 C   0  0  0  0  0  2  0  0  0  0  0  0
  184.8400  178.7880  145.3220 C   0  0  0  0  0  0  0  0  0  0  0  0
  184.8680  178.7590  146.5280 C   0  0  0  0  0  3  0  0  0  0  0  0
  1  2  1  0  0  0  0
  1  3  1  0  0  0  0
  2  3  1  0  0  0  0
  2  9  1  1  0  0  0
  3 21  1  6  0  0  0
  4 10  1  0  0  0  0
  5 19  1  0  0  0  0
  7  5  1  0  0  0  0
  7  6  1  0  0  0  0
  8  9  1  0  0  0  0
  8  4  2  0  0  0  0
  9  7  2  0  0  0  0
 10  5  2  0  0  0  0
 11  8  1  0  0  0  0
 12 11  1  0  0  0  0
 13 11  2  0  0  0  0
 14 12  1  0  0  0  0
 15 14  1  0  0  0  0
 16 18  1  0  0  0  0
 16 15  1  0  0  0  0
 17 18  1  0  0  0  0
 19 20  1  0  0  0  0
 22 21  1  6  0  0  0
 22 33  1  0  0  0  0
 23 24  1  0  0  0  0
 24 22  1  0  0  0  0
 24 25  2  0  0  0  0
 26 27  1  6  0  0  0
 26 23  1  0  0  0  0
 28 26  1  0  0  0  0
 30 29  1  6  0  0  0
 30 28  1  0  0  0  0
 32 31  1  0  0  0  0
 32 30  1  0  0  0  0
 33 34  3  0  0  0  0
M  END
>  <MODEL>
2

>  <REMARK>
 VINA RESULT:      -7.2      2.721      8.079
  Name = 
  15 active torsions:
  status: ('A' for Active; 'I' for Inactive)
    1  A    between atoms: C_2  and  C_16
    2  A    between atoms: C_3  and  C_8
    3  A    between atoms: C_3  and  O_20
    4  A    between atoms: C_4  and  C_8
    5  A    between atoms: C_4  and  N_17
    6  A    between atoms: N_6  and  C_14
    7  A    between atoms: C_7  and  C_31
    8  A    between atoms: C_9  and  C_31
    9  A    between atoms: C_10  and  C_26
   10  A    between atoms: C_13  and  C_22
   11  A    between atoms: C_13  and  N_25
   12  A    between atoms: C_14  and  N_25
   13  A    between atoms: C_24  and  C_29
   14  A    between atoms: C_28  and  C_34
   15  A    between atoms: C_31  and  C_34
                            x       y       z     vdW  Elec       q    Type
                         _______ _______ _______ _____ _____    ______ ____

>  <TORSDO>
F 15

$$$$
=
 OpenBabel10222421303D

 34 35  0  0  1  0  0  0  0  0999 V2000
  187.6760  177.7240  142.7120 C   0  0  0  0  0  2  0  0  0  0  0  0
  188.8320  178.2460  143.5440 C   0  0  2  0  0  3  0  0  0  0  0  0
  189.0960  177.2610  142.4270 C   0  0  2  0  0  3  0  0  0  0  0  0
  188.4980  176.9970  147.1660 N   0  0  0  0  0  0  0  0  0  0  0  0
  190.7000  176.6730  146.4440 C   0  0  0  0  0  0  0  0  0  0  0  0
  191.6320  177.2920  143.9320 Cl  0  0  0  0  0  0  0  0  0  0  0  0
  190.3760  177.1800  145.1760 C   0  0  0  0  0  0  0  0  0  0  0  0
  188.0950  177.4560  145.9510 C   0  0  0  0  0  0  0  0  0  0  0  0
  189.0580  177.6060  144.9090 C   0  0  0  0  0  0  0  0  0  0  0  0
  189.7540  176.6260  147.4080 N   0  0  0  0  0  0  0  0  0  0  0  0
  186.6490  177.6870  145.7900 C   0  0  0  0  0  0  0  0  0  0  0  0
  186.1450  179.0260  145.7420 N   0  0  0  0  0  2  0  0  0  0  0  0
  185.8730  176.7080  145.6280 O   0  0  0  0  0  0  0  0  0  0  0  0
  184.7710  179.3380  145.3850 C   0  0  0  0  0  2  0  0  0  0  0  0
  184.6220  179.5530  143.8850 C   0  0  0  0  0  2  0  0  0  0  0  0
  183.3390  178.9200  143.3580 C   0  0  0  0  0  2  0  0  0  0  0  0
  181.1720  178.7110  143.7890 C   0  0  0  0  0  1  0  0  0  0  0  0
  182.4290  178.7160  144.4010 O   0  0  0  0  0  0  0  0  0  0  0  0
  192.0720  176.1730  146.7570 C   0  0  0  0  0  2  0  0  0  0  0  0
  192.4210  176.5250  148.1240 N   0  0  0  0  0  1  0  0  0  0  0  0
  189.6400  177.9990  141.2190 C   0  0  0  0  0  2  0  0  0  0  0  0
  190.1180  177.0140  140.1590 C   0  0  1  0  0  3  0  0  0  0  0  0
  187.9840  177.5000  138.9060 N   0  0  0  0  0  2  0  0  0  0  0  0
  189.3880  177.2240  138.8750 C   0  0  0  0  0  0  0  0  0  0  0  0
  189.9980  177.1580  137.7710 O   0  0  0  0  0  0  0  0  0  0  0  0
  187.1940  177.7650  137.7070 C   0  0  1  0  0  3  0  0  0  0  0  0
  186.6920  176.4600  137.1090 C   0  0  0  0  0  1  0  0  0  0  0  0
  186.0810  178.6790  137.9840 N   0  0  0  0  0  2  0  0  0  0  0  0
  183.8590  178.1050  137.5580 O   0  0  0  0  0  1  0  0  0  0  0  0
  184.9070  177.9550  138.4630 C   0  0  2  0  0  3  0  0  0  0  0  0
  185.3280  179.5140  140.2360 O   0  0  0  0  0  1  0  0  0  0  0  0
  184.4910  178.4710  139.8310 C   0  0  0  0  0  2  0  0  0  0  0  0
  191.5690  177.1340  139.9460 C   0  0  0  0  0  0  0  0  0  0  0  0
  192.7600  177.2290  139.7780 C   0  0  0  0  0  3  0  0  0  0  0  0
  1  2  1  0  0  0  0
  2  9  1  1  0  0  0
  3 21  1  6  0  0  0
  3  1  1  0  0  0  0
  3  2  1  0  0  0  0
  4 10  1  0  0  0  0
  5 19  1  0  0  0  0
  5 10  2  0  0  0  0
  6  7  1  0  0  0  0
  7  5  1  0  0  0  0
  8  4  2  0  0  0  0
  9  7  2  0  0  0  0
  9  8  1  0  0  0  0
 11  8  1  0  0  0  0
 12 11  1  0  0  0  0
 13 11  2  0  0  0  0
 14 12  1  0  0  0  0
 15 14  1  0  0  0  0
 16 15  1  0  0  0  0
 16 18  1  0  0  0  0
 17 18  1  0  0  0  0
 19 20  1  0  0  0  0
 22 33  1  6  0  0  0
 22 21  1  0  0  0  0
 24 23  1  0  0  0  0
 24 22  1  0  0  0  0
 25 24  2  0  0  0  0
 26 27  1  1  0  0  0
 26 28  1  0  0  0  0
 26 23  1  0  0  0  0
 28 30  1  0  0  0  0
 30 29  1  6  0  0  0
 30 32  1  0  0  0  0
 32 31  1  0  0  0  0
 34 33  3  0  0  0  0
M  END
>  <MODEL>
3

>  <REMARK>
 VINA RESULT:      -7.1      3.223      8.619
  Name = 
  15 active torsions:
  status: ('A' for Active; 'I' for Inactive)
    1  A    between atoms: C_2  and  C_16
    2  A    between atoms: C_3  and  C_8
    3  A    between atoms: C_3  and  O_20
    4  A    between atoms: C_4  and  C_8
    5  A    between atoms: C_4  and  N_17
    6  A    between atoms: N_6  and  C_14
    7  A    between atoms: C_7  and  C_31
    8  A    between atoms: C_9  and  C_31
    9  A    between atoms: C_10  and  C_26
   10  A    between atoms: C_13  and  C_22
   11  A    between atoms: C_13  and  N_25
   12  A    between atoms: C_14  and  N_25
   13  A    between atoms: C_24  and  C_29
   14  A    between atoms: C_28  and  C_34
   15  A    between atoms: C_31  and  C_34
                            x       y       z     vdW  Elec       q    Type
                         _______ _______ _______ _____ _____    ______ ____

>  <TORSDO>
F 15

$$$$
=
 OpenBabel10222421303D

 34 35  0  0  1  0  0  0  0  0999 V2000
  187.2670  178.4670  141.0410 C   0  0  0  0  0  2  0  0  0  0  0  0
  185.8660  179.0320  140.9060 C   0  0  2  0  0  3  0  0  0  0  0  0
  186.1790  178.0610  142.0220 C   0  0  2  0  0  3  0  0  0  0  0  0
  184.2990  177.6860  137.6620 N   0  0  0  0  0  0  0  0  0  0  0  0
  182.6940  177.6420  139.3640 C   0  0  0  0  0  0  0  0  0  0  0  0
  183.1460  178.4150  141.9630 Cl  0  0  0  0  0  0  0  0  0  0  0  0
  183.6340  178.1300  140.2850 C   0  0  0  0  0  0  0  0  0  0  0  0
  185.2790  178.1150  138.5030 C   0  0  0  0  0  0  0  0  0  0  0  0
  184.9520  178.3990  139.8630 C   0  0  0  0  0  0  0  0  0  0  0  0
  183.0520  177.4630  138.0730 N   0  0  0  0  0  0  0  0  0  0  0  0
  186.6380  178.1740  137.9410 C   0  0  0  0  0  0  0  0  0  0  0  0
  187.4940  177.0300  138.0300 N   0  0  0  0  0  2  0  0  0  0  0  0
  187.0170  179.2070  137.3250 O   0  0  0  0  0  0  0  0  0  0  0  0
  188.7640  176.9390  137.3280 C   0  0  0  0  0  2  0  0  0  0  0  0
  189.9010  177.5170  138.1590 C   0  0  0  0  0  2  0  0  0  0  0  0
  190.1980  176.6470  139.3750 C   0  0  0  0  0  2  0  0  0  0  0  0
  191.0360  177.3890  141.2910 C   0  0  0  0  0  1  0  0  0  0  0  0
  191.3930  177.0460  139.9840 O   0  0  0  0  0  0  0  0  0  0  0  0
  181.2990  177.3040  139.7760 C   0  0  0  0  0  2  0  0  0  0  0  0
  180.9770  175.9510  139.3550 N   0  0  0  0  0  1  0  0  0  0  0  0
  186.3540  178.8230  143.3220 C   0  0  0  0  0  2  0  0  0  0  0  0
  186.4930  177.8580  144.4930 C   0  0  1  0  0  3  0  0  0  0  0  0
  188.0460  177.8080  146.4800 N   0  0  0  0  0  2  0  0  0  0  0  0
  187.8710  177.9150  145.0640 C   0  0  0  0  0  0  0  0  0  0  0  0
  188.8740  178.0570  144.3090 O   0  0  0  0  0  0  0  0  0  0  0  0
  189.3550  177.8050  147.1260 C   0  0  1  0  0  3  0  0  0  0  0  0
  189.2220  178.2080  148.5860 C   0  0  0  0  0  1  0  0  0  0  0  0
  190.0190  176.5040  146.9990 N   0  0  0  0  0  2  0  0  0  0  0  0
  191.6380  176.5020  145.3180 O   0  0  0  0  0  1  0  0  0  0  0  0
  191.4370  176.6600  146.6870 C   0  0  2  0  0  3  0  0  0  0  0  0
  192.9460  176.2570  148.5080 O   0  0  0  0  0  1  0  0  0  0  0  0
  192.2610  175.6410  147.4560 C   0  0  0  0  0  2  0  0  0  0  0  0
  185.4980  178.1510  145.5360 C   0  0  0  0  0  0  0  0  0  0  0  0
  184.6760  178.3890  146.3870 C   0  0  0  0  0  3  0  0  0  0  0  0
  1  3  1  0  0  0  0
  2  9  1  6  0  0  0
  2  1  1  0  0  0  0
  2  3  1  0  0  0  0
  3 21  1  1  0  0  0
  4 10  2  0  0  0  0
  4  8  1  0  0  0  0
  5 19  1  0  0  0  0
  5  7  2  0  0  0  0
  7  6  1  0  0  0  0
  8  9  2  0  0  0  0
  9  7  1  0  0  0  0
 10  5  1  0  0  0  0
 11 12  1  0  0  0  0
 11  8  1  0  0  0  0
 13 11  2  0  0  0  0
 14 12  1  0  0  0  0
 14 15  1  0  0  0  0
 15 16  1  0  0  0  0
 16 18  1  0  0  0  0
 18 17  1  0  0  0  0
 20 19  1  0  0  0  0
 22 21  1  6  0  0  0
 22 24  1  0  0  0  0
 22 33  1  0  0  0  0
 23 26  1  0  0  0  0
 24 23  1  0  0  0  0
 25 24  2  0  0  0  0
 26 27  1  1  0  0  0
 28 26  1  0  0  0  0
 30 29  1  6  0  0  0
 30 28  1  0  0  0  0
 30 32  1  0  0  0  0
 32 31  1  0  0  0  0
 33 34  3  0  0  0  0
M  END
>  <MODEL>
4

>  <REMARK>
 VINA RESULT:      -7.0      2.321      3.262
  Name = 
  15 active torsions:
  status: ('A' for Active; 'I' for Inactive)
    1  A    between atoms: C_2  and  C_16
    2  A    between atoms: C_3  and  C_8
    3  A    between atoms: C_3  and  O_20
    4  A    between atoms: C_4  and  C_8
    5  A    between atoms: C_4  and  N_17
    6  A    between atoms: N_6  and  C_14
    7  A    between atoms: C_7  and  C_31
    8  A    between atoms: C_9  and  C_31
    9  A    between atoms: C_10  and  C_26
   10  A    between atoms: C_13  and  C_22
   11  A    between atoms: C_13  and  N_25
   12  A    between atoms: C_14  and  N_25
   13  A    between atoms: C_24  and  C_29
   14  A    between atoms: C_28  and  C_34
   15  A    between atoms: C_31  and  C_34
                            x       y       z     vdW  Elec       q    Type
                         _______ _______ _______ _____ _____    ______ ____

>  <TORSDO>
F 15

$$$$
=
 OpenBabel10222421303D

 34 35  0  0  1  0  0  0  0  0999 V2000
  186.1850  178.4620  141.9570 C   0  0  0  0  0  2  0  0  0  0  0  0
  185.1040  179.2740  142.6450 C   0  0  2  0  0  3  0  0  0  0  0  0
  185.6470  178.0310  143.3120 C   0  0  2  0  0  3  0  0  0  0  0  0
  181.8650  179.0090  140.5880 N   0  0  0  0  0  0  0  0  0  0  0  0
  181.3440  178.8470  142.8630 C   0  0  0  0  0  0  0  0  0  0  0  0
  183.1890  178.9060  144.9010 Cl  0  0  0  0  0  0  0  0  0  0  0  0
  182.7040  178.9390  143.1980 C   0  0  0  0  0  0  0  0  0  0  0  0
  183.2030  179.0560  140.8280 C   0  0  0  0  0  0  0  0  0  0  0  0
  183.6680  179.0680  142.1770 C   0  0  0  0  0  0  0  0  0  0  0  0
  180.9670  178.9150  141.5670 N   0  0  0  0  0  0  0  0  0  0  0  0
  184.0780  179.0090  139.6440 C   0  0  0  0  0  0  0  0  0  0  0  0
  184.1870  177.7990  138.8880 N   0  0  0  0  0  2  0  0  0  0  0  0
  184.6730  180.0530  139.2640 O   0  0  0  0  0  0  0  0  0  0  0  0
  184.8620  177.7300  137.6030 C   0  0  0  0  0  2  0  0  0  0  0  0
  186.0120  176.7320  137.6320 C   0  0  0  0  0  2  0  0  0  0  0  0
  187.3070  177.3640  137.1350 C   0  0  0  0  0  2  0  0  0  0  0  0
  188.7080  179.0840  137.2100 C   0  0  0  0  0  1  0  0  0  0  0  0
  187.5610  178.5610  137.8140 O   0  0  0  0  0  0  0  0  0  0  0  0
  180.2920  178.6690  143.9090 C   0  0  0  0  0  2  0  0  0  0  0  0
  179.9850  177.2560  144.0590 N   0  0  0  0  0  1  0  0  0  0  0  0
  186.6280  178.4270  144.3990 C   0  0  0  0  0  2  0  0  0  0  0  0
  187.3310  177.1980  144.9610 C   0  0  1  0  0  3  0  0  0  0  0  0
  189.7500  177.6520  144.4110 N   0  0  0  0  0  2  0  0  0  0  0  0
  188.5630  176.8880  144.1770 C   0  0  0  0  0  0  0  0  0  0  0  0
  188.5600  175.9640  143.3150 O   0  0  0  0  0  0  0  0  0  0  0  0
  191.0140  177.3940  143.7280 C   0  0  1  0  0  3  0  0  0  0  0  0
  191.1770  175.9050  143.4680 C   0  0  0  0  0  1  0  0  0  0  0  0
  191.1210  178.1590  142.4810 N   0  0  0  0  0  2  0  0  0  0  0  0
  192.5170  177.3460  140.7960 O   0  0  0  0  0  1  0  0  0  0  0  0
  191.2300  177.2760  141.3240 C   0  0  2  0  0  3  0  0  0  0  0  0
  189.0440  176.9080  140.4070 O   0  0  0  0  0  1  0  0  0  0  0  0
  190.2100  177.6640  140.2650 C   0  0  0  0  0  2  0  0  0  0  0  0
  187.6650  177.3860  146.3810 C   0  0  0  0  0  0  0  0  0  0  0  0
  187.9380  177.5330  147.5470 C   0  0  0  0  0  3  0  0  0  0  0  0
  1  2  1  0  0  0  0
  1  3  1  0  0  0  0
  2  9  1  6  0  0  0
  2  3  1  0  0  0  0
  3 21  1  1  0  0  0
  4  8  2  0  0  0  0
  4 10  1  0  0  0  0
  5  7  1  0  0  0  0
  5 19  1  0  0  0  0
  7  6  1  0  0  0  0
  8  9  1  0  0  0  0
  9  7  2  0  0  0  0
 10  5  2  0  0  0  0
 11  8  1  0  0  0  0
 12 11  1  0  0  0  0
 13 11  2  0  0  0  0
 14 15  1  0  0  0  0
 14 12  1  0  0  0  0
 16 15  1  0  0  0  0
 16 18  1  0  0  0  0
 17 18  1  0  0  0  0
 19 20  1  0  0  0  0
 22 21  1  6  0  0  0
 22 33  1  0  0  0  0
 24 23  1  0  0  0  0
 24 22  1  0  0  0  0
 25 24  2  0  0  0  0
 26 27  1  6  0  0  0
 26 23  1  0  0  0  0
 28 26  1  0  0  0  0
 30 29  1  6  0  0  0
 30 28  1  0  0  0  0
 32 31  1  0  0  0  0
 32 30  1  0  0  0  0
 33 34  3  0  0  0  0
M  END
>  <MODEL>
5

>  <REMARK>
 VINA RESULT:      -6.9      1.853      2.719
  Name = 
  15 active torsions:
  status: ('A' for Active; 'I' for Inactive)
    1  A    between atoms: C_2  and  C_16
    2  A    between atoms: C_3  and  C_8
    3  A    between atoms: C_3  and  O_20
    4  A    between atoms: C_4  and  C_8
    5  A    between atoms: C_4  and  N_17
    6  A    between atoms: N_6  and  C_14
    7  A    between atoms: C_7  and  C_31
    8  A    between atoms: C_9  and  C_31
    9  A    between atoms: C_10  and  C_26
   10  A    between atoms: C_13  and  C_22
   11  A    between atoms: C_13  and  N_25
   12  A    between atoms: C_14  and  N_25
   13  A    between atoms: C_24  and  C_29
   14  A    between atoms: C_28  and  C_34
   15  A    between atoms: C_31  and  C_34
                            x       y       z     vdW  Elec       q    Type
                         _______ _______ _______ _____ _____    ______ ____

>  <TORSDO>
F 15

$$$$
=
 OpenBabel10222421303D

 34 35  0  0  1  0  0  0  0  0999 V2000
  188.0630  177.2720  142.3090 C   0  0  0  0  0  2  0  0  0  0  0  0
  187.8080  176.7490  143.7100 C   0  0  2  0  0  3  0  0  0  0  0  0
  187.0980  177.9950  143.2340 C   0  0  2  0  0  3  0  0  0  0  0  0
  191.0290  177.1100  145.7810 N   0  0  0  0  0  0  0  0  0  0  0  0
  189.2010  177.7650  147.0860 C   0  0  0  0  0  0  0  0  0  0  0  0
  186.5930  177.8090  146.2190 Cl  0  0  0  0  0  0  0  0  0  0  0  0
  188.3290  177.5350  146.0100 C   0  0  0  0  0  0  0  0  0  0  0  0
  190.2570  176.9090  144.6790 C   0  0  0  0  0  0  0  0  0  0  0  0
  188.8440  177.0770  144.7800 C   0  0  0  0  0  0  0  0  0  0  0  0
  190.5220  177.5160  146.9440 N   0  0  0  0  0  0  0  0  0  0  0  0
  190.9750  176.6050  143.4290 C   0  0  0  0  0  0  0  0  0  0  0  0
  191.0400  177.5880  142.3900 N   0  0  0  0  0  2  0  0  0  0  0  0
  191.5850  175.5090  143.3080 O   0  0  0  0  0  0  0  0  0  0  0  0
  191.8920  177.4440  141.2220 C   0  0  0  0  0  2  0  0  0  0  0  0
  191.1210  176.8770  140.0380 C   0  0  0  0  0  2  0  0  0  0  0  0
  190.0520  177.8500  139.5540 C   0  0  0  0  0  2  0  0  0  0  0  0
  189.0880  178.6890  137.7390 C   0  0  0  0  0  1  0  0  0  0  0  0
  189.6250  177.5110  138.2660 O   0  0  0  0  0  0  0  0  0  0  0  0
  188.7060  178.2880  148.3950 C   0  0  0  0  0  2  0  0  0  0  0  0
  187.8220  177.3120  149.0100 N   0  0  0  0  0  1  0  0  0  0  0  0
  185.6710  177.6510  142.8530 C   0  0  0  0  0  2  0  0  0  0  0  0
  184.8370  178.9170  142.7000 C   0  0  1  0  0  3  0  0  0  0  0  0
  182.8660  178.2630  141.2680 N   0  0  0  0  0  2  0  0  0  0  0  0
  184.1280  178.9270  141.3860 C   0  0  0  0  0  0  0  0  0  0  0  0
  184.6340  179.5120  140.3880 O   0  0  0  0  0  0  0  0  0  0  0  0
  182.0770  178.2570  140.0400 C   0  0  1  0  0  3  0  0  0  0  0  0
  181.2530  176.9830  139.9480 C   0  0  0  0  0  1  0  0  0  0  0  0
  181.2210  179.4450  139.9410 N   0  0  0  0  0  2  0  0  0  0  0  0
  182.2470  179.4130  137.8450 O   0  0  0  0  0  1  0  0  0  0  0  0
  181.2110  179.9800  138.5830 C   0  0  2  0  0  3  0  0  0  0  0  0
  182.7040  181.8530  138.7050 O   0  0  0  0  0  1  0  0  0  0  0  0
  181.3570  181.4920  138.6110 C   0  0  0  0  0  2  0  0  0  0  0  0
  183.8700  179.0460  143.8010 C   0  0  0  0  0  0  0  0  0  0  0  0
  183.0750  179.1590  144.7010 C   0  0  0  0  0  3  0  0  0  0  0  0
  1  3  1  0  0  0  0
  1  2  1  0  0  0  0
  2  9  1  1  0  0  0
  3 21  1  6  0  0  0
  3  2  1  0  0  0  0
  4 10  1  0  0  0  0
  5 19  1  0  0  0  0
  7  6  1  0  0  0  0
  7  5  1  0  0  0  0
  8  9  1  0  0  0  0
  8  4  2  0  0  0  0
  9  7  2  0  0  0  0
 10  5  2  0  0  0  0
 11  8  1  0  0  0  0
 12 11  1  0  0  0  0
 13 11  2  0  0  0  0
 14 12  1  0  0  0  0
 15 14  1  0  0  0  0
 16 15  1  0  0  0  0
 17 18  1  0  0  0  0
 18 16  1  0  0  0  0
 19 20  1  0  0  0  0
 22 21  1  1  0  0  0
 22 33  1  0  0  0  0
 23 24  1  0  0  0  0
 24 22  1  0  0  0  0
 25 24  2  0  0  0  0
 26 27  1  1  0  0  0
 26 23  1  0  0  0  0
 28 26  1  0  0  0  0
 30 29  1  6  0  0  0
 30 32  1  0  0  0  0
 30 28  1  0  0  0  0
 32 31  1  0  0  0  0
 33 34  3  0  0  0  0
M  END
>  <MODEL>
6

>  <REMARK>
 VINA RESULT:      -6.8      2.461      8.461
  Name = 
  15 active torsions:
  status: ('A' for Active; 'I' for Inactive)
    1  A    between atoms: C_2  and  C_16
    2  A    between atoms: C_3  and  C_8
    3  A    between atoms: C_3  and  O_20
    4  A    between atoms: C_4  and  C_8
    5  A    between atoms: C_4  and  N_17
    6  A    between atoms: N_6  and  C_14
    7  A    between atoms: C_7  and  C_31
    8  A    between atoms: C_9  and  C_31
    9  A    between atoms: C_10  and  C_26
   10  A    between atoms: C_13  and  C_22
   11  A    between atoms: C_13  and  N_25
   12  A    between atoms: C_14  and  N_25
   13  A    between atoms: C_24  and  C_29
   14  A    between atoms: C_28  and  C_34
   15  A    between atoms: C_31  and  C_34
                            x       y       z     vdW  Elec       q    Type
                         _______ _______ _______ _____ _____    ______ ____

>  <TORSDO>
F 15

$$$$
=
 OpenBabel10222421303D

 34 35  0  0  1  0  0  0  0  0999 V2000
  187.6860  178.3080  141.9470 C   0  0  0  0  0  2  0  0  0  0  0  0
  187.6520  177.2030  142.9840 C   0  0  2  0  0  3  0  0  0  0  0  0
  186.6270  178.3130  143.0370 C   0  0  2  0  0  3  0  0  0  0  0  0
  190.7930  177.2680  145.2020 N   0  0  0  0  0  0  0  0  0  0  0  0
  188.8920  177.2890  146.5660 C   0  0  0  0  0  0  0  0  0  0  0  0
  186.3020  177.3090  145.6420 Cl  0  0  0  0  0  0  0  0  0  0  0  0
  188.0610  177.3040  145.4350 C   0  0  0  0  0  0  0  0  0  0  0  0
  190.0580  177.3280  144.0590 C   0  0  0  0  0  0  0  0  0  0  0  0
  188.6340  177.3020  144.1460 C   0  0  0  0  0  0  0  0  0  0  0  0
  190.2340  177.2420  146.4110 N   0  0  0  0  0  0  0  0  0  0  0  0
  190.8150  177.5000  142.8080 C   0  0  0  0  0  0  0  0  0  0  0  0
  190.4960  176.6950  141.6680 N   0  0  0  0  0  2  0  0  0  0  0  0
  191.6930  178.4010  142.7250 O   0  0  0  0  0  0  0  0  0  0  0  0
  191.0530  176.9410  140.3480 C   0  0  0  0  0  2  0  0  0  0  0  0
  190.0360  177.6100  139.4330 C   0  0  0  0  0  2  0  0  0  0  0  0
  190.0640  177.0020  138.0350 C   0  0  0  0  0  2  0  0  0  0  0  0
  188.9590  177.1820  136.1180 C   0  0  0  0  0  1  0  0  0  0  0  0
  188.7770  176.9710  137.4880 O   0  0  0  0  0  0  0  0  0  0  0  0
  188.3290  177.3320  147.9490 C   0  0  0  0  0  2  0  0  0  0  0  0
  188.9600  178.4030  148.7020 N   0  0  0  0  0  1  0  0  0  0  0  0
  185.3110  177.8140  142.4720 C   0  0  0  0  0  2  0  0  0  0  0  0
  184.2470  178.9020  142.5510 C   0  0  1  0  0  3  0  0  0  0  0  0
  183.7640  179.0260  140.0790 N   0  0  0  0  0  2  0  0  0  0  0  0
  183.2920  178.7920  141.4100 C   0  0  0  0  0  0  0  0  0  0  0  0
  182.0800  178.4970  141.6120 O   0  0  0  0  0  0  0  0  0  0  0  0
  182.9170  178.8960  138.8970 C   0  0  1  0  0  3  0  0  0  0  0  0
  182.2180  180.2130  138.6030 C   0  0  0  0  0  1  0  0  0  0  0  0
  183.6820  178.4370  137.7320 N   0  0  0  0  0  2  0  0  0  0  0  0
  185.9840  178.7860  137.8910 O   0  0  0  0  0  1  0  0  0  0  0  0
  184.9660  177.8670  138.1310 C   0  0  2  0  0  3  0  0  0  0  0  0
  184.2360  175.6370  137.6320 O   0  0  0  0  0  1  0  0  0  0  0  0
  185.2330  176.5810  137.3670 C   0  0  0  0  0  2  0  0  0  0  0  0
  183.5220  178.8370  143.8300 C   0  0  0  0  0  0  0  0  0  0  0  0
  182.9230  178.7880  144.8760 C   0  0  0  0  0  3  0  0  0  0  0  0
  1  2  1  0  0  0  0
  1  3  1  0  0  0  0
  2  3  1  0  0  0  0
  2  9  1  1  0  0  0
  3 21  1  6  0  0  0
  4 10  1  0  0  0  0
  5 19  1  0  0  0  0
  7  6  1  0  0  0  0
  7  5  1  0  0  0  0
  8  9  1  0  0  0  0
  8  4  2  0  0  0  0
  9  7  2  0  0  0  0
 10  5  2  0  0  0  0
 11  8  1  0  0  0  0
 12 11  1  0  0  0  0
 13 11  2  0  0  0  0
 14 12  1  0  0  0  0
 15 14  1  0  0  0  0
 16 15  1  0  0  0  0
 17 18  1  0  0  0  0
 18 16  1  0  0  0  0
 19 20  1  0  0  0  0
 22 21  1  1  0  0  0
 22 33  1  0  0  0  0
 23 24  1  0  0  0  0
 24 25  2  0  0  0  0
 24 22  1  0  0  0  0
 26 27  1  6  0  0  0
 26 23  1  0  0  0  0
 28 30  1  0  0  0  0
 28 26  1  0  0  0  0
 30 29  1  6  0  0  0
 32 31  1  0  0  0  0
 32 30  1  0  0  0  0
 33 34  3  0  0  0  0
M  END
>  <MODEL>
7

>  <REMARK>
 VINA RESULT:      -6.7      2.576      7.813
  Name = 
  15 active torsions:
  status: ('A' for Active; 'I' for Inactive)
    1  A    between atoms: C_2  and  C_16
    2  A    between atoms: C_3  and  C_8
    3  A    between atoms: C_3  and  O_20
    4  A    between atoms: C_4  and  C_8
    5  A    between atoms: C_4  and  N_17
    6  A    between atoms: N_6  and  C_14
    7  A    between atoms: C_7  and  C_31
    8  A    between atoms: C_9  and  C_31
    9  A    between atoms: C_10  and  C_26
   10  A    between atoms: C_13  and  C_22
   11  A    between atoms: C_13  and  N_25
   12  A    between atoms: C_14  and  N_25
   13  A    between atoms: C_24  and  C_29
   14  A    between atoms: C_28  and  C_34
   15  A    between atoms: C_31  and  C_34
                            x       y       z     vdW  Elec       q    Type
                         _______ _______ _______ _____ _____    ______ ____

>  <TORSDO>
F 15

$$$$
=
 OpenBabel10222421303D

 34 35  0  0  1  0  0  0  0  0999 V2000
  188.6140  176.8210  144.8390 C   0  0  0  0  0  2  0  0  0  0  0  0
  187.2460  176.9040  144.1890 C   0  0  2  0  0  3  0  0  0  0  0  0
  188.3700  177.7800  143.6850 C   0  0  2  0  0  3  0  0  0  0  0  0
  184.9740  178.5870  146.7960 N   0  0  0  0  0  0  0  0  0  0  0  0
  184.0940  178.9580  144.6600 C   0  0  0  0  0  0  0  0  0  0  0  0
  185.2410  178.0800  142.3200 Cl  0  0  0  0  0  0  0  0  0  0  0  0
  185.1720  178.2700  144.0790 C   0  0  0  0  0  0  0  0  0  0  0  0
  186.0720  177.9490  146.3080 C   0  0  0  0  0  0  0  0  0  0  0  0
  186.1800  177.7290  144.9030 C   0  0  0  0  0  0  0  0  0  0  0  0
  184.0160  179.0680  146.0050 N   0  0  0  0  0  0  0  0  0  0  0  0
  187.1140  177.6050  147.2900 C   0  0  0  0  0  0  0  0  0  0  0  0
  188.0840  178.5860  147.6700 N   0  0  0  0  0  2  0  0  0  0  0  0
  187.1040  176.4710  147.8420 O   0  0  0  0  0  0  0  0  0  0  0  0
  189.0110  178.3920  148.7730 C   0  0  0  0  0  2  0  0  0  0  0  0
  190.4290  178.1540  148.2710 C   0  0  0  0  0  2  0  0  0  0  0  0
  190.5230  176.8620  147.4670 C   0  0  0  0  0  2  0  0  0  0  0  0
  192.4300  175.7750  147.7990 C   0  0  0  0  0  1  0  0  0  0  0  0
  191.8130  176.6990  146.9500 O   0  0  0  0  0  0  0  0  0  0  0  0
  183.0260  179.5820  143.8240 C   0  0  0  0  0  2  0  0  0  0  0  0
  181.7570  178.9190  144.0760 N   0  0  0  0  0  1  0  0  0  0  0  0
  188.9350  177.1930  142.4060 C   0  0  0  0  0  2  0  0  0  0  0  0
  190.4580  177.1910  142.4440 C   0  0  1  0  0  3  0  0  0  0  0  0
  190.1760  176.9740  139.9470 N   0  0  0  0  0  2  0  0  0  0  0  0
  191.0210  177.2660  141.0630 C   0  0  0  0  0  0  0  0  0  0  0  0
  192.2310  177.5830  140.8800 O   0  0  0  0  0  0  0  0  0  0  0  0
  190.6220  177.0660  138.5600 C   0  0  1  0  0  3  0  0  0  0  0  0
  190.8720  175.6780  137.9940 C   0  0  0  0  0  1  0  0  0  0  0  0
  189.6650  177.8070  137.7310 N   0  0  0  0  0  2  0  0  0  0  0  0
  188.4700  176.9010  135.9420 O   0  0  0  0  0  1  0  0  0  0  0  0
  188.5440  176.9610  137.3320 C   0  0  2  0  0  3  0  0  0  0  0  0
  187.4740  178.6890  138.6050 O   0  0  0  0  0  1  0  0  0  0  0  0
  187.2430  177.5050  137.9000 C   0  0  0  0  0  2  0  0  0  0  0  0
  190.9650  178.3030  143.2620 C   0  0  0  0  0  0  0  0  0  0  0  0
  191.3800  179.2110  143.9400 C   0  0  0  0  0  3  0  0  0  0  0  0
  2  1  1  0  0  0  0
  2  9  1  1  0  0  0
  3 21  1  6  0  0  0
  3  2  1  0  0  0  0
  3  1  1  0  0  0  0
  5 10  1  0  0  0  0
  6  7  1  0  0  0  0
  7  5  2  0  0  0  0
  7  9  1  0  0  0  0
  8  4  1  0  0  0  0
  8 11  1  0  0  0  0
  9  8  2  0  0  0  0
 10  4  2  0  0  0  0
 11 12  1  0  0  0  0
 11 13  2  0  0  0  0
 12 14  1  0  0  0  0
 15 14  1  0  0  0  0
 16 15  1  0  0  0  0
 18 16  1  0  0  0  0
 18 17  1  0  0  0  0
 19 20  1  0  0  0  0
 19  5  1  0  0  0  0
 22 21  1  6  0  0  0
 22 33  1  0  0  0  0
 23 24  1  0  0  0  0
 24 22  1  0  0  0  0
 25 24  2  0  0  0  0
 26 27  1  6  0  0  0
 26 23  1  0  0  0  0
 28 26  1  0  0  0  0
 30 29  1  6  0  0  0
 30 28  1  0  0  0  0
 30 32  1  0  0  0  0
 32 31  1  0  0  0  0
 33 34  3  0  0  0  0
M  END
>  <MODEL>
8

>  <REMARK>
 VINA RESULT:      -6.7      2.711      7.553
  Name = 
  15 active torsions:
  status: ('A' for Active; 'I' for Inactive)
    1  A    between atoms: C_2  and  C_16
    2  A    between atoms: C_3  and  C_8
    3  A    between atoms: C_3  and  O_20
    4  A    between atoms: C_4  and  C_8
    5  A    between atoms: C_4  and  N_17
    6  A    between atoms: N_6  and  C_14
    7  A    between atoms: C_7  and  C_31
    8  A    between atoms: C_9  and  C_31
    9  A    between atoms: C_10  and  C_26
   10  A    between atoms: C_13  and  C_22
   11  A    between atoms: C_13  and  N_25
   12  A    between atoms: C_14  and  N_25
   13  A    between atoms: C_24  and  C_29
   14  A    between atoms: C_28  and  C_34
   15  A    between atoms: C_31  and  C_34
                            x       y       z     vdW  Elec       q    Type
                         _______ _______ _______ _____ _____    ______ ____

>  <TORSDO>
F 15

$$$$
=
 OpenBabel10222421303D

 34 35  0  0  1  0  0  0  0  0999 V2000
  185.9870  178.6520  141.7530 C   0  0  0  0  0  2  0  0  0  0  0  0
  184.8610  179.3350  142.5040 C   0  0  2  0  0  3  0  0  0  0  0  0
  185.4650  178.0620  143.0520 C   0  0  2  0  0  3  0  0  0  0  0  0
  181.6840  178.9860  140.3640 N   0  0  0  0  0  0  0  0  0  0  0  0
  181.1010  178.8700  142.6270 C   0  0  0  0  0  0  0  0  0  0  0  0
  182.8860  178.9970  144.7140 Cl  0  0  0  0  0  0  0  0  0  0  0  0
  182.4500  178.9850  142.9980 C   0  0  0  0  0  0  0  0  0  0  0  0
  183.0150  179.0530  140.6410 C   0  0  0  0  0  0  0  0  0  0  0  0
  183.4410  179.1020  142.0020 C   0  0  0  0  0  0  0  0  0  0  0  0
  180.7600  178.9040  141.3200 N   0  0  0  0  0  0  0  0  0  0  0  0
  183.9230  178.9890  139.4830 C   0  0  0  0  0  0  0  0  0  0  0  0
  184.1840  177.7310  138.8530 N   0  0  0  0  0  2  0  0  0  0  0  0
  184.4120  180.0510  139.0120 O   0  0  0  0  0  0  0  0  0  0  0  0
  184.9000  177.6130  137.5940 C   0  0  0  0  0  2  0  0  0  0  0  0
  184.2320  176.6060  136.6670 C   0  0  0  0  0  2  0  0  0  0  0  0
  183.2890  175.6870  137.4340 C   0  0  0  0  0  2  0  0  0  0  0  0
  183.6900  174.6890  135.4920 C   0  0  0  0  0  1  0  0  0  0  0  0
  182.8720  174.6250  136.6240 O   0  0  0  0  0  0  0  0  0  0  0  0
  180.0220  178.7040  143.6470 C   0  0  0  0  0  2  0  0  0  0  0  0
  179.9830  177.3230  144.0970 N   0  0  0  0  0  1  0  0  0  0  0  0
  186.4160  178.3990  144.1850 C   0  0  0  0  0  2  0  0  0  0  0  0
  186.9840  177.1280  144.8030 C   0  0  1  0  0  3  0  0  0  0  0  0
  189.2500  177.2120  143.6990 N   0  0  0  0  0  2  0  0  0  0  0  0
  188.0150  176.5210  143.9110 C   0  0  0  0  0  0  0  0  0  0  0  0
  187.8020  175.4110  143.3460 O   0  0  0  0  0  0  0  0  0  0  0  0
  190.3350  176.6770  142.8820 C   0  0  1  0  0  3  0  0  0  0  0  0
  190.6790  177.6470  141.7630 C   0  0  0  0  0  1  0  0  0  0  0  0
  191.5190  176.3660  143.6900 N   0  0  0  0  0  2  0  0  0  0  0  0
  192.2800  178.2150  144.8950 O   0  0  0  0  0  1  0  0  0  0  0  0
  191.4880  177.0720  144.9680 C   0  0  2  0  0  3  0  0  0  0  0  0
  191.7500  176.7500  147.3310 O   0  0  0  0  0  1  0  0  0  0  0  0
  191.9830  176.1650  146.0830 C   0  0  0  0  0  2  0  0  0  0  0  0
  187.5570  177.4000  146.1310 C   0  0  0  0  0  0  0  0  0  0  0  0
  188.0310  177.6270  147.2170 C   0  0  0  0  0  3  0  0  0  0  0  0
  1  2  1  0  0  0  0
  1  3  1  0  0  0  0
  2  9  1  6  0  0  0
  2  3  1  0  0  0  0
  3 21  1  1  0  0  0
  4  8  2  0  0  0  0
  4 10  1  0  0  0  0
  5  7  1  0  0  0  0
  5 19  1  0  0  0  0
  7  6  1  0  0  0  0
  8  9  1  0  0  0  0
  9  7  2  0  0  0  0
 10  5  2  0  0  0  0
 11  8  1  0  0  0  0
 12 11  1  0  0  0  0
 13 11  2  0  0  0  0
 14 12  1  0  0  0  0
 15 16  1  0  0  0  0
 15 14  1  0  0  0  0
 17 18  1  0  0  0  0
 18 16  1  0  0  0  0
 19 20  1  0  0  0  0
 22 21  1  6  0  0  0
 22 33  1  0  0  0  0
 23 24  1  0  0  0  0
 24 22  1  0  0  0  0
 25 24  2  0  0  0  0
 26 27  1  6  0  0  0
 26 28  1  0  0  0  0
 26 23  1  0  0  0  0
 28 30  1  0  0  0  0
 30 29  1  6  0  0  0
 30 32  1  0  0  0  0
 32 31  1  0  0  0  0
 33 34  3  0  0  0  0
M  END
>  <MODEL>
9

>  <REMARK>
 VINA RESULT:      -6.6      1.691      2.128
  Name = 
  15 active torsions:
  status: ('A' for Active; 'I' for Inactive)
    1  A    between atoms: C_2  and  C_16
    2  A    between atoms: C_3  and  C_8
    3  A    between atoms: C_3  and  O_20
    4  A    between atoms: C_4  and  C_8
    5  A    between atoms: C_4  and  N_17
    6  A    between atoms: N_6  and  C_14
    7  A    between atoms: C_7  and  C_31
    8  A    between atoms: C_9  and  C_31
    9  A    between atoms: C_10  and  C_26
   10  A    between atoms: C_13  and  C_22
   11  A    between atoms: C_13  and  N_25
   12  A    between atoms: C_14  and  N_25
   13  A    between atoms: C_24  and  C_29
   14  A    between atoms: C_28  and  C_34
   15  A    between atoms: C_31  and  C_34
                            x       y       z     vdW  Elec       q    Type
                         _______ _______ _______ _____ _____    ______ ____

>  <TORSDO>
F 15

$$$$
