=
 OpenBabel10232408123D

 32 34  0  0  1  0  0  0  0  0999 V2000
  186.0180  178.0960  145.5020 C   0  0  0  0  0  0  0  0  0  0  0  0
  188.3970  177.6740  145.2730 C   0  0  0  0  0  0  0  0  0  0  0  0
  187.2770  177.9250  146.0740 C   0  0  0  0  0  3  0  0  0  0  0  0
  183.6180  179.0390  144.3700 C   0  0  0  0  0  0  0  0  0  0  0  0
  185.8640  178.0310  144.1110 C   0  0  0  0  0  0  0  0  0  0  0  0
  183.7880  179.0790  145.6620 N   0  0  0  0  0  0  0  0  0  0  0  0
  186.9750  177.7940  143.3020 C   0  0  0  0  0  3  0  0  0  0  0  0
  190.6470  175.9820  144.3700 C   0  0  0  0  0  2  0  0  0  0  0  0
  190.4470  176.8000  143.1440 C   0  0  0  0  0  0  0  0  0  0  0  0
  190.7430  176.8690  145.5710 C   0  0  0  0  0  0  0  0  0  0  0  0
  188.2440  177.6040  143.8600 C   0  0  0  0  0  0  0  0  0  0  0  0
  184.5050  178.1890  143.4980 C   0  0  0  0  0  2  0  0  0  0  0  0
  189.6950  177.5860  145.9720 C   0  0  0  0  0  3  0  0  0  0  0  0
  189.3460  177.4680  142.9470 N   0  0  0  0  0  0  0  0  0  0  0  0
  191.4620  176.7810  142.1400 N   0  0  0  0  0  2  0  0  0  0  0  0
  184.8080  178.2950  146.3630 C   0  0  0  0  0  2  0  0  0  0  0  0
  191.9200  176.9360  146.3170 O   0  0  0  0  0  0  0  0  0  0  0  0
  192.1340  176.1400  147.4750 C   0  0  0  0  0  1  0  0  0  0  0  0
  181.7270  179.2560  143.0250 O   0  0  0  0  0  1  0  0  0  0  0  0
  182.5770  179.7990  143.7590 N   0  0  0  0  0  2  0  0  0  0  0  0
  191.3460  177.5250  140.8960 C   0  0  0  0  0  2  0  0  0  0  0  0
  190.6900  176.6980  139.8980 N   0  0  0  0  0  2  0  0  0  0  0  0
  190.7820  176.6670  137.2170 S   0  0  0  0  0  0  0  0  0  0  0  0
  190.2000  177.2050  138.6530 C   0  0  0  0  0  0  0  0  0  0  0  0
  189.2190  178.3220  138.6640 C   0  0  0  0  0  2  0  0  0  0  0  0
  189.0410  178.8630  137.2580 C   0  0  0  0  0  2  0  0  0  0  0  0
  187.5770  178.8240  136.8480 C   0  0  0  0  0  2  0  0  0  0  0  0
  186.6830  176.3290  136.1820 S   0  0  0  0  0  1  0  0  0  0  0  0
  186.8710  177.6160  137.4480 C   0  0  2  0  0  3  0  0  0  0  0  0
  185.5330  177.9910  137.9890 C   0  0  0  0  0  0  0  0  0  0  0  0
  184.5500  177.2300  137.8070 O   0  0  0  0  0  0  0  0  0  0  0  0
  185.3690  179.1740  138.7030 O   0  0  0  0  0  1  0  0  0  0  0  0
  1  3  1  0  0  0  0
  1 16  1  0  0  0  0
  2 13  1  0  0  0  0
  2  3  2  0  0  0  0
  4  6  2  0  0  0  0
  5  1  2  0  0  0  0
  6 16  1  0  0  0  0
  7 11  2  0  0  0  0
  7  5  1  0  0  0  0
  8 10  1  0  0  0  0
  9  8  1  0  0  0  0
 10 13  2  0  0  0  0
 10 17  1  0  0  0  0
 11  2  1  0  0  0  0
 12  5  1  0  0  0  0
 12  4  1  0  0  0  0
 14  9  2  0  0  0  0
 14 11  1  0  0  0  0
 15  9  1  0  0  0  0
 17 18  1  0  0  0  0
 19 20  1  0  0  0  0
 20  4  1  0  0  0  0
 21 15  1  0  0  0  0
 22 21  1  0  0  0  0
 23 24  2  0  0  0  0
 24 25  1  0  0  0  0
 24 22  1  0  0  0  0
 26 25  1  0  0  0  0
 27 26  1  0  0  0  0
 27 29  1  0  0  0  0
 29 28  1  6  0  0  0
 29 30  1  0  0  0  0
 30 32  1  0  0  0  0
 31 30  2  0  0  0  0
M  END
>  <MODEL>
1

>  <REMARK>
 VINA RESULT:      -8.4      0.000      0.000
  Name = 
  10 active torsions:
  status: ('A' for Active; 'I' for Inactive)
    1  A    between atoms: C_2  and  C_24
    2  A    between atoms: C_2  and  C_30
    3  A    between atoms: C_5  and  N_23
    4  A    between atoms: O_8  and  C_16
    5  A    between atoms: C_15  and  C_27
    6  A    between atoms: C_22  and  C_24
    7  A    between atoms: C_22  and  C_27
    8  A    between atoms: N_26  and  C_30
    9  A    between atoms: N_26  and  C_31
   10  A    between atoms: N_29  and  C_31
                            x       y       z     vdW  Elec       q    Type
                         _______ _______ _______ _____ _____    ______ ____

>  <TORSDO>
F 10

$$$$
=
 OpenBabel10232408123D

 32 34  0  0  1  0  0  0  0  0999 V2000
  188.8160  177.4470  145.9020 C   0  0  0  0  0  0  0  0  0  0  0  0
  187.2850  177.7780  144.0480 C   0  0  0  0  0  0  0  0  0  0  0  0
  187.5190  177.6090  145.4170 C   0  0  0  0  0  3  0  0  0  0  0  0
  191.3060  176.5220  146.8350 C   0  0  0  0  0  0  0  0  0  0  0  0
  189.9010  177.4390  145.0160 C   0  0  0  0  0  0  0  0  0  0  0  0
  190.2780  176.5490  147.6390 N   0  0  0  0  0  0  0  0  0  0  0  0
  189.6780  177.5940  143.6480 C   0  0  0  0  0  3  0  0  0  0  0  0
  186.3390  179.3410  141.7240 C   0  0  0  0  0  2  0  0  0  0  0  0
  187.3280  178.4620  141.0430 C   0  0  0  0  0  0  0  0  0  0  0  0
  185.4150  178.5210  142.5680 C   0  0  0  0  0  0  0  0  0  0  0  0
  188.3850  177.7730  143.1450 C   0  0  0  0  0  0  0  0  0  0  0  0
  191.2960  177.2920  145.5410 C   0  0  0  0  0  2  0  0  0  0  0  0
  185.8700  177.8620  143.6320 C   0  0  0  0  0  3  0  0  0  0  0  0
  188.2390  177.8210  141.7160 N   0  0  0  0  0  0  0  0  0  0  0  0
  187.3060  178.3920  139.6170 N   0  0  0  0  0  2  0  0  0  0  0  0
  189.0720  177.3380  147.3750 C   0  0  0  0  0  2  0  0  0  0  0  0
  184.0510  178.4580  142.2800 O   0  0  0  0  0  0  0  0  0  0  0  0
  183.0540  178.8000  143.2320 C   0  0  0  0  0  1  0  0  0  0  0  0
  193.0970  175.9900  148.2280 O   0  0  0  0  0  1  0  0  0  0  0  0
  192.4640  175.7640  147.1770 N   0  0  0  0  0  2  0  0  0  0  0  0
  188.2480  177.5830  138.8610 C   0  0  0  0  0  2  0  0  0  0  0  0
  187.7790  177.4480  137.4920 N   0  0  0  0  0  2  0  0  0  0  0  0
  186.6020  175.0920  136.9840 S   0  0  0  0  0  0  0  0  0  0  0  0
  186.5980  176.7250  137.1310 C   0  0  0  0  0  0  0  0  0  0  0  0
  185.3690  177.4820  136.7750 C   0  0  0  0  0  2  0  0  0  0  0  0
  184.1710  176.8790  137.4850 C   0  0  0  0  0  2  0  0  0  0  0  0
  183.9460  177.5520  138.8290 C   0  0  0  0  0  2  0  0  0  0  0  0
  181.7920  178.1690  137.2640 S   0  0  0  0  0  1  0  0  0  0  0  0
  182.7330  178.4710  138.7870 C   0  0  2  0  0  3  0  0  0  0  0  0
  183.1430  179.9040  138.8510 C   0  0  0  0  0  0  0  0  0  0  0  0
  184.3440  180.2010  139.0720 O   0  0  0  0  0  1  0  0  0  0  0  0
  182.2060  180.9130  138.6580 O   0  0  0  0  0  0  0  0  0  0  0  0
  1 16  1  0  0  0  0
  2  3  2  0  0  0  0
  3  1  1  0  0  0  0
  4 20  1  0  0  0  0
  4  6  2  0  0  0  0
  5 12  1  0  0  0  0
  5  1  2  0  0  0  0
  7  5  1  0  0  0  0
  8 10  1  0  0  0  0
  9 14  2  0  0  0  0
  9  8  1  0  0  0  0
 10 13  2  0  0  0  0
 11  7  2  0  0  0  0
 11  2  1  0  0  0  0
 12  4  1  0  0  0  0
 13  2  1  0  0  0  0
 14 11  1  0  0  0  0
 15  9  1  0  0  0  0
 16  6  1  0  0  0  0
 17 10  1  0  0  0  0
 17 18  1  0  0  0  0
 20 19  1  0  0  0  0
 21 15  1  0  0  0  0
 22 21  1  0  0  0  0
 23 24  2  0  0  0  0
 24 22  1  0  0  0  0
 25 24  1  0  0  0  0
 25 26  1  0  0  0  0
 26 27  1  0  0  0  0
 29 28  1  6  0  0  0
 29 27  1  0  0  0  0
 29 30  1  0  0  0  0
 30 31  1  0  0  0  0
 32 30  2  0  0  0  0
M  END
>  <MODEL>
2

>  <REMARK>
 VINA RESULT:      -8.2      2.519      5.776
  Name = 
  10 active torsions:
  status: ('A' for Active; 'I' for Inactive)
    1  A    between atoms: C_2  and  C_24
    2  A    between atoms: C_2  and  C_30
    3  A    between atoms: C_5  and  N_23
    4  A    between atoms: O_8  and  C_16
    5  A    between atoms: C_15  and  C_27
    6  A    between atoms: C_22  and  C_24
    7  A    between atoms: C_22  and  C_27
    8  A    between atoms: N_26  and  C_30
    9  A    between atoms: N_26  and  C_31
   10  A    between atoms: N_29  and  C_31
                            x       y       z     vdW  Elec       q    Type
                         _______ _______ _______ _____ _____    ______ ____

>  <TORSDO>
F 10

$$$$
=
 OpenBabel10232408123D

 32 34  0  0  1  0  0  0  0  0999 V2000
  188.5290  177.5730  146.0110 C   0  0  0  0  0  0  0  0  0  0  0  0
  186.8020  177.9300  144.3430 C   0  0  0  0  0  0  0  0  0  0  0  0
  187.1840  177.7070  145.6700 C   0  0  0  0  0  3  0  0  0  0  0  0
  191.1320  176.7020  146.6340 C   0  0  0  0  0  0  0  0  0  0  0  0
  189.5140  177.6480  145.0180 C   0  0  0  0  0  0  0  0  0  0  0  0
  190.1940  176.6520  147.5390 N   0  0  0  0  0  0  0  0  0  0  0  0
  189.1450  177.8580  143.6900 C   0  0  0  0  0  3  0  0  0  0  0  0
  185.5650  179.5630  142.2110 C   0  0  0  0  0  2  0  0  0  0  0  0
  186.5060  178.7550  141.3880 C   0  0  0  0  0  0  0  0  0  0  0  0
  184.7630  178.6690  143.1020 C   0  0  0  0  0  0  0  0  0  0  0  0
  187.8010  178.0100  143.3330 C   0  0  0  0  0  0  0  0  0  0  0  0
  190.9610  177.5300  145.3880 C   0  0  0  0  0  2  0  0  0  0  0  0
  185.3490  177.9790  144.0790 C   0  0  0  0  0  3  0  0  0  0  0  0
  187.5050  178.1190  141.9300 N   0  0  0  0  0  0  0  0  0  0  0  0
  186.3380  178.7510  139.9700 N   0  0  0  0  0  2  0  0  0  0  0  0
  188.9420  177.4050  147.4410 C   0  0  0  0  0  2  0  0  0  0  0  0
  183.3800  178.5660  142.9530 O   0  0  0  0  0  0  0  0  0  0  0  0
  182.4740  178.8890  143.9990 C   0  0  0  0  0  1  0  0  0  0  0  0
  192.8710  175.8660  147.9430 O   0  0  0  0  0  1  0  0  0  0  0  0
  192.3450  175.9740  146.8160 N   0  0  0  0  0  2  0  0  0  0  0  0
  187.2220  178.0150  139.0810 C   0  0  0  0  0  2  0  0  0  0  0  0
  186.8000  178.2160  137.7040 N   0  0  0  0  0  2  0  0  0  0  0  0
  187.1000  177.8630  135.0630 S   0  0  0  0  0  0  0  0  0  0  0  0
  187.6770  178.0740  136.5830 C   0  0  0  0  0  0  0  0  0  0  0  0
  189.1440  178.0070  136.8170 C   0  0  0  0  0  2  0  0  0  0  0  0
  189.6270  176.5790  136.6410 C   0  0  0  0  0  2  0  0  0  0  0  0
  190.2480  176.0590  137.9270 C   0  0  0  0  0  2  0  0  0  0  0  0
  192.9760  175.8950  137.8970 S   0  0  0  0  0  1  0  0  0  0  0  0
  191.4900  176.8570  138.2990 C   0  0  2  0  0  3  0  0  0  0  0  0
  191.4910  177.2030  139.7500 C   0  0  0  0  0  0  0  0  0  0  0  0
  190.4010  177.3280  140.3630 O   0  0  0  0  0  0  0  0  0  0  0  0
  192.6910  177.3800  140.4310 O   0  0  0  0  0  1  0  0  0  0  0  0
  1 16  1  0  0  0  0
  2  3  2  0  0  0  0
  3  1  1  0  0  0  0
  4 20  1  0  0  0  0
  4  6  2  0  0  0  0
  5 12  1  0  0  0  0
  5  1  2  0  0  0  0
  7  5  1  0  0  0  0
  8 10  1  0  0  0  0
  9 14  2  0  0  0  0
  9  8  1  0  0  0  0
 10 13  2  0  0  0  0
 11  7  2  0  0  0  0
 11  2  1  0  0  0  0
 12  4  1  0  0  0  0
 13  2  1  0  0  0  0
 14 11  1  0  0  0  0
 15  9  1  0  0  0  0
 16  6  1  0  0  0  0
 17 10  1  0  0  0  0
 17 18  1  0  0  0  0
 20 19  1  0  0  0  0
 21 15  1  0  0  0  0
 22 21  1  0  0  0  0
 23 24  2  0  0  0  0
 24 25  1  0  0  0  0
 24 22  1  0  0  0  0
 26 25  1  0  0  0  0
 26 27  1  0  0  0  0
 27 29  1  0  0  0  0
 29 28  1  1  0  0  0
 29 30  1  0  0  0  0
 30 31  2  0  0  0  0
 30 32  1  0  0  0  0
M  END
>  <MODEL>
3

>  <REMARK>
 VINA RESULT:      -8.2      2.573      6.045
  Name = 
  10 active torsions:
  status: ('A' for Active; 'I' for Inactive)
    1  A    between atoms: C_2  and  C_24
    2  A    between atoms: C_2  and  C_30
    3  A    between atoms: C_5  and  N_23
    4  A    between atoms: O_8  and  C_16
    5  A    between atoms: C_15  and  C_27
    6  A    between atoms: C_22  and  C_24
    7  A    between atoms: C_22  and  C_27
    8  A    between atoms: N_26  and  C_30
    9  A    between atoms: N_26  and  C_31
   10  A    between atoms: N_29  and  C_31
                            x       y       z     vdW  Elec       q    Type
                         _______ _______ _______ _____ _____    ______ ____

>  <TORSDO>
F 10

$$$$
=
 OpenBabel10232408123D

 32 34  0  0  1  0  0  0  0  0999 V2000
  188.3830  177.4910  146.4350 C   0  0  0  0  0  0  0  0  0  0  0  0
  186.3900  177.9910  145.1430 C   0  0  0  0  0  0  0  0  0  0  0  0
  187.0020  177.6650  146.3580 C   0  0  0  0  0  3  0  0  0  0  0  0
  191.0350  176.5480  146.5060 C   0  0  0  0  0  0  0  0  0  0  0  0
  189.1720  177.6290  145.2860 C   0  0  0  0  0  0  0  0  0  0  0  0
  190.2760  176.4410  147.5620 N   0  0  0  0  0  0  0  0  0  0  0  0
  188.5720  177.9420  144.0670 C   0  0  0  0  0  3  0  0  0  0  0  0
  184.8250  179.7910  143.3960 C   0  0  0  0  0  2  0  0  0  0  0  0
  185.5800  179.0380  142.3590 C   0  0  0  0  0  0  0  0  0  0  0  0
  184.1770  178.8420  144.3540 C   0  0  0  0  0  0  0  0  0  0  0  0
  187.1890  178.1350  143.9750 C   0  0  0  0  0  0  0  0  0  0  0  0
  190.6590  177.4690  145.3750 C   0  0  0  0  0  2  0  0  0  0  0  0
  184.9150  178.0750  145.1550 C   0  0  0  0  0  3  0  0  0  0  0  0
  186.6450  178.3520  142.6610 N   0  0  0  0  0  0  0  0  0  0  0  0
  185.1560  179.1420  140.9990 N   0  0  0  0  0  2  0  0  0  0  0  0
  189.0450  177.2120  147.7500 C   0  0  0  0  0  2  0  0  0  0  0  0
  182.7880  178.7660  144.4540 O   0  0  0  0  0  0  0  0  0  0  0  0
  181.9270  179.0910  143.3720 C   0  0  0  0  0  1  0  0  0  0  0  0
  192.8550  175.4240  147.4310 O   0  0  0  0  0  1  0  0  0  0  0  0
  192.2420  175.7950  146.4100 N   0  0  0  0  0  2  0  0  0  0  0  0
  185.8450  178.4650  139.9130 C   0  0  0  0  0  2  0  0  0  0  0  0
  185.2550  178.8610  138.6450 N   0  0  0  0  0  2  0  0  0  0  0  0
  182.8320  178.0140  137.8690 S   0  0  0  0  0  0  0  0  0  0  0  0
  184.4710  177.9830  137.8320 C   0  0  0  0  0  0  0  0  0  0  0  0
  185.1580  176.9450  137.0190 C   0  0  0  0  0  2  0  0  0  0  0  0
  186.4420  177.5110  136.4430 C   0  0  0  0  0  2  0  0  0  0  0  0
  187.6500  176.7570  136.9750 C   0  0  0  0  0  2  0  0  0  0  0  0
  190.3640  176.4550  136.8790 S   0  0  0  0  0  1  0  0  0  0  0  0
  188.9280  177.5610  136.7830 C   0  0  2  0  0  3  0  0  0  0  0  0
  189.0470  178.6330  137.8130 C   0  0  0  0  0  0  0  0  0  0  0  0
  188.8060  179.8270  137.5030 O   0  0  0  0  0  0  0  0  0  0  0  0
  189.4140  178.3190  139.1170 O   0  0  0  0  0  1  0  0  0  0  0  0
  1 16  1  0  0  0  0
  2 13  1  0  0  0  0
  2  3  2  0  0  0  0
  3  1  1  0  0  0  0
  4  6  2  0  0  0  0
  5 12  1  0  0  0  0
  5  1  2  0  0  0  0
  6 16  1  0  0  0  0
  7  5  1  0  0  0  0
  8 10  1  0  0  0  0
  9 14  2  0  0  0  0
  9  8  1  0  0  0  0
 10 17  1  0  0  0  0
 10 13  2  0  0  0  0
 11  7  2  0  0  0  0
 11  2  1  0  0  0  0
 12  4  1  0  0  0  0
 14 11  1  0  0  0  0
 15  9  1  0  0  0  0
 18 17  1  0  0  0  0
 20  4  1  0  0  0  0
 20 19  1  0  0  0  0
 21 15  1  0  0  0  0
 22 21  1  0  0  0  0
 24 23  2  0  0  0  0
 24 22  1  0  0  0  0
 25 24  1  0  0  0  0
 26 27  1  0  0  0  0
 26 25  1  0  0  0  0
 29 28  1  1  0  0  0
 29 27  1  0  0  0  0
 29 30  1  0  0  0  0
 30 32  1  0  0  0  0
 31 30  2  0  0  0  0
M  END
>  <MODEL>
4

>  <REMARK>
 VINA RESULT:      -8.1      2.458      6.087
  Name = 
  10 active torsions:
  status: ('A' for Active; 'I' for Inactive)
    1  A    between atoms: C_2  and  C_24
    2  A    between atoms: C_2  and  C_30
    3  A    between atoms: C_5  and  N_23
    4  A    between atoms: O_8  and  C_16
    5  A    between atoms: C_15  and  C_27
    6  A    between atoms: C_22  and  C_24
    7  A    between atoms: C_22  and  C_27
    8  A    between atoms: N_26  and  C_30
    9  A    between atoms: N_26  and  C_31
   10  A    between atoms: N_29  and  C_31
                            x       y       z     vdW  Elec       q    Type
                         _______ _______ _______ _____ _____    ______ ____

>  <TORSDO>
F 10

$$$$
=
 OpenBabel10232408123D

 32 34  0  0  1  0  0  0  0  0999 V2000
  188.6860  177.4370  145.8090 C   0  0  0  0  0  0  0  0  0  0  0  0
  187.1450  177.7170  143.9550 C   0  0  0  0  0  0  0  0  0  0  0  0
  187.3840  177.5260  145.3200 C   0  0  0  0  0  3  0  0  0  0  0  0
  191.2280  176.6520  146.7320 C   0  0  0  0  0  0  0  0  0  0  0  0
  189.7730  177.5240  144.9300 C   0  0  0  0  0  0  0  0  0  0  0  0
  190.1980  176.5900  147.5290 N   0  0  0  0  0  0  0  0  0  0  0  0
  189.5470  177.7010  143.5650 C   0  0  0  0  0  3  0  0  0  0  0  0
  186.1090  179.2770  141.6680 C   0  0  0  0  0  2  0  0  0  0  0  0
  187.1560  178.4840  140.9700 C   0  0  0  0  0  0  0  0  0  0  0  0
  185.2370  178.3750  142.4830 C   0  0  0  0  0  0  0  0  0  0  0  0
  188.2470  177.8080  143.0590 C   0  0  0  0  0  0  0  0  0  0  0  0
  191.1740  177.4540  145.4590 C   0  0  0  0  0  2  0  0  0  0  0  0
  185.7300  177.7190  143.5320 C   0  0  0  0  0  3  0  0  0  0  0  0
  188.1050  177.8860  141.6300 N   0  0  0  0  0  0  0  0  0  0  0  0
  187.1450  178.4510  139.5420 N   0  0  0  0  0  2  0  0  0  0  0  0
  188.9430  177.3040  147.2790 C   0  0  0  0  0  2  0  0  0  0  0  0
  183.8820  178.2300  142.1850 O   0  0  0  0  0  0  0  0  0  0  0  0
  183.4070  178.0710  140.8560 C   0  0  0  0  0  1  0  0  0  0  0  0
  192.9120  176.0130  148.2110 O   0  0  0  0  0  1  0  0  0  0  0  0
  192.4320  175.9620  147.0610 N   0  0  0  0  0  2  0  0  0  0  0  0
  188.1420  177.7270  138.7700 C   0  0  0  0  0  2  0  0  0  0  0  0
  188.4020  178.4370  137.5290 N   0  0  0  0  0  2  0  0  0  0  0  0
  186.6030  177.4750  135.7880 S   0  0  0  0  0  0  0  0  0  0  0  0
  188.1240  177.8910  136.2360 C   0  0  0  0  0  0  0  0  0  0  0  0
  189.2570  177.5930  135.3200 C   0  0  0  0  0  2  0  0  0  0  0  0
  188.9800  176.3080  134.5620 C   0  0  0  0  0  2  0  0  0  0  0  0
  189.8000  175.1610  135.1290 C   0  0  0  0  0  2  0  0  0  0  0  0
  192.4760  175.4660  135.5940 S   0  0  0  0  0  1  0  0  0  0  0  0
  190.7730  175.6540  136.1920 C   0  0  2  0  0  3  0  0  0  0  0  0
  190.6000  174.9020  137.4680 C   0  0  0  0  0  0  0  0  0  0  0  0
  190.8950  175.4480  138.5600 O   0  0  0  0  0  1  0  0  0  0  0  0
  190.1050  173.6020  137.4570 O   0  0  0  0  0  0  0  0  0  0  0  0
  1 16  1  0  0  0  0
  2  3  2  0  0  0  0
  3  1  1  0  0  0  0
  4 20  1  0  0  0  0
  4  6  2  0  0  0  0
  5 12  1  0  0  0  0
  5  1  2  0  0  0  0
  7  5  1  0  0  0  0
  8 10  1  0  0  0  0
  9 14  2  0  0  0  0
  9  8  1  0  0  0  0
 10 13  2  0  0  0  0
 11  7  2  0  0  0  0
 11  2  1  0  0  0  0
 12  4  1  0  0  0  0
 13  2  1  0  0  0  0
 14 11  1  0  0  0  0
 15  9  1  0  0  0  0
 16  6  1  0  0  0  0
 17 10  1  0  0  0  0
 18 17  1  0  0  0  0
 20 19  1  0  0  0  0
 21 15  1  0  0  0  0
 22 21  1  0  0  0  0
 23 24  2  0  0  0  0
 24 22  1  0  0  0  0
 25 24  1  0  0  0  0
 26 27  1  0  0  0  0
 26 25  1  0  0  0  0
 27 29  1  0  0  0  0
 29 28  1  6  0  0  0
 29 30  1  0  0  0  0
 30 31  1  0  0  0  0
 32 30  2  0  0  0  0
M  END
>  <MODEL>
5

>  <REMARK>
 VINA RESULT:      -8.0      2.936      6.031
  Name = 
  10 active torsions:
  status: ('A' for Active; 'I' for Inactive)
    1  A    between atoms: C_2  and  C_24
    2  A    between atoms: C_2  and  C_30
    3  A    between atoms: C_5  and  N_23
    4  A    between atoms: O_8  and  C_16
    5  A    between atoms: C_15  and  C_27
    6  A    between atoms: C_22  and  C_24
    7  A    between atoms: C_22  and  C_27
    8  A    between atoms: N_26  and  C_30
    9  A    between atoms: N_26  and  C_31
   10  A    between atoms: N_29  and  C_31
                            x       y       z     vdW  Elec       q    Type
                         _______ _______ _______ _____ _____    ______ ____

>  <TORSDO>
F 10

$$$$
=
 OpenBabel10232408123D

 32 34  0  0  1  0  0  0  0  0999 V2000
  188.7430  177.4710  145.8370 C   0  0  0  0  0  0  0  0  0  0  0  0
  187.1580  177.8060  144.0300 C   0  0  0  0  0  0  0  0  0  0  0  0
  187.4330  177.6390  145.3910 C   0  0  0  0  0  3  0  0  0  0  0  0
  191.2550  176.5350  146.6960 C   0  0  0  0  0  0  0  0  0  0  0  0
  189.8000  177.4560  144.9180 C   0  0  0  0  0  0  0  0  0  0  0  0
  190.2530  176.5690  147.5300 N   0  0  0  0  0  0  0  0  0  0  0  0
  189.5370  177.6090  143.5570 C   0  0  0  0  0  3  0  0  0  0  0  0
  186.1490  179.3700  141.7320 C   0  0  0  0  0  2  0  0  0  0  0  0
  187.1130  178.4850  141.0230 C   0  0  0  0  0  0  0  0  0  0  0  0
  185.2470  178.5560  142.6050 C   0  0  0  0  0  0  0  0  0  0  0  0
  188.2300  177.7940  143.0940 C   0  0  0  0  0  0  0  0  0  0  0  0
  191.2100  177.3020  145.4010 C   0  0  0  0  0  2  0  0  0  0  0  0
  185.7320  177.8960  143.6560 C   0  0  0  0  0  3  0  0  0  0  0  0
  188.0410  177.8410  141.6690 N   0  0  0  0  0  0  0  0  0  0  0  0
  187.0470  178.4120  139.5980 N   0  0  0  0  0  2  0  0  0  0  0  0
  189.0430  177.3630  147.3010 C   0  0  0  0  0  2  0  0  0  0  0  0
  183.8760  178.4990  142.3580 O   0  0  0  0  0  0  0  0  0  0  0  0
  183.3430  178.1550  141.0870 C   0  0  0  0  0  1  0  0  0  0  0  0
  192.9020  175.7640  148.1540 O   0  0  0  0  0  1  0  0  0  0  0  0
  192.4200  175.7710  147.0040 N   0  0  0  0  0  2  0  0  0  0  0  0
  187.9620  177.5970  138.8160 C   0  0  0  0  0  2  0  0  0  0  0  0
  189.3040  178.1460  138.9150 N   0  0  0  0  0  2  0  0  0  0  0  0
  191.4560  177.2900  140.2680 S   0  0  0  0  0  0  0  0  0  0  0  0
  190.4850  177.3390  138.9480 C   0  0  0  0  0  0  0  0  0  0  0  0
  190.8980  176.6140  137.7180 C   0  0  0  0  0  2  0  0  0  0  0  0
  191.2630  175.1820  138.0630 C   0  0  0  0  0  2  0  0  0  0  0  0
  192.3780  174.6780  137.1610 C   0  0  0  0  0  2  0  0  0  0  0  0
  194.3410  176.0380  135.8320 S   0  0  0  0  0  1  0  0  0  0  0  0
  193.6720  175.4400  137.4100 C   0  0  2  0  0  3  0  0  0  0  0  0
  194.6810  174.5770  138.0910 C   0  0  0  0  0  0  0  0  0  0  0  0
  194.9060  173.4190  137.6590 O   0  0  0  0  0  0  0  0  0  0  0  0
  195.3790  175.0500  139.1970 O   0  0  0  0  0  1  0  0  0  0  0  0
  1 16  1  0  0  0  0
  2  3  2  0  0  0  0
  3  1  1  0  0  0  0
  4 20  1  0  0  0  0
  4  6  2  0  0  0  0
  5 12  1  0  0  0  0
  5  1  2  0  0  0  0
  7  5  1  0  0  0  0
  8 10  1  0  0  0  0
  9 14  2  0  0  0  0
  9  8  1  0  0  0  0
 10 13  2  0  0  0  0
 11  7  2  0  0  0  0
 11  2  1  0  0  0  0
 12  4  1  0  0  0  0
 13  2  1  0  0  0  0
 14 11  1  0  0  0  0
 15  9  1  0  0  0  0
 16  6  1  0  0  0  0
 17 10  1  0  0  0  0
 18 17  1  0  0  0  0
 20 19  1  0  0  0  0
 21 22  1  0  0  0  0
 21 15  1  0  0  0  0
 22 24  1  0  0  0  0
 24 23  2  0  0  0  0
 25 26  1  0  0  0  0
 25 24  1  0  0  0  0
 27 29  1  0  0  0  0
 27 26  1  0  0  0  0
 29 28  1  6  0  0  0
 29 30  1  0  0  0  0
 30 32  1  0  0  0  0
 31 30  2  0  0  0  0
M  END
>  <MODEL>
6

>  <REMARK>
 VINA RESULT:      -8.0      3.393      6.642
  Name = 
  10 active torsions:
  status: ('A' for Active; 'I' for Inactive)
    1  A    between atoms: C_2  and  C_24
    2  A    between atoms: C_2  and  C_30
    3  A    between atoms: C_5  and  N_23
    4  A    between atoms: O_8  and  C_16
    5  A    between atoms: C_15  and  C_27
    6  A    between atoms: C_22  and  C_24
    7  A    between atoms: C_22  and  C_27
    8  A    between atoms: N_26  and  C_30
    9  A    between atoms: N_26  and  C_31
   10  A    between atoms: N_29  and  C_31
                            x       y       z     vdW  Elec       q    Type
                         _______ _______ _______ _____ _____    ______ ____

>  <TORSDO>
F 10

$$$$
=
 OpenBabel10232408123D

 32 34  0  0  1  0  0  0  0  0999 V2000
  188.7930  177.3860  145.8530 C   0  0  0  0  0  0  0  0  0  0  0  0
  187.2470  177.6950  144.0070 C   0  0  0  0  0  0  0  0  0  0  0  0
  187.4900  177.5060  145.3720 C   0  0  0  0  0  3  0  0  0  0  0  0
  191.3190  176.5410  146.7640 C   0  0  0  0  0  0  0  0  0  0  0  0
  189.8760  177.4400  144.9660 C   0  0  0  0  0  0  0  0  0  0  0  0
  190.2930  176.5100  147.5690 N   0  0  0  0  0  0  0  0  0  0  0  0
  189.6460  177.6150  143.6020 C   0  0  0  0  0  3  0  0  0  0  0  0
  186.2360  179.2690  141.7180 C   0  0  0  0  0  2  0  0  0  0  0  0
  187.2580  178.4450  141.0180 C   0  0  0  0  0  0  0  0  0  0  0  0
  185.3470  178.3940  142.5440 C   0  0  0  0  0  0  0  0  0  0  0  0
  188.3450  177.7530  143.1040 C   0  0  0  0  0  0  0  0  0  0  0  0
  191.2770  177.3370  145.4870 C   0  0  0  0  0  2  0  0  0  0  0  0
  185.8300  177.7310  143.5940 C   0  0  0  0  0  3  0  0  0  0  0  0
  188.1960  177.8260  141.6760 N   0  0  0  0  0  0  0  0  0  0  0  0
  187.2380  178.4040  139.5900 N   0  0  0  0  0  2  0  0  0  0  0  0
  189.0560  177.2550  147.3220 C   0  0  0  0  0  2  0  0  0  0  0  0
  183.9870  178.2830  142.2550 O   0  0  0  0  0  0  0  0  0  0  0  0
  183.5030  178.0640  140.9380 C   0  0  0  0  0  1  0  0  0  0  0  0
  192.9650  175.8220  148.2500 O   0  0  0  0  0  1  0  0  0  0  0  0
  192.5070  175.8220  147.0900 N   0  0  0  0  0  2  0  0  0  0  0  0
  188.2100  177.6500  138.8160 C   0  0  0  0  0  2  0  0  0  0  0  0
  188.3030  178.2100  137.4790 N   0  0  0  0  0  2  0  0  0  0  0  0
  187.1350  176.3180  135.9800 S   0  0  0  0  0  0  0  0  0  0  0  0
  188.3140  177.4140  136.2900 C   0  0  0  0  0  0  0  0  0  0  0  0
  189.4780  177.5070  135.3690 C   0  0  0  0  0  2  0  0  0  0  0  0
  190.2580  176.2060  135.3940 C   0  0  0  0  0  2  0  0  0  0  0  0
  191.1310  176.1260  136.6360 C   0  0  0  0  0  2  0  0  0  0  0  0
  192.7090  173.9110  136.9110 S   0  0  0  0  0  1  0  0  0  0  0  0
  192.5220  175.6090  136.2970 C   0  0  2  0  0  3  0  0  0  0  0  0
  193.5770  176.4800  136.8910 C   0  0  0  0  0  0  0  0  0  0  0  0
  194.5680  176.8230  136.1980 O   0  0  0  0  0  0  0  0  0  0  0  0
  193.4670  176.9220  138.2060 O   0  0  0  0  0  1  0  0  0  0  0  0
  1 16  1  0  0  0  0
  2  3  2  0  0  0  0
  3  1  1  0  0  0  0
  4 20  1  0  0  0  0
  4  6  2  0  0  0  0
  5 12  1  0  0  0  0
  5  1  2  0  0  0  0
  7  5  1  0  0  0  0
  8 10  1  0  0  0  0
  9 14  2  0  0  0  0
  9  8  1  0  0  0  0
 10 13  2  0  0  0  0
 11  7  2  0  0  0  0
 11  2  1  0  0  0  0
 12  4  1  0  0  0  0
 13  2  1  0  0  0  0
 14 11  1  0  0  0  0
 15  9  1  0  0  0  0
 16  6  1  0  0  0  0
 17 10  1  0  0  0  0
 18 17  1  0  0  0  0
 20 19  1  0  0  0  0
 21 15  1  0  0  0  0
 22 21  1  0  0  0  0
 23 24  2  0  0  0  0
 24 22  1  0  0  0  0
 25 26  1  0  0  0  0
 25 24  1  0  0  0  0
 26 27  1  0  0  0  0
 29 27  1  0  0  0  0
 29 30  1  0  0  0  0
 29 28  1  1  0  0  0
 30 32  1  0  0  0  0
 31 30  2  0  0  0  0
M  END
>  <MODEL>
7

>  <REMARK>
 VINA RESULT:      -7.9      3.337      6.345
  Name = 
  10 active torsions:
  status: ('A' for Active; 'I' for Inactive)
    1  A    between atoms: C_2  and  C_24
    2  A    between atoms: C_2  and  C_30
    3  A    between atoms: C_5  and  N_23
    4  A    between atoms: O_8  and  C_16
    5  A    between atoms: C_15  and  C_27
    6  A    between atoms: C_22  and  C_24
    7  A    between atoms: C_22  and  C_27
    8  A    between atoms: N_26  and  C_30
    9  A    between atoms: N_26  and  C_31
   10  A    between atoms: N_29  and  C_31
                            x       y       z     vdW  Elec       q    Type
                         _______ _______ _______ _____ _____    ______ ____

>  <TORSDO>
F 10

$$$$
=
 OpenBabel10232408123D

 32 34  0  0  1  0  0  0  0  0999 V2000
  188.7360  177.4650  144.3810 C   0  0  0  0  0  0  0  0  0  0  0  0
  189.9590  177.5520  142.2860 C   0  0  0  0  0  0  0  0  0  0  0  0
  189.9390  177.4110  143.6780 C   0  0  0  0  0  3  0  0  0  0  0  0
  186.4500  178.1660  145.8670 C   0  0  0  0  0  0  0  0  0  0  0  0
  187.5320  177.6750  143.6970 C   0  0  0  0  0  0  0  0  0  0  0  0
  187.5850  177.9570  146.4770 N   0  0  0  0  0  0  0  0  0  0  0  0
  187.5410  177.8290  142.3100 C   0  0  0  0  0  3  0  0  0  0  0  0
  190.4870  176.5450  139.5570 C   0  0  0  0  0  2  0  0  0  0  0  0
  189.4420  177.5570  139.2480 C   0  0  0  0  0  0  0  0  0  0  0  0
  191.5570  177.1530  140.4080 C   0  0  0  0  0  0  0  0  0  0  0  0
  188.7370  177.7620  141.5870 C   0  0  0  0  0  0  0  0  0  0  0  0
  186.2370  177.7050  144.4500 C   0  0  0  0  0  2  0  0  0  0  0  0
  191.2910  177.5590  141.6480 C   0  0  0  0  0  3  0  0  0  0  0  0
  188.6650  178.0340  140.1770 N   0  0  0  0  0  0  0  0  0  0  0  0
  189.2520  177.9440  137.8860 N   0  0  0  0  0  2  0  0  0  0  0  0
  188.7070  177.2440  145.8630 C   0  0  0  0  0  2  0  0  0  0  0  0
  192.8640  177.2750  139.9340 O   0  0  0  0  0  0  0  0  0  0  0  0
  193.2800  176.7190  138.6940 C   0  0  0  0  0  1  0  0  0  0  0  0
  185.6140  179.6900  147.4200 O   0  0  0  0  0  1  0  0  0  0  0  0
  185.3860  178.8330  146.5430 N   0  0  0  0  0  2  0  0  0  0  0  0
  188.2380  178.9050  137.4810 C   0  0  0  0  0  2  0  0  0  0  0  0
  187.5660  178.4230  136.2870 N   0  0  0  0  0  2  0  0  0  0  0  0
  185.6100  177.1720  134.9420 S   0  0  0  0  0  0  0  0  0  0  0  0
  186.3760  177.6290  136.3180 C   0  0  0  0  0  0  0  0  0  0  0  0
  185.7590  177.3040  137.6320 C   0  0  0  0  0  2  0  0  0  0  0  0
  184.2480  177.2770  137.4980 C   0  0  0  0  0  2  0  0  0  0  0  0
  183.6150  178.3940  138.3120 C   0  0  0  0  0  2  0  0  0  0  0  0
  181.5080  178.2100  140.0430 S   0  0  0  0  0  1  0  0  0  0  0  0
  183.2710  177.9210  139.7180 C   0  0  2  0  0  3  0  0  0  0  0  0
  184.0950  178.6300  140.7390 C   0  0  0  0  0  0  0  0  0  0  0  0
  183.9560  178.3530  141.9560 O   0  0  0  0  0  1  0  0  0  0  0  0
  185.0240  179.5900  140.3510 O   0  0  0  0  0  0  0  0  0  0  0  0
  1 16  1  0  0  0  0
  2  3  1  0  0  0  0
  3  1  2  0  0  0  0
  4  6  2  0  0  0  0
  4 20  1  0  0  0  0
  5  1  1  0  0  0  0
  5 12  1  0  0  0  0
  7  5  2  0  0  0  0
  8 10  1  0  0  0  0
  9  8  1  0  0  0  0
  9 14  2  0  0  0  0
 10 13  2  0  0  0  0
 11  2  2  0  0  0  0
 11  7  1  0  0  0  0
 12  4  1  0  0  0  0
 13  2  1  0  0  0  0
 14 11  1  0  0  0  0
 15  9  1  0  0  0  0
 16  6  1  0  0  0  0
 17 10  1  0  0  0  0
 18 17  1  0  0  0  0
 20 19  1  0  0  0  0
 21 15  1  0  0  0  0
 22 24  1  0  0  0  0
 22 21  1  0  0  0  0
 23 24  2  0  0  0  0
 24 25  1  0  0  0  0
 26 25  1  0  0  0  0
 26 27  1  0  0  0  0
 27 29  1  0  0  0  0
 29 28  1  1  0  0  0
 29 30  1  0  0  0  0
 30 31  1  0  0  0  0
 32 30  2  0  0  0  0
M  END
>  <MODEL>
8

>  <REMARK>
 VINA RESULT:      -7.7      2.755      4.469
  Name = 
  10 active torsions:
  status: ('A' for Active; 'I' for Inactive)
    1  A    between atoms: C_2  and  C_24
    2  A    between atoms: C_2  and  C_30
    3  A    between atoms: C_5  and  N_23
    4  A    between atoms: O_8  and  C_16
    5  A    between atoms: C_15  and  C_27
    6  A    between atoms: C_22  and  C_24
    7  A    between atoms: C_22  and  C_27
    8  A    between atoms: N_26  and  C_30
    9  A    between atoms: N_26  and  C_31
   10  A    between atoms: N_29  and  C_31
                            x       y       z     vdW  Elec       q    Type
                         _______ _______ _______ _____ _____    ______ ____

>  <TORSDO>
F 10

$$$$
=
 OpenBabel10232408123D

 32 34  0  0  1  0  0  0  0  0999 V2000
  185.8990  178.1400  145.1790 C   0  0  0  0  0  0  0  0  0  0  0  0
  188.2500  177.6750  144.7940 C   0  0  0  0  0  0  0  0  0  0  0  0
  187.1870  177.9300  145.6680 C   0  0  0  0  0  3  0  0  0  0  0  0
  183.4550  179.1560  144.2190 C   0  0  0  0  0  0  0  0  0  0  0  0
  185.6580  178.1100  143.8000 C   0  0  0  0  0  0  0  0  0  0  0  0
  183.7050  179.1620  145.5000 N   0  0  0  0  0  0  0  0  0  0  0  0
  186.7120  177.8690  142.9180 C   0  0  0  0  0  3  0  0  0  0  0  0
  190.4030  175.9600  143.7160 C   0  0  0  0  0  2  0  0  0  0  0  0
  190.1450  176.8110  142.5220 C   0  0  0  0  0  0  0  0  0  0  0  0
  190.5920  176.8170  144.9280 C   0  0  0  0  0  0  0  0  0  0  0  0
  188.0080  177.6420  143.3920 C   0  0  0  0  0  0  0  0  0  0  0  0
  184.2680  178.3090  143.2760 C   0  0  0  0  0  2  0  0  0  0  0  0
  189.5860  177.5450  145.4090 C   0  0  0  0  0  3  0  0  0  0  0  0
  189.0500  177.5050  142.4100 N   0  0  0  0  0  0  0  0  0  0  0  0
  191.0970  176.7940  141.4570 N   0  0  0  0  0  2  0  0  0  0  0  0
  184.7490  178.3420  146.1190 C   0  0  0  0  0  2  0  0  0  0  0  0
  191.8140  176.8420  145.6010 O   0  0  0  0  0  0  0  0  0  0  0  0
  192.0220  176.1590  146.8290 C   0  0  0  0  0  1  0  0  0  0  0  0
  181.3130  179.4360  143.3430 O   0  0  0  0  0  1  0  0  0  0  0  0
  182.3950  179.9510  143.6920 N   0  0  0  0  0  2  0  0  0  0  0  0
  190.9190  177.5700  140.2400 C   0  0  0  0  0  2  0  0  0  0  0  0
  190.3650  176.7180  139.2010 N   0  0  0  0  0  2  0  0  0  0  0  0
  190.5580  174.7950  137.3420 S   0  0  0  0  0  0  0  0  0  0  0  0
  191.1650  176.0260  138.2390 C   0  0  0  0  0  0  0  0  0  0  0  0
  192.6100  176.3590  138.1290 C   0  0  0  0  0  2  0  0  0  0  0  0
  193.3600  175.1930  137.5110 C   0  0  0  0  0  2  0  0  0  0  0  0
  194.4580  175.6900  136.5840 C   0  0  0  0  0  2  0  0  0  0  0  0
  194.9670  173.0620  137.1320 S   0  0  0  0  0  1  0  0  0  0  0  0
  195.4540  174.5830  136.2690 C   0  0  2  0  0  3  0  0  0  0  0  0
  196.8350  174.9730  136.6740 C   0  0  0  0  0  0  0  0  0  0  0  0
  197.5030  174.2180  137.4240 O   0  0  0  0  0  1  0  0  0  0  0  0
  197.3930  176.1630  136.2180 O   0  0  0  0  0  0  0  0  0  0  0  0
  1  3  1  0  0  0  0
  1 16  1  0  0  0  0
  2 13  1  0  0  0  0
  2  3  2  0  0  0  0
  4  6  2  0  0  0  0
  5  1  2  0  0  0  0
  6 16  1  0  0  0  0
  7 11  2  0  0  0  0
  7  5  1  0  0  0  0
  8 10  1  0  0  0  0
  9  8  1  0  0  0  0
 10 13  2  0  0  0  0
 10 17  1  0  0  0  0
 11  2  1  0  0  0  0
 12  5  1  0  0  0  0
 12  4  1  0  0  0  0
 14  9  2  0  0  0  0
 14 11  1  0  0  0  0
 15  9  1  0  0  0  0
 17 18  1  0  0  0  0
 19 20  1  0  0  0  0
 20  4  1  0  0  0  0
 21 15  1  0  0  0  0
 22 21  1  0  0  0  0
 23 24  2  0  0  0  0
 24 22  1  0  0  0  0
 25 24  1  0  0  0  0
 26 25  1  0  0  0  0
 27 26  1  0  0  0  0
 29 27  1  0  0  0  0
 29 30  1  0  0  0  0
 29 28  1  1  0  0  0
 30 31  1  0  0  0  0
 32 30  2  0  0  0  0
M  END
>  <MODEL>
9

>  <REMARK>
 VINA RESULT:      -7.7      3.680      4.866
  Name = 
  10 active torsions:
  status: ('A' for Active; 'I' for Inactive)
    1  A    between atoms: C_2  and  C_24
    2  A    between atoms: C_2  and  C_30
    3  A    between atoms: C_5  and  N_23
    4  A    between atoms: O_8  and  C_16
    5  A    between atoms: C_15  and  C_27
    6  A    between atoms: C_22  and  C_24
    7  A    between atoms: C_22  and  C_27
    8  A    between atoms: N_26  and  C_30
    9  A    between atoms: N_26  and  C_31
   10  A    between atoms: N_29  and  C_31
                            x       y       z     vdW  Elec       q    Type
                         _______ _______ _______ _____ _____    ______ ____

>  <TORSDO>
F 10

$$$$
