=
 OpenBabel10232409513D

 59 64  0  0  1  0  0  0  0  0999 V2000
  190.5360  176.8600  137.7030 C   0  0  0  0  0  3  0  0  0  0  0  0
  189.2490  177.3770  140.1500 C   0  0  0  0  0  0  0  0  0  0  0  0
  191.4080  177.1490  141.2700 C   0  0  0  0  0  3  0  0  0  0  0  0
  189.1520  177.0600  137.7250 C   0  0  0  0  0  0  0  0  0  0  0  0
  189.4270  177.6320  142.5600 C   0  0  0  0  0  3  0  0  0  0  0  0
  188.5140  177.3140  138.9520 C   0  0  0  0  0  3  0  0  0  0  0  0
  190.6480  177.1440  140.1010 C   0  0  0  0  0  0  0  0  0  0  0  0
  190.8010  177.3800  142.5030 C   0  0  0  0  0  0  0  0  0  0  0  0
  191.2800  176.8990  138.8810 C   0  0  0  0  0  3  0  0  0  0  0  0
  188.6390  177.6430  141.4050 C   0  0  0  0  0  0  0  0  0  0  0  0
  187.0490  173.5360  134.7300 C   0  0  0  0  0  3  0  0  0  0  0  0
  187.7660  178.2660  136.0050 C   0  0  0  0  0  2  0  0  0  0  0  0
  184.8640  175.2780  134.8010 C   0  0  0  0  0  3  0  0  0  0  0  0
  187.2660  174.9170  134.6760 C   0  0  0  0  0  0  0  0  0  0  0  0
  189.1550  176.3400  135.2630 C   0  0  0  0  0  0  0  0  0  0  0  0
  188.6120  175.3990  134.5410 N   0  0  0  0  0  0  0  0  0  0  0  0
  186.3690  178.0540  135.6350 N   0  0  0  0  0  2  0  0  0  0  0  0
  186.3350  177.2030  134.5200 N   0  0  0  0  0  2  0  0  0  0  0  0
  184.6620  173.8990  134.8870 C   0  0  0  0  0  3  0  0  0  0  0  0
  188.4110  176.9520  136.4210 C   0  0  1  0  0  3  0  0  0  0  0  0
  186.1600  175.7940  134.6860 C   0  0  0  0  0  0  0  0  0  0  0  0
  185.7530  173.0270  134.8440 C   0  0  0  0  0  3  0  0  0  0  0  0
  190.4190  176.8320  134.9310 O   0  0  0  0  0  0  0  0  0  0  0  0
  191.4160  176.0110  134.3460 C   0  0  0  0  0  1  0  0  0  0  0  0
  186.5530  178.9660  141.0660 C   0  0  0  0  0  3  0  0  0  0  0  0
  187.2130  177.9590  141.6200 C   0  0  0  0  0  3  0  0  0  0  0  0
  184.2100  178.6240  140.6650 C   0  0  0  0  0  0  0  0  0  0  0  0
  183.2690  178.1070  139.9240 C   0  0  0  0  0  3  0  0  0  0  0  0
  185.1450  179.1480  141.4040 C   0  0  0  0  0  3  0  0  0  0  0  0
  182.1070  178.9370  139.4990 C   0  0  2  0  0  3  0  0  0  0  0  0
  180.4420  180.1550  140.6980 O   0  0  0  0  0  0  0  0  0  0  0  0
  181.1310  179.1050  140.6240 C   0  0  0  0  0  0  0  0  0  0  0  0
  180.9880  178.1210  141.5940 O   0  0  0  0  0  1  0  0  0  0  0  0
  181.4850  178.4200  138.1900 C   0  0  2  0  0  3  0  0  0  0  0  0
  181.2820  179.5230  137.2010 C   0  0  0  0  0  0  0  0  0  0  0  0
  181.3440  180.7300  137.5600 O   0  0  0  0  0  1  0  0  0  0  0  0
  181.0260  179.2120  135.8740 O   0  0  0  0  0  0  0  0  0  0  0  0
  180.2000  177.6100  138.3750 C   0  0  0  0  0  2  0  0  0  0  0  0
  180.5850  175.4030  139.5090 C   0  0  0  0  0  1  0  0  0  0  0  0
  180.4440  176.1200  138.1700 C   0  0  2  0  0  3  0  0  0  0  0  0
  181.2100  175.3180  135.9140 C   0  0  0  0  0  1  0  0  0  0  0  0
  181.6480  175.8870  137.2510 C   0  0  0  0  0  3  0  0  0  0  0  0
  182.7040  174.9880  137.8760 C   0  0  0  0  0  1  0  0  0  0  0  0
  191.6440  177.4000  143.7400 C   0  0  1  0  0  3  0  0  0  0  0  0
  191.1620  179.6300  143.9330 O   0  0  0  0  0  0  0  0  0  0  0  0
  191.4040  178.6050  144.4950 N   0  0  0  0  0  0  0  0  0  0  0  0
  191.3030  175.9420  144.7780 S   0  0  0  0  0  0  0  0  0  0  0  0
  191.9200  176.7410  146.2940 C   0  0  0  0  0  2  0  0  0  0  0  0
  191.0340  176.4200  147.4920 C   0  0  0  0  0  2  0  0  0  0  0  0
  189.6210  176.6200  147.1680 N   0  0  0  0  0  2  0  0  0  0  0  0
  188.7690  177.9720  148.9070 O   0  0  0  0  0  1  0  0  0  0  0  0
  189.1690  177.9560  147.5670 C   0  0  2  0  0  3  0  0  0  0  0  0
  184.7310  178.7250  145.8790 C   0  0  0  0  0  3  0  0  0  0  0  0
  185.7060  179.2680  146.8830 C   0  0  0  0  0  2  0  0  0  0  0  0
  186.6480  177.6610  144.7800 C   0  0  0  0  0  2  0  0  0  0  0  0
  188.0560  178.4720  146.6670 C   0  0  2  0  0  3  0  0  0  0  0  0
  185.1790  177.9610  144.8780 C   0  0  0  0  0  3  0  0  0  0  0  0
  186.7120  178.1900  147.3120 C   0  0  2  0  0  3  0  0  0  0  0  0
  187.2300  177.3070  146.1560 C   0  0  1  0  0  3  0  0  0  0  0  0
  1  4  2  0  0  0  0
  1  9  1  0  0  0  0
  2 10  1  0  0  0  0
  3  8  2  0  0  0  0
  4  6  1  0  0  0  0
  6  2  2  0  0  0  0
  7  2  1  0  0  0  0
  7  3  1  0  0  0  0
  8  5  1  0  0  0  0
  8 44  1  0  0  0  0
  9  7  2  0  0  0  0
 10 26  1  0  0  0  0
 10  5  2  0  0  0  0
 11 22  1  0  0  0  0
 12 20  1  0  0  0  0
 13 19  1  0  0  0  0
 14 21  1  0  0  0  0
 14 11  2  0  0  0  0
 15 20  1  0  0  0  0
 16 14  1  0  0  0  0
 16 15  2  0  0  0  0
 17 12  1  0  0  0  0
 18 21  1  0  0  0  0
 18 17  1  0  0  0  0
 20  4  1  1  0  0  0
 21 13  2  0  0  0  0
 22 19  2  0  0  0  0
 23 15  1  0  0  0  0
 24 23  1  0  0  0  0
 25 29  1  0  0  0  0
 25 26  2  0  0  0  0
 27 29  2  0  0  0  0
 28 27  2  0  0  0  0
 30 28  1  1  0  0  0
 30 32  1  0  0  0  0
 32 31  2  0  0  0  0
 32 33  1  0  0  0  0
 34 38  1  1  0  0  0
 34 30  1  0  0  0  0
 35 36  1  0  0  0  0
 35 34  1  0  0  0  0
 37 35  2  0  0  0  0
 40 38  1  0  0  0  0
 40 39  1  1  0  0  0
 41 42  1  0  0  0  0
 42 43  1  0  0  0  0
 42 40  1  0  0  0  0
 44 46  1  1  0  0  0
 44 47  1  0  0  0  0
 45 46  2  0  0  0  0
 47 48  1  0  0  0  0
 48 49  1  0  0  0  0
 50 49  1  0  0  0  0
 50 52  1  0  0  0  0
 52 51  1  1  0  0  0
 53 54  1  0  0  0  0
 55 57  1  0  0  0  0
 56 58  1  0  0  0  0
 56 52  1  1  0  0  0
 57 53  2  0  0  0  0
 58 54  1  6  0  0  0
 59 55  1  6  0  0  0
 59 56  1  0  0  0  0
 59 58  1  0  0  0  0
M  END
>  <MODEL>
1

>  <REMARK>
 VINA RESULT:      -7.8      0.000      0.000
  Name = 
  19 active torsions:
  status: ('A' for Active; 'I' for Inactive)
    1  A    between atoms: C_4  and  C_53
    2  A    between atoms: C_6  and  C_37
    3  A    between atoms: N_8  and  C_43
    4  A    between atoms: N_8  and  C_58
    5  A    between atoms: C_9  and  C_32
    6  A    between atoms: C_9  and  C_53
    7  A    between atoms: C_14  and  O_18
    8  A    between atoms: C_16  and  C_46
    9  A    between atoms: C_17  and  C_54
   10  A    between atoms: S_21  and  C_28
   11  A    between atoms: S_21  and  C_31
   12  A    between atoms: C_27  and  C_58
   13  A    between atoms: C_28  and  C_35
   14  A    between atoms: C_28  and  N_36
   15  A    between atoms: C_31  and  C_43
   16  A    between atoms: C_32  and  C_52
   17  A    between atoms: C_34  and  C_37
   18  A    between atoms: C_37  and  C_53
   19  A    between atoms: C_42  and  C_59
                            x       y       z     vdW  Elec       q    Type
                         _______ _______ _______ _____ _____    ______ ____

>  <TORSDO>
F 19

$$$$
=
 OpenBabel10232409513D

 59 64  0  0  1  0  0  0  0  0999 V2000
  186.6230  178.4270  140.5020 C   0  0  0  0  0  3  0  0  0  0  0  0
  189.2670  177.4760  140.3690 C   0  0  0  0  0  0  0  0  0  0  0  0
  189.5860  178.2040  142.6790 C   0  0  0  0  0  3  0  0  0  0  0  0
  187.0980  177.8720  139.3090 C   0  0  0  0  0  0  0  0  0  0  0  0
  191.4040  177.1610  141.4840 C   0  0  0  0  0  3  0  0  0  0  0  0
  188.4220  177.4030  139.2480 C   0  0  0  0  0  3  0  0  0  0  0  0
  188.7680  178.0680  141.5590 C   0  0  0  0  0  0  0  0  0  0  0  0
  190.9080  177.7650  142.6440 C   0  0  0  0  0  0  0  0  0  0  0  0
  187.4520  178.5260  141.6190 C   0  0  0  0  0  3  0  0  0  0  0  0
  190.6060  177.0010  140.3470 C   0  0  0  0  0  0  0  0  0  0  0  0
  186.1820  175.1320  135.1290 C   0  0  0  0  0  3  0  0  0  0  0  0
  184.8790  178.6230  138.3890 C   0  0  0  0  0  2  0  0  0  0  0  0
  183.5550  175.2010  136.0800 C   0  0  0  0  0  3  0  0  0  0  0  0
  185.6870  176.3090  135.7010 C   0  0  0  0  0  0  0  0  0  0  0  0
  186.7420  178.2150  136.7920 C   0  0  0  0  0  0  0  0  0  0  0  0
  186.5360  177.4660  135.7440 N   0  0  0  0  0  0  0  0  0  0  0  0
  183.7150  177.8210  138.0230 N   0  0  0  0  0  2  0  0  0  0  0  0
  183.7750  177.5630  136.6450 N   0  0  0  0  0  2  0  0  0  0  0  0
  184.0710  174.0230  135.5360 C   0  0  0  0  0  3  0  0  0  0  0  0
  186.1620  177.8470  138.1310 C   0  0  1  0  0  3  0  0  0  0  0  0
  184.3510  176.3490  136.1580 C   0  0  0  0  0  0  0  0  0  0  0  0
  185.3820  173.9890  135.0540 C   0  0  0  0  0  3  0  0  0  0  0  0
  187.4620  179.4050  136.6660 O   0  0  0  0  0  0  0  0  0  0  0  0
  188.8640  179.4630  136.8700 C   0  0  0  0  0  1  0  0  0  0  0  0
  191.9950  176.8980  138.2790 C   0  0  0  0  0  3  0  0  0  0  0  0
  191.2580  176.3150  139.2130 C   0  0  0  0  0  3  0  0  0  0  0  0
  193.5820  175.3050  137.4330 C   0  0  0  0  0  0  0  0  0  0  0  0
  194.6170  174.5420  137.6460 C   0  0  0  0  0  3  0  0  0  0  0  0
  192.5510  176.0710  137.2130 C   0  0  0  0  0  3  0  0  0  0  0  0
  195.7650  174.5510  136.6960 C   0  0  2  0  0  3  0  0  0  0  0  0
  195.5320  174.9070  134.3480 O   0  0  0  0  0  0  0  0  0  0  0  0
  195.3260  174.1390  135.3230 C   0  0  0  0  0  0  0  0  0  0  0  0
  194.6820  172.9250  135.1180 O   0  0  0  0  0  1  0  0  0  0  0  0
  196.9650  173.7590  137.2440 C   0  0  2  0  0  3  0  0  0  0  0  0
  198.1150  174.6560  137.5720 C   0  0  0  0  0  0  0  0  0  0  0  0
  199.0470  174.8400  136.7440 O   0  0  0  0  0  0  0  0  0  0  0  0
  198.1550  175.2930  138.8040 O   0  0  0  0  0  1  0  0  0  0  0  0
  197.4150  172.5960  136.3570 C   0  0  0  0  0  2  0  0  0  0  0  0
  199.4010  171.0610  136.3700 C   0  0  0  0  0  1  0  0  0  0  0  0
  198.1880  171.5520  137.1540 C   0  0  2  0  0  3  0  0  0  0  0  0
  198.0520  169.1240  137.7900 C   0  0  0  0  0  1  0  0  0  0  0  0
  197.2660  170.4050  137.5850 C   0  0  0  0  0  3  0  0  0  0  0  0
  196.1250  170.1630  136.6080 C   0  0  0  0  0  1  0  0  0  0  0  0
  191.7580  177.9050  143.8680 C   0  0  1  0  0  3  0  0  0  0  0  0
  191.2750  180.1360  144.0390 O   0  0  0  0  0  0  0  0  0  0  0  0
  191.3920  179.0910  144.6030 N   0  0  0  0  0  0  0  0  0  0  0  0
  191.5960  176.4410  144.9390 S   0  0  0  0  0  0  0  0  0  0  0  0
  190.6930  177.3500  146.2320 C   0  0  0  0  0  2  0  0  0  0  0  0
  190.4480  176.4780  147.4590 C   0  0  0  0  0  2  0  0  0  0  0  0
  189.0210  176.4090  147.7750 N   0  0  0  0  0  2  0  0  0  0  0  0
  188.1640  178.4060  148.6990 O   0  0  0  0  0  1  0  0  0  0  0  0
  188.3570  177.6890  147.5140 C   0  0  2  0  0  3  0  0  0  0  0  0
  184.9410  178.2750  144.1780 C   0  0  0  0  0  3  0  0  0  0  0  0
  186.2050  177.5050  144.4290 C   0  0  0  0  0  2  0  0  0  0  0  0
  184.8190  178.6210  146.6030 C   0  0  0  0  0  2  0  0  0  0  0  0
  187.0390  177.5050  146.7760 C   0  0  2  0  0  3  0  0  0  0  0  0
  184.2810  178.8060  145.2120 C   0  0  0  0  0  3  0  0  0  0  0  0
  187.0990  178.2310  145.4440 C   0  0  2  0  0  3  0  0  0  0  0  0
  186.3380  178.8440  146.6400 C   0  0  1  0  0  3  0  0  0  0  0  0
  1  9  1  0  0  0  0
  2  7  1  0  0  0  0
  4  1  2  0  0  0  0
  5  8  1  0  0  0  0
  6  4  1  0  0  0  0
  6  2  2  0  0  0  0
  7  9  2  0  0  0  0
  7  3  1  0  0  0  0
  8  3  2  0  0  0  0
  8 44  1  0  0  0  0
 10  2  1  0  0  0  0
 10  5  2  0  0  0  0
 11 14  1  0  0  0  0
 13 21  1  0  0  0  0
 14 16  1  0  0  0  0
 14 21  2  0  0  0  0
 15 20  1  0  0  0  0
 16 15  2  0  0  0  0
 17 12  1  0  0  0  0
 18 17  1  0  0  0  0
 19 13  2  0  0  0  0
 20 12  1  0  0  0  0
 20  4  1  1  0  0  0
 21 18  1  0  0  0  0
 22 11  2  0  0  0  0
 22 19  1  0  0  0  0
 23 15  1  0  0  0  0
 23 24  1  0  0  0  0
 25 26  2  0  0  0  0
 26 10  1  0  0  0  0
 27 28  2  0  0  0  0
 29 27  2  0  0  0  0
 29 25  1  0  0  0  0
 30 34  1  0  0  0  0
 30 28  1  1  0  0  0
 31 32  2  0  0  0  0
 32 30  1  0  0  0  0
 33 32  1  0  0  0  0
 34 38  1  6  0  0  0
 34 35  1  0  0  0  0
 35 37  1  0  0  0  0
 36 35  2  0  0  0  0
 38 40  1  0  0  0  0
 40 39  1  6  0  0  0
 40 42  1  0  0  0  0
 42 41  1  0  0  0  0
 43 42  1  0  0  0  0
 44 46  1  1  0  0  0
 44 47  1  0  0  0  0
 45 46  2  0  0  0  0
 47 48  1  0  0  0  0
 48 49  1  0  0  0  0
 49 50  1  0  0  0  0
 52 50  1  0  0  0  0
 52 51  1  1  0  0  0
 53 54  1  0  0  0  0
 53 57  2  0  0  0  0
 56 52  1  1  0  0  0
 57 55  1  0  0  0  0
 58 54  1  6  0  0  0
 58 59  1  0  0  0  0
 58 56  1  0  0  0  0
 59 55  1  6  0  0  0
 59 56  1  0  0  0  0
M  END
>  <MODEL>
2

>  <REMARK>
 VINA RESULT:      -7.3      3.992      8.981
  Name = 
  19 active torsions:
  status: ('A' for Active; 'I' for Inactive)
    1  A    between atoms: C_4  and  C_53
    2  A    between atoms: C_6  and  C_37
    3  A    between atoms: N_8  and  C_43
    4  A    between atoms: N_8  and  C_58
    5  A    between atoms: C_9  and  C_32
    6  A    between atoms: C_9  and  C_53
    7  A    between atoms: C_14  and  O_18
    8  A    between atoms: C_16  and  C_46
    9  A    between atoms: C_17  and  C_54
   10  A    between atoms: S_21  and  C_28
   11  A    between atoms: S_21  and  C_31
   12  A    between atoms: C_27  and  C_58
   13  A    between atoms: C_28  and  C_35
   14  A    between atoms: C_28  and  N_36
   15  A    between atoms: C_31  and  C_43
   16  A    between atoms: C_32  and  C_52
   17  A    between atoms: C_34  and  C_37
   18  A    between atoms: C_37  and  C_53
   19  A    between atoms: C_42  and  C_59
                            x       y       z     vdW  Elec       q    Type
                         _______ _______ _______ _____ _____    ______ ____

>  <TORSDO>
F 19

$$$$
=
 OpenBabel10232409513D

 59 64  0  0  1  0  0  0  0  0999 V2000
  191.1230  174.4660  135.0170 C   0  0  0  0  0  3  0  0  0  0  0  0
  189.1760  175.9530  136.4010 C   0  0  0  0  0  0  0  0  0  0  0  0
  187.4660  174.9120  135.0000 C   0  0  0  0  0  3  0  0  0  0  0  0
  191.5180  175.3600  136.0170 C   0  0  0  0  0  0  0  0  0  0  0  0
  186.8290  176.5160  136.6850 C   0  0  0  0  0  3  0  0  0  0  0  0
  190.5410  176.1040  136.7020 C   0  0  0  0  0  3  0  0  0  0  0  0
  188.8040  175.0570  135.3630 C   0  0  0  0  0  0  0  0  0  0  0  0
  186.4760  175.6470  135.6480 C   0  0  0  0  0  0  0  0  0  0  0  0
  189.7750  174.3160  134.6900 C   0  0  0  0  0  3  0  0  0  0  0  0
  188.1610  176.6770  137.0800 C   0  0  0  0  0  0  0  0  0  0  0  0
  195.3200  172.9050  138.3260 C   0  0  0  0  0  3  0  0  0  0  0  0
  193.6680  176.4550  135.2970 C   0  0  0  0  0  2  0  0  0  0  0  0
  196.6160  173.3320  135.8870 C   0  0  0  0  0  3  0  0  0  0  0  0
  195.1550  174.1250  137.6620 C   0  0  0  0  0  0  0  0  0  0  0  0
  193.4080  175.8230  137.6890 C   0  0  0  0  0  0  0  0  0  0  0  0
  194.3520  175.1430  138.2790 N   0  0  0  0  0  0  0  0  0  0  0  0
  194.8720  175.8440  134.7400 N   0  0  0  0  0  2  0  0  0  0  0  0
  195.7750  175.6190  135.7910 N   0  0  0  0  0  2  0  0  0  0  0  0
  196.7490  172.1060  136.5440 C   0  0  0  0  0  3  0  0  0  0  0  0
  192.9930  175.5060  136.2770 C   0  0  1  0  0  3  0  0  0  0  0  0
  195.8300  174.3480  136.4420 C   0  0  0  0  0  0  0  0  0  0  0  0
  196.1070  171.8950  137.7670 C   0  0  0  0  0  3  0  0  0  0  0  0
  192.8080  176.8980  138.3490 O   0  0  0  0  0  0  0  0  0  0  0  0
  193.1560  177.2560  139.6760 C   0  0  0  0  0  1  0  0  0  0  0  0
  188.4600  177.2520  139.4880 C   0  0  0  0  0  3  0  0  0  0  0  0
  188.3730  177.6010  138.2120 C   0  0  0  0  0  3  0  0  0  0  0  0
  189.5830  178.1950  141.3900 C   0  0  0  0  0  0  0  0  0  0  0  0
  190.5100  178.0920  142.3020 C   0  0  0  0  0  3  0  0  0  0  0  0
  188.6510  178.2990  140.4860 C   0  0  0  0  0  3  0  0  0  0  0  0
  190.1880  178.3570  143.7320 C   0  0  2  0  0  3  0  0  0  0  0  0
  191.8920  177.7580  145.2910 O   0  0  0  0  0  1  0  0  0  0  0  0
  191.4340  178.6380  144.5180 C   0  0  0  0  0  0  0  0  0  0  0  0
  192.0790  179.8640  144.4110 O   0  0  0  0  0  0  0  0  0  0  0  0
  189.2970  177.2530  144.3290 C   0  0  2  0  0  3  0  0  0  0  0  0
  189.3220  176.0120  143.4950 C   0  0  0  0  0  0  0  0  0  0  0  0
  190.3950  175.3770  143.3160 O   0  0  0  0  0  1  0  0  0  0  0  0
  188.1470  175.5560  142.9140 O   0  0  0  0  0  0  0  0  0  0  0  0
  187.8590  177.6880  144.6190 C   0  0  0  0  0  2  0  0  0  0  0  0
  186.1800  178.1410  146.4300 C   0  0  0  0  0  1  0  0  0  0  0  0
  187.4730  177.4170  146.0680 C   0  0  2  0  0  3  0  0  0  0  0  0
  189.4170  176.5340  147.3930 C   0  0  0  0  0  1  0  0  0  0  0  0
  188.6270  177.7720  147.0130 C   0  0  0  0  0  3  0  0  0  0  0  0
  188.1630  178.4970  148.2670 C   0  0  0  0  0  1  0  0  0  0  0  0
  185.0450  175.4570  135.2510 C   0  0  1  0  0  3  0  0  0  0  0  0
  183.5730  173.8420  135.9330 O   0  0  0  0  0  0  0  0  0  0  0  0
  184.3400  174.6980  136.2530 N   0  0  0  0  0  0  0  0  0  0  0  0
  184.2250  177.0640  135.0010 S   0  0  0  0  0  0  0  0  0  0  0  0
  183.9120  177.3040  136.7780 C   0  0  0  0  0  2  0  0  0  0  0  0
  182.4720  177.7350  137.0370 C   0  0  0  0  0  2  0  0  0  0  0  0
  182.0630  177.4020  138.4020 N   0  0  0  0  0  2  0  0  0  0  0  0
  181.2780  179.6220  138.2210 O   0  0  0  0  0  1  0  0  0  0  0  0
  181.5730  178.5870  139.1130 C   0  0  2  0  0  3  0  0  0  0  0  0
  185.2390  178.4760  142.2270 C   0  0  0  0  0  3  0  0  0  0  0  0
  184.9500  178.7290  140.7750 C   0  0  0  0  0  2  0  0  0  0  0  0
  182.8590  178.8950  142.6440 C   0  0  0  0  0  2  0  0  0  0  0  0
  182.5540  179.0570  140.1780 C   0  0  2  0  0  3  0  0  0  0  0  0
  184.2450  178.5550  143.1160 C   0  0  0  0  0  3  0  0  0  0  0  0
  183.6560  178.0250  140.3410 C   0  0  2  0  0  3  0  0  0  0  0  0
  182.5060  178.1170  141.3680 C   0  0  1  0  0  3  0  0  0  0  0  0
  1  4  1  0  0  0  0
  2  6  1  0  0  0  0
  2 10  1  0  0  0  0
  3  7  1  0  0  0  0
  3  8  2  0  0  0  0
  4  6  2  0  0  0  0
  5 10  2  0  0  0  0
  7  2  2  0  0  0  0
  8  5  1  0  0  0  0
  9  1  2  0  0  0  0
  9  7  1  0  0  0  0
 10 26  1  0  0  0  0
 12 20  1  0  0  0  0
 13 21  2  0  0  0  0
 13 19  1  0  0  0  0
 14 16  1  0  0  0  0
 14 11  2  0  0  0  0
 15 16  2  0  0  0  0
 15 23  1  0  0  0  0
 17 12  1  0  0  0  0
 17 18  1  0  0  0  0
 18 21  1  0  0  0  0
 19 22  2  0  0  0  0
 20  4  1  1  0  0  0
 20 15  1  0  0  0  0
 21 14  1  0  0  0  0
 22 11  1  0  0  0  0
 23 24  1  0  0  0  0
 25 29  1  0  0  0  0
 26 25  2  0  0  0  0
 27 28  2  0  0  0  0
 29 27  2  0  0  0  0
 30 28  1  6  0  0  0
 30 34  1  0  0  0  0
 30 32  1  0  0  0  0
 32 31  1  0  0  0  0
 33 32  2  0  0  0  0
 34 38  1  6  0  0  0
 35 34  1  0  0  0  0
 36 35  1  0  0  0  0
 37 35  2  0  0  0  0
 38 40  1  0  0  0  0
 40 39  1  1  0  0  0
 40 42  1  0  0  0  0
 42 41  1  0  0  0  0
 42 43  1  0  0  0  0
 44 47  1  1  0  0  0
 44  8  1  0  0  0  0
 44 46  1  0  0  0  0
 45 46  2  0  0  0  0
 47 48  1  0  0  0  0
 48 49  1  0  0  0  0
 49 50  1  0  0  0  0
 50 52  1  0  0  0  0
 52 51  1  6  0  0  0
 53 57  2  0  0  0  0
 54 53  1  0  0  0  0
 55 57  1  0  0  0  0
 56 52  1  6  0  0  0
 56 58  1  0  0  0  0
 56 59  1  0  0  0  0
 58 54  1  1  0  0  0
 58 59  1  0  0  0  0
 59 55  1  1  0  0  0
M  END
>  <MODEL>
3

>  <REMARK>
 VINA RESULT:      -6.9      3.553      9.013
  Name = 
  19 active torsions:
  status: ('A' for Active; 'I' for Inactive)
    1  A    between atoms: C_4  and  C_53
    2  A    between atoms: C_6  and  C_37
    3  A    between atoms: N_8  and  C_43
    4  A    between atoms: N_8  and  C_58
    5  A    between atoms: C_9  and  C_32
    6  A    between atoms: C_9  and  C_53
    7  A    between atoms: C_14  and  O_18
    8  A    between atoms: C_16  and  C_46
    9  A    between atoms: C_17  and  C_54
   10  A    between atoms: S_21  and  C_28
   11  A    between atoms: S_21  and  C_31
   12  A    between atoms: C_27  and  C_58
   13  A    between atoms: C_28  and  C_35
   14  A    between atoms: C_28  and  N_36
   15  A    between atoms: C_31  and  C_43
   16  A    between atoms: C_32  and  C_52
   17  A    between atoms: C_34  and  C_37
   18  A    between atoms: C_37  and  C_53
   19  A    between atoms: C_42  and  C_59
                            x       y       z     vdW  Elec       q    Type
                         _______ _______ _______ _____ _____    ______ ____

>  <TORSDO>
F 19

$$$$
=
 OpenBabel10232409513D

 59 64  0  0  1  0  0  0  0  0999 V2000
  192.3400  173.0240  135.1640 C   0  0  0  0  0  3  0  0  0  0  0  0
  191.1770  174.8080  137.0010 C   0  0  0  0  0  0  0  0  0  0  0  0
  189.2270  174.9570  135.5360 C   0  0  0  0  0  3  0  0  0  0  0  0
  193.0520  173.3970  136.3090 C   0  0  0  0  0  0  0  0  0  0  0  0
  189.2880  176.2200  137.5900 C   0  0  0  0  0  3  0  0  0  0  0  0
  192.4660  174.2930  137.2210 C   0  0  0  0  0  3  0  0  0  0  0  0
  190.4880  174.4330  135.8180 C   0  0  0  0  0  0  0  0  0  0  0  0
  188.6280  175.8600  136.4120 C   0  0  0  0  0  0  0  0  0  0  0  0
  191.0680  173.5390  134.9180 C   0  0  0  0  0  3  0  0  0  0  0  0
  190.5490  175.7050  137.9070 C   0  0  0  0  0  0  0  0  0  0  0  0
  195.4010  169.3480  138.2840 C   0  0  0  0  0  3  0  0  0  0  0  0
  195.4330  173.4360  135.4930 C   0  0  0  0  0  2  0  0  0  0  0  0
  196.6480  169.2850  135.7840 C   0  0  0  0  0  3  0  0  0  0  0  0
  195.7840  170.5470  137.6750 C   0  0  0  0  0  0  0  0  0  0  0  0
  195.0100  172.8490  137.8730 C   0  0  0  0  0  0  0  0  0  0  0  0
  195.5620  171.7800  138.3770 N   0  0  0  0  0  0  0  0  0  0  0  0
  196.2000  172.3790  134.8400 N   0  0  0  0  0  2  0  0  0  0  0  0
  196.9420  171.7060  135.8220 N   0  0  0  0  0  2  0  0  0  0  0  0
  196.2320  168.0960  136.3880 C   0  0  0  0  0  3  0  0  0  0  0  0
  194.4390  172.8410  136.4800 C   0  0  1  0  0  3  0  0  0  0  0  0
  196.4370  170.5120  136.4230 C   0  0  0  0  0  0  0  0  0  0  0  0
  195.6150  168.1260  137.6410 C   0  0  0  0  0  3  0  0  0  0  0  0
  194.9950  174.0370  138.6070 O   0  0  0  0  0  0  0  0  0  0  0  0
  196.1110  174.4660  139.3680 C   0  0  0  0  0  1  0  0  0  0  0  0
  190.5750  177.0740  139.9900 C   0  0  0  0  0  3  0  0  0  0  0  0
  191.1030  176.1500  139.2010 C   0  0  0  0  0  3  0  0  0  0  0  0
  190.6890  177.2260  142.3840 C   0  0  0  0  0  0  0  0  0  0  0  0
  190.1140  177.0510  143.5420 C   0  0  0  0  0  3  0  0  0  0  0  0
  191.2650  177.4100  141.2310 C   0  0  0  0  0  3  0  0  0  0  0  0
  190.1340  178.1370  144.5620 C   0  0  2  0  0  3  0  0  0  0  0  0
  192.4290  178.7830  144.4820 O   0  0  0  0  0  1  0  0  0  0  0  0
  191.2330  179.1160  144.2790 C   0  0  0  0  0  0  0  0  0  0  0  0
  190.9440  180.3910  143.8080 O   0  0  0  0  0  0  0  0  0  0  0  0
  190.1380  177.5740  145.9940 C   0  0  2  0  0  3  0  0  0  0  0  0
  191.3150  176.6820  146.2330 C   0  0  0  0  0  0  0  0  0  0  0  0
  191.6380  175.8010  145.3920 O   0  0  0  0  0  0  0  0  0  0  0  0
  192.0590  176.8300  147.3950 O   0  0  0  0  0  1  0  0  0  0  0  0
  188.8370  176.8830  146.4080 C   0  0  0  0  0  2  0  0  0  0  0  0
  187.7180  178.0190  148.3470 C   0  0  0  0  0  1  0  0  0  0  0  0
  187.7760  177.8930  146.8270 C   0  0  2  0  0  3  0  0  0  0  0  0
  186.4710  177.5920  144.7010 C   0  0  0  0  0  1  0  0  0  0  0  0
  186.4160  177.5380  146.2160 C   0  0  0  0  0  3  0  0  0  0  0  0
  185.2890  178.4250  146.7260 C   0  0  0  0  0  1  0  0  0  0  0  0
  187.2650  176.3920  136.0940 C   0  0  1  0  0  3  0  0  0  0  0  0
  186.8250  178.4730  135.2480 O   0  0  0  0  0  0  0  0  0  0  0  0
  187.3460  177.4130  135.0790 N   0  0  0  0  0  0  0  0  0  0  0  0
  186.1630  175.0520  135.5370 S   0  0  0  0  0  0  0  0  0  0  0  0
  185.8100  174.4890  137.2320 C   0  0  0  0  0  2  0  0  0  0  0  0
  184.3690  174.0120  137.3720 C   0  0  0  0  0  2  0  0  0  0  0  0
  183.4360  175.1370  137.3110 N   0  0  0  0  0  2  0  0  0  0  0  0
  181.3340  174.8640  138.3530 O   0  0  0  0  0  1  0  0  0  0  0  0
  182.6630  175.2530  138.5510 C   0  0  2  0  0  3  0  0  0  0  0  0
  182.5650  180.0580  138.7540 C   0  0  0  0  0  3  0  0  0  0  0  0
  181.6460  178.8720  138.7880 C   0  0  0  0  0  2  0  0  0  0  0  0
  184.3750  178.5160  139.3510 C   0  0  0  0  0  2  0  0  0  0  0  0
  182.7320  176.6570  139.1350 C   0  0  2  0  0  3  0  0  0  0  0  0
  183.8630  179.8890  139.0220 C   0  0  0  0  0  3  0  0  0  0  0  0
  182.2840  177.6620  138.0890 C   0  0  2  0  0  3  0  0  0  0  0  0
  183.7840  177.4650  138.3990 C   0  0  1  0  0  3  0  0  0  0  0  0
  1  4  1  0  0  0  0
  2  6  1  0  0  0  0
  2 10  1  0  0  0  0
  3  7  1  0  0  0  0
  3  8  2  0  0  0  0
  4  6  2  0  0  0  0
  5 10  2  0  0  0  0
  7  2  2  0  0  0  0
  8  5  1  0  0  0  0
  9  1  2  0  0  0  0
  9  7  1  0  0  0  0
 10 26  1  0  0  0  0
 12 20  1  0  0  0  0
 13 19  2  0  0  0  0
 13 21  1  0  0  0  0
 14 11  1  0  0  0  0
 14 16  1  0  0  0  0
 15 16  2  0  0  0  0
 15 23  1  0  0  0  0
 17 12  1  0  0  0  0
 17 18  1  0  0  0  0
 18 21  1  0  0  0  0
 19 22  1  0  0  0  0
 20  4  1  1  0  0  0
 20 15  1  0  0  0  0
 21 14  2  0  0  0  0
 22 11  2  0  0  0  0
 23 24  1  0  0  0  0
 25 29  1  0  0  0  0
 26 25  2  0  0  0  0
 27 28  2  0  0  0  0
 29 27  2  0  0  0  0
 30 28  1  6  0  0  0
 30 34  1  0  0  0  0
 32 31  1  0  0  0  0
 32 30  1  0  0  0  0
 33 32  2  0  0  0  0
 34 35  1  0  0  0  0
 34 38  1  6  0  0  0
 35 37  1  0  0  0  0
 36 35  2  0  0  0  0
 38 40  1  0  0  0  0
 40 39  1  1  0  0  0
 41 42  1  0  0  0  0
 42 43  1  0  0  0  0
 42 40  1  0  0  0  0
 44 46  1  6  0  0  0
 44  8  1  0  0  0  0
 46 45  2  0  0  0  0
 47 44  1  0  0  0  0
 47 48  1  0  0  0  0
 48 49  1  0  0  0  0
 50 49  1  0  0  0  0
 50 52  1  0  0  0  0
 52 51  1  6  0  0  0
 53 54  1  0  0  0  0
 53 57  2  0  0  0  0
 56 52  1  6  0  0  0
 57 55  1  0  0  0  0
 58 59  1  0  0  0  0
 58 54  1  1  0  0  0
 58 56  1  0  0  0  0
 59 56  1  0  0  0  0
 59 55  1  1  0  0  0
M  END
>  <MODEL>
4

>  <REMARK>
 VINA RESULT:      -6.6      4.395      9.650
  Name = 
  19 active torsions:
  status: ('A' for Active; 'I' for Inactive)
    1  A    between atoms: C_4  and  C_53
    2  A    between atoms: C_6  and  C_37
    3  A    between atoms: N_8  and  C_43
    4  A    between atoms: N_8  and  C_58
    5  A    between atoms: C_9  and  C_32
    6  A    between atoms: C_9  and  C_53
    7  A    between atoms: C_14  and  O_18
    8  A    between atoms: C_16  and  C_46
    9  A    between atoms: C_17  and  C_54
   10  A    between atoms: S_21  and  C_28
   11  A    between atoms: S_21  and  C_31
   12  A    between atoms: C_27  and  C_58
   13  A    between atoms: C_28  and  C_35
   14  A    between atoms: C_28  and  N_36
   15  A    between atoms: C_31  and  C_43
   16  A    between atoms: C_32  and  C_52
   17  A    between atoms: C_34  and  C_37
   18  A    between atoms: C_37  and  C_53
   19  A    between atoms: C_42  and  C_59
                            x       y       z     vdW  Elec       q    Type
                         _______ _______ _______ _____ _____    ______ ____

>  <TORSDO>
F 19

$$$$
=
 OpenBabel10232409513D

 59 64  0  0  1  0  0  0  0  0999 V2000
  183.2380  177.0810  135.6700 C   0  0  0  0  0  3  0  0  0  0  0  0
  185.6270  177.2640  137.1450 C   0  0  0  0  0  0  0  0  0  0  0  0
  186.7500  176.0090  135.3750 C   0  0  0  0  0  3  0  0  0  0  0  0
  183.2340  177.7180  136.9150 C   0  0  0  0  0  0  0  0  0  0  0  0
  187.9930  176.7330  137.3120 C   0  0  0  0  0  3  0  0  0  0  0  0
  184.4300  177.8030  137.6490 C   0  0  0  0  0  3  0  0  0  0  0  0
  185.5980  176.5990  135.8900 C   0  0  0  0  0  0  0  0  0  0  0  0
  187.9470  176.0620  136.0860 C   0  0  0  0  0  0  0  0  0  0  0  0
  184.4100  176.5230  135.1620 C   0  0  0  0  0  3  0  0  0  0  0  0
  186.8560  177.3430  137.8520 C   0  0  0  0  0  0  0  0  0  0  0  0
  180.2810  177.4950  141.0440 C   0  0  0  0  0  3  0  0  0  0  0  0
  181.4670  179.4950  136.6730 C   0  0  0  0  0  2  0  0  0  0  0  0
  180.2810  180.2770  140.7690 C   0  0  0  0  0  3  0  0  0  0  0  0
  180.2010  178.0620  139.7680 C   0  0  0  0  0  0  0  0  0  0  0  0
  180.7880  177.2640  137.5410 C   0  0  0  0  0  0  0  0  0  0  0  0
  180.0770  177.1910  138.6320 N   0  0  0  0  0  0  0  0  0  0  0  0
  181.0800  180.5430  137.6130 N   0  0  0  0  0  2  0  0  0  0  0  0
  179.9830  180.0810  138.3560 N   0  0  0  0  0  2  0  0  0  0  0  0
  180.3920  179.6990  142.0360 C   0  0  0  0  0  3  0  0  0  0  0  0
  181.9200  178.2490  137.4210 C   0  0  1  0  0  3  0  0  0  0  0  0
  180.1750  179.4670  139.6320 C   0  0  0  0  0  0  0  0  0  0  0  0
  180.3850  178.3090  142.1750 C   0  0  0  0  0  3  0  0  0  0  0  0
  180.4650  176.4630  136.4440 O   0  0  0  0  0  0  0  0  0  0  0  0
  179.9850  177.0100  135.2270 C   0  0  0  0  0  1  0  0  0  0  0  0
  188.0850  177.8470  139.9620 C   0  0  0  0  0  3  0  0  0  0  0  0
  187.0680  178.0420  139.1360 C   0  0  0  0  0  3  0  0  0  0  0  0
  189.1630  178.5350  141.9950 C   0  0  0  0  0  0  0  0  0  0  0  0
  190.1910  178.4570  142.7940 C   0  0  0  0  0  3  0  0  0  0  0  0
  188.1310  178.6120  141.2040 C   0  0  0  0  0  3  0  0  0  0  0  0
  189.9910  178.2450  144.2560 C   0  0  2  0  0  3  0  0  0  0  0  0
  192.2210  179.0080  144.6230 O   0  0  0  0  0  0  0  0  0  0  0  0
  191.3040  178.2240  144.9780 C   0  0  0  0  0  0  0  0  0  0  0  0
  191.5250  177.3390  146.0260 O   0  0  0  0  0  1  0  0  0  0  0  0
  189.0920  177.0280  144.5370 C   0  0  2  0  0  3  0  0  0  0  0  0
  189.3140  175.9350  143.5400 C   0  0  0  0  0  0  0  0  0  0  0  0
  188.3560  175.4700  142.8680 O   0  0  0  0  0  0  0  0  0  0  0  0
  190.5940  175.4310  143.3530 O   0  0  0  0  0  1  0  0  0  0  0  0
  187.6030  177.3560  144.6640 C   0  0  0  0  0  2  0  0  0  0  0  0
  187.7590  177.7700  147.1350 C   0  0  0  0  0  1  0  0  0  0  0  0
  187.3430  178.3510  145.7880 C   0  0  2  0  0  3  0  0  0  0  0  0
  185.0540  178.0270  146.7730 C   0  0  0  0  0  1  0  0  0  0  0  0
  185.8830  178.8160  145.7760 C   0  0  0  0  0  3  0  0  0  0  0  0
  185.2470  178.7370  144.3950 C   0  0  0  0  0  1  0  0  0  0  0  0
  189.1740  175.4370  135.4990 C   0  0  1  0  0  3  0  0  0  0  0  0
  191.0350  176.2520  134.4440 O   0  0  0  0  0  0  0  0  0  0  0  0
  190.1850  176.4370  135.2610 N   0  0  0  0  0  0  0  0  0  0  0  0
  189.8320  174.1450  136.6030 S   0  0  0  0  0  0  0  0  0  0  0  0
  188.8230  172.8310  135.8460 C   0  0  0  0  0  2  0  0  0  0  0  0
  187.7850  172.2930  136.8240 C   0  0  0  0  0  2  0  0  0  0  0  0
  186.5220  172.0070  136.1420 N   0  0  0  0  0  2  0  0  0  0  0  0
  185.4980  173.4110  137.7420 O   0  0  0  0  0  1  0  0  0  0  0  0
  185.5370  173.0640  136.3880 C   0  0  2  0  0  3  0  0  0  0  0  0
  181.0060  171.4490  136.4820 C   0  0  0  0  0  3  0  0  0  0  0  0
  181.8030  172.6980  136.7230 C   0  0  0  0  0  2  0  0  0  0  0  0
  182.9210  170.6260  135.1900 C   0  0  0  0  0  2  0  0  0  0  0  0
  184.1510  172.6750  135.8920 C   0  0  2  0  0  3  0  0  0  0  0  0
  181.5370  170.4640  135.7530 C   0  0  0  0  0  3  0  0  0  0  0  0
  183.2590  172.3620  137.0790 C   0  0  2  0  0  3  0  0  0  0  0  0
  183.8740  171.2240  136.2360 C   0  0  1  0  0  3  0  0  0  0  0  0
  1  4  1  0  0  0  0
  2  6  1  0  0  0  0
  2 10  1  0  0  0  0
  3  7  1  0  0  0  0
  3  8  2  0  0  0  0
  4  6  2  0  0  0  0
  5 10  2  0  0  0  0
  7  2  2  0  0  0  0
  8  5  1  0  0  0  0
  9  1  2  0  0  0  0
  9  7  1  0  0  0  0
 10 26  1  0  0  0  0
 11 22  1  0  0  0  0
 12 20  1  0  0  0  0
 12 17  1  0  0  0  0
 13 19  1  0  0  0  0
 14 11  2  0  0  0  0
 15 16  2  0  0  0  0
 16 14  1  0  0  0  0
 17 18  1  0  0  0  0
 18 21  1  0  0  0  0
 19 22  2  0  0  0  0
 20  4  1  6  0  0  0
 20 15  1  0  0  0  0
 21 14  1  0  0  0  0
 21 13  2  0  0  0  0
 23 15  1  0  0  0  0
 24 23  1  0  0  0  0
 25 29  1  0  0  0  0
 26 25  2  0  0  0  0
 27 28  2  0  0  0  0
 29 27  2  0  0  0  0
 30 28  1  6  0  0  0
 30 34  1  0  0  0  0
 30 32  1  0  0  0  0
 31 32  2  0  0  0  0
 32 33  1  0  0  0  0
 34 38  1  6  0  0  0
 35 34  1  0  0  0  0
 36 35  2  0  0  0  0
 37 35  1  0  0  0  0
 38 40  1  0  0  0  0
 40 39  1  1  0  0  0
 42 40  1  0  0  0  0
 42 41  1  0  0  0  0
 43 42  1  0  0  0  0
 44 46  1  1  0  0  0
 44  8  1  0  0  0  0
 44 47  1  0  0  0  0
 45 46  2  0  0  0  0
 48 47  1  0  0  0  0
 48 49  1  0  0  0  0
 50 52  1  0  0  0  0
 50 49  1  0  0  0  0
 52 51  1  1  0  0  0
 53 54  1  0  0  0  0
 55 57  1  0  0  0  0
 56 59  1  0  0  0  0
 56 52  1  1  0  0  0
 56 58  1  0  0  0  0
 57 53  2  0  0  0  0
 58 54  1  6  0  0  0
 59 55  1  6  0  0  0
 59 58  1  0  0  0  0
M  END
>  <MODEL>
5

>  <REMARK>
 VINA RESULT:      -6.3      3.210      9.586
  Name = 
  19 active torsions:
  status: ('A' for Active; 'I' for Inactive)
    1  A    between atoms: C_4  and  C_53
    2  A    between atoms: C_6  and  C_37
    3  A    between atoms: N_8  and  C_43
    4  A    between atoms: N_8  and  C_58
    5  A    between atoms: C_9  and  C_32
    6  A    between atoms: C_9  and  C_53
    7  A    between atoms: C_14  and  O_18
    8  A    between atoms: C_16  and  C_46
    9  A    between atoms: C_17  and  C_54
   10  A    between atoms: S_21  and  C_28
   11  A    between atoms: S_21  and  C_31
   12  A    between atoms: C_27  and  C_58
   13  A    between atoms: C_28  and  C_35
   14  A    between atoms: C_28  and  N_36
   15  A    between atoms: C_31  and  C_43
   16  A    between atoms: C_32  and  C_52
   17  A    between atoms: C_34  and  C_37
   18  A    between atoms: C_37  and  C_53
   19  A    between atoms: C_42  and  C_59
                            x       y       z     vdW  Elec       q    Type
                         _______ _______ _______ _____ _____    ______ ____

>  <TORSDO>
F 19

$$$$
=
 OpenBabel10232409513D

 59 64  0  0  1  0  0  0  0  0999 V2000
  183.9500  174.7960  135.1960 C   0  0  0  0  0  3  0  0  0  0  0  0
  186.3030  175.4990  136.5670 C   0  0  0  0  0  0  0  0  0  0  0  0
  187.5270  173.9160  135.1650 C   0  0  0  0  0  3  0  0  0  0  0  0
  183.8890  175.7240  136.2410 C   0  0  0  0  0  0  0  0  0  0  0  0
  188.6960  175.1810  136.8540 C   0  0  0  0  0  3  0  0  0  0  0  0
  185.0680  176.0680  136.9250 C   0  0  0  0  0  3  0  0  0  0  0  0
  186.3320  174.5400  135.5200 C   0  0  0  0  0  0  0  0  0  0  0  0
  188.7080  174.2230  135.8360 C   0  0  0  0  0  0  0  0  0  0  0  0
  185.1620  174.2060  134.8390 C   0  0  0  0  0  3  0  0  0  0  0  0
  187.5160  175.8320  137.2280 C   0  0  0  0  0  0  0  0  0  0  0  0
  181.1810  176.9980  140.3470 C   0  0  0  0  0  3  0  0  0  0  0  0
  181.8830  177.0200  135.4460 C   0  0  0  0  0  2  0  0  0  0  0  0
  180.7810  179.3680  138.9210 C   0  0  0  0  0  3  0  0  0  0  0  0
  180.9660  176.9430  138.9660 C   0  0  0  0  0  0  0  0  0  0  0  0
  181.5600  175.3280  137.2410 C   0  0  0  0  0  0  0  0  0  0  0  0
  180.9150  175.6590  138.3260 N   0  0  0  0  0  0  0  0  0  0  0  0
  181.3950  178.3240  135.8870 N   0  0  0  0  0  2  0  0  0  0  0  0
  180.4070  178.1160  136.8620 N   0  0  0  0  0  2  0  0  0  0  0  0
  181.0280  179.4120  140.2950 C   0  0  0  0  0  3  0  0  0  0  0  0
  182.5380  176.2780  136.6030 C   0  0  1  0  0  3  0  0  0  0  0  0
  180.7400  178.1400  138.2510 C   0  0  0  0  0  0  0  0  0  0  0  0
  181.2210  178.2270  141.0100 C   0  0  0  0  0  3  0  0  0  0  0  0
  181.3040  174.1000  136.6250 O   0  0  0  0  0  0  0  0  0  0  0  0
  181.3250  172.8790  137.3440 C   0  0  0  0  0  1  0  0  0  0  0  0
  188.7390  177.0090  139.0540 C   0  0  0  0  0  3  0  0  0  0  0  0
  187.6660  176.8430  138.2940 C   0  0  0  0  0  3  0  0  0  0  0  0
  189.5810  178.0450  141.0500 C   0  0  0  0  0  0  0  0  0  0  0  0
  190.4430  178.0450  142.0290 C   0  0  0  0  0  3  0  0  0  0  0  0
  188.7130  178.0470  140.0790 C   0  0  0  0  0  3  0  0  0  0  0  0
  189.9830  178.2300  143.4340 C   0  0  2  0  0  3  0  0  0  0  0  0
  191.2430  180.1720  144.0090 O   0  0  0  0  0  0  0  0  0  0  0  0
  191.0140  178.9580  144.2430 C   0  0  0  0  0  0  0  0  0  0  0  0
  191.7290  178.3030  145.2390 O   0  0  0  0  0  1  0  0  0  0  0  0
  189.5070  176.9050  144.0570 C   0  0  2  0  0  3  0  0  0  0  0  0
  190.2000  175.7280  143.4470 C   0  0  0  0  0  0  0  0  0  0  0  0
  189.5960  174.9680  142.6450 O   0  0  0  0  0  0  0  0  0  0  0  0
  191.5260  175.4740  143.7690 O   0  0  0  0  0  1  0  0  0  0  0  0
  187.9900  176.7100  144.0480 C   0  0  0  0  0  2  0  0  0  0  0  0
  187.3240  177.5660  146.3120 C   0  0  0  0  0  1  0  0  0  0  0  0
  187.2780  177.8220  144.8090 C   0  0  2  0  0  3  0  0  0  0  0  0
  185.8330  178.1520  142.7800 C   0  0  0  0  0  1  0  0  0  0  0  0
  185.8480  178.0070  144.2900 C   0  0  0  0  0  3  0  0  0  0  0  0
  185.1340  179.1880  144.9320 C   0  0  0  0  0  1  0  0  0  0  0  0
  189.9810  173.5520  135.4200 C   0  0  1  0  0  3  0  0  0  0  0  0
  189.8990  171.3770  134.7090 O   0  0  0  0  0  0  0  0  0  0  0  0
  189.7140  172.5260  134.4430 N   0  0  0  0  0  0  0  0  0  0  0  0
  191.1560  174.7640  134.7370 S   0  0  0  0  0  0  0  0  0  0  0  0
  192.6150  173.8250  135.2890 C   0  0  0  0  0  2  0  0  0  0  0  0
  193.8950  174.3630  134.6590 C   0  0  0  0  0  2  0  0  0  0  0  0
  194.6090  175.2370  135.5900 N   0  0  0  0  0  2  0  0  0  0  0  0
  195.1960  175.2080  137.8770 O   0  0  0  0  0  1  0  0  0  0  0  0
  195.2030  174.4700  136.6890 C   0  0  2  0  0  3  0  0  0  0  0  0
  200.0060  174.2080  136.7750 C   0  0  0  0  0  3  0  0  0  0  0  0
  198.7980  173.7080  137.5130 C   0  0  0  0  0  2  0  0  0  0  0  0
  198.5090  174.6600  134.8860 C   0  0  0  0  0  2  0  0  0  0  0  0
  196.6110  173.9980  136.3570 C   0  0  2  0  0  3  0  0  0  0  0  0
  199.8690  174.6610  135.5250 C   0  0  0  0  0  3  0  0  0  0  0  0
  197.6000  174.6460  137.3080 C   0  0  2  0  0  3  0  0  0  0  0  0
  197.4400  175.1690  135.8640 C   0  0  1  0  0  3  0  0  0  0  0  0
  1  4  1  0  0  0  0
  2  6  1  0  0  0  0
  2 10  1  0  0  0  0
  3  7  1  0  0  0  0
  3  8  2  0  0  0  0
  4  6  2  0  0  0  0
  5 10  2  0  0  0  0
  7  2  2  0  0  0  0
  8  5  1  0  0  0  0
  9  1  2  0  0  0  0
  9  7  1  0  0  0  0
 10 26  1  0  0  0  0
 11 22  1  0  0  0  0
 12 17  1  0  0  0  0
 12 20  1  0  0  0  0
 13 19  1  0  0  0  0
 14 11  2  0  0  0  0
 15 16  2  0  0  0  0
 16 14  1  0  0  0  0
 17 18  1  0  0  0  0
 18 21  1  0  0  0  0
 19 22  2  0  0  0  0
 20  4  1  6  0  0  0
 20 15  1  0  0  0  0
 21 13  2  0  0  0  0
 21 14  1  0  0  0  0
 23 15  1  0  0  0  0
 23 24  1  0  0  0  0
 25 29  1  0  0  0  0
 26 25  2  0  0  0  0
 27 28  2  0  0  0  0
 29 27  2  0  0  0  0
 30 28  1  6  0  0  0
 30 34  1  0  0  0  0
 30 32  1  0  0  0  0
 31 32  2  0  0  0  0
 32 33  1  0  0  0  0
 34 38  1  6  0  0  0
 35 37  1  0  0  0  0
 35 34  1  0  0  0  0
 36 35  2  0  0  0  0
 38 40  1  0  0  0  0
 40 39  1  1  0  0  0
 41 42  1  0  0  0  0
 42 40  1  0  0  0  0
 42 43  1  0  0  0  0
 44 46  1  6  0  0  0
 44  8  1  0  0  0  0
 46 45  2  0  0  0  0
 47 48  1  0  0  0  0
 47 44  1  0  0  0  0
 49 48  1  0  0  0  0
 49 50  1  0  0  0  0
 50 52  1  0  0  0  0
 52 51  1  1  0  0  0
 53 54  1  0  0  0  0
 55 57  1  0  0  0  0
 56 52  1  1  0  0  0
 56 58  1  0  0  0  0
 57 53  2  0  0  0  0
 58 54  1  6  0  0  0
 59 55  1  6  0  0  0
 59 56  1  0  0  0  0
 59 58  1  0  0  0  0
M  END
>  <MODEL>
6

>  <REMARK>
 VINA RESULT:      -5.8      3.928     10.127
  Name = 
  19 active torsions:
  status: ('A' for Active; 'I' for Inactive)
    1  A    between atoms: C_4  and  C_53
    2  A    between atoms: C_6  and  C_37
    3  A    between atoms: N_8  and  C_43
    4  A    between atoms: N_8  and  C_58
    5  A    between atoms: C_9  and  C_32
    6  A    between atoms: C_9  and  C_53
    7  A    between atoms: C_14  and  O_18
    8  A    between atoms: C_16  and  C_46
    9  A    between atoms: C_17  and  C_54
   10  A    between atoms: S_21  and  C_28
   11  A    between atoms: S_21  and  C_31
   12  A    between atoms: C_27  and  C_58
   13  A    between atoms: C_28  and  C_35
   14  A    between atoms: C_28  and  N_36
   15  A    between atoms: C_31  and  C_43
   16  A    between atoms: C_32  and  C_52
   17  A    between atoms: C_34  and  C_37
   18  A    between atoms: C_37  and  C_53
   19  A    between atoms: C_42  and  C_59
                            x       y       z     vdW  Elec       q    Type
                         _______ _______ _______ _____ _____    ______ ____

>  <TORSDO>
F 19

$$$$
=
 OpenBabel10232409513D

 59 64  0  0  1  0  0  0  0  0999 V2000
  194.3790  172.7230  134.6490 C   0  0  0  0  0  3  0  0  0  0  0  0
  192.5010  173.9160  136.3700 C   0  0  0  0  0  0  0  0  0  0  0  0
  190.7590  172.5690  135.3120 C   0  0  0  0  0  3  0  0  0  0  0  0
  194.7990  173.7000  135.5580 C   0  0  0  0  0  0  0  0  0  0  0  0
  190.1860  174.1000  137.0870 C   0  0  0  0  0  3  0  0  0  0  0  0
  193.8550  174.2960  136.4130 C   0  0  0  0  0  3  0  0  0  0  0  0
  192.0980  172.9410  135.4200 C   0  0  0  0  0  0  0  0  0  0  0  0
  189.7970  173.1540  136.1330 C   0  0  0  0  0  0  0  0  0  0  0  0
  193.0390  172.3470  134.5780 C   0  0  0  0  0  3  0  0  0  0  0  0
  191.5230  174.4870  137.2270 C   0  0  0  0  0  0  0  0  0  0  0  0
  198.4200  175.3560  138.7140 C   0  0  0  0  0  3  0  0  0  0  0  0
  196.9970  173.5110  134.3460 C   0  0  0  0  0  2  0  0  0  0  0  0
  199.8870  173.2710  137.5690 C   0  0  0  0  0  3  0  0  0  0  0  0
  198.3050  175.1050  137.3430 C   0  0  0  0  0  0  0  0  0  0  0  0
  196.5660  175.5550  135.6970 C   0  0  0  0  0  0  0  0  0  0  0  0
  197.4640  175.9590  136.5530 N   0  0  0  0  0  0  0  0  0  0  0  0
  198.2350  172.8700  134.7800 N   0  0  0  0  0  2  0  0  0  0  0  0
  199.0610  173.8520  135.3490 N   0  0  0  0  0  2  0  0  0  0  0  0
  199.9690  173.5120  138.9420 C   0  0  0  0  0  3  0  0  0  0  0  0
  196.2520  174.0910  135.5390 C   0  0  1  0  0  3  0  0  0  0  0  0
  199.0660  174.0670  136.7620 C   0  0  0  0  0  0  0  0  0  0  0  0
  199.2420  174.5580  139.5140 C   0  0  0  0  0  3  0  0  0  0  0  0
  195.9230  176.4810  134.8720 O   0  0  0  0  0  0  0  0  0  0  0  0
  195.7880  177.8450  135.2340 C   0  0  0  0  0  1  0  0  0  0  0  0
  190.8700  176.2180  138.8980 C   0  0  0  0  0  3  0  0  0  0  0  0
  191.7830  175.4670  138.3000 C   0  0  0  0  0  3  0  0  0  0  0  0
  191.0300  176.9360  141.1840 C   0  0  0  0  0  0  0  0  0  0  0  0
  190.7540  176.7260  142.4420 C   0  0  0  0  0  3  0  0  0  0  0  0
  191.3030  177.1550  139.9300 C   0  0  0  0  0  3  0  0  0  0  0  0
  190.1880  177.8210  143.2790 C   0  0  2  0  0  3  0  0  0  0  0  0
  191.9880  177.9080  144.8410 O   0  0  0  0  0  1  0  0  0  0  0  0
  191.2720  178.5400  144.0230 C   0  0  0  0  0  0  0  0  0  0  0  0
  191.4850  179.9000  143.8310 O   0  0  0  0  0  0  0  0  0  0  0  0
  189.0320  177.3220  144.1640 C   0  0  2  0  0  3  0  0  0  0  0  0
  187.8650  176.8680  143.3450 C   0  0  0  0  0  0  0  0  0  0  0  0
  187.6070  175.6420  143.2140 O   0  0  0  0  0  1  0  0  0  0  0  0
  187.0590  177.8110  142.7250 O   0  0  0  0  0  0  0  0  0  0  0  0
  188.5890  178.3090  145.2460 C   0  0  0  0  0  2  0  0  0  0  0  0
  186.9120  177.9650  147.0820 C   0  0  0  0  0  1  0  0  0  0  0  0
  188.3010  177.6020  146.5640 C   0  0  2  0  0  3  0  0  0  0  0  0
  190.4340  176.7810  147.6080 C   0  0  0  0  0  1  0  0  0  0  0  0
  189.4020  177.8930  147.5890 C   0  0  0  0  0  3  0  0  0  0  0  0
  188.8590  178.1200  148.9930 C   0  0  0  0  0  1  0  0  0  0  0  0
  188.3690  172.7220  136.0080 C   0  0  1  0  0  3  0  0  0  0  0  0
  187.7790  171.5360  137.8750 O   0  0  0  0  0  0  0  0  0  0  0  0
  187.7670  172.5880  137.3110 N   0  0  0  0  0  0  0  0  0  0  0  0
  187.4190  173.9120  135.0080 S   0  0  0  0  0  0  0  0  0  0  0  0
  186.4400  174.4920  136.4290 C   0  0  0  0  0  2  0  0  0  0  0  0
  184.9890  174.7480  136.0380 C   0  0  0  0  0  2  0  0  0  0  0  0
  184.1200  174.7360  137.2150 N   0  0  0  0  0  2  0  0  0  0  0  0
  183.5730  176.8800  136.3890 O   0  0  0  0  0  1  0  0  0  0  0  0
  183.1080  175.7950  137.1380 C   0  0  2  0  0  3  0  0  0  0  0  0
  181.5420  178.7020  140.6370 C   0  0  0  0  0  3  0  0  0  0  0  0
  181.0290  177.8560  139.5080 C   0  0  0  0  0  2  0  0  0  0  0  0
  183.6050  177.3810  140.5230 C   0  0  0  0  0  2  0  0  0  0  0  0
  182.6550  176.2490  138.5190 C   0  0  2  0  0  3  0  0  0  0  0  0
  182.7670  178.4760  141.1200 C   0  0  0  0  0  3  0  0  0  0  0  0
  182.1070  177.6620  138.4320 C   0  0  2  0  0  3  0  0  0  0  0  0
  183.5230  177.4000  138.9890 C   0  0  1  0  0  3  0  0  0  0  0  0
  1  4  1  0  0  0  0
  2  6  1  0  0  0  0
  2 10  1  0  0  0  0
  3  7  1  0  0  0  0
  3  8  2  0  0  0  0
  4  6  2  0  0  0  0
  5 10  2  0  0  0  0
  7  2  2  0  0  0  0
  8  5  1  0  0  0  0
  9  1  2  0  0  0  0
  9  7  1  0  0  0  0
 10 26  1  0  0  0  0
 11 22  1  0  0  0  0
 12 17  1  0  0  0  0
 12 20  1  0  0  0  0
 13 19  1  0  0  0  0
 14 11  2  0  0  0  0
 15 16  2  0  0  0  0
 16 14  1  0  0  0  0
 17 18  1  0  0  0  0
 18 21  1  0  0  0  0
 19 22  2  0  0  0  0
 20  4  1  6  0  0  0
 20 15  1  0  0  0  0
 21 14  1  0  0  0  0
 21 13  2  0  0  0  0
 23 24  1  0  0  0  0
 23 15  1  0  0  0  0
 25 29  1  0  0  0  0
 26 25  2  0  0  0  0
 27 28  2  0  0  0  0
 29 27  2  0  0  0  0
 30 28  1  1  0  0  0
 30 32  1  0  0  0  0
 30 34  1  0  0  0  0
 32 31  1  0  0  0  0
 33 32  2  0  0  0  0
 34 38  1  1  0  0  0
 35 34  1  0  0  0  0
 36 35  1  0  0  0  0
 37 35  2  0  0  0  0
 38 40  1  0  0  0  0
 40 39  1  1  0  0  0
 40 42  1  0  0  0  0
 42 41  1  0  0  0  0
 42 43  1  0  0  0  0
 44 47  1  6  0  0  0
 44  8  1  0  0  0  0
 44 46  1  0  0  0  0
 46 45  2  0  0  0  0
 47 48  1  0  0  0  0
 49 48  1  0  0  0  0
 49 50  1  0  0  0  0
 52 51  1  1  0  0  0
 52 50  1  0  0  0  0
 53 57  2  0  0  0  0
 54 53  1  0  0  0  0
 55 57  1  0  0  0  0
 56 52  1  6  0  0  0
 56 59  1  0  0  0  0
 58 56  1  0  0  0  0
 58 59  1  0  0  0  0
 58 54  1  1  0  0  0
 59 55  1  1  0  0  0
M  END
>  <MODEL>
7

>  <REMARK>
 VINA RESULT:      -5.6      4.676     10.013
  Name = 
  19 active torsions:
  status: ('A' for Active; 'I' for Inactive)
    1  A    between atoms: C_4  and  C_53
    2  A    between atoms: C_6  and  C_37
    3  A    between atoms: N_8  and  C_43
    4  A    between atoms: N_8  and  C_58
    5  A    between atoms: C_9  and  C_32
    6  A    between atoms: C_9  and  C_53
    7  A    between atoms: C_14  and  O_18
    8  A    between atoms: C_16  and  C_46
    9  A    between atoms: C_17  and  C_54
   10  A    between atoms: S_21  and  C_28
   11  A    between atoms: S_21  and  C_31
   12  A    between atoms: C_27  and  C_58
   13  A    between atoms: C_28  and  C_35
   14  A    between atoms: C_28  and  N_36
   15  A    between atoms: C_31  and  C_43
   16  A    between atoms: C_32  and  C_52
   17  A    between atoms: C_34  and  C_37
   18  A    between atoms: C_37  and  C_53
   19  A    between atoms: C_42  and  C_59
                            x       y       z     vdW  Elec       q    Type
                         _______ _______ _______ _____ _____    ______ ____

>  <TORSDO>
F 19

$$$$
=
 OpenBabel10232409513D

 59 64  0  0  1  0  0  0  0  0999 V2000
  194.0740  173.2940  135.0100 C   0  0  0  0  0  3  0  0  0  0  0  0
  192.2390  175.0040  136.2840 C   0  0  0  0  0  0  0  0  0  0  0  0
  190.5110  174.1940  134.7580 C   0  0  0  0  0  3  0  0  0  0  0  0
  194.5100  174.1260  136.0460 C   0  0  0  0  0  0  0  0  0  0  0  0
  189.9670  175.8550  136.4210 C   0  0  0  0  0  3  0  0  0  0  0  0
  193.5890  174.9810  136.6760 C   0  0  0  0  0  3  0  0  0  0  0  0
  191.8290  174.1690  135.2110 C   0  0  0  0  0  0  0  0  0  0  0  0
  189.5790  175.0440  135.3510 C   0  0  0  0  0  0  0  0  0  0  0  0
  192.7440  173.3160  134.5930 C   0  0  0  0  0  3  0  0  0  0  0  0
  191.2790  175.8460  136.9050 C   0  0  0  0  0  0  0  0  0  0  0  0
  198.4120  170.8710  136.0890 C   0  0  0  0  0  3  0  0  0  0  0  0
  196.6040  175.4670  136.4350 C   0  0  0  0  0  2  0  0  0  0  0  0
  199.7150  172.9550  134.7580 C   0  0  0  0  0  3  0  0  0  0  0  0
  198.1870  172.1920  136.4900 C   0  0  0  0  0  0  0  0  0  0  0  0
  196.3480  173.3040  137.6370 C   0  0  0  0  0  0  0  0  0  0  0  0
  197.3210  172.4360  137.6090 N   0  0  0  0  0  0  0  0  0  0  0  0
  197.8480  175.4760  135.6690 N   0  0  0  0  0  2  0  0  0  0  0  0
  198.7480  174.5930  136.2850 N   0  0  0  0  0  2  0  0  0  0  0  0
  199.9070  171.6350  134.3460 C   0  0  0  0  0  3  0  0  0  0  0  0
  195.9710  174.0840  136.4050 C   0  0  1  0  0  3  0  0  0  0  0  0
  198.8660  173.2420  135.8330 C   0  0  0  0  0  0  0  0  0  0  0  0
  199.2620  170.5920  135.0150 C   0  0  0  0  0  3  0  0  0  0  0  0
  195.6790  173.5630  138.8360 O   0  0  0  0  0  0  0  0  0  0  0  0
  196.1290  174.5470  139.7520 C   0  0  0  0  0  1  0  0  0  0  0  0
  192.3270  176.4560  139.0840 C   0  0  0  0  0  3  0  0  0  0  0  0
  191.5280  176.7290  138.0620 C   0  0  0  0  0  3  0  0  0  0  0  0
  191.8720  177.2310  141.3110 C   0  0  0  0  0  0  0  0  0  0  0  0
  191.2960  177.0350  142.4650 C   0  0  0  0  0  3  0  0  0  0  0  0
  192.4440  177.4360  140.1590 C   0  0  0  0  0  3  0  0  0  0  0  0
  190.4890  178.1180  143.0940 C   0  0  2  0  0  3  0  0  0  0  0  0
  192.1080  178.3850  144.8260 O   0  0  0  0  0  1  0  0  0  0  0  0
  191.3340  178.9500  144.0120 C   0  0  0  0  0  0  0  0  0  0  0  0
  191.2610  180.3370  143.9820 O   0  0  0  0  0  0  0  0  0  0  0  0
  189.2030  177.5690  143.7380 C   0  0  2  0  0  3  0  0  0  0  0  0
  188.0850  177.4810  142.7490 C   0  0  0  0  0  0  0  0  0  0  0  0
  188.0560  178.2350  141.7390 O   0  0  0  0  0  0  0  0  0  0  0  0
  187.0690  176.5570  142.9460 O   0  0  0  0  0  1  0  0  0  0  0  0
  188.7590  178.3120  145.0000 C   0  0  0  0  0  2  0  0  0  0  0  0
  186.4320  178.3130  145.9430 C   0  0  0  0  0  1  0  0  0  0  0  0
  187.7220  177.5150  145.7820 C   0  0  2  0  0  3  0  0  0  0  0  0
  187.4800  177.5960  148.2820 C   0  0  0  0  0  1  0  0  0  0  0  0
  188.2950  177.0490  147.1250 C   0  0  0  0  0  3  0  0  0  0  0  0
  189.7610  177.4180  147.3040 C   0  0  0  0  0  1  0  0  0  0  0  0
  188.1650  175.0360  134.8570 C   0  0  1  0  0  3  0  0  0  0  0  0
  187.7810  173.2040  136.1740 O   0  0  0  0  0  0  0  0  0  0  0  0
  187.5340  173.7750  135.1560 N   0  0  0  0  0  0  0  0  0  0  0  0
  187.2130  176.3970  135.6040 S   0  0  0  0  0  0  0  0  0  0  0  0
  185.6080  175.6860  135.1200 C   0  0  0  0  0  2  0  0  0  0  0  0
  184.4600  176.3210  135.8980 C   0  0  0  0  0  2  0  0  0  0  0  0
  184.8520  176.5910  137.2820 N   0  0  0  0  0  2  0  0  0  0  0  0
  185.5440  178.5430  138.4160 O   0  0  0  0  0  1  0  0  0  0  0  0
  184.5140  177.9640  137.6700 C   0  0  2  0  0  3  0  0  0  0  0  0
  180.6190  179.8430  139.7760 C   0  0  0  0  0  3  0  0  0  0  0  0
  181.1190  179.4070  138.4300 C   0  0  0  0  0  2  0  0  0  0  0  0
  182.3890  178.4520  140.7470 C   0  0  0  0  0  2  0  0  0  0  0  0
  183.1950  178.0320  138.4280 C   0  0  2  0  0  3  0  0  0  0  0  0
  181.2220  179.3890  140.8780 C   0  0  0  0  0  3  0  0  0  0  0  0
  182.6530  179.4480  138.3730 C   0  0  2  0  0  3  0  0  0  0  0  0
  183.3510  178.9220  139.6460 C   0  0  1  0  0  3  0  0  0  0  0  0
  1  4  1  0  0  0  0
  2  6  1  0  0  0  0
  2 10  1  0  0  0  0
  3  7  1  0  0  0  0
  3  8  2  0  0  0  0
  4  6  2  0  0  0  0
  5 10  2  0  0  0  0
  7  2  2  0  0  0  0
  8  5  1  0  0  0  0
  9  1  2  0  0  0  0
  9  7  1  0  0  0  0
 10 26  1  0  0  0  0
 11 14  1  0  0  0  0
 13 21  1  0  0  0  0
 14 16  1  0  0  0  0
 15 23  1  0  0  0  0
 16 15  2  0  0  0  0
 17 18  1  0  0  0  0
 17 12  1  0  0  0  0
 19 13  2  0  0  0  0
 19 22  1  0  0  0  0
 20  4  1  1  0  0  0
 20 12  1  0  0  0  0
 20 15  1  0  0  0  0
 21 18  1  0  0  0  0
 21 14  2  0  0  0  0
 22 11  2  0  0  0  0
 23 24  1  0  0  0  0
 25 29  1  0  0  0  0
 26 25  2  0  0  0  0
 27 28  2  0  0  0  0
 29 27  2  0  0  0  0
 30 28  1  1  0  0  0
 30 34  1  0  0  0  0
 30 32  1  0  0  0  0
 32 31  1  0  0  0  0
 33 32  2  0  0  0  0
 34 38  1  1  0  0  0
 35 37  1  0  0  0  0
 35 34  1  0  0  0  0
 36 35  2  0  0  0  0
 38 40  1  0  0  0  0
 40 39  1  1  0  0  0
 40 42  1  0  0  0  0
 42 43  1  0  0  0  0
 42 41  1  0  0  0  0
 44 46  1  1  0  0  0
 44  8  1  0  0  0  0
 44 47  1  0  0  0  0
 46 45  2  0  0  0  0
 48 47  1  0  0  0  0
 48 49  1  0  0  0  0
 49 50  1  0  0  0  0
 50 52  1  0  0  0  0
 52 51  1  1  0  0  0
 53 57  2  0  0  0  0
 54 53  1  0  0  0  0
 55 57  1  0  0  0  0
 56 52  1  6  0  0  0
 56 59  1  0  0  0  0
 58 56  1  0  0  0  0
 58 54  1  1  0  0  0
 58 59  1  0  0  0  0
 59 55  1  1  0  0  0
M  END
>  <MODEL>
8

>  <REMARK>
 VINA RESULT:      -5.5      4.618      9.811
  Name = 
  19 active torsions:
  status: ('A' for Active; 'I' for Inactive)
    1  A    between atoms: C_4  and  C_53
    2  A    between atoms: C_6  and  C_37
    3  A    between atoms: N_8  and  C_43
    4  A    between atoms: N_8  and  C_58
    5  A    between atoms: C_9  and  C_32
    6  A    between atoms: C_9  and  C_53
    7  A    between atoms: C_14  and  O_18
    8  A    between atoms: C_16  and  C_46
    9  A    between atoms: C_17  and  C_54
   10  A    between atoms: S_21  and  C_28
   11  A    between atoms: S_21  and  C_31
   12  A    between atoms: C_27  and  C_58
   13  A    between atoms: C_28  and  C_35
   14  A    between atoms: C_28  and  N_36
   15  A    between atoms: C_31  and  C_43
   16  A    between atoms: C_32  and  C_52
   17  A    between atoms: C_34  and  C_37
   18  A    between atoms: C_37  and  C_53
   19  A    between atoms: C_42  and  C_59
                            x       y       z     vdW  Elec       q    Type
                         _______ _______ _______ _____ _____    ______ ____

>  <TORSDO>
F 19

$$$$
=
 OpenBabel10232409513D

 59 64  0  0  1  0  0  0  0  0999 V2000
  194.0560  172.7300  135.3490 C   0  0  0  0  0  3  0  0  0  0  0  0
  191.7880  174.1380  136.2360 C   0  0  0  0  0  0  0  0  0  0  0  0
  190.3920  172.5420  135.0220 C   0  0  0  0  0  3  0  0  0  0  0  0
  194.2180  173.8760  136.1330 C   0  0  0  0  0  0  0  0  0  0  0  0
  189.3660  174.3490  136.2490 C   0  0  0  0  0  3  0  0  0  0  0  0
  193.0810  174.5780  136.5700 C   0  0  0  0  0  3  0  0  0  0  0  0
  191.6530  172.9860  135.4170 C   0  0  0  0  0  0  0  0  0  0  0  0
  189.2460  173.2260  135.4240 C   0  0  0  0  0  0  0  0  0  0  0  0
  192.7830  172.2880  134.9910 C   0  0  0  0  0  3  0  0  0  0  0  0
  190.6170  174.8150  136.6690 C   0  0  0  0  0  0  0  0  0  0  0  0
  198.9500  172.0270  136.2050 C   0  0  0  0  0  3  0  0  0  0  0  0
  195.7870  175.8320  136.3600 C   0  0  0  0  0  2  0  0  0  0  0  0
  199.4990  174.3210  134.7070 C   0  0  0  0  0  3  0  0  0  0  0  0
  198.3260  173.2340  136.5390 C   0  0  0  0  0  0  0  0  0  0  0  0
  196.2520  173.7840  137.6940 C   0  0  0  0  0  0  0  0  0  0  0  0
  197.4500  173.2660  137.6760 N   0  0  0  0  0  0  0  0  0  0  0  0
  196.9480  176.1810  135.5460 N   0  0  0  0  0  2  0  0  0  0  0  0
  198.0930  175.6690  136.1750 N   0  0  0  0  0  2  0  0  0  0  0  0
  200.0910  173.1040  134.3640 C   0  0  0  0  0  3  0  0  0  0  0  0
  195.6240  174.3210  136.4350 C   0  0  1  0  0  3  0  0  0  0  0  0
  198.6240  174.3970  135.7960 C   0  0  0  0  0  0  0  0  0  0  0  0
  199.8230  171.9580  135.1170 C   0  0  0  0  0  3  0  0  0  0  0  0
  195.5610  173.8980  138.9020 O   0  0  0  0  0  0  0  0  0  0  0  0
  196.0220  174.7220  139.9580 C   0  0  0  0  0  1  0  0  0  0  0  0
  190.7310  175.9600  138.8810 C   0  0  0  0  0  3  0  0  0  0  0  0
  190.5810  175.9880  137.5650 C   0  0  0  0  0  3  0  0  0  0  0  0
  191.0830  177.2970  140.8450 C   0  0  0  0  0  0  0  0  0  0  0  0
  191.5110  177.3830  142.0740 C   0  0  0  0  0  3  0  0  0  0  0  0
  190.6480  177.2150  139.6200 C   0  0  0  0  0  3  0  0  0  0  0  0
  190.6630  178.0200  143.1210 C   0  0  2  0  0  3  0  0  0  0  0  0
  192.5850  178.8950  144.2290 O   0  0  0  0  0  1  0  0  0  0  0  0
  191.4130  179.1090  143.8270 C   0  0  0  0  0  0  0  0  0  0  0  0
  190.8220  180.3460  144.0550 O   0  0  0  0  0  0  0  0  0  0  0  0
  190.0310  176.9730  144.0560 C   0  0  2  0  0  3  0  0  0  0  0  0
  191.0690  176.1130  144.7030 C   0  0  0  0  0  0  0  0  0  0  0  0
  191.6880  175.2390  144.0390 O   0  0  0  0  0  0  0  0  0  0  0  0
  191.3540  176.2820  146.0510 O   0  0  0  0  0  1  0  0  0  0  0  0
  188.9400  176.1190  143.4070 C   0  0  0  0  0  2  0  0  0  0  0  0
  187.5740  178.0510  142.5690 C   0  0  0  0  0  1  0  0  0  0  0  0
  187.5840  176.8110  143.4580 C   0  0  2  0  0  3  0  0  0  0  0  0
  185.8120  177.7650  144.9630 C   0  0  0  0  0  1  0  0  0  0  0  0
  187.1850  177.1230  144.9040 C   0  0  0  0  0  3  0  0  0  0  0  0
  188.2010  178.0020  145.6210 C   0  0  0  0  0  1  0  0  0  0  0  0
  187.9040  172.7160  135.0020 C   0  0  1  0  0  3  0  0  0  0  0  0
  186.9860  170.6270  135.1920 O   0  0  0  0  0  0  0  0  0  0  0  0
  187.5670  171.5180  135.7320 N   0  0  0  0  0  0  0  0  0  0  0  0
  186.6200  173.9810  135.2650 S   0  0  0  0  0  0  0  0  0  0  0  0
  186.1140  173.2910  136.8720 C   0  0  0  0  0  2  0  0  0  0  0  0
  185.0730  174.1720  137.5540 C   0  0  0  0  0  2  0  0  0  0  0  0
  183.8230  174.1900  136.7920 N   0  0  0  0  0  2  0  0  0  0  0  0
  182.3520  175.9680  136.2890 O   0  0  0  0  0  1  0  0  0  0  0  0
  182.8950  175.1950  137.3200 C   0  0  2  0  0  3  0  0  0  0  0  0
  183.4640  178.7850  140.4700 C   0  0  0  0  0  3  0  0  0  0  0  0
  182.8860  177.4040  140.3700 C   0  0  0  0  0  2  0  0  0  0  0  0
  184.7940  178.2370  138.4840 C   0  0  0  0  0  2  0  0  0  0  0  0
  183.5530  176.0810  138.3680 C   0  0  2  0  0  3  0  0  0  0  0  0
  184.3720  179.1820  139.5740 C   0  0  0  0  0  3  0  0  0  0  0  0
  182.5310  177.0600  138.9160 C   0  0  2  0  0  3  0  0  0  0  0  0
  183.5800  177.5170  137.8800 C   0  0  1  0  0  3  0  0  0  0  0  0
  1  4  1  0  0  0  0
  2  6  1  0  0  0  0
  2 10  1  0  0  0  0
  3  7  1  0  0  0  0
  3  8  2  0  0  0  0
  4  6  2  0  0  0  0
  5 10  2  0  0  0  0
  7  2  2  0  0  0  0
  8  5  1  0  0  0  0
  9  1  2  0  0  0  0
  9  7  1  0  0  0  0
 10 26  1  0  0  0  0
 11 14  1  0  0  0  0
 12 20  1  0  0  0  0
 13 21  1  0  0  0  0
 14 16  1  0  0  0  0
 15 23  1  0  0  0  0
 16 15  2  0  0  0  0
 17 18  1  0  0  0  0
 17 12  1  0  0  0  0
 19 13  2  0  0  0  0
 19 22  1  0  0  0  0
 20  4  1  1  0  0  0
 20 15  1  0  0  0  0
 21 18  1  0  0  0  0
 21 14  2  0  0  0  0
 22 11  2  0  0  0  0
 23 24  1  0  0  0  0
 25 29  1  0  0  0  0
 26 25  2  0  0  0  0
 27 28  2  0  0  0  0
 29 27  2  0  0  0  0
 30 28  1  6  0  0  0
 30 32  1  0  0  0  0
 30 34  1  0  0  0  0
 32 33  2  0  0  0  0
 32 31  1  0  0  0  0
 34 38  1  6  0  0  0
 34 35  1  0  0  0  0
 35 37  1  0  0  0  0
 36 35  2  0  0  0  0
 38 40  1  0  0  0  0
 40 39  1  6  0  0  0
 40 42  1  0  0  0  0
 42 41  1  0  0  0  0
 42 43  1  0  0  0  0
 44 47  1  1  0  0  0
 44  8  1  0  0  0  0
 44 46  1  0  0  0  0
 45 46  2  0  0  0  0
 47 48  1  0  0  0  0
 48 49  1  0  0  0  0
 50 52  1  0  0  0  0
 50 49  1  0  0  0  0
 52 51  1  6  0  0  0
 54 53  1  0  0  0  0
 55 57  1  0  0  0  0
 56 52  1  6  0  0  0
 56 58  1  0  0  0  0
 57 53  2  0  0  0  0
 58 54  1  1  0  0  0
 59 56  1  0  0  0  0
 59 55  1  1  0  0  0
 59 58  1  0  0  0  0
M  END
>  <MODEL>
9

>  <REMARK>
 VINA RESULT:      -5.4      4.632      9.940
  Name = 
  19 active torsions:
  status: ('A' for Active; 'I' for Inactive)
    1  A    between atoms: C_4  and  C_53
    2  A    between atoms: C_6  and  C_37
    3  A    between atoms: N_8  and  C_43
    4  A    between atoms: N_8  and  C_58
    5  A    between atoms: C_9  and  C_32
    6  A    between atoms: C_9  and  C_53
    7  A    between atoms: C_14  and  O_18
    8  A    between atoms: C_16  and  C_46
    9  A    between atoms: C_17  and  C_54
   10  A    between atoms: S_21  and  C_28
   11  A    between atoms: S_21  and  C_31
   12  A    between atoms: C_27  and  C_58
   13  A    between atoms: C_28  and  C_35
   14  A    between atoms: C_28  and  N_36
   15  A    between atoms: C_31  and  C_43
   16  A    between atoms: C_32  and  C_52
   17  A    between atoms: C_34  and  C_37
   18  A    between atoms: C_37  and  C_53
   19  A    between atoms: C_42  and  C_59
                            x       y       z     vdW  Elec       q    Type
                         _______ _______ _______ _____ _____    ______ ____

>  <TORSDO>
F 19

$$$$
