=
 OpenBabel10232410593D

 42 46  0  0  1  0  0  0  0  0999 V2000
  186.5090  178.4890  142.8460 C   0  0  2  0  0  3  0  0  0  0  0  0
  187.3450  177.5320  141.9880 C   0  0  2  0  0  3  0  0  0  0  0  0
  188.7390  177.2570  142.5580 C   0  0  1  0  0  3  0  0  0  0  0  0
  188.5650  178.2490  141.4270 C   0  0  1  0  0  3  0  0  0  0  0  0
  189.0180  177.6010  140.1280 C   0  0  1  0  0  3  0  0  0  0  0  0
  189.0420  178.6280  139.0110 C   0  0  0  0  0  1  0  0  0  0  0  0
  191.4760  177.7120  140.9950 C   0  0  0  0  0  1  0  0  0  0  0  0
  190.5930  175.8790  139.8250 O   0  0  0  0  0  0  0  0  0  0  0  0
  190.3760  176.9860  140.2880 C   0  0  0  0  0  0  0  0  0  0  0  0
  189.0060  177.9680  143.7630 O   0  0  0  0  0  0  0  0  0  0  0  0
  190.2540  176.9990  147.1240 C   0  0  0  0  0  3  0  0  0  0  0  0
  189.4350  177.5400  146.1300 C   0  0  0  0  0  3  0  0  0  0  0  0
  189.8100  177.4510  144.7810 C   0  0  0  0  0  0  0  0  0  0  0  0
  192.3260  175.8020  147.8400 C   0  0  0  0  0  1  0  0  0  0  0  0
  191.0110  176.8180  144.4420 C   0  0  0  0  0  3  0  0  0  0  0  0
  191.8320  176.2820  145.4390 C   0  0  0  0  0  3  0  0  0  0  0  0
  191.4550  176.3740  146.7790 C   0  0  0  0  0  0  0  0  0  0  0  0
  185.7990  177.7460  143.9810 C   0  0  0  0  0  2  0  0  0  0  0  0
  186.0750  178.3740  145.3360 C   0  0  0  0  0  2  0  0  0  0  0  0
  185.0910  179.4080  145.6130 N   0  0  0  0  0  2  0  0  0  0  0  0
  183.7910  178.8340  145.3290 C   0  0  0  0  0  1  0  0  0  0  0  0
  185.5160  179.2920  141.9930 C   0  0  0  0  0  2  0  0  0  0  0  0
  184.1830  178.5830  141.7510 C   0  0  0  0  0  2  0  0  0  0  0  0
  180.6970  179.7130  135.7350 C   0  0  0  0  0  2  0  0  0  0  0  0
  181.0990  178.2320  135.5060 C   0  0  0  0  0  2  0  0  0  0  0  0
  183.6520  178.8520  140.3560 C   0  0  1  0  0  3  0  0  0  0  0  0
  187.2010  176.2100  136.5110 C   0  0  0  0  0  2  0  0  0  0  0  0
  186.4280  177.3760  137.1260 C   0  0  0  0  0  2  0  0  0  0  0  0
  181.7580  180.0300  139.3460 O   0  0  0  0  0  0  0  0  0  0  0  0
  184.2160  178.0670  138.0800 C   0  0  0  0  0  2  0  0  0  0  0  0
  183.9070  177.6200  139.4960 C   0  0  0  0  0  2  0  0  0  0  0  0
  183.0480  175.5340  136.6370 N   0  0  0  0  0  0  0  0  0  0  0  0
  186.4910  175.7160  135.4080 O   0  0  0  0  0  0  0  0  0  0  0  0
  182.1670  179.2130  140.4430 C   0  0  0  0  0  2  0  0  0  0  0  0
  181.3150  179.4970  138.1360 C   0  0  0  0  0  0  0  0  0  0  0  0
  181.1110  180.2870  137.0770 C   0  0  0  0  0  3  0  0  0  0  0  0
  184.9630  177.0500  137.2860 C   0  0  0  0  0  0  0  0  0  0  0  0
  185.3840  175.0360  135.9440 C   0  0  0  0  0  2  0  0  0  0  0  0
  181.9550  176.1990  136.6490 N   0  0  0  0  0  0  0  0  0  0  0  0
  181.8470  177.6390  136.7010 C   0  0  2  0  0  3  0  0  0  0  0  0
  184.4240  175.9880  136.6120 C   0  0  0  0  0  0  0  0  0  0  0  0
  181.1280  178.0270  137.9780 C   0  0  0  0  0  2  0  0  0  0  0  0
  1 22  1  6  0  0  0
  1 18  1  0  0  0  0
  2  3  1  0  0  0  0
  2  1  1  1  0  0  0
  3 10  1  1  0  0  0
  4  5  1  6  0  0  0
  4  2  1  0  0  0  0
  4  3  1  0  0  0  0
  5  6  1  6  0  0  0
  5  9  1  0  0  0  0
  8  9  2  0  0  0  0
  9  7  1  0  0  0  0
 10 13  1  0  0  0  0
 12 11  2  0  0  0  0
 13 12  1  0  0  0  0
 15 13  2  0  0  0  0
 15 16  1  0  0  0  0
 16 17  2  0  0  0  0
 17 11  1  0  0  0  0
 17 14  1  0  0  0  0
 18 19  1  0  0  0  0
 19 20  1  0  0  0  0
 21 20  1  0  0  0  0
 23 22  1  0  0  0  0
 24 36  1  0  0  0  0
 25 24  1  0  0  0  0
 26 34  1  0  0  0  0
 26 23  1  1  0  0  0
 27 28  1  0  0  0  0
 28 37  1  0  0  0  0
 29 34  1  0  0  0  0
 30 31  1  0  0  0  0
 31 26  1  0  0  0  0
 32 39  2  0  0  0  0
 33 38  1  0  0  0  0
 33 27  1  0  0  0  0
 35 29  1  0  0  0  0
 36 35  2  0  0  0  0
 37 30  1  0  0  0  0
 38 41  1  0  0  0  0
 39 40  1  0  0  0  0
 40 25  1  6  0  0  0
 40 42  1  0  0  0  0
 41 32  1  0  0  0  0
 41 37  2  0  0  0  0
 42 35  1  0  0  0  0
M  END
>  <MODEL>
1

>  <REMARK>
 VINA RESULT:      -8.3      0.000      0.000
  Name = 
  11 active torsions:
  status: ('A' for Active; 'I' for Inactive)
    1  A    between atoms: C_2  and  C_10
    2  A    between atoms: C_2  and  C_36
    3  A    between atoms: N_6  and  C_37
    4  A    between atoms: O_7  and  C_18
    5  A    between atoms: O_7  and  C_24
    6  A    between atoms: C_9  and  C_23
    7  A    between atoms: C_13  and  C_32
    8  A    between atoms: C_13  and  C_37
    9  A    between atoms: C_14  and  C_32
   10  A    between atoms: C_23  and  C_29
   11  A    between atoms: C_32  and  C_36
                            x       y       z     vdW  Elec       q    Type
                         _______ _______ _______ _____ _____    ______ ____

>  <TORSDO>
F 11

$$$$
=
 OpenBabel10232410593D

 42 46  0  0  1  0  0  0  0  0999 V2000
  188.4520  176.7010  142.6560 C   0  0  2  0  0  3  0  0  0  0  0  0
  187.3740  176.5750  143.7390 C   0  0  2  0  0  3  0  0  0  0  0  0
  186.1060  177.3800  143.4410 C   0  0  1  0  0  3  0  0  0  0  0  0
  187.1360  177.9190  144.4120 C   0  0  1  0  0  3  0  0  0  0  0  0
  186.6230  177.7260  145.8320 C   0  0  1  0  0  3  0  0  0  0  0  0
  187.7790  177.7630  146.8150 C   0  0  0  0  0  1  0  0  0  0  0  0
  184.2840  178.8340  145.5100 C   0  0  0  0  0  1  0  0  0  0  0  0
  185.8980  179.6230  147.0200 O   0  0  0  0  0  0  0  0  0  0  0  0
  185.6190  178.7830  146.1810 C   0  0  0  0  0  0  0  0  0  0  0  0
  186.1820  178.1200  142.2260 O   0  0  0  0  0  0  0  0  0  0  0  0
  182.6500  178.5330  141.1560 C   0  0  0  0  0  3  0  0  0  0  0  0
  183.7570  178.1950  141.9380 C   0  0  0  0  0  3  0  0  0  0  0  0
  185.0560  178.4320  141.4620 C   0  0  0  0  0  0  0  0  0  0  0  0
  181.6510  179.4570  139.0610 C   0  0  0  0  0  1  0  0  0  0  0  0
  185.2300  179.0080  140.1990 C   0  0  0  0  0  3  0  0  0  0  0  0
  184.1210  179.3390  139.4150 C   0  0  0  0  0  3  0  0  0  0  0  0
  182.8320  179.1010  139.8920 C   0  0  0  0  0  0  0  0  0  0  0  0
  189.6470  175.7910  142.9480 C   0  0  0  0  0  2  0  0  0  0  0  0
  190.9140  176.5810  143.2230 C   0  0  0  0  0  2  0  0  0  0  0  0
  191.5820  176.0540  144.4020 N   0  0  0  0  0  2  0  0  0  0  0  0
  191.2410  176.9330  145.5030 C   0  0  0  0  0  1  0  0  0  0  0  0
  188.8900  178.1600  142.4620 C   0  0  0  0  0  2  0  0  0  0  0  0
  188.7350  178.6740  141.0300 C   0  0  0  0  0  2  0  0  0  0  0  0
  191.2230  174.0980  136.2880 C   0  0  0  0  0  2  0  0  0  0  0  0
  190.4870  175.0680  135.3250 C   0  0  0  0  0  2  0  0  0  0  0  0
  189.0480  177.5960  140.0110 C   0  0  1  0  0  3  0  0  0  0  0  0
  184.3860  176.9940  136.5080 C   0  0  0  0  0  2  0  0  0  0  0  0
  185.4830  176.5310  137.4650 C   0  0  0  0  0  2  0  0  0  0  0  0
  190.9280  176.1280  139.4590 O   0  0  0  0  0  0  0  0  0  0  0  0
  187.9270  176.7110  137.9920 C   0  0  0  0  0  2  0  0  0  0  0  0
  188.3890  177.9760  138.6900 C   0  0  0  0  0  2  0  0  0  0  0  0
  188.2600  177.7740  135.0560 N   0  0  0  0  0  0  0  0  0  0  0  0
  184.7650  176.6950  135.1920 O   0  0  0  0  0  0  0  0  0  0  0  0
  190.5660  177.4410  139.8900 C   0  0  0  0  0  2  0  0  0  0  0  0
  191.0220  175.7790  138.1130 C   0  0  0  0  0  0  0  0  0  0  0  0
  191.1890  174.5030  137.7490 C   0  0  0  0  0  3  0  0  0  0  0  0
  186.8530  176.9470  136.9850 C   0  0  0  0  0  0  0  0  0  0  0  0
  185.7850  177.6070  134.8740 C   0  0  0  0  0  2  0  0  0  0  0  0
  189.4500  177.3200  135.1710 N   0  0  0  0  0  0  0  0  0  0  0  0
  189.8630  176.2560  136.0580 C   0  0  2  0  0  3  0  0  0  0  0  0
  187.0270  177.3490  135.6900 C   0  0  0  0  0  0  0  0  0  0  0  0
  190.8670  176.8100  137.0490 C   0  0  0  0  0  2  0  0  0  0  0  0
  1 22  1  1  0  0  0
  1 18  1  0  0  0  0
  2  1  1  6  0  0  0
  2  4  1  0  0  0  0
  3 10  1  6  0  0  0
  3  2  1  0  0  0  0
  3  4  1  0  0  0  0
  4  5  1  1  0  0  0
  5  9  1  0  0  0  0
  5  6  1  1  0  0  0
  7  9  1  0  0  0  0
  9  8  2  0  0  0  0
 11 12  1  0  0  0  0
 13 12  2  0  0  0  0
 13 10  1  0  0  0  0
 14 17  1  0  0  0  0
 15 13  1  0  0  0  0
 16 17  1  0  0  0  0
 16 15  2  0  0  0  0
 17 11  2  0  0  0  0
 18 19  1  0  0  0  0
 19 20  1  0  0  0  0
 20 21  1  0  0  0  0
 23 22  1  0  0  0  0
 24 36  1  0  0  0  0
 25 24  1  0  0  0  0
 26 23  1  1  0  0  0
 27 28  1  0  0  0  0
 29 34  1  0  0  0  0
 30 31  1  0  0  0  0
 31 26  1  0  0  0  0
 32 39  2  0  0  0  0
 32 41  1  0  0  0  0
 33 27  1  0  0  0  0
 34 26  1  0  0  0  0
 35 29  1  0  0  0  0
 36 35  2  0  0  0  0
 37 28  1  0  0  0  0
 37 30  1  0  0  0  0
 38 33  1  0  0  0  0
 38 41  1  0  0  0  0
 39 40  1  0  0  0  0
 40 25  1  6  0  0  0
 40 42  1  0  0  0  0
 41 37  2  0  0  0  0
 42 35  1  0  0  0  0
M  END
>  <MODEL>
2

>  <REMARK>
 VINA RESULT:      -8.2      2.610      7.329
  Name = 
  11 active torsions:
  status: ('A' for Active; 'I' for Inactive)
    1  A    between atoms: C_2  and  C_10
    2  A    between atoms: C_2  and  C_36
    3  A    between atoms: N_6  and  C_37
    4  A    between atoms: O_7  and  C_18
    5  A    between atoms: O_7  and  C_24
    6  A    between atoms: C_9  and  C_23
    7  A    between atoms: C_13  and  C_32
    8  A    between atoms: C_13  and  C_37
    9  A    between atoms: C_14  and  C_32
   10  A    between atoms: C_23  and  C_29
   11  A    between atoms: C_32  and  C_36
                            x       y       z     vdW  Elec       q    Type
                         _______ _______ _______ _____ _____    ______ ____

>  <TORSDO>
F 11

$$$$
=
 OpenBabel10232410593D

 42 46  0  0  1  0  0  0  0  0999 V2000
  189.3300  177.2180  143.0800 C   0  0  2  0  0  3  0  0  0  0  0  0
  188.6920  176.5840  144.3210 C   0  0  2  0  0  3  0  0  0  0  0  0
  187.2550  177.0470  144.5770 C   0  0  1  0  0  3  0  0  0  0  0  0
  188.3970  177.6480  145.3690 C   0  0  1  0  0  3  0  0  0  0  0  0
  188.4010  177.0420  146.7650 C   0  0  1  0  0  3  0  0  0  0  0  0
  189.8220  176.7240  147.1940 C   0  0  0  0  0  1  0  0  0  0  0  0
  186.5090  178.7160  147.4170 C   0  0  0  0  0  1  0  0  0  0  0  0
  188.2870  178.1480  148.8390 O   0  0  0  0  0  0  0  0  0  0  0  0
  187.7660  177.9780  147.7500 C   0  0  0  0  0  0  0  0  0  0  0  0
  186.7940  178.0040  143.6270 O   0  0  0  0  0  0  0  0  0  0  0  0
  183.4590  178.5810  142.0990 C   0  0  0  0  0  3  0  0  0  0  0  0
  184.8160  178.2720  142.2180 C   0  0  0  0  0  3  0  0  0  0  0  0
  185.4430  178.3220  143.4720 C   0  0  0  0  0  0  0  0  0  0  0  0
  181.2780  179.2800  143.0970 C   0  0  0  0  0  1  0  0  0  0  0  0
  184.6980  178.6840  144.5990 C   0  0  0  0  0  3  0  0  0  0  0  0
  183.3410  178.9990  144.4770 C   0  0  0  0  0  3  0  0  0  0  0  0
  182.7220  178.9490  143.2280 C   0  0  0  0  0  0  0  0  0  0  0  0
  189.9650  178.5710  143.4070 C   0  0  0  0  0  2  0  0  0  0  0  0
  191.4820  178.5000  143.4360 C   0  0  0  0  0  2  0  0  0  0  0  0
  191.9330  177.2620  142.8210 N   0  0  0  0  0  2  0  0  0  0  0  0
  192.2370  177.5700  141.4370 C   0  0  0  0  0  1  0  0  0  0  0  0
  188.3260  177.3320  141.9240 C   0  0  0  0  0  2  0  0  0  0  0  0
  188.4980  178.5880  141.0680 C   0  0  0  0  0  2  0  0  0  0  0  0
  187.0500  176.8450  134.3990 C   0  0  0  0  0  2  0  0  0  0  0  0
  187.7750  175.5450  134.8360 C   0  0  0  0  0  2  0  0  0  0  0  0
  188.4170  178.2710  139.5870 C   0  0  1  0  0  3  0  0  0  0  0  0
  193.4680  175.7670  137.9790 C   0  0  0  0  0  2  0  0  0  0  0  0
  192.3300  176.7850  137.9140 C   0  0  0  0  0  2  0  0  0  0  0  0
  186.7780  178.4990  137.7830 O   0  0  0  0  0  0  0  0  0  0  0  0
  189.8390  177.0530  137.9720 C   0  0  0  0  0  2  0  0  0  0  0  0
  189.1690  176.9700  139.3300 C   0  0  0  0  0  2  0  0  0  0  0  0
  189.7120  173.9840  137.3190 N   0  0  0  0  0  0  0  0  0  0  0  0
  193.2680  174.7880  136.9970 O   0  0  0  0  0  0  0  0  0  0  0  0
  186.9470  178.1950  139.1680 C   0  0  0  0  0  2  0  0  0  0  0  0
  186.8680  177.5300  136.7850 C   0  0  0  0  0  0  0  0  0  0  0  0
  186.8810  177.8800  135.4950 C   0  0  0  0  0  3  0  0  0  0  0  0
  190.9830  176.1100  137.8160 C   0  0  0  0  0  0  0  0  0  0  0  0
  192.1960  174.0050  137.4540 C   0  0  0  0  0  2  0  0  0  0  0  0
  188.5730  174.2760  136.8170 N   0  0  0  0  0  0  0  0  0  0  0  0
  188.1840  175.5710  136.3090 C   0  0  2  0  0  3  0  0  0  0  0  0
  190.9080  174.7890  137.4680 C   0  0  0  0  0  0  0  0  0  0  0  0
  187.0240  176.0910  137.1360 C   0  0  0  0  0  2  0  0  0  0  0  0
  1 22  1  6  0  0  0
  1 18  1  0  0  0  0
  2  1  1  6  0  0  0
  2  3  1  0  0  0  0
  2  4  1  0  0  0  0
  3 10  1  6  0  0  0
  3  4  1  0  0  0  0
  4  5  1  1  0  0  0
  5  6  1  1  0  0  0
  5  9  1  0  0  0  0
  7  9  1  0  0  0  0
  9  8  2  0  0  0  0
 11 12  2  0  0  0  0
 11 17  1  0  0  0  0
 12 13  1  0  0  0  0
 13 10  1  0  0  0  0
 13 15  2  0  0  0  0
 14 17  1  0  0  0  0
 16 15  1  0  0  0  0
 17 16  2  0  0  0  0
 18 19  1  0  0  0  0
 20 19  1  0  0  0  0
 21 20  1  0  0  0  0
 23 22  1  0  0  0  0
 24 25  1  0  0  0  0
 24 36  1  0  0  0  0
 26 23  1  1  0  0  0
 28 27  1  0  0  0  0
 29 34  1  0  0  0  0
 30 31  1  0  0  0  0
 31 26  1  0  0  0  0
 32 41  1  0  0  0  0
 33 38  1  0  0  0  0
 33 27  1  0  0  0  0
 34 26  1  0  0  0  0
 35 42  1  0  0  0  0
 35 29  1  0  0  0  0
 36 35  2  0  0  0  0
 37 28  1  0  0  0  0
 37 30  1  0  0  0  0
 38 41  1  0  0  0  0
 39 32  2  0  0  0  0
 40 25  1  6  0  0  0
 40 39  1  0  0  0  0
 40 42  1  0  0  0  0
 41 37  2  0  0  0  0
M  END
>  <MODEL>
3

>  <REMARK>
 VINA RESULT:      -8.2      3.324      6.687
  Name = 
  11 active torsions:
  status: ('A' for Active; 'I' for Inactive)
    1  A    between atoms: C_2  and  C_10
    2  A    between atoms: C_2  and  C_36
    3  A    between atoms: N_6  and  C_37
    4  A    between atoms: O_7  and  C_18
    5  A    between atoms: O_7  and  C_24
    6  A    between atoms: C_9  and  C_23
    7  A    between atoms: C_13  and  C_32
    8  A    between atoms: C_13  and  C_37
    9  A    between atoms: C_14  and  C_32
   10  A    between atoms: C_23  and  C_29
   11  A    between atoms: C_32  and  C_36
                            x       y       z     vdW  Elec       q    Type
                         _______ _______ _______ _____ _____    ______ ____

>  <TORSDO>
F 11

$$$$
=
 OpenBabel10232410593D

 42 46  0  0  1  0  0  0  0  0999 V2000
  188.4610  178.1950  140.3700 C   0  0  2  0  0  3  0  0  0  0  0  0
  188.5670  177.2000  141.5300 C   0  0  2  0  0  3  0  0  0  0  0  0
  187.5790  177.4740  142.6680 C   0  0  1  0  0  3  0  0  0  0  0  0
  189.0250  177.9060  142.7980 C   0  0  1  0  0  3  0  0  0  0  0  0
  189.7480  176.9390  143.7220 C   0  0  1  0  0  3  0  0  0  0  0  0
  190.0680  175.6510  142.9850 C   0  0  0  0  0  1  0  0  0  0  0  0
  191.4310  178.9280  143.8420 C   0  0  0  0  0  1  0  0  0  0  0  0
  191.7110  176.9180  145.0200 O   0  0  0  0  0  0  0  0  0  0  0  0
  191.0100  177.5530  144.2510 C   0  0  0  0  0  0  0  0  0  0  0  0
  186.7680  178.6230  142.4430 O   0  0  0  0  0  0  0  0  0  0  0  0
  183.6880  178.9610  144.4910 C   0  0  0  0  0  3  0  0  0  0  0  0
  185.0420  178.8910  144.1510 C   0  0  0  0  0  3  0  0  0  0  0  0
  185.4240  178.6820  142.8180 C   0  0  0  0  0  0  0  0  0  0  0  0
  181.2700  178.8870  143.8710 C   0  0  0  0  0  1  0  0  0  0  0  0
  184.4390  178.5440  141.8340 C   0  0  0  0  0  3  0  0  0  0  0  0
  183.0850  178.6080  142.1770 C   0  0  0  0  0  3  0  0  0  0  0  0
  182.7100  178.8150  143.5050 C   0  0  0  0  0  0  0  0  0  0  0  0
  187.2140  177.9330  139.5220 C   0  0  0  0  0  2  0  0  0  0  0  0
  187.5230  177.9290  138.0350 C   0  0  0  0  0  2  0  0  0  0  0  0
  186.3840  177.4140  137.2920 N   0  0  0  0  0  2  0  0  0  0  0  0
  185.1950  177.8920  137.9700 C   0  0  0  0  0  1  0  0  0  0  0  0
  189.7330  178.2010  139.5110 C   0  0  0  0  0  2  0  0  0  0  0  0
  190.9350  177.5190  140.1680 C   0  0  0  0  0  2  0  0  0  0  0  0
  194.8140  173.7070  135.6920 C   0  0  0  0  0  2  0  0  0  0  0  0
  193.7370  174.2220  134.7000 C   0  0  0  0  0  2  0  0  0  0  0  0
  191.5990  176.5290  139.2300 C   0  0  1  0  0  3  0  0  0  0  0  0
  187.4010  173.8580  136.1300 C   0  0  0  0  0  2  0  0  0  0  0  0
  188.6210  173.9440  137.0460 C   0  0  0  0  0  2  0  0  0  0  0  0
  193.8750  175.8160  138.6810 O   0  0  0  0  0  0  0  0  0  0  0  0
  190.8320  175.0760  137.3820 C   0  0  0  0  0  2  0  0  0  0  0  0
  190.8050  176.4900  137.9290 C   0  0  0  0  0  2  0  0  0  0  0  0
  190.6470  175.8580  134.3470 N   0  0  0  0  0  0  0  0  0  0  0  0
  187.8230  173.5790  134.8230 O   0  0  0  0  0  0  0  0  0  0  0  0
  193.0580  176.9380  139.0180 C   0  0  0  0  0  2  0  0  0  0  0  0
  194.0520  175.3810  137.3690 C   0  0  0  0  0  0  0  0  0  0  0  0
  194.6760  174.2280  137.1100 C   0  0  0  0  0  3  0  0  0  0  0  0
  189.7170  174.7840  136.4360 C   0  0  0  0  0  0  0  0  0  0  0  0
  188.4130  174.7640  134.3550 C   0  0  0  0  0  2  0  0  0  0  0  0
  191.9230  175.8950  134.4180 N   0  0  0  0  0  0  0  0  0  0  0  0
  192.7350  175.1650  135.3650 C   0  0  2  0  0  3  0  0  0  0  0  0
  189.6860  175.0780  135.1010 C   0  0  0  0  0  0  0  0  0  0  0  0
  193.4860  176.1580  136.2300 C   0  0  0  0  0  2  0  0  0  0  0  0
  1 22  1  6  0  0  0
  2  1  1  6  0  0  0
  2  3  1  0  0  0  0
  2  4  1  0  0  0  0
  3 10  1  6  0  0  0
  3  4  1  0  0  0  0
  4  5  1  1  0  0  0
  5  6  1  6  0  0  0
  5  9  1  0  0  0  0
  7  9  1  0  0  0  0
  9  8  2  0  0  0  0
 10 13  1  0  0  0  0
 12 11  1  0  0  0  0
 13 12  2  0  0  0  0
 15 16  2  0  0  0  0
 15 13  1  0  0  0  0
 16 17  1  0  0  0  0
 17 14  1  0  0  0  0
 17 11  2  0  0  0  0
 18  1  1  0  0  0  0
 19 18  1  0  0  0  0
 20 21  1  0  0  0  0
 20 19  1  0  0  0  0
 22 23  1  0  0  0  0
 24 36  1  0  0  0  0
 25 24  1  0  0  0  0
 26 23  1  1  0  0  0
 27 28  1  0  0  0  0
 29 34  1  0  0  0  0
 30 31  1  0  0  0  0
 31 26  1  0  0  0  0
 32 39  2  0  0  0  0
 32 41  1  0  0  0  0
 33 27  1  0  0  0  0
 34 26  1  0  0  0  0
 35 29  1  0  0  0  0
 36 35  2  0  0  0  0
 37 28  1  0  0  0  0
 37 30  1  0  0  0  0
 38 33  1  0  0  0  0
 38 41  1  0  0  0  0
 39 40  1  0  0  0  0
 40 25  1  6  0  0  0
 40 42  1  0  0  0  0
 41 37  2  0  0  0  0
 42 35  1  0  0  0  0
M  END
>  <MODEL>
4

>  <REMARK>
 VINA RESULT:      -7.7      3.546      8.050
  Name = 
  11 active torsions:
  status: ('A' for Active; 'I' for Inactive)
    1  A    between atoms: C_2  and  C_10
    2  A    between atoms: C_2  and  C_36
    3  A    between atoms: N_6  and  C_37
    4  A    between atoms: O_7  and  C_18
    5  A    between atoms: O_7  and  C_24
    6  A    between atoms: C_9  and  C_23
    7  A    between atoms: C_13  and  C_32
    8  A    between atoms: C_13  and  C_37
    9  A    between atoms: C_14  and  C_32
   10  A    between atoms: C_23  and  C_29
   11  A    between atoms: C_32  and  C_36
                            x       y       z     vdW  Elec       q    Type
                         _______ _______ _______ _____ _____    ______ ____

>  <TORSDO>
F 11

$$$$
=
 OpenBabel10232410593D

 42 46  0  0  1  0  0  0  0  0999 V2000
  188.9490  177.7540  143.4510 C   0  0  2  0  0  3  0  0  0  0  0  0
  187.9800  178.3190  144.4970 C   0  0  2  0  0  3  0  0  0  0  0  0
  188.1460  177.6990  145.8870 C   0  0  1  0  0  3  0  0  0  0  0  0
  187.0270  177.2350  144.9790 C   0  0  1  0  0  3  0  0  0  0  0  0
  185.7180  177.8450  145.4590 C   0  0  1  0  0  3  0  0  0  0  0  0
  185.9790  178.8210  146.5920 C   0  0  0  0  0  1  0  0  0  0  0  0
  184.4400  179.9130  144.5110 C   0  0  0  0  0  1  0  0  0  0  0  0
  184.9000  177.9840  143.2570 O   0  0  0  0  0  0  0  0  0  0  0  0
  185.0150  178.5440  144.3330 C   0  0  0  0  0  0  0  0  0  0  0  0
  189.1520  176.6910  145.9370 O   0  0  0  0  0  0  0  0  0  0  0  0
  191.3180  177.6650  148.7920 C   0  0  0  0  0  3  0  0  0  0  0  0
  190.2520  177.6650  147.8880 C   0  0  0  0  0  3  0  0  0  0  0  0
  190.2110  176.7270  146.8460 C   0  0  0  0  0  0  0  0  0  0  0  0
  193.4860  176.7400  149.6170 C   0  0  0  0  0  1  0  0  0  0  0  0
  191.2460  175.7940  146.7200 C   0  0  0  0  0  3  0  0  0  0  0  0
  192.3150  175.8000  147.6220 C   0  0  0  0  0  3  0  0  0  0  0  0
  192.3520  176.7350  148.6550 C   0  0  0  0  0  0  0  0  0  0  0  0
  190.0930  178.7300  143.1660 C   0  0  0  0  0  2  0  0  0  0  0  0
  191.4190  178.2340  143.7150 C   0  0  0  0  0  2  0  0  0  0  0  0
  191.9900  177.2440  142.8160 N   0  0  0  0  0  2  0  0  0  0  0  0
  191.6220  175.9430  143.3410 C   0  0  0  0  0  1  0  0  0  0  0  0
  188.2180  177.3520  142.1620 C   0  0  0  0  0  2  0  0  0  0  0  0
  188.7210  178.0690  140.9080 C   0  0  0  0  0  2  0  0  0  0  0  0
  191.1810  173.9460  135.7540 C   0  0  0  0  0  2  0  0  0  0  0  0
  190.4710  175.0200  134.8870 C   0  0  0  0  0  2  0  0  0  0  0  0
  189.0260  177.0920  139.7890 C   0  0  1  0  0  3  0  0  0  0  0  0
  184.3910  176.9260  136.2030 C   0  0  0  0  0  2  0  0  0  0  0  0
  185.4700  176.3500  137.1190 C   0  0  0  0  0  2  0  0  0  0  0  0
  190.8870  175.6540  139.1100 O   0  0  0  0  0  0  0  0  0  0  0  0
  187.9110  176.4330  137.6830 C   0  0  0  0  0  2  0  0  0  0  0  0
  188.3880  177.6140  138.5070 C   0  0  0  0  0  2  0  0  0  0  0  0
  188.2920  177.7780  134.8700 N   0  0  0  0  0  0  0  0  0  0  0  0
  184.7780  176.7530  134.8670 O   0  0  0  0  0  0  0  0  0  0  0  0
  190.5420  176.9230  139.6670 C   0  0  0  0  0  2  0  0  0  0  0  0
  190.9890  175.4400  137.7360 C   0  0  0  0  0  0  0  0  0  0  0  0
  191.1380  174.2040  137.2490 C   0  0  0  0  0  3  0  0  0  0  0  0
  186.8520  176.7870  136.6950 C   0  0  0  0  0  0  0  0  0  0  0  0
  185.8170  177.6740  134.6510 C   0  0  0  0  0  2  0  0  0  0  0  0
  189.4730  177.2940  134.9500 N   0  0  0  0  0  0  0  0  0  0  0  0
  189.8600  176.1400  135.7290 C   0  0  2  0  0  3  0  0  0  0  0  0
  187.0460  177.3140  135.4480 C   0  0  0  0  0  0  0  0  0  0  0  0
  190.8620  176.5740  136.7790 C   0  0  0  0  0  2  0  0  0  0  0  0
  1 22  1  6  0  0  0
  2  1  1  6  0  0  0
  2  4  1  0  0  0  0
  2  3  1  0  0  0  0
  3 10  1  6  0  0  0
  4  5  1  1  0  0  0
  4  3  1  0  0  0  0
  5  6  1  1  0  0  0
  8  9  2  0  0  0  0
  9  7  1  0  0  0  0
  9  5  1  0  0  0  0
 10 13  1  0  0  0  0
 12 11  2  0  0  0  0
 13 12  1  0  0  0  0
 15 13  2  0  0  0  0
 15 16  1  0  0  0  0
 16 17  2  0  0  0  0
 17 11  1  0  0  0  0
 17 14  1  0  0  0  0
 18  1  1  0  0  0  0
 18 19  1  0  0  0  0
 20 21  1  0  0  0  0
 20 19  1  0  0  0  0
 23 22  1  0  0  0  0
 24 36  1  0  0  0  0
 25 24  1  0  0  0  0
 26 23  1  1  0  0  0
 27 28  1  0  0  0  0
 29 34  1  0  0  0  0
 30 31  1  0  0  0  0
 31 26  1  0  0  0  0
 32 39  2  0  0  0  0
 32 41  1  0  0  0  0
 33 27  1  0  0  0  0
 34 26  1  0  0  0  0
 35 29  1  0  0  0  0
 36 35  2  0  0  0  0
 37 28  1  0  0  0  0
 37 30  1  0  0  0  0
 38 33  1  0  0  0  0
 38 41  1  0  0  0  0
 39 40  1  0  0  0  0
 40 25  1  6  0  0  0
 40 42  1  0  0  0  0
 41 37  2  0  0  0  0
 42 35  1  0  0  0  0
M  END
>  <MODEL>
5

>  <REMARK>
 VINA RESULT:      -7.2      3.014      6.185
  Name = 
  11 active torsions:
  status: ('A' for Active; 'I' for Inactive)
    1  A    between atoms: C_2  and  C_10
    2  A    between atoms: C_2  and  C_36
    3  A    between atoms: N_6  and  C_37
    4  A    between atoms: O_7  and  C_18
    5  A    between atoms: O_7  and  C_24
    6  A    between atoms: C_9  and  C_23
    7  A    between atoms: C_13  and  C_32
    8  A    between atoms: C_13  and  C_37
    9  A    between atoms: C_14  and  C_32
   10  A    between atoms: C_23  and  C_29
   11  A    between atoms: C_32  and  C_36
                            x       y       z     vdW  Elec       q    Type
                         _______ _______ _______ _____ _____    ______ ____

>  <TORSDO>
F 11

$$$$
=
 OpenBabel10232410593D

 42 46  0  0  1  0  0  0  0  0999 V2000
  186.8280  178.1580  142.0430 C   0  0  2  0  0  3  0  0  0  0  0  0
  186.5550  179.0320  143.2730 C   0  0  2  0  0  3  0  0  0  0  0  0
  187.3130  178.5830  144.5260 C   0  0  1  0  0  3  0  0  0  0  0  0
  185.8520  178.2240  144.3540 C   0  0  1  0  0  3  0  0  0  0  0  0
  185.0130  179.1310  145.2430 C   0  0  1  0  0  3  0  0  0  0  0  0
  183.5430  178.9980  144.8880 C   0  0  0  0  0  1  0  0  0  0  0  0
  186.3540  179.3930  147.4660 C   0  0  0  0  0  1  0  0  0  0  0  0
  184.4670  178.0170  147.2420 O   0  0  0  0  0  0  0  0  0  0  0  0
  185.2230  178.7970  146.6900 C   0  0  0  0  0  0  0  0  0  0  0  0
  188.1050  177.4180  144.3170 O   0  0  0  0  0  0  0  0  0  0  0  0
  191.4850  176.4700  145.5320 C   0  0  0  0  0  3  0  0  0  0  0  0
  190.4460  176.8080  144.6600 C   0  0  0  0  0  3  0  0  0  0  0  0
  189.1600  177.0620  145.1600 C   0  0  0  0  0  0  0  0  0  0  0  0
  192.3510  176.0140  147.8300 C   0  0  0  0  0  1  0  0  0  0  0  0
  188.9280  176.9740  146.5370 C   0  0  0  0  0  3  0  0  0  0  0  0
  189.9670  176.6290  147.4070 C   0  0  0  0  0  3  0  0  0  0  0  0
  191.2440  176.3770  146.9050 C   0  0  0  0  0  0  0  0  0  0  0  0
  187.9090  178.7720  141.1510 C   0  0  0  0  0  2  0  0  0  0  0  0
  188.3620  177.8170  140.0620 C   0  0  0  0  0  2  0  0  0  0  0  0
  189.8090  177.8680  139.9260 N   0  0  0  0  0  2  0  0  0  0  0  0
  190.3520  176.9250  140.8840 C   0  0  0  0  0  1  0  0  0  0  0  0
  185.5420  177.8760  141.2540 C   0  0  0  0  0  2  0  0  0  0  0  0
  184.8760  179.1250  140.6750 C   0  0  0  0  0  2  0  0  0  0  0  0
  181.7060  177.5360  134.5880 C   0  0  0  0  0  2  0  0  0  0  0  0
  182.7590  176.3950  134.6180 C   0  0  0  0  0  2  0  0  0  0  0  0
  184.3830  178.8920  139.2600 C   0  0  1  0  0  3  0  0  0  0  0  0
  189.0170  177.6280  135.9000 C   0  0  0  0  0  2  0  0  0  0  0  0
  187.7530  178.3820  136.3100 C   0  0  0  0  0  2  0  0  0  0  0  0
  182.2390  178.8780  138.0790 O   0  0  0  0  0  0  0  0  0  0  0  0
  185.4080  178.1090  137.1510 C   0  0  0  0  0  2  0  0  0  0  0  0
  185.2370  177.8000  138.6260 C   0  0  0  0  0  2  0  0  0  0  0  0
  185.6400  175.1300  136.1830 N   0  0  0  0  0  0  0  0  0  0  0  0
  188.6950  176.6930  134.9080 O   0  0  0  0  0  0  0  0  0  0  0  0
  182.8960  178.5300  139.2980 C   0  0  0  0  0  2  0  0  0  0  0  0
  182.1790  178.0160  136.9850 C   0  0  0  0  0  0  0  0  0  0  0  0
  181.7120  178.4410  135.8060 C   0  0  0  0  0  3  0  0  0  0  0  0
  186.5930  177.4430  136.5390 C   0  0  0  0  0  0  0  0  0  0  0  0
  187.9880  175.6720  135.5640 C   0  0  0  0  0  2  0  0  0  0  0  0
  184.3670  175.2040  136.0890 N   0  0  0  0  0  0  0  0  0  0  0  0
  183.6060  176.4160  135.8900 C   0  0  2  0  0  3  0  0  0  0  0  0
  186.6530  176.1610  136.0650 C   0  0  0  0  0  0  0  0  0  0  0  0
  182.6990  176.6230  137.0870 C   0  0  0  0  0  2  0  0  0  0  0  0
  1 18  1  6  0  0  0
  2  1  1  6  0  0  0
  2  4  1  0  0  0  0
  2  3  1  0  0  0  0
  3 10  1  6  0  0  0
  4  3  1  0  0  0  0
  4  5  1  1  0  0  0
  5  6  1  6  0  0  0
  5  9  1  0  0  0  0
  9  8  2  0  0  0  0
  9  7  1  0  0  0  0
 10 13  1  0  0  0  0
 11 17  1  0  0  0  0
 12 13  1  0  0  0  0
 12 11  2  0  0  0  0
 13 15  2  0  0  0  0
 15 16  1  0  0  0  0
 17 16  2  0  0  0  0
 17 14  1  0  0  0  0
 19 18  1  0  0  0  0
 20 19  1  0  0  0  0
 20 21  1  0  0  0  0
 22  1  1  0  0  0  0
 23 22  1  0  0  0  0
 24 25  1  0  0  0  0
 24 36  1  0  0  0  0
 26 34  1  0  0  0  0
 26 23  1  1  0  0  0
 27 28  1  0  0  0  0
 28 37  1  0  0  0  0
 29 34  1  0  0  0  0
 30 31  1  0  0  0  0
 31 26  1  0  0  0  0
 33 38  1  0  0  0  0
 33 27  1  0  0  0  0
 35 42  1  0  0  0  0
 35 29  1  0  0  0  0
 36 35  2  0  0  0  0
 37 30  1  0  0  0  0
 38 41  1  0  0  0  0
 39 32  2  0  0  0  0
 40 25  1  6  0  0  0
 40 39  1  0  0  0  0
 40 42  1  0  0  0  0
 41 32  1  0  0  0  0
 41 37  2  0  0  0  0
M  END
>  <MODEL>
6

>  <REMARK>
 VINA RESULT:      -7.1      1.967      3.995
  Name = 
  11 active torsions:
  status: ('A' for Active; 'I' for Inactive)
    1  A    between atoms: C_2  and  C_10
    2  A    between atoms: C_2  and  C_36
    3  A    between atoms: N_6  and  C_37
    4  A    between atoms: O_7  and  C_18
    5  A    between atoms: O_7  and  C_24
    6  A    between atoms: C_9  and  C_23
    7  A    between atoms: C_13  and  C_32
    8  A    between atoms: C_13  and  C_37
    9  A    between atoms: C_14  and  C_32
   10  A    between atoms: C_23  and  C_29
   11  A    between atoms: C_32  and  C_36
                            x       y       z     vdW  Elec       q    Type
                         _______ _______ _______ _____ _____    ______ ____

>  <TORSDO>
F 11

$$$$
=
 OpenBabel10232410593D

 42 46  0  0  1  0  0  0  0  0999 V2000
  187.6120  177.1730  136.5630 C   0  0  2  0  0  3  0  0  0  0  0  0
  187.0610  175.9180  135.8770 C   0  0  2  0  0  3  0  0  0  0  0  0
  185.5310  175.8510  135.8570 C   0  0  1  0  0  3  0  0  0  0  0  0
  186.3120  175.0500  136.8780 C   0  0  1  0  0  3  0  0  0  0  0  0
  186.3350  173.5910  136.4470 C   0  0  1  0  0  3  0  0  0  0  0  0
  187.6190  172.9290  136.9110 C   0  0  0  0  0  1  0  0  0  0  0  0
  184.4940  171.7560  136.2310 C   0  0  0  0  0  1  0  0  0  0  0  0
  184.7070  173.1680  138.0930 O   0  0  0  0  0  0  0  0  0  0  0  0
  185.1500  172.8570  137.0010 C   0  0  0  0  0  0  0  0  0  0  0  0
  184.9110  176.9560  136.5090 O   0  0  0  0  0  0  0  0  0  0  0  0
  181.6840  175.8590  137.9850 C   0  0  0  0  0  3  0  0  0  0  0  0
  182.7340  176.0020  137.0740 C   0  0  0  0  0  3  0  0  0  0  0  0
  183.8390  176.8060  137.3910 C   0  0  0  0  0  0  0  0  0  0  0  0
  180.6070  176.3720  140.1790 C   0  0  0  0  0  1  0  0  0  0  0  0
  183.8790  177.4620  138.6260 C   0  0  0  0  0  3  0  0  0  0  0  0
  182.8240  177.3230  139.5340 C   0  0  0  0  0  3  0  0  0  0  0  0
  181.7280  176.5240  139.2130 C   0  0  0  0  0  0  0  0  0  0  0  0
  188.7790  177.7730  135.7750 C   0  0  0  0  0  2  0  0  0  0  0  0
  189.1320  176.9420  134.5540 C   0  0  0  0  0  2  0  0  0  0  0  0
  190.5350  176.5620  134.6000 N   0  0  0  0  0  2  0  0  0  0  0  0
  190.5770  175.1750  135.0220 C   0  0  0  0  0  1  0  0  0  0  0  0
  188.0030  176.8950  138.0210 C   0  0  0  0  0  2  0  0  0  0  0  0
  189.5070  176.9630  138.2900 C   0  0  0  0  0  2  0  0  0  0  0  0
  191.6000  178.6050  144.8130 C   0  0  0  0  0  2  0  0  0  0  0  0
  190.2540  177.9140  145.1570 C   0  0  0  0  0  2  0  0  0  0  0  0
  189.8040  177.5030  139.6760 C   0  0  1  0  0  3  0  0  0  0  0  0
  184.7810  179.4450  141.9910 C   0  0  0  0  0  2  0  0  0  0  0  0
  186.2410  179.5320  141.5470 C   0  0  0  0  0  2  0  0  0  0  0  0
  191.7520  177.7320  141.1410 O   0  0  0  0  0  0  0  0  0  0  0  0
  188.4430  178.3350  141.5640 C   0  0  0  0  0  2  0  0  0  0  0  0
  188.6140  177.1960  140.5780 C   0  0  0  0  0  2  0  0  0  0  0  0
  187.2410  176.6130  143.8990 N   0  0  0  0  0  0  0  0  0  0  0  0
  184.7300  179.2230  143.3730 O   0  0  0  0  0  0  0  0  0  0  0  0
  191.1070  176.8850  140.1880 C   0  0  0  0  0  2  0  0  0  0  0  0
  191.4670  177.6810  142.5040 C   0  0  0  0  0  0  0  0  0  0  0  0
  191.9570  178.6050  143.3380 C   0  0  0  0  0  3  0  0  0  0  0  0
  187.0700  178.4190  142.1410 C   0  0  0  0  0  0  0  0  0  0  0  0
  185.1350  177.8910  143.5590 C   0  0  0  0  0  2  0  0  0  0  0  0
  188.4650  176.4580  144.2340 N   0  0  0  0  0  0  0  0  0  0  0  0
  189.5450  177.3650  143.9190 C   0  0  2  0  0  3  0  0  0  0  0  0
  186.5880  177.7020  143.2020 C   0  0  0  0  0  0  0  0  0  0  0  0
  190.5540  176.6390  143.0510 C   0  0  0  0  0  2  0  0  0  0  0  0
  1 18  1  6  0  0  0
  1 22  1  0  0  0  0
  2  1  1  1  0  0  0
  2  4  1  0  0  0  0
  3  2  1  0  0  0  0
  3 10  1  1  0  0  0
  3  4  1  0  0  0  0
  4  5  1  6  0  0  0
  5  6  1  1  0  0  0
  5  9  1  0  0  0  0
  7  9  1  0  0  0  0
  9  8  2  0  0  0  0
 10 13  1  0  0  0  0
 11 17  1  0  0  0  0
 12 13  1  0  0  0  0
 12 11  2  0  0  0  0
 13 15  2  0  0  0  0
 15 16  1  0  0  0  0
 17 16  2  0  0  0  0
 17 14  1  0  0  0  0
 19 20  1  0  0  0  0
 19 18  1  0  0  0  0
 20 21  1  0  0  0  0
 22 23  1  0  0  0  0
 24 25  1  0  0  0  0
 26 23  1  6  0  0  0
 26 34  1  0  0  0  0
 26 31  1  0  0  0  0
 27 33  1  0  0  0  0
 28 27  1  0  0  0  0
 28 37  1  0  0  0  0
 29 35  1  0  0  0  0
 30 37  1  0  0  0  0
 31 30  1  0  0  0  0
 32 39  2  0  0  0  0
 33 38  1  0  0  0  0
 34 29  1  0  0  0  0
 35 42  1  0  0  0  0
 35 36  2  0  0  0  0
 36 24  1  0  0  0  0
 37 41  2  0  0  0  0
 40 42  1  6  0  0  0
 40 39  1  0  0  0  0
 40 25  1  0  0  0  0
 41 38  1  0  0  0  0
 41 32  1  0  0  0  0
M  END
>  <MODEL>
7

>  <REMARK>
 VINA RESULT:      -7.0      2.865      9.392
  Name = 
  11 active torsions:
  status: ('A' for Active; 'I' for Inactive)
    1  A    between atoms: C_2  and  C_10
    2  A    between atoms: C_2  and  C_36
    3  A    between atoms: N_6  and  C_37
    4  A    between atoms: O_7  and  C_18
    5  A    between atoms: O_7  and  C_24
    6  A    between atoms: C_9  and  C_23
    7  A    between atoms: C_13  and  C_32
    8  A    between atoms: C_13  and  C_37
    9  A    between atoms: C_14  and  C_32
   10  A    between atoms: C_23  and  C_29
   11  A    between atoms: C_32  and  C_36
                            x       y       z     vdW  Elec       q    Type
                         _______ _______ _______ _____ _____    ______ ____

>  <TORSDO>
F 11

$$$$
=
 OpenBabel10232410593D

 42 46  0  0  1  0  0  0  0  0999 V2000
  187.3700  177.2700  142.6490 C   0  0  2  0  0  3  0  0  0  0  0  0
  186.1590  177.6480  143.5090 C   0  0  2  0  0  3  0  0  0  0  0  0
  184.9260  178.0460  142.6930 C   0  0  1  0  0  3  0  0  0  0  0  0
  185.8030  179.1150  143.3120 C   0  0  1  0  0  3  0  0  0  0  0  0
  185.1070  179.6690  144.5460 C   0  0  1  0  0  3  0  0  0  0  0  0
  183.6040  179.6890  144.3350 C   0  0  0  0  0  1  0  0  0  0  0  0
  186.8650  178.6060  146.1530 C   0  0  0  0  0  1  0  0  0  0  0  0
  184.5460  178.3700  146.4260 O   0  0  0  0  0  0  0  0  0  0  0  0
  185.4440  178.8520  145.7570 C   0  0  0  0  0  0  0  0  0  0  0  0
  185.1500  178.0190  141.2860 O   0  0  0  0  0  0  0  0  0  0  0  0
  182.1320  177.6100  139.1590 C   0  0  0  0  0  3  0  0  0  0  0  0
  183.1410  177.3220  140.0820 C   0  0  0  0  0  3  0  0  0  0  0  0
  184.1380  178.2700  140.3570 C   0  0  0  0  0  0  0  0  0  0  0  0
  181.0450  179.1440  137.5150 C   0  0  0  0  0  1  0  0  0  0  0  0
  184.1130  179.5040  139.6980 C   0  0  0  0  0  3  0  0  0  0  0  0
  183.1060  179.7880  138.7690 C   0  0  0  0  0  3  0  0  0  0  0  0
  182.1180  178.8410  138.4990 C   0  0  0  0  0  0  0  0  0  0  0  0
  188.2020  176.1690  143.3090 C   0  0  0  0  0  2  0  0  0  0  0  0
  189.0800  176.7060  144.4260 C   0  0  0  0  0  2  0  0  0  0  0  0
  190.3210  177.2270  143.8750 N   0  0  0  0  0  2  0  0  0  0  0  0
  191.2640  176.1250  143.8590 C   0  0  0  0  0  1  0  0  0  0  0  0
  188.2290  178.4970  142.3110 C   0  0  0  0  0  2  0  0  0  0  0  0
  188.1570  178.9270  140.8450 C   0  0  0  0  0  2  0  0  0  0  0  0
  191.0230  174.1300  136.5560 C   0  0  0  0  0  2  0  0  0  0  0  0
  190.3600  175.0420  135.4900 C   0  0  0  0  0  2  0  0  0  0  0  0
  188.5510  177.7990  139.9110 C   0  0  1  0  0  3  0  0  0  0  0  0
  184.1780  176.9760  136.0950 C   0  0  0  0  0  2  0  0  0  0  0  0
  185.1990  176.5730  137.1580 C   0  0  0  0  0  2  0  0  0  0  0  0
  190.4750  176.3210  139.5840 O   0  0  0  0  0  0  0  0  0  0  0  0
  187.5940  176.8000  137.8620 C   0  0  0  0  0  2  0  0  0  0  0  0
  187.9960  178.1040  138.5250 C   0  0  0  0  0  2  0  0  0  0  0  0
  188.1480  177.7110  134.9080 N   0  0  0  0  0  0  0  0  0  0  0  0
  184.6580  176.6120  134.8310 O   0  0  0  0  0  0  0  0  0  0  0  0
  190.0750  177.6500  139.9160 C   0  0  0  0  0  2  0  0  0  0  0  0
  190.6740  175.9020  138.2690 C   0  0  0  0  0  0  0  0  0  0  0  0
  190.8750  174.6110  137.9880 C   0  0  0  0  0  3  0  0  0  0  0  0
  186.6000  176.9740  136.7640 C   0  0  0  0  0  0  0  0  0  0  0  0
  185.6960  177.5140  134.5450 C   0  0  0  0  0  2  0  0  0  0  0  0
  189.3280  177.2740  135.1380 N   0  0  0  0  0  0  0  0  0  0  0  0
  189.6760  176.2610  136.1080 C   0  0  2  0  0  3  0  0  0  0  0  0
  186.8720  177.3100  135.4660 C   0  0  0  0  0  0  0  0  0  0  0  0
  190.5980  176.8750  137.1430 C   0  0  0  0  0  2  0  0  0  0  0  0
  1 22  1  1  0  0  0
  1 18  1  0  0  0  0
  2  1  1  6  0  0  0
  3 10  1  6  0  0  0
  3  4  1  0  0  0  0
  3  2  1  0  0  0  0
  4  2  1  0  0  0  0
  4  5  1  1  0  0  0
  5  6  1  6  0  0  0
  5  9  1  0  0  0  0
  9  7  1  0  0  0  0
  9  8  2  0  0  0  0
 11 12  1  0  0  0  0
 12 13  2  0  0  0  0
 13 10  1  0  0  0  0
 14 17  1  0  0  0  0
 15 13  1  0  0  0  0
 16 15  2  0  0  0  0
 17 16  1  0  0  0  0
 17 11  2  0  0  0  0
 18 19  1  0  0  0  0
 20 19  1  0  0  0  0
 21 20  1  0  0  0  0
 23 22  1  0  0  0  0
 24 36  1  0  0  0  0
 25 24  1  0  0  0  0
 26 34  1  0  0  0  0
 26 23  1  1  0  0  0
 27 28  1  0  0  0  0
 29 34  1  0  0  0  0
 30 31  1  0  0  0  0
 31 26  1  0  0  0  0
 32 39  2  0  0  0  0
 32 41  1  0  0  0  0
 33 27  1  0  0  0  0
 35 29  1  0  0  0  0
 36 35  2  0  0  0  0
 37 28  1  0  0  0  0
 37 30  1  0  0  0  0
 38 33  1  0  0  0  0
 38 41  1  0  0  0  0
 39 40  1  0  0  0  0
 40 25  1  6  0  0  0
 40 42  1  0  0  0  0
 41 37  2  0  0  0  0
 42 35  1  0  0  0  0
M  END
>  <MODEL>
8

>  <REMARK>
 VINA RESULT:      -7.0      2.543      7.441
  Name = 
  11 active torsions:
  status: ('A' for Active; 'I' for Inactive)
    1  A    between atoms: C_2  and  C_10
    2  A    between atoms: C_2  and  C_36
    3  A    between atoms: N_6  and  C_37
    4  A    between atoms: O_7  and  C_18
    5  A    between atoms: O_7  and  C_24
    6  A    between atoms: C_9  and  C_23
    7  A    between atoms: C_13  and  C_32
    8  A    between atoms: C_13  and  C_37
    9  A    between atoms: C_14  and  C_32
   10  A    between atoms: C_23  and  C_29
   11  A    between atoms: C_32  and  C_36
                            x       y       z     vdW  Elec       q    Type
                         _______ _______ _______ _____ _____    ______ ____

>  <TORSDO>
F 11

$$$$
=
 OpenBabel10232410593D

 42 46  0  0  1  0  0  0  0  0999 V2000
  187.1810  178.1740  142.2750 C   0  0  2  0  0  3  0  0  0  0  0  0
  186.6650  178.7510  143.5990 C   0  0  2  0  0  3  0  0  0  0  0  0
  187.3620  178.1730  144.8330 C   0  0  1  0  0  3  0  0  0  0  0  0
  185.9940  177.6640  144.4270 C   0  0  1  0  0  3  0  0  0  0  0  0
  184.9490  178.2640  145.3550 C   0  0  1  0  0  3  0  0  0  0  0  0
  185.6240  178.9840  146.5090 C   0  0  0  0  0  1  0  0  0  0  0  0
  182.7160  178.7880  144.1120 C   0  0  0  0  0  1  0  0  0  0  0  0
  184.4430  180.3520  144.3930 O   0  0  0  0  0  0  0  0  0  0  0  0
  184.0600  179.2140  144.6090 C   0  0  0  0  0  0  0  0  0  0  0  0
  188.3380  177.1850  144.5180 O   0  0  0  0  0  0  0  0  0  0  0  0
  190.3410  176.5850  147.5880 C   0  0  0  0  0  3  0  0  0  0  0  0
  189.2610  176.9130  146.7640 C   0  0  0  0  0  3  0  0  0  0  0  0
  189.4030  176.8780  145.3680 C   0  0  0  0  0  0  0  0  0  0  0  0
  192.7170  175.8840  147.9050 C   0  0  0  0  0  1  0  0  0  0  0  0
  190.6330  176.5130  144.8120 C   0  0  0  0  0  3  0  0  0  0  0  0
  191.7140  176.1920  145.6380 C   0  0  0  0  0  3  0  0  0  0  0  0
  191.5690  176.2290  147.0250 C   0  0  0  0  0  0  0  0  0  0  0  0
  188.6990  178.3280  142.1530 C   0  0  0  0  0  2  0  0  0  0  0  0
  189.2190  177.8310  140.8160 C   0  0  0  0  0  2  0  0  0  0  0  0
  190.2220  176.8000  141.0260 N   0  0  0  0  0  2  0  0  0  0  0  0
  191.4520  177.2880  140.4330 C   0  0  0  0  0  1  0  0  0  0  0  0
  186.4550  178.7880  141.0700 C   0  0  0  0  0  2  0  0  0  0  0  0
  184.9330  178.8380  141.2150 C   0  0  0  0  0  2  0  0  0  0  0  0
  180.8470  178.7920  135.4770 C   0  0  0  0  0  2  0  0  0  0  0  0
  181.6840  177.5180  135.1880 C   0  0  0  0  0  2  0  0  0  0  0  0
  184.2450  178.9230  139.8660 C   0  0  1  0  0  3  0  0  0  0  0  0
  188.1670  177.5570  135.7290 C   0  0  0  0  0  2  0  0  0  0  0  0
  187.1090  178.4140  136.4220 C   0  0  0  0  0  2  0  0  0  0  0  0
  182.0070  179.4320  139.0140 O   0  0  0  0  0  0  0  0  0  0  0  0
  184.8660  178.3600  137.5400 C   0  0  0  0  0  2  0  0  0  0  0  0
  184.8180  177.8380  138.9630 C   0  0  0  0  0  2  0  0  0  0  0  0
  184.4680  175.5870  136.1220 N   0  0  0  0  0  0  0  0  0  0  0  0
  187.5750  176.8620  134.6660 O   0  0  0  0  0  0  0  0  0  0  0  0
  182.7330  178.7890  140.0620 C   0  0  0  0  0  2  0  0  0  0  0  0
  181.6730  178.7860  137.8260 C   0  0  0  0  0  0  0  0  0  0  0  0
  181.1510  179.4680  136.8010 C   0  0  0  0  0  3  0  0  0  0  0  0
  185.8400  177.6360  136.6740 C   0  0  0  0  0  0  0  0  0  0  0  0
  186.7850  175.8630  135.2600 C   0  0  0  0  0  2  0  0  0  0  0  0
  183.2240  175.8660  136.2230 N   0  0  0  0  0  0  0  0  0  0  0  0
  182.6660  177.1960  136.3150 C   0  0  2  0  0  3  0  0  0  0  0  0
  185.6220  176.4580  136.0130 C   0  0  0  0  0  0  0  0  0  0  0  0
  181.9540  177.3330  137.6470 C   0  0  0  0  0  2  0  0  0  0  0  0
  1 22  1  6  0  0  0
  2  1  1  6  0  0  0
  2  4  1  0  0  0  0
  2  3  1  0  0  0  0
  3 10  1  6  0  0  0
  4  3  1  0  0  0  0
  4  5  1  1  0  0  0
  5  6  1  1  0  0  0
  7  9  1  0  0  0  0
  8  9  2  0  0  0  0
  9  5  1  0  0  0  0
 10 13  1  0  0  0  0
 12 11  2  0  0  0  0
 13 12  1  0  0  0  0
 15 13  2  0  0  0  0
 15 16  1  0  0  0  0
 16 17  2  0  0  0  0
 17 11  1  0  0  0  0
 17 14  1  0  0  0  0
 18  1  1  0  0  0  0
 19 20  1  0  0  0  0
 19 18  1  0  0  0  0
 21 20  1  0  0  0  0
 22 23  1  0  0  0  0
 24 36  1  0  0  0  0
 25 24  1  0  0  0  0
 26 34  1  0  0  0  0
 26 23  1  1  0  0  0
 27 28  1  0  0  0  0
 28 37  1  0  0  0  0
 29 34  1  0  0  0  0
 30 31  1  0  0  0  0
 31 26  1  0  0  0  0
 32 39  2  0  0  0  0
 33 38  1  0  0  0  0
 33 27  1  0  0  0  0
 35 29  1  0  0  0  0
 36 35  2  0  0  0  0
 37 30  1  0  0  0  0
 38 41  1  0  0  0  0
 39 40  1  0  0  0  0
 40 25  1  6  0  0  0
 40 42  1  0  0  0  0
 41 32  1  0  0  0  0
 41 37  2  0  0  0  0
 42 35  1  0  0  0  0
M  END
>  <MODEL>
9

>  <REMARK>
 VINA RESULT:      -7.0      1.718      3.746
  Name = 
  11 active torsions:
  status: ('A' for Active; 'I' for Inactive)
    1  A    between atoms: C_2  and  C_10
    2  A    between atoms: C_2  and  C_36
    3  A    between atoms: N_6  and  C_37
    4  A    between atoms: O_7  and  C_18
    5  A    between atoms: O_7  and  C_24
    6  A    between atoms: C_9  and  C_23
    7  A    between atoms: C_13  and  C_32
    8  A    between atoms: C_13  and  C_37
    9  A    between atoms: C_14  and  C_32
   10  A    between atoms: C_23  and  C_29
   11  A    between atoms: C_32  and  C_36
                            x       y       z     vdW  Elec       q    Type
                         _______ _______ _______ _____ _____    ______ ____

>  <TORSDO>
F 11

$$$$
