=
 OpenBabel10232411233D

 37 41  0  0  1  0  0  0  0  0999 V2000
  187.7010  177.6880  148.2220 C   0  0  0  0  0  2  0  0  0  0  0  0
  180.9490  179.4050  142.4120 O   0  0  0  0  0  0  0  0  0  0  0  0
  182.0990  179.0270  142.0610 C   0  0  0  0  0  0  0  0  0  0  0  0
  190.2300  176.7540  144.7210 C   0  0  0  0  0  0  0  0  0  0  0  0
  190.1210  178.0420  147.9780 C   0  0  0  0  0  3  0  0  0  0  0  0
  185.7180  177.9420  142.5780 S   0  0  0  0  0  0  0  0  0  0  0  0
  188.9550  178.4690  148.4650 C   0  0  0  0  0  3  0  0  0  0  0  0
  183.1620  178.7670  142.9300 C   0  0  0  0  0  0  0  0  0  0  0  0
  185.9520  178.1550  146.5600 C   0  0  0  0  0  3  0  0  0  0  0  0
  186.2160  177.8970  144.1840 C   0  0  0  0  0  0  0  0  0  0  0  0
  185.3990  178.2370  145.2790 C   0  0  0  0  0  0  0  0  0  0  0  0
  182.0060  179.2640  144.8340 O   0  0  0  0  0  0  0  0  0  0  0  0
  183.7110  178.4470  140.8270 C   0  0  0  0  0  0  0  0  0  0  0  0
  184.1000  178.6410  145.2290 N   0  0  0  0  0  2  0  0  0  0  0  0
  182.4260  178.8280  140.7720 N   0  0  0  0  0  0  0  0  0  0  0  0
  187.5340  177.4920  144.4020 C   0  0  0  0  0  3  0  0  0  0  0  0
  191.6310  176.2930  147.1230 C   0  0  0  0  0  1  0  0  0  0  0  0
  190.1890  176.7830  147.1700 C   0  0  2  0  0  3  0  0  0  0  0  0
  190.9200  176.5410  143.6360 C   0  0  0  0  0  3  0  0  0  0  0  0
  187.2700  177.7560  146.7870 C   0  0  0  0  0  0  0  0  0  0  0  0
  184.1600  178.4000  142.1350 C   0  0  0  0  0  0  0  0  0  0  0  0
  183.1010  178.8880  144.3360 C   0  0  0  0  0  0  0  0  0  0  0  0
  189.5310  176.9720  145.8140 C   0  0  0  0  0  0  0  0  0  0  0  0
  188.0950  177.4030  145.6860 C   0  0  0  0  0  0  0  0  0  0  0  0
  191.3620  177.6890  142.8020 C   0  0  0  0  0  2  0  0  0  0  0  0
  191.2800  177.3110  141.3380 C   0  0  0  0  0  2  0  0  0  0  0  0
  189.2950  177.7360  140.4750 C   0  0  0  0  0  1  0  0  0  0  0  0
  190.0420  176.7240  141.0760 O   0  0  0  0  0  0  0  0  0  0  0  0
  184.4990  178.0700  139.6180 C   0  0  0  0  0  2  0  0  0  0  0  0
  185.2290  179.2250  139.1290 N   0  0  0  0  0  2  0  0  0  0  0  0
  186.4170  178.7420  138.5670 N   0  0  0  0  0  2  0  0  0  0  0  0
  186.0370  177.7360  137.5900 C   0  0  0  0  0  2  0  0  0  0  0  0
  187.1810  177.5020  136.6230 C   0  0  2  0  0  3  0  0  0  0  0  0
  189.3670  178.0530  136.2240 N   0  0  0  0  0  2  0  0  0  0  0  0
  189.5830  176.7540  136.8390 C   0  0  0  0  0  2  0  0  0  0  0  0
  187.9820  175.9270  137.0020 S   0  0  0  0  0  0  0  0  0  0  0  0
  188.1710  178.5570  136.7560 N   0  0  0  0  0  2  0  0  0  0  0  0
  1  7  1  0  0  0  0
  3  2  2  0  0  0  0
  3  8  1  0  0  0  0
  4 23  2  0  0  0  0
  5  7  2  0  0  0  0
  6 10  1  0  0  0  0
  8 22  1  0  0  0  0
  9 20  1  0  0  0  0
 10 16  2  0  0  0  0
 10 11  1  0  0  0  0
 11  9  2  0  0  0  0
 13 21  1  0  0  0  0
 14 11  1  0  0  0  0
 15 13  2  0  0  0  0
 15  3  1  0  0  0  0
 16 24  1  0  0  0  0
 18 17  1  6  0  0  0
 18  5  1  0  0  0  0
 19  4  2  0  0  0  0
 20  1  1  0  0  0  0
 21  6  1  0  0  0  0
 21  8  2  0  0  0  0
 22 12  2  0  0  0  0
 22 14  1  0  0  0  0
 23 18  1  0  0  0  0
 24 23  1  0  0  0  0
 24 20  2  0  0  0  0
 25 19  1  0  0  0  0
 26 25  1  0  0  0  0
 27 28  1  0  0  0  0
 28 26  1  0  0  0  0
 29 13  1  0  0  0  0
 30 29  1  0  0  0  0
 31 30  1  0  0  0  0
 32 31  1  0  0  0  0
 33 37  1  0  0  0  0
 33 36  1  0  0  0  0
 33 32  1  1  0  0  0
 34 37  1  0  0  0  0
 34 35  1  0  0  0  0
 35 36  1  0  0  0  0
M  END
>  <MODEL>
1

>  <REMARK>
 VINA RESULT:      -9.9      0.000      0.000
  Name = 
  8 active torsions:
  status: ('A' for Active; 'I' for Inactive)
    1  A    between atoms: C_5  and  C_30
    2  A    between atoms: C_8  and  C_16
    3  A    between atoms: C_8  and  C_29
    4  A    between atoms: N_11  and  C_30
    5  A    between atoms: N_11  and  N_34
    6  A    between atoms: C_16  and  O_33
    7  A    between atoms: C_20  and  C_22
    8  A    between atoms: C_20  and  N_34
                            x       y       z     vdW  Elec       q    Type
                         _______ _______ _______ _____ _____    ______ ____

>  <TORSDO>
F 8

$$$$
=
 OpenBabel10232411233D

 37 41  0  0  1  0  0  0  0  0999 V2000
  181.5500  179.1840  143.4750 C   0  0  0  0  0  2  0  0  0  0  0  0
  189.5320  177.4890  147.4410 O   0  0  0  0  0  0  0  0  0  0  0  0
  189.3580  177.5140  146.1930 C   0  0  0  0  0  0  0  0  0  0  0  0
  183.5740  178.6370  139.5860 C   0  0  0  0  0  0  0  0  0  0  0  0
  180.5970  178.2800  141.3980 C   0  0  0  0  0  3  0  0  0  0  0  0
  187.3780  177.9120  142.9580 S   0  0  0  0  0  0  0  0  0  0  0  0
  180.6520  178.2470  142.7310 C   0  0  0  0  0  3  0  0  0  0  0  0
  188.1400  177.7600  145.5530 C   0  0  0  0  0  0  0  0  0  0  0  0
  183.7520  178.6840  144.4460 C   0  0  0  0  0  3  0  0  0  0  0  0
  185.7460  178.2620  143.1710 C   0  0  0  0  0  0  0  0  0  0  0  0
  185.1190  178.3930  144.4240 C   0  0  0  0  0  0  0  0  0  0  0  0
  186.9390  178.0210  147.4760 O   0  0  0  0  0  0  0  0  0  0  0  0
  189.7720  177.4070  144.1250 C   0  0  0  0  0  0  0  0  0  0  0  0
  185.7090  178.2710  145.6440 N   0  0  0  0  0  2  0  0  0  0  0  0
  190.3630  177.3030  145.3250 N   0  0  0  0  0  0  0  0  0  0  0  0
  185.0010  178.4250  142.0020 C   0  0  0  0  0  3  0  0  0  0  0  0
  180.8840  179.3940  139.2200 C   0  0  0  0  0  1  0  0  0  0  0  0
  181.4440  179.2470  140.6300 C   0  0  2  0  0  3  0  0  0  0  0  0
  184.2350  178.4150  138.4840 C   0  0  0  0  0  3  0  0  0  0  0  0
  182.9980  178.8420  143.2820 C   0  0  0  0  0  0  0  0  0  0  0  0
  188.4250  177.6930  144.2580 C   0  0  0  0  0  0  0  0  0  0  0  0
  186.9200  178.0190  146.2160 C   0  0  0  0  0  0  0  0  0  0  0  0
  182.9110  178.8580  140.7010 C   0  0  0  0  0  0  0  0  0  0  0  0
  183.6280  178.7200  142.0150 C   0  0  0  0  0  0  0  0  0  0  0  0
  184.6060  177.0250  138.1110 C   0  0  0  0  0  2  0  0  0  0  0  0
  183.3610  176.1620  138.0820 C   0  0  0  0  0  2  0  0  0  0  0  0
  184.6950  174.7060  137.1000 C   0  0  0  0  0  1  0  0  0  0  0  0
  183.7250  174.8170  138.0960 O   0  0  0  0  0  0  0  0  0  0  0  0
  190.5180  177.2880  142.8400 C   0  0  0  0  0  2  0  0  0  0  0  0
  190.1230  176.0700  142.1550 N   0  0  0  0  0  2  0  0  0  0  0  0
  190.6190  176.1630  140.8500 N   0  0  0  0  0  2  0  0  0  0  0  0
  190.3220  177.5080  140.3850 C   0  0  0  0  0  2  0  0  0  0  0  0
  189.2140  177.4620  139.3520 C   0  0  2  0  0  3  0  0  0  0  0  0
  187.9560  178.7900  137.9740 N   0  0  0  0  0  2  0  0  0  0  0  0
  188.9260  178.3240  136.9960 C   0  0  0  0  0  2  0  0  0  0  0  0
  189.9010  176.9970  137.7460 S   0  0  0  0  0  0  0  0  0  0  0  0
  188.6010  178.7730  139.2200 N   0  0  0  0  0  2  0  0  0  0  0  0
  3  2  2  0  0  0  0
  4 23  2  0  0  0  0
  5  7  2  0  0  0  0
  6 10  1  0  0  0  0
  6 21  1  0  0  0  0
  7  1  1  0  0  0  0
  8  3  1  0  0  0  0
  8 22  1  0  0  0  0
 10 11  2  0  0  0  0
 11  9  1  0  0  0  0
 11 14  1  0  0  0  0
 13 21  1  0  0  0  0
 13 15  2  0  0  0  0
 14 22  1  0  0  0  0
 15  3  1  0  0  0  0
 16 24  2  0  0  0  0
 16 10  1  0  0  0  0
 18 17  1  6  0  0  0
 18 23  1  0  0  0  0
 18  5  1  0  0  0  0
 19  4  2  0  0  0  0
 20  1  1  0  0  0  0
 20  9  2  0  0  0  0
 21  8  2  0  0  0  0
 22 12  2  0  0  0  0
 23 24  1  0  0  0  0
 24 20  1  0  0  0  0
 25 19  1  0  0  0  0
 26 28  1  0  0  0  0
 26 25  1  0  0  0  0
 27 28  1  0  0  0  0
 29 13  1  0  0  0  0
 30 29  1  0  0  0  0
 31 30  1  0  0  0  0
 32 31  1  0  0  0  0
 33 32  1  1  0  0  0
 34 37  1  0  0  0  0
 35 36  1  0  0  0  0
 35 34  1  0  0  0  0
 36 33  1  0  0  0  0
 37 33  1  0  0  0  0
M  END
>  <MODEL>
2

>  <REMARK>
 VINA RESULT:      -9.0      2.847      6.903
  Name = 
  8 active torsions:
  status: ('A' for Active; 'I' for Inactive)
    1  A    between atoms: C_5  and  C_30
    2  A    between atoms: C_8  and  C_16
    3  A    between atoms: C_8  and  C_29
    4  A    between atoms: N_11  and  C_30
    5  A    between atoms: N_11  and  N_34
    6  A    between atoms: C_16  and  O_33
    7  A    between atoms: C_20  and  C_22
    8  A    between atoms: C_20  and  N_34
                            x       y       z     vdW  Elec       q    Type
                         _______ _______ _______ _____ _____    ______ ____

>  <TORSDO>
F 8

$$$$
=
 OpenBabel10232411233D

 37 41  0  0  1  0  0  0  0  0999 V2000
  181.9250  179.1470  143.3450 C   0  0  0  0  0  2  0  0  0  0  0  0
  189.8570  177.0820  147.2330 O   0  0  0  0  0  0  0  0  0  0  0  0
  189.6930  177.2000  145.9890 C   0  0  0  0  0  0  0  0  0  0  0  0
  183.9740  178.8650  139.4410 C   0  0  0  0  0  0  0  0  0  0  0  0
  180.9790  178.4080  141.2000 C   0  0  0  0  0  3  0  0  0  0  0  0
  187.7440  177.8550  142.7770 S   0  0  0  0  0  0  0  0  0  0  0  0
  181.0230  178.2770  142.5270 C   0  0  0  0  0  3  0  0  0  0  0  0
  188.4830  177.5050  145.3600 C   0  0  0  0  0  0  0  0  0  0  0  0
  184.1140  178.5540  144.2920 C   0  0  0  0  0  3  0  0  0  0  0  0
  186.1140  178.2050  143.0040 C   0  0  0  0  0  0  0  0  0  0  0  0
  185.4780  178.2510  144.2590 C   0  0  0  0  0  0  0  0  0  0  0  0
  187.2700  177.6370  147.2890 O   0  0  0  0  0  0  0  0  0  0  0  0
  190.1230  177.2400  143.9220 C   0  0  0  0  0  0  0  0  0  0  0  0
  186.0570  178.0340  145.4710 N   0  0  0  0  0  2  0  0  0  0  0  0
  190.7030  177.0420  145.1160 N   0  0  0  0  0  0  0  0  0  0  0  0
  185.3800  178.4610  141.8450 C   0  0  0  0  0  3  0  0  0  0  0  0
  181.2950  179.6760  139.1110 C   0  0  0  0  0  1  0  0  0  0  0  0
  181.8420  179.4190  140.5110 C   0  0  2  0  0  3  0  0  0  0  0  0
  184.6420  178.7170  138.3300 C   0  0  0  0  0  3  0  0  0  0  0  0
  183.3700  178.8050  143.1370 C   0  0  0  0  0  0  0  0  0  0  0  0
  188.7780  177.5290  144.0660 C   0  0  0  0  0  0  0  0  0  0  0  0
  187.2600  177.7280  146.0320 C   0  0  0  0  0  0  0  0  0  0  0  0
  183.3050  179.0110  140.5630 C   0  0  0  0  0  0  0  0  0  0  0  0
  184.0100  178.7690  141.8700 C   0  0  0  0  0  0  0  0  0  0  0  0
  185.0010  177.3540  137.8590 C   0  0  0  0  0  2  0  0  0  0  0  0
  186.4580  177.3320  137.4450 C   0  0  0  0  0  2  0  0  0  0  0  0
  188.4160  178.3380  137.5700 C   0  0  0  0  0  1  0  0  0  0  0  0
  187.1690  178.2740  138.1880 O   0  0  0  0  0  0  0  0  0  0  0  0
  190.8780  177.2070  142.6370 C   0  0  0  0  0  2  0  0  0  0  0  0
  190.4760  176.0470  141.8620 N   0  0  0  0  0  2  0  0  0  0  0  0
  190.4100  176.4580  140.5260 N   0  0  0  0  0  2  0  0  0  0  0  0
  191.6150  177.2270  140.2650 C   0  0  0  0  0  2  0  0  0  0  0  0
  192.0650  177.0060  138.8340 C   0  0  2  0  0  3  0  0  0  0  0  0
  193.7870  176.1690  137.5780 N   0  0  0  0  0  2  0  0  0  0  0  0
  192.8910  175.0260  137.5020 C   0  0  0  0  0  2  0  0  0  0  0  0
  191.2840  175.5150  138.1760 S   0  0  0  0  0  0  0  0  0  0  0  0
  193.5060  176.8220  138.7880 N   0  0  0  0  0  2  0  0  0  0  0  0
  3  2  2  0  0  0  0
  4 23  2  0  0  0  0
  5  7  2  0  0  0  0
  6 10  1  0  0  0  0
  6 21  1  0  0  0  0
  7  1  1  0  0  0  0
  8  3  1  0  0  0  0
  8 22  1  0  0  0  0
 10 11  2  0  0  0  0
 11  9  1  0  0  0  0
 11 14  1  0  0  0  0
 13 21  1  0  0  0  0
 13 15  2  0  0  0  0
 14 22  1  0  0  0  0
 15  3  1  0  0  0  0
 16 24  2  0  0  0  0
 16 10  1  0  0  0  0
 18 17  1  6  0  0  0
 18 23  1  0  0  0  0
 18  5  1  0  0  0  0
 19  4  2  0  0  0  0
 20  1  1  0  0  0  0
 20  9  2  0  0  0  0
 21  8  2  0  0  0  0
 22 12  2  0  0  0  0
 23 24  1  0  0  0  0
 24 20  1  0  0  0  0
 25 19  1  0  0  0  0
 26 25  1  0  0  0  0
 26 28  1  0  0  0  0
 27 28  1  0  0  0  0
 29 13  1  0  0  0  0
 30 29  1  0  0  0  0
 31 30  1  0  0  0  0
 32 31  1  0  0  0  0
 33 32  1  1  0  0  0
 34 37  1  0  0  0  0
 35 34  1  0  0  0  0
 35 36  1  0  0  0  0
 36 33  1  0  0  0  0
 37 33  1  0  0  0  0
M  END
>  <MODEL>
3

>  <REMARK>
 VINA RESULT:      -8.8      2.985      6.884
  Name = 
  8 active torsions:
  status: ('A' for Active; 'I' for Inactive)
    1  A    between atoms: C_5  and  C_30
    2  A    between atoms: C_8  and  C_16
    3  A    between atoms: C_8  and  C_29
    4  A    between atoms: N_11  and  C_30
    5  A    between atoms: N_11  and  N_34
    6  A    between atoms: C_16  and  O_33
    7  A    between atoms: C_20  and  C_22
    8  A    between atoms: C_20  and  N_34
                            x       y       z     vdW  Elec       q    Type
                         _______ _______ _______ _____ _____    ______ ____

>  <TORSDO>
F 8

$$$$
=
 OpenBabel10232411233D

 37 41  0  0  1  0  0  0  0  0999 V2000
  191.6060  177.0060  145.6800 C   0  0  0  0  0  2  0  0  0  0  0  0
  190.4800  176.9490  136.6780 O   0  0  0  0  0  0  0  0  0  0  0  0
  189.5890  177.3020  137.4960 C   0  0  0  0  0  0  0  0  0  0  0  0
  187.4310  178.4130  146.0090 C   0  0  0  0  0  0  0  0  0  0  0  0
  189.9950  176.5300  147.4750 C   0  0  0  0  0  3  0  0  0  0  0  0
  188.0920  177.9980  140.9340 S   0  0  0  0  0  0  0  0  0  0  0  0
  191.0020  176.1030  146.7090 C   0  0  0  0  0  3  0  0  0  0  0  0
  189.7270  177.3100  138.8870 C   0  0  0  0  0  0  0  0  0  0  0  0
  191.1840  177.0000  143.2590 C   0  0  0  0  0  3  0  0  0  0  0  0
  189.1270  177.6930  142.2250 C   0  0  0  0  0  0  0  0  0  0  0  0
  190.4420  177.2080  142.0930 C   0  0  0  0  0  0  0  0  0  0  0  0
  191.8750  176.5390  138.8900 O   0  0  0  0  0  0  0  0  0  0  0  0
  187.7390  177.9900  138.2460 C   0  0  0  0  0  0  0  0  0  0  0  0
  191.0870  176.9180  140.9310 N   0  0  0  0  0  2  0  0  0  0  0  0
  188.3760  177.7230  137.0970 N   0  0  0  0  0  0  0  0  0  0  0  0
  188.6080  177.9510  143.4950 C   0  0  0  0  0  3  0  0  0  0  0  0
  188.6530  178.2950  148.5460 C   0  0  0  0  0  1  0  0  0  0  0  0
  189.4490  177.9130  147.3040 C   0  0  2  0  0  3  0  0  0  0  0  0
  186.1800  178.7820  146.0210 C   0  0  0  0  0  3  0  0  0  0  0  0
  190.6710  177.2500  144.5330 C   0  0  0  0  0  0  0  0  0  0  0  0
  188.5580  177.7490  139.3360 C   0  0  0  0  0  0  0  0  0  0  0  0
  190.8950  176.9230  139.5820 C   0  0  0  0  0  0  0  0  0  0  0  0
  188.6920  178.0390  145.9920 C   0  0  0  0  0  0  0  0  0  0  0  0
  189.3480  177.7480  144.6710 C   0  0  0  0  0  0  0  0  0  0  0  0
  185.1130  177.7870  145.7350 C   0  0  0  0  0  2  0  0  0  0  0  0
  184.0140  178.4460  144.9260 C   0  0  0  0  0  2  0  0  0  0  0  0
  184.5110  178.4140  142.7780 C   0  0  0  0  0  1  0  0  0  0  0  0
  184.5800  179.2200  143.9140 O   0  0  0  0  0  0  0  0  0  0  0  0
  186.3520  178.5360  138.2990 C   0  0  0  0  0  2  0  0  0  0  0  0
  185.4330  177.5980  137.6800 N   0  0  0  0  0  2  0  0  0  0  0  0
  184.1530  177.9230  138.1450 N   0  0  0  0  0  2  0  0  0  0  0  0
  184.3110  179.0480  139.0510 C   0  0  0  0  0  2  0  0  0  0  0  0
  182.9500  179.5280  139.5160 C   0  0  2  0  0  3  0  0  0  0  0  0
  180.9600  180.3670  138.7550 N   0  0  0  0  0  2  0  0  0  0  0  0
  180.5580  178.9800  138.9210 C   0  0  0  0  0  2  0  0  0  0  0  0
  181.8730  178.1070  139.8070 S   0  0  0  0  0  0  0  0  0  0  0  0
  182.3380  180.3590  138.4930 N   0  0  0  0  0  2  0  0  0  0  0  0
  1  7  1  0  0  0  0
  2  3  2  0  0  0  0
  3  8  1  0  0  0  0
  4 19  2  0  0  0  0
  6 10  1  0  0  0  0
  7  5  2  0  0  0  0
  8 21  2  0  0  0  0
  8 22  1  0  0  0  0
  9 20  1  0  0  0  0
 10 16  2  0  0  0  0
 11 10  1  0  0  0  0
 11  9  2  0  0  0  0
 12 22  2  0  0  0  0
 13 29  1  0  0  0  0
 13 21  1  0  0  0  0
 14 11  1  0  0  0  0
 15  3  1  0  0  0  0
 15 13  2  0  0  0  0
 16 24  1  0  0  0  0
 18  5  1  0  0  0  0
 18 17  1  1  0  0  0
 20 24  2  0  0  0  0
 20  1  1  0  0  0  0
 21  6  1  0  0  0  0
 22 14  1  0  0  0  0
 23  4  2  0  0  0  0
 23 18  1  0  0  0  0
 24 23  1  0  0  0  0
 25 19  1  0  0  0  0
 26 25  1  0  0  0  0
 27 28  1  0  0  0  0
 28 26  1  0  0  0  0
 30 31  1  0  0  0  0
 30 29  1  0  0  0  0
 31 32  1  0  0  0  0
 33 32  1  6  0  0  0
 33 36  1  0  0  0  0
 34 35  1  0  0  0  0
 35 36  1  0  0  0  0
 37 34  1  0  0  0  0
 37 33  1  0  0  0  0
M  END
>  <MODEL>
4

>  <REMARK>
 VINA RESULT:      -8.6      2.121      6.139
  Name = 
  8 active torsions:
  status: ('A' for Active; 'I' for Inactive)
    1  A    between atoms: C_5  and  C_30
    2  A    between atoms: C_8  and  C_16
    3  A    between atoms: C_8  and  C_29
    4  A    between atoms: N_11  and  C_30
    5  A    between atoms: N_11  and  N_34
    6  A    between atoms: C_16  and  O_33
    7  A    between atoms: C_20  and  C_22
    8  A    between atoms: C_20  and  N_34
                            x       y       z     vdW  Elec       q    Type
                         _______ _______ _______ _____ _____    ______ ____

>  <TORSDO>
F 8

$$$$
=
 OpenBabel10232411233D

 37 41  0  0  1  0  0  0  0  0999 V2000
  191.6070  177.0210  145.7980 C   0  0  0  0  0  2  0  0  0  0  0  0
  190.7810  176.9420  136.7640 O   0  0  0  0  0  0  0  0  0  0  0  0
  189.8610  177.2930  137.5510 C   0  0  0  0  0  0  0  0  0  0  0  0
  187.4180  178.4130  145.9850 C   0  0  0  0  0  0  0  0  0  0  0  0
  189.9400  176.5420  147.5390 C   0  0  0  0  0  3  0  0  0  0  0  0
  188.2490  177.9900  140.9360 S   0  0  0  0  0  0  0  0  0  0  0  0
  190.9720  176.1180  146.8080 C   0  0  0  0  0  3  0  0  0  0  0  0
  189.9540  177.3040  138.9450 C   0  0  0  0  0  0  0  0  0  0  0  0
  191.2660  177.0080  143.3640 C   0  0  0  0  0  3  0  0  0  0  0  0
  189.2420  177.6920  142.2610 C   0  0  0  0  0  0  0  0  0  0  0  0
  190.5620  177.2120  142.1740 C   0  0  0  0  0  0  0  0  0  0  0  0
  192.1030  176.5410  139.0210 O   0  0  0  0  0  0  0  0  0  0  0  0
  187.9850  177.9760  138.2380 C   0  0  0  0  0  0  0  0  0  0  0  0
  191.2460  176.9220  141.0340 N   0  0  0  0  0  2  0  0  0  0  0  0
  188.6610  177.7080  137.1100 N   0  0  0  0  0  0  0  0  0  0  0  0
  188.6800  177.9510  143.5130 C   0  0  0  0  0  3  0  0  0  0  0  0
  188.5560  178.3050  148.5620 C   0  0  0  0  0  1  0  0  0  0  0  0
  189.3950  177.9230  147.3470 C   0  0  2  0  0  3  0  0  0  0  0  0
  186.1660  178.7770  145.9540 C   0  0  0  0  0  3  0  0  0  0  0  0
  190.7100  177.2590  144.6200 C   0  0  0  0  0  0  0  0  0  0  0  0
  188.7690  177.7400  139.3540 C   0  0  0  0  0  0  0  0  0  0  0  0
  191.0990  176.9230  139.6790 C   0  0  0  0  0  0  0  0  0  0  0  0
  188.6810  178.0440  146.0110 C   0  0  0  0  0  0  0  0  0  0  0  0
  189.3810  177.7520  144.7130 C   0  0  0  0  0  0  0  0  0  0  0  0
  185.1130  177.7780  145.6360 C   0  0  0  0  0  2  0  0  0  0  0  0
  184.0870  178.4050  144.7150 C   0  0  0  0  0  2  0  0  0  0  0  0
  184.7920  178.2620  142.6310 C   0  0  0  0  0  1  0  0  0  0  0  0
  184.7360  179.1320  143.7180 O   0  0  0  0  0  0  0  0  0  0  0  0
  186.5950  178.5170  138.2430 C   0  0  0  0  0  2  0  0  0  0  0  0
  185.8790  178.0380  137.0750 N   0  0  0  0  0  2  0  0  0  0  0  0
  185.2420  176.8500  137.4530 N   0  0  0  0  0  2  0  0  0  0  0  0
  184.7500  176.2330  136.2340 C   0  0  0  0  0  2  0  0  0  0  0  0
  185.1680  174.7760  136.1890 C   0  0  2  0  0  3  0  0  0  0  0  0
  186.2560  173.1600  137.3920 N   0  0  0  0  0  2  0  0  0  0  0  0
  184.8900  172.7870  137.7200 C   0  0  0  0  0  2  0  0  0  0  0  0
  183.7700  173.7300  136.6560 S   0  0  0  0  0  0  0  0  0  0  0  0
  186.2470  174.5390  137.1340 N   0  0  0  0  0  2  0  0  0  0  0  0
  1  7  1  0  0  0  0
  2  3  2  0  0  0  0
  3  8  1  0  0  0  0
  4 23  2  0  0  0  0
  6 10  1  0  0  0  0
  7  5  2  0  0  0  0
  8 21  2  0  0  0  0
  8 22  1  0  0  0  0
  9 20  1  0  0  0  0
 10 16  2  0  0  0  0
 11 10  1  0  0  0  0
 11  9  2  0  0  0  0
 12 22  2  0  0  0  0
 13 29  1  0  0  0  0
 13 21  1  0  0  0  0
 14 11  1  0  0  0  0
 15  3  1  0  0  0  0
 15 13  2  0  0  0  0
 16 24  1  0  0  0  0
 18  5  1  0  0  0  0
 18 17  1  1  0  0  0
 19  4  2  0  0  0  0
 20 24  2  0  0  0  0
 20  1  1  0  0  0  0
 21  6  1  0  0  0  0
 22 14  1  0  0  0  0
 23 18  1  0  0  0  0
 24 23  1  0  0  0  0
 25 19  1  0  0  0  0
 26 25  1  0  0  0  0
 27 28  1  0  0  0  0
 28 26  1  0  0  0  0
 30 31  1  0  0  0  0
 30 29  1  0  0  0  0
 32 31  1  0  0  0  0
 33 32  1  1  0  0  0
 33 36  1  0  0  0  0
 33 37  1  0  0  0  0
 34 35  1  0  0  0  0
 36 35  1  0  0  0  0
 37 34  1  0  0  0  0
M  END
>  <MODEL>
5

>  <REMARK>
 VINA RESULT:      -8.6      2.513      5.805
  Name = 
  8 active torsions:
  status: ('A' for Active; 'I' for Inactive)
    1  A    between atoms: C_5  and  C_30
    2  A    between atoms: C_8  and  C_16
    3  A    between atoms: C_8  and  C_29
    4  A    between atoms: N_11  and  C_30
    5  A    between atoms: N_11  and  N_34
    6  A    between atoms: C_16  and  O_33
    7  A    between atoms: C_20  and  C_22
    8  A    between atoms: C_20  and  N_34
                            x       y       z     vdW  Elec       q    Type
                         _______ _______ _______ _____ _____    ______ ____

>  <TORSDO>
F 8

$$$$
=
 OpenBabel10232411233D

 37 41  0  0  1  0  0  0  0  0999 V2000
  188.3220  177.2770  146.3660 C   0  0  0  0  0  2  0  0  0  0  0  0
  180.3060  179.5400  142.7730 O   0  0  0  0  0  0  0  0  0  0  0  0
  181.3110  179.2020  142.0920 C   0  0  0  0  0  0  0  0  0  0  0  0
  189.8010  176.7010  142.2430 C   0  0  0  0  0  0  0  0  0  0  0  0
  190.5970  177.6600  145.5170 C   0  0  0  0  0  3  0  0  0  0  0  0
  184.9100  178.0820  141.5120 S   0  0  0  0  0  0  0  0  0  0  0  0
  189.6130  178.0340  146.3370 C   0  0  0  0  0  3  0  0  0  0  0  0
  182.5610  178.8610  142.6150 C   0  0  0  0  0  0  0  0  0  0  0  0
  186.2040  177.9010  145.2880 C   0  0  0  0  0  3  0  0  0  0  0  0
  185.8180  177.8800  142.9150 C   0  0  0  0  0  0  0  0  0  0  0  0
  185.3310  178.1080  144.2150 C   0  0  0  0  0  0  0  0  0  0  0  0
  181.9680  179.1640  144.7980 O   0  0  0  0  0  0  0  0  0  0  0  0
  182.5210  178.7520  140.4210 C   0  0  0  0  0  0  0  0  0  0  0  0
  184.0760  178.5110  144.5540 N   0  0  0  0  0  2  0  0  0  0  0  0
  181.2770  179.1330  140.7500 N   0  0  0  0  0  0  0  0  0  0  0  0
  187.1360  177.4590  142.7310 C   0  0  0  0  0  3  0  0  0  0  0  0
  191.7820  176.0090  144.1250 C   0  0  0  0  0  1  0  0  0  0  0  0
  190.4160  176.4880  144.6040 C   0  0  2  0  0  3  0  0  0  0  0  0
  190.1710  176.5990  140.9960 C   0  0  0  0  0  3  0  0  0  0  0  0
  187.5250  177.4850  145.1130 C   0  0  0  0  0  0  0  0  0  0  0  0
  183.3010  178.5780  141.5500 C   0  0  0  0  0  0  0  0  0  0  0  0
  182.8810  178.8420  143.9910 C   0  0  0  0  0  0  0  0  0  0  0  0
  189.4240  176.8080  143.4980 C   0  0  0  0  0  0  0  0  0  0  0  0
  188.0180  177.2450  143.8020 C   0  0  0  0  0  0  0  0  0  0  0  0
  190.4010  177.8250  140.1890 C   0  0  0  0  0  2  0  0  0  0  0  0
  189.5850  177.7510  138.9160 C   0  0  0  0  0  2  0  0  0  0  0  0
  188.9760  179.1800  137.3510 C   0  0  0  0  0  1  0  0  0  0  0  0
  188.9070  178.9550  138.7250 O   0  0  0  0  0  0  0  0  0  0  0  0
  182.9480  178.4980  139.0150 C   0  0  0  0  0  2  0  0  0  0  0  0
  182.7470  177.0980  138.6870 N   0  0  0  0  0  2  0  0  0  0  0  0
  183.2860  176.9020  137.4110 N   0  0  0  0  0  2  0  0  0  0  0  0
  184.7180  177.1140  137.5250 C   0  0  0  0  0  2  0  0  0  0  0  0
  185.4610  176.0260  136.7740 C   0  0  2  0  0  3  0  0  0  0  0  0
  187.3070  174.6760  136.8840 N   0  0  0  0  0  2  0  0  0  0  0  0
  186.3150  173.7200  137.3460 C   0  0  0  0  0  2  0  0  0  0  0  0
  184.6720  174.4300  137.0830 S   0  0  0  0  0  0  0  0  0  0  0  0
  186.8360  175.9490  137.2380 N   0  0  0  0  0  2  0  0  0  0  0  0
  3  8  1  0  0  0  0
  3  2  2  0  0  0  0
  4 23  2  0  0  0  0
  5  7  2  0  0  0  0
  6 21  1  0  0  0  0
  6 10  1  0  0  0  0
  7  1  1  0  0  0  0
  8 22  1  0  0  0  0
 10 11  1  0  0  0  0
 11 14  1  0  0  0  0
 11  9  2  0  0  0  0
 13 15  2  0  0  0  0
 13 21  1  0  0  0  0
 15  3  1  0  0  0  0
 16 10  2  0  0  0  0
 16 24  1  0  0  0  0
 18 17  1  6  0  0  0
 18  5  1  0  0  0  0
 19  4  2  0  0  0  0
 20  9  1  0  0  0  0
 20  1  1  0  0  0  0
 21  8  2  0  0  0  0
 22 14  1  0  0  0  0
 22 12  2  0  0  0  0
 23 24  1  0  0  0  0
 23 18  1  0  0  0  0
 24 20  2  0  0  0  0
 25 19  1  0  0  0  0
 26 25  1  0  0  0  0
 27 28  1  0  0  0  0
 28 26  1  0  0  0  0
 29 13  1  0  0  0  0
 30 29  1  0  0  0  0
 31 32  1  0  0  0  0
 31 30  1  0  0  0  0
 33 36  1  0  0  0  0
 33 37  1  0  0  0  0
 33 32  1  1  0  0  0
 34 37  1  0  0  0  0
 34 35  1  0  0  0  0
 36 35  1  0  0  0  0
M  END
>  <MODEL>
6

>  <REMARK>
 VINA RESULT:      -8.1      1.887      2.368
  Name = 
  8 active torsions:
  status: ('A' for Active; 'I' for Inactive)
    1  A    between atoms: C_5  and  C_30
    2  A    between atoms: C_8  and  C_16
    3  A    between atoms: C_8  and  C_29
    4  A    between atoms: N_11  and  C_30
    5  A    between atoms: N_11  and  N_34
    6  A    between atoms: C_16  and  O_33
    7  A    between atoms: C_20  and  C_22
    8  A    between atoms: C_20  and  N_34
                            x       y       z     vdW  Elec       q    Type
                         _______ _______ _______ _____ _____    ______ ____

>  <TORSDO>
F 8

$$$$
=
 OpenBabel10232411233D

 37 41  0  0  1  0  0  0  0  0999 V2000
  191.5920  177.1820  145.2390 C   0  0  0  0  0  2  0  0  0  0  0  0
  188.3940  177.6760  136.7630 O   0  0  0  0  0  0  0  0  0  0  0  0
  187.7100  177.9370  137.7890 C   0  0  0  0  0  0  0  0  0  0  0  0
  187.5760  178.3920  146.6290 C   0  0  0  0  0  0  0  0  0  0  0  0
  190.4580  176.5220  147.3170 C   0  0  0  0  0  3  0  0  0  0  0  0
  187.0420  178.3410  141.5220 S   0  0  0  0  0  0  0  0  0  0  0  0
  191.2670  176.1890  146.3100 C   0  0  0  0  0  3  0  0  0  0  0  0
  188.1700  177.8580  139.1070 C   0  0  0  0  0  0  0  0  0  0  0  0
  190.6160  177.3190  142.9870 C   0  0  0  0  0  3  0  0  0  0  0  0
  188.3580  177.9940  142.5120 C   0  0  0  0  0  0  0  0  0  0  0  0
  189.6160  177.5740  142.0440 C   0  0  0  0  0  0  0  0  0  0  0  0
  190.2770  177.1770  138.5550 O   0  0  0  0  0  0  0  0  0  0  0  0
  186.0700  178.4970  138.9960 C   0  0  0  0  0  0  0  0  0  0  0  0
  189.9790  177.3880  140.7450 N   0  0  0  0  0  2  0  0  0  0  0  0
  186.4270  178.3330  137.7130 N   0  0  0  0  0  0  0  0  0  0  0  0
  188.1440  178.1460  143.8840 C   0  0  0  0  0  3  0  0  0  0  0  0
  189.3600  178.1560  148.7980 C   0  0  0  0  0  1  0  0  0  0  0  0
  189.8530  177.8900  147.3800 C   0  0  2  0  0  3  0  0  0  0  0  0
  186.3540  178.7070  146.9570 C   0  0  0  0  0  3  0  0  0  0  0  0
  190.4090  177.4630  144.3600 C   0  0  0  0  0  0  0  0  0  0  0  0
  187.1270  178.2190  139.8450 C   0  0  0  0  0  0  0  0  0  0  0  0
  189.4760  177.4740  139.4820 C   0  0  0  0  0  0  0  0  0  0  0  0
  188.8070  178.0720  146.2930 C   0  0  0  0  0  0  0  0  0  0  0  0
  189.1430  177.8960  144.8370 C   0  0  0  0  0  0  0  0  0  0  0  0
  185.2740  177.6910  146.8530 C   0  0  0  0  0  2  0  0  0  0  0  0
  184.0380  178.3280  146.2530 C   0  0  0  0  0  2  0  0  0  0  0  0
  183.4650  178.9880  144.2280 C   0  0  0  0  0  1  0  0  0  0  0  0
  184.4120  179.1990  145.2290 O   0  0  0  0  0  0  0  0  0  0  0  0
  184.7220  178.9810  139.4090 C   0  0  0  0  0  2  0  0  0  0  0  0
  184.4690  180.2850  138.8220 N   0  0  0  0  0  2  0  0  0  0  0  0
  183.1650  180.6430  139.1840 N   0  0  0  0  0  2  0  0  0  0  0  0
  182.2720  179.7620  138.4510 C   0  0  0  0  0  2  0  0  0  0  0  0
  180.9590  180.4700  138.1800 C   0  0  2  0  0  3  0  0  0  0  0  0
  180.0150  182.5500  138.0150 N   0  0  0  0  0  2  0  0  0  0  0  0
  180.1970  182.2840  136.5980 C   0  0  0  0  0  2  0  0  0  0  0  0
  180.6700  180.5490  136.3980 S   0  0  0  0  0  0  0  0  0  0  0  0
  181.0110  181.8290  138.6920 N   0  0  0  0  0  2  0  0  0  0  0  0
  1  7  1  0  0  0  0
  2  3  2  0  0  0  0
  3  8  1  0  0  0  0
  4 19  2  0  0  0  0
  5 18  1  0  0  0  0
  6 10  1  0  0  0  0
  7  5  2  0  0  0  0
  8 22  1  0  0  0  0
  8 21  2  0  0  0  0
  9 20  1  0  0  0  0
 10 16  2  0  0  0  0
 11 10  1  0  0  0  0
 11  9  2  0  0  0  0
 12 22  2  0  0  0  0
 13 29  1  0  0  0  0
 13 21  1  0  0  0  0
 14 11  1  0  0  0  0
 15  3  1  0  0  0  0
 15 13  2  0  0  0  0
 16 24  1  0  0  0  0
 18 17  1  1  0  0  0
 20 24  2  0  0  0  0
 20  1  1  0  0  0  0
 21  6  1  0  0  0  0
 22 14  1  0  0  0  0
 23  4  2  0  0  0  0
 23 18  1  0  0  0  0
 24 23  1  0  0  0  0
 25 19  1  0  0  0  0
 26 25  1  0  0  0  0
 27 28  1  0  0  0  0
 28 26  1  0  0  0  0
 30 31  1  0  0  0  0
 30 29  1  0  0  0  0
 32 31  1  0  0  0  0
 33 32  1  6  0  0  0
 33 37  1  0  0  0  0
 34 37  1  0  0  0  0
 35 34  1  0  0  0  0
 36 35  1  0  0  0  0
 36 33  1  0  0  0  0
M  END
>  <MODEL>
7

>  <REMARK>
 VINA RESULT:      -7.9      2.788      6.058
  Name = 
  8 active torsions:
  status: ('A' for Active; 'I' for Inactive)
    1  A    between atoms: C_5  and  C_30
    2  A    between atoms: C_8  and  C_16
    3  A    between atoms: C_8  and  C_29
    4  A    between atoms: N_11  and  C_30
    5  A    between atoms: N_11  and  N_34
    6  A    between atoms: C_16  and  O_33
    7  A    between atoms: C_20  and  C_22
    8  A    between atoms: C_20  and  N_34
                            x       y       z     vdW  Elec       q    Type
                         _______ _______ _______ _____ _____    ______ ____

>  <TORSDO>
F 8

$$$$
=
 OpenBabel10232411233D

 37 41  0  0  1  0  0  0  0  0999 V2000
  189.7310  177.8100  137.5300 C   0  0  0  0  0  2  0  0  0  0  0  0
  181.4360  179.3440  140.8680 O   0  0  0  0  0  0  0  0  0  0  0  0
  182.4480  179.1080  141.5810 C   0  0  0  0  0  0  0  0  0  0  0  0
  191.1090  177.2800  141.6940 C   0  0  0  0  0  0  0  0  0  0  0  0
  191.5110  176.3250  138.3480 C   0  0  0  0  0  3  0  0  0  0  0  0
  186.1170  178.3330  142.2760 S   0  0  0  0  0  0  0  0  0  0  0  0
  190.5080  176.5320  137.4920 C   0  0  0  0  0  3  0  0  0  0  0  0
  183.7340  178.8560  141.0970 C   0  0  0  0  0  0  0  0  0  0  0  0
  187.5210  178.1820  138.5380 C   0  0  0  0  0  3  0  0  0  0  0  0
  187.0770  178.1930  140.9010 C   0  0  0  0  0  0  0  0  0  0  0  0
  186.6040  178.3290  139.5830 C   0  0  0  0  0  0  0  0  0  0  0  0
  183.1720  179.0480  138.8930 O   0  0  0  0  0  0  0  0  0  0  0  0
  183.6460  178.7930  143.2910 C   0  0  0  0  0  0  0  0  0  0  0  0
  185.3250  178.5990  139.2040 N   0  0  0  0  0  2  0  0  0  0  0  0
  182.3870  179.0770  142.9240 N   0  0  0  0  0  0  0  0  0  0  0  0
  188.4280  177.9210  141.1280 C   0  0  0  0  0  3  0  0  0  0  0  0
  193.2680  177.0970  139.8920 C   0  0  0  0  0  1  0  0  0  0  0  0
  191.8630  177.3650  139.3650 C   0  0  2  0  0  3  0  0  0  0  0  0
  191.4230  177.0930  142.9460 C   0  0  0  0  0  3  0  0  0  0  0  0
  188.8710  177.9050  138.7550 C   0  0  0  0  0  0  0  0  0  0  0  0
  184.4690  178.6660  142.1860 C   0  0  0  0  0  0  0  0  0  0  0  0
  184.0890  178.8310  139.7290 C   0  0  0  0  0  0  0  0  0  0  0  0
  190.7860  177.4660  140.4330 C   0  0  0  0  0  0  0  0  0  0  0  0
  189.3560  177.7760  140.0840 C   0  0  0  0  0  0  0  0  0  0  0  0
  191.0080  175.8440  143.6360 C   0  0  0  0  0  2  0  0  0  0  0  0
  191.9920  175.5290  144.7430 C   0  0  0  0  0  2  0  0  0  0  0  0
  192.1110  175.8200  146.9260 C   0  0  0  0  0  1  0  0  0  0  0  0
  191.9120  176.5100  145.7310 O   0  0  0  0  0  0  0  0  0  0  0  0
  184.0750  178.6990  144.7160 C   0  0  0  0  0  2  0  0  0  0  0  0
  184.9030  179.8430  145.0540 N   0  0  0  0  0  2  0  0  0  0  0  0
  185.6060  179.5010  146.2150 N   0  0  0  0  0  2  0  0  0  0  0  0
  185.3420  178.0940  146.4640 C   0  0  0  0  0  2  0  0  0  0  0  0
  186.6510  177.3500  146.6490 C   0  0  2  0  0  3  0  0  0  0  0  0
  188.7970  177.2240  145.8610 N   0  0  0  0  0  2  0  0  0  0  0  0
  189.0520  178.0230  147.0490 C   0  0  0  0  0  2  0  0  0  0  0  0
  187.5480  178.0430  148.0560 S   0  0  0  0  0  0  0  0  0  0  0  0
  187.4800  177.4990  145.4650 N   0  0  0  0  0  2  0  0  0  0  0  0
  1 20  1  0  0  0  0
  2  3  2  0  0  0  0
  3 15  1  0  0  0  0
  4 19  2  0  0  0  0
  5 18  1  0  0  0  0
  7  1  1  0  0  0  0
  7  5  2  0  0  0  0
  8  3  1  0  0  0  0
  8 21  2  0  0  0  0
  9 20  2  0  0  0  0
  9 11  1  0  0  0  0
 10 16  1  0  0  0  0
 10  6  1  0  0  0  0
 11 10  2  0  0  0  0
 12 22  2  0  0  0  0
 13 29  1  0  0  0  0
 14 11  1  0  0  0  0
 14 22  1  0  0  0  0
 15 13  2  0  0  0  0
 18 17  1  1  0  0  0
 18 23  1  0  0  0  0
 19 25  1  0  0  0  0
 20 24  1  0  0  0  0
 21  6  1  0  0  0  0
 21 13  1  0  0  0  0
 22  8  1  0  0  0  0
 23  4  2  0  0  0  0
 24 23  1  0  0  0  0
 24 16  2  0  0  0  0
 25 26  1  0  0  0  0
 26 28  1  0  0  0  0
 28 27  1  0  0  0  0
 29 30  1  0  0  0  0
 30 31  1  0  0  0  0
 31 32  1  0  0  0  0
 33 32  1  6  0  0  0
 33 36  1  0  0  0  0
 34 35  1  0  0  0  0
 35 36  1  0  0  0  0
 37 34  1  0  0  0  0
 37 33  1  0  0  0  0
M  END
>  <MODEL>
8

>  <REMARK>
 VINA RESULT:      -7.9      2.185      6.673
  Name = 
  8 active torsions:
  status: ('A' for Active; 'I' for Inactive)
    1  A    between atoms: C_5  and  C_30
    2  A    between atoms: C_8  and  C_16
    3  A    between atoms: C_8  and  C_29
    4  A    between atoms: N_11  and  C_30
    5  A    between atoms: N_11  and  N_34
    6  A    between atoms: C_16  and  O_33
    7  A    between atoms: C_20  and  C_22
    8  A    between atoms: C_20  and  N_34
                            x       y       z     vdW  Elec       q    Type
                         _______ _______ _______ _____ _____    ______ ____

>  <TORSDO>
F 8

$$$$
=
 OpenBabel10232411233D

 37 41  0  0  1  0  0  0  0  0999 V2000
  191.9950  176.6700  142.0330 C   0  0  0  0  0  2  0  0  0  0  0  0
  185.0330  178.7260  147.4740 O   0  0  0  0  0  0  0  0  0  0  0  0
  184.9480  178.6570  146.2190 C   0  0  0  0  0  0  0  0  0  0  0  0
  189.2330  177.1590  138.6190 C   0  0  0  0  0  0  0  0  0  0  0  0
  192.5250  177.4810  139.7730 C   0  0  0  0  0  3  0  0  0  0  0  0
  186.2150  178.1010  142.6650 S   0  0  0  0  0  0  0  0  0  0  0  0
  192.7440  177.5570  141.0880 C   0  0  0  0  0  3  0  0  0  0  0  0
  186.0030  178.3560  145.3540 C   0  0  0  0  0  0  0  0  0  0  0  0
  190.0500  177.2660  143.4120 C   0  0  0  0  0  3  0  0  0  0  0  0
  187.8480  177.7090  142.5550 C   0  0  0  0  0  0  0  0  0  0  0  0
  188.7140  177.5970  143.6580 C   0  0  0  0  0  0  0  0  0  0  0  0
  187.5650  178.1170  147.0010 O   0  0  0  0  0  0  0  0  0  0  0  0
  184.1220  178.7140  144.2760 C   0  0  0  0  0  0  0  0  0  0  0  0
  188.3890  177.7740  144.9670 N   0  0  0  0  0  2  0  0  0  0  0  0
  183.7920  178.8720  145.5660 N   0  0  0  0  0  0  0  0  0  0  0  0
  188.3350  177.4880  141.2650 C   0  0  0  0  0  3  0  0  0  0  0  0
  191.7730  176.3100  137.7410 C   0  0  0  0  0  1  0  0  0  0  0  0
  191.5170  176.5170  139.2290 C   0  0  2  0  0  3  0  0  0  0  0  0
  188.3660  177.3670  137.6670 C   0  0  0  0  0  3  0  0  0  0  0  0
  190.5470  177.0490  142.1250 C   0  0  0  0  0  0  0  0  0  0  0  0
  185.4620  178.3920  144.1420 C   0  0  0  0  0  0  0  0  0  0  0  0
  187.3270  178.0800  145.7640 C   0  0  0  0  0  0  0  0  0  0  0  0
  190.1040  176.9520  139.5830 C   0  0  0  0  0  0  0  0  0  0  0  0
  189.6740  177.1520  141.0100 C   0  0  0  0  0  0  0  0  0  0  0  0
  187.9600  178.7550  137.3270 C   0  0  0  0  0  2  0  0  0  0  0  0
  186.4490  178.8380  137.2660 C   0  0  0  0  0  2  0  0  0  0  0  0
  184.7140  178.0930  138.4060 C   0  0  0  0  0  1  0  0  0  0  0  0
  185.9250  178.7670  138.5570 O   0  0  0  0  0  0  0  0  0  0  0  0
  183.1330  178.8160  143.1650 C   0  0  0  0  0  2  0  0  0  0  0  0
  181.7850  178.7880  143.7060 N   0  0  0  0  0  2  0  0  0  0  0  0
  181.0060  179.6140  142.8870 N   0  0  0  0  0  2  0  0  0  0  0  0
  180.1230  178.7410  142.1340 C   0  0  0  0  0  2  0  0  0  0  0  0
  179.9820  179.2530  140.7130 C   0  0  2  0  0  3  0  0  0  0  0  0
  180.5780  180.9840  139.3370 N   0  0  0  0  0  2  0  0  0  0  0  0
  181.5860  180.0230  138.9210 C   0  0  0  0  0  2  0  0  0  0  0  0
  181.1780  178.4160  139.6470 S   0  0  0  0  0  0  0  0  0  0  0  0
  180.2550  180.6790  140.6690 N   0  0  0  0  0  2  0  0  0  0  0  0
  1 20  1  0  0  0  0
  3  2  2  0  0  0  0
  4 23  2  0  0  0  0
  5  7  2  0  0  0  0
  6 21  1  0  0  0  0
  7  1  1  0  0  0  0
  8 22  1  0  0  0  0
  8  3  1  0  0  0  0
  9 11  1  0  0  0  0
 10  6  1  0  0  0  0
 10 11  2  0  0  0  0
 11 14  1  0  0  0  0
 13 15  2  0  0  0  0
 14 22  1  0  0  0  0
 15  3  1  0  0  0  0
 16 10  1  0  0  0  0
 18 17  1  6  0  0  0
 18 23  1  0  0  0  0
 18  5  1  0  0  0  0
 19  4  2  0  0  0  0
 20  9  2  0  0  0  0
 21 13  1  0  0  0  0
 21  8  2  0  0  0  0
 22 12  2  0  0  0  0
 23 24  1  0  0  0  0
 24 16  2  0  0  0  0
 24 20  1  0  0  0  0
 25 19  1  0  0  0  0
 26 25  1  0  0  0  0
 26 28  1  0  0  0  0
 27 28  1  0  0  0  0
 29 30  1  0  0  0  0
 29 13  1  0  0  0  0
 31 30  1  0  0  0  0
 32 31  1  0  0  0  0
 33 32  1  1  0  0  0
 34 37  1  0  0  0  0
 35 34  1  0  0  0  0
 35 36  1  0  0  0  0
 36 33  1  0  0  0  0
 37 33  1  0  0  0  0
M  END
>  <MODEL>
9

>  <REMARK>
 VINA RESULT:      -7.7      3.444      6.303
  Name = 
  8 active torsions:
  status: ('A' for Active; 'I' for Inactive)
    1  A    between atoms: C_5  and  C_30
    2  A    between atoms: C_8  and  C_16
    3  A    between atoms: C_8  and  C_29
    4  A    between atoms: N_11  and  C_30
    5  A    between atoms: N_11  and  N_34
    6  A    between atoms: C_16  and  O_33
    7  A    between atoms: C_20  and  C_22
    8  A    between atoms: C_20  and  N_34
                            x       y       z     vdW  Elec       q    Type
                         _______ _______ _______ _____ _____    ______ ____

>  <TORSDO>
F 8

$$$$
