=
 OpenBabel10232408183D

 32 38  0  0  1  0  0  0  0  0999 V2000
  188.2960  177.7840  143.0720 C   0  0  0  0  0  0  0  0  0  0  0  0
  188.9450  177.9290  140.2980 C   0  0  0  0  0  0  0  0  0  0  0  0
  184.1010  178.9880  139.5050 C   0  0  0  0  0  2  0  0  0  0  0  0
  182.7960  178.8590  142.9100 N   0  0  0  0  0  2  0  0  0  0  0  0
  180.2100  179.4730  142.2350 N   0  0  0  0  0  0  0  0  0  0  0  0
  185.3070  178.6460  140.3070 C   0  0  0  0  0  0  0  0  0  0  0  0
  189.6120  177.6240  142.6120 O   0  0  0  0  0  0  0  0  0  0  0  0
  189.2670  178.1630  139.0640 N   0  0  0  0  0  0  0  0  0  0  0  0
  183.0570  179.0830  140.5320 N   0  0  0  0  0  0  0  0  0  0  0  0
  187.2720  178.0500  142.1430 C   0  0  0  0  0  0  0  0  0  0  0  0
  180.2290  179.3110  143.5870 C   0  0  0  0  0  2  0  0  0  0  0  0
  181.4000  179.1470  142.9180 C   0  0  0  0  0  0  0  0  0  0  0  0
  186.6660  177.9390  144.8690 C   0  0  0  0  0  3  0  0  0  0  0  0
  189.9340  177.3210  141.2530 C   0  0  0  0  0  2  0  0  0  0  0  0
  185.9470  178.2660  142.5900 C   0  0  0  0  0  0  0  0  0  0  0  0
  187.9950  177.7260  144.4560 C   0  0  0  0  0  0  0  0  0  0  0  0
  186.5760  178.4540  139.8660 N   0  0  0  0  0  0  0  0  0  0  0  0
  185.6510  178.2060  143.9500 C   0  0  0  0  0  3  0  0  0  0  0  0
  187.5660  178.1530  140.7600 C   0  0  0  0  0  0  0  0  0  0  0  0
  184.9790  178.5570  141.6280 C   0  0  0  0  0  0  0  0  0  0  0  0
  183.5620  178.8410  141.7040 C   0  0  0  0  0  0  0  0  0  0  0  0
  189.0250  177.4420  145.4950 C   0  0  0  0  0  0  0  0  0  0  0  0
  190.3010  176.9630  145.1530 C   0  0  0  0  0  3  0  0  0  0  0  0
  190.9350  176.8790  147.4870 C   0  0  0  0  0  3  0  0  0  0  0  0
  188.7210  177.6240  146.8560 C   0  0  0  0  0  3  0  0  0  0  0  0
  191.2510  176.6860  146.1410 C   0  0  0  0  0  3  0  0  0  0  0  0
  189.6700  177.3480  147.8460 C   0  0  0  0  0  3  0  0  0  0  0  0
  190.5360  177.9180  138.5900 O   0  0  0  0  0  0  0  0  0  0  0  0
  190.7130  174.5740  137.3820 C   0  0  0  0  0  1  0  0  0  0  0  0
  191.0270  175.6340  138.3220 N   0  0  0  0  0  0  0  0  0  0  0  0
  190.7510  176.9010  137.6290 C   0  0  2  0  0  3  0  0  0  0  0  0
  192.1200  176.4150  137.7270 C   0  0  0  0  0  2  0  0  0  0  0  0
  1 16  1  0  0  0  0
  2 19  1  0  0  0  0
  2 14  1  0  0  0  0
  3  6  1  0  0  0  0
  3  9  1  0  0  0  0
  4 12  1  0  0  0  0
  5 12  2  0  0  0  0
  5 11  1  0  0  0  0
  6 20  2  0  0  0  0
  7  1  1  0  0  0  0
  8  2  2  0  0  0  0
  9 21  2  0  0  0  0
 10 15  1  0  0  0  0
 10  1  2  0  0  0  0
 12 11  1  0  0  0  0
 14  7  1  0  0  0  0
 15 18  2  0  0  0  0
 16 13  2  0  0  0  0
 16 22  1  0  0  0  0
 17  6  1  0  0  0  0
 17 19  2  0  0  0  0
 18 13  1  0  0  0  0
 19 10  1  0  0  0  0
 20 21  1  0  0  0  0
 20 15  1  0  0  0  0
 21  4  1  0  0  0  0
 22 25  1  0  0  0  0
 23 22  2  0  0  0  0
 23 26  1  0  0  0  0
 24 27  1  0  0  0  0
 25 27  2  0  0  0  0
 26 24  2  0  0  0  0
 28  8  1  0  0  0  0
 29 30  1  0  0  0  0
 31 32  1  0  0  0  0
 31 30  1  0  0  0  0
 31 28  1  1  0  0  0
 32 30  1  0  0  0  0
M  END
>  <MODEL>
1

>  <REMARK>
 VINA RESULT:     -10.7      0.000      0.000
  Name = 
  3 active torsions:
  status: ('A' for Active; 'I' for Inactive)
    1  A    between atoms: C_3  and  C_21
    2  A    between atoms: O_8  and  N_11
    3  A    between atoms: O_8  and  C_28
                            x       y       z     vdW  Elec       q    Type
                         _______ _______ _______ _____ _____    ______ ____

>  <TORSDO>
F 3

$$$$
=
 OpenBabel10232408183D

 32 38  0  0  1  0  0  0  0  0999 V2000
  187.7330  177.9060  142.4050 C   0  0  0  0  0  0  0  0  0  0  0  0
  185.7820  178.9210  140.5880 C   0  0  0  0  0  0  0  0  0  0  0  0
  188.9830  177.7130  136.9110 C   0  0  0  0  0  2  0  0  0  0  0  0
  191.7740  176.3650  138.8380 N   0  0  0  0  0  2  0  0  0  0  0  0
  193.3420  175.7720  136.6670 N   0  0  0  0  0  0  0  0  0  0  0  0
  188.5110  177.8510  138.3160 C   0  0  0  0  0  0  0  0  0  0  0  0
  186.4880  178.3790  142.8460 O   0  0  0  0  0  0  0  0  0  0  0  0
  184.8350  179.2220  139.7550 N   0  0  0  0  0  0  0  0  0  0  0  0
  190.3100  177.1100  137.0840 N   0  0  0  0  0  0  0  0  0  0  0  0
  188.0180  177.9070  141.0260 C   0  0  0  0  0  0  0  0  0  0  0  0
  194.0500  175.3980  137.7700 C   0  0  0  0  0  2  0  0  0  0  0  0
  192.8190  175.9400  137.9660 C   0  0  0  0  0  0  0  0  0  0  0  0
  189.8990  176.8840  142.8220 C   0  0  0  0  0  3  0  0  0  0  0  0
  185.6450  179.2200  142.0540 C   0  0  0  0  0  2  0  0  0  0  0  0
  189.2460  177.3870  140.5550 C   0  0  0  0  0  0  0  0  0  0  0  0
  188.6840  177.3890  143.3210 C   0  0  0  0  0  0  0  0  0  0  0  0
  187.3240  178.3410  138.7530 N   0  0  0  0  0  0  0  0  0  0  0  0
  190.1810  176.8810  141.4560 C   0  0  0  0  0  3  0  0  0  0  0  0
  187.0600  178.3820  140.0950 C   0  0  0  0  0  0  0  0  0  0  0  0
  189.4620  177.3840  139.1760 C   0  0  0  0  0  0  0  0  0  0  0  0
  190.5590  176.9340  138.3470 C   0  0  0  0  0  0  0  0  0  0  0  0
  188.4540  177.3630  144.7930 C   0  0  0  0  0  0  0  0  0  0  0  0
  187.1790  177.5800  145.3420 C   0  0  0  0  0  3  0  0  0  0  0  0
  188.0630  177.3440  147.5830 C   0  0  0  0  0  3  0  0  0  0  0  0
  189.5330  177.1460  145.6700 C   0  0  0  0  0  3  0  0  0  0  0  0
  186.9830  177.5670  146.7260 C   0  0  0  0  0  3  0  0  0  0  0  0
  189.3390  177.1340  147.0550 C   0  0  0  0  0  3  0  0  0  0  0  0
  183.6480  179.7730  140.1800 O   0  0  0  0  0  0  0  0  0  0  0  0
  180.2480  178.7850  140.5500 C   0  0  0  0  0  1  0  0  0  0  0  0
  181.6350  178.8480  140.9690 N   0  0  0  0  0  0  0  0  0  0  0  0
  182.4160  179.2020  139.7760 C   0  0  2  0  0  3  0  0  0  0  0  0
  182.3520  177.8140  140.2120 C   0  0  0  0  0  2  0  0  0  0  0  0
  1  7  1  0  0  0  0
  1 16  1  0  0  0  0
  2 14  1  0  0  0  0
  3  9  1  0  0  0  0
  3  6  1  0  0  0  0
  5 11  1  0  0  0  0
  5 12  2  0  0  0  0
  6 17  1  0  0  0  0
  6 20  2  0  0  0  0
  8 28  1  0  0  0  0
  8  2  2  0  0  0  0
  9 21  2  0  0  0  0
 10  1  2  0  0  0  0
 11 12  1  0  0  0  0
 12  4  1  0  0  0  0
 13 16  2  0  0  0  0
 14  7  1  0  0  0  0
 15 10  1  0  0  0  0
 15 18  2  0  0  0  0
 16 22  1  0  0  0  0
 17 19  2  0  0  0  0
 18 13  1  0  0  0  0
 19  2  1  0  0  0  0
 19 10  1  0  0  0  0
 20 15  1  0  0  0  0
 21  4  1  0  0  0  0
 21 20  1  0  0  0  0
 22 23  2  0  0  0  0
 22 25  1  0  0  0  0
 23 26  1  0  0  0  0
 25 27  2  0  0  0  0
 26 24  2  0  0  0  0
 27 24  1  0  0  0  0
 29 30  1  0  0  0  0
 31 28  1  1  0  0  0
 31 32  1  0  0  0  0
 31 30  1  0  0  0  0
 32 30  1  0  0  0  0
M  END
>  <MODEL>
2

>  <REMARK>
 VINA RESULT:     -10.3      1.951      7.040
  Name = 
  3 active torsions:
  status: ('A' for Active; 'I' for Inactive)
    1  A    between atoms: C_3  and  C_21
    2  A    between atoms: O_8  and  N_11
    3  A    between atoms: O_8  and  C_28
                            x       y       z     vdW  Elec       q    Type
                         _______ _______ _______ _____ _____    ______ ____

>  <TORSDO>
F 3

$$$$
=
 OpenBabel10232408183D

 32 38  0  0  1  0  0  0  0  0999 V2000
  186.8240  178.3380  141.6770 C   0  0  0  0  0  0  0  0  0  0  0  0
  184.5320  178.9360  143.2670 C   0  0  0  0  0  0  0  0  0  0  0  0
  187.2860  177.5920  147.2450 C   0  0  0  0  0  2  0  0  0  0  0  0
  190.4230  176.6580  145.6330 N   0  0  0  0  0  2  0  0  0  0  0  0
  191.7340  175.9980  147.9500 N   0  0  0  0  0  0  0  0  0  0  0  0
  186.9970  177.8230  145.8040 C   0  0  0  0  0  0  0  0  0  0  0  0
  185.6490  178.8540  141.1120 O   0  0  0  0  0  0  0  0  0  0  0  0
  183.5560  179.3650  144.0030 N   0  0  0  0  0  0  0  0  0  0  0  0
  188.6740  177.1160  147.2150 N   0  0  0  0  0  0  0  0  0  0  0  0
  186.8860  178.1350  143.0690 C   0  0  0  0  0  0  0  0  0  0  0  0
  192.6160  175.7870  146.9330 C   0  0  0  0  0  2  0  0  0  0  0  0
  191.3770  176.2420  146.6080 C   0  0  0  0  0  0  0  0  0  0  0  0
  189.1300  177.5900  141.4960 C   0  0  0  0  0  3  0  0  0  0  0  0
  184.3820  178.8210  141.7750 C   0  0  0  0  0  2  0  0  0  0  0  0
  188.0790  177.6640  143.6660 C   0  0  0  0  0  0  0  0  0  0  0  0
  187.9600  178.0630  140.8740 C   0  0  0  0  0  0  0  0  0  0  0  0
  185.8500  178.2870  145.2460 N   0  0  0  0  0  0  0  0  0  0  0  0
  189.1930  177.3920  142.8750 C   0  0  0  0  0  3  0  0  0  0  0  0
  185.7720  178.4450  143.8890 C   0  0  0  0  0  0  0  0  0  0  0  0
  188.0930  177.5110  145.0520 C   0  0  0  0  0  0  0  0  0  0  0  0
  189.1060  177.0780  145.9910 C   0  0  0  0  0  0  0  0  0  0  0  0
  187.9660  178.2470  139.3950 C   0  0  0  0  0  0  0  0  0  0  0  0
  186.8130  178.0280  138.6220 C   0  0  0  0  0  3  0  0  0  0  0  0
  188.0230  178.5680  136.5970 C   0  0  0  0  0  3  0  0  0  0  0  0
  189.1520  178.6200  138.7370 C   0  0  0  0  0  3  0  0  0  0  0  0
  186.8390  178.1910  137.2340 C   0  0  0  0  0  3  0  0  0  0  0  0
  189.1800  178.7830  137.3480 C   0  0  0  0  0  3  0  0  0  0  0  0
  182.3660  179.7860  143.4530 O   0  0  0  0  0  0  0  0  0  0  0  0
  179.9820  177.7950  141.7140 C   0  0  0  0  0  1  0  0  0  0  0  0
  180.6830  179.0340  141.9950 N   0  0  0  0  0  0  0  0  0  0  0  0
  181.2840  178.8810  143.3260 C   0  0  2  0  0  3  0  0  0  0  0  0
  180.0400  179.6230  143.1770 C   0  0  0  0  0  2  0  0  0  0  0  0
  1 10  1  0  0  0  0
  2 19  1  0  0  0  0
  2  8  2  0  0  0  0
  4 21  1  0  0  0  0
  4 12  1  0  0  0  0
  6  3  1  0  0  0  0
  7  1  1  0  0  0  0
  7 14  1  0  0  0  0
  9  3  1  0  0  0  0
 10 15  2  0  0  0  0
 10 19  1  0  0  0  0
 11  5  1  0  0  0  0
 12 11  1  0  0  0  0
 12  5  2  0  0  0  0
 13 18  2  0  0  0  0
 14  2  1  0  0  0  0
 15 20  1  0  0  0  0
 16 13  1  0  0  0  0
 16  1  2  0  0  0  0
 17  6  1  0  0  0  0
 18 15  1  0  0  0  0
 19 17  2  0  0  0  0
 20  6  2  0  0  0  0
 20 21  1  0  0  0  0
 21  9  2  0  0  0  0
 22 16  1  0  0  0  0
 23 22  2  0  0  0  0
 24 26  2  0  0  0  0
 24 27  1  0  0  0  0
 25 22  1  0  0  0  0
 26 23  1  0  0  0  0
 27 25  2  0  0  0  0
 28  8  1  0  0  0  0
 29 30  1  0  0  0  0
 30 32  1  0  0  0  0
 30 31  1  0  0  0  0
 31 28  1  6  0  0  0
 32 31  1  0  0  0  0
M  END
>  <MODEL>
3

>  <REMARK>
 VINA RESULT:     -10.1      3.294      8.356
  Name = 
  3 active torsions:
  status: ('A' for Active; 'I' for Inactive)
    1  A    between atoms: C_3  and  C_21
    2  A    between atoms: O_8  and  N_11
    3  A    between atoms: O_8  and  C_28
                            x       y       z     vdW  Elec       q    Type
                         _______ _______ _______ _____ _____    ______ ____

>  <TORSDO>
F 3

$$$$
=
 OpenBabel10232408183D

 32 38  0  0  1  0  0  0  0  0999 V2000
  186.0980  178.2460  141.7730 C   0  0  0  0  0  0  0  0  0  0  0  0
  187.6270  178.1830  139.3650 C   0  0  0  0  0  0  0  0  0  0  0  0
  191.5850  177.0400  142.2360 C   0  0  0  0  0  2  0  0  0  0  0  0
  190.0640  177.0580  145.5530 N   0  0  0  0  0  2  0  0  0  0  0  0
  192.3570  176.4050  146.9080 N   0  0  0  0  0  0  0  0  0  0  0  0
  190.1670  177.3880  141.9470 C   0  0  0  0  0  0  0  0  0  0  0  0
  185.5060  178.4460  140.5170 O   0  0  0  0  0  0  0  0  0  0  0  0
  188.2830  177.9870  138.2650 N   0  0  0  0  0  0  0  0  0  0  0  0
  191.5810  176.8980  143.6970 N   0  0  0  0  0  0  0  0  0  0  0  0
  187.4790  177.9810  141.8460 C   0  0  0  0  0  0  0  0  0  0  0  0
  191.3770  176.5340  147.8460 C   0  0  0  0  0  2  0  0  0  0  0  0
  191.0360  176.7400  146.5470 C   0  0  0  0  0  0  0  0  0  0  0  0
  185.9550  178.0130  144.1890 C   0  0  0  0  0  3  0  0  0  0  0  0
  186.2510  178.7890  139.3460 C   0  0  0  0  0  2  0  0  0  0  0  0
  188.0870  177.7260  143.0980 C   0  0  0  0  0  0  0  0  0  0  0  0
  185.3190  178.2640  142.9580 C   0  0  0  0  0  0  0  0  0  0  0  0
  189.5940  177.6190  140.7380 N   0  0  0  0  0  0  0  0  0  0  0  0
  187.3220  177.7460  144.2620 C   0  0  0  0  0  3  0  0  0  0  0  0
  188.2620  177.9190  140.6660 C   0  0  0  0  0  0  0  0  0  0  0  0
  189.4520  177.4380  143.1080 C   0  0  0  0  0  0  0  0  0  0  0  0
  190.3900  177.1210  144.1640 C   0  0  0  0  0  0  0  0  0  0  0  0
  183.8560  178.5450  142.9580 C   0  0  0  0  0  0  0  0  0  0  0  0
  183.1530  178.7880  144.1500 C   0  0  0  0  0  3  0  0  0  0  0  0
  181.0820  179.0330  142.9220 C   0  0  0  0  0  3  0  0  0  0  0  0
  183.1390  178.5410  141.7470 C   0  0  0  0  0  3  0  0  0  0  0  0
  181.7770  179.0340  144.1330 C   0  0  0  0  0  3  0  0  0  0  0  0
  181.7630  178.7860  141.7280 C   0  0  0  0  0  3  0  0  0  0  0  0
  187.7340  178.2710  137.0350 O   0  0  0  0  0  0  0  0  0  0  0  0
  186.1390  176.5640  134.3490 C   0  0  0  0  0  1  0  0  0  0  0  0
  186.1570  177.2200  135.6430 N   0  0  0  0  0  0  0  0  0  0  0  0
  187.5600  177.2390  136.0810 C   0  0  2  0  0  3  0  0  0  0  0  0
  186.6530  176.2300  136.6100 C   0  0  0  0  0  2  0  0  0  0  0  0
  1 10  2  0  0  0  0
  1 16  1  0  0  0  0
  2 19  1  0  0  0  0
  3  9  1  0  0  0  0
  4 12  1  0  0  0  0
  5 11  1  0  0  0  0
  6  3  1  0  0  0  0
  6 20  2  0  0  0  0
  7  1  1  0  0  0  0
  8  2  2  0  0  0  0
  9 21  2  0  0  0  0
 10 15  1  0  0  0  0
 12  5  2  0  0  0  0
 12 11  1  0  0  0  0
 13 18  1  0  0  0  0
 14  2  1  0  0  0  0
 14  7  1  0  0  0  0
 15 20  1  0  0  0  0
 15 18  2  0  0  0  0
 16 22  1  0  0  0  0
 16 13  2  0  0  0  0
 17  6  1  0  0  0  0
 19 17  2  0  0  0  0
 19 10  1  0  0  0  0
 20 21  1  0  0  0  0
 21  4  1  0  0  0  0
 22 23  1  0  0  0  0
 24 26  1  0  0  0  0
 25 22  2  0  0  0  0
 26 23  2  0  0  0  0
 27 25  1  0  0  0  0
 27 24  2  0  0  0  0
 28  8  1  0  0  0  0
 29 30  1  0  0  0  0
 30 31  1  0  0  0  0
 30 32  1  0  0  0  0
 31 32  1  0  0  0  0
 31 28  1  1  0  0  0
M  END
>  <MODEL>
4

>  <REMARK>
 VINA RESULT:      -9.4      3.071      6.712
  Name = 
  3 active torsions:
  status: ('A' for Active; 'I' for Inactive)
    1  A    between atoms: C_3  and  C_21
    2  A    between atoms: O_8  and  N_11
    3  A    between atoms: O_8  and  C_28
                            x       y       z     vdW  Elec       q    Type
                         _______ _______ _______ _____ _____    ______ ____

>  <TORSDO>
F 3

$$$$
=
 OpenBabel10232408183D

 32 38  0  0  1  0  0  0  0  0999 V2000
  188.8250  177.5780  142.8180 C   0  0  0  0  0  0  0  0  0  0  0  0
  190.1290  177.4250  140.2860 C   0  0  0  0  0  0  0  0  0  0  0  0
  185.6680  178.4810  138.2360 C   0  0  0  0  0  2  0  0  0  0  0  0
  183.5770  178.7270  141.2170 N   0  0  0  0  0  2  0  0  0  0  0  0
  181.2580  179.3140  139.8750 N   0  0  0  0  0  0  0  0  0  0  0  0
  186.6300  178.2020  139.3370 C   0  0  0  0  0  0  0  0  0  0  0  0
  190.2050  177.3490  142.7110 O   0  0  0  0  0  0  0  0  0  0  0  0
  190.7490  177.5230  139.1510 N   0  0  0  0  0  0  0  0  0  0  0  0
  184.4120  178.6990  138.9640 N   0  0  0  0  0  0  0  0  0  0  0  0
  188.0680  177.7650  141.6460 C   0  0  0  0  0  0  0  0  0  0  0  0
  180.9440  179.2920  141.2000 C   0  0  0  0  0  2  0  0  0  0  0  0
  182.2330  179.0390  140.8560 C   0  0  0  0  0  0  0  0  0  0  0  0
  186.8180  177.9470  144.1390 C   0  0  0  0  0  3  0  0  0  0  0  0
  190.8320  176.9010  141.5070 C   0  0  0  0  0  2  0  0  0  0  0  0
  186.6840  178.0490  141.7330 C   0  0  0  0  0  0  0  0  0  0  0  0
  188.1970  177.6690  144.0860 C   0  0  0  0  0  0  0  0  0  0  0  0
  187.9580  177.9430  139.2400 N   0  0  0  0  0  0  0  0  0  0  0  0
  186.0670  178.1350  142.9800 C   0  0  0  0  0  3  0  0  0  0  0  0
  188.6900  177.7190  140.3740 C   0  0  0  0  0  0  0  0  0  0  0  0
  185.9890  178.2560  140.5410 C   0  0  0  0  0  0  0  0  0  0  0  0
  184.6090  178.5720  140.2420 C   0  0  0  0  0  0  0  0  0  0  0  0
  188.9340  177.4760  145.3670 C   0  0  0  0  0  0  0  0  0  0  0  0
  188.3140  177.6840  146.6110 C   0  0  0  0  0  3  0  0  0  0  0  0
  190.3680  177.1390  147.7680 C   0  0  0  0  0  3  0  0  0  0  0  0
  190.2910  177.1050  145.3490 C   0  0  0  0  0  3  0  0  0  0  0  0
  189.0230  177.5140  147.8030 C   0  0  0  0  0  3  0  0  0  0  0  0
  191.0030  176.9350  146.5410 C   0  0  0  0  0  3  0  0  0  0  0  0
  192.0830  177.2090  139.0270 O   0  0  0  0  0  0  0  0  0  0  0  0
  194.2870  174.6550  137.8910 C   0  0  0  0  0  1  0  0  0  0  0  0
  193.9480  176.0270  138.2200 N   0  0  0  0  0  0  0  0  0  0  0  0
  192.4810  176.1000  138.2410 C   0  0  2  0  0  3  0  0  0  0  0  0
  193.2100  176.5660  137.0700 C   0  0  0  0  0  2  0  0  0  0  0  0
  1 16  1  0  0  0  0
  2 19  1  0  0  0  0
  2 14  1  0  0  0  0
  3  9  1  0  0  0  0
  3  6  1  0  0  0  0
  5 12  2  0  0  0  0
  5 11  1  0  0  0  0
  6 20  2  0  0  0  0
  7  1  1  0  0  0  0
  8  2  2  0  0  0  0
  9 21  2  0  0  0  0
 10 15  1  0  0  0  0
 10  1  2  0  0  0  0
 12 11  1  0  0  0  0
 12  4  1  0  0  0  0
 14  7  1  0  0  0  0
 15 18  2  0  0  0  0
 16 13  2  0  0  0  0
 16 22  1  0  0  0  0
 17  6  1  0  0  0  0
 17 19  2  0  0  0  0
 18 13  1  0  0  0  0
 19 10  1  0  0  0  0
 20 15  1  0  0  0  0
 21 20  1  0  0  0  0
 21  4  1  0  0  0  0
 22 23  1  0  0  0  0
 23 26  2  0  0  0  0
 24 26  1  0  0  0  0
 25 22  2  0  0  0  0
 25 27  1  0  0  0  0
 27 24  2  0  0  0  0
 28  8  1  0  0  0  0
 29 30  1  0  0  0  0
 30 31  1  0  0  0  0
 31 28  1  1  0  0  0
 32 30  1  0  0  0  0
 32 31  1  0  0  0  0
M  END
>  <MODEL>
5

>  <REMARK>
 VINA RESULT:      -9.3      1.325      1.834
  Name = 
  3 active torsions:
  status: ('A' for Active; 'I' for Inactive)
    1  A    between atoms: C_3  and  C_21
    2  A    between atoms: O_8  and  N_11
    3  A    between atoms: O_8  and  C_28
                            x       y       z     vdW  Elec       q    Type
                         _______ _______ _______ _____ _____    ______ ____

>  <TORSDO>
F 3

$$$$
=
 OpenBabel10232408183D

 32 38  0  0  1  0  0  0  0  0999 V2000
  187.8570  177.8780  141.3240 C   0  0  0  0  0  0  0  0  0  0  0  0
  189.0870  177.4560  143.8630 C   0  0  0  0  0  0  0  0  0  0  0  0
  184.5990  178.4420  145.8900 C   0  0  0  0  0  2  0  0  0  0  0  0
  182.6210  179.1200  142.8990 N   0  0  0  0  0  2  0  0  0  0  0  0
  180.2710  179.5980  144.2290 N   0  0  0  0  0  0  0  0  0  0  0  0
  185.5920  178.2740  144.7940 C   0  0  0  0  0  0  0  0  0  0  0  0
  189.1990  177.4870  141.4380 O   0  0  0  0  0  0  0  0  0  0  0  0
  189.5970  177.1010  145.0010 N   0  0  0  0  0  0  0  0  0  0  0  0
  183.3760  178.7870  145.1560 N   0  0  0  0  0  0  0  0  0  0  0  0
  187.0870  178.0400  142.4920 C   0  0  0  0  0  0  0  0  0  0  0  0
  180.0030  179.7510  142.9020 C   0  0  0  0  0  2  0  0  0  0  0  0
  181.2740  179.4220  143.2530 C   0  0  0  0  0  0  0  0  0  0  0  0
  185.8940  178.4130  139.9930 C   0  0  0  0  0  3  0  0  0  0  0  0
  189.9530  177.6220  142.6460 C   0  0  0  0  0  2  0  0  0  0  0  0
  185.7180  178.3840  142.3980 C   0  0  0  0  0  0  0  0  0  0  0  0
  187.2570  178.0660  140.0530 C   0  0  0  0  0  0  0  0  0  0  0  0
  186.9010  177.9320  144.8980 N   0  0  0  0  0  0  0  0  0  0  0  0
  185.1300  178.5710  141.1490 C   0  0  0  0  0  3  0  0  0  0  0  0
  187.6630  177.8150  143.7680 C   0  0  0  0  0  0  0  0  0  0  0  0
  184.9970  178.5010  143.5870 C   0  0  0  0  0  0  0  0  0  0  0  0
  183.6150  178.8150  143.8790 C   0  0  0  0  0  0  0  0  0  0  0  0
  188.0110  177.9190  138.7760 C   0  0  0  0  0  0  0  0  0  0  0  0
  188.6670  179.0080  138.1800 C   0  0  0  0  0  3  0  0  0  0  0  0
  189.3940  177.6120  136.3410 C   0  0  0  0  0  3  0  0  0  0  0  0
  188.0520  176.6730  138.1230 C   0  0  0  0  0  3  0  0  0  0  0  0
  189.3570  178.8560  136.9730 C   0  0  0  0  0  3  0  0  0  0  0  0
  188.7410  176.5190  136.9160 C   0  0  0  0  0  3  0  0  0  0  0  0
  190.9350  176.8070  145.1320 O   0  0  0  0  0  0  0  0  0  0  0  0
  192.7320  175.7880  148.0310 C   0  0  0  0  0  1  0  0  0  0  0  0
  191.6470  175.6880  147.0730 N   0  0  0  0  0  0  0  0  0  0  0  0
  191.5820  176.9820  146.3790 C   0  0  2  0  0  3  0  0  0  0  0  0
  190.6480  176.6930  147.4590 C   0  0  0  0  0  2  0  0  0  0  0  0
  1  7  1  0  0  0  0
  1 10  1  0  0  0  0
  2  8  2  0  0  0  0
  4 12  1  0  0  0  0
  4 21  1  0  0  0  0
  6 17  1  0  0  0  0
  6  3  1  0  0  0  0
  7 14  1  0  0  0  0
  8 28  1  0  0  0  0
  9  3  1  0  0  0  0
 10 19  1  0  0  0  0
 11 12  1  0  0  0  0
 11  5  1  0  0  0  0
 12  5  2  0  0  0  0
 13 16  1  0  0  0  0
 13 18  2  0  0  0  0
 14  2  1  0  0  0  0
 15 10  2  0  0  0  0
 15 20  1  0  0  0  0
 16  1  2  0  0  0  0
 18 15  1  0  0  0  0
 19  2  1  0  0  0  0
 19 17  2  0  0  0  0
 20 21  1  0  0  0  0
 20  6  2  0  0  0  0
 21  9  2  0  0  0  0
 22 16  1  0  0  0  0
 23 22  1  0  0  0  0
 24 27  2  0  0  0  0
 24 26  1  0  0  0  0
 25 22  2  0  0  0  0
 26 23  2  0  0  0  0
 27 25  1  0  0  0  0
 30 32  1  0  0  0  0
 30 29  1  0  0  0  0
 31 28  1  6  0  0  0
 31 30  1  0  0  0  0
 31 32  1  0  0  0  0
M  END
>  <MODEL>
6

>  <REMARK>
 VINA RESULT:      -9.2      2.548      6.061
  Name = 
  3 active torsions:
  status: ('A' for Active; 'I' for Inactive)
    1  A    between atoms: C_3  and  C_21
    2  A    between atoms: O_8  and  N_11
    3  A    between atoms: O_8  and  C_28
                            x       y       z     vdW  Elec       q    Type
                         _______ _______ _______ _____ _____    ______ ____

>  <TORSDO>
F 3

$$$$
=
 OpenBabel10232408183D

 32 38  0  0  1  0  0  0  0  0999 V2000
  186.2770  178.4040  140.4530 C   0  0  0  0  0  0  0  0  0  0  0  0
  188.7500  177.9100  139.1200 C   0  0  0  0  0  0  0  0  0  0  0  0
  190.7660  177.3040  143.6800 C   0  0  0  0  0  2  0  0  0  0  0  0
  187.8650  177.9170  145.8070 N   0  0  0  0  0  2  0  0  0  0  0  0
  189.1790  177.5200  148.1810 N   0  0  0  0  0  0  0  0  0  0  0  0
  189.6900  177.5940  142.6940 C   0  0  0  0  0  0  0  0  0  0  0  0
  186.3680  178.3740  139.0530 O   0  0  0  0  0  0  0  0  0  0  0  0
  189.8300  177.5200  138.5180 N   0  0  0  0  0  0  0  0  0  0  0  0
  190.0590  177.4270  144.9600 N   0  0  0  0  0  0  0  0  0  0  0  0
  187.4300  178.1570  141.2210 C   0  0  0  0  0  0  0  0  0  0  0  0
  187.8880  177.8150  148.4980 C   0  0  0  0  0  2  0  0  0  0  0  0
  188.2200  177.7840  147.1810 C   0  0  0  0  0  0  0  0  0  0  0  0
  184.9890  178.6080  142.5050 C   0  0  0  0  0  3  0  0  0  0  0  0
  187.6050  178.5020  138.3470 C   0  0  0  0  0  2  0  0  0  0  0  0
  187.3500  178.1320  142.6340 C   0  0  0  0  0  0  0  0  0  0  0  0
  185.0350  178.6340  141.0980 C   0  0  0  0  0  0  0  0  0  0  0  0
  189.7780  177.6020  141.3400 N   0  0  0  0  0  0  0  0  0  0  0  0
  186.1300  178.3610  143.2670 C   0  0  0  0  0  3  0  0  0  0  0  0
  188.6700  177.8840  140.5890 C   0  0  0  0  0  0  0  0  0  0  0  0
  188.5180  177.8510  143.3440 C   0  0  0  0  0  0  0  0  0  0  0  0
  188.8130  177.7300  144.7550 C   0  0  0  0  0  0  0  0  0  0  0  0
  183.7760  178.9090  140.3500 C   0  0  0  0  0  0  0  0  0  0  0  0
  183.7490  179.7860  139.2530 C   0  0  0  0  0  3  0  0  0  0  0  0
  181.3700  179.4350  138.9820 C   0  0  0  0  0  3  0  0  0  0  0  0
  182.5710  178.3070  140.7550 C   0  0  0  0  0  3  0  0  0  0  0  0
  182.5560  180.0450  138.5710 C   0  0  0  0  0  3  0  0  0  0  0  0
  181.3760  178.5650  140.0750 C   0  0  0  0  0  3  0  0  0  0  0  0
  189.9530  177.5770  137.1480 O   0  0  0  0  0  0  0  0  0  0  0  0
  189.9580  175.3780  134.3490 C   0  0  0  0  0  1  0  0  0  0  0  0
  189.3110  176.1990  135.3550 N   0  0  0  0  0  0  0  0  0  0  0  0
  190.3020  176.4150  136.4180 C   0  0  2  0  0  3  0  0  0  0  0  0
  189.2710  175.4010  136.5880 C   0  0  0  0  0  2  0  0  0  0  0  0
  1 16  2  0  0  0  0
  1 10  1  0  0  0  0
  2 19  1  0  0  0  0
  3  9  1  0  0  0  0
  4 12  1  0  0  0  0
  5 11  1  0  0  0  0
  6 20  1  0  0  0  0
  6  3  1  0  0  0  0
  7  1  1  0  0  0  0
  8  2  2  0  0  0  0
 10 15  1  0  0  0  0
 12  5  2  0  0  0  0
 12 11  1  0  0  0  0
 13 18  2  0  0  0  0
 14  7  1  0  0  0  0
 14  2  1  0  0  0  0
 15 18  1  0  0  0  0
 15 20  2  0  0  0  0
 16 13  1  0  0  0  0
 17  6  2  0  0  0  0
 19 10  2  0  0  0  0
 19 17  1  0  0  0  0
 20 21  1  0  0  0  0
 21  9  2  0  0  0  0
 21  4  1  0  0  0  0
 22 25  1  0  0  0  0
 22 16  1  0  0  0  0
 23 22  2  0  0  0  0
 24 27  1  0  0  0  0
 26 24  2  0  0  0  0
 26 23  1  0  0  0  0
 27 25  2  0  0  0  0
 28  8  1  0  0  0  0
 29 30  1  0  0  0  0
 30 31  1  0  0  0  0
 30 32  1  0  0  0  0
 31 32  1  0  0  0  0
 31 28  1  1  0  0  0
M  END
>  <MODEL>
7

>  <REMARK>
 VINA RESULT:      -9.1      2.886      6.429
  Name = 
  3 active torsions:
  status: ('A' for Active; 'I' for Inactive)
    1  A    between atoms: C_3  and  C_21
    2  A    between atoms: O_8  and  N_11
    3  A    between atoms: O_8  and  C_28
                            x       y       z     vdW  Elec       q    Type
                         _______ _______ _______ _____ _____    ______ ____

>  <TORSDO>
F 3

$$$$
=
 OpenBabel10232408183D

 32 38  0  0  1  0  0  0  0  0999 V2000
  186.3690  178.2740  140.3860 C   0  0  0  0  0  0  0  0  0  0  0  0
  183.5830  178.8570  140.5640 C   0  0  0  0  0  0  0  0  0  0  0  0
  184.1620  178.7520  145.5510 C   0  0  0  0  0  2  0  0  0  0  0  0
  187.7140  177.9570  145.8200 N   0  0  0  0  0  2  0  0  0  0  0  0
  187.7910  177.9740  148.5610 N   0  0  0  0  0  0  0  0  0  0  0  0
  184.5840  178.6410  144.1280 C   0  0  0  0  0  0  0  0  0  0  0  0
  185.5870  178.4940  139.2430 O   0  0  0  0  0  0  0  0  0  0  0  0
  182.3630  179.2870  140.6480 N   0  0  0  0  0  0  0  0  0  0  0  0
  185.4120  178.4790  146.2700 N   0  0  0  0  0  0  0  0  0  0  0  0
  185.7710  178.3700  141.6570 C   0  0  0  0  0  0  0  0  0  0  0  0
  189.0540  177.6850  148.1400 C   0  0  0  0  0  2  0  0  0  0  0  0
  188.1050  177.8860  147.1890 C   0  0  0  0  0  0  0  0  0  0  0  0
  188.5060  177.8350  141.4590 C   0  0  0  0  0  3  0  0  0  0  0  0
  184.1590  178.4200  139.2460 C   0  0  0  0  0  2  0  0  0  0  0  0
  186.5520  178.2020  142.8240 C   0  0  0  0  0  0  0  0  0  0  0  0
  187.7570  178.0030  140.2790 C   0  0  0  0  0  0  0  0  0  0  0  0
  183.8250  178.8170  143.0170 N   0  0  0  0  0  0  0  0  0  0  0  0
  187.9150  177.9330  142.7180 C   0  0  0  0  0  3  0  0  0  0  0  0
  184.3930  178.6820  141.7800 C   0  0  0  0  0  0  0  0  0  0  0  0
  185.9130  178.3390  144.0570 C   0  0  0  0  0  0  0  0  0  0  0  0
  186.3730  178.2530  145.4260 C   0  0  0  0  0  0  0  0  0  0  0  0
  188.4570  177.8800  138.9690 C   0  0  0  0  0  0  0  0  0  0  0  0
  188.6360  178.9890  138.1250 C   0  0  0  0  0  3  0  0  0  0  0  0
  189.7490  177.6040  136.4820 C   0  0  0  0  0  3  0  0  0  0  0  0
  188.9290  176.6270  138.5380 C   0  0  0  0  0  3  0  0  0  0  0  0
  189.2800  178.8540  136.8920 C   0  0  0  0  0  3  0  0  0  0  0  0
  189.5740  176.4900  137.3050 C   0  0  0  0  0  3  0  0  0  0  0  0
  181.5640  179.4150  139.5340 O   0  0  0  0  0  0  0  0  0  0  0  0
  179.9900  182.3420  138.2570 C   0  0  0  0  0  1  0  0  0  0  0  0
  180.1050  180.9090  138.4540 N   0  0  0  0  0  0  0  0  0  0  0  0
  181.4970  180.6520  138.8480 C   0  0  2  0  0  3  0  0  0  0  0  0
  181.0830  180.4250  137.4700 C   0  0  0  0  0  2  0  0  0  0  0  0
  1 10  1  0  0  0  0
  2  8  2  0  0  0  0
  2 19  1  0  0  0  0
  3  9  1  0  0  0  0
  4 12  1  0  0  0  0
  6  3  1  0  0  0  0
  7 14  1  0  0  0  0
  7  1  1  0  0  0  0
 10 19  2  0  0  0  0
 10 15  1  0  0  0  0
 11  5  1  0  0  0  0
 12 11  1  0  0  0  0
 12  5  2  0  0  0  0
 13 18  2  0  0  0  0
 14  2  1  0  0  0  0
 15 20  2  0  0  0  0
 16  1  2  0  0  0  0
 16 13  1  0  0  0  0
 17  6  2  0  0  0  0
 18 15  1  0  0  0  0
 19 17  1  0  0  0  0
 20  6  1  0  0  0  0
 20 21  1  0  0  0  0
 21  4  1  0  0  0  0
 21  9  2  0  0  0  0
 22 16  1  0  0  0  0
 23 22  2  0  0  0  0
 24 26  2  0  0  0  0
 24 27  1  0  0  0  0
 25 22  1  0  0  0  0
 26 23  1  0  0  0  0
 27 25  2  0  0  0  0
 28  8  1  0  0  0  0
 29 30  1  0  0  0  0
 30 31  1  0  0  0  0
 31 28  1  1  0  0  0
 32 30  1  0  0  0  0
 32 31  1  0  0  0  0
M  END
>  <MODEL>
8

>  <REMARK>
 VINA RESULT:      -8.9      3.177      7.487
  Name = 
  3 active torsions:
  status: ('A' for Active; 'I' for Inactive)
    1  A    between atoms: C_3  and  C_21
    2  A    between atoms: O_8  and  N_11
    3  A    between atoms: O_8  and  C_28
                            x       y       z     vdW  Elec       q    Type
                         _______ _______ _______ _____ _____    ______ ____

>  <TORSDO>
F 3

$$$$
=
 OpenBabel10232408183D

 32 38  0  0  1  0  0  0  0  0999 V2000
  189.5610  177.5800  142.2990 C   0  0  0  0  0  0  0  0  0  0  0  0
  189.7230  177.6580  145.1450 C   0  0  0  0  0  0  0  0  0  0  0  0
  184.7760  178.5210  145.1260 C   0  0  0  0  0  2  0  0  0  0  0  0
  184.0940  178.5610  141.5410 N   0  0  0  0  0  2  0  0  0  0  0  0
  181.4000  179.0160  141.7810 N   0  0  0  0  0  0  0  0  0  0  0  0
  186.1200  178.2820  144.5320 C   0  0  0  0  0  0  0  0  0  0  0  0
  190.7650  177.3350  142.9760 O   0  0  0  0  0  0  0  0  0  0  0  0
  189.7620  177.5250  146.4340 N   0  0  0  0  0  0  0  0  0  0  0  0
  183.9240  178.6400  143.9360 N   0  0  0  0  0  0  0  0  0  0  0  0
  188.3960  177.8440  143.0430 C   0  0  0  0  0  0  0  0  0  0  0  0
  181.6630  178.9440  140.4470 C   0  0  0  0  0  2  0  0  0  0  0  0
  182.7070  178.7880  141.3020 C   0  0  0  0  0  0  0  0  0  0  0  0
  188.2540  177.7290  140.2540 C   0  0  0  0  0  3  0  0  0  0  0  0
  190.9880  177.7170  144.3360 C   0  0  0  0  0  2  0  0  0  0  0  0
  187.1610  178.0440  142.3810 C   0  0  0  0  0  0  0  0  0  0  0  0
  189.4960  177.5200  140.8830 C   0  0  0  0  0  0  0  0  0  0  0  0
  187.2950  178.0810  145.1800 N   0  0  0  0  0  0  0  0  0  0  0  0
  187.0980  177.9870  140.9900 C   0  0  0  0  0  3  0  0  0  0  0  0
  188.4380  177.8660  144.4600 C   0  0  0  0  0  0  0  0  0  0  0  0
  186.0330  178.2710  143.1700 C   0  0  0  0  0  0  0  0  0  0  0  0
  184.6380  178.4980  142.8610 C   0  0  0  0  0  0  0  0  0  0  0  0
  190.6890  177.2520  140.0310 C   0  0  0  0  0  0  0  0  0  0  0  0
  190.5670  176.6710  138.7580 C   0  0  0  0  0  3  0  0  0  0  0  0
  192.9690  176.7250  138.4630 C   0  0  0  0  0  3  0  0  0  0  0  0
  191.9770  177.5560  140.5090 C   0  0  0  0  0  3  0  0  0  0  0  0
  191.6980  176.4120  137.9770 C   0  0  0  0  0  3  0  0  0  0  0  0
  193.1090  177.2970  139.7300 C   0  0  0  0  0  3  0  0  0  0  0  0
  190.9530  177.3770  147.1090 O   0  0  0  0  0  0  0  0  0  0  0  0
  192.9150  175.0830  148.9970 C   0  0  0  0  0  1  0  0  0  0  0  0
  192.7360  176.1570  148.0370 N   0  0  0  0  0  0  0  0  0  0  0  0
  191.3280  176.1090  147.6160 C   0  0  2  0  0  3  0  0  0  0  0  0
  192.3570  175.5260  146.7650 C   0  0  0  0  0  2  0  0  0  0  0  0
  1  7  1  0  0  0  0
  1 10  1  0  0  0  0
  2  8  2  0  0  0  0
  4 21  1  0  0  0  0
  6  3  1  0  0  0  0
  6 17  1  0  0  0  0
  7 14  1  0  0  0  0
  8 28  1  0  0  0  0
  9  3  1  0  0  0  0
 10 19  1  0  0  0  0
 11 12  1  0  0  0  0
 11  5  1  0  0  0  0
 12  4  1  0  0  0  0
 12  5  2  0  0  0  0
 13 16  1  0  0  0  0
 13 18  2  0  0  0  0
 14  2  1  0  0  0  0
 15 10  2  0  0  0  0
 15 20  1  0  0  0  0
 16  1  2  0  0  0  0
 18 15  1  0  0  0  0
 19  2  1  0  0  0  0
 19 17  2  0  0  0  0
 20  6  2  0  0  0  0
 21 20  1  0  0  0  0
 21  9  2  0  0  0  0
 22 25  1  0  0  0  0
 22 16  1  0  0  0  0
 23 22  2  0  0  0  0
 24 27  1  0  0  0  0
 26 24  2  0  0  0  0
 26 23  1  0  0  0  0
 27 25  2  0  0  0  0
 30 29  1  0  0  0  0
 31 28  1  6  0  0  0
 31 30  1  0  0  0  0
 32 31  1  0  0  0  0
 32 30  1  0  0  0  0
M  END
>  <MODEL>
9

>  <REMARK>
 VINA RESULT:      -8.8      2.804      5.945
  Name = 
  3 active torsions:
  status: ('A' for Active; 'I' for Inactive)
    1  A    between atoms: C_3  and  C_21
    2  A    between atoms: O_8  and  N_11
    3  A    between atoms: O_8  and  C_28
                            x       y       z     vdW  Elec       q    Type
                         _______ _______ _______ _____ _____    ______ ____

>  <TORSDO>
F 3

$$$$
