=
 OpenBabel10232411253D

 36 38  0  0  1  0  0  0  0  0999 V2000
  184.5090  179.0380  145.0600 C   0  0  0  0  0  3  0  0  0  0  0  0
  186.3980  177.7090  144.2310 C   0  0  0  0  0  0  0  0  0  0  0  0
  186.6160  178.9310  146.3600 C   0  0  2  0  0  3  0  0  0  0  0  0
  185.1030  178.4260  144.0190 C   0  0  0  0  0  0  0  0  0  0  0  0
  185.0770  178.9500  146.4500 C   0  0  2  0  0  3  0  0  0  0  0  0
  184.5160  177.7150  147.1400 C   0  0  0  0  0  1  0  0  0  0  0  0
  187.1030  177.9300  145.3460 C   0  0  0  0  0  2  0  0  0  0  0  0
  180.1380  178.8360  141.9880 C   0  0  0  0  0  3  0  0  0  0  0  0
  183.1780  178.7320  142.3660 C   0  0  0  0  0  0  0  0  0  0  0  0
  184.4080  179.2010  140.4600 N   0  0  0  0  0  0  0  0  0  0  0  0
  182.2330  178.5000  143.2220 N   0  0  0  0  0  0  0  0  0  0  0  0
  180.0420  178.2650  144.2620 N   0  0  0  0  0  1  0  0  0  0  0  0
  180.6620  179.1600  140.7000 N   0  0  0  0  0  0  0  0  0  0  0  0
  181.9960  179.3300  140.2130 C   0  0  0  0  0  0  0  0  0  0  0  0
  183.0810  179.1160  140.9730 C   0  0  0  0  0  0  0  0  0  0  0  0
  185.3610  178.9000  141.5240 C   0  0  0  0  0  3  0  0  0  0  0  0
  184.5560  178.5880  142.7000 N   0  0  0  0  0  0  0  0  0  0  0  0
  180.8100  178.5540  143.1010 C   0  0  2  0  0  3  0  0  0  0  0  0
  182.1510  181.1190  138.4700 C   0  0  0  0  0  1  0  0  0  0  0  0
  182.5640  178.7580  137.8160 C   0  0  0  0  0  1  0  0  0  0  0  0
  182.1460  179.7120  138.8320 N   0  0  0  0  0  0  0  0  0  0  0  0
  186.8780  176.7210  143.3150 N   0  0  0  0  0  0  0  0  0  0  0  0
  188.1500  176.1430  143.4360 N   0  0  0  0  0  0  0  0  0  0  0  0
  189.1210  176.4420  142.6280 C   0  0  0  0  0  3  0  0  0  0  0  0
  188.9580  177.4110  141.4990 C   0  0  0  0  0  2  0  0  0  0  0  0
  190.0150  177.1620  140.4410 C   0  0  0  0  0  1  0  0  0  0  0  0
  187.3410  178.8390  147.7020 C   0  0  0  0  0  2  0  0  0  0  0  0
  187.8700  177.5020  147.9330 N   0  0  0  0  0  2  0  0  0  0  0  0
  189.3170  177.6110  147.9500 C   0  0  0  0  0  2  0  0  0  0  0  0
  189.9280  176.4700  147.1530 C   0  0  0  0  0  2  0  0  0  0  0  0
  191.3890  176.7570  146.8390 C   0  0  2  0  0  3  0  0  0  0  0  0
  191.3230  178.1190  144.7400 O   0  0  0  0  0  1  0  0  0  0  0  0
  191.9340  175.9110  144.6810 O   0  0  0  0  0  0  0  0  0  0  0  0
  191.5650  176.9010  145.3650 C   0  0  0  0  0  0  0  0  0  0  0  0
  192.2880  175.6420  147.3550 C   0  0  0  0  0  2  0  0  0  0  0  0
  193.0320  176.0880  148.4480 O   0  0  0  0  0  1  0  0  0  0  0  0
  1  5  1  0  0  0  0
  2  7  1  0  0  0  0
  3  5  1  0  0  0  0
  3 27  1  1  0  0  0
  4  2  1  0  0  0  0
  4  1  2  0  0  0  0
  5  6  1  6  0  0  0
  7  3  1  0  0  0  0
  8 18  1  0  0  0  0
  9 17  1  0  0  0  0
  9 11  2  0  0  0  0
 10 15  1  0  0  0  0
 10 16  2  0  0  0  0
 13  8  2  0  0  0  0
 14 13  1  0  0  0  0
 14 15  2  0  0  0  0
 15  9  1  0  0  0  0
 16 17  1  0  0  0  0
 17  4  1  0  0  0  0
 18 11  1  0  0  0  0
 18 12  1  6  0  0  0
 19 21  1  0  0  0  0
 20 21  1  0  0  0  0
 21 14  1  0  0  0  0
 22 23  1  0  0  0  0
 22  2  2  0  0  0  0
 24 23  2  0  0  0  0
 25 24  1  0  0  0  0
 26 25  1  0  0  0  0
 27 28  1  0  0  0  0
 28 29  1  0  0  0  0
 30 29  1  0  0  0  0
 31 30  1  6  0  0  0
 31 35  1  0  0  0  0
 32 34  1  0  0  0  0
 33 34  2  0  0  0  0
 34 31  1  0  0  0  0
 35 36  1  0  0  0  0
M  END
>  <MODEL>
1

>  <REMARK>
 VINA RESULT:      -7.2      0.000      0.000
  Name = 
  12 active torsions:
  status: ('A' for Active; 'I' for Inactive)
    1  A    between atoms: C_3  and  C_35
    2  A    between atoms: N_4  and  C_22
    3  A    between atoms: N_4  and  C_34
    4  A    between atoms: C_5  and  C_31
    5  A    between atoms: N_10  and  N_13
    6  A    between atoms: N_13  and  C_16
    7  A    between atoms: C_17  and  C_22
    8  A    between atoms: C_19  and  N_27
    9  A    between atoms: C_21  and  N_33
   10  A    between atoms: C_25  and  C_35
   11  A    between atoms: C_32  and  C_34
   12  A    between atoms: C_32  and  C_35
                            x       y       z     vdW  Elec       q    Type
                         _______ _______ _______ _____ _____    ______ ____

>  <TORSDO>
F 12

$$$$
=
 OpenBabel10232411253D

 36 38  0  0  1  0  0  0  0  0999 V2000
  190.8470  177.6410  141.3260 C   0  0  0  0  0  3  0  0  0  0  0  0
  188.7790  176.9750  142.4660 C   0  0  0  0  0  0  0  0  0  0  0  0
  190.9530  176.2760  143.3910 C   0  0  2  0  0  3  0  0  0  0  0  0
  189.5150  177.4630  141.2590 C   0  0  0  0  0  0  0  0  0  0  0  0
  191.6030  177.4350  142.6100 C   0  0  2  0  0  3  0  0  0  0  0  0
  191.6130  178.7390  143.3950 C   0  0  0  0  0  1  0  0  0  0  0  0
  189.4590  176.4350  143.4840 C   0  0  0  0  0  3  0  0  0  0  0  0
  189.9000  175.0870  136.4480 C   0  0  0  0  0  3  0  0  0  0  0  0
  189.0610  176.8310  138.8250 C   0  0  0  0  0  0  0  0  0  0  0  0
  187.1710  178.1190  138.4620 N   0  0  0  0  0  0  0  0  0  0  0  0
  190.0730  176.0290  138.7090 N   0  0  0  0  0  0  0  0  0  0  0  0
  191.6540  174.3900  137.8420 N   0  0  0  0  0  1  0  0  0  0  0  0
  188.7320  175.7660  135.9880 N   0  0  0  0  0  0  0  0  0  0  0  0
  187.8320  176.6810  136.6210 C   0  0  0  0  0  0  0  0  0  0  0  0
  188.0200  177.1410  137.8670 C   0  0  0  0  0  0  0  0  0  0  0  0
  187.6450  178.4210  139.8090 C   0  0  0  0  0  3  0  0  0  0  0  0
  188.8450  177.6130  139.9960 N   0  0  0  0  0  0  0  0  0  0  0  0
  190.4930  175.1840  137.6350 C   0  0  2  0  0  3  0  0  0  0  0  0
  186.9030  178.1360  134.8090 C   0  0  0  0  0  1  0  0  0  0  0  0
  185.4290  176.4410  135.8720 C   0  0  0  0  0  1  0  0  0  0  0  0
  186.7070  177.1370  135.8460 N   0  0  0  0  0  0  0  0  0  0  0  0
  187.3660  177.1420  142.6120 N   0  0  0  0  0  2  0  0  0  0  0  0
  186.8040  178.2920  143.1850 N   0  0  0  0  0  0  0  0  0  0  0  0
  185.5780  178.6480  142.9500 C   0  0  0  0  0  3  0  0  0  0  0  0
  184.6760  177.8740  142.0410 C   0  0  0  0  0  2  0  0  0  0  0  0
  183.4030  178.6550  141.7800 C   0  0  0  0  0  1  0  0  0  0  0  0
  191.6140  175.9500  144.7310 C   0  0  0  0  0  2  0  0  0  0  0  0
  191.5630  177.0850  145.6420 N   0  0  0  0  0  2  0  0  0  0  0  0
  191.3410  176.5540  146.9740 C   0  0  0  0  0  2  0  0  0  0  0  0
  189.8660  176.2380  147.1620 C   0  0  0  0  0  2  0  0  0  0  0  0
  189.0350  177.5130  147.1180 C   0  0  2  0  0  3  0  0  0  0  0  0
  187.7000  177.7620  149.2210 O   0  0  0  0  0  1  0  0  0  0  0  0
  189.7580  178.7500  149.0190 O   0  0  0  0  0  0  0  0  0  0  0  0
  188.8560  178.0420  148.5010 C   0  0  0  0  0  0  0  0  0  0  0  0
  187.6720  177.2550  146.4890 C   0  0  0  0  0  2  0  0  0  0  0  0
  186.9870  178.4580  146.3120 O   0  0  0  0  0  1  0  0  0  0  0  0
  1  5  1  0  0  0  0
  2 22  1  0  0  0  0
  2  7  2  0  0  0  0
  3  7  1  0  0  0  0
  3 27  1  1  0  0  0
  4  1  2  0  0  0  0
  4  2  1  0  0  0  0
  5  3  1  0  0  0  0
  5  6  1  1  0  0  0
  8 18  1  0  0  0  0
  9 17  1  0  0  0  0
 10 16  2  0  0  0  0
 11  9  2  0  0  0  0
 13  8  2  0  0  0  0
 13 14  1  0  0  0  0
 14 15  2  0  0  0  0
 15 10  1  0  0  0  0
 15  9  1  0  0  0  0
 16 17  1  0  0  0  0
 17  4  1  0  0  0  0
 18 12  1  6  0  0  0
 18 11  1  0  0  0  0
 19 21  1  0  0  0  0
 21 20  1  0  0  0  0
 21 14  1  0  0  0  0
 22 23  1  0  0  0  0
 24 23  2  0  0  0  0
 25 24  1  0  0  0  0
 26 25  1  0  0  0  0
 27 28  1  0  0  0  0
 28 29  1  0  0  0  0
 29 30  1  0  0  0  0
 31 35  1  1  0  0  0
 31 30  1  0  0  0  0
 31 34  1  0  0  0  0
 34 33  2  0  0  0  0
 34 32  1  0  0  0  0
 36 35  1  0  0  0  0
M  END
>  <MODEL>
2

>  <REMARK>
 VINA RESULT:      -6.8      3.420      6.497
  Name = 
  12 active torsions:
  status: ('A' for Active; 'I' for Inactive)
    1  A    between atoms: C_3  and  C_35
    2  A    between atoms: N_4  and  C_22
    3  A    between atoms: N_4  and  C_34
    4  A    between atoms: C_5  and  C_31
    5  A    between atoms: N_10  and  N_13
    6  A    between atoms: N_13  and  C_16
    7  A    between atoms: C_17  and  C_22
    8  A    between atoms: C_19  and  N_27
    9  A    between atoms: C_21  and  N_33
   10  A    between atoms: C_25  and  C_35
   11  A    between atoms: C_32  and  C_34
   12  A    between atoms: C_32  and  C_35
                            x       y       z     vdW  Elec       q    Type
                         _______ _______ _______ _____ _____    ______ ____

>  <TORSDO>
F 12

$$$$
=
 OpenBabel10232411253D

 36 38  0  0  1  0  0  0  0  0999 V2000
  189.3040  177.8650  138.7780 C   0  0  0  0  0  3  0  0  0  0  0  0
  189.5730  176.8570  140.9990 C   0  0  0  0  0  0  0  0  0  0  0  0
  188.0420  178.7660  140.7110 C   0  0  2  0  0  3  0  0  0  0  0  0
  190.0430  177.0970  139.6000 C   0  0  0  0  0  0  0  0  0  0  0  0
  187.9750  178.4230  139.2090 C   0  0  2  0  0  3  0  0  0  0  0  0
  186.8840  177.4130  138.8860 C   0  0  0  0  0  1  0  0  0  0  0  0
  188.6120  177.6300  141.5180 C   0  0  0  0  0  3  0  0  0  0  0  0
  191.7780  173.2610  136.2510 C   0  0  0  0  0  3  0  0  0  0  0  0
  191.5890  175.6140  138.2070 C   0  0  0  0  0  0  0  0  0  0  0  0
  193.6010  176.6730  138.6460 N   0  0  0  0  0  0  0  0  0  0  0  0
  190.6570  174.8180  137.7830 N   0  0  0  0  0  0  0  0  0  0  0  0
  189.4630  173.0630  136.5850 N   0  0  0  0  0  1  0  0  0  0  0  0
  193.1180  173.7410  136.3520 N   0  0  0  0  0  0  0  0  0  0  0  0
  193.7030  174.8400  137.0560 C   0  0  0  0  0  0  0  0  0  0  0  0
  192.9990  175.6340  137.8780 C   0  0  0  0  0  0  0  0  0  0  0  0
  192.5800  177.3400  139.4480 C   0  0  0  0  0  3  0  0  0  0  0  0
  191.3330  176.6360  139.1650 N   0  0  0  0  0  0  0  0  0  0  0  0
  190.6910  173.7260  136.8620 C   0  0  2  0  0  3  0  0  0  0  0  0
  196.0620  174.3380  137.7210 C   0  0  0  0  0  1  0  0  0  0  0  0
  195.6460  175.7530  135.7210 C   0  0  0  0  0  1  0  0  0  0  0  0
  195.1160  175.0540  136.8820 N   0  0  0  0  0  0  0  0  0  0  0  0
  190.0580  175.7660  141.7870 N   0  0  0  0  0  2  0  0  0  0  0  0
  189.8900  175.7140  143.1780 N   0  0  0  0  0  0  0  0  0  0  0  0
  190.6470  176.3900  143.9870 C   0  0  0  0  0  3  0  0  0  0  0  0
  191.7620  177.2630  143.5050 C   0  0  0  0  0  2  0  0  0  0  0  0
  191.4630  178.7160  143.8210 C   0  0  0  0  0  1  0  0  0  0  0  0
  186.7540  179.3440  141.2980 C   0  0  0  0  0  2  0  0  0  0  0  0
  186.0140  178.3410  142.0520 N   0  0  0  0  0  2  0  0  0  0  0  0
  185.0340  179.0480  142.8560 C   0  0  0  0  0  2  0  0  0  0  0  0
  184.9370  178.4060  144.2300 C   0  0  0  0  0  2  0  0  0  0  0  0
  186.0750  178.8770  145.1230 C   0  0  2  0  0  3  0  0  0  0  0  0
  186.9260  176.5740  144.6380 O   0  0  0  0  0  0  0  0  0  0  0  0
  188.2800  178.1350  145.6280 O   0  0  0  0  0  1  0  0  0  0  0  0
  187.1550  177.8480  145.1450 C   0  0  0  0  0  0  0  0  0  0  0  0
  185.5850  179.1340  146.5420 C   0  0  0  0  0  2  0  0  0  0  0  0
  184.5230  178.2820  146.8480 O   0  0  0  0  0  1  0  0  0  0  0  0
  1  5  1  0  0  0  0
  1  4  2  0  0  0  0
  2  7  2  0  0  0  0
  2 22  1  0  0  0  0
  3 27  1  1  0  0  0
  3  7  1  0  0  0  0
  4  2  1  0  0  0  0
  5  6  1  1  0  0  0
  5  3  1  0  0  0  0
  8 13  2  0  0  0  0
  8 18  1  0  0  0  0
  9 17  1  0  0  0  0
 10 16  2  0  0  0  0
 11  9  2  0  0  0  0
 13 14  1  0  0  0  0
 14 15  2  0  0  0  0
 15  9  1  0  0  0  0
 15 10  1  0  0  0  0
 17 16  1  0  0  0  0
 17  4  1  0  0  0  0
 18 12  1  1  0  0  0
 18 11  1  0  0  0  0
 20 21  1  0  0  0  0
 21 14  1  0  0  0  0
 21 19  1  0  0  0  0
 22 23  1  0  0  0  0
 23 24  2  0  0  0  0
 25 26  1  0  0  0  0
 25 24  1  0  0  0  0
 27 28  1  0  0  0  0
 28 29  1  0  0  0  0
 29 30  1  0  0  0  0
 31 30  1  6  0  0  0
 31 34  1  0  0  0  0
 31 35  1  0  0  0  0
 32 34  2  0  0  0  0
 34 33  1  0  0  0  0
 35 36  1  0  0  0  0
M  END
>  <MODEL>
3

>  <REMARK>
 VINA RESULT:      -6.7      4.496      8.873
  Name = 
  12 active torsions:
  status: ('A' for Active; 'I' for Inactive)
    1  A    between atoms: C_3  and  C_35
    2  A    between atoms: N_4  and  C_22
    3  A    between atoms: N_4  and  C_34
    4  A    between atoms: C_5  and  C_31
    5  A    between atoms: N_10  and  N_13
    6  A    between atoms: N_13  and  C_16
    7  A    between atoms: C_17  and  C_22
    8  A    between atoms: C_19  and  N_27
    9  A    between atoms: C_21  and  N_33
   10  A    between atoms: C_25  and  C_35
   11  A    between atoms: C_32  and  C_34
   12  A    between atoms: C_32  and  C_35
                            x       y       z     vdW  Elec       q    Type
                         _______ _______ _______ _____ _____    ______ ____

>  <TORSDO>
F 12

$$$$
=
 OpenBabel10232411253D

 36 38  0  0  1  0  0  0  0  0999 V2000
  188.4450  178.4560  139.1530 C   0  0  0  0  0  3  0  0  0  0  0  0
  189.6780  176.3940  138.6540 C   0  0  0  0  0  0  0  0  0  0  0  0
  187.7150  176.9940  137.2910 C   0  0  2  0  0  3  0  0  0  0  0  0
  189.3090  177.5140  139.5740 C   0  0  0  0  0  0  0  0  0  0  0  0
  187.9020  178.4530  137.7500 C   0  0  2  0  0  3  0  0  0  0  0  0
  188.8490  179.2340  136.8500 C   0  0  0  0  0  1  0  0  0  0  0  0
  188.9390  176.1610  137.5630 C   0  0  0  0  0  3  0  0  0  0  0  0
  186.8630  177.6320  144.3640 C   0  0  0  0  0  3  0  0  0  0  0  0
  188.9260  177.5020  142.1010 C   0  0  0  0  0  0  0  0  0  0  0  0
  191.1070  177.1540  142.7970 N   0  0  0  0  0  0  0  0  0  0  0  0
  187.6470  177.7050  142.0390 N   0  0  0  0  0  0  0  0  0  0  0  0
  185.3020  177.9710  142.6450 N   0  0  0  0  0  1  0  0  0  0  0  0
  188.1030  177.4090  145.0340 N   0  0  0  0  0  2  0  0  0  0  0  0
  189.4370  177.2050  144.5580 C   0  0  0  0  0  0  0  0  0  0  0  0
  189.7640  177.2700  143.2590 C   0  0  0  0  0  0  0  0  0  0  0  0
  191.1350  177.2830  141.3430 C   0  0  0  0  0  3  0  0  0  0  0  0
  189.7530  177.5230  140.9410 N   0  0  0  0  0  0  0  0  0  0  0  0
  186.6450  177.7540  143.0570 C   0  0  0  0  0  0  0  0  0  0  0  0
  190.1690  177.1940  146.9510 C   0  0  0  0  0  1  0  0  0  0  0  0
  191.6700  176.2250  145.2250 C   0  0  0  0  0  1  0  0  0  0  0  0
  190.4550  176.9580  145.5470 N   0  0  0  0  0  0  0  0  0  0  0  0
  190.8540  175.6050  138.8520 N   0  0  0  0  0  2  0  0  0  0  0  0
  191.2110  174.5620  137.9840 N   0  0  0  0  0  0  0  0  0  0  0  0
  192.4080  174.4550  137.4940 C   0  0  0  0  0  3  0  0  0  0  0  0
  193.4930  175.4380  137.8010 C   0  0  0  0  0  2  0  0  0  0  0  0
  193.7780  176.2990  136.5850 C   0  0  0  0  0  1  0  0  0  0  0  0
  187.1700  176.8280  135.8720 C   0  0  0  0  0  2  0  0  0  0  0  0
  185.7430  176.5350  135.8780 N   0  0  0  0  0  2  0  0  0  0  0  0
  185.3290  176.4570  137.2670 C   0  0  0  0  0  2  0  0  0  0  0  0
  184.1240  177.3540  137.4950 C   0  0  0  0  0  2  0  0  0  0  0  0
  184.0590  177.8070  138.9460 C   0  0  2  0  0  3  0  0  0  0  0  0
  182.6600  175.8230  139.5590 O   0  0  0  0  0  0  0  0  0  0  0  0
  182.0480  177.9320  140.2160 O   0  0  0  0  0  1  0  0  0  0  0  0
  182.8700  177.1970  139.6090 C   0  0  0  0  0  0  0  0  0  0  0  0
  183.9750  179.3240  139.0420 C   0  0  0  0  0  2  0  0  0  0  0  0
  184.9610  179.8090  139.9010 O   0  0  0  0  0  1  0  0  0  0  0  0
  1  4  2  0  0  0  0
  2 22  1  0  0  0  0
  2  4  1  0  0  0  0
  3 27  1  6  0  0  0
  3  7  1  0  0  0  0
  3  5  1  0  0  0  0
  4 17  1  0  0  0  0
  5  6  1  6  0  0  0
  5  1  1  0  0  0  0
  7  2  2  0  0  0  0
  8 13  1  0  0  0  0
  9 15  1  0  0  0  0
 10 15  1  0  0  0  0
 11  9  2  0  0  0  0
 11 18  1  0  0  0  0
 12 18  1  0  0  0  0
 14 13  1  0  0  0  0
 14 21  1  0  0  0  0
 15 14  2  0  0  0  0
 16 10  2  0  0  0  0
 17 16  1  0  0  0  0
 17  9  1  0  0  0  0
 18  8  2  0  0  0  0
 20 21  1  0  0  0  0
 21 19  1  0  0  0  0
 23 22  1  0  0  0  0
 24 25  1  0  0  0  0
 24 23  2  0  0  0  0
 26 25  1  0  0  0  0
 27 28  1  0  0  0  0
 28 29  1  0  0  0  0
 29 30  1  0  0  0  0
 31 30  1  6  0  0  0
 31 35  1  0  0  0  0
 31 34  1  0  0  0  0
 32 34  2  0  0  0  0
 34 33  1  0  0  0  0
 35 36  1  0  0  0  0
M  END
>  <MODEL>
4

>  <REMARK>
 VINA RESULT:      -6.7      4.196      9.021
  Name = 
  12 active torsions:
  status: ('A' for Active; 'I' for Inactive)
    1  A    between atoms: C_3  and  C_35
    2  A    between atoms: N_4  and  C_22
    3  A    between atoms: N_4  and  C_34
    4  A    between atoms: C_5  and  C_31
    5  A    between atoms: N_10  and  N_13
    6  A    between atoms: N_13  and  C_16
    7  A    between atoms: C_17  and  C_22
    8  A    between atoms: C_19  and  N_27
    9  A    between atoms: C_21  and  N_33
   10  A    between atoms: C_25  and  C_35
   11  A    between atoms: C_32  and  C_34
   12  A    between atoms: C_32  and  C_35
                            x       y       z     vdW  Elec       q    Type
                         _______ _______ _______ _____ _____    ______ ____

>  <TORSDO>
F 12

$$$$
=
 OpenBabel10232411253D

 36 38  0  0  1  0  0  0  0  0999 V2000
  186.4940  177.9690  142.5750 C   0  0  0  0  0  3  0  0  0  0  0  0
  187.7820  178.3520  140.5220 C   0  0  0  0  0  0  0  0  0  0  0  0
  188.8590  178.6970  142.7110 C   0  0  2  0  0  3  0  0  0  0  0  0
  186.4840  178.1980  141.2490 C   0  0  0  0  0  0  0  0  0  0  0  0
  187.7820  177.7840  143.3300 C   0  0  2  0  0  3  0  0  0  0  0  0
  188.1720  176.3130  143.2960 C   0  0  0  0  0  1  0  0  0  0  0  0
  188.9080  178.5660  141.2120 C   0  0  0  0  0  3  0  0  0  0  0  0
  181.4580  179.2450  142.8560 C   0  0  0  0  0  3  0  0  0  0  0  0
  183.9890  178.7490  141.2000 C   0  0  0  0  0  0  0  0  0  0  0  0
  183.7290  179.0510  138.9180 N   0  0  0  0  0  0  0  0  0  0  0  0
  183.8080  178.6430  142.4790 N   0  0  0  0  0  0  0  0  0  0  0  0
  182.8030  178.6950  144.6990 N   0  0  0  0  0  1  0  0  0  0  0  0
  181.0510  179.4960  141.5110 N   0  0  0  0  0  0  0  0  0  0  0  0
  181.7600  179.4910  140.2680 C   0  0  0  0  0  0  0  0  0  0  0  0
  183.0510  179.1400  140.1690 C   0  0  0  0  0  0  0  0  0  0  0  0
  185.1090  178.6310  139.1420 C   0  0  0  0  0  3  0  0  0  0  0  0
  185.2320  178.4280  140.5820 N   0  0  0  0  0  0  0  0  0  0  0  0
  182.6600  178.8800  143.2960 C   0  0  2  0  0  3  0  0  0  0  0  0
  180.2300  178.8410  138.3980 C   0  0  0  0  0  1  0  0  0  0  0  0
  180.8020  181.2380  138.7110 C   0  0  0  0  0  1  0  0  0  0  0  0
  181.0160  179.8490  139.0880 N   0  0  0  0  0  0  0  0  0  0  0  0
  187.8810  178.1940  139.1040 N   0  0  0  0  0  2  0  0  0  0  0  0
  188.5840  179.1020  138.2970 N   0  0  0  0  0  0  0  0  0  0  0  0
  189.1760  178.7320  137.2030 C   0  0  0  0  0  3  0  0  0  0  0  0
  189.1710  177.3150  136.7250 C   0  0  0  0  0  2  0  0  0  0  0  0
  190.4810  176.6380  137.0820 C   0  0  0  0  0  1  0  0  0  0  0  0
  190.2340  178.6160  143.3740 C   0  0  0  0  0  2  0  0  0  0  0  0
  191.0970  177.6580  142.6980 N   0  0  0  0  0  2  0  0  0  0  0  0
  191.5840  176.7350  143.7070 C   0  0  0  0  0  2  0  0  0  0  0  0
  191.4760  177.3730  145.0820 C   0  0  0  0  0  2  0  0  0  0  0  0
  190.8850  176.3910  146.0830 C   0  0  2  0  0  3  0  0  0  0  0  0
  188.9600  176.2910  147.6810 O   0  0  0  0  0  1  0  0  0  0  0  0
  189.4030  178.2070  146.5050 O   0  0  0  0  0  0  0  0  0  0  0  0
  189.7130  177.0160  146.7640 C   0  0  0  0  0  0  0  0  0  0  0  0
  191.9200  175.9800  147.1220 C   0  0  0  0  0  2  0  0  0  0  0  0
  192.1300  177.0170  148.0310 O   0  0  0  0  0  1  0  0  0  0  0  0
  1  5  1  0  0  0  0
  2  7  2  0  0  0  0
  2  4  1  0  0  0  0
  3  5  1  0  0  0  0
  3 27  1  1  0  0  0
  4  1  2  0  0  0  0
  5  6  1  6  0  0  0
  7  3  1  0  0  0  0
  8 18  1  0  0  0  0
  9 11  2  0  0  0  0
 10 16  2  0  0  0  0
 10 15  1  0  0  0  0
 11 18  1  0  0  0  0
 13  8  2  0  0  0  0
 14 13  1  0  0  0  0
 15 14  2  0  0  0  0
 15  9  1  0  0  0  0
 16 17  1  0  0  0  0
 17  9  1  0  0  0  0
 17  4  1  0  0  0  0
 18 12  1  6  0  0  0
 19 21  1  0  0  0  0
 20 21  1  0  0  0  0
 21 14  1  0  0  0  0
 22  2  1  0  0  0  0
 23 22  1  0  0  0  0
 24 23  2  0  0  0  0
 25 26  1  0  0  0  0
 25 24  1  0  0  0  0
 28 27  1  0  0  0  0
 28 29  1  0  0  0  0
 29 30  1  0  0  0  0
 31 30  1  6  0  0  0
 31 34  1  0  0  0  0
 31 35  1  0  0  0  0
 33 34  2  0  0  0  0
 34 32  1  0  0  0  0
 35 36  1  0  0  0  0
M  END
>  <MODEL>
5

>  <REMARK>
 VINA RESULT:      -6.7      2.350      3.506
  Name = 
  12 active torsions:
  status: ('A' for Active; 'I' for Inactive)
    1  A    between atoms: C_3  and  C_35
    2  A    between atoms: N_4  and  C_22
    3  A    between atoms: N_4  and  C_34
    4  A    between atoms: C_5  and  C_31
    5  A    between atoms: N_10  and  N_13
    6  A    between atoms: N_13  and  C_16
    7  A    between atoms: C_17  and  C_22
    8  A    between atoms: C_19  and  N_27
    9  A    between atoms: C_21  and  N_33
   10  A    between atoms: C_25  and  C_35
   11  A    between atoms: C_32  and  C_34
   12  A    between atoms: C_32  and  C_35
                            x       y       z     vdW  Elec       q    Type
                         _______ _______ _______ _____ _____    ______ ____

>  <TORSDO>
F 12

$$$$
=
 OpenBabel10232411253D

 36 38  0  0  1  0  0  0  0  0999 V2000
  189.6440  176.3760  137.0510 C   0  0  0  0  0  3  0  0  0  0  0  0
  189.7610  176.6810  139.4830 C   0  0  0  0  0  0  0  0  0  0  0  0
  188.0130  177.8470  138.1970 C   0  0  2  0  0  3  0  0  0  0  0  0
  190.3730  176.2810  138.1780 C   0  0  0  0  0  0  0  0  0  0  0  0
  188.2010  176.7990  137.0830 C   0  0  2  0  0  3  0  0  0  0  0  0
  187.3270  175.5680  137.2820 C   0  0  0  0  0  1  0  0  0  0  0  0
  188.6340  177.4010  139.4940 C   0  0  0  0  0  3  0  0  0  0  0  0
  193.1940  172.5460  135.5260 C   0  0  0  0  0  3  0  0  0  0  0  0
  192.3330  174.9150  137.2700 C   0  0  0  0  0  0  0  0  0  0  0  0
  194.0790  176.1640  138.1390 N   0  0  0  0  0  0  0  0  0  0  0  0
  191.6040  174.0280  136.6680 N   0  0  0  0  0  0  0  0  0  0  0  0
  190.8930  172.1440  135.2950 N   0  0  0  0  0  1  0  0  0  0  0  0
  194.4230  173.1490  135.9290 N   0  0  0  0  0  2  0  0  0  0  0  0
  194.7220  174.3130  136.7050 C   0  0  0  0  0  0  0  0  0  0  0  0
  193.7740  175.0570  137.2940 C   0  0  0  0  0  0  0  0  0  0  0  0
  192.8400  176.7520  138.6370 C   0  0  0  0  0  3  0  0  0  0  0  0
  191.7650  175.9310  138.0910 N   0  0  0  0  0  0  0  0  0  0  0  0
  191.9550  172.9220  135.8330 C   0  0  0  0  0  0  0  0  0  0  0  0
  196.8870  174.0190  137.9240 C   0  0  0  0  0  1  0  0  0  0  0  0
  196.8420  175.3990  135.8580 C   0  0  0  0  0  1  0  0  0  0  0  0
  196.1120  174.6510  136.8710 N   0  0  0  0  0  0  0  0  0  0  0  0
  190.2950  176.2460  140.7360 N   0  0  0  0  0  2  0  0  0  0  0  0
  190.6560  177.1460  141.7500 N   0  0  0  0  0  0  0  0  0  0  0  0
  190.0610  177.1570  142.9030 C   0  0  0  0  0  3  0  0  0  0  0  0
  188.9390  176.2270  143.2380 C   0  0  0  0  0  2  0  0  0  0  0  0
  187.6130  176.9610  143.1700 C   0  0  0  0  0  1  0  0  0  0  0  0
  186.5860  178.3730  138.3550 C   0  0  0  0  0  2  0  0  0  0  0  0
  186.2960  178.7230  139.7390 N   0  0  0  0  0  2  0  0  0  0  0  0
  184.8560  178.6510  139.9050 C   0  0  0  0  0  2  0  0  0  0  0  0
  184.5240  178.1600  141.3040 C   0  0  0  0  0  2  0  0  0  0  0  0
  183.3160  178.9010  141.8600 C   0  0  2  0  0  3  0  0  0  0  0  0
  184.4170  178.4330  144.0590 O   0  0  0  0  0  1  0  0  0  0  0  0
  182.1700  178.8680  143.9460 O   0  0  0  0  0  0  0  0  0  0  0  0
  183.2650  178.7350  143.3420 C   0  0  0  0  0  0  0  0  0  0  0  0
  182.0250  178.3800  141.2430 C   0  0  0  0  0  2  0  0  0  0  0  0
  181.3700  179.4040  140.5580 O   0  0  0  0  0  1  0  0  0  0  0  0
  1  5  1  0  0  0  0
  1  4  2  0  0  0  0
  2  7  2  0  0  0  0
  2 22  1  0  0  0  0
  3 27  1  1  0  0  0
  3  7  1  0  0  0  0
  4  2  1  0  0  0  0
  5  6  1  1  0  0  0
  5  3  1  0  0  0  0
  8 18  2  0  0  0  0
  8 13  1  0  0  0  0
  9 15  1  0  0  0  0
  9 17  1  0  0  0  0
 10 16  2  0  0  0  0
 11  9  2  0  0  0  0
 12 18  1  0  0  0  0
 13 14  1  0  0  0  0
 14 21  1  0  0  0  0
 14 15  2  0  0  0  0
 15 10  1  0  0  0  0
 17  4  1  0  0  0  0
 17 16  1  0  0  0  0
 18 11  1  0  0  0  0
 20 21  1  0  0  0  0
 21 19  1  0  0  0  0
 22 23  1  0  0  0  0
 23 24  2  0  0  0  0
 24 25  1  0  0  0  0
 26 25  1  0  0  0  0
 27 28  1  0  0  0  0
 28 29  1  0  0  0  0
 29 30  1  0  0  0  0
 30 31  1  0  0  0  0
 31 35  1  6  0  0  0
 31 34  1  0  0  0  0
 34 33  2  0  0  0  0
 34 32  1  0  0  0  0
 36 35  1  0  0  0  0
M  END
>  <MODEL>
6

>  <REMARK>
 VINA RESULT:      -6.2      5.714     10.661
  Name = 
  12 active torsions:
  status: ('A' for Active; 'I' for Inactive)
    1  A    between atoms: C_3  and  C_35
    2  A    between atoms: N_4  and  C_22
    3  A    between atoms: N_4  and  C_34
    4  A    between atoms: C_5  and  C_31
    5  A    between atoms: N_10  and  N_13
    6  A    between atoms: N_13  and  C_16
    7  A    between atoms: C_17  and  C_22
    8  A    between atoms: C_19  and  N_27
    9  A    between atoms: C_21  and  N_33
   10  A    between atoms: C_25  and  C_35
   11  A    between atoms: C_32  and  C_34
   12  A    between atoms: C_32  and  C_35
                            x       y       z     vdW  Elec       q    Type
                         _______ _______ _______ _____ _____    ______ ____

>  <TORSDO>
F 12

$$$$
=
 OpenBabel10232411253D

 36 38  0  0  1  0  0  0  0  0999 V2000
  189.8990  176.1660  136.4510 C   0  0  0  0  0  3  0  0  0  0  0  0
  189.8310  176.6580  138.8530 C   0  0  0  0  0  0  0  0  0  0  0  0
  188.2470  177.7850  137.3390 C   0  0  2  0  0  3  0  0  0  0  0  0
  190.5290  176.1330  137.6390 C   0  0  0  0  0  0  0  0  0  0  0  0
  188.4780  176.6440  136.3280 C   0  0  2  0  0  3  0  0  0  0  0  0
  187.5370  175.4680  136.5460 C   0  0  0  0  0  1  0  0  0  0  0  0
  188.7400  177.4200  138.7140 C   0  0  0  0  0  3  0  0  0  0  0  0
  193.4160  172.1780  135.4120 C   0  0  0  0  0  3  0  0  0  0  0  0
  192.5020  174.6520  136.9740 C   0  0  0  0  0  0  0  0  0  0  0  0
  194.2140  175.8660  137.9540 N   0  0  0  0  0  0  0  0  0  0  0  0
  191.7940  173.7690  136.3410 N   0  0  0  0  0  0  0  0  0  0  0  0
  191.1310  171.8590  134.9810 N   0  0  0  0  0  1  0  0  0  0  0  0
  194.6280  172.7480  135.9050 N   0  0  0  0  0  2  0  0  0  0  0  0
  194.9050  173.9310  136.6600 C   0  0  0  0  0  0  0  0  0  0  0  0
  193.9400  174.7370  137.1280 C   0  0  0  0  0  0  0  0  0  0  0  0
  192.9610  176.5250  138.3100 C   0  0  0  0  0  3  0  0  0  0  0  0
  191.9060  175.7240  137.6980 N   0  0  0  0  0  0  0  0  0  0  0  0
  192.1720  172.6160  135.5860 C   0  0  0  0  0  0  0  0  0  0  0  0
  196.9220  173.6340  138.1100 C   0  0  0  0  0  1  0  0  0  0  0  0
  197.1500  174.8600  135.9610 C   0  0  0  0  0  1  0  0  0  0  0  0
  196.2870  174.2210  136.9430 N   0  0  0  0  0  0  0  0  0  0  0  0
  190.2410  176.3040  140.1770 N   0  0  0  0  0  2  0  0  0  0  0  0
  190.7820  177.2420  141.0700 N   0  0  0  0  0  0  0  0  0  0  0  0
  190.6310  177.1340  142.3540 C   0  0  0  0  0  3  0  0  0  0  0  0
  189.8620  176.0160  142.9830 C   0  0  0  0  0  2  0  0  0  0  0  0
  188.5990  176.5510  143.6300 C   0  0  0  0  0  1  0  0  0  0  0  0
  186.8380  178.3750  137.3350 C   0  0  0  0  0  2  0  0  0  0  0  0
  186.2940  178.4700  138.6830 N   0  0  0  0  0  2  0  0  0  0  0  0
  184.8510  178.3620  138.5710 C   0  0  0  0  0  2  0  0  0  0  0  0
  184.1880  179.1700  139.6740 C   0  0  0  0  0  2  0  0  0  0  0  0
  183.8160  178.2740  140.8460 C   0  0  2  0  0  3  0  0  0  0  0  0
  181.8340  178.9260  142.2290 O   0  0  0  0  0  1  0  0  0  0  0  0
  181.5570  177.8510  140.2250 O   0  0  0  0  0  0  0  0  0  0  0  0
  182.3440  178.3370  141.0780 C   0  0  0  0  0  0  0  0  0  0  0  0
  184.5510  178.6960  142.1110 C   0  0  0  0  0  2  0  0  0  0  0  0
  185.6030  179.5560  141.7950 O   0  0  0  0  0  1  0  0  0  0  0  0
  1  4  2  0  0  0  0
  2 22  1  0  0  0  0
  3 27  1  1  0  0  0
  3  7  1  0  0  0  0
  4 17  1  0  0  0  0
  4  2  1  0  0  0  0
  5  1  1  0  0  0  0
  5  6  1  1  0  0  0
  5  3  1  0  0  0  0
  7  2  2  0  0  0  0
  8 18  2  0  0  0  0
  8 13  1  0  0  0  0
  9 15  1  0  0  0  0
  9 17  1  0  0  0  0
 10 16  2  0  0  0  0
 11  9  2  0  0  0  0
 12 18  1  0  0  0  0
 13 14  1  0  0  0  0
 14 21  1  0  0  0  0
 14 15  2  0  0  0  0
 15 10  1  0  0  0  0
 17 16  1  0  0  0  0
 18 11  1  0  0  0  0
 20 21  1  0  0  0  0
 21 19  1  0  0  0  0
 22 23  1  0  0  0  0
 23 24  2  0  0  0  0
 24 25  1  0  0  0  0
 25 26  1  0  0  0  0
 27 28  1  0  0  0  0
 29 28  1  0  0  0  0
 29 30  1  0  0  0  0
 31 30  1  6  0  0  0
 31 34  1  0  0  0  0
 31 35  1  0  0  0  0
 33 34  2  0  0  0  0
 34 32  1  0  0  0  0
 36 35  1  0  0  0  0
M  END
>  <MODEL>
7

>  <REMARK>
 VINA RESULT:      -6.2      5.996     11.009
  Name = 
  12 active torsions:
  status: ('A' for Active; 'I' for Inactive)
    1  A    between atoms: C_3  and  C_35
    2  A    between atoms: N_4  and  C_22
    3  A    between atoms: N_4  and  C_34
    4  A    between atoms: C_5  and  C_31
    5  A    between atoms: N_10  and  N_13
    6  A    between atoms: N_13  and  C_16
    7  A    between atoms: C_17  and  C_22
    8  A    between atoms: C_19  and  N_27
    9  A    between atoms: C_21  and  N_33
   10  A    between atoms: C_25  and  C_35
   11  A    between atoms: C_32  and  C_34
   12  A    between atoms: C_32  and  C_35
                            x       y       z     vdW  Elec       q    Type
                         _______ _______ _______ _____ _____    ______ ____

>  <TORSDO>
F 12

$$$$
=
 OpenBabel10232411253D

 36 38  0  0  1  0  0  0  0  0999 V2000
  190.7400  176.8130  141.4270 C   0  0  0  0  0  3  0  0  0  0  0  0
  189.5530  177.9960  139.6350 C   0  0  0  0  0  0  0  0  0  0  0  0
  188.3940  177.5380  141.7600 C   0  0  2  0  0  3  0  0  0  0  0  0
  190.6650  177.1210  140.1190 C   0  0  0  0  0  0  0  0  0  0  0  0
  189.7770  177.3920  142.4260 C   0  0  2  0  0  3  0  0  0  0  0  0
  190.3250  178.7190  142.9340 C   0  0  0  0  0  1  0  0  0  0  0  0
  188.4900  178.2120  140.4170 C   0  0  0  0  0  3  0  0  0  0  0  0
  190.1300  173.6850  136.0150 C   0  0  0  0  0  3  0  0  0  0  0  0
  191.2170  175.6340  138.1160 C   0  0  0  0  0  0  0  0  0  0  0  0
  193.4580  176.1680  137.8740 N   0  0  0  0  0  0  0  0  0  0  0  0
  190.0280  175.1320  137.9950 N   0  0  0  0  0  0  0  0  0  0  0  0
  188.0960  173.9000  137.1660 N   0  0  0  0  0  1  0  0  0  0  0  0
  191.5000  173.8580  135.6550 N   0  0  0  0  0  0  0  0  0  0  0  0
  192.5470  174.6710  136.1930 C   0  0  0  0  0  0  0  0  0  0  0  0
  192.3890  175.4280  137.2900 C   0  0  0  0  0  0  0  0  0  0  0  0
  192.9730  176.8710  139.0580 C   0  0  0  0  0  3  0  0  0  0  0  0
  191.5700  176.4960  139.1940 N   0  0  0  0  0  0  0  0  0  0  0  0
  189.4690  174.2400  137.0280 C   0  0  2  0  0  3  0  0  0  0  0  0
  194.7350  173.5250  135.7950 C   0  0  0  0  0  1  0  0  0  0  0  0
  194.1260  175.4850  134.3940 C   0  0  0  0  0  1  0  0  0  0  0  0
  193.8230  174.6230  135.5270 N   0  0  0  0  0  0  0  0  0  0  0  0
  189.6200  178.6870  138.3840 N   0  0  0  0  0  2  0  0  0  0  0  0
  188.4990  179.3010  137.8070 N   0  0  0  0  0  0  0  0  0  0  0  0
  187.9130  178.8140  136.7560 C   0  0  0  0  0  3  0  0  0  0  0  0
  188.3920  177.5730  136.0720 C   0  0  0  0  0  2  0  0  0  0  0  0
  187.9580  177.5780  134.6180 C   0  0  0  0  0  1  0  0  0  0  0  0
  187.3030  178.1220  142.6570 C   0  0  0  0  0  2  0  0  0  0  0  0
  185.9860  177.6180  142.2950 N   0  0  0  0  0  2  0  0  0  0  0  0
  185.1620  178.7690  141.9730 C   0  0  0  0  0  2  0  0  0  0  0  0
  185.0060  178.8850  140.4660 C   0  0  0  0  0  2  0  0  0  0  0  0
  183.5520  178.6960  140.0600 C   0  0  2  0  0  3  0  0  0  0  0  0
  183.8460  177.2730  138.0220 O   0  0  0  0  0  0  0  0  0  0  0  0
  182.8600  176.4230  139.9070 O   0  0  0  0  0  1  0  0  0  0  0  0
  183.4000  177.4030  139.3320 C   0  0  0  0  0  0  0  0  0  0  0  0
  183.0780  179.8400  139.1750 C   0  0  0  0  0  2  0  0  0  0  0  0
  184.1470  180.6760  138.8510 O   0  0  0  0  0  1  0  0  0  0  0  0
  1  5  1  0  0  0  0
  2  4  1  0  0  0  0
  2  7  2  0  0  0  0
  3  5  1  0  0  0  0
  3 27  1  1  0  0  0
  4  1  2  0  0  0  0
  5  6  1  6  0  0  0
  7  3  1  0  0  0  0
  8 18  1  0  0  0  0
  9 17  1  0  0  0  0
 10 16  2  0  0  0  0
 11  9  2  0  0  0  0
 13  8  2  0  0  0  0
 13 14  1  0  0  0  0
 14 15  2  0  0  0  0
 15 10  1  0  0  0  0
 15  9  1  0  0  0  0
 16 17  1  0  0  0  0
 17  4  1  0  0  0  0
 18 12  1  1  0  0  0
 18 11  1  0  0  0  0
 20 21  1  0  0  0  0
 21 19  1  0  0  0  0
 21 14  1  0  0  0  0
 22  2  1  0  0  0  0
 23 22  1  0  0  0  0
 24 23  2  0  0  0  0
 25 24  1  0  0  0  0
 26 25  1  0  0  0  0
 28 27  1  0  0  0  0
 29 28  1  0  0  0  0
 30 29  1  0  0  0  0
 31 35  1  6  0  0  0
 31 30  1  0  0  0  0
 32 34  2  0  0  0  0
 34 33  1  0  0  0  0
 34 31  1  0  0  0  0
 36 35  1  0  0  0  0
M  END
>  <MODEL>
8

>  <REMARK>
 VINA RESULT:      -6.1      5.360      9.544
  Name = 
  12 active torsions:
  status: ('A' for Active; 'I' for Inactive)
    1  A    between atoms: C_3  and  C_35
    2  A    between atoms: N_4  and  C_22
    3  A    between atoms: N_4  and  C_34
    4  A    between atoms: C_5  and  C_31
    5  A    between atoms: N_10  and  N_13
    6  A    between atoms: N_13  and  C_16
    7  A    between atoms: C_17  and  C_22
    8  A    between atoms: C_19  and  N_27
    9  A    between atoms: C_21  and  N_33
   10  A    between atoms: C_25  and  C_35
   11  A    between atoms: C_32  and  C_34
   12  A    between atoms: C_32  and  C_35
                            x       y       z     vdW  Elec       q    Type
                         _______ _______ _______ _____ _____    ______ ____

>  <TORSDO>
F 12

$$$$
=
 OpenBabel10232411253D

 36 38  0  0  1  0  0  0  0  0999 V2000
  185.9800  178.0250  144.0690 C   0  0  0  0  0  3  0  0  0  0  0  0
  186.9600  178.4350  141.8570 C   0  0  0  0  0  0  0  0  0  0  0  0
  184.5450  177.9840  142.0500 C   0  0  2  0  0  3  0  0  0  0  0  0
  187.0850  178.0690  143.3020 C   0  0  0  0  0  0  0  0  0  0  0  0
  184.6320  178.4150  143.5270 C   0  0  2  0  0  3  0  0  0  0  0  0
  184.4350  179.9120  143.7140 C   0  0  0  0  0  1  0  0  0  0  0  0
  185.7580  178.4170  141.2700 C   0  0  0  0  0  3  0  0  0  0  0  0
  189.1430  177.6600  148.2550 C   0  0  0  0  0  3  0  0  0  0  0  0
  188.6820  177.5460  145.2270 C   0  0  0  0  0  0  0  0  0  0  0  0
  190.3560  176.4820  144.0320 N   0  0  0  0  0  0  0  0  0  0  0  0
  187.9510  178.0850  146.1520 N   0  0  0  0  0  0  0  0  0  0  0  0
  187.0930  178.8010  148.3170 N   0  0  0  0  0  1  0  0  0  0  0  0
  190.2840  176.9650  147.7540 N   0  0  0  0  0  2  0  0  0  0  0  0
  190.6590  176.5400  146.4400 C   0  0  0  0  0  0  0  0  0  0  0  0
  189.9350  176.8300  145.3480 C   0  0  0  0  0  0  0  0  0  0  0  0
  189.3660  176.9470  143.0650 C   0  0  0  0  0  3  0  0  0  0  0  0
  188.3410  177.6300  143.8460 N   0  0  0  0  0  0  0  0  0  0  0  0
  188.1110  178.1470  147.5710 C   0  0  0  0  0  0  0  0  0  0  0  0
  192.7320  175.6030  147.4820 C   0  0  0  0  0  1  0  0  0  0  0  0
  192.1940  175.0190  145.1280 C   0  0  0  0  0  1  0  0  0  0  0  0
  191.8900  175.8040  146.3150 N   0  0  0  0  0  0  0  0  0  0  0  0
  188.0780  178.8900  141.0900 N   0  0  0  0  0  2  0  0  0  0  0  0
  188.1180  178.7880  139.6910 N   0  0  0  0  0  0  0  0  0  0  0  0
  189.1060  178.2160  139.0730 C   0  0  0  0  0  3  0  0  0  0  0  0
  190.2810  177.6380  139.7950 C   0  0  0  0  0  2  0  0  0  0  0  0
  190.9140  176.5370  138.9650 C   0  0  0  0  0  1  0  0  0  0  0  0
  183.2250  178.3180  141.3560 C   0  0  0  0  0  2  0  0  0  0  0  0
  183.4350  179.1590  140.1850 N   0  0  0  0  0  2  0  0  0  0  0  0
  182.4210  178.7960  139.2120 C   0  0  0  0  0  2  0  0  0  0  0  0
  183.0820  178.4180  137.8970 C   0  0  0  0  0  2  0  0  0  0  0  0
  184.0270  177.2410  138.0890 C   0  0  2  0  0  3  0  0  0  0  0  0
  186.2190  176.6490  137.0360 O   0  0  0  0  0  0  0  0  0  0  0  0
  185.7940  178.7940  137.7220 O   0  0  0  0  0  1  0  0  0  0  0  0
  185.3900  177.6080  137.6080 C   0  0  0  0  0  0  0  0  0  0  0  0
  183.5320  176.0140  137.3360 C   0  0  0  0  0  2  0  0  0  0  0  0
  183.7330  174.8640  138.0990 O   0  0  0  0  0  1  0  0  0  0  0  0
  2  4  1  0  0  0  0
  3 27  1  6  0  0  0
  3  5  1  0  0  0  0
  4 17  1  0  0  0  0
  4  1  2  0  0  0  0
  5  6  1  6  0  0  0
  5  1  1  0  0  0  0
  7  2  2  0  0  0  0
  7  3  1  0  0  0  0
  9 15  1  0  0  0  0
  9 11  2  0  0  0  0
 10 15  1  0  0  0  0
 11 18  1  0  0  0  0
 13  8  1  0  0  0  0
 14 13  1  0  0  0  0
 15 14  2  0  0  0  0
 16 17  1  0  0  0  0
 16 10  2  0  0  0  0
 17  9  1  0  0  0  0
 18  8  2  0  0  0  0
 18 12  1  0  0  0  0
 20 21  1  0  0  0  0
 21 14  1  0  0  0  0
 21 19  1  0  0  0  0
 22  2  1  0  0  0  0
 23 22  1  0  0  0  0
 24 23  2  0  0  0  0
 24 25  1  0  0  0  0
 26 25  1  0  0  0  0
 28 27  1  0  0  0  0
 29 28  1  0  0  0  0
 30 31  1  0  0  0  0
 30 29  1  0  0  0  0
 31 35  1  6  0  0  0
 32 34  2  0  0  0  0
 34 33  1  0  0  0  0
 34 31  1  0  0  0  0
 35 36  1  0  0  0  0
M  END
>  <MODEL>
9

>  <REMARK>
 VINA RESULT:      -6.1      3.665      8.583
  Name = 
  12 active torsions:
  status: ('A' for Active; 'I' for Inactive)
    1  A    between atoms: C_3  and  C_35
    2  A    between atoms: N_4  and  C_22
    3  A    between atoms: N_4  and  C_34
    4  A    between atoms: C_5  and  C_31
    5  A    between atoms: N_10  and  N_13
    6  A    between atoms: N_13  and  C_16
    7  A    between atoms: C_17  and  C_22
    8  A    between atoms: C_19  and  N_27
    9  A    between atoms: C_21  and  N_33
   10  A    between atoms: C_25  and  C_35
   11  A    between atoms: C_32  and  C_34
   12  A    between atoms: C_32  and  C_35
                            x       y       z     vdW  Elec       q    Type
                         _______ _______ _______ _____ _____    ______ ____

>  <TORSDO>
F 12

$$$$
