=
 OpenBabel10232407483D

 32 33  0  0  1  0  0  0  0  0999 V2000
  189.0310  179.2750  138.6380 O   0  0  0  0  0  1  0  0  0  0  0  0
  188.6650  178.4240  139.6890 C   0  0  1  0  0  3  0  0  0  0  0  0
  187.2080  178.4170  139.8370 N   0  0  0  0  0  2  0  0  0  0  0  0
  186.8400  178.7350  141.2140 C   0  0  0  0  0  2  0  0  0  0  0  0
  185.3720  179.1280  141.2870 C   0  0  1  0  0  3  0  0  0  0  0  0
  183.4120  177.8740  140.3940 C   0  0  0  0  0  1  0  0  0  0  0  0
  184.6580  178.6570  140.0300 C   0  0  0  0  0  2  0  0  0  0  0  0
  184.7320  178.4970  142.5160 C   0  0  0  0  0  2  0  0  0  0  0  0
  184.9190  179.3810  143.7370 C   0  0  0  0  0  2  0  0  0  0  0  0
  185.2470  178.5330  144.9500 C   0  0  0  0  0  2  0  0  0  0  0  0
  186.6810  178.3170  145.0160 N   0  0  0  0  0  2  0  0  0  0  0  0
  187.9790  178.1820  148.2870 C   0  0  0  0  0  2  0  0  0  0  0  0
  188.2600  177.0820  146.2130 O   0  0  0  0  0  0  0  0  0  0  0  0
  186.9450  177.5750  146.2370 C   0  0  1  0  0  3  0  0  0  0  0  0
  188.6770  177.0640  147.5530 C   0  0  1  0  0  3  0  0  0  0  0  0
  186.7890  178.4900  147.4290 C   0  0  0  0  0  2  0  0  0  0  0  0
  190.1770  177.2730  147.6210 C   0  0  0  0  0  1  0  0  0  0  0  0
  189.2430  177.0010  139.5060 C   0  0  2  0  0  3  0  0  0  0  0  0
  190.2650  176.6230  140.6060 C   0  0  2  0  0  3  0  0  0  0  0  0
  189.4830  176.4780  142.2520 S   0  0  0  0  0  0  0  0  0  0  0  0
  191.3480  176.4100  144.2550 C   0  0  0  0  0  1  0  0  0  0  0  0
  191.3960  177.6260  140.7390 C   0  0  0  0  0  2  0  0  0  0  0  0
  190.9050  177.2570  143.0810 C   0  0  1  0  0  3  0  0  0  0  0  0
  192.0330  177.3820  142.0830 C   0  0  0  0  0  2  0  0  0  0  0  0
  189.7920  176.8240  138.0660 C   0  0  2  0  0  3  0  0  0  0  0  0
  189.1110  177.0770  135.6390 C   0  0  0  0  0  1  0  0  0  0  0  0
  188.6750  176.6160  137.0320 C   0  0  1  0  0  3  0  0  0  0  0  0
  188.2130  174.7290  135.7150 N   0  0  0  0  0  1  0  0  0  0  0  0
  186.9080  175.2210  137.4450 O   0  0  0  0  0  1  0  0  0  0  0  0
  188.2000  175.2240  137.0300 N   0  0  0  0  0  0  0  0  0  0  0  0
  192.0310  176.0390  137.3860 C   0  0  0  0  0  2  0  0  0  0  0  0
  190.8640  175.7720  137.9620 C   0  0  0  0  0  3  0  0  0  0  0  0
  2  1  1  6  0  0  0
  2  3  1  0  0  0  0
  3  4  1  0  0  0  0
  4  5  1  0  0  0  0
  5  7  1  6  0  0  0
  5  8  1  0  0  0  0
  7  6  1  0  0  0  0
  8  9  1  0  0  0  0
  9 10  1  0  0  0  0
 10 11  1  0  0  0  0
 13 14  1  0  0  0  0
 13 15  1  0  0  0  0
 14 11  1  6  0  0  0
 14 16  1  0  0  0  0
 15 17  1  6  0  0  0
 15 12  1  0  0  0  0
 16 12  1  0  0  0  0
 18 25  1  6  0  0  0
 18  2  1  0  0  0  0
 19 18  1  6  0  0  0
 19 22  1  0  0  0  0
 19 20  1  0  0  0  0
 20 23  1  0  0  0  0
 22 24  1  0  0  0  0
 23 21  1  1  0  0  0
 24 23  1  0  0  0  0
 25 32  1  1  0  0  0
 27 26  1  6  0  0  0
 27 25  1  0  0  0  0
 28 30  1  0  0  0  0
 30 27  1  0  0  0  0
 30 29  1  0  0  0  0
 31 32  2  0  0  0  0
M  END
>  <MODEL>
1

>  <REMARK>
 VINA RESULT:      -6.6      0.000      0.000
  Name = 
  15 active torsions:
  status: ('A' for Active; 'I' for Inactive)
    1  A    between atoms: C_1  and  C_19
    2  A    between atoms: C_2  and  C_6
    3  A    between atoms: C_2  and  C_7
    4  A    between atoms: C_2  and  C_8
    5  A    between atoms: N_3  and  C_6
    6  A    between atoms: N_3  and  C_31
    7  A    between atoms: C_8  and  C_26
    8  A    between atoms: N_12  and  C_13
    9  A    between atoms: N_12  and  C_16
   10  A    between atoms: C_13  and  C_26
   11  A    between atoms: C_19  and  C_22
   12  A    between atoms: C_19  and  C_31
   13  A    between atoms: N_20  and  C_27
   14  A    between atoms: C_22  and  C_27
   15  A    between atoms: C_22  and  C_30
                            x       y       z     vdW  Elec       q    Type
                         _______ _______ _______ _____ _____    ______ ____

>  <TORSDO>
F 15

$$$$
=
 OpenBabel10232407483D

 32 33  0  0  1  0  0  0  0  0999 V2000
  184.2560  180.2010  139.1490 O   0  0  0  0  0  1  0  0  0  0  0  0
  184.5320  178.8800  139.5260 C   0  0  1  0  0  3  0  0  0  0  0  0
  184.2970  178.7150  140.9630 N   0  0  0  0  0  2  0  0  0  0  0  0
  185.4830  179.1120  141.7160 C   0  0  0  0  0  2  0  0  0  0  0  0
  185.1970  179.0610  143.2090 C   0  0  1  0  0  3  0  0  0  0  0  0
  183.3680  178.9620  144.8990 C   0  0  0  0  0  1  0  0  0  0  0  0
  183.7170  178.7970  143.4330 C   0  0  0  0  0  2  0  0  0  0  0  0
  186.0260  177.9580  143.8530 C   0  0  0  0  0  2  0  0  0  0  0  0
  187.1470  177.5140  142.9300 C   0  0  0  0  0  2  0  0  0  0  0  0
  188.1160  176.6200  143.6770 C   0  0  0  0  0  2  0  0  0  0  0  0
  188.2580  177.0950  145.0420 N   0  0  0  0  0  2  0  0  0  0  0  0
  191.6890  176.3080  144.9500 C   0  0  0  0  0  2  0  0  0  0  0  0
  190.0870  177.1080  146.4930 O   0  0  0  0  0  0  0  0  0  0  0  0
  189.6460  177.4880  145.2150 C   0  0  1  0  0  3  0  0  0  0  0  0
  191.4530  176.8230  146.3480 C   0  0  1  0  0  3  0  0  0  0  0  0
  190.5010  176.7970  144.1790 C   0  0  0  0  0  2  0  0  0  0  0  0
  191.8610  175.7650  147.3540 C   0  0  0  0  0  1  0  0  0  0  0  0
  183.7340  177.8610  138.6800 C   0  0  2  0  0  3  0  0  0  0  0  0
  184.4940  177.4120  137.4080 C   0  0  2  0  0  3  0  0  0  0  0  0
  184.4200  175.6030  137.1630 S   0  0  0  0  0  0  0  0  0  0  0  0
  186.2330  174.7600  135.2940 C   0  0  0  0  0  1  0  0  0  0  0  0
  185.9620  177.7980  137.4250 C   0  0  0  0  0  2  0  0  0  0  0  0
  186.1480  175.5310  136.5930 C   0  0  1  0  0  3  0  0  0  0  0  0
  186.6430  176.9440  136.3870 C   0  0  0  0  0  2  0  0  0  0  0  0
  182.3090  178.4000  138.3900 C   0  0  2  0  0  3  0  0  0  0  0  0
  181.7760  176.3250  139.7430 C   0  0  0  0  0  1  0  0  0  0  0  0
  181.2190  177.6180  139.1410 C   0  0  1  0  0  3  0  0  0  0  0  0
  181.0050  179.7830  140.0190 N   0  0  0  0  0  1  0  0  0  0  0  0
  180.9450  178.0250  141.3760 O   0  0  0  0  0  1  0  0  0  0  0  0
  180.5580  178.4580  140.1510 N   0  0  0  0  0  0  0  0  0  0  0  0
  181.1420  179.4290  136.4740 C   0  0  0  0  0  2  0  0  0  0  0  0
  182.0060  178.5230  136.9210 C   0  0  0  0  0  3  0  0  0  0  0  0
  2  1  1  6  0  0  0
  2  3  1  0  0  0  0
  3  4  1  0  0  0  0
  5  4  1  6  0  0  0
  5  7  1  0  0  0  0
  5  8  1  0  0  0  0
  7  6  1  0  0  0  0
  9 10  1  0  0  0  0
  9  8  1  0  0  0  0
 10 11  1  0  0  0  0
 12 15  1  0  0  0  0
 14 11  1  6  0  0  0
 14 13  1  0  0  0  0
 15 13  1  0  0  0  0
 15 17  1  1  0  0  0
 16 12  1  0  0  0  0
 16 14  1  0  0  0  0
 18 25  1  6  0  0  0
 18  2  1  0  0  0  0
 19 22  1  0  0  0  0
 19 18  1  1  0  0  0
 20 19  1  0  0  0  0
 23 21  1  6  0  0  0
 23 20  1  0  0  0  0
 24 23  1  0  0  0  0
 24 22  1  0  0  0  0
 25 32  1  6  0  0  0
 25 27  1  0  0  0  0
 27 26  1  1  0  0  0
 27 30  1  0  0  0  0
 28 30  1  0  0  0  0
 30 29  1  0  0  0  0
 31 32  2  0  0  0  0
M  END
>  <MODEL>
2

>  <REMARK>
 VINA RESULT:      -6.5      3.635      6.257
  Name = 
  15 active torsions:
  status: ('A' for Active; 'I' for Inactive)
    1  A    between atoms: C_1  and  C_19
    2  A    between atoms: C_2  and  C_6
    3  A    between atoms: C_2  and  C_7
    4  A    between atoms: C_2  and  C_8
    5  A    between atoms: N_3  and  C_6
    6  A    between atoms: N_3  and  C_31
    7  A    between atoms: C_8  and  C_26
    8  A    between atoms: N_12  and  C_13
    9  A    between atoms: N_12  and  C_16
   10  A    between atoms: C_13  and  C_26
   11  A    between atoms: C_19  and  C_22
   12  A    between atoms: C_19  and  C_31
   13  A    between atoms: N_20  and  C_27
   14  A    between atoms: C_22  and  C_27
   15  A    between atoms: C_22  and  C_30
                            x       y       z     vdW  Elec       q    Type
                         _______ _______ _______ _____ _____    ______ ____

>  <TORSDO>
F 15

$$$$
=
 OpenBabel10232407483D

 32 33  0  0  1  0  0  0  0  0999 V2000
  184.3220  180.3080  138.9340 O   0  0  0  0  0  1  0  0  0  0  0  0
  184.4860  179.0340  139.4940 C   0  0  1  0  0  3  0  0  0  0  0  0
  184.0760  179.0540  140.9000 N   0  0  0  0  0  2  0  0  0  0  0  0
  185.2470  179.1600  141.7650 C   0  0  0  0  0  2  0  0  0  0  0  0
  185.2570  178.0230  142.7760 C   0  0  1  0  0  3  0  0  0  0  0  0
  187.6750  178.1220  142.1780 C   0  0  0  0  0  1  0  0  0  0  0  0
  186.6770  177.7970  143.2710 C   0  0  0  0  0  2  0  0  0  0  0  0
  184.3470  178.3680  143.9470 C   0  0  0  0  0  2  0  0  0  0  0  0
  185.0920  179.1870  144.9880 C   0  0  0  0  0  2  0  0  0  0  0  0
  185.1270  178.4440  146.3080 C   0  0  0  0  0  2  0  0  0  0  0  0
  186.2030  178.9700  147.1300 N   0  0  0  0  0  2  0  0  0  0  0  0
  189.4110  177.7730  147.9540 C   0  0  0  0  0  2  0  0  0  0  0  0
  187.7950  177.5060  146.2500 O   0  0  0  0  0  0  0  0  0  0  0  0
  187.1000  177.8630  147.4170 C   0  0  1  0  0  3  0  0  0  0  0  0
  189.0450  177.0430  146.6860 C   0  0  1  0  0  3  0  0  0  0  0  0
  188.0990  178.2810  148.4700 C   0  0  0  0  0  2  0  0  0  0  0  0
  190.0890  177.3210  145.6220 C   0  0  0  0  0  1  0  0  0  0  0  0
  183.7440  177.9480  138.6820 C   0  0  2  0  0  3  0  0  0  0  0  0
  184.5430  177.4750  137.4430 C   0  0  2  0  0  3  0  0  0  0  0  0
  184.4630  175.6630  137.2210 S   0  0  0  0  0  0  0  0  0  0  0  0
  186.3310  174.7800  135.4270 C   0  0  0  0  0  1  0  0  0  0  0  0
  186.0120  177.8500  137.5030 C   0  0  0  0  0  2  0  0  0  0  0  0
  186.2080  175.5700  136.7110 C   0  0  1  0  0  3  0  0  0  0  0  0
  186.7210  176.9770  136.5010 C   0  0  0  0  0  2  0  0  0  0  0  0
  182.3040  178.4160  138.3460 C   0  0  2  0  0  3  0  0  0  0  0  0
  181.8240  176.3590  139.7460 C   0  0  0  0  0  1  0  0  0  0  0  0
  181.2330  177.6190  139.1090 C   0  0  1  0  0  3  0  0  0  0  0  0
  180.9440  179.7980  139.9300 N   0  0  0  0  0  1  0  0  0  0  0  0
  180.9320  178.0740  141.3310 O   0  0  0  0  0  1  0  0  0  0  0  0
  180.5380  178.4630  140.0930 N   0  0  0  0  0  0  0  0  0  0  0  0
  181.0240  179.2010  136.3870 C   0  0  0  0  0  2  0  0  0  0  0  0
  182.0230  178.4700  136.8690 C   0  0  0  0  0  3  0  0  0  0  0  0
  2  1  1  6  0  0  0
  2  3  1  0  0  0  0
  3  4  1  0  0  0  0
  5  4  1  6  0  0  0
  5  7  1  0  0  0  0
  5  8  1  0  0  0  0
  6  7  1  0  0  0  0
  8  9  1  0  0  0  0
  9 10  1  0  0  0  0
 10 11  1  0  0  0  0
 12 16  1  0  0  0  0
 13 15  1  0  0  0  0
 13 14  1  0  0  0  0
 14 11  1  6  0  0  0
 14 16  1  0  0  0  0
 15 17  1  6  0  0  0
 15 12  1  0  0  0  0
 18 25  1  6  0  0  0
 18  2  1  0  0  0  0
 19 22  1  0  0  0  0
 19 18  1  1  0  0  0
 20 19  1  0  0  0  0
 23 21  1  6  0  0  0
 23 20  1  0  0  0  0
 24 23  1  0  0  0  0
 24 22  1  0  0  0  0
 25 32  1  6  0  0  0
 25 27  1  0  0  0  0
 27 26  1  1  0  0  0
 27 30  1  0  0  0  0
 28 30  1  0  0  0  0
 30 29  1  0  0  0  0
 31 32  2  0  0  0  0
M  END
>  <MODEL>
3

>  <REMARK>
 VINA RESULT:      -6.3      3.510      6.015
  Name = 
  15 active torsions:
  status: ('A' for Active; 'I' for Inactive)
    1  A    between atoms: C_1  and  C_19
    2  A    between atoms: C_2  and  C_6
    3  A    between atoms: C_2  and  C_7
    4  A    between atoms: C_2  and  C_8
    5  A    between atoms: N_3  and  C_6
    6  A    between atoms: N_3  and  C_31
    7  A    between atoms: C_8  and  C_26
    8  A    between atoms: N_12  and  C_13
    9  A    between atoms: N_12  and  C_16
   10  A    between atoms: C_13  and  C_26
   11  A    between atoms: C_19  and  C_22
   12  A    between atoms: C_19  and  C_31
   13  A    between atoms: N_20  and  C_27
   14  A    between atoms: C_22  and  C_27
   15  A    between atoms: C_22  and  C_30
                            x       y       z     vdW  Elec       q    Type
                         _______ _______ _______ _____ _____    ______ ____

>  <TORSDO>
F 15

$$$$
=
 OpenBabel10232407483D

 32 33  0  0  1  0  0  0  0  0999 V2000
  184.0320  180.4400  138.8960 O   0  0  0  0  0  1  0  0  0  0  0  0
  184.4640  179.2130  139.4180 C   0  0  1  0  0  3  0  0  0  0  0  0
  184.1750  179.1550  140.8520 N   0  0  0  0  0  2  0  0  0  0  0  0
  185.2760  178.5110  141.5630 C   0  0  0  0  0  2  0  0  0  0  0  0
  185.1970  178.8270  143.0490 C   0  0  1  0  0  3  0  0  0  0  0  0
  183.6380  179.0440  144.9810 C   0  0  0  0  0  1  0  0  0  0  0  0
  183.7830  178.5770  143.5460 C   0  0  0  0  0  2  0  0  0  0  0  0
  186.1800  177.9490  143.8130 C   0  0  0  0  0  2  0  0  0  0  0  0
  187.3690  177.5820  142.9410 C   0  0  0  0  0  2  0  0  0  0  0  0
  188.1380  176.4340  143.5630 C   0  0  0  0  0  2  0  0  0  0  0  0
  188.6590  176.8450  144.8550 N   0  0  0  0  0  2  0  0  0  0  0  0
  191.3920  178.6960  143.6280 C   0  0  0  0  0  2  0  0  0  0  0  0
  190.4980  176.5140  143.4550 O   0  0  0  0  0  0  0  0  0  0  0  0
  190.0930  177.0230  144.7000 C   0  0  1  0  0  3  0  0  0  0  0  0
  191.5830  177.3110  143.0610 C   0  0  1  0  0  3  0  0  0  0  0  0
  190.4300  178.4940  144.7590 C   0  0  0  0  0  2  0  0  0  0  0  0
  191.6370  177.3850  141.5480 C   0  0  0  0  0  1  0  0  0  0  0  0
  183.8600  178.0150  138.6480 C   0  0  2  0  0  3  0  0  0  0  0  0
  184.7300  177.5770  137.4450 C   0  0  2  0  0  3  0  0  0  0  0  0
  184.7460  175.7620  137.2310 S   0  0  0  0  0  0  0  0  0  0  0  0
  186.7250  174.9620  135.5170 C   0  0  0  0  0  1  0  0  0  0  0  0
  186.1760  178.0230  137.5600 C   0  0  0  0  0  2  0  0  0  0  0  0
  186.5130  175.7520  136.7900 C   0  0  1  0  0  3  0  0  0  0  0  0
  186.9650  177.1800  136.5930 C   0  0  0  0  0  2  0  0  0  0  0  0
  182.3840  178.3070  138.2700 C   0  0  2  0  0  3  0  0  0  0  0  0
  182.1100  176.3310  139.8330 C   0  0  0  0  0  1  0  0  0  0  0  0
  181.3920  177.4450  139.0680 C   0  0  1  0  0  3  0  0  0  0  0  0
  180.8550  179.6280  139.7390 N   0  0  0  0  0  1  0  0  0  0  0  0
  180.8870  177.9840  141.2330 O   0  0  0  0  0  1  0  0  0  0  0  0
  180.5550  178.2720  139.9500 N   0  0  0  0  0  0  0  0  0  0  0  0
  181.1910  179.0030  136.2260 C   0  0  0  0  0  2  0  0  0  0  0  0
  182.1250  178.2450  136.7890 C   0  0  0  0  0  3  0  0  0  0  0  0
  2  1  1  6  0  0  0
  2  3  1  0  0  0  0
  3  4  1  0  0  0  0
  5  4  1  6  0  0  0
  5  7  1  0  0  0  0
  5  8  1  0  0  0  0
  7  6  1  0  0  0  0
  9 10  1  0  0  0  0
  9  8  1  0  0  0  0
 10 11  1  0  0  0  0
 12 16  1  0  0  0  0
 13 14  1  0  0  0  0
 14 16  1  0  0  0  0
 14 11  1  6  0  0  0
 15 17  1  6  0  0  0
 15 13  1  0  0  0  0
 15 12  1  0  0  0  0
 18 25  1  6  0  0  0
 18  2  1  0  0  0  0
 19 22  1  0  0  0  0
 19 18  1  1  0  0  0
 20 19  1  0  0  0  0
 23 21  1  6  0  0  0
 23 20  1  0  0  0  0
 24 23  1  0  0  0  0
 24 22  1  0  0  0  0
 25 32  1  6  0  0  0
 25 27  1  0  0  0  0
 27 26  1  1  0  0  0
 27 30  1  0  0  0  0
 28 30  1  0  0  0  0
 30 29  1  0  0  0  0
 31 32  2  0  0  0  0
M  END
>  <MODEL>
4

>  <REMARK>
 VINA RESULT:      -6.2      3.544      6.315
  Name = 
  15 active torsions:
  status: ('A' for Active; 'I' for Inactive)
    1  A    between atoms: C_1  and  C_19
    2  A    between atoms: C_2  and  C_6
    3  A    between atoms: C_2  and  C_7
    4  A    between atoms: C_2  and  C_8
    5  A    between atoms: N_3  and  C_6
    6  A    between atoms: N_3  and  C_31
    7  A    between atoms: C_8  and  C_26
    8  A    between atoms: N_12  and  C_13
    9  A    between atoms: N_12  and  C_16
   10  A    between atoms: C_13  and  C_26
   11  A    between atoms: C_19  and  C_22
   12  A    between atoms: C_19  and  C_31
   13  A    between atoms: N_20  and  C_27
   14  A    between atoms: C_22  and  C_27
   15  A    between atoms: C_22  and  C_30
                            x       y       z     vdW  Elec       q    Type
                         _______ _______ _______ _____ _____    ______ ____

>  <TORSDO>
F 15

$$$$
=
 OpenBabel10232407483D

 32 33  0  0  1  0  0  0  0  0999 V2000
  188.0780  175.0940  143.0760 O   0  0  0  0  0  1  0  0  0  0  0  0
  189.0480  176.0880  143.2640 C   0  0  1  0  0  3  0  0  0  0  0  0
  189.1710  176.8970  142.0490 N   0  0  0  0  0  2  0  0  0  0  0  0
  190.4340  176.6070  141.3770 C   0  0  0  0  0  2  0  0  0  0  0  0
  190.5000  177.3410  140.0460 C   0  0  1  0  0  3  0  0  0  0  0  0
  192.1890  176.5130  138.4110 C   0  0  0  0  0  1  0  0  0  0  0  0
  190.7750  176.3450  138.9310 C   0  0  0  0  0  2  0  0  0  0  0  0
  189.1810  178.0580  139.7890 C   0  0  0  0  0  2  0  0  0  0  0  0
  188.7860  177.9550  138.3250 C   0  0  0  0  0  2  0  0  0  0  0  0
  187.3250  177.5730  138.2050 C   0  0  0  0  0  2  0  0  0  0  0  0
  186.5190  178.7760  138.0930 N   0  0  0  0  0  2  0  0  0  0  0  0
  183.0350  178.2950  138.2860 C   0  0  0  0  0  2  0  0  0  0  0  0
  184.6750  179.7880  139.1070 O   0  0  0  0  0  0  0  0  0  0  0  0
  185.3180  178.5600  138.8830 C   0  0  1  0  0  3  0  0  0  0  0  0
  183.3060  179.4870  139.1720 C   0  0  1  0  0  3  0  0  0  0  0  0
  184.3770  177.6460  138.1340 C   0  0  0  0  0  2  0  0  0  0  0  0
  182.5000  180.6740  138.6830 C   0  0  0  0  0  1  0  0  0  0  0  0
  188.7560  176.9480  144.5150 C   0  0  2  0  0  3  0  0  0  0  0  0
  187.6710  178.0240  144.2630 C   0  0  2  0  0  3  0  0  0  0  0  0
  186.2990  177.9140  145.4650 S   0  0  0  0  0  0  0  0  0  0  0  0
  184.1350  179.3890  144.6680 C   0  0  0  0  0  1  0  0  0  0  0  0
  187.0560  177.9370  142.8790 C   0  0  0  0  0  2  0  0  0  0  0  0
  185.0510  178.2830  144.1920 C   0  0  1  0  0  3  0  0  0  0  0  0
  185.7650  178.7130  142.9310 C   0  0  0  0  0  2  0  0  0  0  0  0
  190.0750  177.5250  145.0920 C   0  0  2  0  0  3  0  0  0  0  0  0
  188.8570  176.9190  147.2300 C   0  0  0  0  0  1  0  0  0  0  0  0
  190.2030  177.3010  146.6070 C   0  0  1  0  0  3  0  0  0  0  0  0
  192.1120  176.8500  147.8930 N   0  0  0  0  0  1  0  0  0  0  0  0
  191.9930  176.1300  145.7950 O   0  0  0  0  0  1  0  0  0  0  0  0
  191.2540  176.3200  146.9160 N   0  0  0  0  0  0  0  0  0  0  0  0
  191.3200  179.2960  143.9060 C   0  0  0  0  0  2  0  0  0  0  0  0
  190.3160  178.9600  144.7100 C   0  0  0  0  0  3  0  0  0  0  0  0
  2  1  1  6  0  0  0
  3  2  1  0  0  0  0
  4  3  1  0  0  0  0
  5  7  1  6  0  0  0
  5  4  1  0  0  0  0
  6  7  1  0  0  0  0
  8  5  1  0  0  0  0
  9  8  1  0  0  0  0
 10  9  1  0  0  0  0
 11 10  1  0  0  0  0
 12 15  1  0  0  0  0
 13 15  1  0  0  0  0
 14 11  1  6  0  0  0
 14 13  1  0  0  0  0
 15 17  1  6  0  0  0
 16 12  1  0  0  0  0
 16 14  1  0  0  0  0
 18  2  1  6  0  0  0
 18 25  1  0  0  0  0
 19 18  1  1  0  0  0
 19 20  1  0  0  0  0
 22 24  1  0  0  0  0
 22 19  1  0  0  0  0
 23 21  1  1  0  0  0
 23 20  1  0  0  0  0
 24 23  1  0  0  0  0
 25 32  1  1  0  0  0
 25 27  1  0  0  0  0
 27 30  1  0  0  0  0
 27 26  1  6  0  0  0
 29 30  1  0  0  0  0
 30 28  1  0  0  0  0
 31 32  2  0  0  0  0
M  END
>  <MODEL>
5

>  <REMARK>
 VINA RESULT:      -6.1      2.671      7.926
  Name = 
  15 active torsions:
  status: ('A' for Active; 'I' for Inactive)
    1  A    between atoms: C_1  and  C_19
    2  A    between atoms: C_2  and  C_6
    3  A    between atoms: C_2  and  C_7
    4  A    between atoms: C_2  and  C_8
    5  A    between atoms: N_3  and  C_6
    6  A    between atoms: N_3  and  C_31
    7  A    between atoms: C_8  and  C_26
    8  A    between atoms: N_12  and  C_13
    9  A    between atoms: N_12  and  C_16
   10  A    between atoms: C_13  and  C_26
   11  A    between atoms: C_19  and  C_22
   12  A    between atoms: C_19  and  C_31
   13  A    between atoms: N_20  and  C_27
   14  A    between atoms: C_22  and  C_27
   15  A    between atoms: C_22  and  C_30
                            x       y       z     vdW  Elec       q    Type
                         _______ _______ _______ _____ _____    ______ ____

>  <TORSDO>
F 15

$$$$
=
 OpenBabel10232407483D

 32 33  0  0  1  0  0  0  0  0999 V2000
  184.0800  180.3920  138.9950 O   0  0  0  0  0  1  0  0  0  0  0  0
  184.4120  179.1070  139.4420 C   0  0  1  0  0  3  0  0  0  0  0  0
  184.2190  179.0200  140.8910 N   0  0  0  0  0  2  0  0  0  0  0  0
  185.4980  178.7840  141.5560 C   0  0  0  0  0  2  0  0  0  0  0  0
  185.3110  178.7830  143.0660 C   0  0  1  0  0  3  0  0  0  0  0  0
  183.6210  178.9510  144.8890 C   0  0  0  0  0  1  0  0  0  0  0  0
  183.8280  178.8150  143.3940 C   0  0  0  0  0  2  0  0  0  0  0  0
  185.9480  177.5330  143.6610 C   0  0  0  0  0  2  0  0  0  0  0  0
  187.1630  177.8920  144.4990 C   0  0  0  0  0  2  0  0  0  0  0  0
  188.3390  177.0170  144.1150 C   0  0  0  0  0  2  0  0  0  0  0  0
  189.2200  177.7530  143.2250 N   0  0  0  0  0  2  0  0  0  0  0  0
  190.7590  177.1420  140.1170 C   0  0  0  0  0  2  0  0  0  0  0  0
  188.6240  177.6970  140.9680 O   0  0  0  0  0  0  0  0  0  0  0  0
  189.2990  177.0010  141.9840 C   0  0  1  0  0  3  0  0  0  0  0  0
  189.3080  177.3840  139.7840 C   0  0  1  0  0  3  0  0  0  0  0  0
  190.7460  176.8350  141.5840 C   0  0  0  0  0  2  0  0  0  0  0  0
  189.1980  178.5430  138.8130 C   0  0  0  0  0  1  0  0  0  0  0  0
  183.6300  178.0120  138.6800 C   0  0  2  0  0  3  0  0  0  0  0  0
  184.3940  177.4820  137.4420 C   0  0  2  0  0  3  0  0  0  0  0  0
  184.3400  175.6590  137.3270 S   0  0  0  0  0  0  0  0  0  0  0  0
  186.1610  174.7050  135.5200 C   0  0  0  0  0  1  0  0  0  0  0  0
  185.8570  177.8850  137.4270 C   0  0  0  0  0  2  0  0  0  0  0  0
  186.0680  175.5670  136.7600 C   0  0  1  0  0  3  0  0  0  0  0  0
  186.5470  176.9670  136.4510 C   0  0  0  0  0  2  0  0  0  0  0  0
  182.1940  178.5020  138.3560 C   0  0  2  0  0  3  0  0  0  0  0  0
  181.7030  176.4970  139.8260 C   0  0  0  0  0  1  0  0  0  0  0  0
  181.1200  177.7410  139.1500 C   0  0  1  0  0  3  0  0  0  0  0  0
  180.9100  179.9360  139.9500 N   0  0  0  0  0  1  0  0  0  0  0  0
  180.7760  178.2250  141.3600 O   0  0  0  0  0  1  0  0  0  0  0  0
  180.4380  178.6230  140.1080 N   0  0  0  0  0  0  0  0  0  0  0  0
  181.1140  179.4770  136.3630 C   0  0  0  0  0  2  0  0  0  0  0  0
  181.8930  178.5340  136.8820 C   0  0  0  0  0  3  0  0  0  0  0  0
  2  1  1  6  0  0  0
  2  3  1  0  0  0  0
  3  4  1  0  0  0  0
  5  4  1  6  0  0  0
  5  7  1  0  0  0  0
  5  8  1  0  0  0  0
  7  6  1  0  0  0  0
  8  9  1  0  0  0  0
 10  9  1  0  0  0  0
 11 10  1  0  0  0  0
 12 16  1  0  0  0  0
 13 14  1  0  0  0  0
 14 11  1  1  0  0  0
 15 17  1  6  0  0  0
 15 12  1  0  0  0  0
 15 13  1  0  0  0  0
 16 14  1  0  0  0  0
 18 25  1  6  0  0  0
 18  2  1  0  0  0  0
 19 18  1  1  0  0  0
 20 19  1  0  0  0  0
 22 19  1  0  0  0  0
 23 21  1  6  0  0  0
 23 20  1  0  0  0  0
 24 23  1  0  0  0  0
 24 22  1  0  0  0  0
 25 32  1  6  0  0  0
 25 27  1  0  0  0  0
 27 26  1  1  0  0  0
 27 30  1  0  0  0  0
 28 30  1  0  0  0  0
 30 29  1  0  0  0  0
 31 32  2  0  0  0  0
M  END
>  <MODEL>
6

>  <REMARK>
 VINA RESULT:      -6.1      3.461      6.878
  Name = 
  15 active torsions:
  status: ('A' for Active; 'I' for Inactive)
    1  A    between atoms: C_1  and  C_19
    2  A    between atoms: C_2  and  C_6
    3  A    between atoms: C_2  and  C_7
    4  A    between atoms: C_2  and  C_8
    5  A    between atoms: N_3  and  C_6
    6  A    between atoms: N_3  and  C_31
    7  A    between atoms: C_8  and  C_26
    8  A    between atoms: N_12  and  C_13
    9  A    between atoms: N_12  and  C_16
   10  A    between atoms: C_13  and  C_26
   11  A    between atoms: C_19  and  C_22
   12  A    between atoms: C_19  and  C_31
   13  A    between atoms: N_20  and  C_27
   14  A    between atoms: C_22  and  C_27
   15  A    between atoms: C_22  and  C_30
                            x       y       z     vdW  Elec       q    Type
                         _______ _______ _______ _____ _____    ______ ____

>  <TORSDO>
F 15

$$$$
=
 OpenBabel10232407483D

 32 33  0  0  1  0  0  0  0  0999 V2000
  188.7710  175.3220  142.9160 O   0  0  0  0  0  1  0  0  0  0  0  0
  189.2130  176.5320  143.4670 C   0  0  1  0  0  3  0  0  0  0  0  0
  189.2450  177.5670  142.4310 N   0  0  0  0  0  2  0  0  0  0  0  0
  189.9110  177.0610  141.2340 C   0  0  0  0  0  2  0  0  0  0  0  0
  189.6610  177.9960  140.0600 C   0  0  1  0  0  3  0  0  0  0  0  0
  191.2250  176.2600  139.1940 C   0  0  0  0  0  1  0  0  0  0  0  0
  190.4600  177.5240  138.8560 C   0  0  0  0  0  2  0  0  0  0  0  0
  188.1760  178.0140  139.7240 C   0  0  0  0  0  2  0  0  0  0  0  0
  187.9510  177.7200  138.2500 C   0  0  0  0  0  2  0  0  0  0  0  0
  186.4680  177.7020  137.9420 C   0  0  0  0  0  2  0  0  0  0  0  0
  185.9100  179.0230  138.1710 N   0  0  0  0  0  2  0  0  0  0  0  0
  182.4160  178.5850  138.1520 C   0  0  0  0  0  2  0  0  0  0  0  0
  184.0180  180.0800  139.0400 O   0  0  0  0  0  0  0  0  0  0  0  0
  184.6590  178.8400  138.8880 C   0  0  1  0  0  3  0  0  0  0  0  0
  182.6440  179.7950  139.0230 C   0  0  1  0  0  3  0  0  0  0  0  0
  183.7570  177.9170  138.1020 C   0  0  0  0  0  2  0  0  0  0  0  0
  181.8860  180.9790  138.4550 C   0  0  0  0  0  1  0  0  0  0  0  0
  188.3660  176.9510  144.6900 C   0  0  2  0  0  3  0  0  0  0  0  0
  187.2950  178.0140  144.3410 C   0  0  2  0  0  3  0  0  0  0  0  0
  185.9870  178.1190  145.6130 S   0  0  0  0  0  0  0  0  0  0  0  0
  183.8200  179.5340  144.7220 C   0  0  0  0  0  1  0  0  0  0  0  0
  186.6050  177.7520  143.0150 C   0  0  0  0  0  2  0  0  0  0  0  0
  184.6820  178.3430  144.3630 C   0  0  1  0  0  3  0  0  0  0  0  0
  185.3380  178.5680  143.0200 C   0  0  0  0  0  2  0  0  0  0  0  0
  189.2870  177.3650  145.8670 C   0  0  2  0  0  3  0  0  0  0  0  0
  191.6390  178.0320  145.2020 C   0  0  0  0  0  1  0  0  0  0  0  0
  190.7360  176.8910  145.6760 C   0  0  1  0  0  3  0  0  0  0  0  0
  191.9150  177.2000  147.6800 N   0  0  0  0  0  1  0  0  0  0  0  0
  192.1770  175.3260  146.5170 O   0  0  0  0  0  1  0  0  0  0  0  0
  191.2530  176.2450  146.8910 N   0  0  0  0  0  0  0  0  0  0  0  0
  188.4870  177.9060  148.1390 C   0  0  0  0  0  2  0  0  0  0  0  0
  188.7400  176.9840  147.2160 C   0  0  0  0  0  3  0  0  0  0  0  0
  2  1  1  6  0  0  0
  3  2  1  0  0  0  0
  4  3  1  0  0  0  0
  5  7  1  6  0  0  0
  5  4  1  0  0  0  0
  7  6  1  0  0  0  0
  8  5  1  0  0  0  0
  9  8  1  0  0  0  0
 10 11  1  0  0  0  0
 10  9  1  0  0  0  0
 12 15  1  0  0  0  0
 14 11  1  6  0  0  0
 14 13  1  0  0  0  0
 15 17  1  6  0  0  0
 15 13  1  0  0  0  0
 16 12  1  0  0  0  0
 16 14  1  0  0  0  0
 18  2  1  6  0  0  0
 18 25  1  0  0  0  0
 19 18  1  1  0  0  0
 19 20  1  0  0  0  0
 22 24  1  0  0  0  0
 22 19  1  0  0  0  0
 23 21  1  1  0  0  0
 23 20  1  0  0  0  0
 24 23  1  0  0  0  0
 25 32  1  1  0  0  0
 27 26  1  1  0  0  0
 27 25  1  0  0  0  0
 27 30  1  0  0  0  0
 29 30  1  0  0  0  0
 30 28  1  0  0  0  0
 32 31  2  0  0  0  0
M  END
>  <MODEL>
7

>  <REMARK>
 VINA RESULT:      -6.0      2.774      8.135
  Name = 
  15 active torsions:
  status: ('A' for Active; 'I' for Inactive)
    1  A    between atoms: C_1  and  C_19
    2  A    between atoms: C_2  and  C_6
    3  A    between atoms: C_2  and  C_7
    4  A    between atoms: C_2  and  C_8
    5  A    between atoms: N_3  and  C_6
    6  A    between atoms: N_3  and  C_31
    7  A    between atoms: C_8  and  C_26
    8  A    between atoms: N_12  and  C_13
    9  A    between atoms: N_12  and  C_16
   10  A    between atoms: C_13  and  C_26
   11  A    between atoms: C_19  and  C_22
   12  A    between atoms: C_19  and  C_31
   13  A    between atoms: N_20  and  C_27
   14  A    between atoms: C_22  and  C_27
   15  A    between atoms: C_22  and  C_30
                            x       y       z     vdW  Elec       q    Type
                         _______ _______ _______ _____ _____    ______ ____

>  <TORSDO>
F 15

$$$$
=
 OpenBabel10232407483D

 32 33  0  0  1  0  0  0  0  0999 V2000
  188.0980  175.1120  143.0720 O   0  0  0  0  0  1  0  0  0  0  0  0
  189.1450  176.0330  143.2060 C   0  0  1  0  0  3  0  0  0  0  0  0
  189.2990  176.7930  141.9640 N   0  0  0  0  0  2  0  0  0  0  0  0
  190.6290  176.5730  141.4010 C   0  0  0  0  0  2  0  0  0  0  0  0
  190.8030  177.3930  140.1320 C   0  0  1  0  0  3  0  0  0  0  0  0
  191.6350  176.1610  138.1320 C   0  0  0  0  0  1  0  0  0  0  0  0
  192.0370  176.9150  139.3840 C   0  0  0  0  0  2  0  0  0  0  0  0
  189.5700  177.2440  139.2500 C   0  0  0  0  0  2  0  0  0  0  0  0
  188.9770  178.6020  138.9150 C   0  0  0  0  0  2  0  0  0  0  0  0
  188.9830  178.8180  137.4150 C   0  0  0  0  0  2  0  0  0  0  0  0
  187.6480  179.1830  136.9740 N   0  0  0  0  0  2  0  0  0  0  0  0
  186.6690  175.8000  136.9900 C   0  0  0  0  0  2  0  0  0  0  0  0
  188.1400  177.2220  135.8050 O   0  0  0  0  0  0  0  0  0  0  0  0
  187.0950  178.0270  136.2870 C   0  0  1  0  0  3  0  0  0  0  0  0
  187.6490  175.9080  135.8480 C   0  0  1  0  0  3  0  0  0  0  0  0
  186.2600  177.2180  137.2510 C   0  0  0  0  0  2  0  0  0  0  0  0
  188.7970  174.9440  136.0740 C   0  0  0  0  0  1  0  0  0  0  0  0
  188.9500  176.9510  144.4350 C   0  0  2  0  0  3  0  0  0  0  0  0
  187.7980  177.9690  144.2460 C   0  0  2  0  0  3  0  0  0  0  0  0
  186.4530  177.7220  145.4590 S   0  0  0  0  0  0  0  0  0  0  0  0
  184.1930  179.0970  144.7570 C   0  0  0  0  0  1  0  0  0  0  0  0
  187.1690  177.9070  142.8670 C   0  0  0  0  0  2  0  0  0  0  0  0
  185.1670  178.0710  144.2180 C   0  0  1  0  0  3  0  0  0  0  0  0
  185.8350  178.6000  142.9700 C   0  0  0  0  0  2  0  0  0  0  0  0
  190.2960  177.6090  144.8360 C   0  0  2  0  0  3  0  0  0  0  0  0
  189.4920  176.6900  147.0560 C   0  0  0  0  0  1  0  0  0  0  0  0
  190.5950  177.4710  146.3370 C   0  0  1  0  0  3  0  0  0  0  0  0
  191.9830  175.6150  145.9760 N   0  0  0  0  0  1  0  0  0  0  0  0
  192.0830  176.7170  147.9030 O   0  0  0  0  0  1  0  0  0  0  0  0
  191.9250  176.8880  146.5670 N   0  0  0  0  0  0  0  0  0  0  0  0
  191.6220  179.5530  144.0920 C   0  0  0  0  0  2  0  0  0  0  0  0
  190.4300  179.0300  144.3600 C   0  0  0  0  0  3  0  0  0  0  0  0
  2  1  1  6  0  0  0
  3  2  1  0  0  0  0
  4  3  1  0  0  0  0
  5  8  1  6  0  0  0
  5  4  1  0  0  0  0
  6  7  1  0  0  0  0
  7  5  1  0  0  0  0
  9  8  1  0  0  0  0
 10  9  1  0  0  0  0
 11 10  1  0  0  0  0
 12 16  1  0  0  0  0
 13 15  1  0  0  0  0
 13 14  1  0  0  0  0
 14 11  1  1  0  0  0
 14 16  1  0  0  0  0
 15 17  1  1  0  0  0
 15 12  1  0  0  0  0
 18  2  1  6  0  0  0
 18 25  1  0  0  0  0
 19 18  1  6  0  0  0
 19 20  1  0  0  0  0
 22 24  1  0  0  0  0
 22 19  1  0  0  0  0
 23 21  1  1  0  0  0
 23 20  1  0  0  0  0
 24 23  1  0  0  0  0
 25 32  1  1  0  0  0
 25 27  1  0  0  0  0
 27 30  1  0  0  0  0
 27 26  1  6  0  0  0
 28 30  1  0  0  0  0
 30 29  1  0  0  0  0
 31 32  2  0  0  0  0
M  END
>  <MODEL>
8

>  <REMARK>
 VINA RESULT:      -5.9      2.640      8.221
  Name = 
  15 active torsions:
  status: ('A' for Active; 'I' for Inactive)
    1  A    between atoms: C_1  and  C_19
    2  A    between atoms: C_2  and  C_6
    3  A    between atoms: C_2  and  C_7
    4  A    between atoms: C_2  and  C_8
    5  A    between atoms: N_3  and  C_6
    6  A    between atoms: N_3  and  C_31
    7  A    between atoms: C_8  and  C_26
    8  A    between atoms: N_12  and  C_13
    9  A    between atoms: N_12  and  C_16
   10  A    between atoms: C_13  and  C_26
   11  A    between atoms: C_19  and  C_22
   12  A    between atoms: C_19  and  C_31
   13  A    between atoms: N_20  and  C_27
   14  A    between atoms: C_22  and  C_27
   15  A    between atoms: C_22  and  C_30
                            x       y       z     vdW  Elec       q    Type
                         _______ _______ _______ _____ _____    ______ ____

>  <TORSDO>
F 15

$$$$
=
 OpenBabel10232407483D

 32 33  0  0  1  0  0  0  0  0999 V2000
  188.6180  178.1970  141.4510 O   0  0  0  0  0  1  0  0  0  0  0  0
  188.8880  176.9400  142.0090 C   0  0  1  0  0  3  0  0  0  0  0  0
  190.1410  176.4140  141.4640 N   0  0  0  0  0  2  0  0  0  0  0  0
  190.6210  177.2740  140.3850 C   0  0  0  0  0  2  0  0  0  0  0  0
  190.3590  176.6190  139.0380 C   0  0  1  0  0  3  0  0  0  0  0  0
  188.4000  177.2690  137.6400 C   0  0  0  0  0  1  0  0  0  0  0  0
  189.8010  177.6530  138.0720 C   0  0  0  0  0  2  0  0  0  0  0  0
  191.6550  176.0400  138.4870 C   0  0  0  0  0  2  0  0  0  0  0  0
  191.3760  175.0880  137.3360 C   0  0  0  0  0  2  0  0  0  0  0  0
  192.5680  174.1790  137.1100 C   0  0  0  0  0  2  0  0  0  0  0  0
  193.4550  174.7810  136.1300 N   0  0  0  0  0  2  0  0  0  0  0  0
  195.6510  172.8320  138.0760 C   0  0  0  0  0  2  0  0  0  0  0  0
  195.3320  175.0980  137.4820 O   0  0  0  0  0  0  0  0  0  0  0  0
  194.8010  174.3250  136.4370 C   0  0  1  0  0  3  0  0  0  0  0  0
  196.1880  174.2380  138.1860 C   0  0  1  0  0  3  0  0  0  0  0  0
  194.7590  172.8790  136.8720 C   0  0  0  0  0  2  0  0  0  0  0  0
  196.2350  174.6480  139.6440 C   0  0  0  0  0  1  0  0  0  0  0  0
  188.8940  176.9870  143.5550 C   0  0  2  0  0  3  0  0  0  0  0  0
  187.8180  177.9390  144.1300 C   0  0  2  0  0  3  0  0  0  0  0  0
  187.5040  177.6340  145.9040 S   0  0  0  0  0  0  0  0  0  0  0  0
  185.2190  178.8780  146.7560 C   0  0  0  0  0  1  0  0  0  0  0  0
  186.4820  177.8290  143.4180 C   0  0  0  0  0  2  0  0  0  0  0  0
  185.7120  177.9000  145.7120 C   0  0  1  0  0  3  0  0  0  0  0  0
  185.4550  178.4500  144.3280 C   0  0  0  0  0  2  0  0  0  0  0  0
  190.3240  177.2820  144.0790 C   0  0  2  0  0  3  0  0  0  0  0  0
  191.9670  175.3960  144.4800 C   0  0  0  0  0  1  0  0  0  0  0  0
  190.8180  176.2170  145.0710 C   0  0  1  0  0  3  0  0  0  0  0  0
  192.3480  176.2140  146.8500 N   0  0  0  0  0  1  0  0  0  0  0  0
  190.1850  176.5270  147.2480 O   0  0  0  0  0  1  0  0  0  0  0  0
  191.1750  176.8150  146.3660 N   0  0  0  0  0  0  0  0  0  0  0  0
  191.3570  179.5230  144.0840 C   0  0  0  0  0  2  0  0  0  0  0  0
  190.4840  178.6770  144.6200 C   0  0  0  0  0  3  0  0  0  0  0  0
  2  1  1  6  0  0  0
  3  2  1  0  0  0  0
  4  3  1  0  0  0  0
  5  7  1  6  0  0  0
  5  4  1  0  0  0  0
  6  7  1  0  0  0  0
  8  5  1  0  0  0  0
  9  8  1  0  0  0  0
 10  9  1  0  0  0  0
 11 10  1  0  0  0  0
 12 15  1  0  0  0  0
 13 15  1  0  0  0  0
 14 11  1  1  0  0  0
 14 16  1  0  0  0  0
 14 13  1  0  0  0  0
 15 17  1  1  0  0  0
 16 12  1  0  0  0  0
 18  2  1  6  0  0  0
 18 25  1  0  0  0  0
 19 18  1  6  0  0  0
 19 20  1  0  0  0  0
 22 19  1  0  0  0  0
 22 24  1  0  0  0  0
 23 20  1  0  0  0  0
 23 21  1  1  0  0  0
 24 23  1  0  0  0  0
 25 32  1  1  0  0  0
 25 27  1  0  0  0  0
 27 26  1  6  0  0  0
 27 30  1  0  0  0  0
 30 28  1  0  0  0  0
 30 29  1  0  0  0  0
 31 32  2  0  0  0  0
M  END
>  <MODEL>
9

>  <REMARK>
 VINA RESULT:      -5.9      3.280      8.704
  Name = 
  15 active torsions:
  status: ('A' for Active; 'I' for Inactive)
    1  A    between atoms: C_1  and  C_19
    2  A    between atoms: C_2  and  C_6
    3  A    between atoms: C_2  and  C_7
    4  A    between atoms: C_2  and  C_8
    5  A    between atoms: N_3  and  C_6
    6  A    between atoms: N_3  and  C_31
    7  A    between atoms: C_8  and  C_26
    8  A    between atoms: N_12  and  C_13
    9  A    between atoms: N_12  and  C_16
   10  A    between atoms: C_13  and  C_26
   11  A    between atoms: C_19  and  C_22
   12  A    between atoms: C_19  and  C_31
   13  A    between atoms: N_20  and  C_27
   14  A    between atoms: C_22  and  C_27
   15  A    between atoms: C_22  and  C_30
                            x       y       z     vdW  Elec       q    Type
                         _______ _______ _______ _____ _____    ______ ____

>  <TORSDO>
F 15

$$$$
