=
 OpenBabel10232412053D

 42 44  0  0  1  0  0  0  0  0999 V2000
  184.3930  178.4580  142.8230 C   0  0  0  0  0  0  0  0  0  0  0  0
  185.6410  178.0600  142.3220 C   0  0  0  0  0  3  0  0  0  0  0  0
  186.5550  178.0350  144.5700 C   0  0  0  0  0  0  0  0  0  0  0  0
  185.3100  178.4270  145.0710 C   0  0  0  0  0  3  0  0  0  0  0  0
  186.7230  177.8500  143.1850 C   0  0  0  0  0  0  0  0  0  0  0  0
  184.2370  178.6410  144.2040 C   0  0  0  0  0  3  0  0  0  0  0  0
  183.4150  178.7490  140.5640 N   0  0  0  0  0  0  0  0  0  0  0  0
  182.1430  179.0620  138.5080 N   0  0  0  0  0  2  0  0  0  0  0  0
  180.9700  179.0700  141.0120 S   0  0  0  0  0  0  0  0  0  0  0  0
  183.2510  178.6780  141.9160 C   0  0  0  0  0  0  0  0  0  0  0  0
  181.9370  178.8360  142.3720 C   0  0  0  0  0  3  0  0  0  0  0  0
  182.2470  178.9630  139.9300 C   0  0  0  0  0  0  0  0  0  0  0  0
  180.8860  179.3300  137.8240 C   0  0  1  0  0  3  0  0  0  0  0  0
  180.9430  180.6940  137.1600 C   0  0  0  0  0  1  0  0  0  0  0  0
  181.9450  178.0250  136.3870 C   0  0  0  0  0  1  0  0  0  0  0  0
  180.6710  178.3520  136.8510 O   0  0  0  0  0  0  0  0  0  0  0  0
  187.6700  177.7930  145.5320 C   0  0  0  0  0  2  0  0  0  0  0  0
  187.2310  178.1050  146.8820 N   0  0  0  0  0  2  0  0  0  0  0  0
  188.3320  177.7830  147.7730 C   0  0  0  0  0  2  0  0  0  0  0  0
  189.2400  176.7630  147.1160 C   0  0  0  0  0  2  0  0  0  0  0  0
  190.6730  177.0110  147.5480 C   0  0  0  0  0  2  0  0  0  0  0  0
  191.6210  176.3710  146.5870 C   0  0  0  0  0  0  0  0  0  0  0  0
  192.5470  175.6920  146.9980 O   0  0  0  0  0  0  0  0  0  0  0  0
  191.7350  177.8630  144.7600 O   0  0  0  0  0  1  0  0  0  0  0  0
  191.4300  176.5510  145.1180 C   0  0  0  0  0  2  0  0  0  0  0  0
  188.2990  177.3450  142.4880 S   0  0  0  0  0  0  0  0  0  0  0  0
  188.1150  178.4410  141.0480 C   0  0  0  0  0  2  0  0  0  0  0  0
  188.3240  177.6880  139.8210 N   0  0  0  0  0  2  0  0  0  0  0  0
  189.0190  179.5420  138.5820 O   0  0  0  0  0  0  0  0  0  0  0  0
  188.8220  178.2990  138.6270 C   0  0  0  0  0  0  0  0  0  0  0  0
  189.0930  177.5040  137.4730 N   0  0  0  0  0  2  0  0  0  0  0  0
  188.9780  173.1260  137.0860 C   0  0  0  0  0  2  0  0  0  0  0  0
  186.6390  175.9680  137.2070 O   0  0  0  0  0  0  0  0  0  0  0  0
  188.9800  176.0510  137.4890 C   0  0  1  0  0  3  0  0  0  0  0  0
  187.7290  175.6550  136.7470 C   0  0  0  0  0  0  0  0  0  0  0  0
  188.0900  173.3240  135.8500 C   0  0  0  0  0  2  0  0  0  0  0  0
  190.3220  173.8660  137.0290 C   0  0  1  0  0  3  0  0  0  0  0  0
  191.5130  175.9960  137.5110 C   0  0  0  0  0  1  0  0  0  0  0  0
  191.2130  173.2750  135.9510 C   0  0  0  0  0  1  0  0  0  0  0  0
  190.2540  175.4010  136.8960 C   0  0  2  0  0  3  0  0  0  0  0  0
  187.8200  174.7910  135.5120 C   0  0  1  0  0  3  0  0  0  0  0  0
  186.5980  174.9130  134.6170 C   0  0  0  0  0  1  0  0  0  0  0  0
  1  6  1  0  0  0  0
  2  1  2  0  0  0  0
  2  5  1  0  0  0  0
  3  4  1  0  0  0  0
  3 17  1  0  0  0  0
  5  3  2  0  0  0  0
  6  4  2  0  0  0  0
  7 10  1  0  0  0  0
  8 12  1  0  0  0  0
  9 11  1  0  0  0  0
 10 11  2  0  0  0  0
 10  1  1  0  0  0  0
 12  7  2  0  0  0  0
 12  9  1  0  0  0  0
 13 14  1  6  0  0  0
 13  8  1  0  0  0  0
 15 16  1  0  0  0  0
 16 13  1  0  0  0  0
 17 18  1  0  0  0  0
 18 19  1  0  0  0  0
 20 21  1  0  0  0  0
 20 19  1  0  0  0  0
 22 23  2  0  0  0  0
 22 21  1  0  0  0  0
 24 25  1  0  0  0  0
 25 22  1  0  0  0  0
 26  5  1  0  0  0  0
 27 26  1  0  0  0  0
 28 27  1  0  0  0  0
 29 30  2  0  0  0  0
 30 28  1  0  0  0  0
 31 30  1  0  0  0  0
 34 31  1  6  0  0  0
 35 33  2  0  0  0  0
 35 34  1  0  0  0  0
 36 32  1  0  0  0  0
 37 39  1  6  0  0  0
 37 32  1  0  0  0  0
 40 37  1  0  0  0  0
 40 34  1  0  0  0  0
 40 38  1  1  0  0  0
 41 42  1  1  0  0  0
 41 36  1  0  0  0  0
 41 35  1  0  0  0  0
M  END
>  <MODEL>
1

>  <REMARK>
 VINA RESULT:      -7.8      0.000      0.000
  Name = 
  14 active torsions:
  status: ('A' for Active; 'I' for Inactive)
    1  A    between atoms: C_1  and  C_7
    2  A    between atoms: C_1  and  C_27
    3  A    between atoms: C_2  and  N_20
    4  A    between atoms: C_2  and  C_22
    5  A    between atoms: C_6  and  C_26
    6  A    between atoms: C_8  and  N_29
    7  A    between atoms: N_12  and  C_25
    8  A    between atoms: C_16  and  C_19
    9  A    between atoms: C_19  and  N_20
   10  A    between atoms: N_21  and  C_38
   11  A    between atoms: C_22  and  C_27
   12  A    between atoms: C_25  and  O_41
   13  A    between atoms: S_28  and  C_38
   14  A    between atoms: S_28  and  C_39
                            x       y       z     vdW  Elec       q    Type
                         _______ _______ _______ _____ _____    ______ ____

>  <TORSDO>
F 14

$$$$
=
 OpenBabel10232412053D

 42 44  0  0  1  0  0  0  0  0999 V2000
  190.9640  177.2990  141.1940 C   0  0  0  0  0  0  0  0  0  0  0  0
  190.0740  176.9020  140.1850 C   0  0  0  0  0  3  0  0  0  0  0  0
  191.9180  176.6640  138.6260 C   0  0  0  0  0  0  0  0  0  0  0  0
  192.8070  177.0550  139.6320 C   0  0  0  0  0  3  0  0  0  0  0  0
  190.5400  176.5870  138.9040 C   0  0  0  0  0  0  0  0  0  0  0  0
  192.3330  177.3730  140.9060 C   0  0  0  0  0  3  0  0  0  0  0  0
  189.2150  177.3020  142.9500 N   0  0  0  0  0  0  0  0  0  0  0  0
  187.7330  177.4680  144.8790 N   0  0  0  0  0  2  0  0  0  0  0  0
  190.3070  178.4770  144.8750 S   0  0  0  0  0  0  0  0  0  0  0  0
  190.4750  177.6300  142.5450 C   0  0  0  0  0  0  0  0  0  0  0  0
  191.2550  178.3030  143.4930 C   0  0  0  0  0  3  0  0  0  0  0  0
  188.9750  177.7040  144.2120 C   0  0  0  0  0  0  0  0  0  0  0  0
  187.4600  177.9340  146.2300 C   0  0  1  0  0  3  0  0  0  0  0  0
  185.9610  178.0520  146.4400 C   0  0  0  0  0  1  0  0  0  0  0  0
  188.2410  177.7820  148.2930 C   0  0  0  0  0  1  0  0  0  0  0  0
  187.9840  177.0250  147.1500 O   0  0  0  0  0  0  0  0  0  0  0  0
  192.4660  176.3070  137.2850 C   0  0  0  0  0  2  0  0  0  0  0  0
  193.9190  176.3110  137.3300 N   0  0  0  0  0  2  0  0  0  0  0  0
  194.3680  175.0640  136.7350 C   0  0  0  0  0  2  0  0  0  0  0  0
  194.3310  173.9610  137.7730 C   0  0  0  0  0  2  0  0  0  0  0  0
  195.4300  174.1920  138.7930 C   0  0  0  0  0  2  0  0  0  0  0  0
  196.7480  173.7560  138.2410 C   0  0  0  0  0  0  0  0  0  0  0  0
  196.8690  172.6490  137.7430 O   0  0  0  0  0  0  0  0  0  0  0  0
  197.9030  175.5160  137.1700 O   0  0  0  0  0  1  0  0  0  0  0  0
  197.9190  174.6790  138.2850 C   0  0  0  0  0  2  0  0  0  0  0  0
  189.3550  176.0890  137.6500 S   0  0  0  0  0  0  0  0  0  0  0  0
  188.7440  177.7870  137.4270 C   0  0  0  0  0  2  0  0  0  0  0  0
  187.3050  177.8290  137.6380 N   0  0  0  0  0  2  0  0  0  0  0  0
  186.7800  177.7130  135.3650 O   0  0  0  0  0  0  0  0  0  0  0  0
  186.3720  177.7440  136.5560 C   0  0  0  0  0  0  0  0  0  0  0  0
  184.9700  177.7030  136.8180 N   0  0  0  0  0  2  0  0  0  0  0  0
  182.9210  177.4400  140.6990 C   0  0  0  0  0  2  0  0  0  0  0  0
  184.7830  179.9100  138.7000 O   0  0  0  0  0  0  0  0  0  0  0  0
  184.4370  177.6360  138.1730 C   0  0  1  0  0  3  0  0  0  0  0  0
  183.9630  179.0110  138.5730 C   0  0  0  0  0  0  0  0  0  0  0  0
  182.1530  178.7090  140.3060 C   0  0  0  0  0  2  0  0  0  0  0  0
  182.8060  176.2880  139.6910 C   0  0  1  0  0  3  0  0  0  0  0  0
  183.7550  175.2560  137.6370 C   0  0  0  0  0  1  0  0  0  0  0  0
  181.3850  175.7500  139.6530 C   0  0  0  0  0  1  0  0  0  0  0  0
  183.3170  176.5710  138.2640 C   0  0  2  0  0  3  0  0  0  0  0  0
  182.5120  179.2420  138.9170 C   0  0  1  0  0  3  0  0  0  0  0  0
  182.1020  180.7000  138.7880 C   0  0  0  0  0  1  0  0  0  0  0  0
  1 10  1  0  0  0  0
  2  1  2  0  0  0  0
  3  5  2  0  0  0  0
  3  4  1  0  0  0  0
  4  6  2  0  0  0  0
  5  2  1  0  0  0  0
  6  1  1  0  0  0  0
  7 12  2  0  0  0  0
  8 13  1  0  0  0  0
 10  7  1  0  0  0  0
 10 11  2  0  0  0  0
 11  9  1  0  0  0  0
 12  9  1  0  0  0  0
 12  8  1  0  0  0  0
 13 14  1  6  0  0  0
 13 16  1  0  0  0  0
 16 15  1  0  0  0  0
 17 18  1  0  0  0  0
 17  3  1  0  0  0  0
 19 18  1  0  0  0  0
 19 20  1  0  0  0  0
 20 21  1  0  0  0  0
 22 25  1  0  0  0  0
 22 21  1  0  0  0  0
 23 22  2  0  0  0  0
 24 25  1  0  0  0  0
 26  5  1  0  0  0  0
 27 28  1  0  0  0  0
 27 26  1  0  0  0  0
 29 30  2  0  0  0  0
 30 31  1  0  0  0  0
 30 28  1  0  0  0  0
 34 31  1  6  0  0  0
 34 40  1  0  0  0  0
 34 35  1  0  0  0  0
 35 33  2  0  0  0  0
 35 41  1  0  0  0  0
 36 32  1  0  0  0  0
 37 39  1  6  0  0  0
 37 32  1  0  0  0  0
 40 38  1  1  0  0  0
 40 37  1  0  0  0  0
 41 42  1  1  0  0  0
 41 36  1  0  0  0  0
M  END
>  <MODEL>
2

>  <REMARK>
 VINA RESULT:      -7.4      3.748      8.625
  Name = 
  14 active torsions:
  status: ('A' for Active; 'I' for Inactive)
    1  A    between atoms: C_1  and  C_7
    2  A    between atoms: C_1  and  C_27
    3  A    between atoms: C_2  and  N_20
    4  A    between atoms: C_2  and  C_22
    5  A    between atoms: C_6  and  C_26
    6  A    between atoms: C_8  and  N_29
    7  A    between atoms: N_12  and  C_25
    8  A    between atoms: C_16  and  C_19
    9  A    between atoms: C_19  and  N_20
   10  A    between atoms: N_21  and  C_38
   11  A    between atoms: C_22  and  C_27
   12  A    between atoms: C_25  and  O_41
   13  A    between atoms: S_28  and  C_38
   14  A    between atoms: S_28  and  C_39
                            x       y       z     vdW  Elec       q    Type
                         _______ _______ _______ _____ _____    ______ ____

>  <TORSDO>
F 14

$$$$
=
 OpenBabel10232412053D

 42 44  0  0  1  0  0  0  0  0999 V2000
  190.1450  177.3520  142.3890 C   0  0  0  0  0  0  0  0  0  0  0  0
  189.5230  177.1110  141.1550 C   0  0  0  0  0  3  0  0  0  0  0  0
  191.6720  177.2080  140.0320 C   0  0  0  0  0  0  0  0  0  0  0  0
  192.2940  177.4430  141.2620 C   0  0  0  0  0  3  0  0  0  0  0  0
  190.2750  177.0410  139.9770 C   0  0  0  0  0  0  0  0  0  0  0  0
  191.5360  177.5180  142.4320 C   0  0  0  0  0  3  0  0  0  0  0  0
  188.0580  177.8470  143.6300 N   0  0  0  0  0  0  0  0  0  0  0  0
  186.1810  178.2290  145.1380 N   0  0  0  0  0  2  0  0  0  0  0  0
  188.6420  177.3200  146.0100 S   0  0  0  0  0  0  0  0  0  0  0  0
  189.3540  177.4250  143.6320 C   0  0  0  0  0  0  0  0  0  0  0  0
  189.8730  177.0800  144.8850 C   0  0  0  0  0  3  0  0  0  0  0  0
  187.5300  177.8450  144.8690 C   0  0  0  0  0  0  0  0  0  0  0  0
  185.6200  178.2610  146.4820 C   0  0  1  0  0  3  0  0  0  0  0  0
  186.2570  179.3870  147.2770 C   0  0  0  0  0  1  0  0  0  0  0  0
  184.0250  178.9270  145.1030 C   0  0  0  0  0  1  0  0  0  0  0  0
  184.2430  178.4730  146.4040 O   0  0  0  0  0  0  0  0  0  0  0  0
  192.5190  177.1090  138.8080 C   0  0  0  0  0  2  0  0  0  0  0  0
  193.6850  176.2870  139.0830 N   0  0  0  0  0  2  0  0  0  0  0  0
  193.8820  175.4260  137.9290 C   0  0  0  0  0  2  0  0  0  0  0  0
  193.0040  175.8960  136.7860 C   0  0  0  0  0  2  0  0  0  0  0  0
  192.9310  174.8120  135.7280 C   0  0  0  0  0  2  0  0  0  0  0  0
  192.2620  173.5950  136.2790 C   0  0  0  0  0  0  0  0  0  0  0  0
  192.8680  172.5380  136.3450 O   0  0  0  0  0  0  0  0  0  0  0  0
  189.9850  173.7660  135.6770 O   0  0  0  0  0  1  0  0  0  0  0  0
  190.8540  173.6720  136.7640 C   0  0  0  0  0  2  0  0  0  0  0  0
  189.4250  176.7340  138.4250 S   0  0  0  0  0  0  0  0  0  0  0  0
  188.7200  178.4100  138.3780 C   0  0  0  0  0  2  0  0  0  0  0  0
  187.2680  178.3380  138.3720 N   0  0  0  0  0  2  0  0  0  0  0  0
  187.1020  178.1400  136.0500 O   0  0  0  0  0  0  0  0  0  0  0  0
  186.5180  178.1570  137.1660 C   0  0  0  0  0  0  0  0  0  0  0  0
  185.1000  178.0060  137.2170 N   0  0  0  0  0  2  0  0  0  0  0  0
  182.5140  177.6550  140.7550 C   0  0  0  0  0  2  0  0  0  0  0  0
  184.5040  180.2150  139.0110 O   0  0  0  0  0  0  0  0  0  0  0  0
  184.3750  177.9190  138.4790 C   0  0  1  0  0  3  0  0  0  0  0  0
  183.7670  179.2660  138.7800 C   0  0  0  0  0  0  0  0  0  0  0  0
  181.7390  178.8710  140.2300 C   0  0  0  0  0  2  0  0  0  0  0  0
  182.6180  176.4890  139.7630 C   0  0  1  0  0  3  0  0  0  0  0  0
  183.9230  175.4970  137.8920 C   0  0  0  0  0  1  0  0  0  0  0  0
  181.2530  175.8650  139.5240 C   0  0  0  0  0  1  0  0  0  0  0  0
  183.3190  176.7900  138.4220 C   0  0  2  0  0  3  0  0  0  0  0  0
  182.2700  179.4120  138.9000 C   0  0  1  0  0  3  0  0  0  0  0  0
  181.7990  180.8410  138.6850 C   0  0  0  0  0  1  0  0  0  0  0  0
  1  6  1  0  0  0  0
  1 10  1  0  0  0  0
  2  1  2  0  0  0  0
  3  4  1  0  0  0  0
  4  6  2  0  0  0  0
  5  3  2  0  0  0  0
  5  2  1  0  0  0  0
  7 10  1  0  0  0  0
  7 12  2  0  0  0  0
  8 13  1  0  0  0  0
 10 11  2  0  0  0  0
 11  9  1  0  0  0  0
 12  8  1  0  0  0  0
 12  9  1  0  0  0  0
 13 14  1  1  0  0  0
 15 16  1  0  0  0  0
 16 13  1  0  0  0  0
 17 18  1  0  0  0  0
 17  3  1  0  0  0  0
 19 18  1  0  0  0  0
 20 19  1  0  0  0  0
 21 22  1  0  0  0  0
 21 20  1  0  0  0  0
 22 23  2  0  0  0  0
 22 25  1  0  0  0  0
 24 25  1  0  0  0  0
 26  5  1  0  0  0  0
 27 26  1  0  0  0  0
 28 27  1  0  0  0  0
 29 30  2  0  0  0  0
 30 31  1  0  0  0  0
 30 28  1  0  0  0  0
 34 31  1  6  0  0  0
 34 35  1  0  0  0  0
 35 41  1  0  0  0  0
 35 33  2  0  0  0  0
 36 32  1  0  0  0  0
 37 39  1  6  0  0  0
 37 32  1  0  0  0  0
 40 38  1  1  0  0  0
 40 34  1  0  0  0  0
 40 37  1  0  0  0  0
 41 42  1  1  0  0  0
 41 36  1  0  0  0  0
M  END
>  <MODEL>
3

>  <REMARK>
 VINA RESULT:      -7.2      3.287      8.110
  Name = 
  14 active torsions:
  status: ('A' for Active; 'I' for Inactive)
    1  A    between atoms: C_1  and  C_7
    2  A    between atoms: C_1  and  C_27
    3  A    between atoms: C_2  and  N_20
    4  A    between atoms: C_2  and  C_22
    5  A    between atoms: C_6  and  C_26
    6  A    between atoms: C_8  and  N_29
    7  A    between atoms: N_12  and  C_25
    8  A    between atoms: C_16  and  C_19
    9  A    between atoms: C_19  and  N_20
   10  A    between atoms: N_21  and  C_38
   11  A    between atoms: C_22  and  C_27
   12  A    between atoms: C_25  and  O_41
   13  A    between atoms: S_28  and  C_38
   14  A    between atoms: S_28  and  C_39
                            x       y       z     vdW  Elec       q    Type
                         _______ _______ _______ _____ _____    ______ ____

>  <TORSDO>
F 14

$$$$
=
 OpenBabel10232412053D

 42 44  0  0  1  0  0  0  0  0999 V2000
  184.4230  178.3840  143.4400 C   0  0  0  0  0  0  0  0  0  0  0  0
  185.8100  178.2190  143.3070 C   0  0  0  0  0  3  0  0  0  0  0  0
  186.1030  178.6110  145.6840 C   0  0  0  0  0  0  0  0  0  0  0  0
  184.7210  178.7700  145.8190 C   0  0  0  0  0  3  0  0  0  0  0  0
  186.6530  178.3330  144.4180 C   0  0  0  0  0  0  0  0  0  0  0  0
  183.8860  178.6610  144.7040 C   0  0  0  0  0  3  0  0  0  0  0  0
  183.9290  177.6230  141.1340 N   0  0  0  0  0  0  0  0  0  0  0  0
  183.1240  177.0200  138.9130 N   0  0  0  0  0  2  0  0  0  0  0  0
  181.5930  178.4370  140.7270 S   0  0  0  0  0  0  0  0  0  0  0  0
  183.5330  178.2630  142.2700 C   0  0  0  0  0  0  0  0  0  0  0  0
  182.2390  178.7970  142.2410 C   0  0  0  0  0  3  0  0  0  0  0  0
  182.9670  177.6370  140.1920 C   0  0  0  0  0  0  0  0  0  0  0  0
  182.0990  177.0660  137.8800 C   0  0  1  0  0  3  0  0  0  0  0  0
  182.3040  178.2900  137.0060 C   0  0  0  0  0  1  0  0  0  0  0  0
  183.5240  175.5410  137.1530 C   0  0  0  0  0  1  0  0  0  0  0  0
  182.1820  175.9170  137.0920 O   0  0  0  0  0  0  0  0  0  0  0  0
  186.9580  178.7090  146.9030 C   0  0  0  0  0  2  0  0  0  0  0  0
  187.1210  177.3930  147.4960 N   0  0  0  0  0  2  0  0  0  0  0  0
  188.1430  177.5110  148.5220 C   0  0  0  0  0  2  0  0  0  0  0  0
  189.4920  177.7430  147.8740 C   0  0  0  0  0  2  0  0  0  0  0  0
  189.9330  176.4800  147.1600 C   0  0  0  0  0  2  0  0  0  0  0  0
  191.3840  176.5610  146.8130 C   0  0  0  0  0  0  0  0  0  0  0  0
  191.7710  177.3600  145.9770 O   0  0  0  0  0  0  0  0  0  0  0  0
  192.9690  176.3580  148.5520 O   0  0  0  0  0  1  0  0  0  0  0  0
  192.3670  175.6720  147.4980 C   0  0  0  0  0  2  0  0  0  0  0  0
  188.4210  178.1170  144.1880 S   0  0  0  0  0  0  0  0  0  0  0  0
  188.2010  176.5620  143.2700 C   0  0  0  0  0  2  0  0  0  0  0  0
  188.4800  176.7750  141.8590 N   0  0  0  0  0  2  0  0  0  0  0  0
  190.4840  177.9140  142.2360 O   0  0  0  0  0  0  0  0  0  0  0  0
  189.6710  177.4260  141.4060 C   0  0  0  0  0  0  0  0  0  0  0  0
  189.9440  177.5370  140.0100 N   0  0  0  0  0  2  0  0  0  0  0  0
  187.7030  175.8180  136.6400 C   0  0  0  0  0  2  0  0  0  0  0  0
  187.2730  178.3900  139.2420 O   0  0  0  0  0  0  0  0  0  0  0  0
  189.0960  176.9100  139.0030 C   0  0  1  0  0  3  0  0  0  0  0  0
  188.1220  177.9380  138.4850 C   0  0  0  0  0  0  0  0  0  0  0  0
  187.4780  177.2530  136.1430 C   0  0  0  0  0  2  0  0  0  0  0  0
  189.1750  175.4410  136.8540 C   0  0  1  0  0  3  0  0  0  0  0  0
  191.0810  175.4350  138.4530 C   0  0  0  0  0  1  0  0  0  0  0  0
  189.9130  175.3920  135.5270 C   0  0  0  0  0  1  0  0  0  0  0  0
  189.9580  176.2880  137.8790 C   0  0  2  0  0  3  0  0  0  0  0  0
  188.1290  178.3200  137.0250 C   0  0  1  0  0  3  0  0  0  0  0  0
  187.4940  179.6770  136.7690 C   0  0  0  0  0  1  0  0  0  0  0  0
  1  6  1  0  0  0  0
  2  1  2  0  0  0  0
  2  5  1  0  0  0  0
  3  4  1  0  0  0  0
  3 17  1  0  0  0  0
  5  3  2  0  0  0  0
  6  4  2  0  0  0  0
  7 10  1  0  0  0  0
  8 12  1  0  0  0  0
  9 11  1  0  0  0  0
 10  1  1  0  0  0  0
 11 10  2  0  0  0  0
 12  9  1  0  0  0  0
 12  7  2  0  0  0  0
 13 14  1  6  0  0  0
 13  8  1  0  0  0  0
 16 15  1  0  0  0  0
 16 13  1  0  0  0  0
 17 18  1  0  0  0  0
 18 19  1  0  0  0  0
 20 19  1  0  0  0  0
 21 20  1  0  0  0  0
 22 21  1  0  0  0  0
 22 25  1  0  0  0  0
 23 22  2  0  0  0  0
 25 24  1  0  0  0  0
 26  5  1  0  0  0  0
 27 26  1  0  0  0  0
 28 27  1  0  0  0  0
 30 28  1  0  0  0  0
 30 29  2  0  0  0  0
 31 30  1  0  0  0  0
 32 37  1  0  0  0  0
 34 31  1  1  0  0  0
 35 34  1  0  0  0  0
 35 33  2  0  0  0  0
 36 32  1  0  0  0  0
 36 41  1  0  0  0  0
 37 39  1  6  0  0  0
 37 40  1  0  0  0  0
 40 38  1  1  0  0  0
 40 34  1  0  0  0  0
 41 42  1  1  0  0  0
 41 35  1  0  0  0  0
M  END
>  <MODEL>
4

>  <REMARK>
 VINA RESULT:      -7.2      1.658      2.396
  Name = 
  14 active torsions:
  status: ('A' for Active; 'I' for Inactive)
    1  A    between atoms: C_1  and  C_7
    2  A    between atoms: C_1  and  C_27
    3  A    between atoms: C_2  and  N_20
    4  A    between atoms: C_2  and  C_22
    5  A    between atoms: C_6  and  C_26
    6  A    between atoms: C_8  and  N_29
    7  A    between atoms: N_12  and  C_25
    8  A    between atoms: C_16  and  C_19
    9  A    between atoms: C_19  and  N_20
   10  A    between atoms: N_21  and  C_38
   11  A    between atoms: C_22  and  C_27
   12  A    between atoms: C_25  and  O_41
   13  A    between atoms: S_28  and  C_38
   14  A    between atoms: S_28  and  C_39
                            x       y       z     vdW  Elec       q    Type
                         _______ _______ _______ _____ _____    ______ ____

>  <TORSDO>
F 14

$$$$
=
 OpenBabel10232412053D

 42 44  0  0  1  0  0  0  0  0999 V2000
  186.8660  177.8350  143.2790 C   0  0  0  0  0  0  0  0  0  0  0  0
  187.6650  177.6510  142.1410 C   0  0  0  0  0  3  0  0  0  0  0  0
  189.5700  177.1070  143.5420 C   0  0  0  0  0  0  0  0  0  0  0  0
  188.7740  177.2850  144.6770 C   0  0  0  0  0  3  0  0  0  0  0  0
  189.0120  177.2910  142.2630 C   0  0  0  0  0  0  0  0  0  0  0  0
  187.4330  177.6500  144.5480 C   0  0  0  0  0  3  0  0  0  0  0  0
  184.7920  178.1430  141.9580 N   0  0  0  0  0  0  0  0  0  0  0  0
  182.6040  178.5490  140.9630 N   0  0  0  0  0  2  0  0  0  0  0  0
  183.1380  178.9910  143.6400 S   0  0  0  0  0  0  0  0  0  0  0  0
  185.4460  178.2130  143.1520 C   0  0  0  0  0  0  0  0  0  0  0  0
  184.6820  178.6710  144.2320 C   0  0  0  0  0  3  0  0  0  0  0  0
  183.5100  178.5420  142.0670 C   0  0  0  0  0  0  0  0  0  0  0  0
  181.2280  179.0130  141.0720 C   0  0  1  0  0  3  0  0  0  0  0  0
  180.8970  179.9180  139.8990 C   0  0  0  0  0  1  0  0  0  0  0  0
  180.3860  177.4550  139.7500 C   0  0  0  0  0  1  0  0  0  0  0  0
  180.3670  177.9160  141.0660 O   0  0  0  0  0  0  0  0  0  0  0  0
  190.9920  176.6920  143.7220 C   0  0  0  0  0  2  0  0  0  0  0  0
  191.4640  177.1100  145.0310 N   0  0  0  0  0  2  0  0  0  0  0  0
  191.9680  175.9230  145.7020 C   0  0  0  0  0  2  0  0  0  0  0  0
  191.5550  175.9460  147.1600 C   0  0  0  0  0  2  0  0  0  0  0  0
  191.0210  177.3220  147.5100 C   0  0  0  0  0  2  0  0  0  0  0  0
  189.5720  177.2390  147.8640 C   0  0  0  0  0  0  0  0  0  0  0  0
  188.9650  176.1910  147.7230 O   0  0  0  0  0  0  0  0  0  0  0  0
  187.4900  178.2980  148.2150 O   0  0  0  0  0  1  0  0  0  0  0  0
  188.8650  178.4370  148.4040 C   0  0  0  0  0  2  0  0  0  0  0  0
  189.9870  177.0730  140.7710 S   0  0  0  0  0  0  0  0  0  0  0  0
  188.9540  178.2280  139.8190 C   0  0  0  0  0  2  0  0  0  0  0  0
  188.7630  177.7260  138.4680 N   0  0  0  0  0  2  0  0  0  0  0  0
  188.8900  179.8320  137.4670 O   0  0  0  0  0  0  0  0  0  0  0  0
  188.7850  178.5850  137.3240 C   0  0  0  0  0  0  0  0  0  0  0  0
  188.6800  178.0370  136.0110 N   0  0  0  0  0  2  0  0  0  0  0  0
  188.4690  173.6530  135.7580 C   0  0  0  0  0  2  0  0  0  0  0  0
  190.9910  176.3290  135.5690 O   0  0  0  0  0  0  0  0  0  0  0  0
  188.6550  176.5990  135.7710 C   0  0  1  0  0  3  0  0  0  0  0  0
  189.9830  176.0180  136.1880 C   0  0  0  0  0  0  0  0  0  0  0  0
  189.5870  173.6030  136.8080 C   0  0  0  0  0  2  0  0  0  0  0  0
  187.2320  174.4570  136.1820 C   0  0  1  0  0  3  0  0  0  0  0  0
  186.1690  176.7050  136.2460 C   0  0  0  0  0  1  0  0  0  0  0  0
  186.5080  173.7640  137.3240 C   0  0  0  0  0  1  0  0  0  0  0  0
  187.4620  175.9460  136.5100 C   0  0  2  0  0  3  0  0  0  0  0  0
  190.0460  174.9830  137.2850 C   0  0  1  0  0  3  0  0  0  0  0  0
  191.4200  174.8900  137.9270 C   0  0  0  0  0  1  0  0  0  0  0  0
  1  6  1  0  0  0  0
  2  5  1  0  0  0  0
  2  1  2  0  0  0  0
  3 17  1  0  0  0  0
  3  4  1  0  0  0  0
  5  3  2  0  0  0  0
  6  4  2  0  0  0  0
  7 12  2  0  0  0  0
  7 10  1  0  0  0  0
  8 13  1  0  0  0  0
  8 12  1  0  0  0  0
  9 11  1  0  0  0  0
 10  1  1  0  0  0  0
 10 11  2  0  0  0  0
 12  9  1  0  0  0  0
 13 14  1  6  0  0  0
 15 16  1  0  0  0  0
 16 13  1  0  0  0  0
 17 18  1  0  0  0  0
 18 19  1  0  0  0  0
 19 20  1  0  0  0  0
 20 21  1  0  0  0  0
 21 22  1  0  0  0  0
 22 25  1  0  0  0  0
 23 22  2  0  0  0  0
 24 25  1  0  0  0  0
 26  5  1  0  0  0  0
 27 26  1  0  0  0  0
 28 27  1  0  0  0  0
 30 29  2  0  0  0  0
 30 28  1  0  0  0  0
 31 30  1  0  0  0  0
 32 37  1  0  0  0  0
 32 36  1  0  0  0  0
 33 35  2  0  0  0  0
 34 31  1  1  0  0  0
 34 35  1  0  0  0  0
 34 40  1  0  0  0  0
 35 41  1  0  0  0  0
 36 41  1  0  0  0  0
 37 40  1  0  0  0  0
 37 39  1  1  0  0  0
 40 38  1  6  0  0  0
 41 42  1  6  0  0  0
M  END
>  <MODEL>
5

>  <REMARK>
 VINA RESULT:      -7.1      2.102      3.291
  Name = 
  14 active torsions:
  status: ('A' for Active; 'I' for Inactive)
    1  A    between atoms: C_1  and  C_7
    2  A    between atoms: C_1  and  C_27
    3  A    between atoms: C_2  and  N_20
    4  A    between atoms: C_2  and  C_22
    5  A    between atoms: C_6  and  C_26
    6  A    between atoms: C_8  and  N_29
    7  A    between atoms: N_12  and  C_25
    8  A    between atoms: C_16  and  C_19
    9  A    between atoms: C_19  and  N_20
   10  A    between atoms: N_21  and  C_38
   11  A    between atoms: C_22  and  C_27
   12  A    between atoms: C_25  and  O_41
   13  A    between atoms: S_28  and  C_38
   14  A    between atoms: S_28  and  C_39
                            x       y       z     vdW  Elec       q    Type
                         _______ _______ _______ _____ _____    ______ ____

>  <TORSDO>
F 14

$$$$
=
 OpenBabel10232412053D

 42 44  0  0  1  0  0  0  0  0999 V2000
  184.4240  178.6510  144.1830 C   0  0  0  0  0  0  0  0  0  0  0  0
  185.7310  178.3870  143.7490 C   0  0  0  0  0  3  0  0  0  0  0  0
  186.5170  178.4090  146.0450 C   0  0  0  0  0  0  0  0  0  0  0  0
  185.2130  178.6660  146.4790 C   0  0  0  0  0  3  0  0  0  0  0  0
  186.7790  178.2680  144.6690 C   0  0  0  0  0  0  0  0  0  0  0  0
  184.1740  178.7900  145.5550 C   0  0  0  0  0  3  0  0  0  0  0  0
  183.5080  178.5650  141.8820 N   0  0  0  0  0  0  0  0  0  0  0  0
  182.2970  178.5630  139.7660 N   0  0  0  0  0  2  0  0  0  0  0  0
  181.0910  179.1580  142.1810 S   0  0  0  0  0  0  0  0  0  0  0  0
  183.3180  178.7760  143.2150 C   0  0  0  0  0  0  0  0  0  0  0  0
  182.0150  179.1230  143.5900 C   0  0  0  0  0  3  0  0  0  0  0  0
  182.3710  178.7400  141.1810 C   0  0  0  0  0  0  0  0  0  0  0  0
  181.0770  178.7870  139.0030 C   0  0  1  0  0  3  0  0  0  0  0  0
  181.0340  180.2230  138.5140 C   0  0  0  0  0  1  0  0  0  0  0  0
  182.3280  178.0190  137.3490 C   0  0  0  0  0  1  0  0  0  0  0  0
  181.0520  177.9250  137.9060 O   0  0  0  0  0  0  0  0  0  0  0  0
  187.5950  178.2580  147.0660 C   0  0  0  0  0  2  0  0  0  0  0  0
  187.4860  176.9580  147.7070 N   0  0  0  0  0  2  0  0  0  0  0  0
  188.8380  176.5000  147.9770 C   0  0  0  0  0  2  0  0  0  0  0  0
  189.8270  177.3410  147.1930 C   0  0  0  0  0  2  0  0  0  0  0  0
  191.1000  176.5460  146.9730 C   0  0  0  0  0  2  0  0  0  0  0  0
  191.6100  176.7600  145.5850 C   0  0  0  0  0  0  0  0  0  0  0  0
  191.9100  177.8810  145.2080 O   0  0  0  0  0  0  0  0  0  0  0  0
  191.2920  175.9440  143.3920 O   0  0  0  0  0  1  0  0  0  0  0  0
  191.7630  175.6010  144.6590 C   0  0  0  0  0  2  0  0  0  0  0  0
  188.4340  177.9340  144.0570 S   0  0  0  0  0  0  0  0  0  0  0  0
  187.8580  176.5900  142.9750 C   0  0  0  0  0  2  0  0  0  0  0  0
  188.4440  176.7340  141.6510 N   0  0  0  0  0  2  0  0  0  0  0  0
  188.2310  179.0590  141.6050 O   0  0  0  0  0  0  0  0  0  0  0  0
  188.6420  178.0120  141.0390 C   0  0  0  0  0  0  0  0  0  0  0  0
  189.2980  178.1100  139.7760 N   0  0  0  0  0  2  0  0  0  0  0  0
  191.3620  174.9250  137.5550 C   0  0  0  0  0  2  0  0  0  0  0  0
  188.0220  176.4660  137.7450 O   0  0  0  0  0  0  0  0  0  0  0  0
  189.8830  176.9500  139.1150 C   0  0  1  0  0  3  0  0  0  0  0  0
  189.2080  176.7650  137.7780 C   0  0  0  0  0  0  0  0  0  0  0  0
  190.8440  175.5780  136.2660 C   0  0  0  0  0  2  0  0  0  0  0  0
  192.1610  175.8660  138.4690 C   0  0  1  0  0  3  0  0  0  0  0  0
  192.0370  177.5270  140.3150 C   0  0  0  0  0  1  0  0  0  0  0  0
  193.4730  176.2610  137.8130 C   0  0  0  0  0  1  0  0  0  0  0  0
  191.4170  177.1130  138.9890 C   0  0  2  0  0  3  0  0  0  0  0  0
  190.0150  176.8420  136.5050 C   0  0  1  0  0  3  0  0  0  0  0  0
  189.1620  177.1530  135.2860 C   0  0  0  0  0  1  0  0  0  0  0  0
  1  6  1  0  0  0  0
  2  1  2  0  0  0  0
  2  5  1  0  0  0  0
  3  4  1  0  0  0  0
  3 17  1  0  0  0  0
  5  3  2  0  0  0  0
  6  4  2  0  0  0  0
  7 10  1  0  0  0  0
  8 12  1  0  0  0  0
  9 11  1  0  0  0  0
 10 11  2  0  0  0  0
 10  1  1  0  0  0  0
 12  7  2  0  0  0  0
 12  9  1  0  0  0  0
 13 14  1  6  0  0  0
 13  8  1  0  0  0  0
 15 16  1  0  0  0  0
 16 13  1  0  0  0  0
 17 18  1  0  0  0  0
 18 19  1  0  0  0  0
 20 19  1  0  0  0  0
 21 20  1  0  0  0  0
 22 21  1  0  0  0  0
 23 22  2  0  0  0  0
 24 25  1  0  0  0  0
 25 22  1  0  0  0  0
 26  5  1  0  0  0  0
 27 26  1  0  0  0  0
 28 27  1  0  0  0  0
 30 29  2  0  0  0  0
 30 28  1  0  0  0  0
 31 30  1  0  0  0  0
 32 37  1  0  0  0  0
 33 35  2  0  0  0  0
 34 31  1  6  0  0  0
 35 34  1  0  0  0  0
 36 41  1  0  0  0  0
 36 32  1  0  0  0  0
 37 39  1  6  0  0  0
 37 40  1  0  0  0  0
 40 34  1  0  0  0  0
 40 38  1  1  0  0  0
 41 42  1  6  0  0  0
 41 35  1  0  0  0  0
M  END
>  <MODEL>
6

>  <REMARK>
 VINA RESULT:      -7.0      1.692      2.130
  Name = 
  14 active torsions:
  status: ('A' for Active; 'I' for Inactive)
    1  A    between atoms: C_1  and  C_7
    2  A    between atoms: C_1  and  C_27
    3  A    between atoms: C_2  and  N_20
    4  A    between atoms: C_2  and  C_22
    5  A    between atoms: C_6  and  C_26
    6  A    between atoms: C_8  and  N_29
    7  A    between atoms: N_12  and  C_25
    8  A    between atoms: C_16  and  C_19
    9  A    between atoms: C_19  and  N_20
   10  A    between atoms: N_21  and  C_38
   11  A    between atoms: C_22  and  C_27
   12  A    between atoms: C_25  and  O_41
   13  A    between atoms: S_28  and  C_38
   14  A    between atoms: S_28  and  C_39
                            x       y       z     vdW  Elec       q    Type
                         _______ _______ _______ _____ _____    ______ ____

>  <TORSDO>
F 14

$$$$
=
 OpenBabel10232412053D

 42 44  0  0  1  0  0  0  0  0999 V2000
  188.5210  177.4310  141.4560 C   0  0  0  0  0  0  0  0  0  0  0  0
  187.3830  178.2460  141.5540 C   0  0  0  0  0  3  0  0  0  0  0  0
  187.2100  177.7490  143.9230 C   0  0  0  0  0  0  0  0  0  0  0  0
  188.3460  176.9400  143.8280 C   0  0  0  0  0  3  0  0  0  0  0  0
  186.7240  178.4080  142.7780 C   0  0  0  0  0  0  0  0  0  0  0  0
  188.9950  176.7790  142.6020 C   0  0  0  0  0  3  0  0  0  0  0  0
  190.1130  176.2520  139.9670 N   0  0  0  0  0  0  0  0  0  0  0  0
  191.5880  175.3300  138.2590 N   0  0  0  0  0  2  0  0  0  0  0  0
  190.0110  177.5610  137.8320 S   0  0  0  0  0  0  0  0  0  0  0  0
  189.2180  177.2600  140.1670 C   0  0  0  0  0  0  0  0  0  0  0  0
  189.0190  178.1140  139.0760 C   0  0  0  0  0  3  0  0  0  0  0  0
  190.6360  176.2870  138.7270 C   0  0  0  0  0  0  0  0  0  0  0  0
  192.1810  175.3880  136.9300 C   0  0  1  0  0  3  0  0  0  0  0  0
  193.4810  176.1700  136.9820 C   0  0  0  0  0  1  0  0  0  0  0  0
  193.7370  173.8180  136.9140 C   0  0  0  0  0  1  0  0  0  0  0  0
  192.4390  174.0930  136.4810 O   0  0  0  0  0  0  0  0  0  0  0  0
  186.5600  177.9160  145.2560 C   0  0  0  0  0  2  0  0  0  0  0  0
  187.3700  177.2790  146.2810 N   0  0  0  0  0  2  0  0  0  0  0  0
  187.6220  178.2760  147.3070 C   0  0  0  0  0  2  0  0  0  0  0  0
  188.9830  178.0360  147.9290 C   0  0  0  0  0  2  0  0  0  0  0  0
  189.5290  176.7050  147.4480 C   0  0  0  0  0  2  0  0  0  0  0  0
  190.9900  176.8190  147.1620 C   0  0  0  0  0  0  0  0  0  0  0  0
  191.7670  177.1310  148.0500 O   0  0  0  0  0  0  0  0  0  0  0  0
  191.5950  177.7280  145.0680 O   0  0  0  0  0  1  0  0  0  0  0  0
  191.5080  176.5390  145.7920 C   0  0  0  0  0  2  0  0  0  0  0  0
  185.2700  179.4600  142.8450 S   0  0  0  0  0  0  0  0  0  0  0  0
  184.1330  178.0410  142.8300 C   0  0  0  0  0  2  0  0  0  0  0  0
  183.1510  178.2020  141.7690 N   0  0  0  0  0  2  0  0  0  0  0  0
  181.7500  179.5890  143.0220 O   0  0  0  0  0  0  0  0  0  0  0  0
  181.9950  179.0320  141.9190 C   0  0  0  0  0  0  0  0  0  0  0  0
  181.1040  179.2280  140.8210 N   0  0  0  0  0  2  0  0  0  0  0  0
  182.1750  177.2490  137.0440 C   0  0  0  0  0  2  0  0  0  0  0  0
  182.9130  180.3710  138.8530 O   0  0  0  0  0  0  0  0  0  0  0  0
  181.3820  178.6940  139.4940 C   0  0  1  0  0  3  0  0  0  0  0  0
  182.7410  179.1770  139.0530 C   0  0  0  0  0  0  0  0  0  0  0  0
  183.6460  177.4860  137.4130 C   0  0  0  0  0  2  0  0  0  0  0  0
  181.3670  176.4900  138.1060 C   0  0  1  0  0  3  0  0  0  0  0  0
  179.9820  176.6910  140.1620 C   0  0  0  0  0  1  0  0  0  0  0  0
  181.8560  175.0560  138.2260 C   0  0  0  0  0  1  0  0  0  0  0  0
  181.2720  177.1500  139.4970 C   0  0  2  0  0  3  0  0  0  0  0  0
  183.8400  178.1840  138.7600 C   0  0  1  0  0  3  0  0  0  0  0  0
  185.2260  178.8010  138.8420 C   0  0  0  0  0  1  0  0  0  0  0  0
  1  2  2  0  0  0  0
  1  6  1  0  0  0  0
  2  5  1  0  0  0  0
  3 17  1  0  0  0  0
  4  3  1  0  0  0  0
  5 26  1  0  0  0  0
  5  3  2  0  0  0  0
  6  4  2  0  0  0  0
  7 10  1  0  0  0  0
  8 12  1  0  0  0  0
  9 12  1  0  0  0  0
  9 11  1  0  0  0  0
 10  1  1  0  0  0  0
 11 10  2  0  0  0  0
 12  7  2  0  0  0  0
 13 14  1  1  0  0  0
 13  8  1  0  0  0  0
 16 15  1  0  0  0  0
 16 13  1  0  0  0  0
 17 18  1  0  0  0  0
 18 19  1  0  0  0  0
 19 20  1  0  0  0  0
 21 20  1  0  0  0  0
 22 21  1  0  0  0  0
 22 23  2  0  0  0  0
 24 25  1  0  0  0  0
 25 22  1  0  0  0  0
 27 26  1  0  0  0  0
 28 30  1  0  0  0  0
 28 27  1  0  0  0  0
 30 29  2  0  0  0  0
 31 30  1  0  0  0  0
 32 36  1  0  0  0  0
 32 37  1  0  0  0  0
 33 35  2  0  0  0  0
 34 40  1  0  0  0  0
 34 31  1  1  0  0  0
 35 34  1  0  0  0  0
 36 41  1  0  0  0  0
 37 39  1  1  0  0  0
 37 40  1  0  0  0  0
 40 38  1  6  0  0  0
 41 42  1  6  0  0  0
 41 35  1  0  0  0  0
M  END
>  <MODEL>
7

>  <REMARK>
 VINA RESULT:      -6.9      2.644      7.163
  Name = 
  14 active torsions:
  status: ('A' for Active; 'I' for Inactive)
    1  A    between atoms: C_1  and  C_7
    2  A    between atoms: C_1  and  C_27
    3  A    between atoms: C_2  and  N_20
    4  A    between atoms: C_2  and  C_22
    5  A    between atoms: C_6  and  C_26
    6  A    between atoms: C_8  and  N_29
    7  A    between atoms: N_12  and  C_25
    8  A    between atoms: C_16  and  C_19
    9  A    between atoms: C_19  and  N_20
   10  A    between atoms: N_21  and  C_38
   11  A    between atoms: C_22  and  C_27
   12  A    between atoms: C_25  and  O_41
   13  A    between atoms: S_28  and  C_38
   14  A    between atoms: S_28  and  C_39
                            x       y       z     vdW  Elec       q    Type
                         _______ _______ _______ _____ _____    ______ ____

>  <TORSDO>
F 14

$$$$
=
 OpenBabel10232412053D

 42 44  0  0  1  0  0  0  0  0999 V2000
  184.3600  178.4130  143.1740 C   0  0  0  0  0  0  0  0  0  0  0  0
  184.1180  178.0380  141.8440 C   0  0  0  0  0  3  0  0  0  0  0  0
  181.8170  178.7850  142.0310 C   0  0  0  0  0  0  0  0  0  0  0  0
  182.0580  179.1640  143.3560 C   0  0  0  0  0  3  0  0  0  0  0  0
  182.8560  178.2170  141.2690 C   0  0  0  0  0  0  0  0  0  0  0  0
  183.3190  178.9760  143.9250 C   0  0  0  0  0  3  0  0  0  0  0  0
  185.8670  178.2410  145.1340 N   0  0  0  0  0  0  0  0  0  0  0  0
  187.6080  178.0200  146.8260 N   0  0  0  0  0  2  0  0  0  0  0  0
  188.1270  177.8710  144.1140 S   0  0  0  0  0  0  0  0  0  0  0  0
  185.6900  178.2250  143.7820 C   0  0  0  0  0  0  0  0  0  0  0  0
  186.8510  178.0280  143.0250 C   0  0  0  0  0  3  0  0  0  0  0  0
  187.1580  178.0600  145.4700 C   0  0  0  0  0  0  0  0  0  0  0  0
  189.0090  177.8600  147.1900 C   0  0  1  0  0  3  0  0  0  0  0  0
  189.2250  178.3290  148.6180 C   0  0  0  0  0  1  0  0  0  0  0  0
  190.7490  176.5230  146.9190 C   0  0  0  0  0  1  0  0  0  0  0  0
  189.3640  176.5140  147.0880 O   0  0  0  0  0  0  0  0  0  0  0  0
  180.4640  179.0260  141.4520 C   0  0  0  0  0  2  0  0  0  0  0  0
  180.3390  180.4200  141.0580 N   0  0  0  0  0  2  0  0  0  0  0  0
  180.0870  180.4380  139.6270 C   0  0  0  0  0  2  0  0  0  0  0  0
  180.0340  181.8700  139.1360 C   0  0  0  0  0  2  0  0  0  0  0  0
  181.1720  182.1110  138.1620 C   0  0  0  0  0  2  0  0  0  0  0  0
  180.7750  183.1300  137.1450 C   0  0  0  0  0  0  0  0  0  0  0  0
  180.9680  184.3160  137.3560 O   0  0  0  0  0  0  0  0  0  0  0  0
  181.0390  182.9170  134.8080 O   0  0  0  0  0  1  0  0  0  0  0  0
  180.1500  182.7000  135.8610 C   0  0  0  0  0  2  0  0  0  0  0  0
  182.6030  177.7160  139.5630 S   0  0  0  0  0  0  0  0  0  0  0  0
  184.1050  178.5700  138.9960 C   0  0  0  0  0  2  0  0  0  0  0  0
  184.9590  177.6420  138.2700 N   0  0  0  0  0  2  0  0  0  0  0  0
  183.6270  177.6270  136.3520 O   0  0  0  0  0  0  0  0  0  0  0  0
  184.6810  177.2430  136.9240 C   0  0  0  0  0  0  0  0  0  0  0  0
  185.5930  176.3990  136.2220 N   0  0  0  0  0  2  0  0  0  0  0  0
  189.6130  175.1360  137.4770 C   0  0  0  0  0  2  0  0  0  0  0  0
  186.1340  173.9450  137.6840 O   0  0  0  0  0  0  0  0  0  0  0  0
  186.8740  176.0000  136.7910 C   0  0  1  0  0  3  0  0  0  0  0  0
  186.9030  174.4970  136.9100 C   0  0  0  0  0  0  0  0  0  0  0  0
  189.3220  173.7810  136.8180 C   0  0  0  0  0  2  0  0  0  0  0  0
  189.4440  176.3450  136.5460 C   0  0  1  0  0  3  0  0  0  0  0  0
  187.8560  178.0340  135.6440 C   0  0  0  0  0  1  0  0  0  0  0  0
  190.5030  176.3340  135.4570 C   0  0  0  0  0  1  0  0  0  0  0  0
  188.0420  176.5520  135.9380 C   0  0  2  0  0  3  0  0  0  0  0  0
  187.9420  173.6980  136.1610 C   0  0  1  0  0  3  0  0  0  0  0  0
  187.5370  172.2470  135.9630 C   0  0  0  0  0  1  0  0  0  0  0  0
  1 10  1  0  0  0  0
  1  6  1  0  0  0  0
  2  1  2  0  0  0  0
  3  4  1  0  0  0  0
  4  6  2  0  0  0  0
  5  2  1  0  0  0  0
  5  3  2  0  0  0  0
  7 12  2  0  0  0  0
  8 13  1  0  0  0  0
  9 12  1  0  0  0  0
 10  7  1  0  0  0  0
 11 10  2  0  0  0  0
 11  9  1  0  0  0  0
 12  8  1  0  0  0  0
 13 14  1  1  0  0  0
 15 16  1  0  0  0  0
 16 13  1  0  0  0  0
 17  3  1  0  0  0  0
 18 17  1  0  0  0  0
 19 18  1  0  0  0  0
 20 19  1  0  0  0  0
 21 20  1  0  0  0  0
 22 23  2  0  0  0  0
 22 21  1  0  0  0  0
 24 25  1  0  0  0  0
 25 22  1  0  0  0  0
 26  5  1  0  0  0  0
 27 26  1  0  0  0  0
 28 27  1  0  0  0  0
 29 30  2  0  0  0  0
 30 28  1  0  0  0  0
 31 30  1  0  0  0  0
 34 31  1  6  0  0  0
 34 35  1  0  0  0  0
 35 33  2  0  0  0  0
 36 32  1  0  0  0  0
 37 39  1  6  0  0  0
 37 32  1  0  0  0  0
 40 38  1  1  0  0  0
 40 37  1  0  0  0  0
 40 34  1  0  0  0  0
 41 42  1  1  0  0  0
 41 36  1  0  0  0  0
 41 35  1  0  0  0  0
M  END
>  <MODEL>
8

>  <REMARK>
 VINA RESULT:      -6.6      2.219      8.490
  Name = 
  14 active torsions:
  status: ('A' for Active; 'I' for Inactive)
    1  A    between atoms: C_1  and  C_7
    2  A    between atoms: C_1  and  C_27
    3  A    between atoms: C_2  and  N_20
    4  A    between atoms: C_2  and  C_22
    5  A    between atoms: C_6  and  C_26
    6  A    between atoms: C_8  and  N_29
    7  A    between atoms: N_12  and  C_25
    8  A    between atoms: C_16  and  C_19
    9  A    between atoms: C_19  and  N_20
   10  A    between atoms: N_21  and  C_38
   11  A    between atoms: C_22  and  C_27
   12  A    between atoms: C_25  and  O_41
   13  A    between atoms: S_28  and  C_38
   14  A    between atoms: S_28  and  C_39
                            x       y       z     vdW  Elec       q    Type
                         _______ _______ _______ _____ _____    ______ ____

>  <TORSDO>
F 14

$$$$
=
 OpenBabel10232412053D

 42 44  0  0  1  0  0  0  0  0999 V2000
  190.2890  173.0470  135.6810 C   0  0  0  0  0  0  0  0  0  0  0  0
  189.5080  174.0320  136.3020 C   0  0  0  0  0  3  0  0  0  0  0  0
  187.4940  173.0490  135.3710 C   0  0  0  0  0  0  0  0  0  0  0  0
  188.2710  172.0630  134.7550 C   0  0  0  0  0  3  0  0  0  0  0  0
  188.1170  174.0420  136.1510 C   0  0  0  0  0  0  0  0  0  0  0  0
  189.6600  172.0640  134.9060 C   0  0  0  0  0  3  0  0  0  0  0  0
  192.4260  174.0950  136.3750 N   0  0  0  0  0  0  0  0  0  0  0  0
  194.6790  174.8250  136.9500 N   0  0  0  0  0  2  0  0  0  0  0  0
  194.1480  172.3660  135.8050 S   0  0  0  0  0  0  0  0  0  0  0  0
  191.7560  173.0340  135.8400 C   0  0  0  0  0  0  0  0  0  0  0  0
  192.5530  171.9510  135.4530 C   0  0  0  0  0  3  0  0  0  0  0  0
  193.7530  173.8750  136.4200 C   0  0  0  0  0  0  0  0  0  0  0  0
  196.1180  174.6040  136.9660 C   0  0  1  0  0  3  0  0  0  0  0  0
  196.7700  175.3840  135.8380 C   0  0  0  0  0  1  0  0  0  0  0  0
  195.9580  174.2880  139.1480 C   0  0  0  0  0  1  0  0  0  0  0  0
  196.6400  175.0340  138.1860 O   0  0  0  0  0  0  0  0  0  0  0  0
  186.0120  172.9990  135.2070 C   0  0  0  0  0  2  0  0  0  0  0  0
  185.4750  171.8650  135.9400 N   0  0  0  0  0  2  0  0  0  0  0  0
  184.7070  172.4000  137.0510 C   0  0  0  0  0  2  0  0  0  0  0  0
  183.2760  171.9090  136.9670 C   0  0  0  0  0  2  0  0  0  0  0  0
  182.3540  173.0850  136.7080 C   0  0  0  0  0  2  0  0  0  0  0  0
  180.9790  172.7840  137.2090 C   0  0  0  0  0  0  0  0  0  0  0  0
  180.5390  171.6480  137.1470 O   0  0  0  0  0  0  0  0  0  0  0  0
  180.9470  174.7340  138.5400 O   0  0  0  0  0  1  0  0  0  0  0  0
  180.1430  173.8700  137.7980 C   0  0  0  0  0  2  0  0  0  0  0  0
  187.1670  175.3300  136.9660 S   0  0  0  0  0  0  0  0  0  0  0  0
  188.6310  176.3830  137.2030 C   0  0  0  0  0  2  0  0  0  0  0  0
  188.6440  176.9170  138.5560 N   0  0  0  0  0  2  0  0  0  0  0  0
  188.7850  179.1460  137.8750 O   0  0  0  0  0  0  0  0  0  0  0  0
  188.6790  178.3220  138.8220 C   0  0  0  0  0  0  0  0  0  0  0  0
  188.6040  178.8030  140.1630 N   0  0  0  0  0  2  0  0  0  0  0  0
  187.8560  176.5130  143.8410 C   0  0  0  0  0  2  0  0  0  0  0  0
  190.6270  177.2160  141.5210 O   0  0  0  0  0  0  0  0  0  0  0  0
  188.3830  177.9100  141.2940 C   0  0  1  0  0  3  0  0  0  0  0  0
  189.6760  177.7680  142.0570 C   0  0  0  0  0  0  0  0  0  0  0  0
  189.0840  177.2070  144.4460 C   0  0  0  0  0  2  0  0  0  0  0  0
  186.7840  177.4710  143.3030 C   0  0  1  0  0  3  0  0  0  0  0  0
  186.0060  178.7840  141.3390 C   0  0  0  0  0  1  0  0  0  0  0  0
  186.1350  178.2420  144.4400 C   0  0  0  0  0  1  0  0  0  0  0  0
  187.2250  178.4310  142.1790 C   0  0  2  0  0  3  0  0  0  0  0  0
  189.7570  178.2040  143.5000 C   0  0  1  0  0  3  0  0  0  0  0  0
  191.1810  178.4830  143.9510 C   0  0  0  0  0  1  0  0  0  0  0  0
  1 10  1  0  0  0  0
  1  2  1  0  0  0  0
  3  5  1  0  0  0  0
  4  6  1  0  0  0  0
  4  3  2  0  0  0  0
  5  2  2  0  0  0  0
  5 26  1  0  0  0  0
  6  1  2  0  0  0  0
  7 12  2  0  0  0  0
  8 13  1  0  0  0  0
  9 12  1  0  0  0  0
 10  7  1  0  0  0  0
 11  9  1  0  0  0  0
 11 10  2  0  0  0  0
 12  8  1  0  0  0  0
 13 14  1  6  0  0  0
 13 16  1  0  0  0  0
 16 15  1  0  0  0  0
 17  3  1  0  0  0  0
 17 18  1  0  0  0  0
 18 19  1  0  0  0  0
 20 19  1  0  0  0  0
 21 20  1  0  0  0  0
 21 22  1  0  0  0  0
 22 25  1  0  0  0  0
 23 22  2  0  0  0  0
 25 24  1  0  0  0  0
 26 27  1  0  0  0  0
 27 28  1  0  0  0  0
 28 30  1  0  0  0  0
 29 30  2  0  0  0  0
 30 31  1  0  0  0  0
 32 36  1  0  0  0  0
 33 35  2  0  0  0  0
 34 31  1  6  0  0  0
 34 35  1  0  0  0  0
 34 40  1  0  0  0  0
 35 41  1  0  0  0  0
 37 32  1  0  0  0  0
 37 39  1  1  0  0  0
 40 38  1  6  0  0  0
 40 37  1  0  0  0  0
 41 42  1  1  0  0  0
 41 36  1  0  0  0  0
M  END
>  <MODEL>
9

>  <REMARK>
 VINA RESULT:      -6.5      3.941     11.118
  Name = 
  14 active torsions:
  status: ('A' for Active; 'I' for Inactive)
    1  A    between atoms: C_1  and  C_7
    2  A    between atoms: C_1  and  C_27
    3  A    between atoms: C_2  and  N_20
    4  A    between atoms: C_2  and  C_22
    5  A    between atoms: C_6  and  C_26
    6  A    between atoms: C_8  and  N_29
    7  A    between atoms: N_12  and  C_25
    8  A    between atoms: C_16  and  C_19
    9  A    between atoms: C_19  and  N_20
   10  A    between atoms: N_21  and  C_38
   11  A    between atoms: C_22  and  C_27
   12  A    between atoms: C_25  and  O_41
   13  A    between atoms: S_28  and  C_38
   14  A    between atoms: S_28  and  C_39
                            x       y       z     vdW  Elec       q    Type
                         _______ _______ _______ _____ _____    ______ ____

>  <TORSDO>
F 14

$$$$
