=
 OpenBabel10232411213D

 37 39  0  0  1  0  0  0  0  0999 V2000
  188.0490  177.6420  144.7400 C   0  0  2  0  0  3  0  0  0  0  0  0
  189.2490  177.2020  145.5220 C   0  0  0  0  0  0  0  0  0  0  0  0
  192.6880  176.0100  147.6150 N   0  0  0  0  0  1  0  0  0  0  0  0
  191.5180  176.4190  146.9160 C   0  0  0  0  0  0  0  0  0  0  0  0
  191.5940  176.7480  145.5970 N   0  0  0  0  0  0  0  0  0  0  0  0
  189.1530  176.8730  146.8800 C   0  0  0  0  0  3  0  0  0  0  0  0
  190.2920  176.4770  147.5820 C   0  0  0  0  0  3  0  0  0  0  0  0
  190.4960  177.1360  144.8940 C   0  0  0  0  0  3  0  0  0  0  0  0
  186.7770  177.5400  145.6040 C   0  0  1  0  0  3  0  0  0  0  0  0
  186.7240  178.6080  146.6810 C   0  0  0  0  0  2  0  0  0  0  0  0
  185.8460  178.7320  145.4470 C   0  0  2  0  0  3  0  0  0  0  0  0
  184.4370  178.3010  145.7890 C   0  0  0  0  0  2  0  0  0  0  0  0
  183.4400  179.2050  145.0860 C   0  0  0  0  0  2  0  0  0  0  0  0
  182.9900  178.5730  143.7810 C   0  0  1  0  0  3  0  0  0  0  0  0
  181.6280  178.8090  143.6010 O   0  0  0  0  0  1  0  0  0  0  0  0
  183.7680  179.1720  142.6190 C   0  0  0  0  0  2  0  0  0  0  0  0
  183.8800  178.1760  141.4660 C   0  0  1  0  0  3  0  0  0  0  0  0
  182.6370  177.9870  140.8510 O   0  0  0  0  0  1  0  0  0  0  0  0
  184.8800  178.5230  140.5280 O   0  0  0  0  0  0  0  0  0  0  0  0
  184.3720  180.2630  139.1370 O   0  0  0  0  0  1  0  0  0  0  0  0
  184.2640  178.8840  139.3160 C   0  0  1  0  0  3  0  0  0  0  0  0
  184.9450  178.1590  138.1660 C   0  0  0  0  0  2  0  0  0  0  0  0
  184.4670  177.1050  136.0750 O   0  0  0  0  0  1  0  0  0  0  0  0
  183.5640  176.1090  138.0310 C   0  0  0  0  0  1  0  0  0  0  0  0
  183.9290  177.3990  137.3290 C   0  0  1  0  0  3  0  0  0  0  0  0
  187.9960  176.9730  143.3570 C   0  0  0  0  0  2  0  0  0  0  0  0
  187.6950  177.9890  142.2660 C   0  0  0  0  0  2  0  0  0  0  0  0
  188.8070  178.1420  141.4370 O   0  0  0  0  0  0  0  0  0  0  0  0
  188.3040  178.0060  140.1420 C   0  0  0  0  0  2  0  0  0  0  0  0
  189.2250  178.7440  138.0770 O   0  0  0  0  0  0  0  0  0  0  0  0
  189.4160  178.1310  139.1630 C   0  0  0  0  0  0  0  0  0  0  0  0
  190.6680  177.6030  139.4700 O   0  0  0  0  0  0  0  0  0  0  0  0
  191.0010  175.6590  138.2650 C   0  0  0  0  0  0  0  0  0  0  0  0
  190.9990  175.6670  136.7400 C   0  0  0  0  0  2  0  0  0  0  0  0
  191.2040  174.4190  137.4020 C   0  0  2  0  0  3  0  0  0  0  0  0
  190.8990  176.2480  139.4110 N   0  0  0  0  0  0  0  0  0  0  0  0
  190.0240  173.6760  137.4000 O   0  0  0  0  0  1  0  0  0  0  0  0
  1 26  1  6  0  0  0
  1  2  1  0  0  0  0
  2  6  1  0  0  0  0
  4  7  1  0  0  0  0
  4  3  1  0  0  0  0
  5  4  2  0  0  0  0
  6  7  2  0  0  0  0
  8  2  2  0  0  0  0
  8  5  1  0  0  0  0
  9  1  1  6  0  0  0
  9 10  1  0  0  0  0
 11  9  1  0  0  0  0
 11 12  1  1  0  0  0
 11 10  1  0  0  0  0
 13 12  1  0  0  0  0
 14 15  1  6  0  0  0
 14 13  1  0  0  0  0
 16 14  1  0  0  0  0
 17 18  1  6  0  0  0
 17 16  1  0  0  0  0
 19 17  1  0  0  0  0
 21 20  1  6  0  0  0
 21 19  1  0  0  0  0
 22 21  1  0  0  0  0
 23 25  1  0  0  0  0
 25 24  1  1  0  0  0
 25 22  1  0  0  0  0
 27 26  1  0  0  0  0
 28 27  1  0  0  0  0
 29 28  1  0  0  0  0
 30 31  2  0  0  0  0
 31 32  1  0  0  0  0
 31 29  1  0  0  0  0
 33 36  2  0  0  0  0
 34 35  1  0  0  0  0
 34 33  1  0  0  0  0
 35 37  1  1  0  0  0
 35 33  1  0  0  0  0
 36 32  1  0  0  0  0
M  END
>  <MODEL>
1

>  <REMARK>
 VINA RESULT:      -7.6      0.000      0.000
  Name = 
  18 active torsions:
  status: ('A' for Active; 'I' for Inactive)
    1  A    between atoms: C_1  and  C_19
    2  A    between atoms: O_4  and  N_23
    3  A    between atoms: O_4  and  C_31
    4  A    between atoms: C_5  and  C_19
    5  A    between atoms: C_10  and  O_25
    6  A    between atoms: C_10  and  C_33
    7  A    between atoms: C_12  and  C_18
    8  A    between atoms: C_12  and  C_33
    9  A    between atoms: C_17  and  C_19
   10  A    between atoms: C_17  and  C_29
   11  A    between atoms: C_18  and  C_30
   12  A    between atoms: C_20  and  C_28
   13  A    between atoms: O_25  and  C_26
   14  A    between atoms: C_26  and  C_28
   15  A    between atoms: C_29  and  O_37
   16  A    between atoms: C_30  and  C_35
   17  A    between atoms: C_31  and  C_34
   18  A    between atoms: C_34  and  O_37
                            x       y       z     vdW  Elec       q    Type
                         _______ _______ _______ _____ _____    ______ ____

>  <TORSDO>
F 18

$$$$
=
 OpenBabel10232411213D

 37 39  0  0  1  0  0  0  0  0999 V2000
  187.6890  177.7330  144.6070 C   0  0  2  0  0  3  0  0  0  0  0  0
  188.8950  177.3880  145.4260 C   0  0  0  0  0  0  0  0  0  0  0  0
  192.1950  176.3610  147.8090 N   0  0  0  0  0  1  0  0  0  0  0  0
  191.0830  176.7060  146.9920 C   0  0  0  0  0  0  0  0  0  0  0  0
  189.8160  176.5570  147.4690 N   0  0  0  0  0  0  0  0  0  0  0  0
  190.1900  177.5430  144.9170 C   0  0  0  0  0  3  0  0  0  0  0  0
  191.2920  177.2020  145.7030 C   0  0  0  0  0  3  0  0  0  0  0  0
  188.7290  176.8830  146.7180 C   0  0  0  0  0  3  0  0  0  0  0  0
  186.4190  177.7080  145.4800 C   0  0  1  0  0  3  0  0  0  0  0  0
  186.4040  178.8230  146.5090 C   0  0  0  0  0  2  0  0  0  0  0  0
  185.5230  178.9180  145.2750 C   0  0  2  0  0  3  0  0  0  0  0  0
  184.1040  178.5450  145.6420 C   0  0  0  0  0  2  0  0  0  0  0  0
  183.1290  179.3760  144.8270 C   0  0  0  0  0  2  0  0  0  0  0  0
  182.3260  178.4820  143.9000 C   0  0  1  0  0  3  0  0  0  0  0  0
  180.9680  178.6200  144.1880 O   0  0  0  0  0  1  0  0  0  0  0  0
  182.5810  178.8730  142.4520 C   0  0  0  0  0  2  0  0  0  0  0  0
  181.2830  178.8560  141.6460 C   0  0  1  0  0  3  0  0  0  0  0  0
  180.8660  180.1580  141.3490 O   0  0  0  0  0  1  0  0  0  0  0  0
  181.3630  178.0550  140.4830 O   0  0  0  0  0  0  0  0  0  0  0  0
  183.0030  176.5610  139.9320 O   0  0  0  0  0  1  0  0  0  0  0  0
  182.7140  177.9140  140.1170 C   0  0  1  0  0  3  0  0  0  0  0  0
  182.9720  178.6780  138.8280 C   0  0  0  0  0  2  0  0  0  0  0  0
  184.7680  179.5700  140.1270 O   0  0  0  0  0  1  0  0  0  0  0  0
  185.3380  178.2760  138.2220 C   0  0  0  0  0  1  0  0  0  0  0  0
  184.3710  179.2730  138.8230 C   0  0  1  0  0  3  0  0  0  0  0  0
  187.6400  176.9260  143.2990 C   0  0  0  0  0  2  0  0  0  0  0  0
  187.2740  177.8120  142.1190 C   0  0  0  0  0  2  0  0  0  0  0  0
  188.3970  178.5170  141.6840 O   0  0  0  0  0  0  0  0  0  0  0  0
  189.1810  177.5640  141.0330 C   0  0  0  0  0  2  0  0  0  0  0  0
  188.7360  178.9330  139.1400 O   0  0  0  0  0  0  0  0  0  0  0  0
  189.1790  177.8340  139.5710 C   0  0  0  0  0  0  0  0  0  0  0  0
  189.7030  176.8870  138.6940 O   0  0  0  0  0  0  0  0  0  0  0  0
  191.6350  176.2160  137.6190 C   0  0  0  0  0  0  0  0  0  0  0  0
  192.0870  174.7600  137.6440 C   0  0  0  0  0  2  0  0  0  0  0  0
  192.9010  175.7000  136.9420 C   0  0  2  0  0  3  0  0  0  0  0  0
  190.8160  177.1640  137.9350 N   0  0  0  0  0  0  0  0  0  0  0  0
  194.0020  176.0550  137.7200 O   0  0  0  0  0  1  0  0  0  0  0  0
  1 26  1  6  0  0  0
  1  2  1  0  0  0  0
  2  8  1  0  0  0  0
  4  5  1  0  0  0  0
  4  3  1  0  0  0  0
  6  2  2  0  0  0  0
  6  7  1  0  0  0  0
  7  4  2  0  0  0  0
  8  5  2  0  0  0  0
  9  1  1  6  0  0  0
  9 10  1  0  0  0  0
 11  9  1  0  0  0  0
 11 12  1  1  0  0  0
 11 10  1  0  0  0  0
 13 12  1  0  0  0  0
 14 15  1  1  0  0  0
 14 13  1  0  0  0  0
 16 14  1  0  0  0  0
 17 18  1  6  0  0  0
 17 16  1  0  0  0  0
 19 17  1  0  0  0  0
 21 20  1  6  0  0  0
 21 19  1  0  0  0  0
 22 21  1  0  0  0  0
 25 24  1  1  0  0  0
 25 22  1  0  0  0  0
 25 23  1  0  0  0  0
 27 26  1  0  0  0  0
 28 27  1  0  0  0  0
 29 28  1  0  0  0  0
 30 31  2  0  0  0  0
 31 29  1  0  0  0  0
 32 31  1  0  0  0  0
 33 34  1  0  0  0  0
 33 36  2  0  0  0  0
 35 33  1  0  0  0  0
 35 34  1  0  0  0  0
 35 37  1  1  0  0  0
 36 32  1  0  0  0  0
M  END
>  <MODEL>
2

>  <REMARK>
 VINA RESULT:      -7.4      1.402      2.060
  Name = 
  18 active torsions:
  status: ('A' for Active; 'I' for Inactive)
    1  A    between atoms: C_1  and  C_19
    2  A    between atoms: O_4  and  N_23
    3  A    between atoms: O_4  and  C_31
    4  A    between atoms: C_5  and  C_19
    5  A    between atoms: C_10  and  O_25
    6  A    between atoms: C_10  and  C_33
    7  A    between atoms: C_12  and  C_18
    8  A    between atoms: C_12  and  C_33
    9  A    between atoms: C_17  and  C_19
   10  A    between atoms: C_17  and  C_29
   11  A    between atoms: C_18  and  C_30
   12  A    between atoms: C_20  and  C_28
   13  A    between atoms: O_25  and  C_26
   14  A    between atoms: C_26  and  C_28
   15  A    between atoms: C_29  and  O_37
   16  A    between atoms: C_30  and  C_35
   17  A    between atoms: C_31  and  C_34
   18  A    between atoms: C_34  and  O_37
                            x       y       z     vdW  Elec       q    Type
                         _______ _______ _______ _____ _____    ______ ____

>  <TORSDO>
F 18

$$$$
=
 OpenBabel10232411213D

 37 39  0  0  1  0  0  0  0  0999 V2000
  188.0590  177.6920  144.7310 C   0  0  2  0  0  3  0  0  0  0  0  0
  189.2650  177.2700  145.5140 C   0  0  0  0  0  0  0  0  0  0  0  0
  192.5640  176.0460  147.8040 N   0  0  0  0  0  1  0  0  0  0  0  0
  191.4510  176.4560  147.0180 C   0  0  0  0  0  0  0  0  0  0  0  0
  190.2080  176.5050  147.5720 N   0  0  0  0  0  0  0  0  0  0  0  0
  190.5350  177.2200  144.9260 C   0  0  0  0  0  3  0  0  0  0  0  0
  191.6360  176.8130  145.6800 C   0  0  0  0  0  3  0  0  0  0  0  0
  189.1220  176.9000  146.8540 C   0  0  0  0  0  3  0  0  0  0  0  0
  186.7820  177.5250  145.5770 C   0  0  1  0  0  3  0  0  0  0  0  0
  186.7480  178.4710  146.7630 C   0  0  0  0  0  2  0  0  0  0  0  0
  185.8770  178.7460  145.5490 C   0  0  2  0  0  3  0  0  0  0  0  0
  184.4580  178.3110  145.8410 C   0  0  0  0  0  2  0  0  0  0  0  0
  183.4850  179.1850  145.0700 C   0  0  0  0  0  2  0  0  0  0  0  0
  183.2960  178.6440  143.6640 C   0  0  1  0  0  3  0  0  0  0  0  0
  182.0680  179.0770  143.1660 O   0  0  0  0  0  1  0  0  0  0  0  0
  184.4150  179.1420  142.7610 C   0  0  0  0  0  2  0  0  0  0  0  0
  184.0650  178.9270  141.2900 C   0  0  1  0  0  3  0  0  0  0  0  0
  185.0060  179.5450  140.4600 O   0  0  0  0  0  1  0  0  0  0  0  0
  183.8890  177.5640  140.9560 O   0  0  0  0  0  0  0  0  0  0  0  0
  182.1320  178.6720  140.0040 O   0  0  0  0  0  1  0  0  0  0  0  0
  182.7880  177.4440  140.0880 C   0  0  1  0  0  3  0  0  0  0  0  0
  183.2720  177.0210  138.7100 C   0  0  0  0  0  2  0  0  0  0  0  0
  181.8500  175.1740  138.1880 O   0  0  0  0  0  1  0  0  0  0  0  0
  184.1000  175.0650  137.4400 C   0  0  0  0  0  1  0  0  0  0  0  0
  183.1580  175.5160  138.5350 C   0  0  1  0  0  3  0  0  0  0  0  0
  188.0430  177.0610  143.3290 C   0  0  0  0  0  2  0  0  0  0  0  0
  187.7610  178.1040  142.2590 C   0  0  0  0  0  2  0  0  0  0  0  0
  188.5140  177.8300  141.1170 O   0  0  0  0  0  0  0  0  0  0  0  0
  189.3300  176.7570  141.4800 C   0  0  0  0  0  2  0  0  0  0  0  0
  191.6020  177.3850  141.1630 O   0  0  0  0  0  0  0  0  0  0  0  0
  190.5890  176.8020  140.6900 C   0  0  0  0  0  0  0  0  0  0  0  0
  190.6480  176.1650  139.4520 O   0  0  0  0  0  0  0  0  0  0  0  0
  189.7850  177.4390  137.7280 C   0  0  0  0  0  0  0  0  0  0  0  0
  188.2950  177.7570  137.6520 C   0  0  0  0  0  2  0  0  0  0  0  0
  189.1410  178.2630  136.6190 C   0  0  2  0  0  3  0  0  0  0  0  0
  190.8070  176.8870  138.2920 N   0  0  0  0  0  0  0  0  0  0  0  0
  189.0300  177.4690  135.4780 O   0  0  0  0  0  1  0  0  0  0  0  0
  1 26  1  6  0  0  0
  1  2  1  0  0  0  0
  2  8  1  0  0  0  0
  4  5  1  0  0  0  0
  4  3  1  0  0  0  0
  6  2  2  0  0  0  0
  6  7  1  0  0  0  0
  7  4  2  0  0  0  0
  8  5  2  0  0  0  0
  9  1  1  6  0  0  0
  9 10  1  0  0  0  0
 11  9  1  0  0  0  0
 11 12  1  1  0  0  0
 11 10  1  0  0  0  0
 13 12  1  0  0  0  0
 14 15  1  6  0  0  0
 14 13  1  0  0  0  0
 16 14  1  0  0  0  0
 17 18  1  6  0  0  0
 17 16  1  0  0  0  0
 19 17  1  0  0  0  0
 21 20  1  6  0  0  0
 21 19  1  0  0  0  0
 22 21  1  0  0  0  0
 23 25  1  0  0  0  0
 25 24  1  6  0  0  0
 25 22  1  0  0  0  0
 27 26  1  0  0  0  0
 28 29  1  0  0  0  0
 28 27  1  0  0  0  0
 31 30  2  0  0  0  0
 31 29  1  0  0  0  0
 32 31  1  0  0  0  0
 33 36  2  0  0  0  0
 34 33  1  0  0  0  0
 35 37  1  6  0  0  0
 35 34  1  0  0  0  0
 35 33  1  0  0  0  0
 36 32  1  0  0  0  0
M  END
>  <MODEL>
3

>  <REMARK>
 VINA RESULT:      -7.4      1.587      2.093
  Name = 
  18 active torsions:
  status: ('A' for Active; 'I' for Inactive)
    1  A    between atoms: C_1  and  C_19
    2  A    between atoms: O_4  and  N_23
    3  A    between atoms: O_4  and  C_31
    4  A    between atoms: C_5  and  C_19
    5  A    between atoms: C_10  and  O_25
    6  A    between atoms: C_10  and  C_33
    7  A    between atoms: C_12  and  C_18
    8  A    between atoms: C_12  and  C_33
    9  A    between atoms: C_17  and  C_19
   10  A    between atoms: C_17  and  C_29
   11  A    between atoms: C_18  and  C_30
   12  A    between atoms: C_20  and  C_28
   13  A    between atoms: O_25  and  C_26
   14  A    between atoms: C_26  and  C_28
   15  A    between atoms: C_29  and  O_37
   16  A    between atoms: C_30  and  C_35
   17  A    between atoms: C_31  and  C_34
   18  A    between atoms: C_34  and  O_37
                            x       y       z     vdW  Elec       q    Type
                         _______ _______ _______ _____ _____    ______ ____

>  <TORSDO>
F 18

$$$$
=
 OpenBabel10232411213D

 37 39  0  0  1  0  0  0  0  0999 V2000
  188.0400  177.6790  143.9720 C   0  0  2  0  0  3  0  0  0  0  0  0
  189.0830  177.3500  144.9960 C   0  0  0  0  0  0  0  0  0  0  0  0
  192.0980  176.4690  147.7810 N   0  0  0  0  0  1  0  0  0  0  0  0
  191.0690  176.7720  146.8460 C   0  0  0  0  0  0  0  0  0  0  0  0
  191.3890  177.0610  145.5550 N   0  0  0  0  0  0  0  0  0  0  0  0
  188.7370  177.0610  146.3220 C   0  0  0  0  0  3  0  0  0  0  0  0
  189.7330  176.7680  147.2540 C   0  0  0  0  0  3  0  0  0  0  0  0
  190.4320  177.3490  144.6310 C   0  0  0  0  0  3  0  0  0  0  0  0
  186.6290  177.5380  144.5770 C   0  0  1  0  0  3  0  0  0  0  0  0
  186.3840  178.5210  145.7060 C   0  0  0  0  0  2  0  0  0  0  0  0
  185.7500  178.7570  144.3460 C   0  0  2  0  0  3  0  0  0  0  0  0
  184.3000  178.3310  144.3880 C   0  0  0  0  0  2  0  0  0  0  0  0
  183.5930  178.7960  143.1280 C   0  0  0  0  0  2  0  0  0  0  0  0
  184.2090  178.1370  141.9070 C   0  0  1  0  0  3  0  0  0  0  0  0
  183.1940  177.6420  141.0890 O   0  0  0  0  0  1  0  0  0  0  0  0
  185.0370  179.1520  141.1330 C   0  0  0  0  0  2  0  0  0  0  0  0
  184.7640  179.0470  139.6330 C   0  0  1  0  0  3  0  0  0  0  0  0
  184.4480  180.3010  139.0980 O   0  0  0  0  0  1  0  0  0  0  0  0
  185.8150  178.4240  138.9200 O   0  0  0  0  0  0  0  0  0  0  0  0
  186.2040  177.0350  137.1480 O   0  0  0  0  0  1  0  0  0  0  0  0
  185.3240  177.9790  137.6790 C   0  0  1  0  0  3  0  0  0  0  0  0
  183.9510  177.3560  137.8700 C   0  0  0  0  0  2  0  0  0  0  0  0
  183.4360  175.0940  138.4380 O   0  0  0  0  0  1  0  0  0  0  0  0
  183.0890  175.7590  136.1860 C   0  0  0  0  0  1  0  0  0  0  0  0
  183.9490  175.9040  137.4240 C   0  0  1  0  0  3  0  0  0  0  0  0
  188.2950  176.9470  142.6450 C   0  0  0  0  0  2  0  0  0  0  0  0
  188.5590  177.9310  141.5160 C   0  0  0  0  0  2  0  0  0  0  0  0
  188.8010  177.2400  140.3280 O   0  0  0  0  0  0  0  0  0  0  0  0
  189.2850  178.2090  139.4480 C   0  0  0  0  0  2  0  0  0  0  0  0
  189.4100  178.3630  137.0780 O   0  0  0  0  0  0  0  0  0  0  0  0
  189.4380  177.6160  138.0930 C   0  0  0  0  0  0  0  0  0  0  0  0
  189.6510  176.2460  137.9610 O   0  0  0  0  0  0  0  0  0  0  0  0
  191.9490  176.0300  137.8500 C   0  0  0  0  0  0  0  0  0  0  0  0
  192.8540  176.6910  138.8850 C   0  0  0  0  0  2  0  0  0  0  0  0
  193.4710  175.9420  137.8380 C   0  0  2  0  0  3  0  0  0  0  0  0
  190.7870  175.7610  137.3550 N   0  0  0  0  0  0  0  0  0  0  0  0
  193.9630  176.8040  136.8590 O   0  0  0  0  0  1  0  0  0  0  0  0
  1 26  1  6  0  0  0
  1  2  1  0  0  0  0
  2  6  1  0  0  0  0
  4  7  1  0  0  0  0
  4  3  1  0  0  0  0
  5  4  2  0  0  0  0
  6  7  2  0  0  0  0
  8  2  2  0  0  0  0
  8  5  1  0  0  0  0
  9  1  1  6  0  0  0
  9 10  1  0  0  0  0
 11 12  1  1  0  0  0
 11  9  1  0  0  0  0
 11 10  1  0  0  0  0
 13 12  1  0  0  0  0
 14 15  1  6  0  0  0
 14 13  1  0  0  0  0
 16 14  1  0  0  0  0
 17 18  1  6  0  0  0
 17 16  1  0  0  0  0
 19 17  1  0  0  0  0
 21 20  1  1  0  0  0
 21 22  1  0  0  0  0
 21 19  1  0  0  0  0
 25 24  1  6  0  0  0
 25 22  1  0  0  0  0
 25 23  1  0  0  0  0
 27 26  1  0  0  0  0
 28 27  1  0  0  0  0
 29 28  1  0  0  0  0
 30 31  2  0  0  0  0
 31 29  1  0  0  0  0
 32 31  1  0  0  0  0
 33 34  1  0  0  0  0
 35 37  1  6  0  0  0
 35 33  1  0  0  0  0
 35 34  1  0  0  0  0
 36 33  2  0  0  0  0
 36 32  1  0  0  0  0
M  END
>  <MODEL>
4

>  <REMARK>
 VINA RESULT:      -7.3      1.490      2.038
  Name = 
  18 active torsions:
  status: ('A' for Active; 'I' for Inactive)
    1  A    between atoms: C_1  and  C_19
    2  A    between atoms: O_4  and  N_23
    3  A    between atoms: O_4  and  C_31
    4  A    between atoms: C_5  and  C_19
    5  A    between atoms: C_10  and  O_25
    6  A    between atoms: C_10  and  C_33
    7  A    between atoms: C_12  and  C_18
    8  A    between atoms: C_12  and  C_33
    9  A    between atoms: C_17  and  C_19
   10  A    between atoms: C_17  and  C_29
   11  A    between atoms: C_18  and  C_30
   12  A    between atoms: C_20  and  C_28
   13  A    between atoms: O_25  and  C_26
   14  A    between atoms: C_26  and  C_28
   15  A    between atoms: C_29  and  O_37
   16  A    between atoms: C_30  and  C_35
   17  A    between atoms: C_31  and  C_34
   18  A    between atoms: C_34  and  O_37
                            x       y       z     vdW  Elec       q    Type
                         _______ _______ _______ _____ _____    ______ ____

>  <TORSDO>
F 18

$$$$
=
 OpenBabel10232411213D

 37 39  0  0  1  0  0  0  0  0999 V2000
  186.4660  178.1380  143.6340 C   0  0  2  0  0  3  0  0  0  0  0  0
  185.0000  178.4450  143.5980 C   0  0  0  0  0  0  0  0  0  0  0  0
  180.8850  179.2500  143.3780 N   0  0  0  0  0  1  0  0  0  0  0  0
  182.2780  178.9730  143.4640 C   0  0  0  0  0  0  0  0  0  0  0  0
  182.9650  178.5900  142.3530 N   0  0  0  0  0  0  0  0  0  0  0  0
  184.3080  178.8310  144.7530 C   0  0  0  0  0  3  0  0  0  0  0  0
  182.9400  179.0990  144.6880 C   0  0  0  0  0  3  0  0  0  0  0  0
  184.2990  178.3250  142.3950 C   0  0  0  0  0  3  0  0  0  0  0  0
  186.9560  177.6870  142.2440 C   0  0  1  0  0  3  0  0  0  0  0  0
  187.1620  178.8560  141.2980 C   0  0  0  0  0  2  0  0  0  0  0  0
  188.3630  178.1630  141.9180 C   0  0  2  0  0  3  0  0  0  0  0  0
  188.9760  177.2200  140.9060 C   0  0  0  0  0  2  0  0  0  0  0  0
  189.8360  178.0050  139.9320 C   0  0  0  0  0  2  0  0  0  0  0  0
  189.2100  177.9900  138.5500 C   0  0  1  0  0  3  0  0  0  0  0  0
  188.9930  179.3010  138.1280 O   0  0  0  0  0  1  0  0  0  0  0  0
  190.1340  177.2850  137.5680 C   0  0  0  0  0  2  0  0  0  0  0  0
  189.7710  175.8070  137.4420 C   0  0  1  0  0  3  0  0  0  0  0  0
  190.6700  175.0120  138.1620 O   0  0  0  0  0  1  0  0  0  0  0  0
  188.4300  175.5340  137.7990 O   0  0  0  0  0  0  0  0  0  0  0  0
  187.7420  173.8060  136.4710 O   0  0  0  0  0  1  0  0  0  0  0  0
  187.7090  175.1900  136.6410 C   0  0  1  0  0  3  0  0  0  0  0  0
  186.2690  175.6590  136.7820 C   0  0  0  0  0  2  0  0  0  0  0  0
  185.2650  177.3500  135.4250 O   0  0  0  0  0  1  0  0  0  0  0  0
  185.6420  177.8660  137.7110 C   0  0  0  0  0  1  0  0  0  0  0  0
  186.1530  177.1450  136.4820 C   0  0  1  0  0  3  0  0  0  0  0  0
  186.8270  177.2280  144.8190 C   0  0  0  0  0  2  0  0  0  0  0  0
  187.8750  177.8760  145.7110 C   0  0  0  0  0  2  0  0  0  0  0  0
  187.7220  177.4340  147.0260 O   0  0  0  0  0  0  0  0  0  0  0  0
  188.8490  176.6470  147.2680 C   0  0  0  0  0  2  0  0  0  0  0  0
  189.6260  178.4190  148.6510 O   0  0  0  0  0  0  0  0  0  0  0  0
  189.9250  177.4890  147.8540 C   0  0  0  0  0  0  0  0  0  0  0  0
  191.2560  177.2160  147.5470 O   0  0  0  0  0  0  0  0  0  0  0  0
  191.5260  176.7070  145.3100 C   0  0  0  0  0  0  0  0  0  0  0  0
  191.2450  177.7430  144.2260 C   0  0  0  0  0  2  0  0  0  0  0  0
  191.6720  176.4440  143.8150 C   0  0  2  0  0  3  0  0  0  0  0  0
  191.5860  176.3340  146.5450 N   0  0  0  0  0  0  0  0  0  0  0  0
  190.5780  175.6950  143.3830 O   0  0  0  0  0  1  0  0  0  0  0  0
  1 26  1  1  0  0  0
  2  1  1  0  0  0  0
  2  6  1  0  0  0  0
  3  4  1  0  0  0  0
  4  7  1  0  0  0  0
  5  8  1  0  0  0  0
  5  4  2  0  0  0  0
  7  6  2  0  0  0  0
  8  2  2  0  0  0  0
  9  1  1  1  0  0  0
 10 11  1  0  0  0  0
 10  9  1  0  0  0  0
 11 12  1  6  0  0  0
 11  9  1  0  0  0  0
 13 12  1  0  0  0  0
 14 15  1  6  0  0  0
 14 13  1  0  0  0  0
 16 14  1  0  0  0  0
 17 16  1  0  0  0  0
 17 19  1  0  0  0  0
 17 18  1  1  0  0  0
 21 20  1  1  0  0  0
 21 22  1  0  0  0  0
 21 19  1  0  0  0  0
 23 25  1  0  0  0  0
 25 22  1  0  0  0  0
 25 24  1  1  0  0  0
 26 27  1  0  0  0  0
 27 28  1  0  0  0  0
 28 29  1  0  0  0  0
 29 31  1  0  0  0  0
 31 30  2  0  0  0  0
 32 31  1  0  0  0  0
 33 36  2  0  0  0  0
 34 33  1  0  0  0  0
 35 37  1  6  0  0  0
 35 34  1  0  0  0  0
 35 33  1  0  0  0  0
 36 32  1  0  0  0  0
M  END
>  <MODEL>
5

>  <REMARK>
 VINA RESULT:      -7.1      3.365      7.006
  Name = 
  18 active torsions:
  status: ('A' for Active; 'I' for Inactive)
    1  A    between atoms: C_1  and  C_19
    2  A    between atoms: O_4  and  N_23
    3  A    between atoms: O_4  and  C_31
    4  A    between atoms: C_5  and  C_19
    5  A    between atoms: C_10  and  O_25
    6  A    between atoms: C_10  and  C_33
    7  A    between atoms: C_12  and  C_18
    8  A    between atoms: C_12  and  C_33
    9  A    between atoms: C_17  and  C_19
   10  A    between atoms: C_17  and  C_29
   11  A    between atoms: C_18  and  C_30
   12  A    between atoms: C_20  and  C_28
   13  A    between atoms: O_25  and  C_26
   14  A    between atoms: C_26  and  C_28
   15  A    between atoms: C_29  and  O_37
   16  A    between atoms: C_30  and  C_35
   17  A    between atoms: C_31  and  C_34
   18  A    between atoms: C_34  and  O_37
                            x       y       z     vdW  Elec       q    Type
                         _______ _______ _______ _____ _____    ______ ____

>  <TORSDO>
F 18

$$$$
=
 OpenBabel10232411213D

 37 39  0  0  1  0  0  0  0  0999 V2000
  190.0820  177.7760  139.7420 C   0  0  2  0  0  3  0  0  0  0  0  0
  191.2020  176.9820  139.1430 C   0  0  0  0  0  0  0  0  0  0  0  0
  194.4260  174.8160  137.5500 N   0  0  0  0  0  1  0  0  0  0  0  0
  193.3270  175.5400  138.0900 C   0  0  0  0  0  0  0  0  0  0  0  0
  193.5500  176.5900  138.9280 N   0  0  0  0  0  0  0  0  0  0  0  0
  190.9540  175.9020  138.2880 C   0  0  0  0  0  3  0  0  0  0  0  0
  192.0200  175.1760  137.7560 C   0  0  0  0  0  3  0  0  0  0  0  0
  192.5240  177.3100  139.4570 C   0  0  0  0  0  3  0  0  0  0  0  0
  189.3800  176.9670  140.8500 C   0  0  1  0  0  3  0  0  0  0  0  0
  190.2470  176.8110  142.0860 C   0  0  0  0  0  2  0  0  0  0  0  0
  189.0820  177.7860  142.0960 C   0  0  2  0  0  3  0  0  0  0  0  0
  187.9120  177.1610  142.8240 C   0  0  0  0  0  2  0  0  0  0  0  0
  186.6450  177.9410  142.5200 C   0  0  0  0  0  2  0  0  0  0  0  0
  185.9430  178.3220  143.8110 C   0  0  1  0  0  3  0  0  0  0  0  0
  184.5650  178.1780  143.6460 O   0  0  0  0  0  1  0  0  0  0  0  0
  186.4160  177.4250  144.9450 C   0  0  0  0  0  2  0  0  0  0  0  0
  186.6300  178.2310  146.2240 C   0  0  1  0  0  3  0  0  0  0  0  0
  185.4420  178.8550  146.6220 O   0  0  0  0  0  1  0  0  0  0  0  0
  187.1960  177.4670  147.2720 O   0  0  0  0  0  0  0  0  0  0  0  0
  188.6610  178.2410  148.8460 O   0  0  0  0  0  1  0  0  0  0  0  0
  188.5130  177.9070  147.4990 C   0  0  1  0  0  3  0  0  0  0  0  0
  189.4880  176.8010  147.1300 C   0  0  0  0  0  2  0  0  0  0  0  0
  189.9670  178.4180  145.4380 O   0  0  0  0  0  1  0  0  0  0  0  0
  191.6090  176.7550  145.8560 C   0  0  0  0  0  1  0  0  0  0  0  0
  190.1310  177.0750  145.7810 C   0  0  1  0  0  3  0  0  0  0  0  0
  189.1760  178.3870  138.6590 C   0  0  0  0  0  2  0  0  0  0  0  0
  187.8040  177.7300  138.6550 C   0  0  0  0  0  2  0  0  0  0  0  0
  186.8790  178.5540  139.2970 O   0  0  0  0  0  0  0  0  0  0  0  0
  185.7490  178.5210  138.4790 C   0  0  0  0  0  2  0  0  0  0  0  0
  184.2500  180.2730  139.0630 O   0  0  0  0  0  0  0  0  0  0  0  0
  184.5830  179.0670  139.2220 C   0  0  0  0  0  0  0  0  0  0  0  0
  183.8450  178.2310  140.0570 O   0  0  0  0  0  0  0  0  0  0  0  0
  181.6800  177.4440  139.8780 C   0  0  0  0  0  0  0  0  0  0  0  0
  180.5370  178.0970  140.6480 C   0  0  0  0  0  2  0  0  0  0  0  0
  180.2290  176.9760  139.8190 C   0  0  2  0  0  3  0  0  0  0  0  0
  182.9230  177.3500  139.5410 N   0  0  0  0  0  0  0  0  0  0  0  0
  180.0970  175.8270  140.5970 O   0  0  0  0  0  1  0  0  0  0  0  0
  1 26  1  6  0  0  0
  2  8  1  0  0  0  0
  2  1  1  0  0  0  0
  3  4  1  0  0  0  0
  4  5  1  0  0  0  0
  5  8  2  0  0  0  0
  6  2  2  0  0  0  0
  7  4  2  0  0  0  0
  7  6  1  0  0  0  0
  9  1  1  6  0  0  0
  9 10  1  0  0  0  0
  9 11  1  0  0  0  0
 10 11  1  0  0  0  0
 11 12  1  1  0  0  0
 13 12  1  0  0  0  0
 13 14  1  0  0  0  0
 14 15  1  6  0  0  0
 14 16  1  0  0  0  0
 16 17  1  0  0  0  0
 17 18  1  1  0  0  0
 17 19  1  0  0  0  0
 19 21  1  0  0  0  0
 21 20  1  1  0  0  0
 22 21  1  0  0  0  0
 23 25  1  0  0  0  0
 25 24  1  1  0  0  0
 25 22  1  0  0  0  0
 27 26  1  0  0  0  0
 27 28  1  0  0  0  0
 29 31  1  0  0  0  0
 29 28  1  0  0  0  0
 30 31  2  0  0  0  0
 31 32  1  0  0  0  0
 33 34  1  0  0  0  0
 35 33  1  0  0  0  0
 35 37  1  1  0  0  0
 35 34  1  0  0  0  0
 36 33  2  0  0  0  0
 36 32  1  0  0  0  0
M  END
>  <MODEL>
6

>  <REMARK>
 VINA RESULT:      -7.0      2.972      7.644
  Name = 
  18 active torsions:
  status: ('A' for Active; 'I' for Inactive)
    1  A    between atoms: C_1  and  C_19
    2  A    between atoms: O_4  and  N_23
    3  A    between atoms: O_4  and  C_31
    4  A    between atoms: C_5  and  C_19
    5  A    between atoms: C_10  and  O_25
    6  A    between atoms: C_10  and  C_33
    7  A    between atoms: C_12  and  C_18
    8  A    between atoms: C_12  and  C_33
    9  A    between atoms: C_17  and  C_19
   10  A    between atoms: C_17  and  C_29
   11  A    between atoms: C_18  and  C_30
   12  A    between atoms: C_20  and  C_28
   13  A    between atoms: O_25  and  C_26
   14  A    between atoms: C_26  and  C_28
   15  A    between atoms: C_29  and  O_37
   16  A    between atoms: C_30  and  C_35
   17  A    between atoms: C_31  and  C_34
   18  A    between atoms: C_34  and  O_37
                            x       y       z     vdW  Elec       q    Type
                         _______ _______ _______ _____ _____    ______ ____

>  <TORSDO>
F 18

$$$$
=
 OpenBabel10232411213D

 37 39  0  0  1  0  0  0  0  0999 V2000
  188.7640  176.6730  143.2740 C   0  0  2  0  0  3  0  0  0  0  0  0
  189.6480  176.7350  144.4820 C   0  0  0  0  0  0  0  0  0  0  0  0
  192.0190  176.9360  147.9400 N   0  0  0  0  0  1  0  0  0  0  0  0
  191.2210  176.8580  146.7640 C   0  0  0  0  0  0  0  0  0  0  0  0
  189.9320  177.2960  146.7870 N   0  0  0  0  0  0  0  0  0  0  0  0
  190.9690  176.2740  144.4420 C   0  0  0  0  0  3  0  0  0  0  0  0
  191.7630  176.3370  145.5870 C   0  0  0  0  0  3  0  0  0  0  0  0
  189.1420  177.2430  145.6810 C   0  0  0  0  0  3  0  0  0  0  0  0
  189.2060  177.7170  142.2290 C   0  0  1  0  0  3  0  0  0  0  0  0
  190.4770  177.3080  141.5080 C   0  0  0  0  0  2  0  0  0  0  0  0
  189.1370  177.2040  140.7990 C   0  0  2  0  0  3  0  0  0  0  0  0
  188.9710  178.3810  139.8640 C   0  0  0  0  0  2  0  0  0  0  0  0
  187.9310  178.0530  138.8080 C   0  0  0  0  0  2  0  0  0  0  0  0
  188.5140  178.2470  137.4200 C   0  0  1  0  0  3  0  0  0  0  0  0
  188.5810  179.6110  137.1350 O   0  0  0  0  0  1  0  0  0  0  0  0
  189.9100  177.6440  137.3540 C   0  0  0  0  0  2  0  0  0  0  0  0
  189.9890  176.5730  136.2680 C   0  0  1  0  0  3  0  0  0  0  0  0
  189.4270  177.0340  135.0720 O   0  0  0  0  0  1  0  0  0  0  0  0
  191.3000  176.0780  136.0720 O   0  0  0  0  0  0  0  0  0  0  0  0
  191.8630  173.9390  135.4960 O   0  0  0  0  0  1  0  0  0  0  0  0
  191.3570  174.7450  136.5170 C   0  0  1  0  0  3  0  0  0  0  0  0
  192.2570  174.6560  137.7390 C   0  0  0  0  0  2  0  0  0  0  0  0
  193.4570  176.6050  138.4250 O   0  0  0  0  0  1  0  0  0  0  0  0
  194.7290  174.6820  137.8620 C   0  0  0  0  0  1  0  0  0  0  0  0
  193.4990  175.5110  137.5590 C   0  0  1  0  0  3  0  0  0  0  0  0
  187.2750  176.6730  143.6580 C   0  0  0  0  0  2  0  0  0  0  0  0
  186.5520  177.8680  143.0570 C   0  0  0  0  0  2  0  0  0  0  0  0
  186.1670  178.7500  144.0680 O   0  0  0  0  0  0  0  0  0  0  0  0
  185.6460  177.9310  145.0710 C   0  0  0  0  0  2  0  0  0  0  0  0
  185.2330  179.1560  147.0680 O   0  0  0  0  0  0  0  0  0  0  0  0
  184.7770  178.7380  145.9690 C   0  0  0  0  0  0  0  0  0  0  0  0
  183.4810  179.0560  145.5700 O   0  0  0  0  0  0  0  0  0  0  0  0
  182.0810  179.1730  143.7350 C   0  0  0  0  0  0  0  0  0  0  0  0
  180.6930  178.5410  143.7610 C   0  0  0  0  0  2  0  0  0  0  0  0
  181.1050  179.2000  142.5630 C   0  0  2  0  0  3  0  0  0  0  0  0
  183.2160  179.4580  144.2810 N   0  0  0  0  0  0  0  0  0  0  0  0
  181.5150  178.2620  141.6170 O   0  0  0  0  0  1  0  0  0  0  0  0
  1 26  1  1  0  0  0
  1  2  1  0  0  0  0
  2  8  1  0  0  0  0
  4  5  1  0  0  0  0
  4  3  1  0  0  0  0
  6  2  2  0  0  0  0
  6  7  1  0  0  0  0
  7  4  2  0  0  0  0
  8  5  2  0  0  0  0
  9  1  1  1  0  0  0
 10  9  1  0  0  0  0
 11 12  1  6  0  0  0
 11 10  1  0  0  0  0
 11  9  1  0  0  0  0
 13 12  1  0  0  0  0
 14 15  1  1  0  0  0
 14 13  1  0  0  0  0
 16 14  1  0  0  0  0
 17 18  1  6  0  0  0
 17 16  1  0  0  0  0
 19 17  1  0  0  0  0
 19 21  1  0  0  0  0
 21 20  1  6  0  0  0
 21 22  1  0  0  0  0
 25 22  1  0  0  0  0
 25 24  1  1  0  0  0
 25 23  1  0  0  0  0
 27 26  1  0  0  0  0
 27 28  1  0  0  0  0
 28 29  1  0  0  0  0
 29 31  1  0  0  0  0
 31 30  2  0  0  0  0
 32 31  1  0  0  0  0
 33 34  1  0  0  0  0
 33 36  2  0  0  0  0
 35 37  1  6  0  0  0
 35 33  1  0  0  0  0
 35 34  1  0  0  0  0
 36 32  1  0  0  0  0
M  END
>  <MODEL>
7

>  <REMARK>
 VINA RESULT:      -6.8      2.667      7.693
  Name = 
  18 active torsions:
  status: ('A' for Active; 'I' for Inactive)
    1  A    between atoms: C_1  and  C_19
    2  A    between atoms: O_4  and  N_23
    3  A    between atoms: O_4  and  C_31
    4  A    between atoms: C_5  and  C_19
    5  A    between atoms: C_10  and  O_25
    6  A    between atoms: C_10  and  C_33
    7  A    between atoms: C_12  and  C_18
    8  A    between atoms: C_12  and  C_33
    9  A    between atoms: C_17  and  C_19
   10  A    between atoms: C_17  and  C_29
   11  A    between atoms: C_18  and  C_30
   12  A    between atoms: C_20  and  C_28
   13  A    between atoms: O_25  and  C_26
   14  A    between atoms: C_26  and  C_28
   15  A    between atoms: C_29  and  O_37
   16  A    between atoms: C_30  and  C_35
   17  A    between atoms: C_31  and  C_34
   18  A    between atoms: C_34  and  O_37
                            x       y       z     vdW  Elec       q    Type
                         _______ _______ _______ _____ _____    ______ ____

>  <TORSDO>
F 18

$$$$
=
 OpenBabel10232411213D

 37 39  0  0  1  0  0  0  0  0999 V2000
  188.0220  178.0470  141.3810 C   0  0  2  0  0  3  0  0  0  0  0  0
  188.9670  177.7370  142.5010 C   0  0  0  0  0  0  0  0  0  0  0  0
  191.6050  176.7430  145.6120 N   0  0  0  0  0  1  0  0  0  0  0  0
  190.7180  177.0890  144.5550 C   0  0  0  0  0  0  0  0  0  0  0  0
  189.9770  176.1230  143.9460 N   0  0  0  0  0  0  0  0  0  0  0  0
  189.7270  178.7430  143.1120 C   0  0  0  0  0  3  0  0  0  0  0  0
  190.6060  178.4200  144.1460 C   0  0  0  0  0  3  0  0  0  0  0  0
  189.1140  176.4180  142.9360 C   0  0  0  0  0  3  0  0  0  0  0  0
  188.8020  178.4190  140.1050 C   0  0  1  0  0  3  0  0  0  0  0  0
  189.5010  177.2220  139.4870 C   0  0  0  0  0  2  0  0  0  0  0  0
  188.2400  177.7770  138.8470 C   0  0  2  0  0  3  0  0  0  0  0  0
  188.6150  178.6270  137.6530 C   0  0  0  0  0  2  0  0  0  0  0  0
  187.5250  178.5410  136.6000 C   0  0  0  0  0  2  0  0  0  0  0  0
  187.8640  177.4690  135.5810 C   0  0  1  0  0  3  0  0  0  0  0  0
  187.3190  177.8180  134.3460 O   0  0  0  0  0  1  0  0  0  0  0  0
  189.3740  177.3340  135.4520 C   0  0  0  0  0  2  0  0  0  0  0  0
  189.8150  175.8900  135.6850 C   0  0  1  0  0  3  0  0  0  0  0  0
  189.3400  175.0550  134.6670 O   0  0  0  0  0  1  0  0  0  0  0  0
  191.2120  175.7580  135.8590 O   0  0  0  0  0  0  0  0  0  0  0  0
  191.7350  173.7640  136.8460 O   0  0  0  0  0  1  0  0  0  0  0  0
  191.4610  175.1120  137.0840 C   0  0  1  0  0  3  0  0  0  0  0  0
  192.6490  175.7670  137.7710 C   0  0  0  0  0  2  0  0  0  0  0  0
  194.6530  176.3370  136.6020 O   0  0  0  0  0  1  0  0  0  0  0  0
  194.8030  174.6550  138.2700 C   0  0  0  0  0  1  0  0  0  0  0  0
  193.9570  175.2720  137.1770 C   0  0  1  0  0  3  0  0  0  0  0  0
  186.9190  179.0230  141.8210 C   0  0  0  0  0  2  0  0  0  0  0  0
  185.7660  178.2880  142.4880 C   0  0  0  0  0  2  0  0  0  0  0  0
  184.6300  179.0980  142.5050 O   0  0  0  0  0  0  0  0  0  0  0  0
  184.6550  179.7140  143.7560 C   0  0  0  0  0  2  0  0  0  0  0  0
  182.5250  178.7400  144.1720 O   0  0  0  0  0  0  0  0  0  0  0  0
  183.6450  179.0780  144.6430 C   0  0  0  0  0  0  0  0  0  0  0  0
  183.9600  178.8260  145.9770 O   0  0  0  0  0  0  0  0  0  0  0  0
  186.2060  178.3890  146.2980 C   0  0  0  0  0  0  0  0  0  0  0  0
  186.8520  177.1280  145.7340 C   0  0  0  0  0  2  0  0  0  0  0  0
  187.6770  178.0260  146.4760 C   0  0  2  0  0  3  0  0  0  0  0  0
  185.1910  179.1640  146.4890 N   0  0  0  0  0  0  0  0  0  0  0  0
  187.8660  177.5440  147.7700 O   0  0  0  0  0  1  0  0  0  0  0  0
  1 26  1  1  0  0  0
  1  2  1  0  0  0  0
  2  8  2  0  0  0  0
  2  6  1  0  0  0  0
  4  3  1  0  0  0  0
  5  4  2  0  0  0  0
  6  7  2  0  0  0  0
  7  4  1  0  0  0  0
  8  5  1  0  0  0  0
  9  1  1  1  0  0  0
 10  9  1  0  0  0  0
 11 12  1  6  0  0  0
 11 10  1  0  0  0  0
 11  9  1  0  0  0  0
 13 12  1  0  0  0  0
 14 15  1  6  0  0  0
 14 13  1  0  0  0  0
 16 14  1  0  0  0  0
 16 17  1  0  0  0  0
 17 18  1  6  0  0  0
 17 19  1  0  0  0  0
 19 21  1  0  0  0  0
 21 20  1  6  0  0  0
 21 22  1  0  0  0  0
 23 25  1  0  0  0  0
 25 22  1  0  0  0  0
 25 24  1  1  0  0  0
 26 27  1  0  0  0  0
 27 28  1  0  0  0  0
 28 29  1  0  0  0  0
 29 31  1  0  0  0  0
 30 31  2  0  0  0  0
 31 32  1  0  0  0  0
 32 36  1  0  0  0  0
 33 35  1  0  0  0  0
 33 36  2  0  0  0  0
 34 33  1  0  0  0  0
 34 35  1  0  0  0  0
 35 37  1  1  0  0  0
M  END
>  <MODEL>
8

>  <REMARK>
 VINA RESULT:      -6.8      2.638      7.926
  Name = 
  18 active torsions:
  status: ('A' for Active; 'I' for Inactive)
    1  A    between atoms: C_1  and  C_19
    2  A    between atoms: O_4  and  N_23
    3  A    between atoms: O_4  and  C_31
    4  A    between atoms: C_5  and  C_19
    5  A    between atoms: C_10  and  O_25
    6  A    between atoms: C_10  and  C_33
    7  A    between atoms: C_12  and  C_18
    8  A    between atoms: C_12  and  C_33
    9  A    between atoms: C_17  and  C_19
   10  A    between atoms: C_17  and  C_29
   11  A    between atoms: C_18  and  C_30
   12  A    between atoms: C_20  and  C_28
   13  A    between atoms: O_25  and  C_26
   14  A    between atoms: C_26  and  C_28
   15  A    between atoms: C_29  and  O_37
   16  A    between atoms: C_30  and  C_35
   17  A    between atoms: C_31  and  C_34
   18  A    between atoms: C_34  and  O_37
                            x       y       z     vdW  Elec       q    Type
                         _______ _______ _______ _____ _____    ______ ____

>  <TORSDO>
F 18

$$$$
=
 OpenBabel10232411213D

 37 39  0  0  1  0  0  0  0  0999 V2000
  188.7070  177.6970  141.1160 C   0  0  2  0  0  3  0  0  0  0  0  0
  189.5650  177.4490  142.3190 C   0  0  0  0  0  0  0  0  0  0  0  0
  191.9820  176.6280  145.6530 N   0  0  0  0  0  1  0  0  0  0  0  0
  191.1690  176.9170  144.5210 C   0  0  0  0  0  0  0  0  0  0  0  0
  190.6690  175.9000  143.7660 N   0  0  0  0  0  0  0  0  0  0  0  0
  190.0750  178.5070  143.0810 C   0  0  0  0  0  3  0  0  0  0  0  0
  190.8800  178.2420  144.1890 C   0  0  0  0  0  3  0  0  0  0  0  0
  189.8820  176.1370  142.6820 C   0  0  0  0  0  3  0  0  0  0  0  0
  189.5820  177.9640  139.8760 C   0  0  1  0  0  3  0  0  0  0  0  0
  190.8890  177.1940  139.9160 C   0  0  0  0  0  2  0  0  0  0  0  0
  189.7690  176.7390  138.9960 C   0  0  2  0  0  3  0  0  0  0  0  0
  190.0660  177.1920  137.5830 C   0  0  0  0  0  2  0  0  0  0  0  0
  189.2860  176.3400  136.5980 C   0  0  0  0  0  2  0  0  0  0  0  0
  188.0940  177.1140  136.0650 C   0  0  1  0  0  3  0  0  0  0  0  0
  187.8550  176.7390  134.7430 O   0  0  0  0  0  1  0  0  0  0  0  0
  186.8630  176.8170  136.9080 C   0  0  0  0  0  2  0  0  0  0  0  0
  186.4880  178.0230  137.7690 C   0  0  1  0  0  3  0  0  0  0  0  0
  187.1810  179.1650  137.3520 O   0  0  0  0  0  1  0  0  0  0  0  0
  185.0930  178.2500  137.8270 O   0  0  0  0  0  0  0  0  0  0  0  0
  184.4810  179.9570  139.2180 O   0  0  0  0  0  1  0  0  0  0  0  0
  184.7400  178.5880  139.1460 C   0  0  1  0  0  3  0  0  0  0  0  0
  183.5020  177.8060  139.5560 C   0  0  0  0  0  2  0  0  0  0  0  0
  181.4930  177.5660  138.2850 O   0  0  0  0  0  1  0  0  0  0  0  0
  181.4120  178.9650  140.2010 C   0  0  0  0  0  1  0  0  0  0  0  0
  182.2420  178.4760  139.0340 C   0  0  1  0  0  3  0  0  0  0  0  0
  187.5990  178.7210  141.4100 C   0  0  0  0  0  2  0  0  0  0  0  0
  186.4680  178.0950  142.2110 C   0  0  0  0  0  2  0  0  0  0  0  0
  185.8280  179.0720  142.9750 O   0  0  0  0  0  0  0  0  0  0  0  0
  184.7950  178.3920  143.6230 C   0  0  0  0  0  2  0  0  0  0  0  0
  183.5890  179.1630  145.5220 O   0  0  0  0  0  0  0  0  0  0  0  0
  184.7090  178.8500  145.0350 C   0  0  0  0  0  0  0  0  0  0  0  0
  185.8610  178.8920  145.8170 O   0  0  0  0  0  0  0  0  0  0  0  0
  187.2800  177.7260  147.2200 C   0  0  0  0  0  0  0  0  0  0  0  0
  187.9420  178.4060  148.4140 C   0  0  0  0  0  2  0  0  0  0  0  0
  188.2330  177.0270  148.1830 C   0  0  2  0  0  3  0  0  0  0  0  0
  186.5110  177.7360  146.1820 N   0  0  0  0  0  0  0  0  0  0  0  0
  189.4770  176.8980  147.5670 O   0  0  0  0  0  1  0  0  0  0  0  0
  1 26  1  1  0  0  0
  1  2  1  0  0  0  0
  2  8  2  0  0  0  0
  2  6  1  0  0  0  0
  4  3  1  0  0  0  0
  5  4  2  0  0  0  0
  6  7  2  0  0  0  0
  7  4  1  0  0  0  0
  8  5  1  0  0  0  0
  9 10  1  0  0  0  0
  9  1  1  1  0  0  0
 11 12  1  6  0  0  0
 11  9  1  0  0  0  0
 11 10  1  0  0  0  0
 13 12  1  0  0  0  0
 14 15  1  6  0  0  0
 14 13  1  0  0  0  0
 14 16  1  0  0  0  0
 16 17  1  0  0  0  0
 17 18  1  6  0  0  0
 17 19  1  0  0  0  0
 19 21  1  0  0  0  0
 21 20  1  6  0  0  0
 21 22  1  0  0  0  0
 23 25  1  0  0  0  0
 25 22  1  0  0  0  0
 25 24  1  1  0  0  0
 26 27  1  0  0  0  0
 27 28  1  0  0  0  0
 28 29  1  0  0  0  0
 29 31  1  0  0  0  0
 31 30  2  0  0  0  0
 31 32  1  0  0  0  0
 32 36  1  0  0  0  0
 33 35  1  0  0  0  0
 33 34  1  0  0  0  0
 35 37  1  6  0  0  0
 35 34  1  0  0  0  0
 36 33  2  0  0  0  0
M  END
>  <MODEL>
9

>  <REMARK>
 VINA RESULT:      -6.8      2.449      6.662
  Name = 
  18 active torsions:
  status: ('A' for Active; 'I' for Inactive)
    1  A    between atoms: C_1  and  C_19
    2  A    between atoms: O_4  and  N_23
    3  A    between atoms: O_4  and  C_31
    4  A    between atoms: C_5  and  C_19
    5  A    between atoms: C_10  and  O_25
    6  A    between atoms: C_10  and  C_33
    7  A    between atoms: C_12  and  C_18
    8  A    between atoms: C_12  and  C_33
    9  A    between atoms: C_17  and  C_19
   10  A    between atoms: C_17  and  C_29
   11  A    between atoms: C_18  and  C_30
   12  A    between atoms: C_20  and  C_28
   13  A    between atoms: O_25  and  C_26
   14  A    between atoms: C_26  and  C_28
   15  A    between atoms: C_29  and  O_37
   16  A    between atoms: C_30  and  C_35
   17  A    between atoms: C_31  and  C_34
   18  A    between atoms: C_34  and  O_37
                            x       y       z     vdW  Elec       q    Type
                         _______ _______ _______ _____ _____    ______ ____

>  <TORSDO>
F 18

$$$$
