=
 OpenBabel10232409013D

 46 50  0  0  1  0  0  0  0  0999 V2000
  186.8770  178.1430  139.5250 C   0  0  0  0  0  0  0  0  0  0  0  0
  185.3110  178.1020  137.6780 C   0  0  0  0  0  3  0  0  0  0  0  0
  184.8720  178.9650  140.0040 C   0  0  0  0  0  0  0  0  0  0  0  0
  185.7020  179.0200  141.1230 C   0  0  0  0  0  0  0  0  0  0  0  0
  187.5880  177.2490  137.4140 C   0  0  0  0  0  3  0  0  0  0  0  0
  185.6340  178.4050  138.9990 C   0  0  0  0  0  0  0  0  0  0  0  0
  187.8850  177.5630  138.7530 C   0  0  0  0  0  3  0  0  0  0  0  0
  186.9220  178.5180  140.8220 N   0  0  0  0  0  0  0  0  0  0  0  0
  186.3070  177.5100  136.8800 C   0  0  0  0  0  0  0  0  0  0  0  0
  187.0750  177.6080  134.6520 O   0  0  0  0  0  1  0  0  0  0  0  0
  186.0190  177.1850  135.4570 C   0  0  0  0  0  2  0  0  0  0  0  0
  187.9900  178.4040  141.7290 N   0  0  0  0  0  2  0  0  0  0  0  0
  188.4930  177.1290  142.2190 C   0  0  0  0  0  2  0  0  0  0  0  0
  189.9260  176.9130  141.7550 C   0  0  0  0  0  2  0  0  0  0  0  0
  190.8700  176.9020  142.9150 C   0  0  0  0  0  0  0  0  0  0  0  0
  192.0010  177.3450  142.7890 O   0  0  0  0  0  0  0  0  0  0  0  0
  190.4370  176.2910  144.2170 C   0  0  0  0  0  2  0  0  0  0  0  0
  188.5930  176.6530  147.0530 O   0  0  0  0  0  0  0  0  0  0  0  0
  190.8260  177.8500  147.7840 C   0  0  0  0  0  2  0  0  0  0  0  0
  190.4910  178.7080  144.8240 C   0  0  0  0  0  1  0  0  0  0  0  0
  191.2870  175.5620  146.8960 C   0  0  0  0  0  1  0  0  0  0  0  0
  188.7250  177.2720  145.8040 C   0  0  0  0  0  2  0  0  0  0  0  0
  189.0320  177.8700  148.1940 S   0  0  0  0  0  0  0  0  0  0  0  0
  190.1960  177.3110  145.3480 C   0  0  1  0  0  0  0  0  0  0  0  0
  191.1670  177.0370  146.5280 C   0  0  1  0  0  3  0  0  0  0  0  0
  185.3010  179.4930  142.4850 C   0  0  0  0  0  2  0  0  0  0  0  0
  183.4520  178.8030  144.0150 C   0  0  0  0  0  1  0  0  0  0  0  0
  185.6540  177.9460  144.2590 O   0  0  0  0  0  1  0  0  0  0  0  0
  184.7190  178.3530  143.3080 C   0  0  2  0  0  3  0  0  0  0  0  0
  183.4420  179.3830  139.9130 C   0  0  0  0  0  2  0  0  0  0  0  0
  182.5420  178.2930  140.4660 C   0  0  0  0  0  2  0  0  0  0  0  0
  180.7800  176.8180  137.5270 N   0  0  0  0  0  0  0  0  0  0  0  0
  181.4000  175.5270  137.7790 C   0  0  2  0  0  3  0  0  0  0  0  0
  182.5280  175.7060  139.2110 S   0  0  0  0  0  0  0  0  0  0  0  0
  180.5950  179.1900  138.3940 C   0  0  0  0  0  1  0  0  0  0  0  0
  181.1740  177.8190  138.4480 C   0  0  0  0  0  0  0  0  0  0  0  0
  182.0450  177.4220  139.3600 C   0  0  1  0  0  3  0  0  0  0  0  0
  182.1520  173.6790  136.1940 N   0  0  0  0  0  0  0  0  0  0  0  0
  181.2300  169.9930  134.5430 C   0  0  0  0  0  1  0  0  0  0  0  0
  181.5690  172.6720  137.0790 C   0  0  0  0  0  2  0  0  0  0  0  0
  182.9630  173.2270  135.0640 C   0  0  0  0  0  2  0  0  0  0  0  0
  182.1590  175.0640  136.5740 C   0  0  0  0  0  0  0  0  0  0  0  0
  181.9070  171.0310  135.2980 N   0  0  0  0  0  0  0  0  0  0  0  0
  182.2460  172.0880  134.3460 C   0  0  0  0  0  2  0  0  0  0  0  0
  180.9300  171.5640  136.2460 C   0  0  0  0  0  2  0  0  0  0  0  0
  182.8250  175.8990  135.9020 O   0  0  0  0  0  0  0  0  0  0  0  0
  1  8  1  0  0  0  0
  2  6  2  0  0  0  0
  3  4  2  0  0  0  0
  4 26  1  0  0  0  0
  5  7  1  0  0  0  0
  6  1  1  0  0  0  0
  6  3  1  0  0  0  0
  7  1  2  0  0  0  0
  8  4  1  0  0  0  0
  8 12  1  0  0  0  0
  9  5  2  0  0  0  0
  9  2  1  0  0  0  0
 10 11  1  0  0  0  0
 11  9  1  0  0  0  0
 12 13  1  0  0  0  0
 14 13  1  0  0  0  0
 14 15  1  0  0  0  0
 15 17  1  0  0  0  0
 16 15  2  0  0  0  0
 17 24  1  0  0  0  0
 18 23  1  0  0  0  0
 19 23  1  0  0  0  0
 22 18  1  0  0  0  0
 24 20  1  6  0  0  0
 24 22  1  0  0  0  0
 24 25  1  0  0  0  0
 25 21  1  1  0  0  0
 25 19  1  0  0  0  0
 26 29  1  0  0  0  0
 29 27  1  1  0  0  0
 29 28  1  0  0  0  0
 30  3  1  0  0  0  0
 30 31  1  0  0  0  0
 32 33  1  0  0  0  0
 32 36  2  0  0  0  0
 33 42  1  6  0  0  0
 33 34  1  0  0  0  0
 34 37  1  0  0  0  0
 35 36  1  0  0  0  0
 36 37  1  0  0  0  0
 37 31  1  1  0  0  0
 38 42  1  0  0  0  0
 38 40  1  0  0  0  0
 39 43  1  0  0  0  0
 41 38  1  0  0  0  0
 43 45  1  0  0  0  0
 44 41  1  0  0  0  0
 44 43  1  0  0  0  0
 45 40  1  0  0  0  0
 46 42  2  0  0  0  0
M  END
>  <MODEL>
1

>  <REMARK>
 VINA RESULT:      -6.8      0.000      0.000
  Name = 
  13 active torsions:
  status: ('A' for Active; 'I' for Inactive)
    1  A    between atoms: N_9  and  N_34
    2  A    between atoms: N_9  and  C_36
    3  A    between atoms: C_10  and  C_29
    4  A    between atoms: C_12  and  C_40
    5  A    between atoms: C_15  and  C_17
    6  A    between atoms: C_15  and  C_32
    7  A    between atoms: C_23  and  C_27
    8  A    between atoms: C_23  and  C_36
    9  A    between atoms: C_24  and  C_38
   10  A    between atoms: C_27  and  C_45
   11  A    between atoms: C_39  and  C_43
   12  A    between atoms: C_40  and  C_43
   13  A    between atoms: C_44  and  C_45
                            x       y       z     vdW  Elec       q    Type
                         _______ _______ _______ _____ _____    ______ ____

>  <TORSDO>
F 13

$$$$
=
 OpenBabel10232409013D

 46 50  0  0  1  0  0  0  0  0999 V2000
  184.2470  177.4290  137.6520 C   0  0  0  0  0  0  0  0  0  0  0  0
  183.6920  175.7470  135.9990 C   0  0  0  0  0  3  0  0  0  0  0  0
  186.0030  176.4190  136.7450 C   0  0  0  0  0  0  0  0  0  0  0  0
  186.4150  177.3730  137.6740 C   0  0  0  0  0  0  0  0  0  0  0  0
  181.9390  177.0110  137.1440 C   0  0  0  0  0  3  0  0  0  0  0  0
  184.6240  176.4690  136.7430 C   0  0  0  0  0  0  0  0  0  0  0  0
  182.9020  177.7260  137.8790 C   0  0  0  0  0  3  0  0  0  0  0  0
  185.3390  177.9830  138.2220 N   0  0  0  0  0  0  0  0  0  0  0  0
  182.3300  176.0320  136.2050 C   0  0  0  0  0  0  0  0  0  0  0  0
  181.4310  173.9120  135.6950 O   0  0  0  0  0  1  0  0  0  0  0  0
  181.2940  175.2770  135.4490 C   0  0  0  0  0  2  0  0  0  0  0  0
  185.3980  179.0130  139.1790 N   0  0  0  0  0  2  0  0  0  0  0  0
  185.0510  178.8250  140.5800 C   0  0  0  0  0  2  0  0  0  0  0  0
  186.1980  179.2760  141.4720 C   0  0  0  0  0  2  0  0  0  0  0  0
  186.8360  178.1090  142.1560 C   0  0  0  0  0  0  0  0  0  0  0  0
  186.3180  177.6210  143.1480 O   0  0  0  0  0  0  0  0  0  0  0  0
  188.1460  177.5780  141.6480 C   0  0  0  0  0  2  0  0  0  0  0  0
  190.3000  175.2240  142.8290 O   0  0  0  0  0  0  0  0  0  0  0  0
  191.7710  177.3950  143.1070 C   0  0  0  0  0  2  0  0  0  0  0  0
  188.9270  178.3550  143.8840 C   0  0  0  0  0  1  0  0  0  0  0  0
  190.8910  177.2040  140.7780 C   0  0  0  0  0  1  0  0  0  0  0  0
  189.2040  175.9650  143.2890 C   0  0  0  0  0  2  0  0  0  0  0  0
  191.6130  175.7130  143.8370 S   0  0  0  0  0  0  0  0  0  0  0  0
  189.2250  177.4020  142.7360 C   0  0  1  0  0  0  0  0  0  0  0  0
  190.6200  177.7750  142.1660 C   0  0  1  0  0  3  0  0  0  0  0  0
  187.8340  177.7370  137.9830 C   0  0  0  0  0  2  0  0  0  0  0  0
  189.3160  178.1440  136.0140 C   0  0  0  0  0  1  0  0  0  0  0  0
  189.0190  179.7820  137.7080 O   0  0  0  0  0  1  0  0  0  0  0  0
  188.3540  178.7790  137.0040 C   0  0  2  0  0  3  0  0  0  0  0  0
  186.8680  175.5490  135.8940 C   0  0  0  0  0  2  0  0  0  0  0  0
  187.2650  174.2990  136.6580 C   0  0  0  0  0  2  0  0  0  0  0  0
  190.5530  172.9000  135.5850 N   0  0  0  0  0  0  0  0  0  0  0  0
  191.2470  173.7510  136.5370 C   0  0  2  0  0  3  0  0  0  0  0  0
  190.0030  174.8000  137.3770 S   0  0  0  0  0  0  0  0  0  0  0  0
  188.2580  172.2510  134.7330 C   0  0  0  0  0  1  0  0  0  0  0  0
  189.1480  173.0800  135.5920 C   0  0  0  0  0  0  0  0  0  0  0  0
  188.7100  173.9960  136.4390 C   0  0  1  0  0  3  0  0  0  0  0  0
  193.5630  174.8070  136.4080 N   0  0  0  0  0  0  0  0  0  0  0  0
  197.5480  174.4710  137.4870 C   0  0  0  0  0  1  0  0  0  0  0  0
  193.8560  174.3480  137.7650 C   0  0  0  0  0  2  0  0  0  0  0  0
  194.5140  175.7080  135.7580 C   0  0  0  0  0  2  0  0  0  0  0  0
  192.2610  174.6040  135.8380 C   0  0  0  0  0  0  0  0  0  0  0  0
  196.1900  174.9690  137.3820 N   0  0  0  0  0  0  0  0  0  0  0  0
  195.9320  175.1830  135.9580 C   0  0  0  0  0  2  0  0  0  0  0  0
  195.3130  173.8990  137.8510 C   0  0  0  0  0  2  0  0  0  0  0  0
  191.9550  175.1640  134.7490 O   0  0  0  0  0  0  0  0  0  0  0  0
  1  7  1  0  0  0  0
  1  8  1  0  0  0  0
  2  9  2  0  0  0  0
  2  6  1  0  0  0  0
  3  4  2  0  0  0  0
  4 26  1  0  0  0  0
  4  8  1  0  0  0  0
  5  7  2  0  0  0  0
  6  3  1  0  0  0  0
  6  1  2  0  0  0  0
  8 12  1  0  0  0  0
  9  5  1  0  0  0  0
 11 10  1  0  0  0  0
 11  9  1  0  0  0  0
 12 13  1  0  0  0  0
 13 14  1  0  0  0  0
 14 15  1  0  0  0  0
 15 16  2  0  0  0  0
 17 15  1  0  0  0  0
 17 24  1  0  0  0  0
 18 22  1  0  0  0  0
 18 23  1  0  0  0  0
 19 23  1  0  0  0  0
 24 22  1  0  0  0  0
 24 20  1  1  0  0  0
 25 21  1  6  0  0  0
 25 24  1  0  0  0  0
 25 19  1  0  0  0  0
 29 27  1  6  0  0  0
 29 28  1  0  0  0  0
 29 26  1  0  0  0  0
 30 31  1  0  0  0  0
 30  3  1  0  0  0  0
 32 36  2  0  0  0  0
 32 33  1  0  0  0  0
 33 42  1  6  0  0  0
 33 34  1  0  0  0  0
 35 36  1  0  0  0  0
 36 37  1  0  0  0  0
 37 31  1  1  0  0  0
 37 34  1  0  0  0  0
 38 40  1  0  0  0  0
 40 45  1  0  0  0  0
 41 44  1  0  0  0  0
 41 38  1  0  0  0  0
 42 38  1  0  0  0  0
 43 39  1  0  0  0  0
 43 45  1  0  0  0  0
 44 43  1  0  0  0  0
 46 42  2  0  0  0  0
M  END
>  <MODEL>
2

>  <REMARK>
 VINA RESULT:      -6.7      4.392      7.983
  Name = 
  13 active torsions:
  status: ('A' for Active; 'I' for Inactive)
    1  A    between atoms: N_9  and  N_34
    2  A    between atoms: N_9  and  C_36
    3  A    between atoms: C_10  and  C_29
    4  A    between atoms: C_12  and  C_40
    5  A    between atoms: C_15  and  C_17
    6  A    between atoms: C_15  and  C_32
    7  A    between atoms: C_23  and  C_27
    8  A    between atoms: C_23  and  C_36
    9  A    between atoms: C_24  and  C_38
   10  A    between atoms: C_27  and  C_45
   11  A    between atoms: C_39  and  C_43
   12  A    between atoms: C_40  and  C_43
   13  A    between atoms: C_44  and  C_45
                            x       y       z     vdW  Elec       q    Type
                         _______ _______ _______ _____ _____    ______ ____

>  <TORSDO>
F 13

$$$$
=
 OpenBabel10232409013D

 46 50  0  0  1  0  0  0  0  0999 V2000
  186.1420  178.2710  139.4350 C   0  0  0  0  0  0  0  0  0  0  0  0
  186.8710  177.6460  137.2110 C   0  0  0  0  0  3  0  0  0  0  0  0
  188.3440  178.1210  139.2000 C   0  0  0  0  0  0  0  0  0  0  0  0
  188.0160  178.4930  140.5030 C   0  0  0  0  0  0  0  0  0  0  0  0
  184.4940  177.8860  137.7340 C   0  0  0  0  0  3  0  0  0  0  0  0
  187.1420  177.9860  138.5360 C   0  0  0  0  0  0  0  0  0  0  0  0
  184.7970  178.2290  139.0640 C   0  0  0  0  0  3  0  0  0  0  0  0
  186.6730  178.5810  140.6380 N   0  0  0  0  0  0  0  0  0  0  0  0
  185.5230  177.6030  136.8100 C   0  0  0  0  0  0  0  0  0  0  0  0
  183.8510  176.8110  135.3470 O   0  0  0  0  0  1  0  0  0  0  0  0
  185.1790  177.2280  135.4120 C   0  0  0  0  0  2  0  0  0  0  0  0
  186.0060  178.9550  141.8180 N   0  0  0  0  0  2  0  0  0  0  0  0
  185.4940  177.9980  142.7870 C   0  0  0  0  0  2  0  0  0  0  0  0
  184.4140  178.6410  143.6440 C   0  0  0  0  0  2  0  0  0  0  0  0
  184.8630  178.7720  145.0650 C   0  0  0  0  0  0  0  0  0  0  0  0
  184.0540  178.6730  145.9740 O   0  0  0  0  0  0  0  0  0  0  0  0
  186.3020  179.0820  145.3620 C   0  0  0  0  0  2  0  0  0  0  0  0
  189.4640  178.2990  146.3410 O   0  0  0  0  0  0  0  0  0  0  0  0
  188.0690  176.9440  148.1210 C   0  0  0  0  0  2  0  0  0  0  0  0
  186.4290  176.5970  145.5130 C   0  0  0  0  0  1  0  0  0  0  0  0
  187.3540  179.3360  148.0570 C   0  0  0  0  0  1  0  0  0  0  0  0
  188.5370  177.8920  145.3740 C   0  0  0  0  0  2  0  0  0  0  0  0
  189.7230  176.8990  147.3160 S   0  0  0  0  0  0  0  0  0  0  0  0
  187.1030  177.8950  145.9340 C   0  0  1  0  0  0  0  0  0  0  0  0
  187.0950  177.9450  147.4860 C   0  0  1  0  0  3  0  0  0  0  0  0
  188.9930  178.8210  141.5890 C   0  0  0  0  0  2  0  0  0  0  0  0
  188.9360  176.5100  142.5320 C   0  0  0  0  0  1  0  0  0  0  0  0
  190.7740  177.9650  142.9140 O   0  0  0  0  0  1  0  0  0  0  0  0
  189.8240  177.6020  141.9600 C   0  0  2  0  0  3  0  0  0  0  0  0
  189.7090  177.9450  138.6220 C   0  0  0  0  0  2  0  0  0  0  0  0
  190.1730  176.5110  138.8040 C   0  0  0  0  0  2  0  0  0  0  0  0
  193.7640  176.4220  137.7970 N   0  0  0  0  0  2  0  0  0  0  0  0
  193.4060  175.8700  136.5010 C   0  0  2  0  0  3  0  0  0  0  0  0
  191.5920  175.6220  136.4670 S   0  0  0  0  0  0  0  0  0  0  0  0
  192.8040  177.2680  139.9820 C   0  0  0  0  0  1  0  0  0  0  0  0
  192.6480  176.6460  138.6390 C   0  0  0  0  0  0  0  0  0  0  0  0
  191.4820  176.3000  138.1190 C   0  0  0  0  0  0  0  0  0  0  0  0
  195.4410  174.5480  135.7220 N   0  0  0  0  0  0  0  0  0  0  0  0
  199.5510  174.5700  135.2080 C   0  0  0  0  0  1  0  0  0  0  0  0
  196.0480  175.7730  135.2030 C   0  0  0  0  0  2  0  0  0  0  0  0
  196.0880  173.2710  135.4240 C   0  0  0  0  0  2  0  0  0  0  0  0
  194.1130  174.5700  136.2690 C   0  0  0  0  0  0  0  0  0  0  0  0
  198.1300  174.5230  134.9210 N   0  0  0  0  0  0  0  0  0  0  0  0
  197.5880  173.3900  135.6700 C   0  0  0  0  0  2  0  0  0  0  0  0
  197.5520  175.7500  135.4630 C   0  0  0  0  0  2  0  0  0  0  0  0
  193.5240  173.4870  136.5390 O   0  0  0  0  0  0  0  0  0  0  0  0
  1  8  1  0  0  0  0
  2  6  1  0  0  0  0
  3  4  2  0  0  0  0
  4  8  1  0  0  0  0
  4 26  1  0  0  0  0
  5  7  2  0  0  0  0
  6  3  1  0  0  0  0
  6  1  2  0  0  0  0
  7  1  1  0  0  0  0
  8 12  1  0  0  0  0
  9  2  2  0  0  0  0
  9  5  1  0  0  0  0
 10 11  1  0  0  0  0
 11  9  1  0  0  0  0
 12 13  1  0  0  0  0
 13 14  1  0  0  0  0
 14 15  1  0  0  0  0
 15 17  1  0  0  0  0
 15 16  2  0  0  0  0
 17 24  1  0  0  0  0
 18 23  1  0  0  0  0
 22 24  1  0  0  0  0
 22 18  1  0  0  0  0
 23 19  1  0  0  0  0
 24 20  1  6  0  0  0
 24 25  1  0  0  0  0
 25 21  1  6  0  0  0
 25 19  1  0  0  0  0
 26 29  1  0  0  0  0
 29 27  1  1  0  0  0
 29 28  1  0  0  0  0
 30 31  1  0  0  0  0
 30  3  1  0  0  0  0
 32 36  1  0  0  0  0
 33 42  1  1  0  0  0
 33 32  1  0  0  0  0
 34 33  1  0  0  0  0
 34 37  1  0  0  0  0
 36 35  1  0  0  0  0
 37 36  2  0  0  0  0
 37 31  1  0  0  0  0
 38 42  1  0  0  0  0
 40 45  1  0  0  0  0
 40 38  1  0  0  0  0
 41 44  1  0  0  0  0
 41 38  1  0  0  0  0
 42 46  2  0  0  0  0
 43 39  1  0  0  0  0
 43 45  1  0  0  0  0
 43 44  1  0  0  0  0
M  END
>  <MODEL>
3

>  <REMARK>
 VINA RESULT:      -6.5      5.114      8.540
  Name = 
  13 active torsions:
  status: ('A' for Active; 'I' for Inactive)
    1  A    between atoms: N_9  and  N_34
    2  A    between atoms: N_9  and  C_36
    3  A    between atoms: C_10  and  C_29
    4  A    between atoms: C_12  and  C_40
    5  A    between atoms: C_15  and  C_17
    6  A    between atoms: C_15  and  C_32
    7  A    between atoms: C_23  and  C_27
    8  A    between atoms: C_23  and  C_36
    9  A    between atoms: C_24  and  C_38
   10  A    between atoms: C_27  and  C_45
   11  A    between atoms: C_39  and  C_43
   12  A    between atoms: C_40  and  C_43
   13  A    between atoms: C_44  and  C_45
                            x       y       z     vdW  Elec       q    Type
                         _______ _______ _______ _____ _____    ______ ____

>  <TORSDO>
F 13

$$$$
=
 OpenBabel10232409013D

 46 50  0  0  1  0  0  0  0  0999 V2000
  184.3780  177.0590  137.3060 C   0  0  0  0  0  0  0  0  0  0  0  0
  186.3860  178.2900  137.8720 C   0  0  0  0  0  3  0  0  0  0  0  0
  184.2830  178.1230  139.2510 C   0  0  0  0  0  0  0  0  0  0  0  0
  183.0870  177.4520  139.0030 C   0  0  0  0  0  0  0  0  0  0  0  0
  186.2300  177.0340  135.7790 C   0  0  0  0  0  3  0  0  0  0  0  0
  185.0910  177.8640  138.1620 C   0  0  0  0  0  0  0  0  0  0  0  0
  184.9230  176.6210  136.0970 C   0  0  0  0  0  3  0  0  0  0  0  0
  183.1540  176.8050  137.8170 N   0  0  0  0  0  0  0  0  0  0  0  0
  186.9560  177.8690  136.6560 C   0  0  0  0  0  0  0  0  0  0  0  0
  188.6980  179.4110  137.0400 O   0  0  0  0  0  1  0  0  0  0  0  0
  188.3420  178.2810  136.3070 C   0  0  0  0  0  2  0  0  0  0  0  0
  182.1100  176.0490  137.2530 N   0  0  0  0  0  2  0  0  0  0  0  0
  181.9220  174.6290  137.5070 C   0  0  0  0  0  2  0  0  0  0  0  0
  181.0610  174.0080  136.4170 C   0  0  0  0  0  2  0  0  0  0  0  0
  181.2150  172.5210  136.3930 C   0  0  0  0  0  0  0  0  0  0  0  0
  180.3500  171.8230  135.8870 O   0  0  0  0  0  0  0  0  0  0  0  0
  182.4110  171.8880  137.0450 C   0  0  0  0  0  2  0  0  0  0  0  0
  184.3820  173.5870  134.8550 O   0  0  0  0  0  0  0  0  0  0  0  0
  186.1500  171.9320  135.8970 C   0  0  0  0  0  2  0  0  0  0  0  0
  183.5960  170.1900  135.6570 C   0  0  0  0  0  1  0  0  0  0  0  0
  184.9320  173.1800  137.6840 C   0  0  0  0  0  1  0  0  0  0  0  0
  183.4690  172.5250  134.8350 C   0  0  0  0  0  2  0  0  0  0  0  0
  185.8770  172.8890  134.3500 S   0  0  0  0  0  0  0  0  0  0  0  0
  183.6000  171.6480  136.0950 C   0  0  1  0  0  0  0  0  0  0  0  0
  184.9380  171.9120  136.8380 C   0  0  1  0  0  3  0  0  0  0  0  0
  181.8700  177.4870  139.8740 C   0  0  0  0  0  2  0  0  0  0  0  0
  180.6850  179.2160  141.2310 C   0  0  0  0  0  1  0  0  0  0  0  0
  180.1800  178.8750  138.9350 O   0  0  0  0  0  1  0  0  0  0  0  0
  181.2270  178.8660  139.8550 C   0  0  2  0  0  3  0  0  0  0  0  0
  184.6160  178.9820  140.4260 C   0  0  0  0  0  2  0  0  0  0  0  0
  184.6500  178.1460  141.6920 C   0  0  0  0  0  2  0  0  0  0  0  0
  187.6250  178.1520  143.9430 N   0  0  0  0  0  2  0  0  0  0  0  0
  188.5040  178.3910  142.8100 C   0  0  2  0  0  3  0  0  0  0  0  0
  187.4840  178.4160  141.2900 S   0  0  0  0  0  0  0  0  0  0  0  0
  185.1980  177.8670  144.6080 C   0  0  0  0  0  1  0  0  0  0  0  0
  186.2600  178.0460  143.5800 C   0  0  0  0  0  0  0  0  0  0  0  0
  186.0200  178.1590  142.2850 C   0  0  0  0  0  0  0  0  0  0  0  0
  190.4530  177.0870  143.8090 N   0  0  0  0  0  0  0  0  0  0  0  0
  192.2550  175.7470  147.2900 C   0  0  0  0  0  1  0  0  0  0  0  0
  190.5020  178.0110  144.9400 C   0  0  0  0  0  2  0  0  0  0  0  0
  191.5180  176.0940  143.6750 C   0  0  0  0  0  2  0  0  0  0  0  0
  189.5470  177.3190  142.7190 C   0  0  0  0  0  0  0  0  0  0  0  0
  192.0290  176.4520  146.0420 N   0  0  0  0  0  0  0  0  0  0  0  0
  191.7700  175.4330  145.0260 C   0  0  0  0  0  2  0  0  0  0  0  0
  190.8120  177.2400  146.2210 C   0  0  0  0  0  2  0  0  0  0  0  0
  189.6390  176.6320  141.6650 O   0  0  0  0  0  0  0  0  0  0  0  0
  1  8  1  0  0  0  0
  1  6  1  0  0  0  0
  2  6  2  0  0  0  0
  3 30  1  0  0  0  0
  4  3  2  0  0  0  0
  4 26  1  0  0  0  0
  5  7  1  0  0  0  0
  5  9  2  0  0  0  0
  6  3  1  0  0  0  0
  7  1  2  0  0  0  0
  8  4  1  0  0  0  0
  9  2  1  0  0  0  0
 11  9  1  0  0  0  0
 11 10  1  0  0  0  0
 12 13  1  0  0  0  0
 12  8  1  0  0  0  0
 14 13  1  0  0  0  0
 15 14  1  0  0  0  0
 15 17  1  0  0  0  0
 16 15  2  0  0  0  0
 19 25  1  0  0  0  0
 22 18  1  0  0  0  0
 22 24  1  0  0  0  0
 23 18  1  0  0  0  0
 23 19  1  0  0  0  0
 24 20  1  6  0  0  0
 24 25  1  0  0  0  0
 24 17  1  0  0  0  0
 25 21  1  6  0  0  0
 28 29  1  0  0  0  0
 29 26  1  0  0  0  0
 29 27  1  1  0  0  0
 30 31  1  0  0  0  0
 31 37  1  0  0  0  0
 33 42  1  6  0  0  0
 33 32  1  0  0  0  0
 34 37  1  0  0  0  0
 34 33  1  0  0  0  0
 36 32  1  0  0  0  0
 36 35  1  0  0  0  0
 37 36  2  0  0  0  0
 38 40  1  0  0  0  0
 40 45  1  0  0  0  0
 41 38  1  0  0  0  0
 41 44  1  0  0  0  0
 42 38  1  0  0  0  0
 43 45  1  0  0  0  0
 43 39  1  0  0  0  0
 44 43  1  0  0  0  0
 46 42  2  0  0  0  0
M  END
>  <MODEL>
4

>  <REMARK>
 VINA RESULT:      -6.4      2.581      9.785
  Name = 
  13 active torsions:
  status: ('A' for Active; 'I' for Inactive)
    1  A    between atoms: N_9  and  N_34
    2  A    between atoms: N_9  and  C_36
    3  A    between atoms: C_10  and  C_29
    4  A    between atoms: C_12  and  C_40
    5  A    between atoms: C_15  and  C_17
    6  A    between atoms: C_15  and  C_32
    7  A    between atoms: C_23  and  C_27
    8  A    between atoms: C_23  and  C_36
    9  A    between atoms: C_24  and  C_38
   10  A    between atoms: C_27  and  C_45
   11  A    between atoms: C_39  and  C_43
   12  A    between atoms: C_40  and  C_43
   13  A    between atoms: C_44  and  C_45
                            x       y       z     vdW  Elec       q    Type
                         _______ _______ _______ _____ _____    ______ ____

>  <TORSDO>
F 13

$$$$
=
 OpenBabel10232409013D

 46 50  0  0  1  0  0  0  0  0999 V2000
  188.3640  177.8390  141.2960 C   0  0  0  0  0  0  0  0  0  0  0  0
  190.6090  176.9380  141.4310 C   0  0  0  0  0  3  0  0  0  0  0  0
  189.4120  177.6910  139.3460 C   0  0  0  0  0  0  0  0  0  0  0  0
  188.1300  178.2090  139.1730 C   0  0  0  0  0  0  0  0  0  0  0  0
  189.2360  177.1990  143.4390 C   0  0  0  0  0  3  0  0  0  0  0  0
  189.5440  177.4610  140.7000 C   0  0  0  0  0  0  0  0  0  0  0  0
  188.1770  177.7210  142.6750 C   0  0  0  0  0  3  0  0  0  0  0  0
  187.4980  178.2960  140.3660 N   0  0  0  0  0  0  0  0  0  0  0  0
  190.4430  176.8030  142.8220 C   0  0  0  0  0  0  0  0  0  0  0  0
  191.4080  176.6900  144.9710 O   0  0  0  0  0  1  0  0  0  0  0  0
  191.5560  176.2680  143.6510 C   0  0  0  0  0  2  0  0  0  0  0  0
  186.1820  178.7560  140.5470 N   0  0  0  0  0  2  0  0  0  0  0  0
  185.6600  179.2070  141.8290 C   0  0  0  0  0  2  0  0  0  0  0  0
  184.6780  178.1880  142.3870 C   0  0  0  0  0  2  0  0  0  0  0  0
  183.3420  178.8110  142.6390 C   0  0  0  0  0  0  0  0  0  0  0  0
  183.2500  179.7930  143.3590 O   0  0  0  0  0  0  0  0  0  0  0  0
  182.1100  178.1880  142.0470 C   0  0  0  0  0  2  0  0  0  0  0  0
  182.5010  176.0150  139.4600 O   0  0  0  0  0  0  0  0  0  0  0  0
  180.6000  177.5670  138.4920 C   0  0  0  0  0  2  0  0  0  0  0  0
  182.4510  179.5530  139.9890 C   0  0  0  0  0  1  0  0  0  0  0  0
  179.9820  176.6970  140.7500 C   0  0  0  0  0  1  0  0  0  0  0  0
  183.1190  177.1660  139.9620 C   0  0  0  0  0  2  0  0  0  0  0  0
  181.9460  176.4670  137.8890 S   0  0  0  0  0  0  0  0  0  0  0  0
  182.0850  178.1690  140.5060 C   0  0  1  0  0  0  0  0  0  0  0  0
  180.6530  177.8440  140.0010 C   0  0  1  0  0  3  0  0  0  0  0  0
  187.4980  178.5560  137.8610 C   0  0  0  0  0  2  0  0  0  0  0  0
  186.8600  177.5160  135.6820 C   0  0  0  0  0  1  0  0  0  0  0  0
  185.6430  177.0770  137.6740 O   0  0  0  0  0  1  0  0  0  0  0  0
  186.9270  177.3170  137.1870 C   0  0  2  0  0  3  0  0  0  0  0  0
  190.4250  177.4020  138.2880 C   0  0  0  0  0  2  0  0  0  0  0  0
  190.2360  175.9940  137.7530 C   0  0  0  0  0  2  0  0  0  0  0  0
  193.0260  173.8330  136.5420 N   0  0  0  0  0  0  0  0  0  0  0  0
  194.0040  174.7390  137.1220 C   0  0  2  0  0  3  0  0  0  0  0  0
  193.1050  176.1520  137.8620 S   0  0  0  0  0  0  0  0  0  0  0  0
  190.5410  173.4260  136.2710 C   0  0  0  0  0  1  0  0  0  0  0  0
  191.6880  174.2550  136.7350 C   0  0  0  0  0  0  0  0  0  0  0  0
  191.5550  175.4000  137.3830 C   0  0  1  0  0  3  0  0  0  0  0  0
  196.3740  175.0330  136.2310 N   0  0  0  0  0  0  0  0  0  0  0  0
  200.2320  173.5240  136.1900 C   0  0  0  0  0  1  0  0  0  0  0  0
  196.9180  174.5430  137.4960 C   0  0  0  0  0  2  0  0  0  0  0  0
  197.2990  175.5820  135.2410 C   0  0  0  0  0  2  0  0  0  0  0  0
  194.9590  175.2220  136.0730 C   0  0  0  0  0  0  0  0  0  0  0  0
  199.1040  174.4110  136.4080 N   0  0  0  0  0  0  0  0  0  0  0  0
  198.5020  174.6540  135.0990 C   0  0  0  0  0  2  0  0  0  0  0  0
  198.1440  173.6730  137.2260 C   0  0  0  0  0  2  0  0  0  0  0  0
  194.5120  175.8190  135.0550 O   0  0  0  0  0  0  0  0  0  0  0  0
  1  7  1  0  0  0  0
  2  9  2  0  0  0  0
  3  6  1  0  0  0  0
  4  3  2  0  0  0  0
  4  8  1  0  0  0  0
  6  1  2  0  0  0  0
  6  2  1  0  0  0  0
  7  5  2  0  0  0  0
  8 12  1  0  0  0  0
  8  1  1  0  0  0  0
  9  5  1  0  0  0  0
  9 11  1  0  0  0  0
 11 10  1  0  0  0  0
 12 13  1  0  0  0  0
 13 14  1  0  0  0  0
 14 15  1  0  0  0  0
 15 16  2  0  0  0  0
 17 15  1  0  0  0  0
 18 22  1  0  0  0  0
 19 25  1  0  0  0  0
 22 24  1  0  0  0  0
 23 19  1  0  0  0  0
 23 18  1  0  0  0  0
 24 20  1  6  0  0  0
 24 17  1  0  0  0  0
 25 24  1  0  0  0  0
 25 21  1  1  0  0  0
 26  4  1  0  0  0  0
 29 27  1  6  0  0  0
 29 28  1  0  0  0  0
 29 26  1  0  0  0  0
 30  3  1  0  0  0  0
 31 30  1  0  0  0  0
 32 36  2  0  0  0  0
 32 33  1  0  0  0  0
 33 42  1  6  0  0  0
 33 34  1  0  0  0  0
 35 36  1  0  0  0  0
 36 37  1  0  0  0  0
 37 31  1  1  0  0  0
 37 34  1  0  0  0  0
 38 40  1  0  0  0  0
 39 43  1  0  0  0  0
 41 38  1  0  0  0  0
 42 38  1  0  0  0  0
 43 45  1  0  0  0  0
 44 41  1  0  0  0  0
 44 43  1  0  0  0  0
 45 40  1  0  0  0  0
 46 42  2  0  0  0  0
M  END
>  <MODEL>
5

>  <REMARK>
 VINA RESULT:      -6.4      5.364     10.472
  Name = 
  13 active torsions:
  status: ('A' for Active; 'I' for Inactive)
    1  A    between atoms: N_9  and  N_34
    2  A    between atoms: N_9  and  C_36
    3  A    between atoms: C_10  and  C_29
    4  A    between atoms: C_12  and  C_40
    5  A    between atoms: C_15  and  C_17
    6  A    between atoms: C_15  and  C_32
    7  A    between atoms: C_23  and  C_27
    8  A    between atoms: C_23  and  C_36
    9  A    between atoms: C_24  and  C_38
   10  A    between atoms: C_27  and  C_45
   11  A    between atoms: C_39  and  C_43
   12  A    between atoms: C_40  and  C_43
   13  A    between atoms: C_44  and  C_45
                            x       y       z     vdW  Elec       q    Type
                         _______ _______ _______ _____ _____    ______ ____

>  <TORSDO>
F 13

$$$$
=
 OpenBabel10232409013D

 46 50  0  0  1  0  0  0  0  0999 V2000
  189.5140  177.3300  141.8670 C   0  0  0  0  0  0  0  0  0  0  0  0
  188.0750  177.7140  143.7770 C   0  0  0  0  0  3  0  0  0  0  0  0
  187.6250  178.3940  141.3930 C   0  0  0  0  0  0  0  0  0  0  0  0
  188.3920  178.2240  140.2410 C   0  0  0  0  0  0  0  0  0  0  0  0
  190.2200  176.5670  144.0310 C   0  0  0  0  0  3  0  0  0  0  0  0
  188.3530  177.8210  142.4160 C   0  0  0  0  0  0  0  0  0  0  0  0
  190.4760  176.6910  142.6530 C   0  0  0  0  0  3  0  0  0  0  0  0
  189.5410  177.5740  140.5390 N   0  0  0  0  0  0  0  0  0  0  0  0
  189.0310  177.0810  144.5920 C   0  0  0  0  0  0  0  0  0  0  0  0
  189.5890  177.7950  146.7690 O   0  0  0  0  0  1  0  0  0  0  0  0
  188.7740  176.9250  146.0490 C   0  0  0  0  0  2  0  0  0  0  0  0
  190.5510  177.2620  139.6120 N   0  0  0  0  0  2  0  0  0  0  0  0
  190.4590  176.1570  138.6690 C   0  0  0  0  0  2  0  0  0  0  0  0
  191.7200  176.0820  137.8200 C   0  0  0  0  0  2  0  0  0  0  0  0
  191.8010  174.7780  137.0930 C   0  0  0  0  0  0  0  0  0  0  0  0
  191.1560  173.8170  137.4840 O   0  0  0  0  0  0  0  0  0  0  0  0
  192.7230  174.6410  135.9150 C   0  0  0  0  0  2  0  0  0  0  0  0
  194.8080  173.1530  138.1530 O   0  0  0  0  0  0  0  0  0  0  0  0
  196.3430  173.1620  136.0090 C   0  0  0  0  0  2  0  0  0  0  0  0
  194.8790  175.8900  135.8510 C   0  0  0  0  0  1  0  0  0  0  0  0
  194.1240  172.1290  135.5160 C   0  0  0  0  0  1  0  0  0  0  0  0
  194.3960  174.4450  137.8060 C   0  0  0  0  0  2  0  0  0  0  0  0
  196.5050  173.1370  137.8420 S   0  0  0  0  0  0  0  0  0  0  0  0
  194.2190  174.5890  136.2820 C   0  0  1  0  0  0  0  0  0  0  0  0
  194.9160  173.4330  135.5150 C   0  0  1  0  0  3  0  0  0  0  0  0
  188.0480  178.7400  138.8790 C   0  0  0  0  0  2  0  0  0  0  0  0
  187.7640  177.7110  136.6220 C   0  0  0  0  0  1  0  0  0  0  0  0
  185.9360  177.9500  138.1190 O   0  0  0  0  0  1  0  0  0  0  0  0
  187.3040  177.6890  138.0700 C   0  0  2  0  0  3  0  0  0  0  0  0
  186.3080  179.0870  141.5130 C   0  0  0  0  0  2  0  0  0  0  0  0
  185.4550  178.4090  142.5690 C   0  0  0  0  0  2  0  0  0  0  0  0
  181.7450  178.8050  142.6230 N   0  0  0  0  0  2  0  0  0  0  0  0
  181.6820  178.5800  141.1880 C   0  0  2  0  0  3  0  0  0  0  0  0
  183.3920  178.3720  140.5670 S   0  0  0  0  0  0  0  0  0  0  0  0
  183.3280  178.9090  144.5970 C   0  0  0  0  0  1  0  0  0  0  0  0
  183.0640  178.7660  143.1380 C   0  0  0  0  0  0  0  0  0  0  0  0
  184.0070  178.5550  142.2360 C   0  0  0  0  0  0  0  0  0  0  0  0
  181.1030  179.8870  139.0780 N   0  0  0  0  0  0  0  0  0  0  0  0
  180.4540  179.6870  134.9920 C   0  0  0  0  0  1  0  0  0  0  0  0
  181.9970  179.0350  138.2960 C   0  0  0  0  0  2  0  0  0  0  0  0
  180.5190  181.0620  138.4320 C   0  0  0  0  0  2  0  0  0  0  0  0
  181.0160  179.7340  140.5030 C   0  0  0  0  0  0  0  0  0  0  0  0
  181.0380  180.0250  136.2760 N   0  0  0  0  0  0  0  0  0  0  0  0
  179.9850  180.6740  137.0570 C   0  0  0  0  0  2  0  0  0  0  0  0
  181.3790  178.7620  136.9270 C   0  0  0  0  0  2  0  0  0  0  0  0
  180.3930  180.5880  141.1930 O   0  0  0  0  0  0  0  0  0  0  0  0
  1  6  2  0  0  0  0
  1  7  1  0  0  0  0
  2  9  2  0  0  0  0
  3 30  1  0  0  0  0
  3  6  1  0  0  0  0
  4  8  1  0  0  0  0
  4  3  2  0  0  0  0
  5  9  1  0  0  0  0
  6  2  1  0  0  0  0
  7  5  2  0  0  0  0
  8  1  1  0  0  0  0
  9 11  1  0  0  0  0
 11 10  1  0  0  0  0
 12  8  1  0  0  0  0
 13 12  1  0  0  0  0
 14 13  1  0  0  0  0
 15 16  2  0  0  0  0
 15 14  1  0  0  0  0
 17 24  1  0  0  0  0
 17 15  1  0  0  0  0
 19 23  1  0  0  0  0
 22 18  1  0  0  0  0
 23 18  1  0  0  0  0
 24 20  1  6  0  0  0
 24 22  1  0  0  0  0
 25 21  1  1  0  0  0
 25 19  1  0  0  0  0
 25 24  1  0  0  0  0
 26  4  1  0  0  0  0
 29 27  1  6  0  0  0
 29 28  1  0  0  0  0
 29 26  1  0  0  0  0
 30 31  1  0  0  0  0
 32 36  1  0  0  0  0
 33 42  1  6  0  0  0
 33 32  1  0  0  0  0
 34 33  1  0  0  0  0
 34 37  1  0  0  0  0
 36 35  1  0  0  0  0
 37 31  1  0  0  0  0
 37 36  2  0  0  0  0
 38 42  1  0  0  0  0
 39 43  1  0  0  0  0
 40 38  1  0  0  0  0
 41 38  1  0  0  0  0
 42 46  2  0  0  0  0
 43 45  1  0  0  0  0
 43 44  1  0  0  0  0
 44 41  1  0  0  0  0
 45 40  1  0  0  0  0
M  END
>  <MODEL>
6

>  <REMARK>
 VINA RESULT:      -6.3      4.500      7.752
  Name = 
  13 active torsions:
  status: ('A' for Active; 'I' for Inactive)
    1  A    between atoms: N_9  and  N_34
    2  A    between atoms: N_9  and  C_36
    3  A    between atoms: C_10  and  C_29
    4  A    between atoms: C_12  and  C_40
    5  A    between atoms: C_15  and  C_17
    6  A    between atoms: C_15  and  C_32
    7  A    between atoms: C_23  and  C_27
    8  A    between atoms: C_23  and  C_36
    9  A    between atoms: C_24  and  C_38
   10  A    between atoms: C_27  and  C_45
   11  A    between atoms: C_39  and  C_43
   12  A    between atoms: C_40  and  C_43
   13  A    between atoms: C_44  and  C_45
                            x       y       z     vdW  Elec       q    Type
                         _______ _______ _______ _____ _____    ______ ____

>  <TORSDO>
F 13

$$$$
=
 OpenBabel10232409013D

 46 50  0  0  1  0  0  0  0  0999 V2000
  187.7400  177.7580  138.8100 C   0  0  0  0  0  0  0  0  0  0  0  0
  188.3410  176.4870  136.8370 C   0  0  0  0  0  3  0  0  0  0  0  0
  189.6600  176.6560  138.9770 C   0  0  0  0  0  0  0  0  0  0  0  0
  189.3990  177.3620  140.1500 C   0  0  0  0  0  0  0  0  0  0  0  0
  186.2750  177.7960  136.9100 C   0  0  0  0  0  3  0  0  0  0  0  0
  188.5970  176.9190  138.1370 C   0  0  0  0  0  0  0  0  0  0  0  0
  186.5610  178.2170  138.2210 C   0  0  0  0  0  3  0  0  0  0  0  0
  188.2280  178.0300  140.0400 N   0  0  0  0  0  0  0  0  0  0  0  0
  187.1610  176.9420  136.2180 C   0  0  0  0  0  0  0  0  0  0  0  0
  186.7130  175.1090  134.8040 O   0  0  0  0  0  1  0  0  0  0  0  0
  186.8320  176.4970  134.8370 C   0  0  0  0  0  2  0  0  0  0  0  0
  187.6790  178.8600  141.0340 N   0  0  0  0  0  2  0  0  0  0  0  0
  186.6670  178.4140  141.9810 C   0  0  0  0  0  2  0  0  0  0  0  0
  185.4250  179.2860  141.8760 C   0  0  0  0  0  2  0  0  0  0  0  0
  184.1810  178.4710  142.0300 C   0  0  0  0  0  0  0  0  0  0  0  0
  183.5860  178.4570  143.0960 O   0  0  0  0  0  0  0  0  0  0  0  0
  183.7020  177.6260  140.8850 C   0  0  0  0  0  2  0  0  0  0  0  0
  182.6610  178.2780  137.7120 O   0  0  0  0  0  0  0  0  0  0  0  0
  180.3870  177.5210  138.8100 C   0  0  0  0  0  2  0  0  0  0  0  0
  181.7510  179.1680  141.0550 C   0  0  0  0  0  1  0  0  0  0  0  0
  182.1750  175.8210  139.1970 C   0  0  0  0  0  1  0  0  0  0  0  0
  182.9400  178.9840  138.8880 C   0  0  0  0  0  2  0  0  0  0  0  0
  180.9860  178.5620  137.4160 S   0  0  0  0  0  0  0  0  0  0  0  0
  182.4840  178.2030  140.1350 C   0  0  1  0  0  0  0  0  0  0  0  0
  181.4970  177.0640  139.7660 C   0  0  1  0  0  3  0  0  0  0  0  0
  190.3040  177.4430  141.3400 C   0  0  0  0  0  2  0  0  0  0  0  0
  189.8820  177.3750  143.8000 C   0  0  0  0  0  1  0  0  0  0  0  0
  190.4920  175.4250  142.5870 O   0  0  0  0  0  1  0  0  0  0  0  0
  189.7630  176.6100  142.4920 C   0  0  2  0  0  3  0  0  0  0  0  0
  190.8570  175.8190  138.6670 C   0  0  0  0  0  2  0  0  0  0  0  0
  191.8330  176.6020  137.8080 C   0  0  0  0  0  2  0  0  0  0  0  0
  194.0520  174.3130  135.8690 N   0  0  0  0  0  0  0  0  0  0  0  0
  194.9100  174.1330  137.0280 C   0  0  2  0  0  3  0  0  0  0  0  0
  194.2650  175.1800  138.3840 S   0  0  0  0  0  0  0  0  0  0  0  0
  191.9380  175.4510  135.0610 C   0  0  0  0  0  1  0  0  0  0  0  0
  192.9660  175.1900  136.1070 C   0  0  0  0  0  0  0  0  0  0  0  0
  192.9260  175.7080  137.3220 C   0  0  1  0  0  3  0  0  0  0  0  0
  197.3530  173.5170  136.6410 N   0  0  0  0  0  0  0  0  0  0  0  0
  199.9920  170.5690  135.4160 C   0  0  0  0  0  1  0  0  0  0  0  0
  197.0860  172.1490  137.0830 C   0  0  0  0  0  2  0  0  0  0  0  0
  198.7400  173.9140  136.4030 C   0  0  0  0  0  2  0  0  0  0  0  0
  196.3220  174.5150  136.7020 C   0  0  0  0  0  0  0  0  0  0  0  0
  199.3010  171.5360  136.2470 N   0  0  0  0  0  0  0  0  0  0  0  0
  199.4460  172.8340  135.5900 C   0  0  0  0  0  2  0  0  0  0  0  0
  197.8870  171.1690  136.2300 C   0  0  0  0  0  2  0  0  0  0  0  0
  196.6050  175.7280  136.5000 O   0  0  0  0  0  0  0  0  0  0  0  0
  1  8  1  0  0  0  0
  2  6  1  0  0  0  0
  3  4  2  0  0  0  0
  4 26  1  0  0  0  0
  5  7  2  0  0  0  0
  6  1  2  0  0  0  0
  6  3  1  0  0  0  0
  7  1  1  0  0  0  0
  8  4  1  0  0  0  0
  8 12  1  0  0  0  0
  9  2  2  0  0  0  0
  9  5  1  0  0  0  0
 10 11  1  0  0  0  0
 11  9  1  0  0  0  0
 12 13  1  0  0  0  0
 14 13  1  0  0  0  0
 14 15  1  0  0  0  0
 15 16  2  0  0  0  0
 17 15  1  0  0  0  0
 18 22  1  0  0  0  0
 19 25  1  0  0  0  0
 22 24  1  0  0  0  0
 23 18  1  0  0  0  0
 23 19  1  0  0  0  0
 24 17  1  0  0  0  0
 24 20  1  1  0  0  0
 25 21  1  6  0  0  0
 25 24  1  0  0  0  0
 26 29  1  0  0  0  0
 29 28  1  0  0  0  0
 29 27  1  1  0  0  0
 30  3  1  0  0  0  0
 31 30  1  0  0  0  0
 32 36  2  0  0  0  0
 32 33  1  0  0  0  0
 33 42  1  6  0  0  0
 33 34  1  0  0  0  0
 35 36  1  0  0  0  0
 36 37  1  0  0  0  0
 37 31  1  1  0  0  0
 37 34  1  0  0  0  0
 38 42  1  0  0  0  0
 38 40  1  0  0  0  0
 39 43  1  0  0  0  0
 41 38  1  0  0  0  0
 44 43  1  0  0  0  0
 44 41  1  0  0  0  0
 45 43  1  0  0  0  0
 45 40  1  0  0  0  0
 46 42  2  0  0  0  0
M  END
>  <MODEL>
7

>  <REMARK>
 VINA RESULT:      -6.3      5.911     10.360
  Name = 
  13 active torsions:
  status: ('A' for Active; 'I' for Inactive)
    1  A    between atoms: N_9  and  N_34
    2  A    between atoms: N_9  and  C_36
    3  A    between atoms: C_10  and  C_29
    4  A    between atoms: C_12  and  C_40
    5  A    between atoms: C_15  and  C_17
    6  A    between atoms: C_15  and  C_32
    7  A    between atoms: C_23  and  C_27
    8  A    between atoms: C_23  and  C_36
    9  A    between atoms: C_24  and  C_38
   10  A    between atoms: C_27  and  C_45
   11  A    between atoms: C_39  and  C_43
   12  A    between atoms: C_40  and  C_43
   13  A    between atoms: C_44  and  C_45
                            x       y       z     vdW  Elec       q    Type
                         _______ _______ _______ _____ _____    ______ ____

>  <TORSDO>
F 13

$$$$
=
 OpenBabel10232409013D

 46 50  0  0  1  0  0  0  0  0999 V2000
  188.4340  177.9550  141.0570 C   0  0  0  0  0  0  0  0  0  0  0  0
  190.5420  176.8260  141.4440 C   0  0  0  0  0  3  0  0  0  0  0  0
  189.2560  176.9110  139.2800 C   0  0  0  0  0  0  0  0  0  0  0  0
  188.0420  177.5230  138.9690 C   0  0  0  0  0  0  0  0  0  0  0  0
  189.4210  178.0470  143.2430 C   0  0  0  0  0  3  0  0  0  0  0  0
  189.4880  177.1950  140.6100 C   0  0  0  0  0  0  0  0  0  0  0  0
  188.3700  178.4020  142.3790 C   0  0  0  0  0  3  0  0  0  0  0  0
  187.5490  178.1570  140.0570 N   0  0  0  0  0  0  0  0  0  0  0  0
  190.4980  177.2580  142.7830 C   0  0  0  0  0  0  0  0  0  0  0  0
  191.7630  175.5230  143.7580 O   0  0  0  0  0  1  0  0  0  0  0  0
  191.6060  176.9070  143.7110 C   0  0  0  0  0  2  0  0  0  0  0  0
  186.3290  178.8560  140.0960 N   0  0  0  0  0  2  0  0  0  0  0  0
  185.1890  178.4340  140.8960 C   0  0  0  0  0  2  0  0  0  0  0  0
  183.9240  179.1330  140.4210 C   0  0  0  0  0  2  0  0  0  0  0  0
  182.7500  178.2080  140.4660 C   0  0  0  0  0  0  0  0  0  0  0  0
  181.8360  178.4140  141.2490 O   0  0  0  0  0  0  0  0  0  0  0  0
  182.7280  176.9930  139.5820 C   0  0  0  0  0  2  0  0  0  0  0  0
  184.0880  176.6370  136.4850 O   0  0  0  0  0  0  0  0  0  0  0  0
  181.5480  176.1860  135.9410 C   0  0  0  0  0  2  0  0  0  0  0  0
  181.4350  178.4650  138.0400 C   0  0  0  0  0  1  0  0  0  0  0  0
  182.3350  174.7270  137.8090 C   0  0  0  0  0  1  0  0  0  0  0  0
  183.6740  177.6710  137.3330 C   0  0  0  0  0  2  0  0  0  0  0  0
  183.0720  176.7770  135.0970 S   0  0  0  0  0  0  0  0  0  0  0  0
  182.3980  177.2880  138.1050 C   0  0  1  0  0  0  0  0  0  0  0  0
  181.6880  176.0650  137.4650 C   0  0  1  0  0  3  0  0  0  0  0  0
  187.3360  177.4420  137.6520 C   0  0  0  0  0  2  0  0  0  0  0  0
  188.4910  178.0340  135.5190 C   0  0  0  0  0  1  0  0  0  0  0  0
  188.6090  179.4390  137.4300 O   0  0  0  0  0  1  0  0  0  0  0  0
  187.7610  178.5780  136.7350 C   0  0  2  0  0  3  0  0  0  0  0  0
  190.1120  176.0830  138.3790 C   0  0  0  0  0  2  0  0  0  0  0  0
  191.1530  176.9550  137.7010 C   0  0  0  0  0  2  0  0  0  0  0  0
  194.5490  175.4130  137.8230 N   0  0  0  0  0  2  0  0  0  0  0  0
  194.3410  174.8090  136.5170 C   0  0  2  0  0  3  0  0  0  0  0  0
  192.6480  175.2250  135.9580 S   0  0  0  0  0  0  0  0  0  0  0  0
  193.4820  176.9130  139.5620 C   0  0  0  0  0  1  0  0  0  0  0  0
  193.4370  176.1640  138.2760 C   0  0  0  0  0  0  0  0  0  0  0  0
  192.4010  176.1730  137.4540 C   0  0  0  0  0  0  0  0  0  0  0  0
  195.8220  172.7350  136.5030 N   0  0  0  0  0  0  0  0  0  0  0  0
  199.5770  171.1990  137.3400 C   0  0  0  0  0  1  0  0  0  0  0  0
  196.9800  173.5540  136.1470 C   0  0  0  0  0  2  0  0  0  0  0  0
  195.9700  171.2800  136.4940 C   0  0  0  0  0  2  0  0  0  0  0  0
  194.5150  173.3230  136.5910 C   0  0  0  0  0  0  0  0  0  0  0  0
  198.3920  171.6140  136.6130 N   0  0  0  0  0  0  0  0  0  0  0  0
  197.2640  170.8960  137.2040 C   0  0  0  0  0  2  0  0  0  0  0  0
  198.2180  173.0400  136.8770 C   0  0  0  0  0  2  0  0  0  0  0  0
  193.4980  172.5860  136.7120 O   0  0  0  0  0  0  0  0  0  0  0  0
  1  7  1  0  0  0  0
  2  9  2  0  0  0  0
  3  6  1  0  0  0  0
  4  3  2  0  0  0  0
  4  8  1  0  0  0  0
  6  1  2  0  0  0  0
  6  2  1  0  0  0  0
  7  5  2  0  0  0  0
  8 12  1  0  0  0  0
  8  1  1  0  0  0  0
  9  5  1  0  0  0  0
  9 11  1  0  0  0  0
 11 10  1  0  0  0  0
 12 13  1  0  0  0  0
 14 15  1  0  0  0  0
 14 13  1  0  0  0  0
 15 16  2  0  0  0  0
 17 15  1  0  0  0  0
 18 22  1  0  0  0  0
 19 25  1  0  0  0  0
 22 24  1  0  0  0  0
 23 19  1  0  0  0  0
 23 18  1  0  0  0  0
 24 20  1  6  0  0  0
 24 17  1  0  0  0  0
 25 21  1  6  0  0  0
 25 24  1  0  0  0  0
 26  4  1  0  0  0  0
 29 27  1  6  0  0  0
 29 28  1  0  0  0  0
 29 26  1  0  0  0  0
 30  3  1  0  0  0  0
 31 30  1  0  0  0  0
 32 36  1  0  0  0  0
 33 42  1  1  0  0  0
 33 32  1  0  0  0  0
 34 33  1  0  0  0  0
 34 37  1  0  0  0  0
 36 35  1  0  0  0  0
 37 31  1  0  0  0  0
 37 36  2  0  0  0  0
 38 42  1  0  0  0  0
 40 38  1  0  0  0  0
 40 45  1  0  0  0  0
 41 38  1  0  0  0  0
 41 44  1  0  0  0  0
 42 46  2  0  0  0  0
 43 45  1  0  0  0  0
 43 44  1  0  0  0  0
 43 39  1  0  0  0  0
M  END
>  <MODEL>
8

>  <REMARK>
 VINA RESULT:      -6.3      5.477     10.754
  Name = 
  13 active torsions:
  status: ('A' for Active; 'I' for Inactive)
    1  A    between atoms: N_9  and  N_34
    2  A    between atoms: N_9  and  C_36
    3  A    between atoms: C_10  and  C_29
    4  A    between atoms: C_12  and  C_40
    5  A    between atoms: C_15  and  C_17
    6  A    between atoms: C_15  and  C_32
    7  A    between atoms: C_23  and  C_27
    8  A    between atoms: C_23  and  C_36
    9  A    between atoms: C_24  and  C_38
   10  A    between atoms: C_27  and  C_45
   11  A    between atoms: C_39  and  C_43
   12  A    between atoms: C_40  and  C_43
   13  A    between atoms: C_44  and  C_45
                            x       y       z     vdW  Elec       q    Type
                         _______ _______ _______ _____ _____    ______ ____

>  <TORSDO>
F 13

$$$$
=
 OpenBabel10232409013D

 46 50  0  0  1  0  0  0  0  0999 V2000
  184.3020  177.4540  137.1670 C   0  0  0  0  0  0  0  0  0  0  0  0
  186.2180  178.1840  138.4580 C   0  0  0  0  0  3  0  0  0  0  0  0
  183.8020  178.2820  139.1640 C   0  0  0  0  0  0  0  0  0  0  0  0
  182.6430  177.8970  138.4910 C   0  0  0  0  0  0  0  0  0  0  0  0
  186.4970  177.2380  136.2190 C   0  0  0  0  0  3  0  0  0  0  0  0
  184.8450  177.9940  138.3090 C   0  0  0  0  0  0  0  0  0  0  0  0
  185.1070  177.0610  136.0960 C   0  0  0  0  0  3  0  0  0  0  0  0
  182.9580  177.3930  137.2750 N   0  0  0  0  0  0  0  0  0  0  0  0
  187.0510  177.8020  137.3890 C   0  0  0  0  0  0  0  0  0  0  0  0
  188.8170  179.1260  138.2200 O   0  0  0  0  0  1  0  0  0  0  0  0
  188.5250  177.9660  137.5050 C   0  0  0  0  0  2  0  0  0  0  0  0
  182.0240  176.9320  136.3300 N   0  0  0  0  0  2  0  0  0  0  0  0
  181.4030  175.6180  136.3920 C   0  0  0  0  0  2  0  0  0  0  0  0
  182.1060  174.6570  135.4440 C   0  0  0  0  0  2  0  0  0  0  0  0
  182.4700  173.3850  136.1410 C   0  0  0  0  0  0  0  0  0  0  0  0
  181.6850  172.4510  136.1620 O   0  0  0  0  0  0  0  0  0  0  0  0
  183.7840  173.2850  136.8620 C   0  0  0  0  0  2  0  0  0  0  0  0
  186.1900  173.4660  134.4640 O   0  0  0  0  0  0  0  0  0  0  0  0
  187.3280  171.7890  136.1520 C   0  0  0  0  0  2  0  0  0  0  0  0
  184.3450  170.9460  136.2090 C   0  0  0  0  0  1  0  0  0  0  0  0
  186.5910  173.8700  137.3190 C   0  0  0  0  0  1  0  0  0  0  0  0
  184.9820  172.7950  134.6860 C   0  0  0  0  0  2  0  0  0  0  0  0
  187.3740  172.2140  134.3620 S   0  0  0  0  0  0  0  0  0  0  0  0
  184.8260  172.3890  136.1630 C   0  0  1  0  0  0  0  0  0  0  0  0
  186.1800  172.4570  136.9200 C   0  0  1  0  0  3  0  0  0  0  0  0
  181.2430  178.0730  138.9910 C   0  0  0  0  0  2  0  0  0  0  0  0
  181.4090  180.0990  137.5410 C   0  0  0  0  0  1  0  0  0  0  0  0
  181.1150  180.2720  139.8910 O   0  0  0  0  0  1  0  0  0  0  0  0
  180.7670  179.5020  138.7820 C   0  0  2  0  0  3  0  0  0  0  0  0
  183.9000  178.9130  140.5140 C   0  0  0  0  0  2  0  0  0  0  0  0
  183.7600  177.8590  141.5960 C   0  0  0  0  0  2  0  0  0  0  0  0
  184.0560  179.4990  144.9340 N   0  0  0  0  0  2  0  0  0  0  0  0
  185.4950  179.2890  144.9300 C   0  0  2  0  0  3  0  0  0  0  0  0
  185.9340  178.3760  143.4040 S   0  0  0  0  0  0  0  0  0  0  0  0
  181.9500  179.1710  143.5670 C   0  0  0  0  0  1  0  0  0  0  0  0
  183.4130  178.9930  143.7790 C   0  0  0  0  0  0  0  0  0  0  0  0
  184.2160  178.4020  142.9100 C   0  0  0  0  0  0  0  0  0  0  0  0
  187.2000  177.8720  146.1870 N   0  0  0  0  0  0  0  0  0  0  0  0
  191.2180  177.0120  146.7160 C   0  0  0  0  0  1  0  0  0  0  0  0
  188.0380  177.8040  144.9900 C   0  0  0  0  0  2  0  0  0  0  0  0
  187.5650  177.0490  147.3400 C   0  0  0  0  0  2  0  0  0  0  0  0
  185.9160  178.5120  146.1400 C   0  0  0  0  0  0  0  0  0  0  0  0
  189.8130  176.8670  146.3860 N   0  0  0  0  0  0  0  0  0  0  0  0
  189.0630  177.1770  147.6020 C   0  0  0  0  0  2  0  0  0  0  0  0
  189.5090  177.8890  145.3870 C   0  0  0  0  0  2  0  0  0  0  0  0
  185.1220  178.4050  147.1150 O   0  0  0  0  0  0  0  0  0  0  0  0
  1  8  1  0  0  0  0
  1  6  1  0  0  0  0
  3 30  1  0  0  0  0
  4 26  1  0  0  0  0
  4  3  2  0  0  0  0
  5  9  2  0  0  0  0
  6  2  2  0  0  0  0
  6  3  1  0  0  0  0
  7  5  1  0  0  0  0
  7  1  2  0  0  0  0
  8  4  1  0  0  0  0
  9 11  1  0  0  0  0
  9  2  1  0  0  0  0
 11 10  1  0  0  0  0
 12 13  1  0  0  0  0
 12  8  1  0  0  0  0
 14 15  1  0  0  0  0
 14 13  1  0  0  0  0
 15 16  2  0  0  0  0
 15 17  1  0  0  0  0
 18 22  1  0  0  0  0
 19 25  1  0  0  0  0
 22 24  1  0  0  0  0
 23 18  1  0  0  0  0
 23 19  1  0  0  0  0
 24 20  1  1  0  0  0
 24 17  1  0  0  0  0
 24 25  1  0  0  0  0
 25 21  1  6  0  0  0
 29 27  1  6  0  0  0
 29 26  1  0  0  0  0
 29 28  1  0  0  0  0
 30 31  1  0  0  0  0
 31 37  1  0  0  0  0
 33 32  1  0  0  0  0
 33 42  1  1  0  0  0
 34 33  1  0  0  0  0
 35 36  1  0  0  0  0
 36 32  1  0  0  0  0
 37 34  1  0  0  0  0
 37 36  2  0  0  0  0
 38 41  1  0  0  0  0
 40 45  1  0  0  0  0
 40 38  1  0  0  0  0
 41 44  1  0  0  0  0
 42 38  1  0  0  0  0
 42 46  2  0  0  0  0
 43 39  1  0  0  0  0
 43 44  1  0  0  0  0
 45 43  1  0  0  0  0
M  END
>  <MODEL>
9

>  <REMARK>
 VINA RESULT:      -6.2      2.904      9.560
  Name = 
  13 active torsions:
  status: ('A' for Active; 'I' for Inactive)
    1  A    between atoms: N_9  and  N_34
    2  A    between atoms: N_9  and  C_36
    3  A    between atoms: C_10  and  C_29
    4  A    between atoms: C_12  and  C_40
    5  A    between atoms: C_15  and  C_17
    6  A    between atoms: C_15  and  C_32
    7  A    between atoms: C_23  and  C_27
    8  A    between atoms: C_23  and  C_36
    9  A    between atoms: C_24  and  C_38
   10  A    between atoms: C_27  and  C_45
   11  A    between atoms: C_39  and  C_43
   12  A    between atoms: C_40  and  C_43
   13  A    between atoms: C_44  and  C_45
                            x       y       z     vdW  Elec       q    Type
                         _______ _______ _______ _____ _____    ______ ____

>  <TORSDO>
F 13

$$$$
