=
 OpenBabel10222421343D

 43 45  0  0  1  0  0  0  0  0999 V2000
  189.0030  178.1500  141.0530 N   0  0  0  0  0  0  0  0  0  0  0  0
  188.5570  178.9730  138.9260 O   0  0  0  0  0  0  0  0  0  0  0  0
  189.1540  178.1220  139.6250 C   0  0  0  0  0  0  0  0  0  0  0  0
  190.1090  176.1830  143.9200 C   0  0  0  0  0  2  0  0  0  0  0  0
  189.2980  176.3050  142.6480 C   0  0  0  0  0  2  0  0  0  0  0  0
  189.9550  177.4500  141.9260 C   0  0  2  0  0  3  0  0  0  0  0  0
  190.6420  177.5060  144.2490 N   0  0  0  0  0  0  0  0  0  0  0  0
  190.5210  178.3170  143.0360 C   0  0  0  0  0  2  0  0  0  0  0  0
  189.7570  178.0970  145.2440 C   0  0  0  0  0  2  0  0  0  0  0  0
  188.9900  177.0250  145.9910 C   0  0  0  0  0  2  0  0  0  0  0  0
  189.4420  176.9600  147.4400 C   0  0  1  0  0  3  0  0  0  0  0  0
  190.8890  176.8640  147.5010 N   0  0  0  0  0  1  0  0  0  0  0  0
  188.9860  178.2070  148.1590 C   0  0  0  0  0  1  0  0  0  0  0  0
  187.9480  179.0010  141.6200 C   0  0  0  0  0  2  0  0  0  0  0  0
  186.6240  178.2480  141.6630 C   0  0  0  0  0  2  0  0  0  0  0  0
  185.5850  179.0950  142.3470 C   0  0  0  0  0  2  0  0  0  0  0  0
  184.8820  178.3060  143.3510 N   0  0  0  0  0  0  0  0  0  0  0  0
  185.7230  178.1460  144.5440 C   0  0  0  0  0  2  0  0  0  0  0  0
  185.4300  179.1750  145.6390 C   0  0  0  0  0  2  0  0  0  0  0  0
  185.4520  178.4990  146.9940 C   0  0  0  0  0  1  0  0  0  0  0  0
  183.6540  179.0150  143.7060 C   0  0  0  0  0  2  0  0  0  0  0  0
  182.6310  178.7830  142.6840 C   0  0  0  0  0  0  0  0  0  0  0  0
  181.7790  178.5930  141.8530 C   0  0  0  0  0  0  0  0  0  0  0  0
  180.7880  178.3800  140.8880 N   0  0  0  0  0  2  0  0  0  0  0  0
  181.1460  178.1050  139.4990 C   0  0  1  0  0  3  0  0  0  0  0  0
  181.1980  179.3080  138.7450 O   0  0  0  0  0  0  0  0  0  0  0  0
  182.4040  175.9520  139.7790 O   0  0  0  0  0  1  0  0  0  0  0  0
  182.3670  180.0200  139.0950 C   0  0  0  0  0  2  0  0  0  0  0  0
  184.7540  179.8890  139.0410 O   0  0  0  0  0  1  0  0  0  0  0  0
  182.4170  177.2880  139.4080 C   0  0  0  0  0  0  0  0  0  0  0  0
  183.5590  177.8500  139.0160 C   0  0  0  0  0  3  0  0  0  0  0  0
  183.5940  179.2770  138.5680 C   0  0  1  0  0  3  0  0  0  0  0  0
  189.9260  177.0480  138.9170 C   0  0  0  0  0  2  0  0  0  0  0  0
  189.0890  176.1880  137.9670 C   0  0  0  0  0  2  0  0  0  0  0  0
  190.4810  176.6420  134.4350 O   0  0  0  0  0  0  0  0  0  0  0  0
  187.1870  175.5830  135.4410 C   0  0  2  0  0  3  0  0  0  0  0  0
  188.9360  176.7100  136.5930 N   0  0  0  0  0  0  0  0  0  0  0  0
  186.7540  176.9630  137.2300 F   0  0  0  0  0  0  0  0  0  0  0  0
  188.3540  175.0320  134.6380 C   0  0  0  0  0  2  0  0  0  0  0  0
  186.0440  175.9090  134.4950 C   0  0  0  0  0  1  0  0  0  0  0  0
  189.7420  175.7590  135.4040 S   0  0  0  0  0  0  0  0  0  0  0  0
  187.5850  176.8000  136.1710 N   0  0  0  0  0  0  0  0  0  0  0  0
  190.6720  174.7450  136.0050 O   0  0  0  0  0  0  0  0  0  0  0  0
  1 14  1  0  0  0  0
  2  3  2  0  0  0  0
  3  1  1  0  0  0  0
  4  7  1  0  0  0  0
  5  4  1  0  0  0  0
  6  1  1  1  0  0  0
  6  5  1  0  0  0  0
  6  8  1  0  0  0  0
  7  9  1  0  0  0  0
  8  7  1  0  0  0  0
  9 10  1  0  0  0  0
 10 11  1  0  0  0  0
 11 12  1  0  0  0  0
 11 13  1  1  0  0  0
 14 15  1  0  0  0  0
 15 16  1  0  0  0  0
 16 17  1  0  0  0  0
 17 21  1  0  0  0  0
 17 18  1  0  0  0  0
 18 19  1  0  0  0  0
 19 20  1  0  0  0  0
 22 21  1  0  0  0  0
 23 22  3  0  0  0  0
 24 23  1  0  0  0  0
 25 24  1  1  0  0  0
 26 28  1  0  0  0  0
 26 25  1  0  0  0  0
 30 25  1  0  0  0  0
 30 27  1  0  0  0  0
 31 30  2  0  0  0  0
 32 31  1  0  0  0  0
 32 29  1  1  0  0  0
 32 28  1  0  0  0  0
 33  3  1  0  0  0  0
 34 33  1  0  0  0  0
 35 41  2  0  0  0  0
 36 40  1  6  0  0  0
 36 42  1  0  0  0  0
 37 34  1  0  0  0  0
 39 41  1  0  0  0  0
 39 36  1  0  0  0  0
 41 43  2  0  0  0  0
 41 37  1  0  0  0  0
 42 37  1  0  0  0  0
 42 38  1  0  0  0  0
M  END
>  <MODEL>
1

>  <REMARK>
 VINA RESULT:      -7.0      0.000      0.000
  Name = 
  17 active torsions:
  status: ('A' for Active; 'I' for Inactive)
    1  A    between atoms: C_1  and  C_10
    2  A    between atoms: C_2  and  C_24
    3  A    between atoms: C_2  and  C_32
    4  A    between atoms: C_3  and  N_40
    5  A    between atoms: C_5  and  C_26
    6  A    between atoms: C_5  and  N_30
    7  A    between atoms: C_6  and  C_36
    8  A    between atoms: C_6  and  N_38
    9  A    between atoms: C_7  and  N_8
   10  A    between atoms: C_7  and  C_26
   11  A    between atoms: N_8  and  C_27
   12  A    between atoms: C_10  and  N_30
   13  A    between atoms: C_14  and  C_36
   14  A    between atoms: C_15  and  N_40
   15  A    between atoms: C_19  and  C_22
   16  A    between atoms: N_21  and  C_24
   17  A    between atoms: C_22  and  N_30
                            x       y       z     vdW  Elec       q    Type
                         _______ _______ _______ _____ _____    ______ ____

>  <TORSDO>
F 17

$$$$
=
 OpenBabel10222421343D

 43 45  0  0  1  0  0  0  0  0999 V2000
  188.8010  177.8480  140.9760 N   0  0  0  0  0  0  0  0  0  0  0  0
  187.9130  178.3010  138.8770 O   0  0  0  0  0  0  0  0  0  0  0  0
  188.6790  177.5900  139.5690 C   0  0  0  0  0  0  0  0  0  0  0  0
  190.5060  176.1540  143.7210 C   0  0  0  0  0  2  0  0  0  0  0  0
  189.5490  176.1160  142.5500 C   0  0  0  0  0  2  0  0  0  0  0  0
  189.9400  177.3240  141.7420 C   0  0  2  0  0  3  0  0  0  0  0  0
  190.8660  177.5510  143.9700 N   0  0  0  0  0  0  0  0  0  0  0  0
  190.4890  178.2990  142.7690 C   0  0  0  0  0  2  0  0  0  0  0  0
  190.0190  178.0330  145.0530 C   0  0  0  0  0  2  0  0  0  0  0  0
  189.4360  176.8770  145.8400 C   0  0  0  0  0  2  0  0  0  0  0  0
  189.9960  176.8590  147.2520 C   0  0  1  0  0  3  0  0  0  0  0  0
  191.4290  177.0790  147.2170 N   0  0  0  0  0  1  0  0  0  0  0  0
  189.3360  177.9510  148.0610 C   0  0  0  0  0  1  0  0  0  0  0  0
  187.8270  178.7540  141.6000 C   0  0  0  0  0  2  0  0  0  0  0  0
  186.8950  177.9780  142.5210 C   0  0  0  0  0  2  0  0  0  0  0  0
  185.5660  178.6800  142.6000 C   0  0  0  0  0  2  0  0  0  0  0  0
  184.8700  178.2950  143.8210 N   0  0  0  0  0  0  0  0  0  0  0  0
  185.8130  178.2560  144.9460 C   0  0  0  0  0  2  0  0  0  0  0  0
  185.1350  178.3620  146.3140 C   0  0  0  0  0  2  0  0  0  0  0  0
  186.0250  179.1330  147.2660 C   0  0  0  0  0  1  0  0  0  0  0  0
  183.8310  179.2890  144.0830 C   0  0  0  0  0  2  0  0  0  0  0  0
  182.6960  179.0730  143.1850 C   0  0  0  0  0  0  0  0  0  0  0  0
  181.7510  178.8930  142.4570 C   0  0  0  0  0  0  0  0  0  0  0  0
  180.6540  178.6920  141.6130 N   0  0  0  0  0  2  0  0  0  0  0  0
  180.8480  178.3690  140.2020 C   0  0  1  0  0  3  0  0  0  0  0  0
  180.1270  179.2720  139.3750 O   0  0  0  0  0  0  0  0  0  0  0  0
  183.0710  177.2110  140.3090 O   0  0  0  0  0  1  0  0  0  0  0  0
  180.7930  180.5180  139.3670 C   0  0  0  0  0  2  0  0  0  0  0  0
  182.8410  181.5700  138.7230 O   0  0  0  0  0  1  0  0  0  0  0  0
  182.3180  178.2810  139.8520 C   0  0  0  0  0  0  0  0  0  0  0  0
  182.9060  179.2450  139.1450 C   0  0  0  0  0  3  0  0  0  0  0  0
  182.1100  180.3900  138.6030 C   0  0  1  0  0  3  0  0  0  0  0  0
  189.3610  176.4340  138.8980 C   0  0  0  0  0  2  0  0  0  0  0  0
  190.6190  176.8110  138.1120 C   0  0  0  0  0  2  0  0  0  0  0  0
  190.9530  173.6380  136.0060 O   0  0  0  0  0  0  0  0  0  0  0  0
  193.2050  176.4420  136.2300 C   0  0  2  0  0  3  0  0  0  0  0  0
  191.4400  175.6810  137.6300 N   0  0  0  0  0  0  0  0  0  0  0  0
  193.1580  176.9280  138.4790 F   0  0  0  0  0  0  0  0  0  0  0  0
  192.3830  175.7360  135.1640 C   0  0  0  0  0  2  0  0  0  0  0  0
  194.6780  176.1580  135.9900 C   0  0  0  0  0  1  0  0  0  0  0  0
  191.0050  175.1410  136.0530 S   0  0  0  0  0  0  0  0  0  0  0  0
  192.8270  175.9730  137.5750 N   0  0  0  0  0  0  0  0  0  0  0  0
  189.7090  175.7270  135.5760 O   0  0  0  0  0  0  0  0  0  0  0  0
  1 14  1  0  0  0  0
  2  3  2  0  0  0  0
  3  1  1  0  0  0  0
  4  7  1  0  0  0  0
  5  4  1  0  0  0  0
  6  1  1  1  0  0  0
  6  5  1  0  0  0  0
  6  8  1  0  0  0  0
  7  9  1  0  0  0  0
  8  7  1  0  0  0  0
  9 10  1  0  0  0  0
 10 11  1  0  0  0  0
 11 13  1  1  0  0  0
 12 11  1  0  0  0  0
 14 15  1  0  0  0  0
 15 16  1  0  0  0  0
 16 17  1  0  0  0  0
 17 21  1  0  0  0  0
 17 18  1  0  0  0  0
 18 19  1  0  0  0  0
 19 20  1  0  0  0  0
 22 21  1  0  0  0  0
 23 22  3  0  0  0  0
 24 23  1  0  0  0  0
 25 24  1  1  0  0  0
 26 25  1  0  0  0  0
 28 26  1  0  0  0  0
 30 25  1  0  0  0  0
 30 27  1  0  0  0  0
 31 30  2  0  0  0  0
 32 29  1  1  0  0  0
 32 31  1  0  0  0  0
 32 28  1  0  0  0  0
 33  3  1  0  0  0  0
 34 33  1  0  0  0  0
 35 41  2  0  0  0  0
 36 40  1  6  0  0  0
 36 42  1  0  0  0  0
 37 34  1  0  0  0  0
 39 41  1  0  0  0  0
 39 36  1  0  0  0  0
 41 37  1  0  0  0  0
 42 37  1  0  0  0  0
 42 38  1  0  0  0  0
 43 41  2  0  0  0  0
M  END
>  <MODEL>
2

>  <REMARK>
 VINA RESULT:      -6.6      1.971      2.467
  Name = 
  17 active torsions:
  status: ('A' for Active; 'I' for Inactive)
    1  A    between atoms: C_1  and  C_10
    2  A    between atoms: C_2  and  C_24
    3  A    between atoms: C_2  and  C_32
    4  A    between atoms: C_3  and  N_40
    5  A    between atoms: C_5  and  C_26
    6  A    between atoms: C_5  and  N_30
    7  A    between atoms: C_6  and  C_36
    8  A    between atoms: C_6  and  N_38
    9  A    between atoms: C_7  and  N_8
   10  A    between atoms: C_7  and  C_26
   11  A    between atoms: N_8  and  C_27
   12  A    between atoms: C_10  and  N_30
   13  A    between atoms: C_14  and  C_36
   14  A    between atoms: C_15  and  N_40
   15  A    between atoms: C_19  and  C_22
   16  A    between atoms: N_21  and  C_24
   17  A    between atoms: C_22  and  N_30
                            x       y       z     vdW  Elec       q    Type
                         _______ _______ _______ _____ _____    ______ ____

>  <TORSDO>
F 17

$$$$
=
 OpenBabel10222421343D

 43 45  0  0  1  0  0  0  0  0999 V2000
  189.5710  177.7230  140.8430 N   0  0  0  0  0  0  0  0  0  0  0  0
  189.1370  178.2500  138.6220 O   0  0  0  0  0  0  0  0  0  0  0  0
  189.7010  177.4800  139.4340 C   0  0  0  0  0  0  0  0  0  0  0  0
  190.6140  176.1190  143.9500 C   0  0  0  0  0  2  0  0  0  0  0  0
  189.8020  176.1000  142.6730 C   0  0  0  0  0  2  0  0  0  0  0  0
  190.4990  177.1100  141.8030 C   0  0  2  0  0  3  0  0  0  0  0  0
  191.2000  177.4520  144.0970 N   0  0  0  0  0  0  0  0  0  0  0  0
  191.1050  178.0970  142.7860 C   0  0  0  0  0  2  0  0  0  0  0  0
  190.3440  178.2070  145.0030 C   0  0  0  0  0  2  0  0  0  0  0  0
  189.7990  177.3160  146.1000 C   0  0  0  0  0  2  0  0  0  0  0  0
  188.7150  178.0390  146.8810 C   0  0  1  0  0  3  0  0  0  0  0  0
  187.4080  177.5560  146.4760 N   0  0  0  0  0  1  0  0  0  0  0  0
  188.9130  177.7850  148.3570 C   0  0  0  0  0  1  0  0  0  0  0  0
  188.5660  178.6990  141.2860 C   0  0  0  0  0  2  0  0  0  0  0  0
  187.2550  177.9980  141.6180 C   0  0  0  0  0  2  0  0  0  0  0  0
  186.1520  179.0160  141.7250 C   0  0  0  0  0  2  0  0  0  0  0  0
  184.8910  178.4330  141.2850 N   0  0  0  0  0  0  0  0  0  0  0  0
  183.8820  178.5590  142.3450 C   0  0  0  0  0  2  0  0  0  0  0  0
  184.3720  179.3490  143.5610 C   0  0  0  0  0  2  0  0  0  0  0  0
  183.6910  178.8350  144.8120 C   0  0  0  0  0  1  0  0  0  0  0  0
  184.4470  179.1560  140.0950 C   0  0  0  0  0  2  0  0  0  0  0  0
  184.8020  178.4010  138.8920 C   0  0  0  0  0  0  0  0  0  0  0  0
  185.0830  177.7700  137.9030 C   0  0  0  0  0  0  0  0  0  0  0  0
  185.4040  177.0410  136.7540 N   0  0  0  0  0  2  0  0  0  0  0  0
  186.7270  176.4440  136.5930 C   0  0  1  0  0  3  0  0  0  0  0  0
  186.8250  175.2300  137.3250 O   0  0  0  0  0  0  0  0  0  0  0  0
  187.3890  177.4150  134.3760 O   0  0  0  0  0  1  0  0  0  0  0  0
  186.0930  174.2280  136.6510 C   0  0  0  0  0  2  0  0  0  0  0  0
  186.0150  172.9850  134.6100 O   0  0  0  0  0  1  0  0  0  0  0  0
  187.0900  176.2920  135.1320 C   0  0  0  0  0  0  0  0  0  0  0  0
  187.0840  175.0920  134.5520 C   0  0  0  0  0  3  0  0  0  0  0  0
  186.8070  173.8580  135.3520 C   0  0  1  0  0  3  0  0  0  0  0  0
  190.4110  176.2770  138.8850 C   0  0  0  0  0  2  0  0  0  0  0  0
  191.4040  176.5860  137.7620 C   0  0  0  0  0  2  0  0  0  0  0  0
  191.1260  174.0110  134.9490 O   0  0  0  0  0  0  0  0  0  0  0  0
  193.9880  175.9590  135.9480 C   0  0  2  0  0  3  0  0  0  0  0  0
  191.9510  175.4140  137.0470 N   0  0  0  0  0  0  0  0  0  0  0  0
  193.8340  175.9120  138.2440 F   0  0  0  0  0  0  0  0  0  0  0  0
  193.1280  175.7700  134.7090 C   0  0  0  0  0  2  0  0  0  0  0  0
  195.3550  175.3430  135.7020 C   0  0  0  0  0  1  0  0  0  0  0  0
  191.5590  175.3900  135.3690 S   0  0  0  0  0  0  0  0  0  0  0  0
  193.3640  175.3180  137.1190 N   0  0  0  0  0  0  0  0  0  0  0  0
  190.5140  176.4040  135.0030 O   0  0  0  0  0  0  0  0  0  0  0  0
  1 14  1  0  0  0  0
  2  3  2  0  0  0  0
  3  1  1  0  0  0  0
  4  7  1  0  0  0  0
  5  4  1  0  0  0  0
  6  1  1  6  0  0  0
  6  5  1  0  0  0  0
  6  8  1  0  0  0  0
  7  9  1  0  0  0  0
  8  7  1  0  0  0  0
  9 10  1  0  0  0  0
 10 11  1  0  0  0  0
 11 13  1  1  0  0  0
 12 11  1  0  0  0  0
 14 15  1  0  0  0  0
 15 16  1  0  0  0  0
 17 16  1  0  0  0  0
 17 18  1  0  0  0  0
 18 19  1  0  0  0  0
 19 20  1  0  0  0  0
 21 17  1  0  0  0  0
 22 21  1  0  0  0  0
 23 22  3  0  0  0  0
 24 23  1  0  0  0  0
 25 24  1  6  0  0  0
 25 26  1  0  0  0  0
 27 30  1  0  0  0  0
 28 26  1  0  0  0  0
 30 25  1  0  0  0  0
 31 30  2  0  0  0  0
 31 32  1  0  0  0  0
 32 29  1  6  0  0  0
 32 28  1  0  0  0  0
 33  3  1  0  0  0  0
 34 33  1  0  0  0  0
 35 41  2  0  0  0  0
 36 40  1  6  0  0  0
 36 42  1  0  0  0  0
 37 42  1  0  0  0  0
 37 34  1  0  0  0  0
 39 41  1  0  0  0  0
 39 36  1  0  0  0  0
 41 37  1  0  0  0  0
 42 38  1  0  0  0  0
 43 41  2  0  0  0  0
M  END
>  <MODEL>
3

>  <REMARK>
 VINA RESULT:      -6.4      2.628      4.396
  Name = 
  17 active torsions:
  status: ('A' for Active; 'I' for Inactive)
    1  A    between atoms: C_1  and  C_10
    2  A    between atoms: C_2  and  C_24
    3  A    between atoms: C_2  and  C_32
    4  A    between atoms: C_3  and  N_40
    5  A    between atoms: C_5  and  C_26
    6  A    between atoms: C_5  and  N_30
    7  A    between atoms: C_6  and  C_36
    8  A    between atoms: C_6  and  N_38
    9  A    between atoms: C_7  and  N_8
   10  A    between atoms: C_7  and  C_26
   11  A    between atoms: N_8  and  C_27
   12  A    between atoms: C_10  and  N_30
   13  A    between atoms: C_14  and  C_36
   14  A    between atoms: C_15  and  N_40
   15  A    between atoms: C_19  and  C_22
   16  A    between atoms: N_21  and  C_24
   17  A    between atoms: C_22  and  N_30
                            x       y       z     vdW  Elec       q    Type
                         _______ _______ _______ _____ _____    ______ ____

>  <TORSDO>
F 17

$$$$
=
 OpenBabel10222421343D

 43 45  0  0  1  0  0  0  0  0999 V2000
  185.9600  178.6280  142.1310 N   0  0  0  0  0  0  0  0  0  0  0  0
  185.5300  179.0230  139.8820 O   0  0  0  0  0  0  0  0  0  0  0  0
  185.0650  178.8800  141.0370 C   0  0  0  0  0  0  0  0  0  0  0  0
  185.2990  178.5330  145.7180 C   0  0  0  0  0  2  0  0  0  0  0  0
  185.0900  179.1730  144.3630 C   0  0  0  0  0  2  0  0  0  0  0  0
  185.4640  178.0790  143.4000 C   0  0  2  0  0  3  0  0  0  0  0  0
  186.3470  177.5190  145.5860 N   0  0  0  0  0  0  0  0  0  0  0  0
  186.4900  177.2510  144.1540 C   0  0  0  0  0  2  0  0  0  0  0  0
  187.5960  178.1240  146.0310 C   0  0  0  0  0  2  0  0  0  0  0  0
  188.7230  177.1120  146.0140 C   0  0  0  0  0  2  0  0  0  0  0  0
  189.2920  176.9270  147.4100 C   0  0  1  0  0  3  0  0  0  0  0  0
  190.7380  176.8350  147.3470 N   0  0  0  0  0  1  0  0  0  0  0  0
  188.8960  178.1060  148.2670 C   0  0  0  0  0  1  0  0  0  0  0  0
  187.4000  178.8120  141.9030 C   0  0  0  0  0  2  0  0  0  0  0  0
  188.1170  177.4680  141.9210 C   0  0  0  0  0  2  0  0  0  0  0  0
  189.1970  177.4590  140.8730 C   0  0  0  0  0  2  0  0  0  0  0  0
  190.5020  177.6250  141.5020 N   0  0  0  0  0  0  0  0  0  0  0  0
  190.6150  176.7380  142.6670 C   0  0  0  0  0  2  0  0  0  0  0  0
  191.6190  177.2310  143.7120 C   0  0  0  0  0  2  0  0  0  0  0  0
  191.3350  178.6790  144.0500 C   0  0  0  0  0  1  0  0  0  0  0  0
  191.5260  177.2770  140.5180 C   0  0  0  0  0  2  0  0  0  0  0  0
  190.9020  177.0170  139.2200 C   0  0  0  0  0  0  0  0  0  0  0  0
  190.3970  176.8120  138.1440 C   0  0  0  0  0  0  0  0  0  0  0  0
  189.8160  176.5700  136.8940 N   0  0  0  0  0  2  0  0  0  0  0  0
  189.3650  177.6760  136.0540 C   0  0  1  0  0  3  0  0  0  0  0  0
  188.7990  177.1920  134.8450 O   0  0  0  0  0  0  0  0  0  0  0  0
  188.9620  179.4300  137.8030 O   0  0  0  0  0  1  0  0  0  0  0  0
  187.5260  176.6450  135.1200 C   0  0  0  0  0  2  0  0  0  0  0  0
  185.3430  177.2230  135.9040 O   0  0  0  0  0  1  0  0  0  0  0  0
  188.4450  178.6070  136.8150 C   0  0  0  0  0  0  0  0  0  0  0  0
  187.1340  178.6120  136.5730 C   0  0  0  0  0  3  0  0  0  0  0  0
  186.5550  177.7670  135.4830 C   0  0  1  0  0  3  0  0  0  0  0  0
  183.5910  179.0800  141.2310 C   0  0  0  0  0  2  0  0  0  0  0  0
  182.7110  178.1320  140.4140 C   0  0  0  0  0  2  0  0  0  0  0  0
  183.9080  175.3480  138.0820 O   0  0  0  0  0  0  0  0  0  0  0  0
  181.6960  178.0980  137.3590 C   0  0  2  0  0  3  0  0  0  0  0  0
  183.2590  177.7090  139.1080 N   0  0  0  0  0  0  0  0  0  0  0  0
  182.6890  179.8370  138.4940 F   0  0  0  0  0  0  0  0  0  0  0  0
  181.6510  176.5790  137.3440 C   0  0  0  0  0  2  0  0  0  0  0  0
  181.6830  178.6100  135.9280 C   0  0  0  0  0  1  0  0  0  0  0  0
  182.7470  176.1360  138.6260 S   0  0  0  0  0  0  0  0  0  0  0  0
  182.9100  178.5770  138.0420 N   0  0  0  0  0  0  0  0  0  0  0  0
  182.0720  175.3810  139.7330 O   0  0  0  0  0  0  0  0  0  0  0  0
  2  3  2  0  0  0  0
  3 33  1  0  0  0  0
  3  1  1  0  0  0  0
  5  4  1  0  0  0  0
  6  1  1  6  0  0  0
  6  8  1  0  0  0  0
  6  5  1  0  0  0  0
  7  4  1  0  0  0  0
  7  9  1  0  0  0  0
  8  7  1  0  0  0  0
 10  9  1  0  0  0  0
 10 11  1  0  0  0  0
 11 13  1  1  0  0  0
 12 11  1  0  0  0  0
 14 15  1  0  0  0  0
 14  1  1  0  0  0  0
 16 17  1  0  0  0  0
 16 15  1  0  0  0  0
 17 18  1  0  0  0  0
 18 19  1  0  0  0  0
 19 20  1  0  0  0  0
 21 17  1  0  0  0  0
 22 21  1  0  0  0  0
 23 22  3  0  0  0  0
 24 23  1  0  0  0  0
 25 30  1  0  0  0  0
 25 24  1  1  0  0  0
 26 28  1  0  0  0  0
 26 25  1  0  0  0  0
 28 32  1  0  0  0  0
 30 27  1  0  0  0  0
 31 30  2  0  0  0  0
 32 29  1  1  0  0  0
 32 31  1  0  0  0  0
 34 33  1  0  0  0  0
 35 41  2  0  0  0  0
 36 40  1  6  0  0  0
 36 42  1  0  0  0  0
 37 34  1  0  0  0  0
 39 36  1  0  0  0  0
 39 41  1  0  0  0  0
 41 37  1  0  0  0  0
 41 43  2  0  0  0  0
 42 38  1  0  0  0  0
 42 37  1  0  0  0  0
M  END
>  <MODEL>
4

>  <REMARK>
 VINA RESULT:      -6.3      2.344      6.079
  Name = 
  17 active torsions:
  status: ('A' for Active; 'I' for Inactive)
    1  A    between atoms: C_1  and  C_10
    2  A    between atoms: C_2  and  C_24
    3  A    between atoms: C_2  and  C_32
    4  A    between atoms: C_3  and  N_40
    5  A    between atoms: C_5  and  C_26
    6  A    between atoms: C_5  and  N_30
    7  A    between atoms: C_6  and  C_36
    8  A    between atoms: C_6  and  N_38
    9  A    between atoms: C_7  and  N_8
   10  A    between atoms: C_7  and  C_26
   11  A    between atoms: N_8  and  C_27
   12  A    between atoms: C_10  and  N_30
   13  A    between atoms: C_14  and  C_36
   14  A    between atoms: C_15  and  N_40
   15  A    between atoms: C_19  and  C_22
   16  A    between atoms: N_21  and  C_24
   17  A    between atoms: C_22  and  N_30
                            x       y       z     vdW  Elec       q    Type
                         _______ _______ _______ _____ _____    ______ ____

>  <TORSDO>
F 17

$$$$
=
 OpenBabel10222421343D

 43 45  0  0  1  0  0  0  0  0999 V2000
  186.6140  178.2880  142.5050 N   0  0  0  0  0  0  0  0  0  0  0  0
  187.1860  178.5290  140.2660 O   0  0  0  0  0  0  0  0  0  0  0  0
  186.3060  178.6490  141.1500 C   0  0  0  0  0  0  0  0  0  0  0  0
  184.3680  179.0280  145.2840 C   0  0  0  0  0  2  0  0  0  0  0  0
  184.8620  179.3210  143.8830 C   0  0  0  0  0  2  0  0  0  0  0  0
  185.5450  178.0410  143.4810 C   0  0  2  0  0  3  0  0  0  0  0  0
  185.2710  178.0470  145.8890 N   0  0  0  0  0  0  0  0  0  0  0  0
  186.0350  177.4510  144.7920 C   0  0  0  0  0  2  0  0  0  0  0  0
  186.2190  178.7810  146.7170 C   0  0  0  0  0  2  0  0  0  0  0  0
  187.5940  178.1470  146.6550 C   0  0  0  0  0  2  0  0  0  0  0  0
  188.0050  177.6370  148.0260 C   0  0  1  0  0  3  0  0  0  0  0  0
  188.3070  176.2200  147.9550 N   0  0  0  0  0  1  0  0  0  0  0  0
  189.2280  178.3930  148.4910 C   0  0  0  0  0  1  0  0  0  0  0  0
  188.0220  178.0490  142.8540 C   0  0  0  0  0  2  0  0  0  0  0  0
  188.2830  176.5560  143.0100 C   0  0  0  0  0  2  0  0  0  0  0  0
  189.7570  176.2850  142.8670 C   0  0  0  0  0  2  0  0  0  0  0  0
  190.5050  177.5320  142.9670 N   0  0  0  0  0  0  0  0  0  0  0  0
  191.0570  177.6800  144.3190 C   0  0  0  0  0  2  0  0  0  0  0  0
  191.5740  176.3670  144.9130 C   0  0  0  0  0  2  0  0  0  0  0  0
  191.7080  176.5050  146.4150 C   0  0  0  0  0  1  0  0  0  0  0  0
  191.5940  177.4870  141.9920 C   0  0  0  0  0  2  0  0  0  0  0  0
  191.0600  177.1930  140.6610 C   0  0  0  0  0  0  0  0  0  0  0  0
  190.6300  176.9410  139.5630 C   0  0  0  0  0  0  0  0  0  0  0  0
  190.1280  176.6430  138.2920 N   0  0  0  0  0  2  0  0  0  0  0  0
  191.0190  176.5600  137.1380 C   0  0  1  0  0  3  0  0  0  0  0  0
  192.0070  175.5580  137.3370 O   0  0  0  0  0  0  0  0  0  0  0  0
  189.5080  177.4450  135.3410 O   0  0  0  0  0  1  0  0  0  0  0  0
  191.4080  174.2870  137.1940 C   0  0  0  0  0  2  0  0  0  0  0  0
  190.3060  172.8780  135.6080 O   0  0  0  0  0  1  0  0  0  0  0  0
  190.2410  176.3850  135.8520 C   0  0  0  0  0  0  0  0  0  0  0  0
  190.2190  175.2090  135.2260 C   0  0  0  0  0  3  0  0  0  0  0  0
  191.0340  174.0590  135.7300 C   0  0  1  0  0  3  0  0  0  0  0  0
  184.9940  179.2610  140.7570 C   0  0  0  0  0  2  0  0  0  0  0  0
  184.5690  178.9760  139.3150 C   0  0  0  0  0  2  0  0  0  0  0  0
  181.2440  177.1050  139.5680 O   0  0  0  0  0  0  0  0  0  0  0  0
  183.5350  177.2660  136.7910 C   0  0  2  0  0  3  0  0  0  0  0  0
  183.7800  177.7450  139.1070 N   0  0  0  0  0  0  0  0  0  0  0  0
  185.5810  177.1370  137.8360 F   0  0  0  0  0  0  0  0  0  0  0  0
  182.0880  177.6280  137.0830 C   0  0  0  0  0  2  0  0  0  0  0  0
  183.5690  176.0660  135.8600 C   0  0  0  0  0  1  0  0  0  0  0  0
  182.1160  178.0440  138.7760 S   0  0  0  0  0  0  0  0  0  0  0  0
  184.2540  176.9440  138.0360 N   0  0  0  0  0  0  0  0  0  0  0  0
  181.7210  179.4690  139.0310 O   0  0  0  0  0  0  0  0  0  0  0  0
  1 14  1  0  0  0  0
  2  3  2  0  0  0  0
  3  1  1  0  0  0  0
  4  7  1  0  0  0  0
  5  4  1  0  0  0  0
  6  1  1  6  0  0  0
  6  5  1  0  0  0  0
  6  8  1  0  0  0  0
  7  9  1  0  0  0  0
  8  7  1  0  0  0  0
 10  9  1  0  0  0  0
 10 11  1  0  0  0  0
 11 13  1  6  0  0  0
 12 11  1  0  0  0  0
 14 15  1  0  0  0  0
 16 17  1  0  0  0  0
 16 15  1  0  0  0  0
 17 18  1  0  0  0  0
 18 19  1  0  0  0  0
 19 20  1  0  0  0  0
 21 17  1  0  0  0  0
 22 21  1  0  0  0  0
 23 22  3  0  0  0  0
 24 23  1  0  0  0  0
 25 26  1  0  0  0  0
 25 24  1  1  0  0  0
 27 30  1  0  0  0  0
 28 26  1  0  0  0  0
 30 25  1  0  0  0  0
 31 32  1  0  0  0  0
 31 30  2  0  0  0  0
 32 29  1  1  0  0  0
 32 28  1  0  0  0  0
 33  3  1  0  0  0  0
 34 33  1  0  0  0  0
 36 40  1  6  0  0  0
 36 39  1  0  0  0  0
 36 42  1  0  0  0  0
 37 34  1  0  0  0  0
 38 42  1  0  0  0  0
 39 41  1  0  0  0  0
 41 43  2  0  0  0  0
 41 37  1  0  0  0  0
 41 35  2  0  0  0  0
 42 37  1  0  0  0  0
M  END
>  <MODEL>
5

>  <REMARK>
 VINA RESULT:      -6.3      2.373      6.750
  Name = 
  17 active torsions:
  status: ('A' for Active; 'I' for Inactive)
    1  A    between atoms: C_1  and  C_10
    2  A    between atoms: C_2  and  C_24
    3  A    between atoms: C_2  and  C_32
    4  A    between atoms: C_3  and  N_40
    5  A    between atoms: C_5  and  C_26
    6  A    between atoms: C_5  and  N_30
    7  A    between atoms: C_6  and  C_36
    8  A    between atoms: C_6  and  N_38
    9  A    between atoms: C_7  and  N_8
   10  A    between atoms: C_7  and  C_26
   11  A    between atoms: N_8  and  C_27
   12  A    between atoms: C_10  and  N_30
   13  A    between atoms: C_14  and  C_36
   14  A    between atoms: C_15  and  N_40
   15  A    between atoms: C_19  and  C_22
   16  A    between atoms: N_21  and  C_24
   17  A    between atoms: C_22  and  N_30
                            x       y       z     vdW  Elec       q    Type
                         _______ _______ _______ _____ _____    ______ ____

>  <TORSDO>
F 17

$$$$
=
 OpenBabel10222421343D

 43 45  0  0  1  0  0  0  0  0999 V2000
  183.9160  178.6840  140.5830 N   0  0  0  0  0  0  0  0  0  0  0  0
  185.8470  179.6660  141.4260 O   0  0  0  0  0  0  0  0  0  0  0  0
  184.9040  178.8600  141.6100 C   0  0  0  0  0  0  0  0  0  0  0  0
  180.7550  177.0020  139.8850 C   0  0  0  0  0  2  0  0  0  0  0  0
  182.2680  177.0020  139.8830 C   0  0  0  0  0  2  0  0  0  0  0  0
  182.6170  178.0700  140.8850 C   0  0  2  0  0  3  0  0  0  0  0  0
  180.3000  178.3500  140.2320 N   0  0  0  0  0  0  0  0  0  0  0  0
  181.4500  179.0400  140.8190 C   0  0  0  0  0  2  0  0  0  0  0  0
  179.9840  179.0370  138.9860 C   0  0  0  0  0  2  0  0  0  0  0  0
  180.1220  180.5370  139.1460 C   0  0  0  0  0  2  0  0  0  0  0  0
  180.7410  181.1490  137.9010 C   0  0  1  0  0  3  0  0  0  0  0  0
  181.9370  181.8900  138.2560 N   0  0  0  0  0  1  0  0  0  0  0  0
  181.0980  180.0470  136.9310 C   0  0  0  0  0  1  0  0  0  0  0  0
  184.1910  179.2500  139.2550 C   0  0  0  0  0  2  0  0  0  0  0  0
  185.1740  178.3690  138.4950 C   0  0  0  0  0  2  0  0  0  0  0  0
  184.4560  177.6620  137.3770 C   0  0  0  0  0  2  0  0  0  0  0  0
  185.0750  176.3670  137.1270 N   0  0  0  0  0  0  0  0  0  0  0  0
  184.0430  175.3650  136.8310 C   0  0  0  0  0  2  0  0  0  0  0  0
  184.0210  174.2010  137.8260 C   0  0  0  0  0  2  0  0  0  0  0  0
  185.0040  173.1360  137.3880 C   0  0  0  0  0  1  0  0  0  0  0  0
  185.9700  176.5060  135.9790 C   0  0  0  0  0  2  0  0  0  0  0  0
  187.3400  176.1740  136.3720 C   0  0  0  0  0  0  0  0  0  0  0  0
  188.4730  175.9150  136.6950 C   0  0  0  0  0  0  0  0  0  0  0  0
  189.7860  175.6170  137.0750 N   0  0  0  0  0  2  0  0  0  0  0  0
  190.7920  176.6710  137.1740 C   0  0  1  0  0  3  0  0  0  0  0  0
  190.2570  177.8200  137.8180 O   0  0  0  0  0  0  0  0  0  0  0  0
  192.8890  175.2940  137.1230 O   0  0  0  0  0  1  0  0  0  0  0  0
  190.1350  177.5560  139.2010 C   0  0  0  0  0  2  0  0  0  0  0  0
  191.4180  177.0640  141.1570 O   0  0  0  0  0  1  0  0  0  0  0  0
  192.0620  176.1620  137.8200 C   0  0  0  0  0  0  0  0  0  0  0  0
  192.3750  176.5060  139.0690 C   0  0  0  0  0  3  0  0  0  0  0  0
  191.5250  177.4750  139.8300 C   0  0  1  0  0  3  0  0  0  0  0  0
  184.9150  178.0420  142.8670 C   0  0  0  0  0  2  0  0  0  0  0  0
  186.0490  178.3850  143.8360 C   0  0  0  0  0  2  0  0  0  0  0  0
  188.7940  175.8030  143.1860 O   0  0  0  0  0  0  0  0  0  0  0  0
  188.3050  177.8940  146.0800 C   0  0  2  0  0  3  0  0  0  0  0  0
  186.8640  177.2450  144.3040 N   0  0  0  0  0  0  0  0  0  0  0  0
  186.0200  177.8370  146.3440 F   0  0  0  0  0  0  0  0  0  0  0  0
  189.3710  177.6630  145.0210 C   0  0  0  0  0  2  0  0  0  0  0  0
  188.7990  177.3500  147.4090 C   0  0  0  0  0  1  0  0  0  0  0  0
  188.4440  177.2020  143.6170 S   0  0  0  0  0  0  0  0  0  0  0  0
  187.0470  177.2210  145.7100 N   0  0  0  0  0  0  0  0  0  0  0  0
  188.6050  178.1610  142.4740 O   0  0  0  0  0  0  0  0  0  0  0  0
  1  3  1  0  0  0  0
  2  3  2  0  0  0  0
  3 33  1  0  0  0  0
  4  7  1  0  0  0  0
  5  4  1  0  0  0  0
  5  6  1  0  0  0  0
  6  1  1  6  0  0  0
  7  8  1  0  0  0  0
  8  6  1  0  0  0  0
  9 10  1  0  0  0  0
  9  7  1  0  0  0  0
 11 13  1  6  0  0  0
 11 12  1  0  0  0  0
 11 10  1  0  0  0  0
 14  1  1  0  0  0  0
 15 14  1  0  0  0  0
 16 15  1  0  0  0  0
 17 16  1  0  0  0  0
 18 17  1  0  0  0  0
 18 19  1  0  0  0  0
 20 19  1  0  0  0  0
 21 22  1  0  0  0  0
 21 17  1  0  0  0  0
 22 23  3  0  0  0  0
 23 24  1  0  0  0  0
 25 24  1  1  0  0  0
 25 26  1  0  0  0  0
 25 30  1  0  0  0  0
 26 28  1  0  0  0  0
 27 30  1  0  0  0  0
 28 32  1  0  0  0  0
 30 31  2  0  0  0  0
 31 32  1  0  0  0  0
 32 29  1  1  0  0  0
 33 34  1  0  0  0  0
 34 37  1  0  0  0  0
 35 41  2  0  0  0  0
 36 40  1  1  0  0  0
 37 42  1  0  0  0  0
 39 36  1  0  0  0  0
 41 37  1  0  0  0  0
 41 39  1  0  0  0  0
 42 36  1  0  0  0  0
 42 38  1  0  0  0  0
 43 41  2  0  0  0  0
M  END
>  <MODEL>
6

>  <REMARK>
 VINA RESULT:      -6.3      3.027      9.222
  Name = 
  17 active torsions:
  status: ('A' for Active; 'I' for Inactive)
    1  A    between atoms: C_1  and  C_10
    2  A    between atoms: C_2  and  C_24
    3  A    between atoms: C_2  and  C_32
    4  A    between atoms: C_3  and  N_40
    5  A    between atoms: C_5  and  C_26
    6  A    between atoms: C_5  and  N_30
    7  A    between atoms: C_6  and  C_36
    8  A    between atoms: C_6  and  N_38
    9  A    between atoms: C_7  and  N_8
   10  A    between atoms: C_7  and  C_26
   11  A    between atoms: N_8  and  C_27
   12  A    between atoms: C_10  and  N_30
   13  A    between atoms: C_14  and  C_36
   14  A    between atoms: C_15  and  N_40
   15  A    between atoms: C_19  and  C_22
   16  A    between atoms: N_21  and  C_24
   17  A    between atoms: C_22  and  N_30
                            x       y       z     vdW  Elec       q    Type
                         _______ _______ _______ _____ _____    ______ ____

>  <TORSDO>
F 17

$$$$
=
 OpenBabel10222421343D

 43 45  0  0  1  0  0  0  0  0999 V2000
  186.7030  178.3330  141.9920 N   0  0  0  0  0  0  0  0  0  0  0  0
  185.6560  179.0100  140.0310 O   0  0  0  0  0  0  0  0  0  0  0  0
  185.5300  178.5990  141.2090 C   0  0  0  0  0  0  0  0  0  0  0  0
  186.7930  177.5890  145.5630 C   0  0  0  0  0  2  0  0  0  0  0  0
  186.1600  178.3030  144.3880 C   0  0  0  0  0  2  0  0  0  0  0  0
  186.6300  177.5040  143.2030 C   0  0  2  0  0  3  0  0  0  0  0  0
  188.0340  176.9650  145.1020 N   0  0  0  0  0  0  0  0  0  0  0  0
  187.9690  176.9360  143.6400 C   0  0  0  0  0  2  0  0  0  0  0  0
  189.1290  177.8570  145.4600 C   0  0  0  0  0  2  0  0  0  0  0  0
  190.3580  177.0700  145.8670 C   0  0  0  0  0  2  0  0  0  0  0  0
  191.4840  177.2910  144.8710 C   0  0  1  0  0  3  0  0  0  0  0  0
  191.5420  176.1830  143.9370 N   0  0  0  0  0  1  0  0  0  0  0  0
  191.2340  178.5760  144.1180 C   0  0  0  0  0  1  0  0  0  0  0  0
  187.9980  178.8050  141.4810 C   0  0  0  0  0  2  0  0  0  0  0  0
  188.6080  177.7700  140.5460 C   0  0  0  0  0  2  0  0  0  0  0  0
  188.9620  178.4210  139.2360 C   0  0  0  0  0  2  0  0  0  0  0  0
  188.6440  177.5250  138.1310 N   0  0  0  0  0  0  0  0  0  0  0  0
  187.3610  177.9080  137.5270 C   0  0  0  0  0  2  0  0  0  0  0  0
  186.4940  176.7100  137.1300 C   0  0  0  0  0  2  0  0  0  0  0  0
  185.3000  177.1880  136.3300 C   0  0  0  0  0  1  0  0  0  0  0  0
  189.7090  177.6350  137.1370 C   0  0  0  0  0  2  0  0  0  0  0  0
  190.8010  176.7190  137.4710 C   0  0  0  0  0  0  0  0  0  0  0  0
  191.7090  175.9720  137.7390 C   0  0  0  0  0  0  0  0  0  0  0  0
  192.7640  175.1100  138.0550 N   0  0  0  0  0  2  0  0  0  0  0  0
  193.9600  175.0570  137.2180 C   0  0  1  0  0  3  0  0  0  0  0  0
  195.1350  175.1350  138.0130 O   0  0  0  0  0  0  0  0  0  0  0  0
  193.0590  173.8200  135.2290 O   0  0  0  0  0  1  0  0  0  0  0  0
  195.3240  173.9020  138.6750 C   0  0  0  0  0  2  0  0  0  0  0  0
  195.7520  171.5830  138.2810 O   0  0  0  0  0  1  0  0  0  0  0  0
  193.9380  173.8530  136.3010 C   0  0  0  0  0  0  0  0  0  0  0  0
  194.7260  172.8040  136.5370 C   0  0  0  0  0  3  0  0  0  0  0  0
  195.7150  172.8300  137.6600 C   0  0  1  0  0  3  0  0  0  0  0  0
  184.1430  178.4990  141.7740 C   0  0  0  0  0  2  0  0  0  0  0  0
  183.0340  178.9130  140.8040 C   0  0  0  0  0  2  0  0  0  0  0  0
  181.0110  175.7730  139.9910 O   0  0  0  0  0  0  0  0  0  0  0  0
  181.2740  178.8340  138.1100 C   0  0  2  0  0  3  0  0  0  0  0  0
  182.6120  177.8850  139.8310 N   0  0  0  0  0  0  0  0  0  0  0  0
  183.5080  179.3460  138.3180 F   0  0  0  0  0  0  0  0  0  0  0  0
  180.1880  178.0170  138.7900 C   0  0  0  0  0  2  0  0  0  0  0  0
  181.1040  178.7300  136.6040 C   0  0  0  0  0  1  0  0  0  0  0  0
  181.0280  177.2720  140.1250 S   0  0  0  0  0  0  0  0  0  0  0  0
  182.6110  178.3440  138.4890 N   0  0  0  0  0  0  0  0  0  0  0  0
  180.4840  177.6870  141.4600 O   0  0  0  0  0  0  0  0  0  0  0  0
  2  3  2  0  0  0  0
  3 33  1  0  0  0  0
  3  1  1  0  0  0  0
  5  4  1  0  0  0  0
  6  1  1  6  0  0  0
  6  8  1  0  0  0  0
  6  5  1  0  0  0  0
  7  9  1  0  0  0  0
  7  4  1  0  0  0  0
  8  7  1  0  0  0  0
  9 10  1  0  0  0  0
 11 13  1  6  0  0  0
 11 10  1  0  0  0  0
 12 11  1  0  0  0  0
 14  1  1  0  0  0  0
 15 14  1  0  0  0  0
 16 15  1  0  0  0  0
 17 16  1  0  0  0  0
 18 17  1  0  0  0  0
 19 18  1  0  0  0  0
 20 19  1  0  0  0  0
 21 22  1  0  0  0  0
 21 17  1  0  0  0  0
 22 23  3  0  0  0  0
 23 24  1  0  0  0  0
 25 26  1  0  0  0  0
 25 24  1  1  0  0  0
 26 28  1  0  0  0  0
 27 30  1  0  0  0  0
 30 31  2  0  0  0  0
 30 25  1  0  0  0  0
 31 32  1  0  0  0  0
 32 29  1  1  0  0  0
 32 28  1  0  0  0  0
 34 33  1  0  0  0  0
 35 41  2  0  0  0  0
 36 40  1  6  0  0  0
 36 42  1  0  0  0  0
 36 39  1  0  0  0  0
 37 41  1  0  0  0  0
 37 34  1  0  0  0  0
 38 42  1  0  0  0  0
 39 41  1  0  0  0  0
 41 43  2  0  0  0  0
 42 37  1  0  0  0  0
M  END
>  <MODEL>
7

>  <REMARK>
 VINA RESULT:      -6.2      3.459      8.480
  Name = 
  17 active torsions:
  status: ('A' for Active; 'I' for Inactive)
    1  A    between atoms: C_1  and  C_10
    2  A    between atoms: C_2  and  C_24
    3  A    between atoms: C_2  and  C_32
    4  A    between atoms: C_3  and  N_40
    5  A    between atoms: C_5  and  C_26
    6  A    between atoms: C_5  and  N_30
    7  A    between atoms: C_6  and  C_36
    8  A    between atoms: C_6  and  N_38
    9  A    between atoms: C_7  and  N_8
   10  A    between atoms: C_7  and  C_26
   11  A    between atoms: N_8  and  C_27
   12  A    between atoms: C_10  and  N_30
   13  A    between atoms: C_14  and  C_36
   14  A    between atoms: C_15  and  N_40
   15  A    between atoms: C_19  and  C_22
   16  A    between atoms: N_21  and  C_24
   17  A    between atoms: C_22  and  N_30
                            x       y       z     vdW  Elec       q    Type
                         _______ _______ _______ _____ _____    ______ ____

>  <TORSDO>
F 17

$$$$
=
 OpenBabel10222421343D

 43 45  0  0  1  0  0  0  0  0999 V2000
  188.3500  178.1430  140.9770 N   0  0  0  0  0  0  0  0  0  0  0  0
  187.5490  178.7870  138.8930 O   0  0  0  0  0  0  0  0  0  0  0  0
  188.2800  178.0080  139.5490 C   0  0  0  0  0  0  0  0  0  0  0  0
  189.9250  176.1570  143.6020 C   0  0  0  0  0  2  0  0  0  0  0  0
  189.0290  176.2480  142.3850 C   0  0  0  0  0  2  0  0  0  0  0  0
  189.4520  177.5390  141.7380 C   0  0  2  0  0  3  0  0  0  0  0  0
  190.2610  177.5190  144.0220 N   0  0  0  0  0  0  0  0  0  0  0  0
  189.9410  178.3950  142.8940 C   0  0  0  0  0  2  0  0  0  0  0  0
  189.3560  177.8760  145.1070 C   0  0  0  0  0  2  0  0  0  0  0  0
  189.8880  177.3860  146.4390 C   0  0  0  0  0  2  0  0  0  0  0  0
  188.7600  177.2670  147.4490 C   0  0  1  0  0  3  0  0  0  0  0  0
  188.9980  178.1630  148.5640 N   0  0  0  0  0  1  0  0  0  0  0  0
  187.4540  177.6260  146.7800 C   0  0  0  0  0  1  0  0  0  0  0  0
  187.3620  179.0060  141.6390 C   0  0  0  0  0  2  0  0  0  0  0  0
  186.2220  178.1700  142.2060 C   0  0  0  0  0  2  0  0  0  0  0  0
  185.0690  179.0690  142.5660 C   0  0  0  0  0  2  0  0  0  0  0  0
  183.8120  178.3420  142.4390 N   0  0  0  0  0  0  0  0  0  0  0  0
  182.9260  178.6700  143.5630 C   0  0  0  0  0  2  0  0  0  0  0  0
  181.5500  179.1780  143.1260 C   0  0  0  0  0  2  0  0  0  0  0  0
  180.4680  178.4190  143.8650 C   0  0  0  0  0  1  0  0  0  0  0  0
  183.1820  178.7410  141.1820 C   0  0  0  0  0  2  0  0  0  0  0  0
  182.9200  177.5600  140.3580 C   0  0  0  0  0  0  0  0  0  0  0  0
  182.7050  176.5950  139.6680 C   0  0  0  0  0  0  0  0  0  0  0  0
  182.4620  175.4750  138.8650 N   0  0  0  0  0  2  0  0  0  0  0  0
  182.9330  175.4310  137.4840 C   0  0  1  0  0  3  0  0  0  0  0  0
  184.3140  175.1010  137.4320 O   0  0  0  0  0  0  0  0  0  0  0  0
  180.7840  174.9150  136.2960 O   0  0  0  0  0  1  0  0  0  0  0  0
  184.4690  173.7270  137.7190 C   0  0  0  0  0  2  0  0  0  0  0  0
  183.9240  171.5470  136.9040 O   0  0  0  0  0  1  0  0  0  0  0  0
  182.0700  174.5220  136.6350 C   0  0  0  0  0  0  0  0  0  0  0  0
  182.5170  173.3290  136.2470 C   0  0  0  0  0  3  0  0  0  0  0  0
  183.9150  172.8970  136.5620 C   0  0  1  0  0  3  0  0  0  0  0  0
  188.9750  176.9040  138.8080 C   0  0  0  0  0  2  0  0  0  0  0  0
  189.8150  177.3720  137.6180 C   0  0  0  0  0  2  0  0  0  0  0  0
  191.8220  174.5020  136.0840 O   0  0  0  0  0  0  0  0  0  0  0  0
  188.2580  174.7720  136.5330 C   0  0  2  0  0  3  0  0  0  0  0  0
  190.0050  176.3850  136.5350 N   0  0  0  0  0  0  0  0  0  0  0  0
  187.8620  176.9750  135.9990 F   0  0  0  0  0  0  0  0  0  0  0  0
  189.3860  173.8560  136.9790 C   0  0  0  0  0  2  0  0  0  0  0  0
  187.3830  174.0330  135.5340 C   0  0  0  0  0  1  0  0  0  0  0  0
  190.7590  174.9270  137.0610 S   0  0  0  0  0  0  0  0  0  0  0  0
  188.7940  175.9940  135.9090 N   0  0  0  0  0  0  0  0  0  0  0  0
  191.3300  175.0360  138.4440 O   0  0  0  0  0  0  0  0  0  0  0  0
  1 14  1  0  0  0  0
  2  3  2  0  0  0  0
  3  1  1  0  0  0  0
  4  7  1  0  0  0  0
  5  4  1  0  0  0  0
  6  1  1  1  0  0  0
  6  5  1  0  0  0  0
  6  8  1  0  0  0  0
  7  9  1  0  0  0  0
  8  7  1  0  0  0  0
  9 10  1  0  0  0  0
 10 11  1  0  0  0  0
 11 13  1  6  0  0  0
 11 12  1  0  0  0  0
 14 15  1  0  0  0  0
 15 16  1  0  0  0  0
 17 16  1  0  0  0  0
 17 18  1  0  0  0  0
 19 18  1  0  0  0  0
 19 20  1  0  0  0  0
 21 17  1  0  0  0  0
 22 21  1  0  0  0  0
 23 22  3  0  0  0  0
 24 23  1  0  0  0  0
 25 24  1  1  0  0  0
 26 25  1  0  0  0  0
 26 28  1  0  0  0  0
 27 30  1  0  0  0  0
 30 25  1  0  0  0  0
 31 32  1  0  0  0  0
 31 30  2  0  0  0  0
 32 29  1  1  0  0  0
 32 28  1  0  0  0  0
 33  3  1  0  0  0  0
 34 33  1  0  0  0  0
 35 41  2  0  0  0  0
 36 40  1  6  0  0  0
 36 39  1  0  0  0  0
 37 41  1  0  0  0  0
 37 34  1  0  0  0  0
 39 41  1  0  0  0  0
 41 43  2  0  0  0  0
 42 38  1  0  0  0  0
 42 36  1  0  0  0  0
 42 37  1  0  0  0  0
M  END
>  <MODEL>
8

>  <REMARK>
 VINA RESULT:      -6.2      2.223      3.196
  Name = 
  17 active torsions:
  status: ('A' for Active; 'I' for Inactive)
    1  A    between atoms: C_1  and  C_10
    2  A    between atoms: C_2  and  C_24
    3  A    between atoms: C_2  and  C_32
    4  A    between atoms: C_3  and  N_40
    5  A    between atoms: C_5  and  C_26
    6  A    between atoms: C_5  and  N_30
    7  A    between atoms: C_6  and  C_36
    8  A    between atoms: C_6  and  N_38
    9  A    between atoms: C_7  and  N_8
   10  A    between atoms: C_7  and  C_26
   11  A    between atoms: N_8  and  C_27
   12  A    between atoms: C_10  and  N_30
   13  A    between atoms: C_14  and  C_36
   14  A    between atoms: C_15  and  N_40
   15  A    between atoms: C_19  and  C_22
   16  A    between atoms: N_21  and  C_24
   17  A    between atoms: C_22  and  N_30
                            x       y       z     vdW  Elec       q    Type
                         _______ _______ _______ _____ _____    ______ ____

>  <TORSDO>
F 17

$$$$
=
 OpenBabel10222421343D

 43 45  0  0  1  0  0  0  0  0999 V2000
  189.9760  177.6080  138.2030 N   0  0  0  0  0  0  0  0  0  0  0  0
  191.5520  176.8170  139.7170 O   0  0  0  0  0  0  0  0  0  0  0  0
  191.1840  176.9010  138.5210 C   0  0  0  0  0  0  0  0  0  0  0  0
  187.2430  177.7100  135.7870 C   0  0  0  0  0  2  0  0  0  0  0  0
  188.2170  178.4280  136.6960 C   0  0  0  0  0  2  0  0  0  0  0  0
  189.3070  177.4130  136.9100 C   0  0  2  0  0  3  0  0  0  0  0  0
  187.3470  176.2740  136.0520 N   0  0  0  0  0  0  0  0  0  0  0  0
  188.6020  176.0740  136.7800 C   0  0  0  0  0  2  0  0  0  0  0  0
  186.2670  175.9200  136.9640 C   0  0  0  0  0  2  0  0  0  0  0  0
  185.4930  174.7240  136.4480 C   0  0  0  0  0  2  0  0  0  0  0  0
  185.6490  173.5440  137.3910 C   0  0  1  0  0  3  0  0  0  0  0  0
  184.4670  172.7040  137.3310 N   0  0  0  0  0  1  0  0  0  0  0  0
  186.8620  172.7410  136.9850 C   0  0  0  0  0  1  0  0  0  0  0  0
  189.3600  178.4310  139.2520 C   0  0  0  0  0  2  0  0  0  0  0  0
  188.4240  177.5880  140.1080 C   0  0  0  0  0  2  0  0  0  0  0  0
  188.2140  178.2610  141.4380 C   0  0  0  0  0  2  0  0  0  0  0  0
  188.2000  177.2660  142.5030 N   0  0  0  0  0  0  0  0  0  0  0  0
  189.5540  177.0880  143.0430 C   0  0  0  0  0  2  0  0  0  0  0  0
  190.2330  178.4030  143.4330 C   0  0  0  0  0  2  0  0  0  0  0  0
  191.3190  178.1340  144.4520 C   0  0  0  0  0  1  0  0  0  0  0  0
  187.3080  177.7450  143.5580 C   0  0  0  0  0  2  0  0  0  0  0  0
  185.9820  178.0200  143.0030 C   0  0  0  0  0  0  0  0  0  0  0  0
  184.8950  178.2510  142.5340 C   0  0  0  0  0  0  0  0  0  0  0  0
  183.6350  178.5140  141.9870 N   0  0  0  0  0  2  0  0  0  0  0  0
  183.3240  178.1300  140.6120 C   0  0  1  0  0  3  0  0  0  0  0  0
  181.9330  177.8820  140.4620 O   0  0  0  0  0  0  0  0  0  0  0  0
  185.2270  179.2280  139.4000 O   0  0  0  0  0  1  0  0  0  0  0  0
  181.2430  179.1140  140.4650 C   0  0  0  0  0  2  0  0  0  0  0  0
  181.0040  181.1570  139.2460 O   0  0  0  0  0  1  0  0  0  0  0  0
  183.8610  179.1410  139.6220 C   0  0  0  0  0  0  0  0  0  0  0  0
  183.0380  179.9780  138.9920 C   0  0  0  0  0  3  0  0  0  0  0  0
  181.5560  179.8790  139.1800 C   0  0  1  0  0  3  0  0  0  0  0  0
  192.0890  176.3350  137.4670 C   0  0  0  0  0  2  0  0  0  0  0  0
  192.7580  175.0130  137.8500 C   0  0  0  0  0  2  0  0  0  0  0  0
  196.5050  175.1580  137.1060 O   0  0  0  0  0  0  0  0  0  0  0  0
  194.3420  172.2800  137.2280 C   0  0  2  0  0  3  0  0  0  0  0  0
  193.9090  174.6080  137.0170 N   0  0  0  0  0  0  0  0  0  0  0  0
  192.4300  173.0610  136.2130 F   0  0  0  0  0  0  0  0  0  0  0  0
  195.5860  172.7870  137.9370 C   0  0  0  0  0  2  0  0  0  0  0  0
  194.7180  171.1010  136.3460 C   0  0  0  0  0  1  0  0  0  0  0  0
  195.3910  174.5200  137.8910 S   0  0  0  0  0  0  0  0  0  0  0  0
  193.7430  173.3420  136.4000 N   0  0  0  0  0  0  0  0  0  0  0  0
  195.2950  175.1310  139.2580 O   0  0  0  0  0  0  0  0  0  0  0  0
  1  3  1  0  0  0  0
  1 14  1  0  0  0  0
  3  2  2  0  0  0  0
  4  7  1  0  0  0  0
  4  5  1  0  0  0  0
  5  6  1  0  0  0  0
  6  1  1  1  0  0  0
  7  8  1  0  0  0  0
  7  9  1  0  0  0  0
  8  6  1  0  0  0  0
 10  9  1  0  0  0  0
 10 11  1  0  0  0  0
 11 13  1  6  0  0  0
 12 11  1  0  0  0  0
 14 15  1  0  0  0  0
 15 16  1  0  0  0  0
 16 17  1  0  0  0  0
 17 18  1  0  0  0  0
 17 21  1  0  0  0  0
 18 19  1  0  0  0  0
 19 20  1  0  0  0  0
 22 21  1  0  0  0  0
 23 22  3  0  0  0  0
 24 23  1  0  0  0  0
 25 24  1  1  0  0  0
 26 28  1  0  0  0  0
 26 25  1  0  0  0  0
 27 30  1  0  0  0  0
 30 25  1  0  0  0  0
 31 32  1  0  0  0  0
 31 30  2  0  0  0  0
 32 29  1  1  0  0  0
 32 28  1  0  0  0  0
 33 34  1  0  0  0  0
 33  3  1  0  0  0  0
 35 41  2  0  0  0  0
 36 40  1  6  0  0  0
 36 39  1  0  0  0  0
 37 34  1  0  0  0  0
 37 41  1  0  0  0  0
 38 42  1  0  0  0  0
 41 39  1  0  0  0  0
 41 43  2  0  0  0  0
 42 37  1  0  0  0  0
 42 36  1  0  0  0  0
M  END
>  <MODEL>
9

>  <REMARK>
 VINA RESULT:      -6.1      3.486      6.252
  Name = 
  17 active torsions:
  status: ('A' for Active; 'I' for Inactive)
    1  A    between atoms: C_1  and  C_10
    2  A    between atoms: C_2  and  C_24
    3  A    between atoms: C_2  and  C_32
    4  A    between atoms: C_3  and  N_40
    5  A    between atoms: C_5  and  C_26
    6  A    between atoms: C_5  and  N_30
    7  A    between atoms: C_6  and  C_36
    8  A    between atoms: C_6  and  N_38
    9  A    between atoms: C_7  and  N_8
   10  A    between atoms: C_7  and  C_26
   11  A    between atoms: N_8  and  C_27
   12  A    between atoms: C_10  and  N_30
   13  A    between atoms: C_14  and  C_36
   14  A    between atoms: C_15  and  N_40
   15  A    between atoms: C_19  and  C_22
   16  A    between atoms: N_21  and  C_24
   17  A    between atoms: C_22  and  N_30
                            x       y       z     vdW  Elec       q    Type
                         _______ _______ _______ _____ _____    ______ ____

>  <TORSDO>
F 17

$$$$
