=
 OpenBabel10232408323D

 53 58  0  0  1  0  0  0  0  0999 V2000
  184.3400  175.3650  136.9160 C   0  0  2  0  0  3  0  0  0  0  0  0
  180.9980  175.2360  138.7760 C   0  0  0  0  0  2  0  0  0  0  0  0
  179.9850  173.7420  136.1030 C   0  0  0  0  0  1  0  0  0  0  0  0
  183.0850  174.7780  137.5130 C   0  0  0  0  0  0  0  0  0  0  0  0
  182.3710  173.9240  136.7570 C   0  0  0  0  0  3  0  0  0  0  0  0
  180.5710  173.8630  138.4890 N   0  0  0  0  0  2  0  0  0  0  0  0
  181.1260  171.8780  137.2390 C   0  0  0  0  0  1  0  0  0  0  0  0
  181.0130  173.3920  137.1650 C   0  0  0  0  0  0  0  0  0  0  0  0
  182.5190  175.2860  138.8190 C   0  0  0  0  0  2  0  0  0  0  0  0
  184.2340  176.7990  136.4500 C   0  0  0  0  0  0  0  0  0  0  0  0
  184.4380  177.0840  135.2380 O   0  0  0  0  0  0  0  0  0  0  0  0
  184.8160  178.1350  139.7420 C   0  0  0  0  0  3  0  0  0  0  0  0
  183.7380  178.5350  140.4090 C   0  0  0  0  0  0  0  0  0  0  0  0
  182.7630  178.3450  137.5160 N   0  0  0  0  0  0  0  0  0  0  0  0
  182.2280  179.2410  138.5070 C   0  0  0  0  0  3  0  0  0  0  0  0
  186.3480  178.0710  137.9330 O   0  0  0  0  0  1  0  0  0  0  0  0
  182.6410  179.3130  139.7840 C   0  0  0  0  0  3  0  0  0  0  0  0
  185.0530  178.4570  138.3080 C   0  0  1  0  0  3  0  0  0  0  0  0
  183.9750  177.8850  137.4230 C   0  0  0  0  0  0  0  0  0  0  0  0
  183.6890  178.2260  141.7680 O   0  0  0  0  0  0  0  0  0  0  0  0
  182.9820  179.0280  142.7090 C   0  0  0  0  0  2  0  0  0  0  0  0
  183.9710  179.5860  143.7100 C   0  0  0  0  0  2  0  0  0  0  0  0
  184.0070  178.6930  144.9410 C   0  0  0  0  0  2  0  0  0  0  0  0
  186.1080  177.8170  144.2150 N   0  0  0  0  0  0  0  0  0  0  0  0
  187.2190  177.9440  146.7180 C   0  0  0  0  0  0  0  0  0  0  0  0
  187.9720  177.4660  145.6420 C   0  0  0  0  0  3  0  0  0  0  0  0
  185.3770  178.2720  145.2290 N   0  0  0  0  0  0  0  0  0  0  0  0
  185.9010  178.3600  146.4910 C   0  0  0  0  0  0  0  0  0  0  0  0
  187.3960  177.4010  144.3770 C   0  0  0  0  0  0  0  0  0  0  0  0
  185.2160  178.8170  147.4430 O   0  0  0  0  0  0  0  0  0  0  0  0
  189.7050  177.0740  143.5490 C   0  0  0  0  0  1  0  0  0  0  0  0
  188.2280  176.9640  143.2040 C   0  0  0  0  0  3  0  0  0  0  0  0
  187.9260  177.7960  141.9700 C   0  0  0  0  0  1  0  0  0  0  0  0
  187.7830  178.0120  148.0360 N   0  0  0  0  0  2  0  0  0  0  0  0
  189.2080  178.1740  148.2860 C   0  0  0  0  0  1  0  0  0  0  0  0
  184.9320  174.4340  135.8540 C   0  0  0  0  0  2  0  0  0  0  0  0
  187.3260  174.9510  135.3540 C   0  0  0  0  0  3  0  0  0  0  0  0
  186.8560  173.1300  136.8820 C   0  0  0  0  0  3  0  0  0  0  0  0
  188.2240  172.8870  137.0250 C   0  0  0  0  0  3  0  0  0  0  0  0
  186.3990  174.1810  136.0670 C   0  0  0  0  0  0  0  0  0  0  0  0
  188.7050  174.6880  135.4720 C   0  0  0  0  0  3  0  0  0  0  0  0
  189.1510  173.6660  136.3240 C   0  0  0  0  0  0  0  0  0  0  0  0
  190.6130  173.3930  136.4710 C   0  0  0  0  0  2  0  0  0  0  0  0
  191.1630  175.1070  138.1620 N   0  0  1  0  0  0  0  0  0  0  0  0
  192.9870  176.6390  138.0170 C   0  0  0  0  0  3  0  0  0  0  0  0
  191.5220  176.5310  138.2700 C   0  0  2  0  0  3  0  0  0  0  0  0
  191.3660  174.6810  136.7560 C   0  0  1  0  0  3  0  0  0  0  0  0
  192.4060  174.4150  137.7610 C   0  0  1  0  0  3  0  0  0  0  0  0
  193.4770  175.4580  137.7240 C   0  0  0  0  0  3  0  0  0  0  0  0
  190.5620  176.0890  140.4250 F   0  0  0  0  0  0  0  0  0  0  0  0
  190.2800  178.1630  139.5560 F   0  0  0  0  0  0  0  0  0  0  0  0
  192.3130  177.4740  140.3100 F   0  0  0  0  0  0  0  0  0  0  0  0
  191.1470  177.0760  139.6550 C   0  0  0  0  0  0  0  0  0  0  0  0
  1 36  1  6  0  0  0
  1  4  1  0  0  0  0
  2  9  1  0  0  0  0
  3  8  1  0  0  0  0
  4  9  1  0  0  0  0
  5  8  1  0  0  0  0
  5  4  2  0  0  0  0
  6  2  1  0  0  0  0
  8  7  1  0  0  0  0
  8  6  1  0  0  0  0
 10  1  1  0  0  0  0
 10 19  1  0  0  0  0
 11 10  2  0  0  0  0
 12 13  2  0  0  0  0
 13 20  1  0  0  0  0
 14 15  1  0  0  0  0
 15 17  2  0  0  0  0
 17 13  1  0  0  0  0
 18 16  1  6  0  0  0
 18 12  1  0  0  0  0
 19 14  2  0  0  0  0
 19 18  1  0  0  0  0
 20 21  1  0  0  0  0
 21 22  1  0  0  0  0
 22 23  1  0  0  0  0
 23 27  1  0  0  0  0
 24 29  2  0  0  0  0
 24 27  1  0  0  0  0
 25 34  1  0  0  0  0
 26 25  2  0  0  0  0
 27 28  1  0  0  0  0
 28 25  1  0  0  0  0
 28 30  2  0  0  0  0
 29 26  1  0  0  0  0
 32 31  1  0  0  0  0
 32 29  1  0  0  0  0
 33 32  1  0  0  0  0
 34 35  1  0  0  0  0
 36 40  1  0  0  0  0
 37 41  2  0  0  0  0
 37 40  1  0  0  0  0
 38 39  1  0  0  0  0
 40 38  2  0  0  0  0
 41 42  1  0  0  0  0
 42 43  1  0  0  0  0
 42 39  2  0  0  0  0
 43 47  1  0  0  0  0
 44 46  1  0  0  0  0
 45 46  1  0  0  0  0
 46 53  1  0  0  0  0
 47 48  1  0  0  0  0
 47 44  1  0  0  0  0
 48 44  1  0  0  0  0
 49 48  1  0  0  0  0
 49 45  2  0  0  0  0
 51 53  1  0  0  0  0
 53 52  1  0  0  0  0
 53 50  1  0  0  0  0
M  END
>  <MODEL>
1

>  <REMARK>
 VINA RESULT:      -8.0      0.000      0.000
  Name = 
  15 active torsions:
  status: ('A' for Active; 'I' for Inactive)
    1  A    between atoms: C_2  and  C_20
    2  A    between atoms: C_2  and  C_51
    3  A    between atoms: C_8  and  C_28
    4  A    between atoms: C_8  and  O_45
    5  A    between atoms: C_9  and  C_20
    6  A    between atoms: N_11  and  C_13
    7  A    between atoms: C_12  and  O_45
    8  A    between atoms: C_17  and  C_53
    9  A    between atoms: C_20  and  C_53
   10  A    between atoms: C_21  and  C_30
   11  A    between atoms: C_21  and  C_48
   12  A    between atoms: N_26  and  C_34
   13  A    between atoms: C_28  and  C_34
   14  A    between atoms: C_35  and  C_40
   15  A    between atoms: C_37  and  C_38
                            x       y       z     vdW  Elec       q    Type
                         _______ _______ _______ _____ _____    ______ ____

>  <TORSDO>
F 15

$$$$
=
 OpenBabel10232408323D

 53 58  0  0  1  0  0  0  0  0999 V2000
  182.6570  179.3130  139.2950 C   0  0  2  0  0  3  0  0  0  0  0  0
  180.5830  180.7380  136.4120 C   0  0  0  0  0  2  0  0  0  0  0  0
  181.7870  178.2260  134.7870 C   0  0  0  0  0  1  0  0  0  0  0  0
  181.6600  179.3470  138.1630 C   0  0  0  0  0  0  0  0  0  0  0  0
  181.6990  178.3470  137.2630 C   0  0  0  0  0  3  0  0  0  0  0  0
  179.9900  179.5140  135.8630 N   0  0  0  0  0  2  0  0  0  0  0  0
  179.9840  177.1100  136.0390 C   0  0  0  0  0  1  0  0  0  0  0  0
  180.8730  178.3430  135.9940 C   0  0  0  0  0  0  0  0  0  0  0  0
  180.7950  180.5600  137.9100 C   0  0  0  0  0  2  0  0  0  0  0  0
  184.1100  179.4090  138.8910 C   0  0  0  0  0  0  0  0  0  0  0  0
  184.6860  180.5300  138.8700 O   0  0  0  0  0  0  0  0  0  0  0  0
  187.1730  178.0090  137.6160 C   0  0  0  0  0  3  0  0  0  0  0  0
  187.0530  177.2020  136.5680 C   0  0  0  0  0  0  0  0  0  0  0  0
  184.2090  177.3540  137.6820 N   0  0  0  0  0  0  0  0  0  0  0  0
  184.7510  176.2320  136.9630 C   0  0  0  0  0  3  0  0  0  0  0  0
  186.7590  178.7750  139.8220 O   0  0  0  0  0  1  0  0  0  0  0  0
  185.9930  176.1690  136.4550 C   0  0  0  0  0  3  0  0  0  0  0  0
  186.2780  177.9370  138.8050 C   0  0  1  0  0  3  0  0  0  0  0  0
  184.8410  178.2030  138.4370 C   0  0  0  0  0  0  0  0  0  0  0  0
  188.0110  177.3310  135.5620 O   0  0  0  0  0  0  0  0  0  0  0  0
  189.3680  176.9400  135.7440 C   0  0  0  0  0  2  0  0  0  0  0  0
  189.4670  175.4400  135.5720 C   0  0  0  0  0  2  0  0  0  0  0  0
  189.6590  174.7830  136.9300 C   0  0  0  0  0  2  0  0  0  0  0  0
  190.4460  176.1830  138.7000 N   0  0  0  0  0  0  0  0  0  0  0  0
  193.0810  175.8500  138.0200 C   0  0  0  0  0  0  0  0  0  0  0  0
  192.7360  176.6520  139.1120 C   0  0  0  0  0  3  0  0  0  0  0  0
  190.7580  175.4180  137.6560 N   0  0  0  0  0  0  0  0  0  0  0  0
  192.0630  175.2200  137.2940 C   0  0  0  0  0  0  0  0  0  0  0  0
  191.3950  176.8170  139.4440 C   0  0  0  0  0  0  0  0  0  0  0  0
  192.3560  174.4730  136.3240 O   0  0  0  0  0  0  0  0  0  0  0  0
  191.9110  177.2080  141.8320 C   0  0  0  0  0  1  0  0  0  0  0  0
  191.0260  177.6130  140.6640 C   0  0  0  0  0  3  0  0  0  0  0  0
  189.5670  177.4150  141.0340 C   0  0  0  0  0  1  0  0  0  0  0  0
  194.4560  175.6680  137.6480 N   0  0  0  0  0  2  0  0  0  0  0  0
  195.2470  174.5160  138.0540 C   0  0  0  0  0  1  0  0  0  0  0  0
  182.3760  178.1410  140.2410 C   0  0  0  0  0  2  0  0  0  0  0  0
  184.2930  178.0640  141.8430 C   0  0  0  0  0  3  0  0  0  0  0  0
  182.1350  178.7660  142.6920 C   0  0  0  0  0  3  0  0  0  0  0  0
  182.6790  178.9200  143.9700 C   0  0  0  0  0  3  0  0  0  0  0  0
  182.9440  178.3630  141.6150 C   0  0  0  0  0  0  0  0  0  0  0  0
  184.8370  178.1880  143.1360 C   0  0  0  0  0  3  0  0  0  0  0  0
  184.0290  178.6340  144.1940 C   0  0  0  0  0  0  0  0  0  0  0  0
  184.6030  178.7890  145.5650 C   0  0  0  0  0  2  0  0  0  0  0  0
  186.6260  177.9010  146.6700 N   0  0  1  0  0  0  0  0  0  0  0  0
  188.7620  177.6640  145.6320 C   0  0  0  0  0  3  0  0  0  0  0  0
  188.0590  178.1940  146.8340 C   0  0  2  0  0  3  0  0  0  0  0  0
  186.1180  178.6890  145.5200 C   0  0  1  0  0  3  0  0  0  0  0  0
  186.5000  177.2820  145.3340 C   0  0  1  0  0  3  0  0  0  0  0  0
  187.8880  177.1630  144.7900 C   0  0  0  0  0  3  0  0  0  0  0  0
  188.8880  176.2230  147.9260 F   0  0  0  0  0  0  0  0  0  0  0  0
  187.6780  177.6820  149.1690 F   0  0  0  0  0  0  0  0  0  0  0  0
  189.7840  178.1960  148.4790 F   0  0  0  0  0  0  0  0  0  0  0  0
  188.5930  177.5590  148.1260 C   0  0  0  0  0  0  0  0  0  0  0  0
  1 36  1  6  0  0  0
  2  9  1  0  0  0  0
  3  8  1  0  0  0  0
  4  1  1  0  0  0  0
  5  4  2  0  0  0  0
  6  8  1  0  0  0  0
  6  2  1  0  0  0  0
  8  7  1  0  0  0  0
  8  5  1  0  0  0  0
  9  4  1  0  0  0  0
 10  1  1  0  0  0  0
 11 10  2  0  0  0  0
 12 18  1  0  0  0  0
 13 12  2  0  0  0  0
 14 19  2  0  0  0  0
 15 14  1  0  0  0  0
 17 13  1  0  0  0  0
 17 15  2  0  0  0  0
 18 16  1  1  0  0  0
 19 18  1  0  0  0  0
 19 10  1  0  0  0  0
 20 21  1  0  0  0  0
 20 13  1  0  0  0  0
 22 21  1  0  0  0  0
 22 23  1  0  0  0  0
 23 27  1  0  0  0  0
 24 29  2  0  0  0  0
 25 26  2  0  0  0  0
 26 29  1  0  0  0  0
 27 24  1  0  0  0  0
 28 27  1  0  0  0  0
 28 25  1  0  0  0  0
 29 32  1  0  0  0  0
 30 28  2  0  0  0  0
 32 33  1  0  0  0  0
 32 31  1  0  0  0  0
 34 25  1  0  0  0  0
 34 35  1  0  0  0  0
 36 40  1  0  0  0  0
 37 41  1  0  0  0  0
 38 39  2  0  0  0  0
 39 42  1  0  0  0  0
 40 37  2  0  0  0  0
 40 38  1  0  0  0  0
 41 42  2  0  0  0  0
 42 43  1  0  0  0  0
 44 46  1  0  0  0  0
 45 46  1  0  0  0  0
 46 53  1  0  0  0  0
 47 43  1  0  0  0  0
 47 44  1  0  0  0  0
 48 47  1  0  0  0  0
 48 44  1  0  0  0  0
 49 48  1  0  0  0  0
 49 45  2  0  0  0  0
 50 53  1  0  0  0  0
 53 52  1  0  0  0  0
 53 51  1  0  0  0  0
M  END
>  <MODEL>
2

>  <REMARK>
 VINA RESULT:      -7.5      3.075      8.001
  Name = 
  15 active torsions:
  status: ('A' for Active; 'I' for Inactive)
    1  A    between atoms: C_2  and  C_20
    2  A    between atoms: C_2  and  C_51
    3  A    between atoms: C_8  and  C_28
    4  A    between atoms: C_8  and  O_45
    5  A    between atoms: C_9  and  C_20
    6  A    between atoms: N_11  and  C_13
    7  A    between atoms: C_12  and  O_45
    8  A    between atoms: C_17  and  C_53
    9  A    between atoms: C_20  and  C_53
   10  A    between atoms: C_21  and  C_30
   11  A    between atoms: C_21  and  C_48
   12  A    between atoms: N_26  and  C_34
   13  A    between atoms: C_28  and  C_34
   14  A    between atoms: C_35  and  C_40
   15  A    between atoms: C_37  and  C_38
                            x       y       z     vdW  Elec       q    Type
                         _______ _______ _______ _____ _____    ______ ____

>  <TORSDO>
F 15

$$$$
=
 OpenBabel10232408323D

 53 58  0  0  1  0  0  0  0  0999 V2000
  185.4040  175.9470  136.8010 C   0  0  2  0  0  3  0  0  0  0  0  0
  181.7530  176.6270  135.8790 C   0  0  0  0  0  2  0  0  0  0  0  0
  181.2100  173.9210  137.5470 C   0  0  0  0  0  1  0  0  0  0  0  0
  183.9220  176.1570  136.9900 C   0  0  0  0  0  0  0  0  0  0  0  0
  183.2620  175.2930  137.7830 C   0  0  0  0  0  3  0  0  0  0  0  0
  181.0860  176.3450  137.1540 N   0  0  0  0  0  2  0  0  0  0  0  0
  181.4430  175.5320  139.3950 C   0  0  0  0  0  1  0  0  0  0  0  0
  181.7560  175.2860  137.9280 C   0  0  0  0  0  0  0  0  0  0  0  0
  183.1540  177.1560  136.1560 C   0  0  0  0  0  2  0  0  0  0  0  0
  186.2010  177.1830  136.4490 C   0  0  0  0  0  0  0  0  0  0  0  0
  186.1150  177.6800  135.2940 O   0  0  0  0  0  0  0  0  0  0  0  0
  189.3870  176.9430  138.1100 C   0  0  0  0  0  3  0  0  0  0  0  0
  189.3690  177.0940  139.4310 C   0  0  0  0  0  0  0  0  0  0  0  0
  186.6680  178.2240  138.5440 N   0  0  0  0  0  0  0  0  0  0  0  0
  187.3920  178.6460  139.7140 C   0  0  0  0  0  3  0  0  0  0  0  0
  188.9930  177.5520  135.8520 O   0  0  0  0  0  1  0  0  0  0  0  0
  188.5690  178.1380  140.1170 C   0  0  0  0  0  3  0  0  0  0  0  0
  188.6340  177.8300  137.1790 C   0  0  1  0  0  3  0  0  0  0  0  0
  187.1490  177.7650  137.4270 C   0  0  0  0  0  0  0  0  0  0  0  0
  190.1840  176.2390  140.1720 O   0  0  0  0  0  0  0  0  0  0  0  0
  190.9860  176.6980  141.2560 C   0  0  0  0  0  2  0  0  0  0  0  0
  190.2420  176.4460  142.5500 C   0  0  0  0  0  2  0  0  0  0  0  0
  190.1390  177.7420  143.3390 C   0  0  0  0  0  2  0  0  0  0  0  0
  187.7970  177.9190  143.7770 N   0  0  0  0  0  0  0  0  0  0  0  0
  188.0820  177.3590  146.4460 C   0  0  0  0  0  0  0  0  0  0  0  0
  186.8140  177.6030  145.9140 C   0  0  0  0  0  3  0  0  0  0  0  0
  189.0140  177.6900  144.2690 N   0  0  0  0  0  0  0  0  0  0  0  0
  189.1930  177.3970  145.5930 C   0  0  0  0  0  0  0  0  0  0  0  0
  186.6820  177.8920  144.5590 C   0  0  0  0  0  0  0  0  0  0  0  0
  190.3410  177.1530  146.0500 O   0  0  0  0  0  0  0  0  0  0  0  0
  185.4280  178.5430  142.5280 C   0  0  0  0  0  1  0  0  0  0  0  0
  185.3120  178.0750  143.9700 C   0  0  0  0  0  3  0  0  0  0  0  0
  184.4940  179.0740  144.7690 C   0  0  0  0  0  1  0  0  0  0  0  0
  188.2500  177.0690  147.8420 N   0  0  0  0  0  2  0  0  0  0  0  0
  188.5090  178.0930  148.8440 C   0  0  0  0  0  1  0  0  0  0  0  0
  185.6780  174.7710  135.8580 C   0  0  0  0  0  2  0  0  0  0  0  0
  187.8520  174.4880  134.6580 C   0  0  0  0  0  3  0  0  0  0  0  0
  187.7370  173.7850  136.9740 C   0  0  0  0  0  3  0  0  0  0  0  0
  189.0720  173.3760  136.9240 C   0  0  0  0  0  3  0  0  0  0  0  0
  187.1260  174.3680  135.8490 C   0  0  0  0  0  0  0  0  0  0  0  0
  189.1890  174.0460  134.5950 C   0  0  0  0  0  3  0  0  0  0  0  0
  189.8010  173.5080  135.7380 C   0  0  0  0  0  0  0  0  0  0  0  0
  191.2250  173.0570  135.6870 C   0  0  0  0  0  2  0  0  0  0  0  0
  193.4820  173.7180  136.4390 N   0  0  1  0  0  0  0  0  0  0  0  0
  193.9440  175.3740  138.0950 C   0  0  0  0  0  3  0  0  0  0  0  0
  194.2450  173.9770  137.6710 C   0  0  2  0  0  3  0  0  0  0  0  0
  192.0360  173.7400  136.7730 C   0  0  1  0  0  3  0  0  0  0  0  0
  192.6780  174.9370  136.2090 C   0  0  1  0  0  3  0  0  0  0  0  0
  193.0610  175.9050  137.2820 C   0  0  0  0  0  3  0  0  0  0  0  0
  196.3170  174.9210  136.9110 F   0  0  0  0  0  0  0  0  0  0  0  0
  195.9800  172.7080  136.5580 F   0  0  0  0  0  0  0  0  0  0  0  0
  196.3680  173.5150  138.6490 F   0  0  0  0  0  0  0  0  0  0  0  0
  195.7470  173.7720  137.4260 C   0  0  0  0  0  0  0  0  0  0  0  0
  1 36  1  6  0  0  0
  1  4  1  0  0  0  0
  2  9  1  0  0  0  0
  2  6  1  0  0  0  0
  3  8  1  0  0  0  0
  4  5  2  0  0  0  0
  5  8  1  0  0  0  0
  6  8  1  0  0  0  0
  8  7  1  0  0  0  0
  9  4  1  0  0  0  0
 10  1  1  0  0  0  0
 10 19  1  0  0  0  0
 11 10  2  0  0  0  0
 12 13  2  0  0  0  0
 13 17  1  0  0  0  0
 13 20  1  0  0  0  0
 14 15  1  0  0  0  0
 15 17  2  0  0  0  0
 18 16  1  6  0  0  0
 18 19  1  0  0  0  0
 18 12  1  0  0  0  0
 19 14  2  0  0  0  0
 20 21  1  0  0  0  0
 21 22  1  0  0  0  0
 22 23  1  0  0  0  0
 23 27  1  0  0  0  0
 24 27  1  0  0  0  0
 24 29  2  0  0  0  0
 25 34  1  0  0  0  0
 26 25  2  0  0  0  0
 27 28  1  0  0  0  0
 28 30  2  0  0  0  0
 28 25  1  0  0  0  0
 29 26  1  0  0  0  0
 31 32  1  0  0  0  0
 32 29  1  0  0  0  0
 32 33  1  0  0  0  0
 34 35  1  0  0  0  0
 37 40  1  0  0  0  0
 39 38  1  0  0  0  0
 40 36  1  0  0  0  0
 40 38  2  0  0  0  0
 41 37  2  0  0  0  0
 41 42  1  0  0  0  0
 42 39  2  0  0  0  0
 43 42  1  0  0  0  0
 43 47  1  0  0  0  0
 44 47  1  0  0  0  0
 44 46  1  0  0  0  0
 46 45  1  0  0  0  0
 48 44  1  0  0  0  0
 48 47  1  0  0  0  0
 48 49  1  0  0  0  0
 49 45  2  0  0  0  0
 50 53  1  0  0  0  0
 51 53  1  0  0  0  0
 53 46  1  0  0  0  0
 53 52  1  0  0  0  0
M  END
>  <MODEL>
3

>  <REMARK>
 VINA RESULT:      -7.5      2.615      3.909
  Name = 
  15 active torsions:
  status: ('A' for Active; 'I' for Inactive)
    1  A    between atoms: C_2  and  C_20
    2  A    between atoms: C_2  and  C_51
    3  A    between atoms: C_8  and  C_28
    4  A    between atoms: C_8  and  O_45
    5  A    between atoms: C_9  and  C_20
    6  A    between atoms: N_11  and  C_13
    7  A    between atoms: C_12  and  O_45
    8  A    between atoms: C_17  and  C_53
    9  A    between atoms: C_20  and  C_53
   10  A    between atoms: C_21  and  C_30
   11  A    between atoms: C_21  and  C_48
   12  A    between atoms: N_26  and  C_34
   13  A    between atoms: C_28  and  C_34
   14  A    between atoms: C_35  and  C_40
   15  A    between atoms: C_37  and  C_38
                            x       y       z     vdW  Elec       q    Type
                         _______ _______ _______ _____ _____    ______ ____

>  <TORSDO>
F 15

$$$$
=
 OpenBabel10232408323D

 53 58  0  0  1  0  0  0  0  0999 V2000
  188.8350  176.8490  143.5560 C   0  0  2  0  0  3  0  0  0  0  0  0
  191.2840  177.4240  146.4400 C   0  0  0  0  0  2  0  0  0  0  0  0
  188.7430  178.8420  147.8320 C   0  0  0  0  0  1  0  0  0  0  0  0
  189.3790  176.8320  144.9630 C   0  0  0  0  0  0  0  0  0  0  0  0
  188.5610  177.2290  145.9560 C   0  0  0  0  0  3  0  0  0  0  0  0
  190.4440  177.0820  147.5920 N   0  0  0  0  0  2  0  0  0  0  0  0
  188.2060  176.4760  148.2530 C   0  0  0  0  0  1  0  0  0  0  0  0
  189.0250  177.4180  147.3850 C   0  0  0  0  0  0  0  0  0  0  0  0
  190.8450  176.5960  145.2400 C   0  0  0  0  0  2  0  0  0  0  0  0
  189.6520  176.1000  142.5290 C   0  0  0  0  0  0  0  0  0  0  0  0
  189.6990  174.8400  142.5580 O   0  0  0  0  0  0  0  0  0  0  0  0
  190.7820  176.3820  139.1220 C   0  0  0  0  0  3  0  0  0  0  0  0
  192.0880  176.5550  138.9530 C   0  0  0  0  0  0  0  0  0  0  0  0
  191.6500  177.2430  141.9010 N   0  0  0  0  0  0  0  0  0  0  0  0
  192.6910  177.7940  141.0740 C   0  0  0  0  0  3  0  0  0  0  0  0
  188.6180  176.8770  139.9570 O   0  0  0  0  0  1  0  0  0  0  0  0
  192.8980  177.4800  139.7840 C   0  0  0  0  0  3  0  0  0  0  0  0
  189.9870  177.1250  140.1390 C   0  0  1  0  0  3  0  0  0  0  0  0
  190.4690  176.8400  141.5390 C   0  0  0  0  0  0  0  0  0  0  0  0
  192.6860  175.8500  137.9090 O   0  0  0  0  0  0  0  0  0  0  0  0
  192.1640  175.8560  136.5840 C   0  0  0  0  0  2  0  0  0  0  0  0
  191.6400  174.4730  136.2630 C   0  0  0  0  0  2  0  0  0  0  0  0
  190.5430  174.5750  135.2150 C   0  0  0  0  0  2  0  0  0  0  0  0
  188.8490  176.0690  135.9930 N   0  0  0  0  0  0  0  0  0  0  0  0
  187.2230  174.0410  136.8660 C   0  0  0  0  0  0  0  0  0  0  0  0
  186.8210  175.3720  137.0110 C   0  0  0  0  0  3  0  0  0  0  0  0
  189.2470  174.8070  135.8490 N   0  0  0  0  0  0  0  0  0  0  0  0
  188.4570  173.7690  136.2630 C   0  0  0  0  0  0  0  0  0  0  0  0
  187.6570  176.3930  136.5690 C   0  0  0  0  0  0  0  0  0  0  0  0
  188.8240  172.5750  136.1000 O   0  0  0  0  0  0  0  0  0  0  0  0
  188.3710  178.7300  136.9580 C   0  0  0  0  0  1  0  0  0  0  0  0
  187.1920  177.8200  136.6510 C   0  0  0  0  0  3  0  0  0  0  0  0
  186.1210  177.9930  137.7130 C   0  0  0  0  0  1  0  0  0  0  0  0
  186.3860  172.9670  137.3220 N   0  0  0  0  0  2  0  0  0  0  0  0
  185.0220  173.1630  137.7920 C   0  0  0  0  0  1  0  0  0  0  0  0
  188.4870  178.2760  143.1170 C   0  0  0  0  0  2  0  0  0  0  0  0
  186.0610  178.0680  143.6850 C   0  0  0  0  0  3  0  0  0  0  0  0
  186.6430  178.8140  141.4540 C   0  0  0  0  0  3  0  0  0  0  0  0
  185.2880  178.8990  141.1220 C   0  0  0  0  0  3  0  0  0  0  0  0
  187.0380  178.4240  142.7460 C   0  0  0  0  0  0  0  0  0  0  0  0
  184.6960  178.1220  143.3420 C   0  0  0  0  0  3  0  0  0  0  0  0
  184.3130  178.5560  142.0640 C   0  0  0  0  0  0  0  0  0  0  0  0
  182.8660  178.6360  141.6980 C   0  0  0  0  0  2  0  0  0  0  0  0
  182.2990  177.9860  139.3840 N   0  0  1  0  0  0  0  0  0  0  0  0
  181.6790  179.5020  137.6480 C   0  0  0  0  0  3  0  0  0  0  0  0
  182.5800  178.3650  137.9900 C   0  0  2  0  0  3  0  0  0  0  0  0
  182.7070  179.1090  140.2640 C   0  0  1  0  0  3  0  0  0  0  0  0
  181.2990  178.9630  139.8650 C   0  0  1  0  0  3  0  0  0  0  0  0
  180.9710  179.8410  138.7000 C   0  0  0  0  0  3  0  0  0  0  0  0
  181.0110  176.9210  136.8880 F   0  0  0  0  0  0  0  0  0  0  0  0
  182.9880  176.0230  137.5360 F   0  0  0  0  0  0  0  0  0  0  0  0
  182.8790  177.4840  135.7960 F   0  0  0  0  0  0  0  0  0  0  0  0
  182.3610  177.1690  137.0530 C   0  0  0  0  0  0  0  0  0  0  0  0
  1 36  1  6  0  0  0
  1  4  1  0  0  0  0
  2  6  1  0  0  0  0
  4  9  1  0  0  0  0
  4  5  2  0  0  0  0
  5  8  1  0  0  0  0
  8  6  1  0  0  0  0
  8  3  1  0  0  0  0
  8  7  1  0  0  0  0
  9  2  1  0  0  0  0
 10 11  2  0  0  0  0
 10  1  1  0  0  0  0
 12 18  1  0  0  0  0
 13 12  2  0  0  0  0
 13 17  1  0  0  0  0
 15 14  1  0  0  0  0
 17 15  2  0  0  0  0
 18 16  1  1  0  0  0
 18 19  1  0  0  0  0
 19 14  2  0  0  0  0
 19 10  1  0  0  0  0
 20 13  1  0  0  0  0
 21 20  1  0  0  0  0
 22 21  1  0  0  0  0
 23 27  1  0  0  0  0
 23 22  1  0  0  0  0
 24 29  2  0  0  0  0
 25 26  2  0  0  0  0
 25 34  1  0  0  0  0
 27 24  1  0  0  0  0
 27 28  1  0  0  0  0
 28 25  1  0  0  0  0
 29 32  1  0  0  0  0
 29 26  1  0  0  0  0
 30 28  2  0  0  0  0
 32 31  1  0  0  0  0
 32 33  1  0  0  0  0
 34 35  1  0  0  0  0
 38 40  1  0  0  0  0
 39 38  2  0  0  0  0
 39 42  1  0  0  0  0
 40 36  1  0  0  0  0
 40 37  2  0  0  0  0
 41 37  1  0  0  0  0
 42 41  2  0  0  0  0
 43 42  1  0  0  0  0
 44 48  1  0  0  0  0
 44 47  1  0  0  0  0
 45 46  1  0  0  0  0
 45 49  2  0  0  0  0
 46 44  1  0  0  0  0
 47 43  1  0  0  0  0
 48 47  1  0  0  0  0
 49 48  1  0  0  0  0
 50 53  1  0  0  0  0
 52 53  1  0  0  0  0
 53 51  1  0  0  0  0
 53 46  1  0  0  0  0
M  END
>  <MODEL>
4

>  <REMARK>
 VINA RESULT:      -7.5      3.427     10.191
  Name = 
  15 active torsions:
  status: ('A' for Active; 'I' for Inactive)
    1  A    between atoms: C_2  and  C_20
    2  A    between atoms: C_2  and  C_51
    3  A    between atoms: C_8  and  C_28
    4  A    between atoms: C_8  and  O_45
    5  A    between atoms: C_9  and  C_20
    6  A    between atoms: N_11  and  C_13
    7  A    between atoms: C_12  and  O_45
    8  A    between atoms: C_17  and  C_53
    9  A    between atoms: C_20  and  C_53
   10  A    between atoms: C_21  and  C_30
   11  A    between atoms: C_21  and  C_48
   12  A    between atoms: N_26  and  C_34
   13  A    between atoms: C_28  and  C_34
   14  A    between atoms: C_35  and  C_40
   15  A    between atoms: C_37  and  C_38
                            x       y       z     vdW  Elec       q    Type
                         _______ _______ _______ _____ _____    ______ ____

>  <TORSDO>
F 15

$$$$
=
 OpenBabel10232408323D

 53 58  0  0  1  0  0  0  0  0999 V2000
  186.2590  178.1710  144.1810 C   0  0  2  0  0  3  0  0  0  0  0  0
  186.1770  178.7990  147.9540 C   0  0  0  0  0  2  0  0  0  0  0  0
  188.1780  176.2710  148.0490 C   0  0  0  0  0  1  0  0  0  0  0  0
  186.7760  178.4140  145.5770 C   0  0  0  0  0  0  0  0  0  0  0  0
  187.7830  177.6370  146.0170 C   0  0  0  0  0  3  0  0  0  0  0  0
  187.5960  178.6480  148.2940 N   0  0  0  0  0  2  0  0  0  0  0  0
  189.7530  178.0490  147.4010 C   0  0  0  0  0  1  0  0  0  0  0  0
  188.2840  177.6610  147.4450 C   0  0  0  0  0  0  0  0  0  0  0  0
  186.0590  179.3360  146.5340 C   0  0  0  0  0  2  0  0  0  0  0  0
  184.7800  178.4080  143.9800 C   0  0  0  0  0  0  0  0  0  0  0  0
  183.9740  178.2020  144.9280 O   0  0  0  0  0  0  0  0  0  0  0  0
  182.2700  177.9480  141.4390 C   0  0  0  0  0  3  0  0  0  0  0  0
  182.7180  177.8020  140.1970 C   0  0  0  0  0  0  0  0  0  0  0  0
  185.1150  178.9790  141.6880 N   0  0  0  0  0  0  0  0  0  0  0  0
  184.8470  179.1630  140.2860 C   0  0  0  0  0  3  0  0  0  0  0  0
  182.0030  179.0240  143.5360 O   0  0  0  0  0  1  0  0  0  0  0  0
  183.8060  178.6320  139.6230 C   0  0  0  0  0  3  0  0  0  0  0  0
  182.7880  178.9850  142.3750 C   0  0  1  0  0  3  0  0  0  0  0  0
  184.2590  178.8010  142.6500 C   0  0  0  0  0  0  0  0  0  0  0  0
  182.0840  176.8410  139.4090 O   0  0  0  0  0  0  0  0  0  0  0  0
  181.4460  177.1620  138.1770 C   0  0  0  0  0  2  0  0  0  0  0  0
  182.0170  176.2760  137.0900 C   0  0  0  0  0  2  0  0  0  0  0  0
  182.6720  175.0560  137.7200 C   0  0  0  0  0  2  0  0  0  0  0  0
  184.6970  176.2070  137.1860 N   0  0  0  0  0  0  0  0  0  0  0  0
  186.1980  173.9130  137.1760 C   0  0  0  0  0  0  0  0  0  0  0  0
  186.8010  175.1460  136.9110 C   0  0  0  0  0  3  0  0  0  0  0  0
  184.1060  175.0410  137.4390 N   0  0  0  0  0  0  0  0  0  0  0  0
  184.8260  173.8770  137.4530 C   0  0  0  0  0  0  0  0  0  0  0  0
  186.0290  176.3020  136.9140 C   0  0  0  0  0  0  0  0  0  0  0  0
  184.2700  172.7790  137.7200 O   0  0  0  0  0  0  0  0  0  0  0  0
  187.5810  177.5880  135.4780 C   0  0  0  0  0  1  0  0  0  0  0  0
  186.6890  177.6370  136.7090 C   0  0  0  0  0  3  0  0  0  0  0  0
  187.5100  178.0410  137.9210 C   0  0  0  0  0  1  0  0  0  0  0  0
  186.9690  172.7020  137.1700 N   0  0  0  0  0  2  0  0  0  0  0  0
  188.0910  172.4750  136.2710 C   0  0  0  0  0  1  0  0  0  0  0  0
  186.7230  176.8100  143.6510 C   0  0  0  0  0  2  0  0  0  0  0  0
  189.0220  176.0520  143.0300 C   0  0  0  0  0  3  0  0  0  0  0  0
  188.0810  177.9270  141.8170 C   0  0  0  0  0  3  0  0  0  0  0  0
  189.2510  178.0340  141.0610 C   0  0  0  0  0  3  0  0  0  0  0  0
  187.9480  176.9180  142.7880 C   0  0  0  0  0  0  0  0  0  0  0  0
  190.2150  176.1780  142.2910 C   0  0  0  0  0  3  0  0  0  0  0  0
  190.3180  177.1600  141.2930 C   0  0  0  0  0  0  0  0  0  0  0  0
  191.5720  177.2880  140.4900 C   0  0  0  0  0  2  0  0  0  0  0  0
  192.2800  176.2920  138.3430 N   0  0  1  0  0  0  0  0  0  0  0  0
  190.8880  176.0490  136.4200 C   0  0  0  0  0  3  0  0  0  0  0  0
  192.2140  176.5380  136.8940 C   0  0  2  0  0  3  0  0  0  0  0  0
  191.2680  177.1500  139.0090 C   0  0  1  0  0  3  0  0  0  0  0  0
  190.9580  175.7430  138.7120 C   0  0  1  0  0  3  0  0  0  0  0  0
  190.1840  175.6140  137.4390 C   0  0  0  0  0  3  0  0  0  0  0  0
  194.5030  176.6160  136.1750 F   0  0  0  0  0  0  0  0  0  0  0  0
  193.0280  175.5020  134.8630 F   0  0  0  0  0  0  0  0  0  0  0  0
  193.6780  174.6590  136.8730 F   0  0  0  0  0  0  0  0  0  0  0  0
  193.3680  175.8260  136.1740 C   0  0  0  0  0  0  0  0  0  0  0  0
  1 36  1  1  0  0  0
  1  4  1  0  0  0  0
  2  6  1  0  0  0  0
  4  5  2  0  0  0  0
  4  9  1  0  0  0  0
  5  8  1  0  0  0  0
  7  8  1  0  0  0  0
  8  3  1  0  0  0  0
  8  6  1  0  0  0  0
  9  2  1  0  0  0  0
 10  1  1  0  0  0  0
 10 11  2  0  0  0  0
 12 18  1  0  0  0  0
 13 12  2  0  0  0  0
 14 19  2  0  0  0  0
 15 14  1  0  0  0  0
 17 13  1  0  0  0  0
 17 15  2  0  0  0  0
 18 19  1  0  0  0  0
 18 16  1  1  0  0  0
 19 10  1  0  0  0  0
 20 13  1  0  0  0  0
 21 20  1  0  0  0  0
 22 23  1  0  0  0  0
 22 21  1  0  0  0  0
 24 27  1  0  0  0  0
 25 28  1  0  0  0  0
 26 29  1  0  0  0  0
 26 25  2  0  0  0  0
 27 28  1  0  0  0  0
 27 23  1  0  0  0  0
 28 30  2  0  0  0  0
 29 24  2  0  0  0  0
 31 32  1  0  0  0  0
 32 29  1  0  0  0  0
 32 33  1  0  0  0  0
 34 25  1  0  0  0  0
 35 34  1  0  0  0  0
 38 40  2  0  0  0  0
 39 42  2  0  0  0  0
 39 38  1  0  0  0  0
 40 37  1  0  0  0  0
 40 36  1  0  0  0  0
 41 37  2  0  0  0  0
 42 41  1  0  0  0  0
 43 42  1  0  0  0  0
 44 48  1  0  0  0  0
 44 47  1  0  0  0  0
 45 46  1  0  0  0  0
 45 49  2  0  0  0  0
 46 44  1  0  0  0  0
 47 43  1  0  0  0  0
 48 47  1  0  0  0  0
 49 48  1  0  0  0  0
 51 53  1  0  0  0  0
 53 50  1  0  0  0  0
 53 52  1  0  0  0  0
 53 46  1  0  0  0  0
M  END
>  <MODEL>
5

>  <REMARK>
 VINA RESULT:      -7.3      2.349      7.961
  Name = 
  15 active torsions:
  status: ('A' for Active; 'I' for Inactive)
    1  A    between atoms: C_2  and  C_20
    2  A    between atoms: C_2  and  C_51
    3  A    between atoms: C_8  and  C_28
    4  A    between atoms: C_8  and  O_45
    5  A    between atoms: C_9  and  C_20
    6  A    between atoms: N_11  and  C_13
    7  A    between atoms: C_12  and  O_45
    8  A    between atoms: C_17  and  C_53
    9  A    between atoms: C_20  and  C_53
   10  A    between atoms: C_21  and  C_30
   11  A    between atoms: C_21  and  C_48
   12  A    between atoms: N_26  and  C_34
   13  A    between atoms: C_28  and  C_34
   14  A    between atoms: C_35  and  C_40
   15  A    between atoms: C_37  and  C_38
                            x       y       z     vdW  Elec       q    Type
                         _______ _______ _______ _____ _____    ______ ____

>  <TORSDO>
F 15

$$$$
=
 OpenBabel10232408323D

 53 58  0  0  1  0  0  0  0  0999 V2000
  191.1370  174.3880  135.7570 C   0  0  2  0  0  3  0  0  0  0  0  0
  194.6670  175.8650  135.8140 C   0  0  0  0  0  2  0  0  0  0  0  0
  195.2710  173.4030  137.8070 C   0  0  0  0  0  1  0  0  0  0  0  0
  192.6410  174.4420  135.6450 C   0  0  0  0  0  0  0  0  0  0  0  0
  193.3490  173.4640  136.2400 C   0  0  0  0  0  3  0  0  0  0  0  0
  195.4800  174.6510  135.6990 N   0  0  0  0  0  2  0  0  0  0  0  0
  195.3770  172.2430  135.6380 C   0  0  0  0  0  1  0  0  0  0  0  0
  194.8590  173.4830  136.3470 C   0  0  0  0  0  0  0  0  0  0  0  0
  193.3480  175.6530  135.0830 C   0  0  0  0  0  2  0  0  0  0  0  0
  190.5590  174.9020  137.0550 C   0  0  0  0  0  0  0  0  0  0  0  0
  190.3310  174.1020  138.0040 O   0  0  0  0  0  0  0  0  0  0  0  0
  190.0210  177.7090  139.2450 C   0  0  0  0  0  3  0  0  0  0  0  0
  188.8870  178.3780  139.0670 C   0  0  0  0  0  0  0  0  0  0  0  0
  189.1760  176.7600  136.4880 N   0  0  0  0  0  0  0  0  0  0  0  0
  188.4990  178.0270  136.5930 C   0  0  0  0  0  3  0  0  0  0  0  0
  192.1030  176.7640  138.6160 O   0  0  0  0  0  1  0  0  0  0  0  0
  188.3540  178.7310  137.7280 C   0  0  0  0  0  3  0  0  0  0  0  0
  190.8950  177.2740  138.1200 C   0  0  1  0  0  3  0  0  0  0  0  0
  190.1780  176.3270  137.1920 C   0  0  0  0  0  0  0  0  0  0  0  0
  188.2120  178.7890  140.2170 O   0  0  0  0  0  0  0  0  0  0  0  0
  188.7560  178.6250  141.5220 C   0  0  0  0  0  2  0  0  0  0  0  0
  187.7690  177.8440  142.3640 C   0  0  0  0  0  2  0  0  0  0  0  0
  188.4310  176.5740  142.8760 C   0  0  0  0  0  2  0  0  0  0  0  0
  188.0030  177.1240  145.1620 N   0  0  0  0  0  0  0  0  0  0  0  0
  190.6080  176.7290  145.9210 C   0  0  0  0  0  0  0  0  0  0  0  0
  189.6540  177.1170  146.8660 C   0  0  0  0  0  3  0  0  0  0  0  0
  188.8990  176.7570  144.2480 N   0  0  0  0  0  0  0  0  0  0  0  0
  190.2060  176.5400  144.5930 C   0  0  0  0  0  0  0  0  0  0  0  0
  188.3370  177.3190  146.4680 C   0  0  0  0  0  0  0  0  0  0  0  0
  191.0460  176.1650  143.7320 O   0  0  0  0  0  0  0  0  0  0  0  0
  186.3560  178.7220  146.9510 C   0  0  0  0  0  1  0  0  0  0  0  0
  187.2950  177.6580  147.4970 C   0  0  0  0  0  3  0  0  0  0  0  0
  187.9280  178.1450  148.7880 C   0  0  0  0  0  1  0  0  0  0  0  0
  191.9770  176.5230  146.3000 N   0  0  0  0  0  2  0  0  0  0  0  0
  192.3720  175.7880  147.4940 C   0  0  0  0  0  1  0  0  0  0  0  0
  190.6060  173.0040  135.3720 C   0  0  0  0  0  2  0  0  0  0  0  0
  188.4710  173.8770  134.4080 C   0  0  0  0  0  3  0  0  0  0  0  0
  188.3270  172.1340  136.0850 C   0  0  0  0  0  3  0  0  0  0  0  0
  186.9320  172.1600  136.0020 C   0  0  0  0  0  3  0  0  0  0  0  0
  189.1060  172.9740  135.2690 C   0  0  0  0  0  0  0  0  0  0  0  0
  187.0650  173.9280  134.3460 C   0  0  0  0  0  3  0  0  0  0  0  0
  186.2990  173.0530  135.1320 C   0  0  0  0  0  0  0  0  0  0  0  0
  184.8070  173.0850  135.0570 C   0  0  0  0  0  2  0  0  0  0  0  0
  184.0460  175.0940  136.2760 N   0  0  1  0  0  0  0  0  0  0  0  0
  182.6300  175.0770  138.1970 C   0  0  0  0  0  3  0  0  0  0  0  0
  183.9060  175.6140  137.6460 C   0  0  2  0  0  3  0  0  0  0  0  0
  184.2220  173.6230  136.3510 C   0  0  1  0  0  3  0  0  0  0  0  0
  182.8930  174.1900  136.0770 C   0  0  1  0  0  3  0  0  0  0  0  0
  182.0710  174.2740  137.3230 C   0  0  0  0  0  3  0  0  0  0  0  0
  184.9770  177.6310  138.3880 F   0  0  0  0  0  0  0  0  0  0  0  0
  182.7250  177.6680  138.1400 F   0  0  0  0  0  0  0  0  0  0  0  0
  184.1020  177.5910  136.3310 F   0  0  0  0  0  0  0  0  0  0  0  0
  183.9180  177.1490  137.6420 C   0  0  0  0  0  0  0  0  0  0  0  0
  1 36  1  1  0  0  0
  1 10  1  0  0  0  0
  4  1  1  0  0  0  0
  4  5  2  0  0  0  0
  5  8  1  0  0  0  0
  6  2  1  0  0  0  0
  6  8  1  0  0  0  0
  7  8  1  0  0  0  0
  8  3  1  0  0  0  0
  9  4  1  0  0  0  0
  9  2  1  0  0  0  0
 10 19  1  0  0  0  0
 10 11  2  0  0  0  0
 13 12  2  0  0  0  0
 13 20  1  0  0  0  0
 14 15  1  0  0  0  0
 14 19  2  0  0  0  0
 15 17  2  0  0  0  0
 17 13  1  0  0  0  0
 18 16  1  1  0  0  0
 18 12  1  0  0  0  0
 19 18  1  0  0  0  0
 20 21  1  0  0  0  0
 21 22  1  0  0  0  0
 22 23  1  0  0  0  0
 23 27  1  0  0  0  0
 24 29  2  0  0  0  0
 25 34  1  0  0  0  0
 25 26  2  0  0  0  0
 27 28  1  0  0  0  0
 27 24  1  0  0  0  0
 28 25  1  0  0  0  0
 29 26  1  0  0  0  0
 29 32  1  0  0  0  0
 30 28  2  0  0  0  0
 31 32  1  0  0  0  0
 32 33  1  0  0  0  0
 34 35  1  0  0  0  0
 37 40  1  0  0  0  0
 39 38  1  0  0  0  0
 40 36  1  0  0  0  0
 40 38  2  0  0  0  0
 41 37  2  0  0  0  0
 41 42  1  0  0  0  0
 42 39  2  0  0  0  0
 43 42  1  0  0  0  0
 43 47  1  0  0  0  0
 44 47  1  0  0  0  0
 44 46  1  0  0  0  0
 46 45  1  0  0  0  0
 48 44  1  0  0  0  0
 48 47  1  0  0  0  0
 48 49  1  0  0  0  0
 49 45  2  0  0  0  0
 52 53  1  0  0  0  0
 53 46  1  0  0  0  0
 53 51  1  0  0  0  0
 53 50  1  0  0  0  0
M  END
>  <MODEL>
6

>  <REMARK>
 VINA RESULT:      -7.3      3.065      7.585
  Name = 
  15 active torsions:
  status: ('A' for Active; 'I' for Inactive)
    1  A    between atoms: C_2  and  C_20
    2  A    between atoms: C_2  and  C_51
    3  A    between atoms: C_8  and  C_28
    4  A    between atoms: C_8  and  O_45
    5  A    between atoms: C_9  and  C_20
    6  A    between atoms: N_11  and  C_13
    7  A    between atoms: C_12  and  O_45
    8  A    between atoms: C_17  and  C_53
    9  A    between atoms: C_20  and  C_53
   10  A    between atoms: C_21  and  C_30
   11  A    between atoms: C_21  and  C_48
   12  A    between atoms: N_26  and  C_34
   13  A    between atoms: C_28  and  C_34
   14  A    between atoms: C_35  and  C_40
   15  A    between atoms: C_37  and  C_38
                            x       y       z     vdW  Elec       q    Type
                         _______ _______ _______ _____ _____    ______ ____

>  <TORSDO>
F 15

$$$$
=
 OpenBabel10232408323D

 53 58  0  0  1  0  0  0  0  0999 V2000
  189.5420  177.5960  138.5480 C   0  0  2  0  0  3  0  0  0  0  0  0
  187.9960  177.7680  142.0440 C   0  0  0  0  0  2  0  0  0  0  0  0
  190.4230  175.7900  142.8160 C   0  0  0  0  0  1  0  0  0  0  0  0
  189.4600  177.7990  140.0410 C   0  0  0  0  0  0  0  0  0  0  0  0
  190.4170  177.2380  140.8030 C   0  0  0  0  0  3  0  0  0  0  0  0
  189.1950  177.9200  142.8730 N   0  0  0  0  0  2  0  0  0  0  0  0
  191.6050  177.9500  142.8160 C   0  0  0  0  0  1  0  0  0  0  0  0
  190.3670  177.2230  142.3160 C   0  0  0  0  0  0  0  0  0  0  0  0
  188.2420  178.4150  140.6880 C   0  0  0  0  0  2  0  0  0  0  0  0
  188.7770  178.5930  137.7090 C   0  0  0  0  0  0  0  0  0  0  0  0
  189.0000  179.8280  137.8370 O   0  0  0  0  0  0  0  0  0  0  0  0
  185.7340  176.7130  137.2930 C   0  0  0  0  0  3  0  0  0  0  0  0
  185.7000  175.8800  136.2590 C   0  0  0  0  0  0  0  0  0  0  0  0
  188.0430  177.7340  135.6080 N   0  0  0  0  0  0  0  0  0  0  0  0
  187.2250  177.0680  134.6290 C   0  0  0  0  0  3  0  0  0  0  0  0
  185.9870  178.8010  138.3890 O   0  0  0  0  0  1  0  0  0  0  0  0
  186.2070  176.2370  134.9120 C   0  0  0  0  0  3  0  0  0  0  0  0
  186.2510  178.1070  137.1990 C   0  0  1  0  0  3  0  0  0  0  0  0
  187.7030  178.1350  136.7960 C   0  0  0  0  0  0  0  0  0  0  0  0
  185.1150  174.6320  136.4760 O   0  0  0  0  0  0  0  0  0  0  0  0
  183.7110  174.4190  136.3830 C   0  0  0  0  0  2  0  0  0  0  0  0
  183.1450  174.2990  137.7820 C   0  0  0  0  0  2  0  0  0  0  0  0
  181.7970  175.0010  137.8480 C   0  0  0  0  0  2  0  0  0  0  0  0
  182.4210  176.5620  139.5460 N   0  0  0  0  0  0  0  0  0  0  0  0
  181.8320  178.7450  137.9950 C   0  0  0  0  0  0  0  0  0  0  0  0
  182.3180  178.9190  139.2940 C   0  0  0  0  0  3  0  0  0  0  0  0
  181.9570  176.3780  138.3120 N   0  0  0  0  0  0  0  0  0  0  0  0
  181.6620  177.4440  137.5050 C   0  0  0  0  0  0  0  0  0  0  0  0
  182.6090  177.8040  140.0730 C   0  0  0  0  0  0  0  0  0  0  0  0
  181.2500  177.2670  136.3290 O   0  0  0  0  0  0  0  0  0  0  0  0
  182.2560  178.7890  142.3160 C   0  0  0  0  0  1  0  0  0  0  0  0
  183.2070  177.9890  141.4400 C   0  0  0  0  0  3  0  0  0  0  0  0
  184.5500  178.6930  141.3650 C   0  0  0  0  0  1  0  0  0  0  0  0
  181.5130  179.8770  137.1720 N   0  0  0  0  0  2  0  0  0  0  0  0
  180.7150  181.0020  137.6360 C   0  0  0  0  0  1  0  0  0  0  0  0
  189.2380  176.1420  138.1730 C   0  0  0  0  0  2  0  0  0  0  0  0
  191.4770  176.2700  137.0700 C   0  0  0  0  0  3  0  0  0  0  0  0
  190.3220  174.1400  137.0450 C   0  0  0  0  0  3  0  0  0  0  0  0
  191.3760  173.5690  136.3270 C   0  0  0  0  0  3  0  0  0  0  0  0
  190.3780  175.4870  137.4440 C   0  0  0  0  0  0  0  0  0  0  0  0
  192.5260  175.7050  136.3190 C   0  0  0  0  0  3  0  0  0  0  0  0
  192.4800  174.3470  135.9650 C   0  0  0  0  0  0  0  0  0  0  0  0
  193.5980  173.7340  135.1870 C   0  0  0  0  0  2  0  0  0  0  0  0
  195.7380  173.8250  136.4170 N   0  0  1  0  0  0  0  0  0  0  0  0
  197.6290  175.1350  135.7810 C   0  0  0  0  0  3  0  0  0  0  0  0
  196.7270  174.7940  136.9180 C   0  0  2  0  0  3  0  0  0  0  0  0
  194.8860  174.5060  135.4110 C   0  0  1  0  0  3  0  0  0  0  0  0
  196.0220  173.6810  134.9730 C   0  0  1  0  0  3  0  0  0  0  0  0
  197.2280  174.5200  134.6940 C   0  0  0  0  0  3  0  0  0  0  0  0
  198.3810  175.1370  138.6230 F   0  0  0  0  0  0  0  0  0  0  0  0
  198.2150  173.0630  137.7240 F   0  0  0  0  0  0  0  0  0  0  0  0
  196.6040  173.8720  139.1110 F   0  0  0  0  0  0  0  0  0  0  0  0
  197.5070  174.2020  138.1000 C   0  0  0  0  0  0  0  0  0  0  0  0
  1 36  1  1  0  0  0
  1  4  1  0  0  0  0
  2  6  1  0  0  0  0
  4  9  1  0  0  0  0
  4  5  2  0  0  0  0
  5  8  1  0  0  0  0
  8  7  1  0  0  0  0
  8  3  1  0  0  0  0
  8  6  1  0  0  0  0
  9  2  1  0  0  0  0
 10 11  2  0  0  0  0
 10  1  1  0  0  0  0
 13 20  1  0  0  0  0
 13 12  2  0  0  0  0
 14 19  2  0  0  0  0
 15 17  2  0  0  0  0
 15 14  1  0  0  0  0
 17 13  1  0  0  0  0
 18 12  1  0  0  0  0
 18 16  1  1  0  0  0
 19 18  1  0  0  0  0
 19 10  1  0  0  0  0
 21 20  1  0  0  0  0
 21 22  1  0  0  0  0
 22 23  1  0  0  0  0
 23 27  1  0  0  0  0
 24 29  2  0  0  0  0
 25 26  2  0  0  0  0
 26 29  1  0  0  0  0
 27 24  1  0  0  0  0
 28 25  1  0  0  0  0
 28 27  1  0  0  0  0
 29 32  1  0  0  0  0
 30 28  2  0  0  0  0
 32 31  1  0  0  0  0
 33 32  1  0  0  0  0
 34 35  1  0  0  0  0
 34 25  1  0  0  0  0
 37 40  1  0  0  0  0
 38 40  2  0  0  0  0
 39 38  1  0  0  0  0
 40 36  1  0  0  0  0
 41 37  2  0  0  0  0
 42 41  1  0  0  0  0
 42 39  2  0  0  0  0
 43 47  1  0  0  0  0
 43 42  1  0  0  0  0
 44 46  1  0  0  0  0
 45 46  1  0  0  0  0
 46 53  1  0  0  0  0
 47 44  1  0  0  0  0
 48 47  1  0  0  0  0
 48 44  1  0  0  0  0
 49 48  1  0  0  0  0
 49 45  2  0  0  0  0
 51 53  1  0  0  0  0
 53 50  1  0  0  0  0
 53 52  1  0  0  0  0
M  END
>  <MODEL>
7

>  <REMARK>
 VINA RESULT:      -6.9      3.225      7.375
  Name = 
  15 active torsions:
  status: ('A' for Active; 'I' for Inactive)
    1  A    between atoms: C_2  and  C_20
    2  A    between atoms: C_2  and  C_51
    3  A    between atoms: C_8  and  C_28
    4  A    between atoms: C_8  and  O_45
    5  A    between atoms: C_9  and  C_20
    6  A    between atoms: N_11  and  C_13
    7  A    between atoms: C_12  and  O_45
    8  A    between atoms: C_17  and  C_53
    9  A    between atoms: C_20  and  C_53
   10  A    between atoms: C_21  and  C_30
   11  A    between atoms: C_21  and  C_48
   12  A    between atoms: N_26  and  C_34
   13  A    between atoms: C_28  and  C_34
   14  A    between atoms: C_35  and  C_40
   15  A    between atoms: C_37  and  C_38
                            x       y       z     vdW  Elec       q    Type
                         _______ _______ _______ _____ _____    ______ ____

>  <TORSDO>
F 15

$$$$
=
 OpenBabel10232408323D

 53 58  0  0  1  0  0  0  0  0999 V2000
  187.7160  177.6790  144.3490 C   0  0  2  0  0  3  0  0  0  0  0  0
  187.8910  177.8760  148.1660 C   0  0  0  0  0  2  0  0  0  0  0  0
  189.8340  175.3220  147.8440 C   0  0  0  0  0  1  0  0  0  0  0  0
  188.3270  177.7540  145.7260 C   0  0  0  0  0  0  0  0  0  0  0  0
  189.3410  176.9160  146.0080 C   0  0  0  0  0  3  0  0  0  0  0  0
  189.3240  177.6650  148.3910 N   0  0  0  0  0  2  0  0  0  0  0  0
  191.4060  177.1380  147.2960 C   0  0  0  0  0  1  0  0  0  0  0  0
  189.9340  176.7700  147.3930 C   0  0  0  0  0  0  0  0  0  0  0  0
  187.6940  178.5730  146.8260 C   0  0  0  0  0  2  0  0  0  0  0  0
  186.2140  177.8380  144.2890 C   0  0  0  0  0  0  0  0  0  0  0  0
  185.4880  177.2950  145.1660 O   0  0  0  0  0  0  0  0  0  0  0  0
  183.2580  178.3920  142.3090 C   0  0  0  0  0  3  0  0  0  0  0  0
  183.4250  178.3600  140.9910 C   0  0  0  0  0  0  0  0  0  0  0  0
  186.2690  178.6970  142.0650 N   0  0  0  0  0  0  0  0  0  0  0  0
  185.8110  179.1710  140.7850 C   0  0  0  0  0  3  0  0  0  0  0  0
  183.6520  179.1300  144.5280 O   0  0  0  0  0  1  0  0  0  0  0  0
  184.5680  179.0080  140.3020 C   0  0  0  0  0  3  0  0  0  0  0  0
  184.1820  179.1110  143.2290 C   0  0  1  0  0  3  0  0  0  0  0  0
  185.5820  178.5570  143.1590 C   0  0  0  0  0  0  0  0  0  0  0  0
  182.4370  177.7140  140.2480 O   0  0  0  0  0  0  0  0  0  0  0  0
  182.6230  176.4160  139.6940 C   0  0  0  0  0  2  0  0  0  0  0  0
  183.2100  176.5610  138.3060 C   0  0  0  0  0  2  0  0  0  0  0  0
  183.4620  175.1830  137.7140 C   0  0  0  0  0  2  0  0  0  0  0  0
  185.5470  176.1340  137.0380 N   0  0  0  0  0  0  0  0  0  0  0  0
  186.8270  173.7100  136.9750 C   0  0  0  0  0  0  0  0  0  0  0  0
  187.5230  174.8790  136.6530 C   0  0  0  0  0  3  0  0  0  0  0  0
  184.8680  175.0310  137.3460 N   0  0  0  0  0  0  0  0  0  0  0  0
  185.4770  173.8050  137.3350 C   0  0  0  0  0  0  0  0  0  0  0  0
  186.8620  176.1020  136.6840 C   0  0  0  0  0  0  0  0  0  0  0  0
  184.8400  172.7670  137.6530 O   0  0  0  0  0  0  0  0  0  0  0  0
  189.0800  177.0360  136.1060 C   0  0  0  0  0  1  0  0  0  0  0  0
  187.6290  177.3670  136.4170 C   0  0  0  0  0  3  0  0  0  0  0  0
  187.5620  178.3150  137.6010 C   0  0  0  0  0  1  0  0  0  0  0  0
  187.4800  172.4330  136.9410 N   0  0  0  0  0  2  0  0  0  0  0  0
  187.4920  171.5730  135.7670 C   0  0  0  0  0  1  0  0  0  0  0  0
  188.2160  176.4450  143.5900 C   0  0  0  0  0  2  0  0  0  0  0  0
  188.9810  176.9440  141.2630 C   0  0  0  0  0  3  0  0  0  0  0  0
  190.6600  176.8240  143.0070 C   0  0  0  0  0  3  0  0  0  0  0  0
  191.6620  177.0880  142.0700 C   0  0  0  0  0  3  0  0  0  0  0  0
  189.3100  176.7770  142.6150 C   0  0  0  0  0  0  0  0  0  0  0  0
  189.9930  177.1790  140.3120 C   0  0  0  0  0  3  0  0  0  0  0  0
  191.3320  177.2690  140.7230 C   0  0  0  0  0  0  0  0  0  0  0  0
  192.4100  177.5380  139.7230 C   0  0  0  0  0  2  0  0  0  0  0  0
  193.3520  176.5090  137.6860 N   0  0  1  0  0  0  0  0  0  0  0  0
  192.1800  175.0210  136.2340 C   0  0  0  0  0  3  0  0  0  0  0  0
  193.0160  176.2530  136.2750 C   0  0  2  0  0  3  0  0  0  0  0  0
  192.1010  176.8420  138.4100 C   0  0  1  0  0  3  0  0  0  0  0  0
  192.6340  175.4720  138.4570 C   0  0  1  0  0  3  0  0  0  0  0  0
  191.9590  174.5910  137.4550 C   0  0  0  0  0  3  0  0  0  0  0  0
  194.6390  177.2980  134.8470 F   0  0  0  0  0  0  0  0  0  0  0  0
  194.1420  175.1210  134.4560 F   0  0  0  0  0  0  0  0  0  0  0  0
  195.3430  175.7390  136.2870 F   0  0  0  0  0  0  0  0  0  0  0  0
  194.2940  176.0970  135.4390 C   0  0  0  0  0  0  0  0  0  0  0  0
  1 36  1  1  0  0  0
  1  4  1  0  0  0  0
  2  6  1  0  0  0  0
  4  5  2  0  0  0  0
  4  9  1  0  0  0  0
  5  8  1  0  0  0  0
  7  8  1  0  0  0  0
  8  3  1  0  0  0  0
  8  6  1  0  0  0  0
  9  2  1  0  0  0  0
 10  1  1  0  0  0  0
 10 11  2  0  0  0  0
 12 18  1  0  0  0  0
 13 12  2  0  0  0  0
 14 19  2  0  0  0  0
 15 14  1  0  0  0  0
 17 15  2  0  0  0  0
 17 13  1  0  0  0  0
 18 16  1  1  0  0  0
 19 18  1  0  0  0  0
 19 10  1  0  0  0  0
 20 13  1  0  0  0  0
 21 20  1  0  0  0  0
 22 21  1  0  0  0  0
 23 22  1  0  0  0  0
 24 27  1  0  0  0  0
 25 28  1  0  0  0  0
 26 29  1  0  0  0  0
 26 25  2  0  0  0  0
 27 23  1  0  0  0  0
 28 27  1  0  0  0  0
 28 30  2  0  0  0  0
 29 24  2  0  0  0  0
 31 32  1  0  0  0  0
 32 29  1  0  0  0  0
 32 33  1  0  0  0  0
 34 25  1  0  0  0  0
 35 34  1  0  0  0  0
 37 40  1  0  0  0  0
 39 38  1  0  0  0  0
 40 38  2  0  0  0  0
 40 36  1  0  0  0  0
 41 42  1  0  0  0  0
 41 37  2  0  0  0  0
 42 39  2  0  0  0  0
 43 42  1  0  0  0  0
 44 47  1  0  0  0  0
 44 48  1  0  0  0  0
 45 46  1  0  0  0  0
 45 49  2  0  0  0  0
 46 44  1  0  0  0  0
 47 48  1  0  0  0  0
 47 43  1  0  0  0  0
 49 48  1  0  0  0  0
 50 53  1  0  0  0  0
 51 53  1  0  0  0  0
 53 46  1  0  0  0  0
 53 52  1  0  0  0  0
M  END
>  <MODEL>
8

>  <REMARK>
 VINA RESULT:      -6.9      2.560      8.216
  Name = 
  15 active torsions:
  status: ('A' for Active; 'I' for Inactive)
    1  A    between atoms: C_2  and  C_20
    2  A    between atoms: C_2  and  C_51
    3  A    between atoms: C_8  and  C_28
    4  A    between atoms: C_8  and  O_45
    5  A    between atoms: C_9  and  C_20
    6  A    between atoms: N_11  and  C_13
    7  A    between atoms: C_12  and  O_45
    8  A    between atoms: C_17  and  C_53
    9  A    between atoms: C_20  and  C_53
   10  A    between atoms: C_21  and  C_30
   11  A    between atoms: C_21  and  C_48
   12  A    between atoms: N_26  and  C_34
   13  A    between atoms: C_28  and  C_34
   14  A    between atoms: C_35  and  C_40
   15  A    between atoms: C_37  and  C_38
                            x       y       z     vdW  Elec       q    Type
                         _______ _______ _______ _____ _____    ______ ____

>  <TORSDO>
F 15

$$$$
=
 OpenBabel10232408323D

 53 58  0  0  1  0  0  0  0  0999 V2000
  190.6210  175.1580  135.4980 C   0  0  2  0  0  3  0  0  0  0  0  0
  194.3790  175.2410  134.7780 C   0  0  0  0  0  2  0  0  0  0  0  0
  194.4220  172.6020  136.6310 C   0  0  0  0  0  1  0  0  0  0  0  0
  191.9810  174.6670  135.0660 C   0  0  0  0  0  0  0  0  0  0  0  0
  192.3830  173.4620  135.5100 C   0  0  0  0  0  3  0  0  0  0  0  0
  194.6430  173.8240  134.5090 N   0  0  0  0  0  2  0  0  0  0  0  0
  193.6470  171.6280  134.5060 C   0  0  0  0  0  1  0  0  0  0  0  0
  193.7810  172.9230  135.2920 C   0  0  0  0  0  0  0  0  0  0  0  0
  192.9560  175.5720  134.3490 C   0  0  0  0  0  2  0  0  0  0  0  0
  190.3640  175.1470  136.9870 C   0  0  0  0  0  0  0  0  0  0  0  0
  190.0930  174.0630  137.5720 O   0  0  0  0  0  0  0  0  0  0  0  0
  191.2300  176.8840  140.0200 C   0  0  0  0  0  3  0  0  0  0  0  0
  190.2630  177.6080  140.5730 C   0  0  0  0  0  0  0  0  0  0  0  0
  189.2560  177.1260  137.7260 N   0  0  0  0  0  0  0  0  0  0  0  0
  188.9260  178.2720  138.5320 C   0  0  0  0  0  3  0  0  0  0  0  0
  192.7050  176.1900  138.2980 O   0  0  0  0  0  1  0  0  0  0  0  0
  189.3510  178.4770  139.7900 C   0  0  0  0  0  3  0  0  0  0  0  0
  191.5220  176.8960  138.5600 C   0  0  1  0  0  3  0  0  0  0  0  0
  190.3440  176.4160  137.7520 C   0  0  0  0  0  0  0  0  0  0  0  0
  190.1560  177.5570  141.9630 O   0  0  0  0  0  0  0  0  0  0  0  0
  191.2950  177.5710  142.8180 C   0  0  0  0  0  2  0  0  0  0  0  0
  191.3670  176.2490  143.5510 C   0  0  0  0  0  2  0  0  0  0  0  0
  191.5700  176.5010  145.0370 C   0  0  0  0  0  2  0  0  0  0  0  0
  189.2260  176.9460  144.8990 N   0  0  0  0  0  0  0  0  0  0  0  0
  189.0260  177.6250  147.5480 C   0  0  0  0  0  0  0  0  0  0  0  0
  187.8940  177.6560  146.7300 C   0  0  0  0  0  3  0  0  0  0  0  0
  190.3160  176.9130  145.6640 N   0  0  0  0  0  0  0  0  0  0  0  0
  190.2520  177.2350  146.9930 C   0  0  0  0  0  0  0  0  0  0  0  0
  188.0080  177.3140  145.3860 C   0  0  0  0  0  0  0  0  0  0  0  0
  191.2780  177.1760  147.7200 O   0  0  0  0  0  0  0  0  0  0  0  0
  187.1550  177.5080  143.0710 C   0  0  0  0  0  1  0  0  0  0  0  0
  186.7780  177.2690  144.5250 C   0  0  0  0  0  3  0  0  0  0  0  0
  185.7550  178.3000  144.9650 C   0  0  0  0  0  1  0  0  0  0  0  0
  188.9400  177.9820  148.9360 N   0  0  0  0  0  2  0  0  0  0  0  0
  187.6800  178.0880  149.6550 C   0  0  0  0  0  1  0  0  0  0  0  0
  189.5090  174.4760  134.6940 C   0  0  0  0  0  2  0  0  0  0  0  0
  187.1560  174.2660  135.5100 C   0  0  0  0  0  3  0  0  0  0  0  0
  187.8480  176.3950  134.5820 C   0  0  0  0  0  3  0  0  0  0  0  0
  186.5690  176.9140  134.7990 C   0  0  0  0  0  3  0  0  0  0  0  0
  188.1580  175.0770  134.9610 C   0  0  0  0  0  0  0  0  0  0  0  0
  185.8570  174.7770  135.7000 C   0  0  0  0  0  3  0  0  0  0  0  0
  185.5730  176.1090  135.3600 C   0  0  0  0  0  0  0  0  0  0  0  0
  184.2030  176.6660  135.5780 C   0  0  0  0  0  2  0  0  0  0  0  0
  184.0610  177.8510  137.7410 N   0  0  1  0  0  0  0  0  0  0  0  0
  182.7320  177.1570  139.5980 C   0  0  0  0  0  3  0  0  0  0  0  0
  184.0980  177.5920  139.1890 C   0  0  2  0  0  3  0  0  0  0  0  0
  183.8170  176.5640  137.0430 C   0  0  1  0  0  3  0  0  0  0  0  0
  182.6970  177.4800  137.3080 C   0  0  1  0  0  3  0  0  0  0  0  0
  181.9540  177.0860  138.5440 C   0  0  0  0  0  3  0  0  0  0  0  0
  183.9450  178.9020  141.1950 F   0  0  0  0  0  0  0  0  0  0  0  0
  184.2350  180.0080  139.2380 F   0  0  0  0  0  0  0  0  0  0  0  0
  185.9200  178.7860  140.1540 F   0  0  0  0  0  0  0  0  0  0  0  0
  184.5420  178.8500  139.9490 C   0  0  0  0  0  0  0  0  0  0  0  0
  1 36  1  6  0  0  0
  1 10  1  0  0  0  0
  4  1  1  0  0  0  0
  4  5  2  0  0  0  0
  6  2  1  0  0  0  0
  6  8  1  0  0  0  0
  7  8  1  0  0  0  0
  8  5  1  0  0  0  0
  8  3  1  0  0  0  0
  9  2  1  0  0  0  0
  9  4  1  0  0  0  0
 10 11  2  0  0  0  0
 10 19  1  0  0  0  0
 12 13  2  0  0  0  0
 13 20  1  0  0  0  0
 14 19  2  0  0  0  0
 14 15  1  0  0  0  0
 15 17  2  0  0  0  0
 17 13  1  0  0  0  0
 18 16  1  1  0  0  0
 18 12  1  0  0  0  0
 19 18  1  0  0  0  0
 20 21  1  0  0  0  0
 21 22  1  0  0  0  0
 22 23  1  0  0  0  0
 23 27  1  0  0  0  0
 24 29  2  0  0  0  0
 24 27  1  0  0  0  0
 25 34  1  0  0  0  0
 26 25  2  0  0  0  0
 27 28  1  0  0  0  0
 28 25  1  0  0  0  0
 28 30  2  0  0  0  0
 29 26  1  0  0  0  0
 31 32  1  0  0  0  0
 32 33  1  0  0  0  0
 32 29  1  0  0  0  0
 34 35  1  0  0  0  0
 36 40  1  0  0  0  0
 37 41  1  0  0  0  0
 38 39  2  0  0  0  0
 38 40  1  0  0  0  0
 39 42  1  0  0  0  0
 40 37  2  0  0  0  0
 42 43  1  0  0  0  0
 42 41  2  0  0  0  0
 43 47  1  0  0  0  0
 44 46  1  0  0  0  0
 46 45  1  0  0  0  0
 46 53  1  0  0  0  0
 47 48  1  0  0  0  0
 47 44  1  0  0  0  0
 48 44  1  0  0  0  0
 48 49  1  0  0  0  0
 49 45  2  0  0  0  0
 51 53  1  0  0  0  0
 53 52  1  0  0  0  0
 53 50  1  0  0  0  0
M  END
>  <MODEL>
9

>  <REMARK>
 VINA RESULT:      -6.9      3.034      7.497
  Name = 
  15 active torsions:
  status: ('A' for Active; 'I' for Inactive)
    1  A    between atoms: C_2  and  C_20
    2  A    between atoms: C_2  and  C_51
    3  A    between atoms: C_8  and  C_28
    4  A    between atoms: C_8  and  O_45
    5  A    between atoms: C_9  and  C_20
    6  A    between atoms: N_11  and  C_13
    7  A    between atoms: C_12  and  O_45
    8  A    between atoms: C_17  and  C_53
    9  A    between atoms: C_20  and  C_53
   10  A    between atoms: C_21  and  C_30
   11  A    between atoms: C_21  and  C_48
   12  A    between atoms: N_26  and  C_34
   13  A    between atoms: C_28  and  C_34
   14  A    between atoms: C_35  and  C_40
   15  A    between atoms: C_37  and  C_38
                            x       y       z     vdW  Elec       q    Type
                         _______ _______ _______ _____ _____    ______ ____

>  <TORSDO>
F 15

$$$$
