=
 OpenBabel10232408453D

 55 60  0  0  1  0  0  0  0  0999 V2000
  189.1620  177.1010  141.7020 C   0  0  0  0  0  3  0  0  0  0  0  0
  188.1420  177.4490  142.4930 C   0  0  0  0  0  0  0  0  0  0  0  0
  186.9090  178.4400  140.6180 C   0  0  0  0  0  0  0  0  0  0  0  0
  185.5290  178.4390  138.6300 C   0  0  0  0  0  3  0  0  0  0  0  0
  189.1840  177.9780  135.8930 C   0  0  0  0  0  2  0  0  0  0  0  0
  186.7780  177.4630  135.4460 C   0  0  0  0  0  2  0  0  0  0  0  0
  187.8440  177.6810  138.5000 C   0  0  0  0  0  0  0  0  0  0  0  0
  188.1500  178.3350  139.7660 C   0  0  2  0  0  3  0  0  0  0  0  0
  186.6190  177.6870  137.9410 C   0  0  0  0  0  0  0  0  0  0  0  0
  189.7300  176.6070  139.3840 O   0  0  0  0  0  0  0  0  0  0  0  0
  185.6530  178.8090  139.9150 C   0  0  0  0  0  0  0  0  0  0  0  0
  186.9310  178.0630  141.9010 C   0  0  0  0  0  3  0  0  0  0  0  0
  186.3290  176.8130  136.7470 C   0  0  1  0  0  3  0  0  0  0  0  0
  188.2160  177.0810  135.1340 C   0  0  0  0  0  2  0  0  0  0  0  0
  189.1270  177.4150  140.3040 N   0  0  0  0  0  0  0  0  0  0  0  0
  189.8710  177.2820  137.0790 C   0  0  1  0  0  3  0  0  0  0  0  0
  188.9590  176.7370  138.1940 C   0  0  2  0  0  3  0  0  0  0  0  0
  184.4250  175.2830  137.3860 N   0  0  0  0  0  0  0  0  0  0  0  0
  183.9140  176.8840  135.9090 C   0  0  0  0  0  3  0  0  0  0  0  0
  183.1340  175.2310  137.0090 C   0  0  0  0  0  0  0  0  0  0  0  0
  184.9070  176.3250  136.6860 C   0  0  0  0  0  0  0  0  0  0  0  0
  182.7850  176.1820  136.1170 N   0  0  0  0  0  2  0  0  0  0  0  0
  182.1700  174.2350  137.5540 C   0  0  0  0  0  2  0  0  0  0  0  0
  181.0240  175.4370  139.1930 C   0  0  0  0  0  1  0  0  0  0  0  0
  180.9080  174.8890  137.8520 N   0  0  0  0  0  2  0  0  0  0  0  0
  183.3740  178.8630  140.8940 C   0  0  0  0  0  1  0  0  0  0  0  0
  184.5940  179.4880  140.5270 O   0  0  0  0  0  0  0  0  0  0  0  0
  190.9360  176.2760  136.6390 C   0  0  0  0  0  2  0  0  0  0  0  0
  190.3850  174.9340  136.5300 N   0  0  0  0  0  2  0  0  0  0  0  0
  191.3630  174.0270  137.1130 C   0  0  0  0  0  2  0  0  0  0  0  0
  192.3510  173.6010  136.0730 C   0  0  0  0  0  0  0  0  0  0  0  0
  191.9460  173.3930  134.8980 O   0  0  0  0  0  0  0  0  0  0  0  0
  195.9500  174.4050  139.2880 C   0  0  0  0  0  1  0  0  0  0  0  0
  195.4380  174.4110  137.8580 C   0  0  1  0  0  3  0  0  0  0  0  0
  196.5100  173.8970  136.8890 C   0  0  2  0  0  3  0  0  0  0  0  0
  193.7360  173.4170  136.4030 N   0  0  0  0  0  0  0  0  0  0  0  0
  194.6880  173.0000  135.3740 C   0  0  1  0  0  3  0  0  0  0  0  0
  197.7240  174.8100  136.8990 C   0  0  0  0  0  1  0  0  0  0  0  0
  194.1950  173.5300  137.7850 C   0  0  0  0  0  2  0  0  0  0  0  0
  195.9600  173.8420  135.4630 C   0  0  0  0  0  2  0  0  0  0  0  0
  195.0050  171.5190  135.5070 C   0  0  0  0  0  1  0  0  0  0  0  0
  188.2100  177.1630  143.8550 O   0  0  0  0  0  0  0  0  0  0  0  0
  187.4150  177.8230  144.7680 N   0  0  0  0  0  0  0  0  0  0  0  0
  187.6360  177.7600  146.0450 C   0  0  0  0  0  0  0  0  0  0  0  0
  188.5200  176.6660  147.9630 O   0  0  0  0  0  1  0  0  0  0  0  0
  188.7720  176.9650  146.6220 C   0  0  2  0  0  3  0  0  0  0  0  0
  190.0830  177.7270  146.4850 C   0  0  0  0  0  2  0  0  0  0  0  0
  191.1930  176.8290  146.0390 C   0  0  0  0  0  0  0  0  0  0  0  0
  191.9300  176.0090  147.0350 C   0  0  0  0  0  1  0  0  0  0  0  0
  191.5190  176.7910  144.8650 O   0  0  0  0  0  0  0  0  0  0  0  0
  186.7510  178.5200  146.9720 C   0  0  0  0  0  2  0  0  0  0  0  0
  185.1830  179.2540  145.1380 N   0  0  0  0  0  2  0  0  0  0  0  0
  185.3780  178.6270  146.4060 C   0  0  0  0  0  0  0  0  0  0  0  0
  183.8580  179.4580  144.5770 C   0  0  0  0  0  1  0  0  0  0  0  0
  184.3990  178.1880  147.0650 O   0  0  0  0  0  0  0  0  0  0  0  0
  1  2  2  0  0  0  0
  2 42  1  0  0  0  0
  3 12  2  0  0  0  0
  4 11  2  0  0  0  0
  5 16  1  0  0  0  0
  6 13  1  0  0  0  0
  8  7  1  6  0  0  0
  8 15  1  0  0  0  0
  8  3  1  0  0  0  0
  9  7  2  0  0  0  0
  9  4  1  0  0  0  0
 10 15  1  0  0  0  0
 11 27  1  0  0  0  0
 11  3  1  0  0  0  0
 12  2  1  0  0  0  0
 13 21  1  6  0  0  0
 13  9  1  0  0  0  0
 14  6  1  0  0  0  0
 14  5  1  0  0  0  0
 15  1  1  0  0  0  0
 16 28  1  6  0  0  0
 16 17  1  0  0  0  0
 17  7  1  1  0  0  0
 17 10  1  0  0  0  0
 19 22  1  0  0  0  0
 19 21  2  0  0  0  0
 20 18  2  0  0  0  0
 20 23  1  0  0  0  0
 21 18  1  0  0  0  0
 22 20  1  0  0  0  0
 23 25  1  0  0  0  0
 25 24  1  0  0  0  0
 27 26  1  0  0  0  0
 29 28  1  0  0  0  0
 29 30  1  0  0  0  0
 31 36  1  0  0  0  0
 31 30  1  0  0  0  0
 32 31  2  0  0  0  0
 34 33  1  1  0  0  0
 35 38  1  6  0  0  0
 35 34  1  0  0  0  0
 36 39  1  0  0  0  0
 37 40  1  0  0  0  0
 37 41  1  1  0  0  0
 37 36  1  0  0  0  0
 39 34  1  0  0  0  0
 40 35  1  0  0  0  0
 42 43  1  0  0  0  0
 43 44  2  0  0  0  0
 44 46  1  0  0  0  0
 44 51  1  0  0  0  0
 46 45  1  1  0  0  0
 47 46  1  0  0  0  0
 48 47  1  0  0  0  0
 48 49  1  0  0  0  0
 50 48  2  0  0  0  0
 52 53  1  0  0  0  0
 53 51  1  0  0  0  0
 53 55  2  0  0  0  0
 54 52  1  0  0  0  0
M  END
>  <MODEL>
1

>  <REMARK>
 VINA RESULT:      -8.5      0.000      0.000
  Name = 
  15 active torsions:
  status: ('A' for Active; 'I' for Inactive)
    1  A    between atoms: C_1  and  C_32
    2  A    between atoms: C_4  and  C_43
    3  A    between atoms: N_7  and  O_31
    4  A    between atoms: C_9  and  O_31
    5  A    between atoms: C_17  and  C_22
    6  A    between atoms: C_17  and  C_33
    7  A    between atoms: C_20  and  C_52
    8  A    between atoms: C_20  and  N_53
    9  A    between atoms: C_23  and  C_33
   10  A    between atoms: C_23  and  C_43
   11  A    between atoms: C_26  and  C_27
   12  A    between atoms: C_27  and  N_45
   13  A    between atoms: C_29  and  C_46
   14  A    between atoms: C_32  and  N_53
   15  A    between atoms: C_38  and  O_54
                            x       y       z     vdW  Elec       q    Type
                         _______ _______ _______ _____ _____    ______ ____

>  <TORSDO>
F 15

$$$$
=
 OpenBabel10232408453D

 55 60  0  0  1  0  0  0  0  0999 V2000
  190.3080  177.5930  140.9410 C   0  0  0  0  0  3  0  0  0  0  0  0
  189.1290  178.1020  141.3120 C   0  0  0  0  0  0  0  0  0  0  0  0
  188.2890  178.0720  139.0070 C   0  0  0  0  0  0  0  0  0  0  0  0
  187.3700  177.0800  137.0000 C   0  0  0  0  0  3  0  0  0  0  0  0
  191.5440  176.0100  135.4190 C   0  0  0  0  0  2  0  0  0  0  0  0
  189.3140  175.0550  134.8150 C   0  0  0  0  0  2  0  0  0  0  0  0
  189.6880  176.6380  137.6190 C   0  0  0  0  0  0  0  0  0  0  0  0
  189.6880  177.7870  138.5170 C   0  0  2  0  0  3  0  0  0  0  0  0
  188.6120  176.2580  136.9040 C   0  0  0  0  0  0  0  0  0  0  0  0
  191.3810  176.2720  139.1970 O   0  0  0  0  0  0  0  0  0  0  0  0
  187.2000  177.9570  138.0030 C   0  0  0  0  0  0  0  0  0  0  0  0
  188.0510  178.2600  140.3100 C   0  0  0  0  0  3  0  0  0  0  0  0
  188.6210  174.9430  136.1660 C   0  0  1  0  0  3  0  0  0  0  0  0
  190.7990  174.7650  134.9570 C   0  0  0  0  0  2  0  0  0  0  0  0
  190.5630  177.3010  139.5610 N   0  0  0  0  0  0  0  0  0  0  0  0
  191.9880  175.9550  136.8900 C   0  0  1  0  0  3  0  0  0  0  0  0
  190.8790  175.8030  137.9490 C   0  0  2  0  0  3  0  0  0  0  0  0
  186.5630  173.8310  137.1160 N   0  0  0  0  0  0  0  0  0  0  0  0
  186.5700  174.0990  134.8940 C   0  0  0  0  0  3  0  0  0  0  0  0
  185.4420  173.3520  136.5440 C   0  0  0  0  0  0  0  0  0  0  0  0
  187.2670  174.2960  136.0680 C   0  0  0  0  0  0  0  0  0  0  0  0
  185.4070  173.4950  135.2030 N   0  0  0  0  0  2  0  0  0  0  0  0
  184.3280  172.7500  137.3270 C   0  0  0  0  0  2  0  0  0  0  0  0
  183.0860  174.6830  137.7360 C   0  0  0  0  0  1  0  0  0  0  0  0
  183.0830  173.4270  137.0040 N   0  0  0  0  0  2  0  0  0  0  0  0
  184.7390  178.0890  138.2880 C   0  0  0  0  0  1  0  0  0  0  0  0
  186.0080  178.6860  138.0680 O   0  0  0  0  0  0  0  0  0  0  0  0
  193.1620  175.0030  137.1190 C   0  0  0  0  0  2  0  0  0  0  0  0
  194.4160  175.7300  137.2540 N   0  0  0  0  0  2  0  0  0  0  0  0
  195.1210  175.5950  135.9890 C   0  0  0  0  0  2  0  0  0  0  0  0
  196.4830  175.0200  136.2190 C   0  0  0  0  0  0  0  0  0  0  0  0
  197.4270  175.7970  136.5240 O   0  0  0  0  0  0  0  0  0  0  0  0
  194.5490  170.5370  135.9100 C   0  0  0  0  0  1  0  0  0  0  0  0
  195.5690  171.4910  136.5060 C   0  0  1  0  0  3  0  0  0  0  0  0
  196.9400  170.8160  136.6380 C   0  0  2  0  0  3  0  0  0  0  0  0
  196.7220  173.6100  136.0840 N   0  0  0  0  0  0  0  0  0  0  0  0
  198.0600  173.0650  136.3120 C   0  0  1  0  0  3  0  0  0  0  0  0
  196.8680  169.6360  137.5920 C   0  0  0  0  0  1  0  0  0  0  0  0
  195.6690  172.7180  135.6060 C   0  0  0  0  0  2  0  0  0  0  0  0
  197.9740  171.8070  137.1750 C   0  0  0  0  0  2  0  0  0  0  0  0
  198.7520  172.7750  134.9910 C   0  0  0  0  0  1  0  0  0  0  0  0
  188.9150  178.4100  142.6540 O   0  0  0  0  0  0  0  0  0  0  0  0
  187.7480  178.0490  143.2950 N   0  0  0  0  0  0  0  0  0  0  0  0
  187.7450  177.5670  144.5000 C   0  0  0  0  0  0  0  0  0  0  0  0
  189.8590  176.4830  144.6140 O   0  0  0  0  0  1  0  0  0  0  0  0
  189.0100  177.3670  145.2840 C   0  0  2  0  0  3  0  0  0  0  0  0
  188.6990  176.8490  146.6820 C   0  0  0  0  0  2  0  0  0  0  0  0
  189.6190  177.4400  147.7020 C   0  0  0  0  0  0  0  0  0  0  0  0
  189.1010  178.4280  148.6830 C   0  0  0  0  0  1  0  0  0  0  0  0
  190.8000  177.1390  147.7130 O   0  0  0  0  0  0  0  0  0  0  0  0
  186.4450  177.2240  145.1400 C   0  0  0  0  0  2  0  0  0  0  0  0
  184.4370  178.4230  144.1970 N   0  0  0  0  0  2  0  0  0  0  0  0
  185.5290  178.3980  145.1160 C   0  0  0  0  0  0  0  0  0  0  0  0
  183.5620  179.5760  144.0730 C   0  0  0  0  0  1  0  0  0  0  0  0
  185.7440  179.3700  145.8860 O   0  0  0  0  0  0  0  0  0  0  0  0
  1  2  2  0  0  0  0
  2 42  1  0  0  0  0
  3 12  2  0  0  0  0
  4 11  2  0  0  0  0
  5 16  1  0  0  0  0
  6 14  1  0  0  0  0
  6 13  1  0  0  0  0
  8  7  1  6  0  0  0
  8  3  1  0  0  0  0
  8 15  1  0  0  0  0
  9  4  1  0  0  0  0
  9  7  2  0  0  0  0
 10 15  1  0  0  0  0
 11 27  1  0  0  0  0
 11  3  1  0  0  0  0
 12  2  1  0  0  0  0
 13 21  1  6  0  0  0
 13  9  1  0  0  0  0
 14  5  1  0  0  0  0
 15  1  1  0  0  0  0
 16 28  1  6  0  0  0
 16 17  1  0  0  0  0
 17  7  1  6  0  0  0
 17 10  1  0  0  0  0
 19 22  1  0  0  0  0
 19 21  2  0  0  0  0
 20 18  2  0  0  0  0
 20 23  1  0  0  0  0
 21 18  1  0  0  0  0
 22 20  1  0  0  0  0
 25 23  1  0  0  0  0
 25 24  1  0  0  0  0
 27 26  1  0  0  0  0
 28 29  1  0  0  0  0
 30 31  1  0  0  0  0
 30 29  1  0  0  0  0
 31 32  2  0  0  0  0
 34 33  1  6  0  0  0
 34 35  1  0  0  0  0
 35 40  1  0  0  0  0
 35 38  1  1  0  0  0
 36 31  1  0  0  0  0
 36 37  1  0  0  0  0
 37 41  1  6  0  0  0
 37 40  1  0  0  0  0
 39 36  1  0  0  0  0
 39 34  1  0  0  0  0
 42 43  1  0  0  0  0
 43 44  2  0  0  0  0
 44 51  1  0  0  0  0
 44 46  1  0  0  0  0
 46 45  1  6  0  0  0
 46 47  1  0  0  0  0
 47 48  1  0  0  0  0
 48 50  2  0  0  0  0
 48 49  1  0  0  0  0
 52 53  1  0  0  0  0
 53 51  1  0  0  0  0
 53 55  2  0  0  0  0
 54 52  1  0  0  0  0
M  END
>  <MODEL>
2

>  <REMARK>
 VINA RESULT:      -8.4      2.108      3.025
  Name = 
  15 active torsions:
  status: ('A' for Active; 'I' for Inactive)
    1  A    between atoms: C_1  and  C_32
    2  A    between atoms: C_4  and  C_43
    3  A    between atoms: N_7  and  O_31
    4  A    between atoms: C_9  and  O_31
    5  A    between atoms: C_17  and  C_22
    6  A    between atoms: C_17  and  C_33
    7  A    between atoms: C_20  and  C_52
    8  A    between atoms: C_20  and  N_53
    9  A    between atoms: C_23  and  C_33
   10  A    between atoms: C_23  and  C_43
   11  A    between atoms: C_26  and  C_27
   12  A    between atoms: C_27  and  N_45
   13  A    between atoms: C_29  and  C_46
   14  A    between atoms: C_32  and  N_53
   15  A    between atoms: C_38  and  O_54
                            x       y       z     vdW  Elec       q    Type
                         _______ _______ _______ _____ _____    ______ ____

>  <TORSDO>
F 15

$$$$
=
 OpenBabel10232408453D

 55 60  0  0  1  0  0  0  0  0999 V2000
  189.2020  177.1010  141.5780 C   0  0  0  0  0  3  0  0  0  0  0  0
  188.1870  177.4740  142.3630 C   0  0  0  0  0  0  0  0  0  0  0  0
  186.9550  178.4270  140.4680 C   0  0  0  0  0  0  0  0  0  0  0  0
  185.5700  178.3880  138.4830 C   0  0  0  0  0  3  0  0  0  0  0  0
  189.2150  177.8410  135.7500 C   0  0  0  0  0  2  0  0  0  0  0  0
  186.8050  177.3300  135.3200 C   0  0  0  0  0  2  0  0  0  0  0  0
  187.8800  177.6130  138.3660 C   0  0  0  0  0  0  0  0  0  0  0  0
  188.1930  178.2960  139.6160 C   0  0  2  0  0  3  0  0  0  0  0  0
  186.6530  177.6130  137.8100 C   0  0  0  0  0  0  0  0  0  0  0  0
  189.7620  176.5500  139.2710 O   0  0  0  0  0  0  0  0  0  0  0  0
  185.6990  178.7880  139.7600 C   0  0  0  0  0  0  0  0  0  0  0  0
  186.9780  178.0810  141.7590 C   0  0  0  0  0  3  0  0  0  0  0  0
  186.3550  176.7140  136.6370 C   0  0  1  0  0  3  0  0  0  0  0  0
  188.2400  176.9320  135.0140 C   0  0  0  0  0  2  0  0  0  0  0  0
  189.1660  177.3820  140.1730 N   0  0  0  0  0  0  0  0  0  0  0  0
  189.9010  177.1690  136.9500 C   0  0  1  0  0  3  0  0  0  0  0  0
  188.9880  176.6560  138.0800 C   0  0  2  0  0  3  0  0  0  0  0  0
  184.5350  174.9800  136.8800 N   0  0  0  0  0  0  0  0  0  0  0  0
  183.8450  177.0140  136.2520 C   0  0  0  0  0  3  0  0  0  0  0  0
  183.2020  175.0300  136.7020 C   0  0  0  0  0  0  0  0  0  0  0  0
  184.9300  176.2330  136.5910 C   0  0  0  0  0  0  0  0  0  0  0  0
  182.7450  176.2410  136.3230 N   0  0  0  0  0  2  0  0  0  0  0  0
  182.3100  173.8610  136.9370 C   0  0  0  0  0  2  0  0  0  0  0  0
  182.8190  171.6990  136.2220 C   0  0  0  0  0  1  0  0  0  0  0  0
  183.1110  172.6890  137.2450 N   0  0  0  0  0  2  0  0  0  0  0  0
  183.2780  179.2250  140.0820 C   0  0  0  0  0  1  0  0  0  0  0  0
  184.6460  179.4870  140.3580 O   0  0  0  0  0  0  0  0  0  0  0  0
  190.9590  176.1470  136.5310 C   0  0  0  0  0  2  0  0  0  0  0  0
  192.1960  176.3290  137.2770 N   0  0  0  0  0  2  0  0  0  0  0  0
  192.5270  175.0400  137.8650 C   0  0  0  0  0  2  0  0  0  0  0  0
  194.0120  174.8930  137.9750 C   0  0  0  0  0  0  0  0  0  0  0  0
  194.6550  175.7200  138.6760 O   0  0  0  0  0  0  0  0  0  0  0  0
  193.6770  170.6230  135.6110 C   0  0  0  0  0  1  0  0  0  0  0  0
  194.3450  171.4990  136.6560 C   0  0  1  0  0  3  0  0  0  0  0  0
  195.8670  171.3120  136.6370 C   0  0  2  0  0  3  0  0  0  0  0  0
  194.7030  173.8380  137.2870 N   0  0  0  0  0  0  0  0  0  0  0  0
  196.1540  173.7090  137.4060 C   0  0  1  0  0  3  0  0  0  0  0  0
  196.2370  169.8830  136.9940 C   0  0  0  0  0  1  0  0  0  0  0  0
  193.9880  172.9540  136.3710 C   0  0  0  0  0  2  0  0  0  0  0  0
  196.5340  172.2490  137.6460 C   0  0  0  0  0  2  0  0  0  0  0  0
  196.8430  174.2550  136.1650 C   0  0  0  0  0  1  0  0  0  0  0  0
  188.2570  177.2190  143.7310 O   0  0  0  0  0  0  0  0  0  0  0  0
  187.4710  177.9080  144.6310 N   0  0  0  0  0  0  0  0  0  0  0  0
  187.6690  177.8390  145.9110 C   0  0  0  0  0  0  0  0  0  0  0  0
  188.4870  176.7240  147.8460 O   0  0  0  0  0  1  0  0  0  0  0  0
  188.7670  177.0060  146.5070 C   0  0  2  0  0  3  0  0  0  0  0  0
  190.1080  177.7170  146.3830 C   0  0  0  0  0  2  0  0  0  0  0  0
  191.2040  176.7620  146.0310 C   0  0  0  0  0  0  0  0  0  0  0  0
  191.5190  176.4870  144.6050 C   0  0  0  0  0  1  0  0  0  0  0  0
  191.8200  176.1820  146.9090 O   0  0  0  0  0  0  0  0  0  0  0  0
  186.7970  178.6320  146.8230 C   0  0  0  0  0  2  0  0  0  0  0  0
  185.1450  179.2390  145.0170 N   0  0  0  0  0  2  0  0  0  0  0  0
  185.4030  178.6710  146.3020 C   0  0  0  0  0  0  0  0  0  0  0  0
  183.7960  179.3780  144.4950 C   0  0  0  0  0  1  0  0  0  0  0  0
  184.4620  178.2300  147.0110 O   0  0  0  0  0  0  0  0  0  0  0  0
  1  2  2  0  0  0  0
  2 42  1  0  0  0  0
  3 12  2  0  0  0  0
  4 11  2  0  0  0  0
  5 16  1  0  0  0  0
  6 13  1  0  0  0  0
  8  7  1  6  0  0  0
  8 15  1  0  0  0  0
  8  3  1  0  0  0  0
  9  7  2  0  0  0  0
  9  4  1  0  0  0  0
 10 15  1  0  0  0  0
 11 27  1  0  0  0  0
 11  3  1  0  0  0  0
 12  2  1  0  0  0  0
 13 21  1  6  0  0  0
 13  9  1  0  0  0  0
 14  6  1  0  0  0  0
 14  5  1  0  0  0  0
 15  1  1  0  0  0  0
 16 28  1  6  0  0  0
 16 17  1  0  0  0  0
 17  7  1  1  0  0  0
 17 10  1  0  0  0  0
 19 22  1  0  0  0  0
 19 21  2  0  0  0  0
 20 18  2  0  0  0  0
 20 23  1  0  0  0  0
 21 18  1  0  0  0  0
 22 20  1  0  0  0  0
 23 25  1  0  0  0  0
 24 25  1  0  0  0  0
 26 27  1  0  0  0  0
 28 29  1  0  0  0  0
 29 30  1  0  0  0  0
 30 31  1  0  0  0  0
 31 32  2  0  0  0  0
 34 33  1  6  0  0  0
 35 34  1  0  0  0  0
 35 38  1  1  0  0  0
 35 40  1  0  0  0  0
 36 37  1  0  0  0  0
 36 31  1  0  0  0  0
 37 41  1  6  0  0  0
 37 40  1  0  0  0  0
 39 34  1  0  0  0  0
 39 36  1  0  0  0  0
 42 43  1  0  0  0  0
 43 44  2  0  0  0  0
 44 46  1  0  0  0  0
 44 51  1  0  0  0  0
 46 45  1  1  0  0  0
 47 46  1  0  0  0  0
 48 47  1  0  0  0  0
 48 50  2  0  0  0  0
 49 48  1  0  0  0  0
 52 53  1  0  0  0  0
 53 51  1  0  0  0  0
 53 55  2  0  0  0  0
 54 52  1  0  0  0  0
M  END
>  <MODEL>
3

>  <REMARK>
 VINA RESULT:      -8.1      1.233      1.913
  Name = 
  15 active torsions:
  status: ('A' for Active; 'I' for Inactive)
    1  A    between atoms: C_1  and  C_32
    2  A    between atoms: C_4  and  C_43
    3  A    between atoms: N_7  and  O_31
    4  A    between atoms: C_9  and  O_31
    5  A    between atoms: C_17  and  C_22
    6  A    between atoms: C_17  and  C_33
    7  A    between atoms: C_20  and  C_52
    8  A    between atoms: C_20  and  N_53
    9  A    between atoms: C_23  and  C_33
   10  A    between atoms: C_23  and  C_43
   11  A    between atoms: C_26  and  C_27
   12  A    between atoms: C_27  and  N_45
   13  A    between atoms: C_29  and  C_46
   14  A    between atoms: C_32  and  N_53
   15  A    between atoms: C_38  and  O_54
                            x       y       z     vdW  Elec       q    Type
                         _______ _______ _______ _____ _____    ______ ____

>  <TORSDO>
F 15

$$$$
=
 OpenBabel10232408453D

 55 60  0  0  1  0  0  0  0  0999 V2000
  189.8080  177.6670  141.5340 C   0  0  0  0  0  3  0  0  0  0  0  0
  188.6210  178.2180  141.8030 C   0  0  0  0  0  0  0  0  0  0  0  0
  187.9780  178.2050  139.4360 C   0  0  0  0  0  0  0  0  0  0  0  0
  187.1990  177.2350  137.3600 C   0  0  0  0  0  3  0  0  0  0  0  0
  191.4510  176.0120  136.1420 C   0  0  0  0  0  2  0  0  0  0  0  0
  189.2480  175.1310  135.3530 C   0  0  0  0  0  2  0  0  0  0  0  0
  189.4380  176.7160  138.1750 C   0  0  0  0  0  0  0  0  0  0  0  0
  189.4020  177.8690  139.0670 C   0  0  2  0  0  3  0  0  0  0  0  0
  188.4140  176.3700  137.3720 C   0  0  0  0  0  0  0  0  0  0  0  0
  190.9780  176.2990  139.8910 O   0  0  0  0  0  0  0  0  0  0  0  0
  186.9750  178.1230  138.3430 C   0  0  0  0  0  0  0  0  0  0  0  0
  187.6370  178.4080  140.7120 C   0  0  0  0  0  3  0  0  0  0  0  0
  188.4400  175.0510  136.6410 C   0  0  1  0  0  3  0  0  0  0  0  0
  190.7050  174.7910  135.6210 C   0  0  0  0  0  2  0  0  0  0  0  0
  190.1680  177.3580  140.1820 N   0  0  0  0  0  0  0  0  0  0  0  0
  191.7660  175.9490  137.6450 C   0  0  1  0  0  3  0  0  0  0  0  0
  190.5680  175.8420  138.6070 C   0  0  2  0  0  3  0  0  0  0  0  0
  186.3780  173.7880  137.3690 N   0  0  0  0  0  0  0  0  0  0  0  0
  186.3650  174.5040  135.2490 C   0  0  0  0  0  3  0  0  0  0  0  0
  185.2460  173.4470  136.7260 C   0  0  0  0  0  0  0  0  0  0  0  0
  187.0770  174.4510  136.4300 C   0  0  0  0  0  0  0  0  0  0  0  0
  185.1990  173.8610  135.4430 N   0  0  0  0  0  2  0  0  0  0  0  0
  184.1320  172.7090  137.3830 C   0  0  0  0  0  2  0  0  0  0  0  0
  182.1550  173.9440  137.2770 C   0  0  0  0  0  1  0  0  0  0  0  0
  182.9090  172.8890  136.6200 N   0  0  0  0  0  2  0  0  0  0  0  0
  184.6100  178.5300  138.9760 C   0  0  0  0  0  1  0  0  0  0  0  0
  185.8070  178.8920  138.3040 O   0  0  0  0  0  0  0  0  0  0  0  0
  192.8830  174.9590  137.9750 C   0  0  0  0  0  2  0  0  0  0  0  0
  194.1850  175.6090  137.9790 N   0  0  0  0  0  2  0  0  0  0  0  0
  194.9720  174.9860  136.9260 C   0  0  0  0  0  2  0  0  0  0  0  0
  195.7760  173.8560  137.4870 C   0  0  0  0  0  0  0  0  0  0  0  0
  196.6470  174.1050  138.3630 O   0  0  0  0  0  0  0  0  0  0  0  0
  192.8910  170.7220  135.0810 C   0  0  0  0  0  1  0  0  0  0  0  0
  193.7410  171.0620  136.2930 C   0  0  1  0  0  3  0  0  0  0  0  0
  194.5670  169.8510  136.7420 C   0  0  2  0  0  3  0  0  0  0  0  0
  195.5740  172.5080  137.0330 N   0  0  0  0  0  0  0  0  0  0  0  0
  196.3690  171.4160  137.5920 C   0  0  1  0  0  3  0  0  0  0  0  0
  193.6590  168.7140  137.1770 C   0  0  0  0  0  1  0  0  0  0  0  0
  194.6610  172.2240  135.9290 C   0  0  0  0  0  2  0  0  0  0  0  0
  195.4690  170.2250  137.9190 C   0  0  0  0  0  2  0  0  0  0  0  0
  197.4770  171.0140  136.6320 C   0  0  0  0  0  1  0  0  0  0  0  0
  188.3040  178.5400  143.1210 O   0  0  0  0  0  0  0  0  0  0  0  0
  188.6070  177.6860  144.1610 N   0  0  0  0  0  0  0  0  0  0  0  0
  187.8660  177.6060  145.2230 C   0  0  0  0  0  0  0  0  0  0  0  0
  186.4080  178.6970  146.7530 O   0  0  0  0  0  1  0  0  0  0  0  0
  186.6260  178.4350  145.3980 C   0  0  2  0  0  3  0  0  0  0  0  0
  185.4200  177.7320  144.7920 C   0  0  0  0  0  2  0  0  0  0  0  0
  184.8450  178.5140  143.6540 C   0  0  0  0  0  0  0  0  0  0  0  0
  184.4820  179.9420  143.8440 C   0  0  0  0  0  1  0  0  0  0  0  0
  184.6430  177.9780  142.5780 O   0  0  0  0  0  0  0  0  0  0  0  0
  188.2390  176.6420  146.2950 C   0  0  0  0  0  2  0  0  0  0  0  0
  190.6670  176.3160  146.8940 N   0  0  0  0  0  2  0  0  0  0  0  0
  189.4740  177.0950  146.9940 C   0  0  0  0  0  0  0  0  0  0  0  0
  191.8760  176.6660  147.6200 C   0  0  0  0  0  1  0  0  0  0  0  0
  189.4460  178.1440  147.6870 O   0  0  0  0  0  0  0  0  0  0  0  0
  1  2  2  0  0  0  0
  2 42  1  0  0  0  0
  3 12  2  0  0  0  0
  4  9  1  0  0  0  0
  4 11  2  0  0  0  0
  5 16  1  0  0  0  0
  6 14  1  0  0  0  0
  6 13  1  0  0  0  0
  8  7  1  6  0  0  0
  8  3  1  0  0  0  0
  8 15  1  0  0  0  0
  9  7  2  0  0  0  0
 10 15  1  0  0  0  0
 11  3  1  0  0  0  0
 12  2  1  0  0  0  0
 13 21  1  6  0  0  0
 13  9  1  0  0  0  0
 14  5  1  0  0  0  0
 15  1  1  0  0  0  0
 16 28  1  6  0  0  0
 16 17  1  0  0  0  0
 17  7  1  6  0  0  0
 17 10  1  0  0  0  0
 19 22  1  0  0  0  0
 19 21  2  0  0  0  0
 20 18  2  0  0  0  0
 20 23  1  0  0  0  0
 21 18  1  0  0  0  0
 22 20  1  0  0  0  0
 25 24  1  0  0  0  0
 25 23  1  0  0  0  0
 27 11  1  0  0  0  0
 27 26  1  0  0  0  0
 28 29  1  0  0  0  0
 30 31  1  0  0  0  0
 30 29  1  0  0  0  0
 31 32  2  0  0  0  0
 34 33  1  6  0  0  0
 34 35  1  0  0  0  0
 35 38  1  1  0  0  0
 35 40  1  0  0  0  0
 36 31  1  0  0  0  0
 36 37  1  0  0  0  0
 37 41  1  6  0  0  0
 37 40  1  0  0  0  0
 39 34  1  0  0  0  0
 39 36  1  0  0  0  0
 42 43  1  0  0  0  0
 43 44  2  0  0  0  0
 44 46  1  0  0  0  0
 44 51  1  0  0  0  0
 46 45  1  1  0  0  0
 47 46  1  0  0  0  0
 48 49  1  0  0  0  0
 48 47  1  0  0  0  0
 50 48  2  0  0  0  0
 51 53  1  0  0  0  0
 52 53  1  0  0  0  0
 52 54  1  0  0  0  0
 53 55  2  0  0  0  0
M  END
>  <MODEL>
4

>  <REMARK>
 VINA RESULT:      -8.0      2.063      3.891
  Name = 
  15 active torsions:
  status: ('A' for Active; 'I' for Inactive)
    1  A    between atoms: C_1  and  C_32
    2  A    between atoms: C_4  and  C_43
    3  A    between atoms: N_7  and  O_31
    4  A    between atoms: C_9  and  O_31
    5  A    between atoms: C_17  and  C_22
    6  A    between atoms: C_17  and  C_33
    7  A    between atoms: C_20  and  C_52
    8  A    between atoms: C_20  and  N_53
    9  A    between atoms: C_23  and  C_33
   10  A    between atoms: C_23  and  C_43
   11  A    between atoms: C_26  and  C_27
   12  A    between atoms: C_27  and  N_45
   13  A    between atoms: C_29  and  C_46
   14  A    between atoms: C_32  and  N_53
   15  A    between atoms: C_38  and  O_54
                            x       y       z     vdW  Elec       q    Type
                         _______ _______ _______ _____ _____    ______ ____

>  <TORSDO>
F 15

$$$$
=
 OpenBabel10232408453D

 55 60  0  0  1  0  0  0  0  0999 V2000
  190.2870  177.2670  140.5330 C   0  0  0  0  0  3  0  0  0  0  0  0
  189.2600  177.9100  141.0980 C   0  0  0  0  0  0  0  0  0  0  0  0
  188.0120  177.9600  138.9880 C   0  0  0  0  0  0  0  0  0  0  0  0
  186.6340  177.0660  137.2090 C   0  0  0  0  0  3  0  0  0  0  0  0
  190.3000  175.5140  134.9250 C   0  0  0  0  0  2  0  0  0  0  0  0
  187.9030  174.8160  134.7650 C   0  0  0  0  0  2  0  0  0  0  0  0
  188.9620  176.3660  137.4080 C   0  0  0  0  0  0  0  0  0  0  0  0
  189.2560  177.5140  138.2590 C   0  0  2  0  0  3  0  0  0  0  0  0
  187.7380  176.1070  136.9120 C   0  0  0  0  0  0  0  0  0  0  0  0
  190.8660  175.8190  138.6600 O   0  0  0  0  0  0  0  0  0  0  0  0
  186.7500  177.9640  138.2020 C   0  0  0  0  0  0  0  0  0  0  0  0
  188.0400  178.1830  140.3060 C   0  0  0  0  0  3  0  0  0  0  0  0
  187.4640  174.7940  136.2220 C   0  0  1  0  0  3  0  0  0  0  0  0
  189.3480  174.3600  134.6420 C   0  0  0  0  0  2  0  0  0  0  0  0
  190.2480  176.9370  139.1390 N   0  0  0  0  0  0  0  0  0  0  0  0
  190.9980  175.4190  136.2920 C   0  0  1  0  0  3  0  0  0  0  0  0
  190.0930  175.4020  137.5390 C   0  0  2  0  0  3  0  0  0  0  0  0
  185.0340  174.6040  135.5620 N   0  0  0  0  0  0  0  0  0  0  0  0
  185.6160  173.4880  137.4120 C   0  0  0  0  0  3  0  0  0  0  0  0
  183.9910  173.9540  136.1100 C   0  0  0  0  0  0  0  0  0  0  0  0
  186.0510  174.3060  136.3900 C   0  0  0  0  0  0  0  0  0  0  0  0
  184.3010  173.2670  137.2300 N   0  0  0  0  0  2  0  0  0  0  0  0
  182.6260  173.9650  135.5150 C   0  0  0  0  0  2  0  0  0  0  0  0
  180.7330  173.8270  136.8710 C   0  0  0  0  0  1  0  0  0  0  0  0
  181.7720  173.0350  136.2340 N   0  0  0  0  0  2  0  0  0  0  0  0
  184.3190  178.4470  138.3120 C   0  0  0  0  0  1  0  0  0  0  0  0
  185.6790  178.8250  138.4630 O   0  0  0  0  0  0  0  0  0  0  0  0
  192.0800  174.3400  136.3290 C   0  0  0  0  0  2  0  0  0  0  0  0
  193.3270  174.8200  135.7500 N   0  0  0  0  0  2  0  0  0  0  0  0
  194.3160  174.8180  136.8170 C   0  0  0  0  0  2  0  0  0  0  0  0
  195.5890  174.1980  136.3360 C   0  0  0  0  0  0  0  0  0  0  0  0
  195.6900  173.8810  135.1200 O   0  0  0  0  0  0  0  0  0  0  0  0
  197.5870  175.1140  140.7060 C   0  0  0  0  0  1  0  0  0  0  0  0
  197.7230  174.9850  139.1990 C   0  0  1  0  0  3  0  0  0  0  0  0
  199.0320  174.2810  138.8240 C   0  0  2  0  0  3  0  0  0  0  0  0
  196.6790  173.9530  137.2380 N   0  0  0  0  0  0  0  0  0  0  0  0
  197.9160  173.3450  136.7510 C   0  0  1  0  0  3  0  0  0  0  0  0
  200.2300  175.0960  139.2810 C   0  0  0  0  0  1  0  0  0  0  0  0
  196.5290  174.1960  138.6710 C   0  0  0  0  0  2  0  0  0  0  0  0
  199.1250  174.0950  137.3090 C   0  0  0  0  0  2  0  0  0  0  0  0
  197.9710  171.8710  137.1200 C   0  0  0  0  0  1  0  0  0  0  0  0
  189.3320  178.2500  142.4480 O   0  0  0  0  0  0  0  0  0  0  0  0
  188.4820  177.6850  143.3760 N   0  0  0  0  0  0  0  0  0  0  0  0
  188.8140  177.5560  144.6240 C   0  0  0  0  0  0  0  0  0  0  0  0
  190.5490  179.1780  144.4960 O   0  0  0  0  0  1  0  0  0  0  0  0
  190.1460  178.0110  145.1490 C   0  0  2  0  0  3  0  0  0  0  0  0
  191.1920  176.9180  144.9780 C   0  0  0  0  0  2  0  0  0  0  0  0
  191.5610  176.3050  146.2910 C   0  0  0  0  0  0  0  0  0  0  0  0
  190.9790  176.8380  147.5500 C   0  0  0  0  0  1  0  0  0  0  0  0
  192.3640  175.3880  146.3380 O   0  0  0  0  0  0  0  0  0  0  0  0
  187.8350  176.9620  145.5760 C   0  0  0  0  0  2  0  0  0  0  0  0
  185.6440  178.0500  144.9660 N   0  0  0  0  0  2  0  0  0  0  0  0
  186.7430  177.9300  145.8690 C   0  0  0  0  0  0  0  0  0  0  0  0
  184.5930  179.0350  145.1600 C   0  0  0  0  0  1  0  0  0  0  0  0
  186.8140  178.6540  146.8970 O   0  0  0  0  0  0  0  0  0  0  0  0
  1  2  2  0  0  0  0
  2 42  1  0  0  0  0
  3 12  2  0  0  0  0
  4 11  2  0  0  0  0
  5 16  1  0  0  0  0
  6 13  1  0  0  0  0
  8  7  1  6  0  0  0
  8  3  1  0  0  0  0
  8 15  1  0  0  0  0
  9  4  1  0  0  0  0
  9  7  2  0  0  0  0
 10 15  1  0  0  0  0
 11 27  1  0  0  0  0
 11  3  1  0  0  0  0
 12  2  1  0  0  0  0
 13 21  1  6  0  0  0
 13  9  1  0  0  0  0
 14  6  1  0  0  0  0
 14  5  1  0  0  0  0
 15  1  1  0  0  0  0
 16 28  1  6  0  0  0
 16 17  1  0  0  0  0
 17  7  1  6  0  0  0
 17 10  1  0  0  0  0
 18 20  2  0  0  0  0
 18 21  1  0  0  0  0
 20 22  1  0  0  0  0
 21 19  2  0  0  0  0
 22 19  1  0  0  0  0
 23 20  1  0  0  0  0
 23 25  1  0  0  0  0
 25 24  1  0  0  0  0
 26 27  1  0  0  0  0
 29 28  1  0  0  0  0
 29 30  1  0  0  0  0
 31 30  1  0  0  0  0
 31 36  1  0  0  0  0
 32 31  2  0  0  0  0
 34 33  1  1  0  0  0
 35 34  1  0  0  0  0
 35 38  1  6  0  0  0
 36 39  1  0  0  0  0
 37 41  1  1  0  0  0
 37 36  1  0  0  0  0
 37 40  1  0  0  0  0
 39 34  1  0  0  0  0
 40 35  1  0  0  0  0
 42 43  1  0  0  0  0
 43 44  2  0  0  0  0
 44 46  1  0  0  0  0
 44 51  1  0  0  0  0
 46 45  1  6  0  0  0
 47 46  1  0  0  0  0
 47 48  1  0  0  0  0
 48 50  2  0  0  0  0
 48 49  1  0  0  0  0
 51 53  1  0  0  0  0
 52 54  1  0  0  0  0
 52 53  1  0  0  0  0
 53 55  2  0  0  0  0
M  END
>  <MODEL>
5

>  <REMARK>
 VINA RESULT:      -7.8      1.886      2.565
  Name = 
  15 active torsions:
  status: ('A' for Active; 'I' for Inactive)
    1  A    between atoms: C_1  and  C_32
    2  A    between atoms: C_4  and  C_43
    3  A    between atoms: N_7  and  O_31
    4  A    between atoms: C_9  and  O_31
    5  A    between atoms: C_17  and  C_22
    6  A    between atoms: C_17  and  C_33
    7  A    between atoms: C_20  and  C_52
    8  A    between atoms: C_20  and  N_53
    9  A    between atoms: C_23  and  C_33
   10  A    between atoms: C_23  and  C_43
   11  A    between atoms: C_26  and  C_27
   12  A    between atoms: C_27  and  N_45
   13  A    between atoms: C_29  and  C_46
   14  A    between atoms: C_32  and  N_53
   15  A    between atoms: C_38  and  O_54
                            x       y       z     vdW  Elec       q    Type
                         _______ _______ _______ _____ _____    ______ ____

>  <TORSDO>
F 15

$$$$
=
 OpenBabel10232408453D

 55 60  0  0  1  0  0  0  0  0999 V2000
  190.2420  177.4950  140.8230 C   0  0  0  0  0  3  0  0  0  0  0  0
  189.0390  178.0070  141.1040 C   0  0  0  0  0  0  0  0  0  0  0  0
  188.3030  177.7910  138.7740 C   0  0  0  0  0  0  0  0  0  0  0  0
  187.4910  176.6360  136.8080 C   0  0  0  0  0  3  0  0  0  0  0  0
  191.7480  175.5350  135.4930 C   0  0  0  0  0  2  0  0  0  0  0  0
  189.5620  174.4940  134.8660 C   0  0  0  0  0  2  0  0  0  0  0  0
  189.7850  176.2860  137.5580 C   0  0  0  0  0  0  0  0  0  0  0  0
  189.7260  177.4980  138.3670 C   0  0  2  0  0  3  0  0  0  0  0  0
  188.7490  175.8340  136.8270 C   0  0  0  0  0  0  0  0  0  0  0  0
  191.4120  176.0700  139.2300 O   0  0  0  0  0  0  0  0  0  0  0  0
  187.2620  177.5810  137.7350 C   0  0  0  0  0  0  0  0  0  0  0  0
  188.0040  178.0690  140.0470 C   0  0  0  0  0  3  0  0  0  0  0  0
  188.8120  174.4690  136.1900 C   0  0  1  0  0  3  0  0  0  0  0  0
  191.0440  174.2450  135.0930 C   0  0  0  0  0  2  0  0  0  0  0  0
  190.5620  177.1070  139.4810 N   0  0  0  0  0  0  0  0  0  0  0  0
  192.1260  175.5960  136.9820 C   0  0  1  0  0  3  0  0  0  0  0  0
  190.9740  175.5010  138.0000 C   0  0  2  0  0  3  0  0  0  0  0  0
  186.6970  173.4570  137.1280 N   0  0  0  0  0  0  0  0  0  0  0  0
  186.8680  173.4240  134.8980 C   0  0  0  0  0  3  0  0  0  0  0  0
  185.6260  172.8860  136.5470 C   0  0  0  0  0  0  0  0  0  0  0  0
  187.4740  173.7900  136.0820 C   0  0  0  0  0  0  0  0  0  0  0  0
  185.6910  172.8460  135.1990 N   0  0  0  0  0  2  0  0  0  0  0  0
  184.4610  172.3750  137.3200 C   0  0  0  0  0  2  0  0  0  0  0  0
  182.6130  171.2700  136.4200 C   0  0  0  0  0  1  0  0  0  0  0  0
  183.2420  172.5740  136.5550 N   0  0  0  0  0  2  0  0  0  0  0  0
  184.7820  177.6650  137.7390 C   0  0  0  0  0  1  0  0  0  0  0  0
  186.0560  178.2890  137.6930 O   0  0  0  0  0  0  0  0  0  0  0  0
  193.3040  174.6870  137.3310 C   0  0  0  0  0  2  0  0  0  0  0  0
  194.3400  175.4130  138.0500 N   0  0  0  0  0  2  0  0  0  0  0  0
  195.2050  174.4180  138.6640 C   0  0  0  0  0  2  0  0  0  0  0  0
  196.3640  174.1190  137.7660 C   0  0  0  0  0  0  0  0  0  0  0  0
  197.2020  175.0310  137.5320 O   0  0  0  0  0  0  0  0  0  0  0  0
  195.0370  169.4110  137.7620 C   0  0  0  0  0  1  0  0  0  0  0  0
  196.1240  170.4710  137.7220 C   0  0  1  0  0  3  0  0  0  0  0  0
  197.2250  170.0910  136.7250 C   0  0  2  0  0  3  0  0  0  0  0  0
  196.5190  172.8240  137.1670 N   0  0  0  0  0  0  0  0  0  0  0  0
  197.6580  172.5490  136.2920 C   0  0  1  0  0  3  0  0  0  0  0  0
  197.9140  168.8060  137.1510 C   0  0  0  0  0  1  0  0  0  0  0  0
  195.4890  171.8000  137.3270 C   0  0  0  0  0  2  0  0  0  0  0  0
  198.2780  171.1980  136.6430 C   0  0  0  0  0  2  0  0  0  0  0  0
  197.2330  172.5910  134.8320 C   0  0  0  0  0  1  0  0  0  0  0  0
  188.7600  178.4080  142.4090 O   0  0  0  0  0  0  0  0  0  0  0  0
  189.7520  178.4830  143.3640 N   0  0  0  0  0  0  0  0  0  0  0  0
  189.6330  177.9180  144.5260 C   0  0  0  0  0  0  0  0  0  0  0  0
  188.1230  176.1730  143.9510 O   0  0  0  0  0  1  0  0  0  0  0  0
  188.4080  177.1420  144.9160 C   0  0  2  0  0  3  0  0  0  0  0  0
  187.2180  178.0740  145.1010 C   0  0  0  0  0  2  0  0  0  0  0  0
  186.6870  178.0130  146.4980 C   0  0  0  0  0  0  0  0  0  0  0  0
  187.6250  178.0520  147.6500 C   0  0  0  0  0  1  0  0  0  0  0  0
  185.4900  177.9000  146.6980 O   0  0  0  0  0  0  0  0  0  0  0  0
  190.7560  178.0190  145.4990 C   0  0  0  0  0  2  0  0  0  0  0  0
  191.6090  175.9030  144.4250 N   0  0  0  0  0  2  0  0  0  0  0  0
  191.4820  176.7220  145.5880 C   0  0  0  0  0  0  0  0  0  0  0  0
  192.2360  174.5930  144.4730 C   0  0  0  0  0  1  0  0  0  0  0  0
  191.9530  176.3480  146.6940 O   0  0  0  0  0  0  0  0  0  0  0  0
  1  2  2  0  0  0  0
  2 42  1  0  0  0  0
  3 12  2  0  0  0  0
  4  9  1  0  0  0  0
  4 11  2  0  0  0  0
  5 16  1  0  0  0  0
  6 14  1  0  0  0  0
  6 13  1  0  0  0  0
  8  7  1  6  0  0  0
  8  3  1  0  0  0  0
  8 15  1  0  0  0  0
  9  7  2  0  0  0  0
 10 15  1  0  0  0  0
 11  3  1  0  0  0  0
 12  2  1  0  0  0  0
 13 21  1  6  0  0  0
 13  9  1  0  0  0  0
 14  5  1  0  0  0  0
 15  1  1  0  0  0  0
 16 28  1  1  0  0  0
 16 17  1  0  0  0  0
 17  7  1  6  0  0  0
 17 10  1  0  0  0  0
 19 22  1  0  0  0  0
 19 21  2  0  0  0  0
 20 18  2  0  0  0  0
 20 23  1  0  0  0  0
 21 18  1  0  0  0  0
 22 20  1  0  0  0  0
 24 25  1  0  0  0  0
 25 23  1  0  0  0  0
 27 11  1  0  0  0  0
 27 26  1  0  0  0  0
 28 29  1  0  0  0  0
 29 30  1  0  0  0  0
 31 30  1  0  0  0  0
 32 31  2  0  0  0  0
 34 33  1  6  0  0  0
 35 38  1  1  0  0  0
 35 34  1  0  0  0  0
 36 39  1  0  0  0  0
 36 31  1  0  0  0  0
 37 41  1  6  0  0  0
 37 40  1  0  0  0  0
 37 36  1  0  0  0  0
 39 34  1  0  0  0  0
 40 35  1  0  0  0  0
 42 43  1  0  0  0  0
 43 44  2  0  0  0  0
 44 46  1  0  0  0  0
 44 51  1  0  0  0  0
 46 45  1  6  0  0  0
 46 47  1  0  0  0  0
 47 48  1  0  0  0  0
 48 50  2  0  0  0  0
 48 49  1  0  0  0  0
 51 53  1  0  0  0  0
 52 54  1  0  0  0  0
 52 53  1  0  0  0  0
 53 55  2  0  0  0  0
M  END
>  <MODEL>
6

>  <REMARK>
 VINA RESULT:      -7.8      2.429      4.098
  Name = 
  15 active torsions:
  status: ('A' for Active; 'I' for Inactive)
    1  A    between atoms: C_1  and  C_32
    2  A    between atoms: C_4  and  C_43
    3  A    between atoms: N_7  and  O_31
    4  A    between atoms: C_9  and  O_31
    5  A    between atoms: C_17  and  C_22
    6  A    between atoms: C_17  and  C_33
    7  A    between atoms: C_20  and  C_52
    8  A    between atoms: C_20  and  N_53
    9  A    between atoms: C_23  and  C_33
   10  A    between atoms: C_23  and  C_43
   11  A    between atoms: C_26  and  C_27
   12  A    between atoms: C_27  and  N_45
   13  A    between atoms: C_29  and  C_46
   14  A    between atoms: C_32  and  N_53
   15  A    between atoms: C_38  and  O_54
                            x       y       z     vdW  Elec       q    Type
                         _______ _______ _______ _____ _____    ______ ____

>  <TORSDO>
F 15

$$$$
=
 OpenBabel10232408453D

 55 60  0  0  1  0  0  0  0  0999 V2000
  187.7880  178.3060  138.7530 C   0  0  0  0  0  3  0  0  0  0  0  0
  187.7510  178.0640  137.4390 C   0  0  0  0  0  0  0  0  0  0  0  0
  185.3610  177.5190  137.5170 C   0  0  0  0  0  0  0  0  0  0  0  0
  182.9870  177.9820  137.6260 C   0  0  0  0  0  3  0  0  0  0  0  0
  183.0470  178.0670  142.2140 C   0  0  0  0  0  2  0  0  0  0  0  0
  181.3920  179.0520  140.6190 C   0  0  0  0  0  2  0  0  0  0  0  0
  184.3810  178.3200  139.5990 C   0  0  0  0  0  0  0  0  0  0  0  0
  185.4320  177.4890  139.0230 C   0  0  2  0  0  3  0  0  0  0  0  0
  183.2250  178.5950  138.9660 C   0  0  0  0  0  0  0  0  0  0  0  0
  186.3860  178.9340  140.6440 O   0  0  0  0  0  0  0  0  0  0  0  0
  184.0020  177.4600  136.9170 C   0  0  0  0  0  0  0  0  0  0  0  0
  186.4590  177.7450  136.7880 C   0  0  0  0  0  3  0  0  0  0  0  0
  182.2830  179.6290  139.5280 C   0  0  1  0  0  3  0  0  0  0  0  0
  182.0580  179.2000  141.9780 C   0  0  0  0  0  2  0  0  0  0  0  0
  186.6040  178.1550  139.5460 N   0  0  0  0  0  0  0  0  0  0  0  0
  184.5190  178.4960  142.0970 C   0  0  1  0  0  3  0  0  0  0  0  0
  184.9720  179.0740  140.7420 C   0  0  2  0  0  3  0  0  0  0  0  0
  181.7660  181.6220  138.0660 N   0  0  0  0  0  0  0  0  0  0  0  0
  180.4150  179.8590  137.7970 C   0  0  0  0  0  3  0  0  0  0  0  0
  180.8190  181.8470  137.1360 C   0  0  0  0  0  0  0  0  0  0  0  0
  181.5010  180.3690  138.4770 C   0  0  0  0  0  0  0  0  0  0  0  0
  179.9820  180.8060  136.9440 N   0  0  0  0  0  2  0  0  0  0  0  0
  180.7260  183.1180  136.3660 C   0  0  0  0  0  2  0  0  0  0  0  0
  180.2320  185.3190  136.9630 C   0  0  0  0  0  1  0  0  0  0  0  0
  181.1610  184.2260  137.1990 N   0  0  0  0  0  2  0  0  0  0  0  0
  183.8120  175.5330  135.3650 C   0  0  0  0  0  1  0  0  0  0  0  0
  183.7360  176.9210  135.6540 O   0  0  0  0  0  0  0  0  0  0  0  0
  184.9870  179.3340  143.2870 C   0  0  0  0  0  2  0  0  0  0  0  0
  186.3910  179.0930  143.5850 N   0  0  0  0  0  2  0  0  0  0  0  0
  186.5200  177.6770  143.8930 C   0  0  0  0  0  2  0  0  0  0  0  0
  186.8120  177.4920  145.3490 C   0  0  0  0  0  0  0  0  0  0  0  0
  185.8570  177.2600  146.1370 O   0  0  0  0  0  0  0  0  0  0  0  0
  191.5920  177.5490  144.3070 C   0  0  0  0  0  1  0  0  0  0  0  0
  190.4350  177.0370  145.1470 C   0  0  1  0  0  3  0  0  0  0  0  0
  190.8280  176.9480  146.6270 C   0  0  2  0  0  3  0  0  0  0  0  0
  188.1550  177.5890  145.8510 N   0  0  0  0  0  0  0  0  0  0  0  0
  188.4230  177.4060  147.2760 C   0  0  1  0  0  3  0  0  0  0  0  0
  191.9570  175.9510  146.8230 C   0  0  0  0  0  1  0  0  0  0  0  0
  189.2520  177.9840  144.9710 C   0  0  0  0  0  2  0  0  0  0  0  0
  189.6350  176.4970  147.4710 C   0  0  0  0  0  2  0  0  0  0  0  0
  188.6330  178.7490  147.9580 C   0  0  0  0  0  1  0  0  0  0  0  0
  188.9210  178.1860  136.6920 O   0  0  0  0  0  0  0  0  0  0  0  0
  189.5060  177.0910  136.0910 N   0  0  0  0  0  0  0  0  0  0  0  0
  190.5400  176.4960  136.6030 C   0  0  0  0  0  0  0  0  0  0  0  0
  192.5640  176.8480  137.8010 O   0  0  0  0  0  1  0  0  0  0  0  0
  191.1740  176.9550  137.8850 C   0  0  2  0  0  3  0  0  0  0  0  0
  190.6480  176.1460  139.0630 C   0  0  0  0  0  2  0  0  0  0  0  0
  190.7160  176.9260  140.3370 C   0  0  0  0  0  0  0  0  0  0  0  0
  189.5650  176.9150  141.2760 C   0  0  0  0  0  1  0  0  0  0  0  0
  191.7000  177.5980  140.5950 O   0  0  0  0  0  0  0  0  0  0  0  0
  191.1040  175.3030  135.9130 C   0  0  0  0  0  2  0  0  0  0  0  0
  189.7610  173.4570  134.8410 N   0  0  0  0  0  2  0  0  0  0  0  0
  190.1670  174.1500  136.0220 C   0  0  0  0  0  0  0  0  0  0  0  0
  188.7870  172.3790  134.8790 C   0  0  0  0  0  1  0  0  0  0  0  0
  189.7200  173.8160  137.1500 O   0  0  0  0  0  0  0  0  0  0  0  0
  1 15  1  0  0  0  0
  2  1  2  0  0  0  0
  4  9  1  0  0  0  0
  6 14  1  0  0  0  0
  8  3  1  6  0  0  0
  8 15  1  0  0  0  0
  8  7  1  0  0  0  0
  9 13  1  0  0  0  0
  9  7  2  0  0  0  0
 10 17  1  0  0  0  0
 11  3  1  0  0  0  0
 11  4  2  0  0  0  0
 12  2  1  0  0  0  0
 12  3  2  0  0  0  0
 13 21  1  6  0  0  0
 13  6  1  0  0  0  0
 14  5  1  0  0  0  0
 15 10  1  0  0  0  0
 16  5  1  0  0  0  0
 16 28  1  1  0  0  0
 17  7  1  6  0  0  0
 17 16  1  0  0  0  0
 18 21  1  0  0  0  0
 19 21  2  0  0  0  0
 20 18  2  0  0  0  0
 22 20  1  0  0  0  0
 22 19  1  0  0  0  0
 23 20  1  0  0  0  0
 23 25  1  0  0  0  0
 24 25  1  0  0  0  0
 26 27  1  0  0  0  0
 27 11  1  0  0  0  0
 28 29  1  0  0  0  0
 29 30  1  0  0  0  0
 30 31  1  0  0  0  0
 31 36  1  0  0  0  0
 31 32  2  0  0  0  0
 34 33  1  6  0  0  0
 34 35  1  0  0  0  0
 35 38  1  6  0  0  0
 35 40  1  0  0  0  0
 36 37  1  0  0  0  0
 37 40  1  0  0  0  0
 37 41  1  6  0  0  0
 39 34  1  0  0  0  0
 39 36  1  0  0  0  0
 42  2  1  0  0  0  0
 43 44  2  0  0  0  0
 43 42  1  0  0  0  0
 44 46  1  0  0  0  0
 46 45  1  6  0  0  0
 46 47  1  0  0  0  0
 47 48  1  0  0  0  0
 48 50  2  0  0  0  0
 48 49  1  0  0  0  0
 51 53  1  0  0  0  0
 51 44  1  0  0  0  0
 52 54  1  0  0  0  0
 52 53  1  0  0  0  0
 53 55  2  0  0  0  0
M  END
>  <MODEL>
7

>  <REMARK>
 VINA RESULT:      -7.7      3.007      8.776
  Name = 
  15 active torsions:
  status: ('A' for Active; 'I' for Inactive)
    1  A    between atoms: C_1  and  C_32
    2  A    between atoms: C_4  and  C_43
    3  A    between atoms: N_7  and  O_31
    4  A    between atoms: C_9  and  O_31
    5  A    between atoms: C_17  and  C_22
    6  A    between atoms: C_17  and  C_33
    7  A    between atoms: C_20  and  C_52
    8  A    between atoms: C_20  and  N_53
    9  A    between atoms: C_23  and  C_33
   10  A    between atoms: C_23  and  C_43
   11  A    between atoms: C_26  and  C_27
   12  A    between atoms: C_27  and  N_45
   13  A    between atoms: C_29  and  C_46
   14  A    between atoms: C_32  and  N_53
   15  A    between atoms: C_38  and  O_54
                            x       y       z     vdW  Elec       q    Type
                         _______ _______ _______ _____ _____    ______ ____

>  <TORSDO>
F 15

$$$$
=
 OpenBabel10232408453D

 55 60  0  0  1  0  0  0  0  0999 V2000
  190.2290  177.6990  140.0760 C   0  0  0  0  0  3  0  0  0  0  0  0
  189.0210  178.2690  140.0650 C   0  0  0  0  0  0  0  0  0  0  0  0
  188.6210  177.5870  137.7430 C   0  0  0  0  0  0  0  0  0  0  0  0
  188.0550  176.0620  135.9510 C   0  0  0  0  0  3  0  0  0  0  0  0
  192.4080  174.6720  135.5370 C   0  0  0  0  0  2  0  0  0  0  0  0
  190.2960  173.5460  134.8120 C   0  0  0  0  0  2  0  0  0  0  0  0
  190.2010  175.8500  137.0910 C   0  0  0  0  0  0  0  0  0  0  0  0
  190.0750  177.2030  137.6210 C   0  0  2  0  0  3  0  0  0  0  0  0
  189.2630  175.2680  136.3190 C   0  0  0  0  0  0  0  0  0  0  0  0
  191.5590  175.9650  138.9960 O   0  0  0  0  0  0  0  0  0  0  0  0
  187.7330  177.1800  136.6240 C   0  0  0  0  0  0  0  0  0  0  0  0
  188.1520  178.1240  138.8750 C   0  0  0  0  0  3  0  0  0  0  0  0
  189.3620  173.8010  135.9870 C   0  0  1  0  0  3  0  0  0  0  0  0
  191.7190  173.3340  135.3040 C   0  0  0  0  0  2  0  0  0  0  0  0
  190.7240  177.0400  138.9030 N   0  0  0  0  0  0  0  0  0  0  0  0
  192.5700  175.0330  137.0220 C   0  0  1  0  0  3  0  0  0  0  0  0
  191.2800  175.1600  137.8550 C   0  0  2  0  0  3  0  0  0  0  0  0
  187.0960  173.0240  136.7830 N   0  0  0  0  0  0  0  0  0  0  0  0
  187.5840  172.5340  134.6550 C   0  0  0  0  0  3  0  0  0  0  0  0
  186.0970  172.3570  136.1750 C   0  0  0  0  0  0  0  0  0  0  0  0
  188.0270  173.1280  135.8190 C   0  0  0  0  0  0  0  0  0  0  0  0
  186.3530  172.0420  134.8880 N   0  0  0  0  0  2  0  0  0  0  0  0
  184.8130  172.0260  136.8520 C   0  0  0  0  0  2  0  0  0  0  0  0
  182.6330  172.5660  136.2190 C   0  0  0  0  0  1  0  0  0  0  0  0
  183.8830  173.1320  136.7010 N   0  0  0  0  0  2  0  0  0  0  0  0
  185.4260  177.2490  135.7120 C   0  0  0  0  0  1  0  0  0  0  0  0
  186.5750  177.8770  136.2610 O   0  0  0  0  0  0  0  0  0  0  0  0
  193.6480  174.2030  137.7190 C   0  0  0  0  0  2  0  0  0  0  0  0
  194.7990  175.0190  138.0750 N   0  0  0  0  0  2  0  0  0  0  0  0
  195.6740  174.1850  138.8850 C   0  0  0  0  0  2  0  0  0  0  0  0
  197.0840  174.2950  138.3970 C   0  0  0  0  0  0  0  0  0  0  0  0
  197.7560  175.3170  138.7020 O   0  0  0  0  0  0  0  0  0  0  0  0
  196.7840  169.6960  136.7560 C   0  0  0  0  0  1  0  0  0  0  0  0
  197.5990  170.8260  137.3610 C   0  0  1  0  0  3  0  0  0  0  0  0
  199.0010  170.8820  136.7430 C   0  0  2  0  0  3  0  0  0  0  0  0
  197.6670  173.2640  137.5840 N   0  0  0  0  0  0  0  0  0  0  0  0
  199.0470  173.3880  137.1150 C   0  0  1  0  0  3  0  0  0  0  0  0
  199.7720  169.6080  137.0440 C   0  0  0  0  0  1  0  0  0  0  0  0
  196.8610  172.1390  137.1170 C   0  0  0  0  0  2  0  0  0  0  0  0
  199.7880  172.0660  137.3090 C   0  0  0  0  0  2  0  0  0  0  0  0
  199.0800  173.8240  135.6590 C   0  0  0  0  0  1  0  0  0  0  0  0
  188.5730  178.9320  141.2060 O   0  0  0  0  0  0  0  0  0  0  0  0
  187.4040  178.5620  141.8390 N   0  0  0  0  0  0  0  0  0  0  0  0
  187.3750  177.6220  142.7340 C   0  0  0  0  0  0  0  0  0  0  0  0
  188.3100  175.5190  143.3340 O   0  0  0  0  0  1  0  0  0  0  0  0
  188.6080  176.8710  143.1460 C   0  0  2  0  0  3  0  0  0  0  0  0
  189.1990  177.4670  144.4170 C   0  0  0  0  0  2  0  0  0  0  0  0
  190.6840  177.6100  144.3140 C   0  0  0  0  0  0  0  0  0  0  0  0
  191.2720  178.8520  143.7470 C   0  0  0  0  0  1  0  0  0  0  0  0
  191.4160  176.7000  144.6640 O   0  0  0  0  0  0  0  0  0  0  0  0
  186.0810  177.2930  143.3950 C   0  0  0  0  0  2  0  0  0  0  0  0
  186.1990  177.9350  145.8310 N   0  0  0  0  0  2  0  0  0  0  0  0
  185.8030  178.2550  144.4970 C   0  0  0  0  0  0  0  0  0  0  0  0
  185.8800  178.7980  146.9550 C   0  0  0  0  0  1  0  0  0  0  0  0
  185.1950  179.3280  144.2460 O   0  0  0  0  0  0  0  0  0  0  0  0
  2  1  2  0  0  0  0
  2 42  1  0  0  0  0
  3 12  2  0  0  0  0
  4  9  1  0  0  0  0
  4 11  2  0  0  0  0
  5 16  1  0  0  0  0
  6 14  1  0  0  0  0
  6 13  1  0  0  0  0
  8  7  1  1  0  0  0
  8  3  1  0  0  0  0
  8 15  1  0  0  0  0
  9  7  2  0  0  0  0
 11  3  1  0  0  0  0
 12  2  1  0  0  0  0
 13 21  1  6  0  0  0
 13  9  1  0  0  0  0
 14  5  1  0  0  0  0
 15 10  1  0  0  0  0
 15  1  1  0  0  0  0
 16 28  1  1  0  0  0
 16 17  1  0  0  0  0
 17  7  1  6  0  0  0
 17 10  1  0  0  0  0
 19 22  1  0  0  0  0
 19 21  2  0  0  0  0
 20 18  2  0  0  0  0
 20 23  1  0  0  0  0
 21 18  1  0  0  0  0
 22 20  1  0  0  0  0
 24 25  1  0  0  0  0
 25 23  1  0  0  0  0
 26 27  1  0  0  0  0
 27 11  1  0  0  0  0
 28 29  1  0  0  0  0
 29 30  1  0  0  0  0
 31 32  2  0  0  0  0
 31 30  1  0  0  0  0
 34 33  1  6  0  0  0
 35 38  1  1  0  0  0
 35 40  1  0  0  0  0
 35 34  1  0  0  0  0
 36 31  1  0  0  0  0
 37 41  1  6  0  0  0
 37 40  1  0  0  0  0
 37 36  1  0  0  0  0
 39 34  1  0  0  0  0
 39 36  1  0  0  0  0
 42 43  1  0  0  0  0
 43 44  2  0  0  0  0
 44 46  1  0  0  0  0
 44 51  1  0  0  0  0
 46 45  1  1  0  0  0
 46 47  1  0  0  0  0
 48 47  1  0  0  0  0
 48 50  2  0  0  0  0
 49 48  1  0  0  0  0
 51 53  1  0  0  0  0
 52 54  1  0  0  0  0
 53 52  1  0  0  0  0
 55 53  2  0  0  0  0
M  END
>  <MODEL>
8

>  <REMARK>
 VINA RESULT:      -7.5      2.689      4.064
  Name = 
  15 active torsions:
  status: ('A' for Active; 'I' for Inactive)
    1  A    between atoms: C_1  and  C_32
    2  A    between atoms: C_4  and  C_43
    3  A    between atoms: N_7  and  O_31
    4  A    between atoms: C_9  and  O_31
    5  A    between atoms: C_17  and  C_22
    6  A    between atoms: C_17  and  C_33
    7  A    between atoms: C_20  and  C_52
    8  A    between atoms: C_20  and  N_53
    9  A    between atoms: C_23  and  C_33
   10  A    between atoms: C_23  and  C_43
   11  A    between atoms: C_26  and  C_27
   12  A    between atoms: C_27  and  N_45
   13  A    between atoms: C_29  and  C_46
   14  A    between atoms: C_32  and  N_53
   15  A    between atoms: C_38  and  O_54
                            x       y       z     vdW  Elec       q    Type
                         _______ _______ _______ _____ _____    ______ ____

>  <TORSDO>
F 15

$$$$
=
 OpenBabel10232408453D

 55 60  0  0  1  0  0  0  0  0999 V2000
  185.9700  178.6180  140.1010 C   0  0  0  0  0  3  0  0  0  0  0  0
  184.9640  178.7070  139.2250 C   0  0  0  0  0  0  0  0  0  0  0  0
  186.4220  178.0890  137.3520 C   0  0  0  0  0  0  0  0  0  0  0  0
  187.6890  176.5910  135.9340 C   0  0  0  0  0  3  0  0  0  0  0  0
  191.3950  176.9170  138.6200 C   0  0  0  0  0  2  0  0  0  0  0  0
  190.7750  175.1520  136.9620 C   0  0  0  0  0  2  0  0  0  0  0  0
  188.4870  177.0980  138.1820 C   0  0  0  0  0  0  0  0  0  0  0  0
  187.6230  178.2710  138.2460 C   0  0  2  0  0  3  0  0  0  0  0  0
  188.5320  176.2690  137.1220 C   0  0  0  0  0  0  0  0  0  0  0  0
  188.1420  177.5690  140.4520 O   0  0  0  0  0  0  0  0  0  0  0  0
  186.6720  177.4640  136.0270 C   0  0  0  0  0  0  0  0  0  0  0  0
  185.1900  178.3370  137.8090 C   0  0  0  0  0  3  0  0  0  0  0  0
  189.2850  174.9660  137.2140 C   0  0  1  0  0  3  0  0  0  0  0  0
  191.5000  175.4400  138.2660 C   0  0  0  0  0  2  0  0  0  0  0  0
  187.2850  178.2680  139.6520 N   0  0  0  0  0  0  0  0  0  0  0  0
  190.4220  177.2090  139.7740 C   0  0  1  0  0  3  0  0  0  0  0  0
  188.9510  176.7990  139.5680 C   0  0  2  0  0  3  0  0  0  0  0  0
  187.5520  173.2130  136.6660 N   0  0  0  0  0  0  0  0  0  0  0  0
  189.2370  173.3850  135.2040 C   0  0  0  0  0  3  0  0  0  0  0  0
  187.4330  172.3380  135.6510 C   0  0  0  0  0  0  0  0  0  0  0  0
  188.6920  173.8650  136.3770 C   0  0  0  0  0  0  0  0  0  0  0  0
  188.4310  172.4100  134.7460 N   0  0  0  0  0  2  0  0  0  0  0  0
  186.2840  171.3990  135.5210 C   0  0  0  0  0  2  0  0  0  0  0  0
  185.5940  169.4410  134.4570 C   0  0  0  0  0  1  0  0  0  0  0  0
  186.7520  170.1220  135.0120 N   0  0  0  0  0  2  0  0  0  0  0  0
  184.8880  176.8250  134.4250 C   0  0  0  0  0  1  0  0  0  0  0  0
  185.8910  177.7130  134.8930 O   0  0  0  0  0  0  0  0  0  0  0  0
  190.9730  176.7830  141.1350 C   0  0  0  0  0  2  0  0  0  0  0  0
  191.3910  177.9340  141.9220 N   0  0  0  0  0  2  0  0  0  0  0  0
  190.3680  178.1490  142.9340 C   0  0  0  0  0  2  0  0  0  0  0  0
  190.9440  177.9390  144.2980 C   0  0  0  0  0  0  0  0  0  0  0  0
  192.1760  178.1380  144.4760 O   0  0  0  0  0  0  0  0  0  0  0  0
  186.4080  177.3310  146.0260 C   0  0  0  0  0  1  0  0  0  0  0  0
  187.8330  177.8200  146.2170 C   0  0  1  0  0  3  0  0  0  0  0  0
  188.3400  177.4970  147.6270 C   0  0  2  0  0  3  0  0  0  0  0  0
  190.1180  177.5070  145.3910 N   0  0  0  0  0  0  0  0  0  0  0  0
  190.6970  177.3070  146.7180 C   0  0  1  0  0  3  0  0  0  0  0  0
  187.5100  178.2190  148.6740 C   0  0  0  0  0  1  0  0  0  0  0  0
  188.7180  177.1500  145.1700 C   0  0  0  0  0  2  0  0  0  0  0  0
  189.7980  177.9320  147.7840 C   0  0  0  0  0  2  0  0  0  0  0  0
  190.9170  175.8270  146.9890 C   0  0  0  0  0  1  0  0  0  0  0  0
  183.7000  179.0800  139.6780 O   0  0  0  0  0  0  0  0  0  0  0  0
  182.7620  178.1370  140.0450 N   0  0  0  0  0  0  0  0  0  0  0  0
  181.5020  178.4260  140.1510 C   0  0  0  0  0  0  0  0  0  0  0  0
  179.9850  180.1330  140.8160 O   0  0  0  0  0  1  0  0  0  0  0  0
  180.9720  179.8060  139.8830 C   0  0  2  0  0  3  0  0  0  0  0  0
  180.4190  179.9020  138.4680 C   0  0  0  0  0  2  0  0  0  0  0  0
  180.9610  181.0970  137.7490 C   0  0  0  0  0  0  0  0  0  0  0  0
  181.9720  181.9630  138.4080 C   0  0  0  0  0  1  0  0  0  0  0  0
  180.5530  181.3820  136.6360 O   0  0  0  0  0  0  0  0  0  0  0  0
  180.5420  177.3510  140.5260 C   0  0  0  0  0  2  0  0  0  0  0  0
  180.1000  176.4060  138.2300 N   0  0  0  0  0  2  0  0  0  0  0  0
  180.6140  176.2280  139.5510 C   0  0  0  0  0  0  0  0  0  0  0  0
  180.0700  175.3210  137.2650 C   0  0  0  0  0  1  0  0  0  0  0  0
  181.1020  175.1250  139.9090 O   0  0  0  0  0  0  0  0  0  0  0  0
  2 42  1  0  0  0  0
  2  1  2  0  0  0  0
  3 12  2  0  0  0  0
  4 11  2  0  0  0  0
  4  9  1  0  0  0  0
  5 16  1  0  0  0  0
  6 13  1  0  0  0  0
  6 14  1  0  0  0  0
  7  8  1  0  0  0  0
  8  3  1  6  0  0  0
  8 15  1  0  0  0  0
  9 13  1  0  0  0  0
  9  7  2  0  0  0  0
 11  3  1  0  0  0  0
 12  2  1  0  0  0  0
 13 21  1  6  0  0  0
 14  5  1  0  0  0  0
 15  1  1  0  0  0  0
 15 10  1  0  0  0  0
 16 28  1  1  0  0  0
 17  7  1  6  0  0  0
 17 16  1  0  0  0  0
 17 10  1  0  0  0  0
 19 21  2  0  0  0  0
 20 18  2  0  0  0  0
 21 18  1  0  0  0  0
 22 19  1  0  0  0  0
 22 20  1  0  0  0  0
 23 20  1  0  0  0  0
 24 25  1  0  0  0  0
 25 23  1  0  0  0  0
 26 27  1  0  0  0  0
 27 11  1  0  0  0  0
 28 29  1  0  0  0  0
 29 30  1  0  0  0  0
 30 31  1  0  0  0  0
 31 32  2  0  0  0  0
 31 36  1  0  0  0  0
 34 33  1  1  0  0  0
 34 35  1  0  0  0  0
 35 40  1  0  0  0  0
 35 38  1  1  0  0  0
 36 37  1  0  0  0  0
 37 41  1  1  0  0  0
 37 40  1  0  0  0  0
 39 36  1  0  0  0  0
 39 34  1  0  0  0  0
 42 43  1  0  0  0  0
 43 44  2  0  0  0  0
 44 51  1  0  0  0  0
 46 44  1  0  0  0  0
 46 45  1  1  0  0  0
 47 46  1  0  0  0  0
 48 49  1  0  0  0  0
 48 47  1  0  0  0  0
 50 48  2  0  0  0  0
 52 53  1  0  0  0  0
 53 55  2  0  0  0  0
 53 51  1  0  0  0  0
 54 52  1  0  0  0  0
M  END
>  <MODEL>
9

>  <REMARK>
 VINA RESULT:      -7.5      3.209      8.509
  Name = 
  15 active torsions:
  status: ('A' for Active; 'I' for Inactive)
    1  A    between atoms: C_1  and  C_32
    2  A    between atoms: C_4  and  C_43
    3  A    between atoms: N_7  and  O_31
    4  A    between atoms: C_9  and  O_31
    5  A    between atoms: C_17  and  C_22
    6  A    between atoms: C_17  and  C_33
    7  A    between atoms: C_20  and  C_52
    8  A    between atoms: C_20  and  N_53
    9  A    between atoms: C_23  and  C_33
   10  A    between atoms: C_23  and  C_43
   11  A    between atoms: C_26  and  C_27
   12  A    between atoms: C_27  and  N_45
   13  A    between atoms: C_29  and  C_46
   14  A    between atoms: C_32  and  N_53
   15  A    between atoms: C_38  and  O_54
                            x       y       z     vdW  Elec       q    Type
                         _______ _______ _______ _____ _____    ______ ____

>  <TORSDO>
F 15

$$$$
