=
 OpenBabel10232410533D

 49 55  0  0  1  0  0  0  0  0999 V2000
  182.0880  177.7680  137.9140 S   0  0  0  0  0  0  0  0  0  0  0  0
  186.9540  179.2260  138.2640 O   0  0  0  0  0  0  0  0  0  0  0  0
  184.0960  176.8540  136.4960 N   0  0  0  0  0  0  0  0  0  0  0  0
  192.0360  174.9140  136.9020 C   0  0  0  0  0  3  0  0  0  0  0  0
  188.0470  172.8540  135.5090 C   0  0  0  0  0  2  0  0  0  0  0  0
  188.2240  177.2690  138.9420 C   0  0  1  0  0  3  0  0  0  0  0  0
  183.8480  177.3610  137.8340 C   0  0  1  0  0  3  0  0  0  0  0  0
  181.8530  177.1720  136.2130 C   0  0  2  0  0  3  0  0  0  0  0  0
  185.0950  175.8620  136.2440 C   0  0  0  0  0  0  0  0  0  0  0  0
  183.1340  177.1400  135.5270 N   0  0  0  0  0  2  0  0  0  0  0  0
  187.2500  178.3590  140.9590 C   0  0  0  0  0  3  0  0  0  0  0  0
  185.2340  174.8030  137.0990 N   0  0  0  0  0  0  0  0  0  0  0  0
  186.1560  173.8250  136.8710 C   0  0  0  0  0  3  0  0  0  0  0  0
  187.0000  173.8950  135.7570 C   0  0  0  0  0  0  0  0  0  0  0  0
  185.9070  175.9560  135.1010 C   0  0  0  0  0  3  0  0  0  0  0  0
  185.9330  178.4130  138.7930 C   0  0  1  0  0  0  0  0  0  0  0  0
  180.8890  178.0850  135.4820 C   0  0  0  0  0  1  0  0  0  0  0  0
  184.6380  178.6480  138.0400 C   0  0  0  0  0  2  0  0  0  0  0  0
  188.3110  177.8160  140.3610 C   0  0  0  0  0  0  0  0  0  0  0  0
  189.8540  173.8540  136.9440 C   0  0  0  0  0  0  0  0  0  0  0  0
  186.8680  174.9700  134.8660 C   0  0  0  0  0  3  0  0  0  0  0  0
  187.0880  177.8310  138.0640 C   0  0  1  0  0  3  0  0  0  0  0  0
  189.3090  175.0380  137.4500 C   0  0  0  0  0  3  0  0  0  0  0  0
  189.5310  177.4530  138.1720 C   0  0  0  0  0  2  0  0  0  0  0  0
  191.4790  176.0920  137.4030 C   0  0  0  0  0  3  0  0  0  0  0  0
  185.8990  178.4480  140.3220 C   0  0  0  0  0  2  0  0  0  0  0  0
  191.2300  173.7860  136.6680 C   0  0  0  0  0  0  0  0  0  0  0  0
  190.1150  176.1580  137.6910 C   0  0  0  0  0  0  0  0  0  0  0  0
  188.9630  172.6680  136.7200 C   0  0  0  0  0  2  0  0  0  0  0  0
  189.4750  177.7610  142.4860 N   0  0  0  0  0  0  0  0  0  0  0  0
  189.5130  177.6670  141.1930 C   0  0  0  0  0  3  0  0  0  0  0  0
  189.5940  177.1280  146.9550 C   0  0  0  0  0  2  0  0  0  0  0  0
  190.4740  177.3090  144.7560 N   0  0  0  0  0  0  0  0  0  0  0  0
  190.6100  177.6150  143.3510 C   0  0  0  0  0  0  0  0  0  0  0  0
  191.0360  176.6330  146.9550 C   0  0  0  0  0  2  0  0  0  0  0  0
  189.2330  177.4040  145.5140 C   0  0  0  0  0  2  0  0  0  0  0  0
  191.6050  176.9280  145.5790 C   0  0  0  0  0  2  0  0  0  0  0  0
  191.7880  177.8010  142.8480 N   0  0  0  0  0  2  0  0  0  0  0  0
  191.7760  172.5970  136.1750 O   0  0  0  0  0  0  0  0  0  0  0  0
  193.0630  172.5330  135.5710 C   0  0  0  0  0  2  0  0  0  0  0  0
  193.8820  171.4230  136.2080 C   0  0  0  0  0  2  0  0  0  0  0  0
  195.2530  171.9490  136.5890 C   0  0  0  0  0  2  0  0  0  0  0  0
  196.1130  174.2580  136.9230 C   0  0  0  0  0  3  0  0  0  0  0  0
  195.3390  173.4070  136.2480 C   0  0  0  0  0  3  0  0  0  0  0  0
  196.9680  173.8290  138.0780 C   0  0  0  0  0  2  0  0  0  0  0  0
  196.4880  174.4640  139.3710 C   0  0  0  0  0  2  0  0  0  0  0  0
  198.7320  175.6300  139.3220 N   0  0  0  0  0  1  0  0  0  0  0  0
  197.6000  175.1760  140.0640 C   0  0  0  0  0  0  0  0  0  0  0  0
  197.5370  175.3800  141.3010 O   0  0  0  0  0  0  0  0  0  0  0  0
  2 16  1  0  0  0  0
  3  7  1  0  0  0  0
  4 25  1  0  0  0  0
  5 14  1  0  0  0  0
  5 29  1  0  0  0  0
  6 24  1  6  0  0  0
  6 19  1  0  0  0  0
  7  1  1  0  0  0  0
  7 18  1  6  0  0  0
  8 17  1  6  0  0  0
  8  1  1  0  0  0  0
  9  3  1  0  0  0  0
  9 12  1  0  0  0  0
 10  8  1  0  0  0  0
 10  3  1  0  0  0  0
 13 12  2  0  0  0  0
 14 13  1  0  0  0  0
 15  9  2  0  0  0  0
 16 18  1  6  0  0  0
 16 26  1  0  0  0  0
 19 11  2  0  0  0  0
 19 31  1  0  0  0  0
 20 23  2  0  0  0  0
 21 15  1  0  0  0  0
 21 14  2  0  0  0  0
 22  2  1  6  0  0  0
 22 16  1  0  0  0  0
 22  6  1  0  0  0  0
 23 28  1  0  0  0  0
 25 28  2  0  0  0  0
 26 11  1  0  0  0  0
 27  4  2  0  0  0  0
 27 20  1  0  0  0  0
 28 24  1  0  0  0  0
 29 20  1  0  0  0  0
 30 34  1  0  0  0  0
 31 30  2  0  0  0  0
 33 36  1  0  0  0  0
 33 37  1  0  0  0  0
 34 33  1  0  0  0  0
 35 32  1  0  0  0  0
 36 32  1  0  0  0  0
 37 35  1  0  0  0  0
 38 34  2  0  0  0  0
 39 27  1  0  0  0  0
 40 39  1  0  0  0  0
 40 41  1  0  0  0  0
 41 42  1  0  0  0  0
 43 45  1  0  0  0  0
 44 42  1  0  0  0  0
 44 43  2  0  0  0  0
 45 46  1  0  0  0  0
 46 48  1  0  0  0  0
 47 48  1  0  0  0  0
 48 49  2  0  0  0  0
M  END
>  <MODEL>
1

>  <REMARK>
 VINA RESULT:      -7.5      0.000      0.000
  Name = 
  10 active torsions:
  status: ('A' for Active; 'I' for Inactive)
    1  A    between atoms: C_8  and  C_24
    2  A    between atoms: C_8  and  O_32
    3  A    between atoms: C_9  and  C_14
    4  A    between atoms: C_9  and  C_31
    5  A    between atoms: N_11  and  C_16
    6  A    between atoms: C_15  and  C_17
    7  A    between atoms: C_17  and  C_24
    8  A    between atoms: C_31  and  C_44
    9  A    between atoms: O_32  and  C_45
   10  A    between atoms: C_34  and  C_46
                            x       y       z     vdW  Elec       q    Type
                         _______ _______ _______ _____ _____    ______ ____

>  <TORSDO>
F 10

$$$$
=
 OpenBabel10232410533D

 49 55  0  0  1  0  0  0  0  0999 V2000
  180.7740  177.5860  137.5900 S   0  0  0  0  0  0  0  0  0  0  0  0
  185.0520  179.7760  139.2720 O   0  0  0  0  0  0  0  0  0  0  0  0
  183.1550  177.3930  136.5090 N   0  0  0  0  0  0  0  0  0  0  0  0
  191.1240  176.8680  138.2950 C   0  0  0  0  0  3  0  0  0  0  0  0
  188.0060  174.4960  135.6980 C   0  0  0  0  0  2  0  0  0  0  0  0
  186.5820  177.9760  139.8410 C   0  0  1  0  0  3  0  0  0  0  0  0
  182.5650  177.5300  137.8280 C   0  0  1  0  0  3  0  0  0  0  0  0
  180.9840  177.3590  135.7990 C   0  0  2  0  0  3  0  0  0  0  0  0
  184.3780  176.6790  136.3050 C   0  0  0  0  0  0  0  0  0  0  0  0
  182.3420  177.7140  135.4200 N   0  0  0  0  0  2  0  0  0  0  0  0
  185.0470  178.3890  141.7580 C   0  0  0  0  0  3  0  0  0  0  0  0
  184.5930  175.4970  136.9580 N   0  0  0  0  0  0  0  0  0  0  0  0
  185.7340  174.7770  136.7630 C   0  0  0  0  0  3  0  0  0  0  0  0
  186.7270  175.2490  135.8960 C   0  0  0  0  0  0  0  0  0  0  0  0
  185.3390  177.1730  135.4070 C   0  0  0  0  0  3  0  0  0  0  0  0
  184.1590  178.6940  139.4030 C   0  0  1  0  0  0  0  0  0  0  0  0
  179.9880  178.2250  135.0560 C   0  0  0  0  0  1  0  0  0  0  0  0
  183.0000  178.8580  138.4380 C   0  0  0  0  0  2  0  0  0  0  0  0
  186.2910  178.1940  141.3200 C   0  0  0  0  0  0  0  0  0  0  0  0
  189.2600  175.4530  137.6570 C   0  0  0  0  0  0  0  0  0  0  0  0
  186.5210  176.4550  135.2120 C   0  0  0  0  0  3  0  0  0  0  0  0
  185.5250  178.5100  138.8520 C   0  0  1  0  0  3  0  0  0  0  0  0
  188.3840  176.3740  138.2400 C   0  0  0  0  0  3  0  0  0  0  0  0
  187.9320  178.5620  139.4260 C   0  0  0  0  0  2  0  0  0  0  0  0
  190.2390  177.7830  138.8700 C   0  0  0  0  0  3  0  0  0  0  0  0
  183.8460  178.3760  140.8650 C   0  0  0  0  0  2  0  0  0  0  0  0
  190.6430  175.6970  137.6840 C   0  0  0  0  0  0  0  0  0  0  0  0
  188.8650  177.5360  138.8550 C   0  0  0  0  0  0  0  0  0  0  0  0
  188.7090  174.2080  137.0250 C   0  0  0  0  0  2  0  0  0  0  0  0
  187.1290  177.4350  143.4630 N   0  0  0  0  0  0  0  0  0  0  0  0
  187.3280  178.0790  142.3550 C   0  0  0  0  0  3  0  0  0  0  0  0
  186.8300  178.5190  147.8350 C   0  0  0  0  0  2  0  0  0  0  0  0
  187.8100  177.5810  145.8860 N   0  0  0  0  0  0  0  0  0  0  0  0
  188.1040  177.2790  144.5040 C   0  0  0  0  0  0  0  0  0  0  0  0
  188.0060  177.6390  148.2450 C   0  0  0  0  0  2  0  0  0  0  0  0
  186.6490  178.3320  146.3470 C   0  0  0  0  0  2  0  0  0  0  0  0
  188.6990  177.2050  146.9680 C   0  0  0  0  0  2  0  0  0  0  0  0
  189.2920  176.8880  144.1740 N   0  0  0  0  0  2  0  0  0  0  0  0
  191.5190  174.7680  137.1130 O   0  0  0  0  0  0  0  0  0  0  0  0
  192.2430  175.0270  135.9170 C   0  0  0  0  0  2  0  0  0  0  0  0
  192.0090  173.9110  134.9140 C   0  0  0  0  0  2  0  0  0  0  0  0
  192.1570  172.5640  135.5980 C   0  0  0  0  0  2  0  0  0  0  0  0
  194.5300  171.9880  136.0610 C   0  0  0  0  0  3  0  0  0  0  0  0
  193.4840  171.9650  135.2360 C   0  0  0  0  0  3  0  0  0  0  0  0
  194.4710  172.6080  137.4250 C   0  0  0  0  0  2  0  0  0  0  0  0
  195.8650  172.8060  137.9900 C   0  0  0  0  0  2  0  0  0  0  0  0
  196.2590  174.7040  139.6160 N   0  0  0  0  0  1  0  0  0  0  0  0
  196.1320  174.2460  138.2690 C   0  0  0  0  0  0  0  0  0  0  0  0
  196.2480  175.0570  137.3170 O   0  0  0  0  0  0  0  0  0  0  0  0
  1  7  1  0  0  0  0
  2 16  1  0  0  0  0
  3  7  1  0  0  0  0
  4 25  1  0  0  0  0
  5 14  1  0  0  0  0
  5 29  1  0  0  0  0
  6 24  1  6  0  0  0
  6 19  1  0  0  0  0
  7 18  1  6  0  0  0
  8 17  1  6  0  0  0
  8  1  1  0  0  0  0
  9  3  1  0  0  0  0
  9 12  1  0  0  0  0
 10  8  1  0  0  0  0
 10  3  1  0  0  0  0
 13 12  2  0  0  0  0
 14 13  1  0  0  0  0
 15  9  2  0  0  0  0
 16 18  1  6  0  0  0
 16 26  1  0  0  0  0
 19 11  2  0  0  0  0
 19 31  1  0  0  0  0
 20 27  1  0  0  0  0
 20 23  2  0  0  0  0
 21 15  1  0  0  0  0
 21 14  2  0  0  0  0
 22  2  1  1  0  0  0
 22 16  1  0  0  0  0
 22  6  1  0  0  0  0
 23 28  1  0  0  0  0
 26 11  1  0  0  0  0
 27  4  2  0  0  0  0
 28 25  2  0  0  0  0
 28 24  1  0  0  0  0
 29 20  1  0  0  0  0
 30 34  1  0  0  0  0
 31 30  2  0  0  0  0
 32 35  1  0  0  0  0
 33 36  1  0  0  0  0
 33 37  1  0  0  0  0
 34 33  1  0  0  0  0
 36 32  1  0  0  0  0
 37 35  1  0  0  0  0
 38 34  2  0  0  0  0
 39 27  1  0  0  0  0
 40 39  1  0  0  0  0
 41 42  1  0  0  0  0
 41 40  1  0  0  0  0
 43 45  1  0  0  0  0
 44 42  1  0  0  0  0
 44 43  2  0  0  0  0
 45 46  1  0  0  0  0
 46 48  1  0  0  0  0
 48 47  1  0  0  0  0
 49 48  2  0  0  0  0
M  END
>  <MODEL>
2

>  <REMARK>
 VINA RESULT:      -7.3      1.652      2.323
  Name = 
  10 active torsions:
  status: ('A' for Active; 'I' for Inactive)
    1  A    between atoms: C_8  and  C_24
    2  A    between atoms: C_8  and  O_32
    3  A    between atoms: C_9  and  C_14
    4  A    between atoms: C_9  and  C_31
    5  A    between atoms: N_11  and  C_16
    6  A    between atoms: C_15  and  C_17
    7  A    between atoms: C_17  and  C_24
    8  A    between atoms: C_31  and  C_44
    9  A    between atoms: O_32  and  C_45
   10  A    between atoms: C_34  and  C_46
                            x       y       z     vdW  Elec       q    Type
                         _______ _______ _______ _____ _____    ______ ____

>  <TORSDO>
F 10

$$$$
=
 OpenBabel10232410533D

 49 55  0  0  1  0  0  0  0  0999 V2000
  193.1180  172.6040  135.9210 S   0  0  0  0  0  0  0  0  0  0  0  0
  188.3730  173.6880  134.4240 O   0  0  0  0  0  0  0  0  0  0  0  0
  191.8670  174.8870  136.2330 N   0  0  0  0  0  0  0  0  0  0  0  0
  184.5370  178.1630  137.8200 C   0  0  0  0  0  3  0  0  0  0  0  0
  188.9110  178.5080  139.5100 C   0  0  0  0  0  2  0  0  0  0  0  0
  187.1050  174.1970  136.4330 C   0  0  1  0  0  3  0  0  0  0  0  0
  191.5550  173.4700  136.1970 C   0  0  1  0  0  3  0  0  0  0  0  0
  194.0200  174.1810  135.9470 C   0  0  2  0  0  3  0  0  0  0  0  0
  191.1190  175.7990  137.0430 C   0  0  0  0  0  0  0  0  0  0  0  0
  193.0950  175.2750  135.6960 N   0  0  0  0  0  2  0  0  0  0  0  0
  187.1620  171.7300  136.0970 C   0  0  0  0  0  3  0  0  0  0  0  0
  190.7560  175.4420  138.3120 N   0  0  0  0  0  0  0  0  0  0  0  0
  190.0700  176.2990  139.1200 C   0  0  0  0  0  3  0  0  0  0  0  0
  189.7010  177.5660  138.6540 C   0  0  0  0  0  0  0  0  0  0  0  0
  190.7890  177.0710  136.5470 C   0  0  0  0  0  3  0  0  0  0  0  0
  189.1840  173.0960  135.4120 C   0  0  1  0  0  0  0  0  0  0  0  0
  195.1100  174.1620  134.8950 C   0  0  0  0  0  1  0  0  0  0  0  0
  190.6440  173.1850  135.0080 C   0  0  0  0  0  2  0  0  0  0  0  0
  186.4500  172.8230  136.3690 C   0  0  0  0  0  0  0  0  0  0  0  0
  186.6230  177.6310  138.9400 C   0  0  0  0  0  0  0  0  0  0  0  0
  190.0690  177.9520  137.3580 C   0  0  0  0  0  3  0  0  0  0  0  0
  188.4380  174.3520  135.6720 C   0  0  1  0  0  3  0  0  0  0  0  0
  186.8410  176.6110  138.0090 C   0  0  0  0  0  3  0  0  0  0  0  0
  186.1710  175.3060  135.9480 C   0  0  0  0  0  2  0  0  0  0  0  0
  184.7680  177.1430  136.8950 C   0  0  0  0  0  3  0  0  0  0  0  0
  188.6410  171.7430  135.8720 C   0  0  0  0  0  2  0  0  0  0  0  0
  185.4610  178.4150  138.8500 C   0  0  0  0  0  0  0  0  0  0  0  0
  185.9160  176.3540  136.9900 C   0  0  0  0  0  0  0  0  0  0  0  0
  187.6270  177.8610  140.0310 C   0  0  0  0  0  2  0  0  0  0  0  0
  184.1040  172.5490  135.8230 N   0  0  0  0  0  0  0  0  0  0  0  0
  185.0390  172.6040  136.7200 C   0  0  0  0  0  3  0  0  0  0  0  0
  181.2200  175.1130  138.1660 C   0  0  0  0  0  2  0  0  0  0  0  0
  181.9000  173.3060  136.7820 N   0  0  0  0  0  0  0  0  0  0  0  0
  182.7150  172.3270  136.1020 C   0  0  0  0  0  0  0  0  0  0  0  0
  179.9820  174.4380  137.5870 C   0  0  0  0  0  2  0  0  0  0  0  0
  182.4140  174.4600  137.5100 C   0  0  0  0  0  2  0  0  0  0  0  0
  180.4560  173.1960  136.8570 C   0  0  0  0  0  2  0  0  0  0  0  0
  182.1970  171.1920  135.7580 N   0  0  0  0  0  2  0  0  0  0  0  0
  185.2370  179.4260  139.7900 O   0  0  0  0  0  0  0  0  0  0  0  0
  184.3700  179.2620  140.9060 C   0  0  0  0  0  2  0  0  0  0  0  0
  185.1660  179.3400  142.1980 C   0  0  0  0  0  2  0  0  0  0  0  0
  185.4210  177.9410  142.7310 C   0  0  0  0  0  2  0  0  0  0  0  0
  186.9870  177.5140  144.6140 C   0  0  0  0  0  3  0  0  0  0  0  0
  185.8390  178.0250  144.1690 C   0  0  0  0  0  3  0  0  0  0  0  0
  187.9630  176.8160  143.7130 C   0  0  0  0  0  2  0  0  0  0  0  0
  189.1390  177.7190  143.3900 C   0  0  0  0  0  2  0  0  0  0  0  0
  190.2150  175.5480  142.6640 N   0  0  0  0  0  1  0  0  0  0  0  0
  190.3480  176.9190  143.0370 C   0  0  0  0  0  0  0  0  0  0  0  0
  191.4830  177.4560  143.0630 O   0  0  0  0  0  0  0  0  0  0  0  0
  1  8  1  0  0  0  0
  1  7  1  0  0  0  0
  2 16  1  0  0  0  0
  3  9  1  0  0  0  0
  4 27  1  0  0  0  0
  5 29  1  0  0  0  0
  6 24  1  6  0  0  0
  7 18  1  6  0  0  0
  7  3  1  0  0  0  0
  8 17  1  6  0  0  0
  9 12  1  0  0  0  0
 10  8  1  0  0  0  0
 10  3  1  0  0  0  0
 11 19  2  0  0  0  0
 12 13  2  0  0  0  0
 14 13  1  0  0  0  0
 14  5  1  0  0  0  0
 15  9  2  0  0  0  0
 15 21  1  0  0  0  0
 16 18  1  6  0  0  0
 16 22  1  0  0  0  0
 16 26  1  0  0  0  0
 19  6  1  0  0  0  0
 19 31  1  0  0  0  0
 20 29  1  0  0  0  0
 21 14  2  0  0  0  0
 22  2  1  6  0  0  0
 22  6  1  0  0  0  0
 23 20  1  0  0  0  0
 24 28  1  0  0  0  0
 25 28  1  0  0  0  0
 25  4  2  0  0  0  0
 26 11  1  0  0  0  0
 27 20  2  0  0  0  0
 27 39  1  0  0  0  0
 28 23  2  0  0  0  0
 30 34  1  0  0  0  0
 30 31  2  0  0  0  0
 33 37  1  0  0  0  0
 33 36  1  0  0  0  0
 34 33  1  0  0  0  0
 35 32  1  0  0  0  0
 36 32  1  0  0  0  0
 37 35  1  0  0  0  0
 38 34  2  0  0  0  0
 39 40  1  0  0  0  0
 40 41  1  0  0  0  0
 41 42  1  0  0  0  0
 42 44  1  0  0  0  0
 44 43  2  0  0  0  0
 45 43  1  0  0  0  0
 46 45  1  0  0  0  0
 47 48  1  0  0  0  0
 48 49  2  0  0  0  0
 48 46  1  0  0  0  0
M  END
>  <MODEL>
3

>  <REMARK>
 VINA RESULT:      -7.1      3.270      9.420
  Name = 
  10 active torsions:
  status: ('A' for Active; 'I' for Inactive)
    1  A    between atoms: C_8  and  C_24
    2  A    between atoms: C_8  and  O_32
    3  A    between atoms: C_9  and  C_14
    4  A    between atoms: C_9  and  C_31
    5  A    between atoms: N_11  and  C_16
    6  A    between atoms: C_15  and  C_17
    7  A    between atoms: C_17  and  C_24
    8  A    between atoms: C_31  and  C_44
    9  A    between atoms: O_32  and  C_45
   10  A    between atoms: C_34  and  C_46
                            x       y       z     vdW  Elec       q    Type
                         _______ _______ _______ _____ _____    ______ ____

>  <TORSDO>
F 10

$$$$
=
 OpenBabel10232410533D

 49 55  0  0  1  0  0  0  0  0999 V2000
  192.3070  173.8960  136.0820 S   0  0  0  0  0  0  0  0  0  0  0  0
  187.7630  175.8920  134.9420 O   0  0  0  0  0  0  0  0  0  0  0  0
  191.2450  176.0550  137.1250 N   0  0  0  0  0  0  0  0  0  0  0  0
  184.1540  179.3220  139.5760 C   0  0  0  0  0  3  0  0  0  0  0  0
  188.4420  178.6380  141.3750 C   0  0  0  0  0  2  0  0  0  0  0  0
  186.4370  175.8190  136.9760 C   0  0  1  0  0  3  0  0  0  0  0  0
  190.8130  174.7710  136.6020 C   0  0  1  0  0  3  0  0  0  0  0  0
  193.3410  175.2740  136.6630 C   0  0  2  0  0  3  0  0  0  0  0  0
  190.5370  176.7110  138.1810 C   0  0  0  0  0  0  0  0  0  0  0  0
  192.5300  176.4750  136.7790 N   0  0  0  0  0  2  0  0  0  0  0  0
  186.2970  173.6170  135.8220 C   0  0  0  0  0  3  0  0  0  0  0  0
  190.0760  175.9850  139.2450 N   0  0  0  0  0  0  0  0  0  0  0  0
  189.4240  176.5850  140.2820 C   0  0  0  0  0  3  0  0  0  0  0  0
  189.1930  177.9650  140.2670 C   0  0  0  0  0  0  0  0  0  0  0  0
  190.3460  178.1020  138.1410 C   0  0  0  0  0  3  0  0  0  0  0  0
  188.4650  174.9230  135.6860 C   0  0  1  0  0  0  0  0  0  0  0  0
  194.4800  175.5010  135.6900 C   0  0  0  0  0  1  0  0  0  0  0  0
  189.9470  174.9960  135.3680 C   0  0  0  0  0  2  0  0  0  0  0  0
  185.6690  174.6210  136.4340 C   0  0  0  0  0  0  0  0  0  0  0  0
  186.1210  178.2380  140.4920 C   0  0  0  0  0  0  0  0  0  0  0  0
  189.6630  178.7260  139.1880 C   0  0  0  0  0  3  0  0  0  0  0  0
  187.8180  176.0870  136.3420 C   0  0  1  0  0  3  0  0  0  0  0  0
  186.3000  177.5740  139.2740 C   0  0  0  0  0  3  0  0  0  0  0  0
  185.6310  177.1140  136.8780 C   0  0  0  0  0  2  0  0  0  0  0  0
  184.3450  178.6560  138.3630 C   0  0  0  0  0  3  0  0  0  0  0  0
  187.7810  173.5560  135.6470 C   0  0  0  0  0  2  0  0  0  0  0  0
  185.0390  179.1190  140.6500 C   0  0  0  0  0  0  0  0  0  0  0  0
  185.4130  177.7710  138.2090 C   0  0  0  0  0  0  0  0  0  0  0  0
  187.0810  177.9860  141.6180 C   0  0  0  0  0  2  0  0  0  0  0  0
  183.6140  173.3400  136.3470 N   0  0  0  0  0  0  0  0  0  0  0  0
  184.2280  174.4380  136.6600 C   0  0  0  0  0  3  0  0  0  0  0  0
  181.1180  169.7920  135.0950 C   0  0  0  0  0  2  0  0  0  0  0  0
  181.5850  171.8530  136.1800 N   0  0  0  0  0  0  0  0  0  0  0  0
  182.2150  173.0980  136.5520 C   0  0  0  0  0  0  0  0  0  0  0  0
  179.9820  170.1140  136.0600 C   0  0  0  0  0  2  0  0  0  0  0  0
  182.1820  170.8420  135.3150 C   0  0  0  0  0  2  0  0  0  0  0  0
  180.2390  171.5100  136.5950 C   0  0  0  0  0  2  0  0  0  0  0  0
  181.4990  174.0510  137.0560 N   0  0  0  0  0  2  0  0  0  0  0  0
  184.8530  179.7720  141.8730 O   0  0  0  0  0  0  0  0  0  0  0  0
  184.1430  179.1870  142.9580 C   0  0  0  0  0  2  0  0  0  0  0  0
  184.9100  179.3930  144.2530 C   0  0  0  0  0  2  0  0  0  0  0  0
  185.0960  178.0620  144.9590 C   0  0  0  0  0  2  0  0  0  0  0  0
  186.9670  178.1550  146.5940 C   0  0  0  0  0  3  0  0  0  0  0  0
  185.6690  178.3000  146.3250 C   0  0  0  0  0  3  0  0  0  0  0  0
  187.9670  177.7480  145.5520 C   0  0  0  0  0  2  0  0  0  0  0  0
  189.3180  177.4660  146.1830 C   0  0  0  0  0  2  0  0  0  0  0  0
  191.6160  176.6130  145.5580 N   0  0  0  0  0  1  0  0  0  0  0  0
  190.2680  176.8960  145.1840 C   0  0  0  0  0  0  0  0  0  0  0  0
  189.8780  176.6600  144.0140 O   0  0  0  0  0  0  0  0  0  0  0  0
  1  7  1  0  0  0  0
  1  8  1  0  0  0  0
  2 16  1  0  0  0  0
  3  9  1  0  0  0  0
  4 27  1  0  0  0  0
  5 29  1  0  0  0  0
  6 24  1  6  0  0  0
  7 18  1  6  0  0  0
  7  3  1  0  0  0  0
  8 17  1  6  0  0  0
  8 10  1  0  0  0  0
  9 12  1  0  0  0  0
 10  3  1  0  0  0  0
 11 19  2  0  0  0  0
 12 13  2  0  0  0  0
 14 13  1  0  0  0  0
 14  5  1  0  0  0  0
 15  9  2  0  0  0  0
 15 21  1  0  0  0  0
 16 18  1  6  0  0  0
 16 22  1  0  0  0  0
 19 31  1  0  0  0  0
 19  6  1  0  0  0  0
 20 27  2  0  0  0  0
 20 29  1  0  0  0  0
 21 14  2  0  0  0  0
 22  2  1  6  0  0  0
 22  6  1  0  0  0  0
 23 20  1  0  0  0  0
 24 28  1  0  0  0  0
 25  4  2  0  0  0  0
 26 16  1  0  0  0  0
 26 11  1  0  0  0  0
 27 39  1  0  0  0  0
 28 25  1  0  0  0  0
 28 23  2  0  0  0  0
 30 34  1  0  0  0  0
 30 31  2  0  0  0  0
 32 36  1  0  0  0  0
 32 35  1  0  0  0  0
 33 34  1  0  0  0  0
 33 37  1  0  0  0  0
 34 38  2  0  0  0  0
 35 37  1  0  0  0  0
 36 33  1  0  0  0  0
 39 40  1  0  0  0  0
 40 41  1  0  0  0  0
 41 42  1  0  0  0  0
 42 44  1  0  0  0  0
 44 43  2  0  0  0  0
 45 46  1  0  0  0  0
 45 43  1  0  0  0  0
 48 47  1  0  0  0  0
 48 46  1  0  0  0  0
 49 48  2  0  0  0  0
M  END
>  <MODEL>
4

>  <REMARK>
 VINA RESULT:      -6.7      3.603      9.914
  Name = 
  10 active torsions:
  status: ('A' for Active; 'I' for Inactive)
    1  A    between atoms: C_8  and  C_24
    2  A    between atoms: C_8  and  O_32
    3  A    between atoms: C_9  and  C_14
    4  A    between atoms: C_9  and  C_31
    5  A    between atoms: N_11  and  C_16
    6  A    between atoms: C_15  and  C_17
    7  A    between atoms: C_17  and  C_24
    8  A    between atoms: C_31  and  C_44
    9  A    between atoms: O_32  and  C_45
   10  A    between atoms: C_34  and  C_46
                            x       y       z     vdW  Elec       q    Type
                         _______ _______ _______ _____ _____    ______ ____

>  <TORSDO>
F 10

$$$$
=
 OpenBabel10232410533D

 49 55  0  0  1  0  0  0  0  0999 V2000
  192.4990  175.3660  137.4700 S   0  0  0  0  0  0  0  0  0  0  0  0
  188.4200  178.4130  137.3770 O   0  0  0  0  0  0  0  0  0  0  0  0
  191.5830  176.8070  139.4600 N   0  0  0  0  0  0  0  0  0  0  0  0
  184.6870  179.4820  142.9620 C   0  0  0  0  0  3  0  0  0  0  0  0
  188.5900  177.2300  144.3020 C   0  0  0  0  0  2  0  0  0  0  0  0
  186.8430  177.5190  138.9940 C   0  0  1  0  0  3  0  0  0  0  0  0
  191.0680  176.0840  138.3110 C   0  0  1  0  0  3  0  0  0  0  0  0
  193.6090  176.0350  138.7440 C   0  0  2  0  0  3  0  0  0  0  0  0
  190.8290  176.9270  140.6690 C   0  0  0  0  0  0  0  0  0  0  0  0
  192.9430  177.1180  139.4500 N   0  0  0  0  0  2  0  0  0  0  0  0
  186.5840  176.3070  136.8340 C   0  0  0  0  0  3  0  0  0  0  0  0
  190.1490  175.8450  141.1570 N   0  0  0  0  0  0  0  0  0  0  0  0
  189.4460  175.9160  142.3230 C   0  0  0  0  0  3  0  0  0  0  0  0
  189.3890  177.1170  143.0410 C   0  0  0  0  0  0  0  0  0  0  0  0
  190.8170  178.1420  141.3740 C   0  0  0  0  0  3  0  0  0  0  0  0
  188.8950  177.0950  137.5160 C   0  0  1  0  0  0  0  0  0  0  0  0
  194.8850  176.5360  138.0970 C   0  0  0  0  0  1  0  0  0  0  0  0
  190.4030  177.0650  137.3530 C   0  0  0  0  0  2  0  0  0  0  0  0
  186.0100  176.9340  137.8600 C   0  0  0  0  0  0  0  0  0  0  0  0
  186.3710  177.7580  143.2400 C   0  0  0  0  0  0  0  0  0  0  0  0
  190.0850  178.2350  142.5600 C   0  0  0  0  0  3  0  0  0  0  0  0
  188.3160  177.8350  138.6650 C   0  0  1  0  0  3  0  0  0  0  0  0
  186.6240  177.8090  141.8660 C   0  0  0  0  0  3  0  0  0  0  0  0
  186.2200  178.7910  139.5700 C   0  0  0  0  0  2  0  0  0  0  0  0
  184.9510  179.5260  141.5910 C   0  0  0  0  0  3  0  0  0  0  0  0
  188.0610  176.0920  136.7190 C   0  0  0  0  0  2  0  0  0  0  0  0
  185.3930  178.5980  143.7970 C   0  0  0  0  0  0  0  0  0  0  0  0
  185.9130  178.6820  141.0340 C   0  0  0  0  0  0  0  0  0  0  0  0
  187.1380  176.7940  144.0970 C   0  0  0  0  0  2  0  0  0  0  0  0
  183.8650  175.8070  137.8350 N   0  0  0  0  0  0  0  0  0  0  0  0
  184.5410  176.9130  137.8880 C   0  0  0  0  0  3  0  0  0  0  0  0
  181.1940  172.2920  136.8910 C   0  0  0  0  0  2  0  0  0  0  0  0
  181.7300  174.4810  137.6400 N   0  0  0  0  0  0  0  0  0  0  0  0
  182.4330  175.7220  137.8690 C   0  0  0  0  0  0  0  0  0  0  0  0
  179.9820  172.8840  137.6000 C   0  0  0  0  0  2  0  0  0  0  0  0
  182.3250  173.2780  137.0730 C   0  0  0  0  0  2  0  0  0  0  0  0
  180.3120  174.3330  137.9050 C   0  0  0  0  0  2  0  0  0  0  0  0
  181.7620  176.8080  138.0790 N   0  0  0  0  0  2  0  0  0  0  0  0
  185.1320  178.5370  145.1700 O   0  0  0  0  0  0  0  0  0  0  0  0
  185.6390  179.4930  146.0940 C   0  0  0  0  0  2  0  0  0  0  0  0
  185.9190  178.8280  147.4300 C   0  0  0  0  0  2  0  0  0  0  0  0
  187.1360  177.9280  147.3120 C   0  0  0  0  0  2  0  0  0  0  0  0
  189.3990  177.8280  148.3360 C   0  0  0  0  0  3  0  0  0  0  0  0
  188.1930  178.3910  148.2710 C   0  0  0  0  0  3  0  0  0  0  0  0
  189.8070  176.6860  147.4530 C   0  0  0  0  0  2  0  0  0  0  0  0
  191.1060  176.9970  146.7340 C   0  0  0  0  0  2  0  0  0  0  0  0
  192.8050  175.8350  148.2050 N   0  0  0  0  0  1  0  0  0  0  0  0
  192.1140  175.9210  146.9590 C   0  0  0  0  0  0  0  0  0  0  0  0
  192.3520  175.0860  146.0510 O   0  0  0  0  0  0  0  0  0  0  0  0
  1  7  1  0  0  0  0
  1  8  1  0  0  0  0
  2 16  1  0  0  0  0
  3  9  1  0  0  0  0
  4 27  1  0  0  0  0
  6 24  1  6  0  0  0
  7 18  1  6  0  0  0
  7  3  1  0  0  0  0
  8 17  1  6  0  0  0
  8 10  1  0  0  0  0
  9 12  2  0  0  0  0
  9 15  1  0  0  0  0
 10  3  1  0  0  0  0
 11 19  2  0  0  0  0
 12 13  1  0  0  0  0
 13 14  2  0  0  0  0
 14  5  1  0  0  0  0
 15 21  2  0  0  0  0
 16 26  1  6  0  0  0
 16 22  1  0  0  0  0
 18 16  1  0  0  0  0
 19 31  1  0  0  0  0
 19  6  1  0  0  0  0
 20 27  2  0  0  0  0
 20 29  1  0  0  0  0
 21 14  1  0  0  0  0
 22  2  1  6  0  0  0
 22  6  1  0  0  0  0
 23 20  1  0  0  0  0
 24 28  1  0  0  0  0
 25  4  2  0  0  0  0
 26 11  1  0  0  0  0
 27 39  1  0  0  0  0
 28 25  1  0  0  0  0
 28 23  2  0  0  0  0
 29  5  1  0  0  0  0
 30 34  1  0  0  0  0
 30 31  2  0  0  0  0
 32 36  1  0  0  0  0
 32 35  1  0  0  0  0
 33 34  1  0  0  0  0
 33 37  1  0  0  0  0
 34 38  2  0  0  0  0
 35 37  1  0  0  0  0
 36 33  1  0  0  0  0
 39 40  1  0  0  0  0
 40 41  1  0  0  0  0
 42 41  1  0  0  0  0
 42 44  1  0  0  0  0
 44 43  2  0  0  0  0
 45 43  1  0  0  0  0
 46 48  1  0  0  0  0
 46 45  1  0  0  0  0
 48 47  1  0  0  0  0
 49 48  2  0  0  0  0
M  END
>  <MODEL>
5

>  <REMARK>
 VINA RESULT:      -6.6      3.309      9.799
  Name = 
  10 active torsions:
  status: ('A' for Active; 'I' for Inactive)
    1  A    between atoms: C_8  and  C_24
    2  A    between atoms: C_8  and  O_32
    3  A    between atoms: C_9  and  C_14
    4  A    between atoms: C_9  and  C_31
    5  A    between atoms: N_11  and  C_16
    6  A    between atoms: C_15  and  C_17
    7  A    between atoms: C_17  and  C_24
    8  A    between atoms: C_31  and  C_44
    9  A    between atoms: O_32  and  C_45
   10  A    between atoms: C_34  and  C_46
                            x       y       z     vdW  Elec       q    Type
                         _______ _______ _______ _____ _____    ______ ____

>  <TORSDO>
F 10

$$$$
=
 OpenBabel10232410533D

 49 55  0  0  1  0  0  0  0  0999 V2000
  192.5260  175.3790  137.5850 S   0  0  0  0  0  0  0  0  0  0  0  0
  188.4950  178.4890  137.5520 O   0  0  0  0  0  0  0  0  0  0  0  0
  191.6170  176.7760  139.6090 N   0  0  0  0  0  0  0  0  0  0  0  0
  184.7370  179.4540  143.1390 C   0  0  0  0  0  3  0  0  0  0  0  0
  188.5950  177.1050  144.4410 C   0  0  0  0  0  2  0  0  0  0  0  0
  186.8920  177.5740  139.1310 C   0  0  1  0  0  3  0  0  0  0  0  0
  191.1000  176.0940  138.4370 C   0  0  1  0  0  3  0  0  0  0  0  0
  193.6370  175.9940  138.8860 C   0  0  2  0  0  3  0  0  0  0  0  0
  190.8560  176.8720  140.8170 C   0  0  0  0  0  0  0  0  0  0  0  0
  192.9830  177.0660  139.6180 N   0  0  0  0  0  2  0  0  0  0  0  0
  186.6320  176.4280  136.9350 C   0  0  0  0  0  3  0  0  0  0  0  0
  190.1570  175.7870  141.2680 N   0  0  0  0  0  0  0  0  0  0  0  0
  189.4460  175.8360  142.4310 C   0  0  0  0  0  3  0  0  0  0  0  0
  189.4020  177.0160  143.1830 C   0  0  0  0  0  0  0  0  0  0  0  0
  190.8570  178.0670  141.5560 C   0  0  0  0  0  3  0  0  0  0  0  0
  188.9490  177.1600  137.6560 C   0  0  1  0  0  0  0  0  0  0  0  0
  194.9250  176.4930  138.2620 C   0  0  0  0  0  1  0  0  0  0  0  0
  190.4580  177.1130  137.5030 C   0  0  0  0  0  2  0  0  0  0  0  0
  186.0590  177.0340  137.9760 C   0  0  0  0  0  0  0  0  0  0  0  0
  186.3930  177.6980  143.3800 C   0  0  0  0  0  0  0  0  0  0  0  0
  190.1190  178.1360  142.7390 C   0  0  0  0  0  3  0  0  0  0  0  0
  188.3730  177.8770  138.8220 C   0  0  1  0  0  3  0  0  0  0  0  0
  186.6570  177.7840  142.0090 C   0  0  0  0  0  3  0  0  0  0  0  0
  186.2850  178.8380  139.7400 C   0  0  0  0  0  2  0  0  0  0  0  0
  185.0120  179.5340  141.7720 C   0  0  0  0  0  3  0  0  0  0  0  0
  188.1050  176.1940  136.8250 C   0  0  0  0  0  2  0  0  0  0  0  0
  185.4240  178.5370  143.9540 C   0  0  0  0  0  0  0  0  0  0  0  0
  185.9650  178.6920  141.1970 C   0  0  0  0  0  0  0  0  0  0  0  0
  187.1390  176.6970  144.2130 C   0  0  0  0  0  2  0  0  0  0  0  0
  183.8990  178.1330  137.9770 N   0  0  0  0  0  0  0  0  0  0  0  0
  184.5900  177.0350  137.9930 C   0  0  0  0  0  3  0  0  0  0  0  0
  181.2070  181.7080  138.5670 C   0  0  0  0  0  2  0  0  0  0  0  0
  181.7520  179.4490  138.0780 N   0  0  0  0  0  0  0  0  0  0  0  0
  182.4660  178.1980  137.9820 C   0  0  0  0  0  0  0  0  0  0  0  0
  179.9820  181.0190  137.9790 C   0  0  0  0  0  2  0  0  0  0  0  0
  182.3460  180.7200  138.4710 C   0  0  0  0  0  2  0  0  0  0  0  0
  180.3240  179.5470  137.8460 C   0  0  0  0  0  2  0  0  0  0  0  0
  181.8050  177.0860  137.9310 N   0  0  0  0  0  2  0  0  0  0  0  0
  185.1510  178.4400  145.3220 O   0  0  0  0  0  0  0  0  0  0  0  0
  185.5470  179.4350  146.2580 C   0  0  0  0  0  2  0  0  0  0  0  0
  185.8590  178.7940  147.6000 C   0  0  0  0  0  2  0  0  0  0  0  0
  187.0880  177.9130  147.4750 C   0  0  0  0  0  2  0  0  0  0  0  0
  189.4030  177.9440  148.3810 C   0  0  0  0  0  3  0  0  0  0  0  0
  188.1560  178.4150  148.4020 C   0  0  0  0  0  3  0  0  0  0  0  0
  189.8490  176.8770  147.4250 C   0  0  0  0  0  2  0  0  0  0  0  0
  191.0970  177.3090  146.6780 C   0  0  0  0  0  2  0  0  0  0  0  0
  192.6620  175.4220  147.3010 N   0  0  0  0  0  1  0  0  0  0  0  0
  191.9310  176.1310  146.3010 C   0  0  0  0  0  0  0  0  0  0  0  0
  191.9850  175.7610  145.1030 O   0  0  0  0  0  0  0  0  0  0  0  0
  1  7  1  0  0  0  0
  1  8  1  0  0  0  0
  2 16  1  0  0  0  0
  3 10  1  0  0  0  0
  3  9  1  0  0  0  0
  4 27  1  0  0  0  0
  6 24  1  6  0  0  0
  7 18  1  6  0  0  0
  7  3  1  0  0  0  0
  8 17  1  6  0  0  0
  8 10  1  0  0  0  0
  9 12  2  0  0  0  0
  9 15  1  0  0  0  0
 11 19  2  0  0  0  0
 12 13  1  0  0  0  0
 13 14  2  0  0  0  0
 14  5  1  0  0  0  0
 15 21  2  0  0  0  0
 16 26  1  6  0  0  0
 16 22  1  0  0  0  0
 18 16  1  0  0  0  0
 19 31  1  0  0  0  0
 19  6  1  0  0  0  0
 20 27  2  0  0  0  0
 20 29  1  0  0  0  0
 21 14  1  0  0  0  0
 22  2  1  6  0  0  0
 22  6  1  0  0  0  0
 23 20  1  0  0  0  0
 24 28  1  0  0  0  0
 25  4  2  0  0  0  0
 26 11  1  0  0  0  0
 27 39  1  0  0  0  0
 28 25  1  0  0  0  0
 28 23  2  0  0  0  0
 29  5  1  0  0  0  0
 30 34  1  0  0  0  0
 30 31  2  0  0  0  0
 33 36  1  0  0  0  0
 34 33  1  0  0  0  0
 35 32  1  0  0  0  0
 36 32  1  0  0  0  0
 37 35  1  0  0  0  0
 37 33  1  0  0  0  0
 38 34  2  0  0  0  0
 39 40  1  0  0  0  0
 40 41  1  0  0  0  0
 42 41  1  0  0  0  0
 42 44  1  0  0  0  0
 43 44  2  0  0  0  0
 45 43  1  0  0  0  0
 46 45  1  0  0  0  0
 48 46  1  0  0  0  0
 48 47  1  0  0  0  0
 49 48  2  0  0  0  0
M  END
>  <MODEL>
6

>  <REMARK>
 VINA RESULT:      -6.4      3.325      9.732
  Name = 
  10 active torsions:
  status: ('A' for Active; 'I' for Inactive)
    1  A    between atoms: C_8  and  C_24
    2  A    between atoms: C_8  and  O_32
    3  A    between atoms: C_9  and  C_14
    4  A    between atoms: C_9  and  C_31
    5  A    between atoms: N_11  and  C_16
    6  A    between atoms: C_15  and  C_17
    7  A    between atoms: C_17  and  C_24
    8  A    between atoms: C_31  and  C_44
    9  A    between atoms: O_32  and  C_45
   10  A    between atoms: C_34  and  C_46
                            x       y       z     vdW  Elec       q    Type
                         _______ _______ _______ _____ _____    ______ ____

>  <TORSDO>
F 10

$$$$
=
 OpenBabel10232410533D

 49 55  0  0  1  0  0  0  0  0999 V2000
  180.6720  178.0940  138.1440 S   0  0  0  0  0  0  0  0  0  0  0  0
  184.9110  179.9660  140.2530 O   0  0  0  0  0  0  0  0  0  0  0  0
  183.0870  178.0150  137.1260 N   0  0  0  0  0  0  0  0  0  0  0  0
  190.9830  177.1300  139.0870 C   0  0  0  0  0  3  0  0  0  0  0  0
  187.9330  175.1840  136.0840 C   0  0  0  0  0  2  0  0  0  0  0  0
  186.4010  178.0830  140.6190 C   0  0  1  0  0  3  0  0  0  0  0  0
  182.4530  177.9790  138.4310 C   0  0  1  0  0  3  0  0  0  0  0  0
  180.9420  178.1120  136.3470 C   0  0  2  0  0  3  0  0  0  0  0  0
  184.3090  177.3180  136.8660 C   0  0  0  0  0  0  0  0  0  0  0  0
  182.3160  178.4950  136.0660 N   0  0  0  0  0  2  0  0  0  0  0  0
  184.8040  178.2510  142.5220 C   0  0  0  0  0  3  0  0  0  0  0  0
  184.4880  176.0540  137.3570 N   0  0  0  0  0  0  0  0  0  0  0  0
  185.6290  175.3510  137.1020 C   0  0  0  0  0  3  0  0  0  0  0  0
  186.6560  175.9220  136.3420 C   0  0  0  0  0  0  0  0  0  0  0  0
  185.3060  177.9160  136.0780 C   0  0  0  0  0  3  0  0  0  0  0  0
  184.0030  178.8910  140.2040 C   0  0  1  0  0  0  0  0  0  0  0  0
  179.9820  179.0880  135.6970 C   0  0  0  0  0  1  0  0  0  0  0  0
  182.8800  179.2030  139.2330 C   0  0  0  0  0  2  0  0  0  0  0  0
  186.0600  178.1000  142.1030 C   0  0  0  0  0  0  0  0  0  0  0  0
  189.1280  175.8440  138.1980 C   0  0  0  0  0  0  0  0  0  0  0  0
  186.4870  177.2140  135.8250 C   0  0  0  0  0  3  0  0  0  0  0  0
  185.3850  178.7640  139.6790 C   0  0  1  0  0  3  0  0  0  0  0  0
  188.2420  176.6890  138.8730 C   0  0  0  0  0  3  0  0  0  0  0  0
  187.7710  178.6990  140.3340 C   0  0  0  0  0  2  0  0  0  0  0  0
  190.0880  177.9700  139.7530 C   0  0  0  0  0  3  0  0  0  0  0  0
  183.6350  178.3800  141.5970 C   0  0  0  0  0  2  0  0  0  0  0  0
  190.5110  176.0610  138.3050 C   0  0  0  0  0  0  0  0  0  0  0  0
  188.7130  177.7480  139.6580 C   0  0  0  0  0  0  0  0  0  0  0  0
  188.5860  174.7060  137.3820 C   0  0  0  0  0  2  0  0  0  0  0  0
  188.0170  176.9700  142.9790 N   0  0  0  0  0  0  0  0  0  0  0  0
  187.0590  177.8280  143.1470 C   0  0  0  0  0  3  0  0  0  0  0  0
  188.0850  177.9050  147.3950 C   0  0  0  0  0  2  0  0  0  0  0  0
  188.8450  176.9460  145.3600 N   0  0  0  0  0  0  0  0  0  0  0  0
  189.0260  176.6700  143.9540 C   0  0  0  0  0  0  0  0  0  0  0  0
  189.1790  176.8890  147.7040 C   0  0  0  0  0  2  0  0  0  0  0  0
  187.8010  177.7980  145.9150 C   0  0  0  0  0  2  0  0  0  0  0  0
  189.7480  176.4340  146.3730 C   0  0  0  0  0  2  0  0  0  0  0  0
  190.1440  176.1670  143.5400 N   0  0  0  0  0  2  0  0  0  0  0  0
  191.3970  175.2060  137.6400 O   0  0  0  0  0  0  0  0  0  0  0  0
  192.7620  175.0700  138.0150 C   0  0  0  0  0  2  0  0  0  0  0  0
  193.6620  175.4690  136.8570 C   0  0  0  0  0  2  0  0  0  0  0  0
  195.0570  174.9100  137.0720 C   0  0  0  0  0  2  0  0  0  0  0  0
  195.7470  172.6300  136.3620 C   0  0  0  0  0  3  0  0  0  0  0  0
  194.9890  173.4120  137.1300 C   0  0  0  0  0  3  0  0  0  0  0  0
  196.7380  173.1780  135.3790 C   0  0  0  0  0  2  0  0  0  0  0  0
  198.0780  173.4270  136.0450 C   0  0  0  0  0  2  0  0  0  0  0  0
  199.6580  175.0960  134.9890 N   0  0  0  0  0  1  0  0  0  0  0  0
  198.5340  174.8300  135.8270 C   0  0  0  0  0  0  0  0  0  0  0  0
  197.9230  175.7790  136.3790 O   0  0  0  0  0  0  0  0  0  0  0  0
  1  7  1  0  0  0  0
  3  7  1  0  0  0  0
  4 25  1  0  0  0  0
  5 14  1  0  0  0  0
  5 29  1  0  0  0  0
  6 24  1  1  0  0  0
  6 19  1  0  0  0  0
  7 18  1  1  0  0  0
  8 17  1  6  0  0  0
  8  1  1  0  0  0  0
  9  3  1  0  0  0  0
  9 12  1  0  0  0  0
 10  8  1  0  0  0  0
 10  3  1  0  0  0  0
 13 12  2  0  0  0  0
 14 13  1  0  0  0  0
 15  9  2  0  0  0  0
 16 18  1  6  0  0  0
 16  2  1  0  0  0  0
 16 26  1  0  0  0  0
 19 11  2  0  0  0  0
 19 31  1  0  0  0  0
 20 27  1  0  0  0  0
 20 23  2  0  0  0  0
 21 15  1  0  0  0  0
 21 14  2  0  0  0  0
 22 16  1  0  0  0  0
 22  2  1  1  0  0  0
 22  6  1  0  0  0  0
 23 28  1  0  0  0  0
 26 11  1  0  0  0  0
 27  4  2  0  0  0  0
 28 25  2  0  0  0  0
 28 24  1  0  0  0  0
 29 20  1  0  0  0  0
 30 31  2  0  0  0  0
 30 34  1  0  0  0  0
 32 35  1  0  0  0  0
 33 36  1  0  0  0  0
 33 37  1  0  0  0  0
 34 33  1  0  0  0  0
 36 32  1  0  0  0  0
 37 35  1  0  0  0  0
 38 34  2  0  0  0  0
 39 40  1  0  0  0  0
 39 27  1  0  0  0  0
 41 42  1  0  0  0  0
 41 40  1  0  0  0  0
 42 44  1  0  0  0  0
 43 44  2  0  0  0  0
 45 46  1  0  0  0  0
 45 43  1  0  0  0  0
 47 48  1  0  0  0  0
 48 46  1  0  0  0  0
 48 49  2  0  0  0  0
M  END
>  <MODEL>
7

>  <REMARK>
 VINA RESULT:      -5.8      1.981      2.638
  Name = 
  10 active torsions:
  status: ('A' for Active; 'I' for Inactive)
    1  A    between atoms: C_8  and  C_24
    2  A    between atoms: C_8  and  O_32
    3  A    between atoms: C_9  and  C_14
    4  A    between atoms: C_9  and  C_31
    5  A    between atoms: N_11  and  C_16
    6  A    between atoms: C_15  and  C_17
    7  A    between atoms: C_17  and  C_24
    8  A    between atoms: C_31  and  C_44
    9  A    between atoms: O_32  and  C_45
   10  A    between atoms: C_34  and  C_46
                            x       y       z     vdW  Elec       q    Type
                         _______ _______ _______ _____ _____    ______ ____

>  <TORSDO>
F 10

$$$$
=
 OpenBabel10232410533D

 49 55  0  0  1  0  0  0  0  0999 V2000
  185.6080  179.1620  145.5040 S   0  0  0  0  0  0  0  0  0  0  0  0
  183.3460  177.2230  141.3740 O   0  0  0  0  0  0  0  0  0  0  0  0
  186.7960  178.0060  143.4720 N   0  0  0  0  0  0  0  0  0  0  0  0
  186.4820  177.1500  135.3390 C   0  0  0  0  0  3  0  0  0  0  0  0
  189.6810  178.3710  138.5600 C   0  0  0  0  0  2  0  0  0  0  0  0
  184.1610  178.4900  139.4690 C   0  0  1  0  0  3  0  0  0  0  0  0
  185.6260  178.8280  143.7270 C   0  0  1  0  0  3  0  0  0  0  0  0
  187.1640  178.2470  145.7130 C   0  0  2  0  0  3  0  0  0  0  0  0
  187.5130  178.0860  142.2360 C   0  0  0  0  0  0  0  0  0  0  0  0
  187.3690  177.3680  144.5730 N   0  0  0  0  0  2  0  0  0  0  0  0
  182.2660  179.7150  140.5240 C   0  0  0  0  0  3  0  0  0  0  0  0
  187.7550  179.3060  141.6680 N   0  0  0  0  0  0  0  0  0  0  0  0
  188.4620  179.4180  140.5070 C   0  0  0  0  0  3  0  0  0  0  0  0
  188.9390  178.2740  139.8570 C   0  0  0  0  0  0  0  0  0  0  0  0
  187.9970  176.9160  141.6270 C   0  0  0  0  0  3  0  0  0  0  0  0
  183.8290  178.3830  142.0100 C   0  0  1  0  0  0  0  0  0  0  0  0
  187.1130  177.4410  146.9950 C   0  0  0  0  0  1  0  0  0  0  0  0
  184.3700  178.0360  143.3850 C   0  0  0  0  0  2  0  0  0  0  0  0
  182.8460  179.2570  139.4140 C   0  0  0  0  0  0  0  0  0  0  0  0
  187.6800  178.4040  137.0360 C   0  0  0  0  0  0  0  0  0  0  0  0
  188.7050  177.0160  140.4280 C   0  0  0  0  0  3  0  0  0  0  0  0
  184.5020  177.8160  140.8140 C   0  0  1  0  0  3  0  0  0  0  0  0
  186.5730  178.2830  137.8810 C   0  0  0  0  0  3  0  0  0  0  0  0
  184.2500  177.4170  138.3850 C   0  0  0  0  0  2  0  0  0  0  0  0
  185.3840  177.0330  136.1930 C   0  0  0  0  0  3  0  0  0  0  0  0
  182.8560  179.5560  141.8890 C   0  0  0  0  0  2  0  0  0  0  0  0
  187.6390  177.8360  135.7520 C   0  0  0  0  0  0  0  0  0  0  0  0
  185.4180  177.6080  137.4650 C   0  0  0  0  0  0  0  0  0  0  0  0
  188.8910  179.1530  137.5090 C   0  0  0  0  0  2  0  0  0  0  0  0
  181.4380  180.6810  138.0500 N   0  0  0  0  0  0  0  0  0  0  0  0
  182.2090  179.6420  138.1470 C   0  0  0  0  0  3  0  0  0  0  0  0
  180.7910  184.8740  136.5060 C   0  0  0  0  0  2  0  0  0  0  0  0
  180.7670  182.4990  136.4390 N   0  0  0  0  0  0  0  0  0  0  0  0
  180.7970  181.1130  136.8410 C   0  0  0  0  0  0  0  0  0  0  0  0
  180.5130  184.4210  135.0780 C   0  0  0  0  0  2  0  0  0  0  0  0
  181.0950  183.6260  137.3030 C   0  0  0  0  0  2  0  0  0  0  0  0
  180.3370  182.9150  135.1180 C   0  0  0  0  0  2  0  0  0  0  0  0
  180.2010  180.2230  136.1150 N   0  0  0  0  0  2  0  0  0  0  0  0
  188.7420  177.9690  134.9030 O   0  0  0  0  0  0  0  0  0  0  0  0
  189.8170  177.0370  134.8850 C   0  0  0  0  0  2  0  0  0  0  0  0
  189.3970  175.7460  135.5680 C   0  0  0  0  0  2  0  0  0  0  0  0
  190.3310  175.4500  136.7270 C   0  0  0  0  0  2  0  0  0  0  0  0
  192.1190  173.7300  136.9020 C   0  0  0  0  0  3  0  0  0  0  0  0
  190.8620  174.0530  136.5930 C   0  0  0  0  0  3  0  0  0  0  0  0
  193.1070  174.7340  137.4160 C   0  0  0  0  0  2  0  0  0  0  0  0
  194.5230  174.3390  137.0380 C   0  0  0  0  0  2  0  0  0  0  0  0
  195.3660  172.7830  138.8460 N   0  0  0  0  0  1  0  0  0  0  0  0
  195.3500  174.0810  138.2520 C   0  0  0  0  0  0  0  0  0  0  0  0
  196.0360  175.0080  138.7510 O   0  0  0  0  0  0  0  0  0  0  0  0
  1  8  1  0  0  0  0
  2 16  1  0  0  0  0
  3  7  1  0  0  0  0
  3 10  1  0  0  0  0
  4 27  2  0  0  0  0
  4 25  1  0  0  0  0
  5 14  1  0  0  0  0
  6 24  1  6  0  0  0
  6 22  1  0  0  0  0
  7 18  1  1  0  0  0
  7  1  1  0  0  0  0
  8 17  1  1  0  0  0
  9  3  1  0  0  0  0
 10  8  1  0  0  0  0
 11 26  1  0  0  0  0
 12  9  1  0  0  0  0
 13 12  2  0  0  0  0
 14 21  2  0  0  0  0
 14 13  1  0  0  0  0
 15  9  2  0  0  0  0
 16 26  1  6  0  0  0
 16 18  1  0  0  0  0
 19  6  1  0  0  0  0
 19 11  2  0  0  0  0
 20 29  1  0  0  0  0
 20 23  2  0  0  0  0
 21 15  1  0  0  0  0
 22  2  1  6  0  0  0
 22 16  1  0  0  0  0
 25 28  2  0  0  0  0
 27 20  1  0  0  0  0
 28 23  1  0  0  0  0
 28 24  1  0  0  0  0
 29  5  1  0  0  0  0
 30 31  2  0  0  0  0
 31 19  1  0  0  0  0
 32 36  1  0  0  0  0
 33 34  1  0  0  0  0
 33 36  1  0  0  0  0
 34 30  1  0  0  0  0
 35 37  1  0  0  0  0
 35 32  1  0  0  0  0
 37 33  1  0  0  0  0
 38 34  2  0  0  0  0
 39 27  1  0  0  0  0
 40 39  1  0  0  0  0
 40 41  1  0  0  0  0
 41 42  1  0  0  0  0
 43 45  1  0  0  0  0
 44 42  1  0  0  0  0
 44 43  2  0  0  0  0
 46 45  1  0  0  0  0
 46 48  1  0  0  0  0
 48 49  2  0  0  0  0
 48 47  1  0  0  0  0
M  END
>  <MODEL>
8

>  <REMARK>
 VINA RESULT:      -5.5      3.290      8.121
  Name = 
  10 active torsions:
  status: ('A' for Active; 'I' for Inactive)
    1  A    between atoms: C_8  and  C_24
    2  A    between atoms: C_8  and  O_32
    3  A    between atoms: C_9  and  C_14
    4  A    between atoms: C_9  and  C_31
    5  A    between atoms: N_11  and  C_16
    6  A    between atoms: C_15  and  C_17
    7  A    between atoms: C_17  and  C_24
    8  A    between atoms: C_31  and  C_44
    9  A    between atoms: O_32  and  C_45
   10  A    between atoms: C_34  and  C_46
                            x       y       z     vdW  Elec       q    Type
                         _______ _______ _______ _____ _____    ______ ____

>  <TORSDO>
F 10

$$$$
=
 OpenBabel10232410533D

 49 55  0  0  1  0  0  0  0  0999 V2000
  190.3660  177.7310  147.7770 S   0  0  0  0  0  0  0  0  0  0  0  0
  185.9330  176.7130  145.4860 O   0  0  0  0  0  0  0  0  0  0  0  0
  190.0370  176.9300  145.3020 N   0  0  0  0  0  0  0  0  0  0  0  0
  185.1210  177.6480  138.7980 C   0  0  0  0  0  3  0  0  0  0  0  0
  189.7090  178.0920  139.7220 C   0  0  0  0  0  2  0  0  0  0  0  0
  185.7220  178.2820  143.6440 C   0  0  1  0  0  3  0  0  0  0  0  0
  189.3420  177.7400  146.2860 C   0  0  1  0  0  3  0  0  0  0  0  0
  191.6220  176.7250  146.9330 C   0  0  2  0  0  3  0  0  0  0  0  0
  189.9450  177.2110  143.9020 C   0  0  0  0  0  0  0  0  0  0  0  0
  191.0260  176.0700  145.7790 N   0  0  0  0  0  2  0  0  0  0  0  0
  184.9380  179.3670  145.7440 C   0  0  0  0  0  3  0  0  0  0  0  0
  190.0030  178.5040  143.4620 N   0  0  0  0  0  0  0  0  0  0  0  0
  189.9500  178.8040  142.1330 C   0  0  0  0  0  3  0  0  0  0  0  0
  189.8120  177.7840  141.1840 C   0  0  0  0  0  0  0  0  0  0  0  0
  189.8320  176.1570  142.9790 C   0  0  0  0  0  3  0  0  0  0  0  0
  186.8510  177.7090  145.8740 C   0  0  1  0  0  0  0  0  0  0  0  0
  192.1780  175.6930  147.8930 C   0  0  0  0  0  1  0  0  0  0  0  0
  188.0090  177.0830  146.6290 C   0  0  0  0  0  2  0  0  0  0  0  0
  184.7270  179.1020  144.4540 C   0  0  0  0  0  0  0  0  0  0  0  0
  187.2290  178.5020  139.6440 C   0  0  0  0  0  0  0  0  0  0  0  0
  189.7570  176.4510  141.6160 C   0  0  0  0  0  3  0  0  0  0  0  0
  186.6520  177.3500  144.4470 C   0  0  1  0  0  3  0  0  0  0  0  0
  186.7770  178.2720  140.9480 C   0  0  0  0  0  3  0  0  0  0  0  0
  185.0340  177.4300  142.5760 C   0  0  0  0  0  2  0  0  0  0  0  0
  184.6830  177.4200  140.1040 C   0  0  0  0  0  3  0  0  0  0  0  0
  186.1590  178.9260  146.4880 C   0  0  0  0  0  2  0  0  0  0  0  0
  186.3960  178.1900  138.5570 C   0  0  0  0  0  0  0  0  0  0  0  0
  185.5040  177.7400  141.1870 C   0  0  0  0  0  0  0  0  0  0  0  0
  188.5910  179.0930  139.4290 C   0  0  0  0  0  2  0  0  0  0  0  0
  182.6010  179.0680  143.2920 N   0  0  0  0  0  0  0  0  0  0  0  0
  183.5550  179.7490  143.8470 C   0  0  0  0  0  3  0  0  0  0  0  0
  181.7190  179.8570  138.9350 C   0  0  0  0  0  2  0  0  0  0  0  0
  181.2600  179.7270  141.2620 N   0  0  0  0  0  0  0  0  0  0  0  0
  181.4290  179.6410  142.6930 C   0  0  0  0  0  0  0  0  0  0  0  0
  180.2170  179.9960  139.1530 C   0  0  0  0  0  2  0  0  0  0  0  0
  182.3230  179.5370  140.2830 C   0  0  0  0  0  2  0  0  0  0  0  0
  179.9930  180.0800  140.6510 C   0  0  0  0  0  2  0  0  0  0  0  0
  180.5180  180.1230  143.4760 N   0  0  0  0  0  2  0  0  0  0  0  0
  186.8440  178.4330  137.2540 O   0  0  0  0  0  0  0  0  0  0  0  0
  187.2360  177.3910  136.3680 C   0  0  0  0  0  2  0  0  0  0  0  0
  188.4690  177.8100  135.5850 C   0  0  0  0  0  2  0  0  0  0  0  0
  189.6600  176.9740  136.0140 C   0  0  0  0  0  2  0  0  0  0  0  0
  190.0030  174.8010  137.1740 C   0  0  0  0  0  3  0  0  0  0  0  0
  189.1740  175.7060  136.6520 C   0  0  0  0  0  3  0  0  0  0  0  0
  191.4930  174.9760  137.1740 C   0  0  0  0  0  2  0  0  0  0  0  0
  191.9450  175.7520  138.3970 C   0  0  0  0  0  2  0  0  0  0  0  0
  193.7170  176.5620  136.7840 N   0  0  0  0  0  1  0  0  0  0  0  0
  193.1360  176.5940  138.0880 C   0  0  0  0  0  0  0  0  0  0  0  0
  193.6270  177.3350  138.9750 O   0  0  0  0  0  0  0  0  0  0  0  0
  2 16  1  0  0  0  0
  3 10  1  0  0  0  0
  3  7  1  0  0  0  0
  4 25  1  0  0  0  0
  5 14  1  0  0  0  0
  6 24  1  6  0  0  0
  6 22  1  0  0  0  0
  6 19  1  0  0  0  0
  7 18  1  1  0  0  0
  7  1  1  0  0  0  0
  8  1  1  0  0  0  0
  8 17  1  1  0  0  0
  9  3  1  0  0  0  0
 10  8  1  0  0  0  0
 11 26  1  0  0  0  0
 12  9  1  0  0  0  0
 13 12  2  0  0  0  0
 14 21  2  0  0  0  0
 14 13  1  0  0  0  0
 15  9  2  0  0  0  0
 16 26  1  1  0  0  0
 16 18  1  0  0  0  0
 19 11  2  0  0  0  0
 20 23  2  0  0  0  0
 21 15  1  0  0  0  0
 22  2  1  1  0  0  0
 22 16  1  0  0  0  0
 23 28  1  0  0  0  0
 25 28  2  0  0  0  0
 27  4  2  0  0  0  0
 27 20  1  0  0  0  0
 28 24  1  0  0  0  0
 29 20  1  0  0  0  0
 29  5  1  0  0  0  0
 30 31  2  0  0  0  0
 31 19  1  0  0  0  0
 32 35  1  0  0  0  0
 32 36  1  0  0  0  0
 33 34  1  0  0  0  0
 34 30  1  0  0  0  0
 34 38  2  0  0  0  0
 35 37  1  0  0  0  0
 36 33  1  0  0  0  0
 37 33  1  0  0  0  0
 39 27  1  0  0  0  0
 40 39  1  0  0  0  0
 41 42  1  0  0  0  0
 41 40  1  0  0  0  0
 42 44  1  0  0  0  0
 44 43  2  0  0  0  0
 45 43  1  0  0  0  0
 45 46  1  0  0  0  0
 47 48  1  0  0  0  0
 48 46  1  0  0  0  0
 48 49  2  0  0  0  0
M  END
>  <MODEL>
9

>  <REMARK>
 VINA RESULT:      -5.5      3.778      8.670
  Name = 
  10 active torsions:
  status: ('A' for Active; 'I' for Inactive)
    1  A    between atoms: C_8  and  C_24
    2  A    between atoms: C_8  and  O_32
    3  A    between atoms: C_9  and  C_14
    4  A    between atoms: C_9  and  C_31
    5  A    between atoms: N_11  and  C_16
    6  A    between atoms: C_15  and  C_17
    7  A    between atoms: C_17  and  C_24
    8  A    between atoms: C_31  and  C_44
    9  A    between atoms: O_32  and  C_45
   10  A    between atoms: C_34  and  C_46
                            x       y       z     vdW  Elec       q    Type
                         _______ _______ _______ _____ _____    ______ ____

>  <TORSDO>
F 10

$$$$
