=
 OpenBabel10232412263D

 38 45  0  0  1  0  0  0  0  0999 V2000
  184.8510  178.1340  143.8170 C   0  0  1  0  0  3  0  0  0  0  0  0
  187.8290  177.2590  146.6240 N   0  0  0  0  0  0  0  0  0  0  0  0
  184.1790  178.2950  141.4670 C   0  0  1  0  0  3  0  0  0  0  0  0
  188.9790  177.6420  142.5830 C   0  0  0  0  0  0  0  0  0  0  0  0
  189.6400  177.2030  145.0220 C   0  0  0  0  0  0  0  0  0  0  0  0
  184.4790  178.7820  145.1320 C   0  0  0  0  0  2  0  0  0  0  0  0
  191.0410  176.9880  144.8740 C   0  0  0  0  0  0  0  0  0  0  0  0
  191.2880  176.5940  147.2330 N   0  0  0  0  0  0  0  0  0  0  0  0
  184.1080  178.9780  142.8210 C   0  0  1  0  0  3  0  0  0  0  0  0
  190.2210  177.5710  141.9310 C   0  0  0  0  0  0  0  0  0  0  0  0
  186.6550  178.0400  142.0900 C   0  0  0  0  0  0  0  0  0  0  0  0
  187.9420  177.8810  141.7310 N   0  0  0  0  0  0  0  0  0  0  0  0
  182.7390  179.1210  143.4430 C   0  0  0  0  0  2  0  0  0  0  0  0
  183.3280  179.0260  140.4450 C   0  0  0  0  0  1  0  0  0  0  0  0
  191.8220  176.6890  145.9970 C   0  0  0  0  0  3  0  0  0  0  0  0
  189.9690  176.7860  147.4280 C   0  0  0  0  0  3  0  0  0  0  0  0
  191.7580  177.0410  143.7390 N   0  0  0  0  0  2  0  0  0  0  0  0
  186.9630  177.5540  145.6720 N   0  0  0  0  0  0  0  0  0  0  0  0
  185.6410  178.3220  140.9990 C   0  0  0  0  0  2  0  0  0  0  0  0
  187.3260  177.6990  144.3770 C   0  0  0  0  0  0  0  0  0  0  0  0
  186.3200  178.0220  143.4460 C   0  0  0  0  0  0  0  0  0  0  0  0
  189.1350  177.0860  146.3560 C   0  0  0  0  0  0  0  0  0  0  0  0
  191.4120  177.2910  142.4900 N   0  0  0  0  0  0  0  0  0  0  0  0
  183.0260  179.2120  144.9390 C   0  0  0  0  0  2  0  0  0  0  0  0
  188.6980  177.5120  143.9820 C   0  0  0  0  0  0  0  0  0  0  0  0
  190.2230  177.7740  140.5060 N   0  0  0  0  0  2  0  0  0  0  0  0
  190.2360  176.7320  139.5620 N   0  0  0  0  0  2  0  0  0  0  0  0
  194.4700  175.8220  135.9630 C   0  0  1  0  0  3  0  0  0  0  0  0
  191.2700  176.5540  138.5890 C   0  0  0  0  0  0  0  0  0  0  0  0
  191.0600  176.2720  137.2330 C   0  0  0  0  0  3  0  0  0  0  0  0
  194.4600  176.1400  137.3680 O   0  0  0  0  0  0  0  0  0  0  0  0
  192.2990  176.1300  136.7530 N   0  0  0  0  0  0  0  0  0  0  0  0
  193.1440  176.2880  137.7280 C   0  0  0  0  0  0  0  0  0  0  0  0
  192.5910  176.5530  138.9210 N   0  0  0  0  0  0  0  0  0  0  0  0
  192.9740  175.8220  135.5150 C   0  0  0  0  0  2  0  0  0  0  0  0
  196.5850  177.0620  135.4630 O   0  0  0  0  0  1  0  0  0  0  0  0
  195.2350  176.8580  135.2060 C   0  0  0  0  0  0  0  0  0  0  0  0
  194.6470  177.5640  134.3460 O   0  0  0  0  0  0  0  0  0  0  0  0
  1  6  1  1  0  0  0
  3 14  1  6  0  0  0
  3  9  1  0  0  0  0
  4 25  1  0  0  0  0
  5 22  1  0  0  0  0
  7  5  2  0  0  0  0
  7 15  1  0  0  0  0
  8 16  1  0  0  0  0
  9 13  1  1  0  0  0
  9  1  1  0  0  0  0
 10 23  2  0  0  0  0
 10  4  1  0  0  0  0
 11 21  2  0  0  0  0
 12 11  1  0  0  0  0
 12  4  2  0  0  0  0
 13 24  1  0  0  0  0
 15  8  2  0  0  0  0
 17  7  1  0  0  0  0
 18  2  2  0  0  0  0
 19  3  1  0  0  0  0
 19 11  1  0  0  0  0
 20 18  1  0  0  0  0
 21  1  1  0  0  0  0
 21 20  1  0  0  0  0
 22  2  1  0  0  0  0
 22 16  2  0  0  0  0
 23 17  1  0  0  0  0
 24  6  1  0  0  0  0
 25 20  2  0  0  0  0
 25  5  1  0  0  0  0
 26 10  1  0  0  0  0
 27 26  1  0  0  0  0
 28 37  1  6  0  0  0
 28 31  1  0  0  0  0
 29 34  1  0  0  0  0
 29 27  1  0  0  0  0
 30 29  2  0  0  0  0
 31 33  1  0  0  0  0
 32 30  1  0  0  0  0
 32 33  1  0  0  0  0
 33 34  2  0  0  0  0
 35 28  1  0  0  0  0
 35 32  1  0  0  0  0
 37 36  1  0  0  0  0
 38 37  2  0  0  0  0
M  END
>  <MODEL>
1

>  <REMARK>
 VINA RESULT:     -11.6      0.000      0.000
  Name = 
  4 active torsions:
  status: ('A' for Active; 'I' for Inactive)
    1  A    between atoms: C_4  and  C_20
    2  A    between atoms: N_11  and  C_12
    3  A    between atoms: N_11  and  N_28
    4  A    between atoms: C_14  and  N_28
                            x       y       z     vdW  Elec       q    Type
                         _______ _______ _______ _____ _____    ______ ____

>  <TORSDO>
F 4

$$$$
=
 OpenBabel10232412263D

 38 45  0  0  1  0  0  0  0  0999 V2000
  187.9160  178.0230  145.6660 C   0  0  1  0  0  3  0  0  0  0  0  0
  183.8560  178.6130  144.8410 N   0  0  0  0  0  0  0  0  0  0  0  0
  190.2320  178.0360  144.8690 C   0  0  1  0  0  3  0  0  0  0  0  0
  186.5280  178.4540  141.5810 C   0  0  0  0  0  0  0  0  0  0  0  0
  184.1250  178.7120  142.4400 C   0  0  0  0  0  0  0  0  0  0  0  0
  187.1010  177.3030  146.7180 C   0  0  0  0  0  2  0  0  0  0  0  0
  183.4300  178.8880  141.2080 C   0  0  0  0  0  0  0  0  0  0  0  0
  181.3320  179.1200  142.3610 N   0  0  0  0  0  0  0  0  0  0  0  0
  189.2160  177.2700  145.6970 C   0  0  1  0  0  3  0  0  0  0  0  0
  186.3460  178.5240  140.1900 C   0  0  0  0  0  0  0  0  0  0  0  0
  188.2890  178.1660  143.1990 C   0  0  0  0  0  0  0  0  0  0  0  0
  187.8340  178.3040  141.9400 N   0  0  0  0  0  0  0  0  0  0  0  0
  189.5010  177.1340  147.1740 C   0  0  0  0  0  2  0  0  0  0  0  0
  191.6070  177.4010  144.9750 C   0  0  0  0  0  1  0  0  0  0  0  0
  182.0440  179.0880  141.2140 C   0  0  0  0  0  3  0  0  0  0  0  0
  181.9410  178.9610  143.5520 C   0  0  0  0  0  3  0  0  0  0  0  0
  183.9510  178.8840  139.9700 N   0  0  0  0  0  2  0  0  0  0  0  0
  185.1510  178.4100  145.0030 N   0  0  0  0  0  0  0  0  0  0  0  0
  189.7800  177.9900  143.4030 C   0  0  0  0  0  2  0  0  0  0  0  0
  186.0110  178.3370  143.9620 C   0  0  0  0  0  0  0  0  0  0  0  0
  187.3700  178.1080  144.2510 C   0  0  0  0  0  0  0  0  0  0  0  0
  183.3150  178.7590  143.6190 C   0  0  0  0  0  0  0  0  0  0  0  0
  185.1870  178.7270  139.5360 N   0  0  0  0  0  0  0  0  0  0  0  0
  188.1200  176.9360  147.7950 C   0  0  0  0  0  2  0  0  0  0  0  0
  185.5360  178.5030  142.6140 C   0  0  0  0  0  0  0  0  0  0  0  0
  187.5230  178.4130  139.3700 N   0  0  0  0  0  2  0  0  0  0  0  0
  188.0230  177.1980  138.8690 N   0  0  0  0  0  2  0  0  0  0  0  0
  193.4710  176.2580  137.8000 C   0  0  1  0  0  3  0  0  0  0  0  0
  189.4160  176.9300  138.6810 C   0  0  0  0  0  0  0  0  0  0  0  0
  190.4330  177.2900  139.5750 C   0  0  0  0  0  3  0  0  0  0  0  0
  192.2830  175.9590  137.0440 O   0  0  0  0  0  0  0  0  0  0  0  0
  191.5460  176.8960  138.9490 N   0  0  0  0  0  0  0  0  0  0  0  0
  191.2180  176.3820  137.8010 C   0  0  0  0  0  0  0  0  0  0  0  0
  189.9020  176.3630  137.5410 N   0  0  0  0  0  0  0  0  0  0  0  0
  192.9770  176.9010  139.1340 C   0  0  0  0  0  2  0  0  0  0  0  0
  195.3780  175.0380  138.8670 O   0  0  0  0  0  1  0  0  0  0  0  0
  194.2320  175.0040  138.0820 C   0  0  0  0  0  0  0  0  0  0  0  0
  193.8430  173.9140  137.5880 O   0  0  0  0  0  0  0  0  0  0  0  0
  1  9  1  0  0  0  0
  1  6  1  1  0  0  0
  2 18  1  0  0  0  0
  3 14  1  6  0  0  0
  3  9  1  0  0  0  0
  4 12  2  0  0  0  0
  4 25  1  0  0  0  0
  5 25  2  0  0  0  0
  5 22  1  0  0  0  0
  6 24  1  0  0  0  0
  7 15  2  0  0  0  0
  7  5  1  0  0  0  0
  8 16  2  0  0  0  0
  9 13  1  1  0  0  0
 10  4  1  0  0  0  0
 11 19  1  0  0  0  0
 11 21  2  0  0  0  0
 12 11  1  0  0  0  0
 13 24  1  0  0  0  0
 15  8  1  0  0  0  0
 16 22  1  0  0  0  0
 17  7  1  0  0  0  0
 19  3  1  0  0  0  0
 20 21  1  0  0  0  0
 20 18  2  0  0  0  0
 21  1  1  0  0  0  0
 22  2  2  0  0  0  0
 23 17  1  0  0  0  0
 23 10  2  0  0  0  0
 25 20  1  0  0  0  0
 26 10  1  0  0  0  0
 27 26  1  0  0  0  0
 28 37  1  1  0  0  0
 28 35  1  0  0  0  0
 29 27  1  0  0  0  0
 29 30  2  0  0  0  0
 31 28  1  0  0  0  0
 31 33  1  0  0  0  0
 32 35  1  0  0  0  0
 32 30  1  0  0  0  0
 33 32  1  0  0  0  0
 34 33  2  0  0  0  0
 34 29  1  0  0  0  0
 37 36  1  0  0  0  0
 38 37  2  0  0  0  0
M  END
>  <MODEL>
2

>  <REMARK>
 VINA RESULT:     -11.1      2.203      5.494
  Name = 
  4 active torsions:
  status: ('A' for Active; 'I' for Inactive)
    1  A    between atoms: C_4  and  C_20
    2  A    between atoms: N_11  and  C_12
    3  A    between atoms: N_11  and  N_28
    4  A    between atoms: C_14  and  N_28
                            x       y       z     vdW  Elec       q    Type
                         _______ _______ _______ _____ _____    ______ ____

>  <TORSDO>
F 4

$$$$
=
 OpenBabel10232412263D

 38 45  0  0  1  0  0  0  0  0999 V2000
  188.2810  177.1930  144.9860 C   0  0  1  0  0  3  0  0  0  0  0  0
  190.6180  176.5840  141.5670 N   0  0  0  0  0  0  0  0  0  0  0  0
  186.0990  177.7420  145.9530 C   0  0  1  0  0  3  0  0  0  0  0  0
  186.8140  178.3380  141.0700 C   0  0  0  0  0  0  0  0  0  0  0  0
  189.0030  177.5080  140.0230 C   0  0  0  0  0  0  0  0  0  0  0  0
  189.7390  177.3300  145.3680 C   0  0  0  0  0  2  0  0  0  0  0  0
  188.7500  177.7830  138.6470 C   0  0  0  0  0  0  0  0  0  0  0  0
  190.8900  176.8870  138.0160 N   0  0  0  0  0  0  0  0  0  0  0  0
  187.5930  177.9940  146.0540 C   0  0  1  0  0  3  0  0  0  0  0  0
  186.1250  178.8260  139.9480 C   0  0  0  0  0  0  0  0  0  0  0  0
  186.5360  178.1130  143.4520 C   0  0  0  0  0  0  0  0  0  0  0  0
  186.1020  178.4580  142.2260 N   0  0  0  0  0  0  0  0  0  0  0  0
  188.2780  177.5400  147.3210 C   0  0  0  0  0  2  0  0  0  0  0  0
  185.3580  178.4140  147.0940 C   0  0  0  0  0  1  0  0  0  0  0  0
  189.7130  177.4590  137.6850 C   0  0  0  0  0  3  0  0  0  0  0  0
  191.1780  176.6040  139.3020 C   0  0  0  0  0  3  0  0  0  0  0  0
  187.6520  178.3480  138.1180 N   0  0  0  0  0  2  0  0  0  0  0  0
  189.8200  176.8340  142.5900 N   0  0  0  0  0  0  0  0  0  0  0  0
  185.6070  178.3400  144.6270 C   0  0  0  0  0  2  0  0  0  0  0  0
  188.6080  177.4140  142.4410 C   0  0  0  0  0  0  0  0  0  0  0  0
  187.8430  177.6410  143.6020 C   0  0  0  0  0  0  0  0  0  0  0  0
  190.2660  176.8990  140.3080 C   0  0  0  0  0  0  0  0  0  0  0  0
  186.5390  178.7940  138.6680 N   0  0  0  0  0  0  0  0  0  0  0  0
  189.7280  177.3240  146.8950 C   0  0  0  0  0  2  0  0  0  0  0  0
  188.1280  177.7690  141.1320 C   0  0  0  0  0  0  0  0  0  0  0  0
  184.8170  179.3830  140.1740 N   0  0  0  0  0  2  0  0  0  0  0  0
  183.7880  179.3930  139.2160 N   0  0  0  0  0  2  0  0  0  0  0  0
  180.3740  174.9740  138.4840 C   0  0  1  0  0  3  0  0  0  0  0  0
  182.9440  178.2690  138.9440 C   0  0  0  0  0  0  0  0  0  0  0  0
  182.0740  178.1610  137.8520 C   0  0  0  0  0  3  0  0  0  0  0  0
  181.3440  175.2750  139.5050 O   0  0  0  0  0  0  0  0  0  0  0  0
  181.4650  176.9910  138.0580 N   0  0  0  0  0  0  0  0  0  0  0  0
  181.9140  176.4770  139.1650 C   0  0  0  0  0  0  0  0  0  0  0  0
  182.8430  177.2100  139.7960 N   0  0  0  0  0  0  0  0  0  0  0  0
  180.4520  176.1530  137.4620 C   0  0  0  0  0  2  0  0  0  0  0  0
  179.9830  172.5360  138.0800 O   0  0  0  0  0  1  0  0  0  0  0  0
  180.7170  173.6850  137.8120 C   0  0  0  0  0  0  0  0  0  0  0  0
  181.6890  173.6360  137.0150 O   0  0  0  0  0  0  0  0  0  0  0  0
  1  6  1  6  0  0  0
  1  9  1  0  0  0  0
  2 18  1  0  0  0  0
  3  9  1  0  0  0  0
  3 14  1  1  0  0  0
  4 25  1  0  0  0  0
  4 12  2  0  0  0  0
  5 22  1  0  0  0  0
  5 25  2  0  0  0  0
  6 24  1  0  0  0  0
  7  5  1  0  0  0  0
  8 16  2  0  0  0  0
  9 13  1  1  0  0  0
 10 26  1  0  0  0  0
 10  4  1  0  0  0  0
 11 21  2  0  0  0  0
 11 19  1  0  0  0  0
 12 11  1  0  0  0  0
 15  8  1  0  0  0  0
 15  7  2  0  0  0  0
 16 22  1  0  0  0  0
 17  7  1  0  0  0  0
 17 23  1  0  0  0  0
 19  3  1  0  0  0  0
 20 18  2  0  0  0  0
 20 21  1  0  0  0  0
 21  1  1  0  0  0  0
 22  2  2  0  0  0  0
 23 10  2  0  0  0  0
 24 13  1  0  0  0  0
 25 20  1  0  0  0  0
 27 26  1  0  0  0  0
 28 37  1  6  0  0  0
 28 31  1  0  0  0  0
 29 27  1  0  0  0  0
 29 34  1  0  0  0  0
 30 32  1  0  0  0  0
 30 29  2  0  0  0  0
 32 33  1  0  0  0  0
 33 31  1  0  0  0  0
 33 34  2  0  0  0  0
 35 32  1  0  0  0  0
 35 28  1  0  0  0  0
 37 36  1  0  0  0  0
 38 37  2  0  0  0  0
M  END
>  <MODEL>
3

>  <REMARK>
 VINA RESULT:     -11.1      4.851      8.320
  Name = 
  4 active torsions:
  status: ('A' for Active; 'I' for Inactive)
    1  A    between atoms: C_4  and  C_20
    2  A    between atoms: N_11  and  C_12
    3  A    between atoms: N_11  and  N_28
    4  A    between atoms: C_14  and  N_28
                            x       y       z     vdW  Elec       q    Type
                         _______ _______ _______ _____ _____    ______ ____

>  <TORSDO>
F 4

$$$$
=
 OpenBabel10232412263D

 38 45  0  0  1  0  0  0  0  0999 V2000
  187.9280  178.0070  145.6750 C   0  0  1  0  0  3  0  0  0  0  0  0
  183.8640  178.6280  144.8960 N   0  0  0  0  0  0  0  0  0  0  0  0
  190.2360  178.0060  144.8540 C   0  0  1  0  0  3  0  0  0  0  0  0
  186.4990  178.4560  141.6070 C   0  0  0  0  0  0  0  0  0  0  0  0
  184.1070  178.7300  142.4930 C   0  0  0  0  0  0  0  0  0  0  0  0
  187.1200  177.2910  146.7350 C   0  0  0  0  0  2  0  0  0  0  0  0
  183.4000  178.9130  141.2690 C   0  0  0  0  0  0  0  0  0  0  0  0
  181.3170  179.1580  142.4450 N   0  0  0  0  0  0  0  0  0  0  0  0
  189.2230  177.2450  145.6910 C   0  0  1  0  0  3  0  0  0  0  0  0
  186.3020  178.5310  140.2180 C   0  0  0  0  0  0  0  0  0  0  0  0
  188.2750  178.1530  143.2050 C   0  0  0  0  0  0  0  0  0  0  0  0
  187.8080  178.2970  141.9510 N   0  0  0  0  0  0  0  0  0  0  0  0
  189.5230  177.1040  147.1640 C   0  0  0  0  0  2  0  0  0  0  0  0
  191.6070  177.3610  144.9430 C   0  0  0  0  0  1  0  0  0  0  0  0
  182.0160  179.1230  141.2910 C   0  0  0  0  0  3  0  0  0  0  0  0
  181.9380  178.9920  143.6290 C   0  0  0  0  0  3  0  0  0  0  0  0
  183.9080  178.9080  140.0250 N   0  0  0  0  0  2  0  0  0  0  0  0
  185.1590  178.4150  145.0440 N   0  0  0  0  0  0  0  0  0  0  0  0
  189.7670  177.9650  143.3920 C   0  0  0  0  0  2  0  0  0  0  0  0
  186.0070  178.3380  143.9940 C   0  0  0  0  0  0  0  0  0  0  0  0
  187.3680  178.0990  144.2660 C   0  0  0  0  0  0  0  0  0  0  0  0
  183.3110  178.7810  143.6800 C   0  0  0  0  0  0  0  0  0  0  0  0
  185.1380  178.7430  139.5770 N   0  0  0  0  0  0  0  0  0  0  0  0
  188.1480  176.9140  147.8000 C   0  0  0  0  0  2  0  0  0  0  0  0
  185.5190  178.5100  142.6510 C   0  0  0  0  0  0  0  0  0  0  0  0
  187.4690  178.4130  139.3850 N   0  0  0  0  0  2  0  0  0  0  0  0
  187.6370  177.4250  138.3980 N   0  0  0  0  0  2  0  0  0  0  0  0
  192.5450  174.9660  137.1430 C   0  0  1  0  0  3  0  0  0  0  0  0
  188.9070  176.8740  138.0340 C   0  0  0  0  0  0  0  0  0  0  0  0
  189.4580  176.9050  136.7460 C   0  0  0  0  0  3  0  0  0  0  0  0
  191.8160  175.0700  138.3810 O   0  0  0  0  0  0  0  0  0  0  0  0
  190.5970  176.2210  136.8840 N   0  0  0  0  0  0  0  0  0  0  0  0
  190.6930  175.8130  138.1140 C   0  0  0  0  0  0  0  0  0  0  0  0
  189.6750  176.1700  138.9120 N   0  0  0  0  0  0  0  0  0  0  0  0
  191.7170  175.7700  136.0920 C   0  0  0  0  0  2  0  0  0  0  0  0
  194.8040  175.0410  138.2170 O   0  0  0  0  0  1  0  0  0  0  0  0
  193.9050  175.5630  137.2940 C   0  0  0  0  0  0  0  0  0  0  0  0
  194.2320  176.5580  136.5960 O   0  0  0  0  0  0  0  0  0  0  0  0
  1  9  1  0  0  0  0
  1  6  1  1  0  0  0
  2 18  1  0  0  0  0
  3 14  1  6  0  0  0
  3  9  1  0  0  0  0
  4 12  2  0  0  0  0
  4 25  1  0  0  0  0
  5 25  2  0  0  0  0
  5 22  1  0  0  0  0
  6 24  1  0  0  0  0
  7 15  2  0  0  0  0
  7  5  1  0  0  0  0
  8 16  2  0  0  0  0
  9 13  1  1  0  0  0
 10  4  1  0  0  0  0
 11 19  1  0  0  0  0
 11 21  2  0  0  0  0
 12 11  1  0  0  0  0
 13 24  1  0  0  0  0
 15  8  1  0  0  0  0
 16 22  1  0  0  0  0
 17  7  1  0  0  0  0
 19  3  1  0  0  0  0
 20 21  1  0  0  0  0
 20 18  2  0  0  0  0
 21  1  1  0  0  0  0
 22  2  2  0  0  0  0
 23 17  1  0  0  0  0
 23 10  2  0  0  0  0
 25 20  1  0  0  0  0
 26 10  1  0  0  0  0
 27 26  1  0  0  0  0
 28 37  1  1  0  0  0
 28 31  1  0  0  0  0
 29 27  1  0  0  0  0
 29 34  1  0  0  0  0
 30 32  1  0  0  0  0
 30 29  2  0  0  0  0
 32 33  1  0  0  0  0
 33 31  1  0  0  0  0
 33 34  2  0  0  0  0
 35 32  1  0  0  0  0
 35 28  1  0  0  0  0
 37 36  1  0  0  0  0
 38 37  2  0  0  0  0
M  END
>  <MODEL>
4

>  <REMARK>
 VINA RESULT:     -11.1      2.072      5.420
  Name = 
  4 active torsions:
  status: ('A' for Active; 'I' for Inactive)
    1  A    between atoms: C_4  and  C_20
    2  A    between atoms: N_11  and  C_12
    3  A    between atoms: N_11  and  N_28
    4  A    between atoms: C_14  and  N_28
                            x       y       z     vdW  Elec       q    Type
                         _______ _______ _______ _____ _____    ______ ____

>  <TORSDO>
F 4

$$$$
=
 OpenBabel10232412263D

 38 45  0  0  1  0  0  0  0  0999 V2000
  184.7860  178.1660  143.7520 C   0  0  1  0  0  3  0  0  0  0  0  0
  187.6930  177.2510  146.6200 N   0  0  0  0  0  0  0  0  0  0  0  0
  184.1760  178.3700  141.3880 C   0  0  1  0  0  3  0  0  0  0  0  0
  188.9480  177.7170  142.6200 C   0  0  0  0  0  0  0  0  0  0  0  0
  189.5460  177.2340  145.0670 C   0  0  0  0  0  0  0  0  0  0  0  0
  184.3760  178.7880  145.0690 C   0  0  0  0  0  2  0  0  0  0  0  0
  190.9520  177.0280  144.9520 C   0  0  0  0  0  0  0  0  0  0  0  0
  191.1370  176.5900  147.3090 N   0  0  0  0  0  0  0  0  0  0  0  0
  184.0650  179.0260  142.7530 C   0  0  1  0  0  3  0  0  0  0  0  0
  190.2070  177.6650  142.0000 C   0  0  0  0  0  0  0  0  0  0  0  0
  186.6360  178.1150  142.0730 C   0  0  0  0  0  0  0  0  0  0  0  0
  187.9330  177.9690  141.7450 N   0  0  0  0  0  0  0  0  0  0  0  0
  182.6800  179.1510  143.3410 C   0  0  0  0  0  2  0  0  0  0  0  0
  183.3490  179.1180  140.3580 C   0  0  0  0  0  1  0  0  0  0  0  0
  191.7030  176.7110  146.0900 C   0  0  0  0  0  3  0  0  0  0  0  0
  189.8120  176.7720  147.4720 C   0  0  0  0  0  3  0  0  0  0  0  0
  191.6980  177.1070  143.8380 N   0  0  0  0  0  2  0  0  0  0  0  0
  186.8500  177.5600  145.6510 N   0  0  0  0  0  0  0  0  0  0  0  0
  185.6500  178.4130  140.9610 C   0  0  0  0  0  2  0  0  0  0  0  0
  187.2470  177.7320  144.3700 C   0  0  0  0  0  0  0  0  0  0  0  0
  186.2650  178.0690  143.4190 C   0  0  0  0  0  0  0  0  0  0  0  0
  189.0060  177.0880  146.3850 C   0  0  0  0  0  0  0  0  0  0  0  0
  191.3850  177.3790  142.5850 N   0  0  0  0  0  0  0  0  0  0  0  0
  182.9260  179.2150  144.8460 C   0  0  0  0  0  2  0  0  0  0  0  0
  188.6300  177.5590  144.0090 C   0  0  0  0  0  0  0  0  0  0  0  0
  190.2470  177.8960  140.5800 N   0  0  0  0  0  2  0  0  0  0  0  0
  190.6000  176.9190  139.6330 N   0  0  0  0  0  2  0  0  0  0  0  0
  187.0000  175.3380  135.6010 C   0  0  1  0  0  3  0  0  0  0  0  0
  189.7100  176.4330  138.6230 C   0  0  0  0  0  0  0  0  0  0  0  0
  190.0470  175.4990  137.6340 C   0  0  0  0  0  3  0  0  0  0  0  0
  186.8590  176.2520  136.7050 O   0  0  0  0  0  0  0  0  0  0  0  0
  188.9350  175.4140  136.9000 N   0  0  0  0  0  0  0  0  0  0  0  0
  188.0480  176.2270  137.3910 C   0  0  0  0  0  0  0  0  0  0  0  0
  188.4450  176.9150  138.4720 N   0  0  0  0  0  0  0  0  0  0  0  0
  188.4360  174.7370  135.7270 C   0  0  0  0  0  2  0  0  0  0  0  0
  185.6530  173.6980  136.9260 O   0  0  0  0  0  1  0  0  0  0  0  0
  185.9770  174.2550  135.6940 C   0  0  0  0  0  0  0  0  0  0  0  0
  185.4200  173.8300  134.6490 O   0  0  0  0  0  0  0  0  0  0  0  0
  1  6  1  1  0  0  0
  3 14  1  6  0  0  0
  3  9  1  0  0  0  0
  4 25  1  0  0  0  0
  5 22  1  0  0  0  0
  7  5  2  0  0  0  0
  7 15  1  0  0  0  0
  8 16  1  0  0  0  0
  9 13  1  1  0  0  0
  9  1  1  0  0  0  0
 10 23  2  0  0  0  0
 10  4  1  0  0  0  0
 11 21  2  0  0  0  0
 12 11  1  0  0  0  0
 12  4  2  0  0  0  0
 13 24  1  0  0  0  0
 15  8  2  0  0  0  0
 17  7  1  0  0  0  0
 18  2  2  0  0  0  0
 19  3  1  0  0  0  0
 19 11  1  0  0  0  0
 20 18  1  0  0  0  0
 21  1  1  0  0  0  0
 21 20  1  0  0  0  0
 22  2  1  0  0  0  0
 22 16  2  0  0  0  0
 23 17  1  0  0  0  0
 24  6  1  0  0  0  0
 25 20  2  0  0  0  0
 25  5  1  0  0  0  0
 26 10  1  0  0  0  0
 27 26  1  0  0  0  0
 28 37  1  1  0  0  0
 28 35  1  0  0  0  0
 28 31  1  0  0  0  0
 29 27  1  0  0  0  0
 30 29  2  0  0  0  0
 31 33  1  0  0  0  0
 32 33  1  0  0  0  0
 32 30  1  0  0  0  0
 33 34  2  0  0  0  0
 34 29  1  0  0  0  0
 35 32  1  0  0  0  0
 37 36  1  0  0  0  0
 38 37  2  0  0  0  0
M  END
>  <MODEL>
5

>  <REMARK>
 VINA RESULT:     -11.0      2.943      3.704
  Name = 
  4 active torsions:
  status: ('A' for Active; 'I' for Inactive)
    1  A    between atoms: C_4  and  C_20
    2  A    between atoms: N_11  and  C_12
    3  A    between atoms: N_11  and  N_28
    4  A    between atoms: C_14  and  N_28
                            x       y       z     vdW  Elec       q    Type
                         _______ _______ _______ _____ _____    ______ ____

>  <TORSDO>
F 4

$$$$
=
 OpenBabel10232412263D

 38 45  0  0  1  0  0  0  0  0999 V2000
  188.6460  177.8630  144.9330 C   0  0  1  0  0  3  0  0  0  0  0  0
  185.6850  178.9600  142.1870 N   0  0  0  0  0  0  0  0  0  0  0  0
  190.9520  177.1450  145.3430 C   0  0  1  0  0  3  0  0  0  0  0  0
  189.2130  177.2030  140.6860 C   0  0  0  0  0  0  0  0  0  0  0  0
  186.8980  178.2100  140.2350 C   0  0  0  0  0  0  0  0  0  0  0  0
  187.2940  177.7090  145.5960 C   0  0  0  0  0  2  0  0  0  0  0  0
  186.8470  178.1100  138.8140 C   0  0  0  0  0  0  0  0  0  0  0  0
  184.6690  179.1270  138.7640 N   0  0  0  0  0  0  0  0  0  0  0  0
  189.5010  176.9160  145.7260 C   0  0  1  0  0  3  0  0  0  0  0  0
  189.6310  176.8490  139.3920 C   0  0  0  0  0  0  0  0  0  0  0  0
  189.9890  177.1120  142.9650 C   0  0  0  0  0  0  0  0  0  0  0  0
  190.1430  176.9180  141.6420 N   0  0  0  0  0  0  0  0  0  0  0  0
  189.1160  177.2160  147.1550 C   0  0  0  0  0  2  0  0  0  0  0  0
  191.8800  176.3150  146.2110 C   0  0  0  0  0  1  0  0  0  0  0  0
  185.7220  178.5770  138.1240 C   0  0  0  0  0  3  0  0  0  0  0  0
  184.6670  179.2470  140.1060 C   0  0  0  0  0  3  0  0  0  0  0  0
  187.7830  177.5940  138.0000 N   0  0  0  0  0  2  0  0  0  0  0  0
  186.6640  178.5630  142.9800 N   0  0  0  0  0  0  0  0  0  0  0  0
  191.1290  176.7130  143.8800 C   0  0  0  0  0  2  0  0  0  0  0  0
  187.7900  177.9810  142.5080 C   0  0  0  0  0  0  0  0  0  0  0  0
  188.7660  177.5890  143.4440 C   0  0  0  0  0  0  0  0  0  0  0  0
  185.7530  178.8040  140.8540 C   0  0  0  0  0  0  0  0  0  0  0  0
  188.9630  177.0570  138.2430 N   0  0  0  0  0  0  0  0  0  0  0  0
  187.6220  177.5170  147.0750 C   0  0  0  0  0  2  0  0  0  0  0  0
  187.9700  177.7880  141.0930 C   0  0  0  0  0  0  0  0  0  0  0  0
  190.9280  176.2390  139.2680 N   0  0  0  0  0  0  0  0  0  0  0  0
  191.4490  175.7350  138.0630 N   0  0  0  0  0  0  0  0  0  0  0  0
  196.8010  174.0020  137.7960 C   0  0  1  0  0  3  0  0  0  0  0  0
  192.8010  175.2900  137.9070 C   0  0  0  0  0  0  0  0  0  0  0  0
  193.2060  174.2150  137.1040 C   0  0  0  0  0  3  0  0  0  0  0  0
  196.1780  175.0750  138.5270 O   0  0  0  0  0  0  0  0  0  0  0  0
  194.5210  174.1420  137.3300 N   0  0  0  0  0  0  0  0  0  0  0  0
  194.8480  175.0610  138.1900 C   0  0  0  0  0  0  0  0  0  0  0  0
  193.8330  175.8290  138.6140 N   0  0  0  0  0  0  0  0  0  0  0  0
  195.6640  173.3480  136.9490 C   0  0  0  0  0  2  0  0  0  0  0  0
  198.9500  173.7440  136.5400 O   0  0  0  0  0  1  0  0  0  0  0  0
  197.8680  174.5390  136.9010 C   0  0  0  0  0  0  0  0  0  0  0  0
  197.7980  175.7260  136.4890 O   0  0  0  0  0  0  0  0  0  0  0  0
  1  6  1  1  0  0  0
  1  9  1  0  0  0  0
  2 18  1  0  0  0  0
  3  9  1  0  0  0  0
  3 14  1  1  0  0  0
  4 25  1  0  0  0  0
  4 12  2  0  0  0  0
  5 22  1  0  0  0  0
  5 25  2  0  0  0  0
  6 24  1  0  0  0  0
  7  5  1  0  0  0  0
  8 16  2  0  0  0  0
  9 13  1  1  0  0  0
 10  4  1  0  0  0  0
 11 21  2  0  0  0  0
 11 19  1  0  0  0  0
 12 11  1  0  0  0  0
 15  8  1  0  0  0  0
 15  7  2  0  0  0  0
 16 22  1  0  0  0  0
 17 23  1  0  0  0  0
 17  7  1  0  0  0  0
 19  3  1  0  0  0  0
 20 18  2  0  0  0  0
 20 21  1  0  0  0  0
 21  1  1  0  0  0  0
 22  2  2  0  0  0  0
 23 10  2  0  0  0  0
 24 13  1  0  0  0  0
 25 20  1  0  0  0  0
 26 10  1  0  0  0  0
 27 26  2  0  0  0  0
 28 37  1  6  0  0  0
 28 31  1  0  0  0  0
 29 27  1  0  0  0  0
 29 34  1  0  0  0  0
 30 32  1  0  0  0  0
 30 29  2  0  0  0  0
 32 33  1  0  0  0  0
 33 31  1  0  0  0  0
 33 34  2  0  0  0  0
 35 32  1  0  0  0  0
 35 28  1  0  0  0  0
 36 37  1  0  0  0  0
 38 37  2  0  0  0  0
M  END
>  <MODEL>
6

>  <REMARK>
 VINA RESULT:     -10.7      2.378      5.365
  Name = 
  4 active torsions:
  status: ('A' for Active; 'I' for Inactive)
    1  A    between atoms: C_4  and  C_20
    2  A    between atoms: N_11  and  C_12
    3  A    between atoms: N_11  and  N_28
    4  A    between atoms: C_14  and  N_28
                            x       y       z     vdW  Elec       q    Type
                         _______ _______ _______ _____ _____    ______ ____

>  <TORSDO>
F 4

$$$$
=
 OpenBabel10232412263D

 38 45  0  0  1  0  0  0  0  0999 V2000
  184.9170  178.1060  144.0330 C   0  0  1  0  0  3  0  0  0  0  0  0
  187.9900  177.2420  146.7390 N   0  0  0  0  0  0  0  0  0  0  0  0
  184.1680  178.2730  141.7070 C   0  0  1  0  0  3  0  0  0  0  0  0
  189.0070  177.6550  142.6660 C   0  0  0  0  0  0  0  0  0  0  0  0
  189.7490  177.2090  145.0800 C   0  0  0  0  0  0  0  0  0  0  0  0
  184.5810  178.7450  145.3630 C   0  0  0  0  0  2  0  0  0  0  0  0
  191.1470  177.0070  144.8850 C   0  0  0  0  0  0  0  0  0  0  0  0
  191.4730  176.6040  147.2330 N   0  0  0  0  0  0  0  0  0  0  0  0
  184.1350  178.9490  143.0660 C   0  0  1  0  0  3  0  0  0  0  0  0
  190.2270  177.5980  141.9740 C   0  0  0  0  0  0  0  0  0  0  0  0
  186.6650  178.0360  142.2490 C   0  0  0  0  0  0  0  0  0  0  0  0
  187.9410  177.8900  141.8490 N   0  0  0  0  0  0  0  0  0  0  0  0
  182.7850  179.0770  143.7330 C   0  0  0  0  0  2  0  0  0  0  0  0
  183.2790  179.0030  140.7170 C   0  0  0  0  0  1  0  0  0  0  0  0
  191.9650  176.7090  145.9810 C   0  0  0  0  0  3  0  0  0  0  0  0
  190.1590  176.7830  147.4720 C   0  0  0  0  0  3  0  0  0  0  0  0
  191.8260  177.0720  143.7280 N   0  0  0  0  0  2  0  0  0  0  0  0
  187.0910  177.5350  145.8170 N   0  0  0  0  0  0  0  0  0  0  0  0
  185.6140  178.3150  141.1930 C   0  0  0  0  0  2  0  0  0  0  0  0
  187.4120  177.6890  144.5120 C   0  0  0  0  0  0  0  0  0  0  0  0
  186.3740  178.0090  143.6160 C   0  0  0  0  0  0  0  0  0  0  0  0
  189.2890  177.0810  146.4290 C   0  0  0  0  0  0  0  0  0  0  0  0
  191.4390  177.3260  142.4930 N   0  0  0  0  0  0  0  0  0  0  0  0
  183.1190  179.1630  145.2200 C   0  0  0  0  0  2  0  0  0  0  0  0
  188.7710  177.5150  144.0730 C   0  0  0  0  0  0  0  0  0  0  0  0
  190.1830  177.8090  140.5510 N   0  0  0  0  0  2  0  0  0  0  0  0
  191.1030  177.2550  139.6430 N   0  0  0  0  0  2  0  0  0  0  0  0
  189.5530  173.7420  135.5230 C   0  0  1  0  0  3  0  0  0  0  0  0
  190.7500  176.2960  138.6400 C   0  0  0  0  0  0  0  0  0  0  0  0
  191.6290  175.3640  138.0730 C   0  0  0  0  0  3  0  0  0  0  0  0
  188.8210  174.7480  136.2480 O   0  0  0  0  0  0  0  0  0  0  0  0
  190.8760  174.7490  137.1580 N   0  0  0  0  0  0  0  0  0  0  0  0
  189.6890  175.2790  137.1690 C   0  0  0  0  0  0  0  0  0  0  0  0
  189.5160  176.2630  138.0640 N   0  0  0  0  0  0  0  0  0  0  0  0
  190.9830  173.7210  136.1500 C   0  0  0  0  0  2  0  0  0  0  0  0
  189.3130  171.3240  134.9250 O   0  0  0  0  0  0  0  0  0  0  0  0
  188.8980  172.4100  135.6870 C   0  0  0  0  0  0  0  0  0  0  0  0
  187.9510  172.2760  136.5050 O   0  0  0  0  0  1  0  0  0  0  0  0
  1  6  1  1  0  0  0
  3 14  1  6  0  0  0
  3  9  1  0  0  0  0
  4 25  1  0  0  0  0
  5 22  1  0  0  0  0
  7  5  2  0  0  0  0
  7 15  1  0  0  0  0
  8 16  1  0  0  0  0
  9 13  1  1  0  0  0
  9  1  1  0  0  0  0
 10 23  2  0  0  0  0
 10  4  1  0  0  0  0
 11 21  2  0  0  0  0
 12 11  1  0  0  0  0
 12  4  2  0  0  0  0
 13 24  1  0  0  0  0
 15  8  2  0  0  0  0
 17  7  1  0  0  0  0
 18  2  2  0  0  0  0
 19  3  1  0  0  0  0
 19 11  1  0  0  0  0
 20 18  1  0  0  0  0
 21  1  1  0  0  0  0
 21 20  1  0  0  0  0
 22  2  1  0  0  0  0
 22 16  2  0  0  0  0
 23 17  1  0  0  0  0
 24  6  1  0  0  0  0
 25 20  2  0  0  0  0
 25  5  1  0  0  0  0
 26 10  1  0  0  0  0
 27 26  1  0  0  0  0
 28 37  1  1  0  0  0
 28 35  1  0  0  0  0
 28 31  1  0  0  0  0
 29 27  1  0  0  0  0
 30 29  2  0  0  0  0
 31 33  1  0  0  0  0
 32 33  1  0  0  0  0
 32 30  1  0  0  0  0
 33 34  2  0  0  0  0
 34 29  1  0  0  0  0
 35 32  1  0  0  0  0
 36 37  2  0  0  0  0
 37 38  1  0  0  0  0
M  END
>  <MODEL>
7

>  <REMARK>
 VINA RESULT:     -10.6      2.329      2.938
  Name = 
  4 active torsions:
  status: ('A' for Active; 'I' for Inactive)
    1  A    between atoms: C_4  and  C_20
    2  A    between atoms: N_11  and  C_12
    3  A    between atoms: N_11  and  N_28
    4  A    between atoms: C_14  and  N_28
                            x       y       z     vdW  Elec       q    Type
                         _______ _______ _______ _____ _____    ______ ____

>  <TORSDO>
F 4

$$$$
=
 OpenBabel10232412263D

 38 45  0  0  1  0  0  0  0  0999 V2000
  187.9380  178.0310  145.7400 C   0  0  1  0  0  3  0  0  0  0  0  0
  183.8260  178.5880  145.1940 N   0  0  0  0  0  0  0  0  0  0  0  0
  190.1940  178.0660  144.7880 C   0  0  1  0  0  3  0  0  0  0  0  0
  186.2710  178.4560  141.7600 C   0  0  0  0  0  0  0  0  0  0  0  0
  183.9300  178.6920  142.7810 C   0  0  0  0  0  0  0  0  0  0  0  0
  187.2020  177.3040  146.8440 C   0  0  0  0  0  2  0  0  0  0  0  0
  183.1510  178.8640  141.6000 C   0  0  0  0  0  0  0  0  0  0  0  0
  181.1350  179.0770  142.8920 N   0  0  0  0  0  0  0  0  0  0  0  0
  189.2430  177.2900  145.6820 C   0  0  1  0  0  3  0  0  0  0  0  0
  185.9940  178.5270  140.3850 C   0  0  0  0  0  0  0  0  0  0  0  0
  188.1400  178.1820  143.2540 C   0  0  0  0  0  0  0  0  0  0  0  0
  187.6000  178.3180  142.0290 N   0  0  0  0  0  0  0  0  0  0  0  0
  189.6290  177.1540  147.1350 C   0  0  0  0  0  2  0  0  0  0  0  0
  191.5780  177.4430  144.7990 C   0  0  0  0  0  1  0  0  0  0  0  0
  181.7680  179.0520  141.7000 C   0  0  0  0  0  3  0  0  0  0  0  0
  181.8250  178.9210  144.0400 C   0  0  0  0  0  3  0  0  0  0  0  0
  183.5880  178.8660  140.3290 N   0  0  0  0  0  2  0  0  0  0  0  0
  185.1310  178.3960  145.2680 N   0  0  0  0  0  0  0  0  0  0  0  0
  189.6440  178.0170  143.3560 C   0  0  0  0  0  2  0  0  0  0  0  0
  185.9190  178.3310  144.1710 C   0  0  0  0  0  0  0  0  0  0  0  0
  187.2960  178.1140  144.3650 C   0  0  0  0  0  0  0  0  0  0  0  0
  183.2020  178.7320  144.0120 C   0  0  0  0  0  0  0  0  0  0  0  0
  184.7920  178.7210  139.8110 N   0  0  0  0  0  0  0  0  0  0  0  0
  188.2950  176.9440  147.8480 C   0  0  0  0  0  2  0  0  0  0  0  0
  185.3520  178.4950  142.8580 C   0  0  0  0  0  0  0  0  0  0  0  0
  187.1140  178.4270  139.4860 N   0  0  0  0  0  2  0  0  0  0  0  0
  186.9960  178.3010  138.0910 N   0  0  0  0  0  2  0  0  0  0  0  0
  186.1110  173.5210  135.2470 C   0  0  1  0  0  3  0  0  0  0  0  0
  186.8340  177.0480  137.4170 C   0  0  0  0  0  0  0  0  0  0  0  0
  187.8820  176.2580  136.9260 C   0  0  0  0  0  3  0  0  0  0  0  0
  185.1980  174.4610  135.8460 O   0  0  0  0  0  0  0  0  0  0  0  0
  187.2480  175.2430  136.3320 N   0  0  0  0  0  0  0  0  0  0  0  0
  185.9670  175.4300  136.4420 C   0  0  0  0  0  0  0  0  0  0  0  0
  185.6100  176.5410  137.1050 N   0  0  0  0  0  0  0  0  0  0  0  0
  187.5430  174.0440  135.5850 C   0  0  0  0  0  2  0  0  0  0  0  0
  186.8350  171.1530  135.6050 O   0  0  0  0  0  0  0  0  0  0  0  0
  185.9070  172.1620  135.8310 C   0  0  0  0  0  0  0  0  0  0  0  0
  184.8760  171.9240  136.5130 O   0  0  0  0  0  1  0  0  0  0  0  0
  1  6  1  1  0  0  0
  2 18  1  0  0  0  0
  3 14  1  6  0  0  0
  3  9  1  0  0  0  0
  4 12  2  0  0  0  0
  4 25  1  0  0  0  0
  5 25  2  0  0  0  0
  5 22  1  0  0  0  0
  6 24  1  0  0  0  0
  7 15  2  0  0  0  0
  7  5  1  0  0  0  0
  8 16  2  0  0  0  0
  9  1  1  0  0  0  0
  9 13  1  1  0  0  0
 10  4  1  0  0  0  0
 11 19  1  0  0  0  0
 11 21  2  0  0  0  0
 12 11  1  0  0  0  0
 13 24  1  0  0  0  0
 15  8  1  0  0  0  0
 17  7  1  0  0  0  0
 19  3  1  0  0  0  0
 20 21  1  0  0  0  0
 20 18  2  0  0  0  0
 21  1  1  0  0  0  0
 22 16  1  0  0  0  0
 22  2  2  0  0  0  0
 23 17  1  0  0  0  0
 23 10  2  0  0  0  0
 25 20  1  0  0  0  0
 26 10  1  0  0  0  0
 27 26  1  0  0  0  0
 28 35  1  0  0  0  0
 28 37  1  1  0  0  0
 28 31  1  0  0  0  0
 29 27  1  0  0  0  0
 30 29  2  0  0  0  0
 31 33  1  0  0  0  0
 32 33  1  0  0  0  0
 32 30  1  0  0  0  0
 33 34  2  0  0  0  0
 34 29  1  0  0  0  0
 35 32  1  0  0  0  0
 36 37  2  0  0  0  0
 37 38  1  0  0  0  0
M  END
>  <MODEL>
8

>  <REMARK>
 VINA RESULT:     -10.3      4.288      6.872
  Name = 
  4 active torsions:
  status: ('A' for Active; 'I' for Inactive)
    1  A    between atoms: C_4  and  C_20
    2  A    between atoms: N_11  and  C_12
    3  A    between atoms: N_11  and  N_28
    4  A    between atoms: C_14  and  N_28
                            x       y       z     vdW  Elec       q    Type
                         _______ _______ _______ _____ _____    ______ ____

>  <TORSDO>
F 4

$$$$
=
 OpenBabel10232412263D

 38 45  0  0  1  0  0  0  0  0999 V2000
  187.8770  177.9590  145.2910 C   0  0  1  0  0  3  0  0  0  0  0  0
  184.1400  178.5340  143.4950 N   0  0  0  0  0  0  0  0  0  0  0  0
  190.3170  177.9590  145.0800 C   0  0  1  0  0  3  0  0  0  0  0  0
  187.5220  178.3170  140.9840 C   0  0  0  0  0  0  0  0  0  0  0  0
  184.9840  178.5900  141.2300 C   0  0  0  0  0  0  0  0  0  0  0  0
  186.8280  177.2580  146.1260 C   0  0  0  0  0  2  0  0  0  0  0  0
  184.6090  178.7440  139.8640 C   0  0  0  0  0  0  0  0  0  0  0  0
  182.2960  178.9970  140.4690 N   0  0  0  0  0  0  0  0  0  0  0  0
  189.1270  177.2070  145.6490 C   0  0  1  0  0  3  0  0  0  0  0  0
  187.6830  178.3630  139.5890 C   0  0  0  0  0  0  0  0  0  0  0  0
  188.8370  178.0590  142.9860 C   0  0  0  0  0  0  0  0  0  0  0  0
  188.7020  178.1740  141.6520 N   0  0  0  0  0  0  0  0  0  0  0  0
  189.0440  177.0970  147.1530 C   0  0  0  0  0  2  0  0  0  0  0  0
  191.6220  177.3260  145.5260 C   0  0  0  0  0  1  0  0  0  0  0  0
  183.2640  178.9440  139.5300 C   0  0  0  0  0  3  0  0  0  0  0  0
  182.5970  178.8590  141.7750 C   0  0  0  0  0  3  0  0  0  0  0  0
  185.4150  178.7180  138.7900 N   0  0  0  0  0  2  0  0  0  0  0  0
  185.3560  178.3340  143.9710 N   0  0  0  0  0  0  0  0  0  0  0  0
  190.2330  177.8860  143.5480 C   0  0  0  0  0  2  0  0  0  0  0  0
  186.4430  178.2420  143.1710 C   0  0  0  0  0  0  0  0  0  0  0  0
  187.6910  178.0190  143.7840 C   0  0  0  0  0  0  0  0  0  0  0  0
  183.9130  178.6590  142.1760 C   0  0  0  0  0  0  0  0  0  0  0  0
  186.7190  178.5540  138.6710 N   0  0  0  0  0  0  0  0  0  0  0  0
  187.5540  176.9110  147.4240 C   0  0  0  0  0  2  0  0  0  0  0  0
  186.3100  178.3840  141.7450 C   0  0  0  0  0  0  0  0  0  0  0  0
  189.0240  178.2370  139.0820 N   0  0  0  0  0  2  0  0  0  0  0  0
  189.3350  177.8590  137.7630 N   0  0  0  0  0  2  0  0  0  0  0  0
  188.1680  172.9400  135.2820 C   0  0  1  0  0  3  0  0  0  0  0  0
  189.0310  176.5720  137.2140 C   0  0  0  0  0  0  0  0  0  0  0  0
  189.6080  175.3640  137.6260 C   0  0  0  0  0  3  0  0  0  0  0  0
  187.6850  174.2740  135.0360 O   0  0  0  0  0  0  0  0  0  0  0  0
  189.0720  174.4680  136.7930 N   0  0  0  0  0  0  0  0  0  0  0  0
  188.2820  175.0870  135.9660 C   0  0  0  0  0  0  0  0  0  0  0  0
  188.1960  176.4130  136.1500 N   0  0  0  0  0  0  0  0  0  0  0  0
  189.1270  173.0540  136.5090 C   0  0  0  0  0  2  0  0  0  0  0  0
  186.1160  172.3650  136.5940 O   0  0  0  0  0  1  0  0  0  0  0  0
  187.0290  172.0290  135.6010 C   0  0  0  0  0  0  0  0  0  0  0  0
  186.9070  170.9400  134.9810 O   0  0  0  0  0  0  0  0  0  0  0  0
  1  9  1  0  0  0  0
  1  6  1  1  0  0  0
  2 18  1  0  0  0  0
  3 14  1  1  0  0  0
  3  9  1  0  0  0  0
  4 12  2  0  0  0  0
  4 25  1  0  0  0  0
  5 25  2  0  0  0  0
  5 22  1  0  0  0  0
  6 24  1  0  0  0  0
  7  5  1  0  0  0  0
  8 16  2  0  0  0  0
  9 13  1  1  0  0  0
 10  4  1  0  0  0  0
 11 19  1  0  0  0  0
 11 21  2  0  0  0  0
 12 11  1  0  0  0  0
 13 24  1  0  0  0  0
 15  7  2  0  0  0  0
 15  8  1  0  0  0  0
 16 22  1  0  0  0  0
 17  7  1  0  0  0  0
 19  3  1  0  0  0  0
 20 21  1  0  0  0  0
 20 18  2  0  0  0  0
 21  1  1  0  0  0  0
 22  2  2  0  0  0  0
 23 17  1  0  0  0  0
 23 10  2  0  0  0  0
 25 20  1  0  0  0  0
 26 10  1  0  0  0  0
 27 26  1  0  0  0  0
 28 37  1  1  0  0  0
 28 35  1  0  0  0  0
 29 30  2  0  0  0  0
 29 27  1  0  0  0  0
 31 28  1  0  0  0  0
 31 33  1  0  0  0  0
 32 30  1  0  0  0  0
 33 34  2  0  0  0  0
 33 32  1  0  0  0  0
 34 29  1  0  0  0  0
 35 32  1  0  0  0  0
 37 36  1  0  0  0  0
 38 37  2  0  0  0  0
M  END
>  <MODEL>
9

>  <REMARK>
 VINA RESULT:      -9.9      3.524      6.364
  Name = 
  4 active torsions:
  status: ('A' for Active; 'I' for Inactive)
    1  A    between atoms: C_4  and  C_20
    2  A    between atoms: N_11  and  C_12
    3  A    between atoms: N_11  and  N_28
    4  A    between atoms: C_14  and  N_28
                            x       y       z     vdW  Elec       q    Type
                         _______ _______ _______ _____ _____    ______ ____

>  <TORSDO>
F 4

$$$$
