=
 OpenBabel10222421333D

 65 73  0  0  1  0  0  0  0  0999 V2000
  188.9410  176.5610  139.0540 C   0  0  2  0  0  3  0  0  0  0  0  0
  189.4250  177.3390  140.2810 C   0  0  2  0  0  3  0  0  0  0  0  0
  189.9220  176.5130  137.8780 C   0  0  2  0  0  3  0  0  0  0  0  0
  189.2660  178.8120  138.1540 C   0  0  0  0  0  2  0  0  0  0  0  0
  188.5320  178.0190  139.2350 C   0  0  1  0  0  3  0  0  0  0  0  0
  189.7140  177.8090  137.1160 C   0  0  0  0  0  2  0  0  0  0  0  0
  190.7830  174.8460  136.1850 C   0  0  0  0  0  3  0  0  0  0  0  0
  190.5040  173.7500  135.3930 C   0  0  0  0  0  0  0  0  0  0  0  0
  189.7200  175.2880  137.0180 C   0  0  0  0  0  0  0  0  0  0  0  0
  192.1530  171.9570  135.1120 C   0  0  1  0  0  3  0  0  0  0  0  0
  188.1740  173.5170  136.1480 C   0  0  0  0  0  3  0  0  0  0  0  0
  191.0550  172.7710  134.4130 C   0  0  1  0  0  3  0  0  0  0  0  0
  190.7540  169.9460  135.0120 C   0  0  0  0  0  3  0  0  0  0  0  0
  189.6500  170.6930  134.8540 C   0  0  0  0  0  0  0  0  0  0  0  0
  189.7280  172.1280  134.3570 C   0  0  1  0  0  3  0  0  0  0  0  0
  192.1040  170.5010  134.6770 C   0  0  0  0  0  2  0  0  0  0  0  0
  188.4370  174.6390  136.9730 C   0  0  0  0  0  3  0  0  0  0  0  0
  189.2430  173.1030  135.3790 C   0  0  0  0  0  0  0  0  0  0  0  0
  194.4980  171.5510  136.6580 O   0  0  0  0  0  0  0  0  0  0  0  0
  195.8480  172.8790  135.2920 N   0  0  0  0  0  2  0  0  0  0  0  0
  193.4560  172.5270  134.8130 N   0  0  0  0  0  2  0  0  0  0  0  0
  194.5960  172.2820  135.6350 C   0  0  0  0  0  0  0  0  0  0  0  0
  197.0400  172.7130  136.1090 C   0  0  1  0  0  3  0  0  0  0  0  0
  199.7100  175.2820  135.8890 O   0  0  0  0  0  1  0  0  0  0  0  0
  198.6630  174.4240  136.2000 C   0  0  0  0  0  0  0  0  0  0  0  0
  198.2550  173.2690  135.3530 C   0  0  1  0  0  3  0  0  0  0  0  0
  196.9400  173.5200  137.2750 O   0  0  0  0  0  0  0  0  0  0  0  0
  199.3140  172.2730  135.3490 N   0  0  0  0  0  1  0  0  0  0  0  0
  197.8970  174.5150  137.2720 C   0  0  0  0  0  0  0  0  0  0  0  0
  197.9890  175.4660  138.2960 O   0  0  0  0  0  0  0  0  0  0  0  0
  198.6040  175.2160  139.5510 C   0  0  0  0  0  1  0  0  0  0  0  0
  188.2700  168.7110  134.7250 N   0  0  0  0  0  1  0  0  0  0  0  0
  188.3110  170.0980  135.1560 C   0  0  0  0  0  2  0  0  0  0  0  0
  190.8920  177.7930  140.2560 C   0  0  0  0  0  2  0  0  0  0  0  0
  191.6690  177.1830  141.4140 C   0  0  0  0  0  2  0  0  0  0  0  0
  190.9380  177.3620  142.7370 C   0  0  0  0  0  2  0  0  0  0  0  0
  190.3440  176.0500  143.2320 C   0  0  0  0  0  2  0  0  0  0  0  0
  188.8960  176.2190  143.6740 C   0  0  0  0  0  2  0  0  0  0  0  0
  188.6580  177.6460  144.1630 C   0  0  0  0  0  2  0  0  0  0  0  0
  187.1760  178.0030  144.2400 C   0  0  1  0  0  3  0  0  0  0  0  0
  186.5030  177.7080  142.9780 N   0  0  0  0  0  2  0  0  0  0  0  0
  184.5520  178.9570  143.4960 N   0  0  0  0  0  0  0  0  0  0  0  0
  184.3970  177.8250  141.1340 S   0  0  0  0  0  0  0  0  0  0  0  0
  185.2030  178.2150  142.6700 C   0  0  0  0  0  0  0  0  0  0  0  0
  182.8680  178.5520  141.8070 C   0  0  1  0  0  3  0  0  0  0  0  0
  183.2410  179.3800  143.0410 C   0  0  1  0  0  3  0  0  0  0  0  0
  181.1380  178.4820  144.0000 C   0  0  0  0  0  2  0  0  0  0  0  0
  182.2290  179.2340  144.1390 C   0  0  0  0  0  3  0  0  0  0  0  0
  182.2590  179.4090  140.8010 N   0  0  0  0  0  2  0  0  0  0  0  0
  181.4270  177.3550  139.8220 C   0  0  0  0  0  2  0  0  0  0  0  0
  181.4590  179.4470  138.0350 O   0  0  0  0  0  0  0  0  0  0  0  0
  181.0670  178.7420  140.2970 C   0  0  2  0  0  3  0  0  0  0  0  0
  180.8730  177.1830  138.4840 N   0  0  0  0  0  0  0  0  0  0  0  0
  180.4210  178.4900  137.9880 C   0  0  1  0  0  3  0  0  0  0  0  0
  180.5210  179.4770  139.0850 C   0  0  2  0  0  3  0  0  0  0  0  0
  181.8970  176.9970  136.0280 O   0  0  0  0  0  0  0  0  0  0  0  0
  183.4560  177.0240  137.9160 O   0  0  0  0  0  0  0  0  0  0  0  0
  182.1130  176.5410  137.4450 S   0  0  0  0  0  0  0  0  0  0  0  0
  182.6440  174.2490  136.3190 O   0  0  0  0  0  1  0  0  0  0  0  0
  182.0920  174.7600  137.4930 C   0  0  0  0  0  2  0  0  0  0  0  0
  186.5050  177.2700  145.3990 C   0  0  0  0  0  2  0  0  0  0  0  0
  186.3270  178.1780  146.5670 C   0  0  0  0  0  0  0  0  0  0  0  0
  185.1840  178.6470  146.8230 O   0  0  0  0  0  0  0  0  0  0  0  0
  187.8530  177.6590  148.4220 C   0  0  0  0  0  1  0  0  0  0  0  0
  187.4280  178.4980  147.3600 O   0  0  0  0  0  0  0  0  0  0  0  0
  1  5  1  0  0  0  0
  1  2  1  0  0  0  0
  3  1  1  0  0  0  0
  4  5  1  0  0  0  0
  5  2  1  0  0  0  0
  6  3  1  0  0  0  0
  6  4  1  0  0  0  0
  7  9  1  0  0  0  0
  8  7  2  0  0  0  0
  9  3  1  0  0  0  0
 11 17  1  0  0  0  0
 12 10  1  0  0  0  0
 12  8  1  0  0  0  0
 14 13  2  0  0  0  0
 14 33  1  0  0  0  0
 15 12  1  0  0  0  0
 15 14  1  0  0  0  0
 15 18  1  0  0  0  0
 16 13  1  0  0  0  0
 16 10  1  0  0  0  0
 17  9  2  0  0  0  0
 18  8  1  0  0  0  0
 18 11  2  0  0  0  0
 20 22  1  0  0  0  0
 20 23  1  0  0  0  0
 21 10  1  0  0  0  0
 21 22  1  0  0  0  0
 22 19  2  0  0  0  0
 23 27  1  0  0  0  0
 24 25  1  0  0  0  0
 25 29  2  0  0  0  0
 26 23  1  0  0  0  0
 26 25  1  0  0  0  0
 28 26  1  0  0  0  0
 29 27  1  0  0  0  0
 29 30  1  0  0  0  0
 30 31  1  0  0  0  0
 32 33  1  0  0  0  0
 34  2  1  0  0  0  0
 34 35  1  0  0  0  0
 35 36  1  0  0  0  0
 36 37  1  0  0  0  0
 37 38  1  0  0  0  0
 38 39  1  0  0  0  0
 39 40  1  0  0  0  0
 40 61  1  0  0  0  0
 41 40  1  0  0  0  0
 43 45  1  0  0  0  0
 43 44  1  0  0  0  0
 44 41  1  0  0  0  0
 44 42  2  0  0  0  0
 45 46  1  0  0  0  0
 46 42  1  0  0  0  0
 46 48  1  0  0  0  0
 47 48  2  0  0  0  0
 49 45  1  0  0  0  0
 50 52  1  0  0  0  0
 51 55  1  0  0  0  0
 52 49  1  0  0  0  0
 53 50  1  0  0  0  0
 54 51  1  0  0  0  0
 54 53  1  0  0  0  0
 54 55  1  0  0  0  0
 55 52  1  0  0  0  0
 56 58  2  0  0  0  0
 58 60  1  0  0  0  0
 58 57  2  0  0  0  0
 58 53  1  0  0  0  0
 59 60  1  0  0  0  0
 61 62  1  0  0  0  0
 62 63  2  0  0  0  0
 62 65  1  0  0  0  0
 65 64  1  0  0  0  0
M  END
>  <MODEL>
1

>  <REMARK>
 VINA RESULT:      -6.4      0.000      0.000
  Name = 
  21 active torsions:
  status: ('A' for Active; 'I' for Inactive)
    1  A    between atoms: N_8  and  C_44
    2  A    between atoms: C_9  and  N_35
    3  A    between atoms: C_11  and  C_34
    4  A    between atoms: S_12  and  N_24
    5  A    between atoms: S_12  and  C_57
    6  A    between atoms: C_14  and  C_16
    7  A    between atoms: C_18  and  N_27
    8  A    between atoms: C_20  and  C_42
    9  A    between atoms: C_20  and  C_44
   10  A    between atoms: O_21  and  C_42
   11  A    between atoms: C_23  and  C_45
   12  A    between atoms: C_23  and  C_48
   13  A    between atoms: C_26  and  C_44
   14  A    between atoms: C_26  and  C_48
   15  A    between atoms: N_27  and  C_52
   16  A    between atoms: C_29  and  N_58
   17  A    between atoms: C_34  and  C_47
   18  A    between atoms: C_39  and  C_62
   19  A    between atoms: O_41  and  C_60
   20  A    between atoms: C_45  and  C_47
   21  A    between atoms: C_54  and  C_59
                            x       y       z     vdW  Elec       q    Type
                         _______ _______ _______ _____ _____    ______ ____

>  <TORSDO>
F 21

$$$$
=
 OpenBabel10222421333D

 65 73  0  0  1  0  0  0  0  0999 V2000
  182.2650  172.3800  136.4610 C   0  0  2  0  0  3  0  0  0  0  0  0
  182.7760  171.3700  135.4290 C   0  0  2  0  0  3  0  0  0  0  0  0
  183.2020  173.5570  136.7480 C   0  0  2  0  0  3  0  0  0  0  0  0
  184.3240  171.5660  137.4990 C   0  0  0  0  0  2  0  0  0  0  0  0
  182.9800  171.1160  136.9290 C   0  0  1  0  0  3  0  0  0  0  0  0
  184.2030  173.0480  137.7680 C   0  0  0  0  0  2  0  0  0  0  0  0
  182.6590  175.2480  138.5460 C   0  0  0  0  0  3  0  0  0  0  0  0
  181.9000  176.3390  138.9190 C   0  0  0  0  0  0  0  0  0  0  0  0
  182.4520  174.7800  137.2200 C   0  0  0  0  0  0  0  0  0  0  0  0
  182.8920  178.1690  140.2150 C   0  0  1  0  0  3  0  0  0  0  0  0
  180.7020  176.5180  136.7780 C   0  0  0  0  0  3  0  0  0  0  0  0
  181.6230  177.3320  139.9960 C   0  0  1  0  0  3  0  0  0  0  0  0
  181.7680  180.1490  139.3040 C   0  0  0  0  0  3  0  0  0  0  0  0
  180.8620  179.3780  138.6830 C   0  0  0  0  0  0  0  0  0  0  0  0
  180.6030  177.9450  139.1240 C   0  0  1  0  0  3  0  0  0  0  0  0
  182.5380  179.6250  140.4760 C   0  0  0  0  0  2  0  0  0  0  0  0
  181.4710  175.4010  136.3710 C   0  0  0  0  0  3  0  0  0  0  0  0
  180.9560  176.9580  138.0610 C   0  0  0  0  0  0  0  0  0  0  0  0
  184.5790  179.6860  141.9210 O   0  0  0  0  0  0  0  0  0  0  0  0
  185.2120  177.8560  143.2240 N   0  0  0  0  0  2  0  0  0  0  0  0
  183.6520  177.6290  141.3290 N   0  0  0  0  0  2  0  0  0  0  0  0
  184.4830  178.4490  142.1490 C   0  0  0  0  0  0  0  0  0  0  0  0
  186.1150  178.6220  144.0690 C   0  0  1  0  0  3  0  0  0  0  0  0
  187.1990  177.1450  147.2970 O   0  0  0  0  0  1  0  0  0  0  0  0
  187.0320  177.6470  146.0140 C   0  0  0  0  0  0  0  0  0  0  0  0
  185.7980  178.3340  145.5430 C   0  0  1  0  0  3  0  0  0  0  0  0
  187.4480  178.1600  143.8900 O   0  0  0  0  0  0  0  0  0  0  0  0
  185.6420  179.5920  146.2550 N   0  0  0  0  0  1  0  0  0  0  0  0
  187.9310  177.5840  145.0480 C   0  0  0  0  0  0  0  0  0  0  0  0
  189.2110  177.0200  145.1230 O   0  0  0  0  0  0  0  0  0  0  0  0
  190.3940  177.7750  145.3380 C   0  0  0  0  0  1  0  0  0  0  0  0
  180.6640  181.1950  137.1000 N   0  0  0  0  0  1  0  0  0  0  0  0
  180.0770  179.9420  137.5400 C   0  0  0  0  0  2  0  0  0  0  0  0
  184.0520  171.7660  134.6730 C   0  0  0  0  0  2  0  0  0  0  0  0
  185.0430  170.6120  134.6390 C   0  0  0  0  0  2  0  0  0  0  0  0
  186.4300  171.0490  135.0880 C   0  0  0  0  0  2  0  0  0  0  0  0
  186.7820  172.4320  134.5580 C   0  0  0  0  0  2  0  0  0  0  0  0
  186.6290  173.5020  135.6320 C   0  0  0  0  0  2  0  0  0  0  0  0
  187.7090  173.3350  136.6980 C   0  0  0  0  0  2  0  0  0  0  0  0
  188.5800  174.5790  136.8540 C   0  0  1  0  0  3  0  0  0  0  0  0
  189.6930  174.5580  135.9100 N   0  0  0  0  0  2  0  0  0  0  0  0
  191.3220  175.2140  137.5060 N   0  0  0  0  0  0  0  0  0  0  0  0
  192.3650  174.8660  135.1230 S   0  0  0  0  0  0  0  0  0  0  0  0
  191.0300  174.8800  136.2980 C   0  0  0  0  0  0  0  0  0  0  0  0
  193.4140  175.6680  136.3790 C   0  0  1  0  0  3  0  0  0  0  0  0
  192.7210  175.5240  137.7370 C   0  0  1  0  0  3  0  0  0  0  0  0
  192.0360  177.0260  139.5870 C   0  0  0  0  0  2  0  0  0  0  0  0
  192.8550  176.7650  138.5680 C   0  0  0  0  0  3  0  0  0  0  0  0
  194.7120  175.0100  136.4110 N   0  0  0  0  0  2  0  0  0  0  0  0
  196.2340  174.0190  134.8090 C   0  0  0  0  0  2  0  0  0  0  0  0
  197.3090  176.2090  136.0830 O   0  0  0  0  0  0  0  0  0  0  0  0
  195.3530  175.2050  135.1190 C   0  0  2  0  0  3  0  0  0  0  0  0
  197.5420  174.5270  134.4130 N   0  0  0  0  0  0  0  0  0  0  0  0
  197.6070  175.9610  134.7240 C   0  0  1  0  0  3  0  0  0  0  0  0
  196.2680  176.4160  135.1580 C   0  0  2  0  0  3  0  0  0  0  0  0
  199.7120  172.9770  134.3510 O   0  0  0  0  0  0  0  0  0  0  0  0
  199.5420  174.6310  136.1470 O   0  0  0  0  0  0  0  0  0  0  0  0
  198.7680  173.6630  135.2980 S   0  0  0  0  0  0  0  0  0  0  0  0
  197.8470  172.9680  137.6370 O   0  0  0  0  0  1  0  0  0  0  0  0
  198.0140  172.4430  136.3560 C   0  0  0  0  0  2  0  0  0  0  0  0
  187.7450  175.8460  136.6840 C   0  0  0  0  0  2  0  0  0  0  0  0
  188.1190  176.8670  137.7020 C   0  0  0  0  0  0  0  0  0  0  0  0
  188.8800  176.5470  138.6560 O   0  0  0  0  0  0  0  0  0  0  0  0
  187.8720  178.9620  136.4410 C   0  0  0  0  0  1  0  0  0  0  0  0
  187.6200  178.1630  137.5870 O   0  0  0  0  0  0  0  0  0  0  0  0
  1  3  1  0  0  0  0
  1  5  1  0  0  0  0
  2  1  1  0  0  0  0
  2  5  1  0  0  0  0
  3  9  1  0  0  0  0
  3  6  1  0  0  0  0
  4  6  1  0  0  0  0
  5  4  1  0  0  0  0
  7  8  1  0  0  0  0
  8 12  1  0  0  0  0
  9  7  2  0  0  0  0
 10 16  1  0  0  0  0
 10 21  1  0  0  0  0
 11 18  1  0  0  0  0
 12 10  1  0  0  0  0
 13 16  1  0  0  0  0
 14 15  1  0  0  0  0
 14 13  2  0  0  0  0
 15 12  1  0  0  0  0
 17 11  2  0  0  0  0
 17  9  1  0  0  0  0
 18  8  2  0  0  0  0
 18 15  1  0  0  0  0
 19 22  2  0  0  0  0
 20 23  1  0  0  0  0
 21 22  1  0  0  0  0
 22 20  1  0  0  0  0
 23 26  1  0  0  0  0
 25 24  1  0  0  0  0
 26 25  1  0  0  0  0
 26 28  1  0  0  0  0
 27 23  1  0  0  0  0
 27 29  1  0  0  0  0
 29 30  1  0  0  0  0
 29 25  2  0  0  0  0
 30 31  1  0  0  0  0
 32 33  1  0  0  0  0
 33 14  1  0  0  0  0
 34  2  1  0  0  0  0
 35 34  1  0  0  0  0
 35 36  1  0  0  0  0
 37 36  1  0  0  0  0
 37 38  1  0  0  0  0
 38 39  1  0  0  0  0
 39 40  1  0  0  0  0
 41 44  1  0  0  0  0
 41 40  1  0  0  0  0
 42 46  1  0  0  0  0
 43 44  1  0  0  0  0
 43 45  1  0  0  0  0
 44 42  2  0  0  0  0
 45 49  1  0  0  0  0
 45 46  1  0  0  0  0
 46 48  1  0  0  0  0
 48 47  2  0  0  0  0
 50 52  1  0  0  0  0
 52 55  1  0  0  0  0
 52 49  1  0  0  0  0
 53 54  1  0  0  0  0
 53 50  1  0  0  0  0
 53 58  1  0  0  0  0
 54 55  1  0  0  0  0
 54 51  1  0  0  0  0
 55 51  1  0  0  0  0
 56 58  2  0  0  0  0
 58 57  2  0  0  0  0
 58 60  1  0  0  0  0
 60 59  1  0  0  0  0
 61 40  1  0  0  0  0
 61 62  1  0  0  0  0
 62 63  2  0  0  0  0
 64 65  1  0  0  0  0
 65 62  1  0  0  0  0
M  END
>  <MODEL>
2

>  <REMARK>
 VINA RESULT:      -4.8      3.454     12.588
  Name = 
  21 active torsions:
  status: ('A' for Active; 'I' for Inactive)
    1  A    between atoms: N_8  and  C_44
    2  A    between atoms: C_9  and  N_35
    3  A    between atoms: C_11  and  C_34
    4  A    between atoms: S_12  and  N_24
    5  A    between atoms: S_12  and  C_57
    6  A    between atoms: C_14  and  C_16
    7  A    between atoms: C_18  and  N_27
    8  A    between atoms: C_20  and  C_42
    9  A    between atoms: C_20  and  C_44
   10  A    between atoms: O_21  and  C_42
   11  A    between atoms: C_23  and  C_45
   12  A    between atoms: C_23  and  C_48
   13  A    between atoms: C_26  and  C_44
   14  A    between atoms: C_26  and  C_48
   15  A    between atoms: N_27  and  C_52
   16  A    between atoms: C_29  and  N_58
   17  A    between atoms: C_34  and  C_47
   18  A    between atoms: C_39  and  C_62
   19  A    between atoms: O_41  and  C_60
   20  A    between atoms: C_45  and  C_47
   21  A    between atoms: C_54  and  C_59
                            x       y       z     vdW  Elec       q    Type
                         _______ _______ _______ _____ _____    ______ ____

>  <TORSDO>
F 21

$$$$
=
 OpenBabel10222421333D

 65 73  0  0  1  0  0  0  0  0999 V2000
  189.3210  176.3030  139.5070 C   0  0  2  0  0  3  0  0  0  0  0  0
  189.9500  177.0360  140.6960 C   0  0  2  0  0  3  0  0  0  0  0  0
  189.9980  176.5430  138.1540 C   0  0  2  0  0  3  0  0  0  0  0  0
  189.0790  178.6500  138.8640 C   0  0  0  0  0  2  0  0  0  0  0  0
  188.7460  177.6410  139.9620 C   0  0  1  0  0  3  0  0  0  0  0  0
  189.4240  177.8470  137.6320 C   0  0  0  0  0  2  0  0  0  0  0  0
  190.8940  174.9280  136.4290 C   0  0  0  0  0  3  0  0  0  0  0  0
  190.6150  173.9030  135.5480 C   0  0  0  0  0  0  0  0  0  0  0  0
  189.7940  175.3880  137.2030 C   0  0  0  0  0  0  0  0  0  0  0  0
  192.1710  172.0260  135.2790 C   0  0  1  0  0  3  0  0  0  0  0  0
  188.2220  173.7770  136.1020 C   0  0  0  0  0  3  0  0  0  0  0  0
  191.1850  172.9510  134.5510 C   0  0  1  0  0  3  0  0  0  0  0  0
  190.6670  170.1210  134.9380 C   0  0  0  0  0  3  0  0  0  0  0  0
  189.6270  170.9460  134.7440 C   0  0  0  0  0  0  0  0  0  0  0  0
  189.8310  172.4010  134.3500 C   0  0  1  0  0  3  0  0  0  0  0  0
  192.0700  170.6060  134.7470 C   0  0  0  0  0  2  0  0  0  0  0  0
  188.4830  174.8270  137.0160 C   0  0  0  0  0  3  0  0  0  0  0  0
  189.3230  173.3410  135.3920 C   0  0  0  0  0  0  0  0  0  0  0  0
  194.3510  171.3860  136.9800 O   0  0  0  0  0  0  0  0  0  0  0  0
  195.8860  172.6980  135.8100 N   0  0  0  0  0  2  0  0  0  0  0  0
  193.5260  172.5280  135.1210 N   0  0  0  0  0  2  0  0  0  0  0  0
  194.5770  172.1650  136.0140 C   0  0  0  0  0  0  0  0  0  0  0  0
  196.9940  172.4110  136.7080 C   0  0  1  0  0  3  0  0  0  0  0  0
  199.3100  175.1690  137.6030 O   0  0  0  0  0  1  0  0  0  0  0  0
  198.3580  174.1630  137.5080 C   0  0  0  0  0  0  0  0  0  0  0  0
  198.2000  173.2780  136.3200 C   0  0  1  0  0  3  0  0  0  0  0  0
  196.6620  172.8230  138.0280 O   0  0  0  0  0  0  0  0  0  0  0  0
  199.3750  172.4330  136.1860 N   0  0  0  0  0  1  0  0  0  0  0  0
  197.4750  173.8600  138.4410 C   0  0  0  0  0  0  0  0  0  0  0  0
  197.3280  174.4690  139.6940 O   0  0  0  0  0  0  0  0  0  0  0  0
  196.1060  175.0150  140.1660 C   0  0  0  0  0  1  0  0  0  0  0  0
  188.2430  168.9700  134.9150 N   0  0  0  0  0  1  0  0  0  0  0  0
  188.2340  170.4220  134.9010 C   0  0  0  0  0  2  0  0  0  0  0  0
  191.2840  177.7470  140.4200 C   0  0  0  0  0  2  0  0  0  0  0  0
  192.3830  177.2070  141.3240 C   0  0  0  0  0  2  0  0  0  0  0  0
  191.9060  177.0560  142.7610 C   0  0  0  0  0  2  0  0  0  0  0  0
  191.1240  175.7640  142.9590 C   0  0  0  0  0  2  0  0  0  0  0  0
  189.7970  176.0120  143.6650 C   0  0  0  0  0  2  0  0  0  0  0  0
  189.8550  177.3180  144.4530 C   0  0  0  0  0  2  0  0  0  0  0  0
  188.4910  177.9890  144.5850 C   0  0  1  0  0  3  0  0  0  0  0  0
  187.6770  177.7530  143.3960 N   0  0  0  0  0  2  0  0  0  0  0  0
  185.7220  178.7580  144.2890 N   0  0  0  0  0  0  0  0  0  0  0  0
  185.3370  177.8460  141.8590 S   0  0  0  0  0  0  0  0  0  0  0  0
  186.3110  178.1630  143.3120 C   0  0  0  0  0  0  0  0  0  0  0  0
  183.8610  178.3590  142.7960 C   0  0  1  0  0  3  0  0  0  0  0  0
  184.3310  179.0980  144.0520 C   0  0  1  0  0  3  0  0  0  0  0  0
  184.0330  178.5330  146.4480 C   0  0  0  0  0  2  0  0  0  0  0  0
  183.4940  178.7550  145.2490 C   0  0  0  0  0  3  0  0  0  0  0  0
  183.0530  179.2460  141.9720 N   0  0  0  0  0  2  0  0  0  0  0  0
  182.4570  178.6060  139.7130 C   0  0  0  0  0  2  0  0  0  0  0  0
  180.5630  180.2140  140.8980 O   0  0  0  0  0  0  0  0  0  0  0  0
  182.1450  178.4290  141.1800 C   0  0  2  0  0  3  0  0  0  0  0  0
  181.2040  178.8930  139.0220 N   0  0  0  0  0  0  0  0  0  0  0  0
  180.1670  179.1780  140.0230 C   0  0  1  0  0  3  0  0  0  0  0  0
  180.7120  178.8950  141.3690 C   0  0  2  0  0  3  0  0  0  0  0  0
  182.6210  181.0820  138.4580 O   0  0  0  0  0  0  0  0  0  0  0  0
  181.6910  179.8090  136.5840 O   0  0  0  0  0  0  0  0  0  0  0  0
  181.4410  180.2750  137.9910 S   0  0  0  0  0  0  0  0  0  0  0  0
  180.2140  182.4310  138.7980 O   0  0  0  0  0  1  0  0  0  0  0  0
  179.9870  181.3060  138.0060 C   0  0  0  0  0  2  0  0  0  0  0  0
  187.7720  177.5040  145.8420 C   0  0  0  0  0  2  0  0  0  0  0  0
  188.6940  177.5050  147.0120 C   0  0  0  0  0  0  0  0  0  0  0  0
  189.6540  176.6870  147.0510 O   0  0  0  0  0  0  0  0  0  0  0  0
  187.9230  178.0060  149.2910 C   0  0  0  0  0  1  0  0  0  0  0  0
  188.4820  178.4100  148.0510 O   0  0  0  0  0  0  0  0  0  0  0  0
  1  5  1  0  0  0  0
  1  2  1  0  0  0  0
  3  1  1  0  0  0  0
  4  5  1  0  0  0  0
  5  2  1  0  0  0  0
  6  3  1  0  0  0  0
  6  4  1  0  0  0  0
  7  9  1  0  0  0  0
  8  7  2  0  0  0  0
  9  3  1  0  0  0  0
 11 17  1  0  0  0  0
 12 10  1  0  0  0  0
 12  8  1  0  0  0  0
 14 33  1  0  0  0  0
 14 13  2  0  0  0  0
 15 12  1  0  0  0  0
 15 14  1  0  0  0  0
 15 18  1  0  0  0  0
 16 13  1  0  0  0  0
 16 10  1  0  0  0  0
 17  9  2  0  0  0  0
 18  8  1  0  0  0  0
 18 11  2  0  0  0  0
 20 22  1  0  0  0  0
 20 23  1  0  0  0  0
 21 10  1  0  0  0  0
 21 22  1  0  0  0  0
 22 19  2  0  0  0  0
 23 27  1  0  0  0  0
 25 24  1  0  0  0  0
 25 29  2  0  0  0  0
 26 23  1  0  0  0  0
 26 25  1  0  0  0  0
 27 29  1  0  0  0  0
 28 26  1  0  0  0  0
 29 30  1  0  0  0  0
 30 31  1  0  0  0  0
 33 32  1  0  0  0  0
 34  2  1  0  0  0  0
 34 35  1  0  0  0  0
 35 36  1  0  0  0  0
 36 37  1  0  0  0  0
 37 38  1  0  0  0  0
 38 39  1  0  0  0  0
 39 40  1  0  0  0  0
 40 61  1  0  0  0  0
 41 40  1  0  0  0  0
 43 45  1  0  0  0  0
 43 44  1  0  0  0  0
 44 41  1  0  0  0  0
 44 42  2  0  0  0  0
 45 46  1  0  0  0  0
 46 42  1  0  0  0  0
 46 48  1  0  0  0  0
 48 47  2  0  0  0  0
 49 45  1  0  0  0  0
 50 52  1  0  0  0  0
 51 55  1  0  0  0  0
 52 55  1  0  0  0  0
 52 49  1  0  0  0  0
 53 50  1  0  0  0  0
 53 54  1  0  0  0  0
 54 51  1  0  0  0  0
 54 55  1  0  0  0  0
 57 58  2  0  0  0  0
 58 60  1  0  0  0  0
 58 56  2  0  0  0  0
 58 53  1  0  0  0  0
 60 59  1  0  0  0  0
 61 62  1  0  0  0  0
 62 63  2  0  0  0  0
 62 65  1  0  0  0  0
 65 64  1  0  0  0  0
M  END
>  <MODEL>
3

>  <REMARK>
 VINA RESULT:      -4.8      1.607      2.152
  Name = 
  21 active torsions:
  status: ('A' for Active; 'I' for Inactive)
    1  A    between atoms: N_8  and  C_44
    2  A    between atoms: C_9  and  N_35
    3  A    between atoms: C_11  and  C_34
    4  A    between atoms: S_12  and  N_24
    5  A    between atoms: S_12  and  C_57
    6  A    between atoms: C_14  and  C_16
    7  A    between atoms: C_18  and  N_27
    8  A    between atoms: C_20  and  C_42
    9  A    between atoms: C_20  and  C_44
   10  A    between atoms: O_21  and  C_42
   11  A    between atoms: C_23  and  C_45
   12  A    between atoms: C_23  and  C_48
   13  A    between atoms: C_26  and  C_44
   14  A    between atoms: C_26  and  C_48
   15  A    between atoms: N_27  and  C_52
   16  A    between atoms: C_29  and  N_58
   17  A    between atoms: C_34  and  C_47
   18  A    between atoms: C_39  and  C_62
   19  A    between atoms: O_41  and  C_60
   20  A    between atoms: C_45  and  C_47
   21  A    between atoms: C_54  and  C_59
                            x       y       z     vdW  Elec       q    Type
                         _______ _______ _______ _____ _____    ______ ____

>  <TORSDO>
F 21

$$$$
=
 OpenBabel10222421333D

 65 73  0  0  1  0  0  0  0  0999 V2000
  188.0500  176.9660  138.9440 C   0  0  2  0  0  3  0  0  0  0  0  0
  188.3740  177.6120  140.2940 C   0  0  2  0  0  3  0  0  0  0  0  0
  189.2630  176.5150  138.1240 C   0  0  2  0  0  3  0  0  0  0  0  0
  189.3780  178.9120  138.2890 C   0  0  0  0  0  2  0  0  0  0  0  0
  188.1280  178.4850  139.0560 C   0  0  1  0  0  3  0  0  0  0  0  0
  189.7510  177.7530  137.3950 C   0  0  0  0  0  2  0  0  0  0  0  0
  189.9450  174.8490  136.3490 C   0  0  0  0  0  3  0  0  0  0  0  0
  189.5470  173.8460  135.4890 C   0  0  0  0  0  0  0  0  0  0  0  0
  188.9270  175.3760  137.1900 C   0  0  0  0  0  0  0  0  0  0  0  0
  190.9600  171.8740  135.1280 C   0  0  1  0  0  3  0  0  0  0  0  0
  187.1900  173.8710  136.1920 C   0  0  0  0  0  3  0  0  0  0  0  0
  189.9910  172.8610  134.4610 C   0  0  1  0  0  3  0  0  0  0  0  0
  189.3190  170.0690  134.8860 C   0  0  0  0  0  3  0  0  0  0  0  0
  188.3240  170.9590  134.7550 C   0  0  0  0  0  0  0  0  0  0  0  0
  188.5950  172.3990  134.3460 C   0  0  1  0  0  3  0  0  0  0  0  0
  190.7360  170.4640  134.6060 C   0  0  0  0  0  2  0  0  0  0  0  0
  187.5740  174.9010  137.0860 C   0  0  0  0  0  3  0  0  0  0  0  0
  188.2140  173.3680  135.4160 C   0  0  0  0  0  0  0  0  0  0  0  0
  192.6090  173.2220  137.0050 O   0  0  0  0  0  0  0  0  0  0  0  0
  194.4460  173.3520  135.5700 N   0  0  0  0  0  2  0  0  0  0  0  0
  192.3320  172.2890  134.8840 N   0  0  0  0  0  2  0  0  0  0  0  0
  193.1060  172.9640  135.8740 C   0  0  0  0  0  0  0  0  0  0  0  0
  195.2780  174.0860  136.5130 C   0  0  1  0  0  3  0  0  0  0  0  0
  198.5250  172.6070  137.5340 O   0  0  0  0  0  1  0  0  0  0  0  0
  197.4540  173.3240  137.0180 C   0  0  0  0  0  0  0  0  0  0  0  0
  196.0340  173.0910  137.4040 C   0  0  1  0  0  3  0  0  0  0  0  0
  196.2950  174.7870  135.8100 O   0  0  0  0  0  0  0  0  0  0  0  0
  195.8450  173.4570  138.7980 N   0  0  0  0  0  1  0  0  0  0  0  0
  197.5450  174.2930  136.1260 C   0  0  0  0  0  0  0  0  0  0  0  0
  198.7150  174.7920  135.5400 O   0  0  0  0  0  0  0  0  0  0  0  0
  199.8000  173.9760  135.1260 C   0  0  0  0  0  1  0  0  0  0  0  0
  186.8670  169.0970  135.2640 N   0  0  0  0  0  1  0  0  0  0  0  0
  186.9130  170.5250  135.0000 C   0  0  0  0  0  2  0  0  0  0  0  0
  189.8420  177.5420  140.7400 C   0  0  0  0  0  2  0  0  0  0  0  0
  189.9720  176.8060  142.0660 C   0  0  0  0  0  2  0  0  0  0  0  0
  188.9960  177.3420  143.1040 C   0  0  0  0  0  2  0  0  0  0  0  0
  187.5630  176.9380  142.7890 C   0  0  0  0  0  2  0  0  0  0  0  0
  186.5700  177.5970  143.7380 C   0  0  0  0  0  2  0  0  0  0  0  0
  186.4040  179.0730  143.3840 C   0  0  0  0  0  2  0  0  0  0  0  0
  185.0260  179.3910  142.8110 C   0  0  1  0  0  3  0  0  0  0  0  0
  184.4150  178.1980  142.2320 N   0  0  0  0  0  2  0  0  0  0  0  0
  183.6530  179.2950  140.2710 N   0  0  0  0  0  0  0  0  0  0  0  0
  182.9970  176.7540  140.2940 S   0  0  0  0  0  0  0  0  0  0  0  0
  183.7520  178.2170  140.9670 C   0  0  0  0  0  0  0  0  0  0  0  0
  182.2220  177.7990  139.0190 C   0  0  1  0  0  3  0  0  0  0  0  0
  182.9390  179.1530  139.0160 C   0  0  1  0  0  3  0  0  0  0  0  0
  181.5020  180.6140  137.6200 C   0  0  0  0  0  2  0  0  0  0  0  0
  181.9830  180.2920  138.8210 C   0  0  0  0  0  3  0  0  0  0  0  0
  182.3650  177.1580  137.7200 N   0  0  0  0  0  2  0  0  0  0  0  0
  181.7910  174.8090  137.8630 C   0  0  0  0  0  2  0  0  0  0  0  0
  181.8320  175.7380  135.2730 O   0  0  0  0  0  0  0  0  0  0  0  0
  181.2820  176.1990  137.5640 C   0  0  2  0  0  3  0  0  0  0  0  0
  181.3810  173.9390  136.7670 N   0  0  0  0  0  0  0  0  0  0  0  0
  180.8800  174.7710  135.6650 C   0  0  1  0  0  3  0  0  0  0  0  0
  180.7980  176.1750  136.1250 C   0  0  2  0  0  3  0  0  0  0  0  0
  183.2140  173.4740  134.8850 O   0  0  0  0  0  0  0  0  0  0  0  0
  183.8850  173.2010  137.2240 O   0  0  0  0  0  0  0  0  0  0  0  0
  182.7610  173.0150  136.2430 S   0  0  0  0  0  0  0  0  0  0  0  0
  181.8000  170.9850  134.9170 O   0  0  0  0  0  1  0  0  0  0  0  0
  182.3450  171.2840  136.1650 C   0  0  0  0  0  2  0  0  0  0  0  0
  184.1250  180.0000  143.8820 C   0  0  0  0  0  2  0  0  0  0  0  0
  183.5060  178.9360  144.7220 C   0  0  0  0  0  0  0  0  0  0  0  0
  184.0030  178.6640  145.8490 O   0  0  0  0  0  0  0  0  0  0  0  0
  181.1580  178.9180  143.9990 C   0  0  0  0  0  1  0  0  0  0  0  0
  182.3870  178.2540  144.2480 O   0  0  0  0  0  0  0  0  0  0  0  0
  1  5  1  0  0  0  0
  1  2  1  0  0  0  0
  2 34  1  0  0  0  0
  3  1  1  0  0  0  0
  4  5  1  0  0  0  0
  5  2  1  0  0  0  0
  6  3  1  0  0  0  0
  6  4  1  0  0  0  0
  7  9  1  0  0  0  0
  8  7  2  0  0  0  0
  9  3  1  0  0  0  0
 11 17  1  0  0  0  0
 12 10  1  0  0  0  0
 12  8  1  0  0  0  0
 14 13  2  0  0  0  0
 14 33  1  0  0  0  0
 15 12  1  0  0  0  0
 15 14  1  0  0  0  0
 15 18  1  0  0  0  0
 16 13  1  0  0  0  0
 16 10  1  0  0  0  0
 17  9  2  0  0  0  0
 18  8  1  0  0  0  0
 18 11  2  0  0  0  0
 20 22  1  0  0  0  0
 20 23  1  0  0  0  0
 21 10  1  0  0  0  0
 21 22  1  0  0  0  0
 22 19  2  0  0  0  0
 23 26  1  0  0  0  0
 25 26  1  0  0  0  0
 25 24  1  0  0  0  0
 26 28  1  0  0  0  0
 27 29  1  0  0  0  0
 27 23  1  0  0  0  0
 29 25  2  0  0  0  0
 30 29  1  0  0  0  0
 31 30  1  0  0  0  0
 33 32  1  0  0  0  0
 34 35  1  0  0  0  0
 35 36  1  0  0  0  0
 37 36  1  0  0  0  0
 37 38  1  0  0  0  0
 39 38  1  0  0  0  0
 40 39  1  0  0  0  0
 40 61  1  0  0  0  0
 41 40  1  0  0  0  0
 42 44  2  0  0  0  0
 43 44  1  0  0  0  0
 44 41  1  0  0  0  0
 45 43  1  0  0  0  0
 46 45  1  0  0  0  0
 46 42  1  0  0  0  0
 47 48  2  0  0  0  0
 48 46  1  0  0  0  0
 49 45  1  0  0  0  0
 51 54  1  0  0  0  0
 51 55  1  0  0  0  0
 52 49  1  0  0  0  0
 52 50  1  0  0  0  0
 53 50  1  0  0  0  0
 54 55  1  0  0  0  0
 54 53  1  0  0  0  0
 55 52  1  0  0  0  0
 56 58  2  0  0  0  0
 58 53  1  0  0  0  0
 58 57  2  0  0  0  0
 59 60  1  0  0  0  0
 60 58  1  0  0  0  0
 61 62  1  0  0  0  0
 62 63  2  0  0  0  0
 64 65  1  0  0  0  0
 65 62  1  0  0  0  0
M  END
>  <MODEL>
4

>  <REMARK>
 VINA RESULT:      -4.7      1.885      3.062
  Name = 
  21 active torsions:
  status: ('A' for Active; 'I' for Inactive)
    1  A    between atoms: N_8  and  C_44
    2  A    between atoms: C_9  and  N_35
    3  A    between atoms: C_11  and  C_34
    4  A    between atoms: S_12  and  N_24
    5  A    between atoms: S_12  and  C_57
    6  A    between atoms: C_14  and  C_16
    7  A    between atoms: C_18  and  N_27
    8  A    between atoms: C_20  and  C_42
    9  A    between atoms: C_20  and  C_44
   10  A    between atoms: O_21  and  C_42
   11  A    between atoms: C_23  and  C_45
   12  A    between atoms: C_23  and  C_48
   13  A    between atoms: C_26  and  C_44
   14  A    between atoms: C_26  and  C_48
   15  A    between atoms: N_27  and  C_52
   16  A    between atoms: C_29  and  N_58
   17  A    between atoms: C_34  and  C_47
   18  A    between atoms: C_39  and  C_62
   19  A    between atoms: O_41  and  C_60
   20  A    between atoms: C_45  and  C_47
   21  A    between atoms: C_54  and  C_59
                            x       y       z     vdW  Elec       q    Type
                         _______ _______ _______ _____ _____    ______ ____

>  <TORSDO>
F 21

$$$$
=
 OpenBabel10222421333D

 65 73  0  0  1  0  0  0  0  0999 V2000
  187.9600  177.6940  136.5940 C   0  0  2  0  0  3  0  0  0  0  0  0
  188.7200  176.8010  135.6100 C   0  0  2  0  0  3  0  0  0  0  0  0
  186.7240  177.0590  137.2380 C   0  0  2  0  0  3  0  0  0  0  0  0
  186.2720  177.2450  134.8820 C   0  0  0  0  0  2  0  0  0  0  0  0
  187.6780  177.8040  135.0990 C   0  0  1  0  0  3  0  0  0  0  0  0
  185.6000  177.2380  136.2350 C   0  0  0  0  0  2  0  0  0  0  0  0
  185.1360  178.2560  138.7980 C   0  0  0  0  0  3  0  0  0  0  0  0
  184.9450  178.8320  140.0380 C   0  0  0  0  0  0  0  0  0  0  0  0
  186.4110  177.6640  138.5860 C   0  0  0  0  0  0  0  0  0  0  0  0
  182.8270  178.5400  141.2400 C   0  0  1  0  0  3  0  0  0  0  0  0
  187.2030  178.3230  140.8700 C   0  0  0  0  0  3  0  0  0  0  0  0
  183.9730  179.5160  140.9380 C   0  0  1  0  0  3  0  0  0  0  0  0
  183.5480  178.3850  143.5780 C   0  0  0  0  0  3  0  0  0  0  0  0
  184.7740  178.8230  143.2540 C   0  0  0  0  0  0  0  0  0  0  0  0
  185.0270  179.5940  141.9660 C   0  0  1  0  0  3  0  0  0  0  0  0
  182.3780  178.6670  142.6860 C   0  0  0  0  0  2  0  0  0  0  0  0
  187.4230  177.7240  139.6060 C   0  0  0  0  0  3  0  0  0  0  0  0
  185.9440  178.8600  141.0440 C   0  0  0  0  0  0  0  0  0  0  0  0
  182.1330  176.9280  139.0090 O   0  0  0  0  0  0  0  0  0  0  0  0
  180.3130  178.2520  138.3880 N   0  0  0  0  0  2  0  0  0  0  0  0
  181.7120  178.7950  140.3430 N   0  0  0  0  0  2  0  0  0  0  0  0
  181.4180  177.9420  139.2370 C   0  0  0  0  0  0  0  0  0  0  0  0
  179.9840  177.4550  137.2150 C   0  0  1  0  0  3  0  0  0  0  0  0
  182.7470  176.3110  135.0170 O   0  0  0  0  0  1  0  0  0  0  0  0
  181.7020  176.4950  135.9130 C   0  0  0  0  0  0  0  0  0  0  0  0
  180.9710  177.7810  136.0860 C   0  0  1  0  0  3  0  0  0  0  0  0
  180.1970  176.0780  137.4950 O   0  0  0  0  0  0  0  0  0  0  0  0
  180.2300  178.0840  134.8730 N   0  0  0  0  0  1  0  0  0  0  0  0
  181.2220  175.5690  136.7220 C   0  0  0  0  0  0  0  0  0  0  0  0
  181.6510  174.2400  136.8330 O   0  0  0  0  0  0  0  0  0  0  0  0
  180.8940  173.2170  137.4620 C   0  0  0  0  0  1  0  0  0  0  0  0
  185.6470  179.1520  145.4840 N   0  0  0  0  0  1  0  0  0  0  0  0
  185.9170  178.5630  144.1840 C   0  0  0  0  0  2  0  0  0  0  0  0
  188.2730  175.3330  135.5480 C   0  0  0  0  0  2  0  0  0  0  0  0
  189.4730  174.3980  135.5560 C   0  0  0  0  0  2  0  0  0  0  0  0
  190.3700  174.6250  134.3480 C   0  0  0  0  0  2  0  0  0  0  0  0
  191.8440  174.6170  134.7330 C   0  0  0  0  0  2  0  0  0  0  0  0
  192.1950  173.4070  135.5880 C   0  0  0  0  0  2  0  0  0  0  0  0
  193.3100  173.7620  136.5700 C   0  0  0  0  0  2  0  0  0  0  0  0
  194.0680  175.0250  136.1700 C   0  0  1  0  0  3  0  0  0  0  0  0
  194.4790  175.7810  137.3490 N   0  0  0  0  0  2  0  0  0  0  0  0
  192.2930  175.9340  138.2610 N   0  0  0  0  0  0  0  0  0  0  0  0
  194.0740  177.1360  139.7670 S   0  0  0  0  0  0  0  0  0  0  0  0
  193.5500  176.1990  138.3510 C   0  0  0  0  0  0  0  0  0  0  0  0
  192.3190  177.4300  140.1620 C   0  0  1  0  0  3  0  0  0  0  0  0
  191.4800  176.4380  139.3510 C   0  0  1  0  0  3  0  0  0  0  0  0
  190.1680  178.3530  138.4790 C   0  0  0  0  0  2  0  0  0  0  0  0
  190.2240  177.0670  138.8250 C   0  0  0  0  0  3  0  0  0  0  0  0
  192.1040  177.2160  141.5850 N   0  0  0  0  0  2  0  0  0  0  0  0
  190.5510  178.1890  143.1680 C   0  0  0  0  0  2  0  0  0  0  0  0
  190.5110  175.4370  143.1940 O   0  0  0  0  0  0  0  0  0  0  0  0
  190.6930  177.4320  141.8700 C   0  0  2  0  0  3  0  0  0  0  0  0
  189.5810  177.4790  143.9950 N   0  0  0  0  0  0  0  0  0  0  0  0
  189.3160  176.1660  143.3900 C   0  0  1  0  0  3  0  0  0  0  0  0
  189.9830  176.1050  142.0710 C   0  0  2  0  0  3  0  0  0  0  0  0
  190.4250  175.8240  145.9090 O   0  0  0  0  0  0  0  0  0  0  0  0
  191.5830  177.9670  145.6600 O   0  0  0  0  0  0  0  0  0  0  0  0
  190.2460  177.2830  145.5910 S   0  0  0  0  0  0  0  0  0  0  0  0
  189.6710  177.8020  148.0820 O   0  0  0  0  0  1  0  0  0  0  0  0
  189.1620  178.0140  146.8010 C   0  0  0  0  0  2  0  0  0  0  0  0
  195.2710  174.6770  135.2980 C   0  0  0  0  0  2  0  0  0  0  0  0
  196.5380  175.1340  135.9380 C   0  0  0  0  0  0  0  0  0  0  0  0
  196.7950  176.3670  135.9990 O   0  0  0  0  0  0  0  0  0  0  0  0
  198.1110  174.4050  137.6790 C   0  0  0  0  0  1  0  0  0  0  0  0
  197.4210  174.1900  136.4570 O   0  0  0  0  0  0  0  0  0  0  0  0
  1  3  1  0  0  0  0
  2  1  1  0  0  0  0
  3  9  1  0  0  0  0
  4  5  1  0  0  0  0
  4  6  1  0  0  0  0
  5  2  1  0  0  0  0
  5  1  1  0  0  0  0
  6  3  1  0  0  0  0
  7  8  1  0  0  0  0
  8 12  1  0  0  0  0
  8 18  2  0  0  0  0
  9  7  2  0  0  0  0
  9 17  1  0  0  0  0
 10 16  1  0  0  0  0
 11 18  1  0  0  0  0
 12 10  1  0  0  0  0
 12 15  1  0  0  0  0
 14 13  2  0  0  0  0
 14 33  1  0  0  0  0
 15 14  1  0  0  0  0
 16 13  1  0  0  0  0
 17 11  2  0  0  0  0
 18 15  1  0  0  0  0
 19 22  2  0  0  0  0
 20 22  1  0  0  0  0
 21 10  1  0  0  0  0
 22 21  1  0  0  0  0
 23 27  1  0  0  0  0
 23 20  1  0  0  0  0
 24 25  1  0  0  0  0
 25 26  1  0  0  0  0
 25 29  2  0  0  0  0
 26 23  1  0  0  0  0
 28 26  1  0  0  0  0
 29 30  1  0  0  0  0
 29 27  1  0  0  0  0
 30 31  1  0  0  0  0
 33 32  1  0  0  0  0
 34 35  1  0  0  0  0
 34  2  1  0  0  0  0
 36 37  1  0  0  0  0
 36 35  1  0  0  0  0
 37 38  1  0  0  0  0
 38 39  1  0  0  0  0
 40 39  1  0  0  0  0
 40 41  1  0  0  0  0
 41 44  1  0  0  0  0
 42 44  2  0  0  0  0
 42 46  1  0  0  0  0
 43 45  1  0  0  0  0
 44 43  1  0  0  0  0
 45 49  1  0  0  0  0
 46 45  1  0  0  0  0
 47 48  2  0  0  0  0
 48 46  1  0  0  0  0
 49 52  1  0  0  0  0
 50 53  1  0  0  0  0
 51 54  1  0  0  0  0
 52 55  1  0  0  0  0
 52 50  1  0  0  0  0
 53 58  1  0  0  0  0
 54 53  1  0  0  0  0
 55 51  1  0  0  0  0
 55 54  1  0  0  0  0
 58 57  2  0  0  0  0
 58 56  2  0  0  0  0
 58 60  1  0  0  0  0
 60 59  1  0  0  0  0
 61 62  1  0  0  0  0
 61 40  1  0  0  0  0
 62 63  2  0  0  0  0
 62 65  1  0  0  0  0
 65 64  1  0  0  0  0
M  END
>  <MODEL>
5

>  <REMARK>
 VINA RESULT:      -4.2      3.016     12.056
  Name = 
  21 active torsions:
  status: ('A' for Active; 'I' for Inactive)
    1  A    between atoms: N_8  and  C_44
    2  A    between atoms: C_9  and  N_35
    3  A    between atoms: C_11  and  C_34
    4  A    between atoms: S_12  and  N_24
    5  A    between atoms: S_12  and  C_57
    6  A    between atoms: C_14  and  C_16
    7  A    between atoms: C_18  and  N_27
    8  A    between atoms: C_20  and  C_42
    9  A    between atoms: C_20  and  C_44
   10  A    between atoms: O_21  and  C_42
   11  A    between atoms: C_23  and  C_45
   12  A    between atoms: C_23  and  C_48
   13  A    between atoms: C_26  and  C_44
   14  A    between atoms: C_26  and  C_48
   15  A    between atoms: N_27  and  C_52
   16  A    between atoms: C_29  and  N_58
   17  A    between atoms: C_34  and  C_47
   18  A    between atoms: C_39  and  C_62
   19  A    between atoms: O_41  and  C_60
   20  A    between atoms: C_45  and  C_47
   21  A    between atoms: C_54  and  C_59
                            x       y       z     vdW  Elec       q    Type
                         _______ _______ _______ _____ _____    ______ ____

>  <TORSDO>
F 21

$$$$
=
 OpenBabel10222421333D

 65 73  0  0  1  0  0  0  0  0999 V2000
  188.2570  177.7110  140.4310 C   0  0  2  0  0  3  0  0  0  0  0  0
  187.8560  178.3760  139.1110 C   0  0  2  0  0  3  0  0  0  0  0  0
  189.7630  177.5450  140.6520 C   0  0  2  0  0  3  0  0  0  0  0  0
  189.1730  176.1690  138.7690 C   0  0  0  0  0  2  0  0  0  0  0  0
  187.8840  176.8460  139.2320 C   0  0  1  0  0  3  0  0  0  0  0  0
  190.1500  176.2760  139.9170 C   0  0  0  0  0  2  0  0  0  0  0  0
  189.2330  178.0880  143.0630 C   0  0  0  0  0  3  0  0  0  0  0  0
  189.6560  178.0580  144.3770 C   0  0  0  0  0  0  0  0  0  0  0  0
  190.1220  177.5070  142.1190 C   0  0  0  0  0  0  0  0  0  0  0  0
  188.0890  177.5130  146.1830 C   0  0  1  0  0  3  0  0  0  0  0  0
  191.8030  176.9590  143.8950 C   0  0  0  0  0  3  0  0  0  0  0  0
  189.2980  178.3740  145.7900 C   0  0  1  0  0  3  0  0  0  0  0  0
  189.4820  176.2300  147.7400 C   0  0  0  0  0  3  0  0  0  0  0  0
  190.5960  176.6160  147.0980 C   0  0  0  0  0  0  0  0  0  0  0  0
  190.6120  177.8480  146.2060 C   0  0  1  0  0  3  0  0  0  0  0  0
  188.2180  177.0240  147.6160 C   0  0  0  0  0  2  0  0  0  0  0  0
  191.3910  176.9760  142.5400 C   0  0  0  0  0  3  0  0  0  0  0  0
  190.8980  177.5070  144.7810 C   0  0  0  0  0  0  0  0  0  0  0  0
  186.9580  178.2660  143.6900 O   0  0  0  0  0  0  0  0  0  0  0  0
  185.1460  179.3860  144.6440 N   0  0  0  0  0  2  0  0  0  0  0  0
  186.8640  178.2790  146.0210 N   0  0  0  0  0  2  0  0  0  0  0  0
  186.3500  178.6240  144.7360 C   0  0  0  0  0  0  0  0  0  0  0  0
  184.5900  179.8150  143.3700 C   0  0  1  0  0  3  0  0  0  0  0  0
  183.3820  177.2250  141.0020 O   0  0  0  0  0  1  0  0  0  0  0  0
  183.5860  178.2430  141.9240 C   0  0  0  0  0  0  0  0  0  0  0  0
  184.9270  178.7750  142.2920 C   0  0  1  0  0  3  0  0  0  0  0  0
  183.1700  179.8140  143.4410 O   0  0  0  0  0  0  0  0  0  0  0  0
  185.5140  179.4470  141.1450 N   0  0  0  0  0  1  0  0  0  0  0  0
  182.6330  178.8670  142.5920 C   0  0  0  0  0  0  0  0  0  0  0  0
  181.2530  178.6440  142.5010 O   0  0  0  0  0  0  0  0  0  0  0  0
  180.3600  179.5030  141.8100 C   0  0  0  0  0  1  0  0  0  0  0  0
  191.7770  175.0210  148.4790 N   0  0  0  0  0  1  0  0  0  0  0  0
  191.8550  175.8270  147.2730 C   0  0  0  0  0  2  0  0  0  0  0  0
  189.0030  178.9680  138.2790 C   0  0  0  0  0  2  0  0  0  0  0  0
  188.5690  179.1890  136.8370 C   0  0  0  0  0  2  0  0  0  0  0  0
  189.4880  178.4740  135.8580 C   0  0  0  0  0  2  0  0  0  0  0  0
  189.8120  177.0600  136.3220 C   0  0  0  0  0  2  0  0  0  0  0  0
  190.9640  176.4570  135.5290 C   0  0  0  0  0  2  0  0  0  0  0  0
  191.4420  175.1670  136.1920 C   0  0  0  0  0  2  0  0  0  0  0  0
  191.0150  173.9180  135.4260 C   0  0  1  0  0  3  0  0  0  0  0  0
  189.6850  174.0900  134.8490 N   0  0  0  0  0  2  0  0  0  0  0  0
  188.7770  172.1420  135.8560 N   0  0  0  0  0  0  0  0  0  0  0  0
  187.0120  173.3960  134.3740 S   0  0  0  0  0  0  0  0  0  0  0  0
  188.6180  173.1750  135.1050 C   0  0  0  0  0  0  0  0  0  0  0  0
  186.5700  171.7270  134.9570 C   0  0  1  0  0  3  0  0  0  0  0  0
  187.6030  171.3040  136.0060 C   0  0  1  0  0  3  0  0  0  0  0  0
  187.6000  169.1220  134.8270 C   0  0  0  0  0  2  0  0  0  0  0  0
  187.9690  169.8550  135.8780 C   0  0  0  0  0  3  0  0  0  0  0  0
  185.2430  171.7630  135.5530 N   0  0  0  0  0  2  0  0  0  0  0  0
  183.8960  173.7680  135.3700 C   0  0  0  0  0  2  0  0  0  0  0  0
  182.3780  171.4770  135.5210 O   0  0  0  0  0  0  0  0  0  0  0  0
  184.3670  172.5170  134.6680 C   0  0  2  0  0  3  0  0  0  0  0  0
  182.4460  173.8400  135.2280 N   0  0  0  0  0  0  0  0  0  0  0  0
  181.9580  172.5540  134.7100 C   0  0  1  0  0  3  0  0  0  0  0  0
  183.1190  171.7130  134.3470 C   0  0  2  0  0  3  0  0  0  0  0  0
  180.5830  173.2470  137.0420 O   0  0  0  0  0  0  0  0  0  0  0  0
  182.7860  173.9420  137.8530 O   0  0  0  0  0  0  0  0  0  0  0  0
  181.7480  174.1630  136.7890 S   0  0  0  0  0  0  0  0  0  0  0  0
  181.4030  176.4820  135.6460 O   0  0  0  0  0  1  0  0  0  0  0  0
  181.1880  175.8530  136.8720 C   0  0  0  0  0  2  0  0  0  0  0  0
  192.0370  173.5730  134.3460 C   0  0  0  0  0  2  0  0  0  0  0  0
  193.4110  173.5080  134.9190 C   0  0  0  0  0  0  0  0  0  0  0  0
  194.3070  174.2790  134.4780 O   0  0  0  0  0  0  0  0  0  0  0  0
  193.4580  171.2020  135.7680 C   0  0  0  0  0  1  0  0  0  0  0  0
  193.6870  172.5930  135.9330 O   0  0  0  0  0  0  0  0  0  0  0  0
  1  3  1  0  0  0  0
  2  5  1  0  0  0  0
  2  1  1  0  0  0  0
  3  9  1  0  0  0  0
  4  5  1  0  0  0  0
  4  6  1  0  0  0  0
  5  1  1  0  0  0  0
  6  3  1  0  0  0  0
  7  8  1  0  0  0  0
  8 18  2  0  0  0  0
  8 12  1  0  0  0  0
  9 17  1  0  0  0  0
  9  7  2  0  0  0  0
 10 16  1  0  0  0  0
 11 18  1  0  0  0  0
 12 10  1  0  0  0  0
 12 15  1  0  0  0  0
 14 33  1  0  0  0  0
 14 13  2  0  0  0  0
 15 14  1  0  0  0  0
 16 13  1  0  0  0  0
 17 11  2  0  0  0  0
 18 15  1  0  0  0  0
 19 22  2  0  0  0  0
 20 22  1  0  0  0  0
 21 10  1  0  0  0  0
 22 21  1  0  0  0  0
 23 27  1  0  0  0  0
 23 20  1  0  0  0  0
 24 25  1  0  0  0  0
 25 26  1  0  0  0  0
 25 29  2  0  0  0  0
 26 23  1  0  0  0  0
 28 26  1  0  0  0  0
 29 27  1  0  0  0  0
 30 29  1  0  0  0  0
 31 30  1  0  0  0  0
 33 32  1  0  0  0  0
 34  2  1  0  0  0  0
 35 34  1  0  0  0  0
 36 37  1  0  0  0  0
 36 35  1  0  0  0  0
 38 39  1  0  0  0  0
 38 37  1  0  0  0  0
 40 39  1  0  0  0  0
 41 44  1  0  0  0  0
 41 40  1  0  0  0  0
 42 46  1  0  0  0  0
 43 45  1  0  0  0  0
 43 44  1  0  0  0  0
 44 42  2  0  0  0  0
 45 49  1  0  0  0  0
 45 46  1  0  0  0  0
 47 48  2  0  0  0  0
 48 46  1  0  0  0  0
 52 50  1  0  0  0  0
 52 49  1  0  0  0  0
 53 50  1  0  0  0  0
 53 58  1  0  0  0  0
 54 53  1  0  0  0  0
 54 51  1  0  0  0  0
 55 52  1  0  0  0  0
 55 54  1  0  0  0  0
 55 51  1  0  0  0  0
 58 60  1  0  0  0  0
 58 56  2  0  0  0  0
 58 57  2  0  0  0  0
 59 60  1  0  0  0  0
 61 62  1  0  0  0  0
 61 40  1  0  0  0  0
 62 65  1  0  0  0  0
 63 62  2  0  0  0  0
 64 65  1  0  0  0  0
M  END
>  <MODEL>
6

>  <REMARK>
 VINA RESULT:      -3.6      3.130     11.344
  Name = 
  21 active torsions:
  status: ('A' for Active; 'I' for Inactive)
    1  A    between atoms: N_8  and  C_44
    2  A    between atoms: C_9  and  N_35
    3  A    between atoms: C_11  and  C_34
    4  A    between atoms: S_12  and  N_24
    5  A    between atoms: S_12  and  C_57
    6  A    between atoms: C_14  and  C_16
    7  A    between atoms: C_18  and  N_27
    8  A    between atoms: C_20  and  C_42
    9  A    between atoms: C_20  and  C_44
   10  A    between atoms: O_21  and  C_42
   11  A    between atoms: C_23  and  C_45
   12  A    between atoms: C_23  and  C_48
   13  A    between atoms: C_26  and  C_44
   14  A    between atoms: C_26  and  C_48
   15  A    between atoms: N_27  and  C_52
   16  A    between atoms: C_29  and  N_58
   17  A    between atoms: C_34  and  C_47
   18  A    between atoms: C_39  and  C_62
   19  A    between atoms: O_41  and  C_60
   20  A    between atoms: C_45  and  C_47
   21  A    between atoms: C_54  and  C_59
                            x       y       z     vdW  Elec       q    Type
                         _______ _______ _______ _____ _____    ______ ____

>  <TORSDO>
F 21

$$$$
