=
 OpenBabel10232407453D

 63 68  0  0  1  0  0  0  0  0999 V2000
  188.1160  177.9980  142.2140 N   0  0  0  0  0  0  0  0  0  0  0  0
  187.5990  177.7760  143.4080 C   0  0  0  0  0  0  0  0  0  0  0  0
  190.8210  176.9260  146.2100 C   0  0  0  0  0  0  0  0  0  0  0  0
  188.6720  177.1430  144.3310 C   0  0  0  0  0  0  0  0  0  0  0  0
  188.5010  177.3230  145.7190 C   0  0  0  0  0  3  0  0  0  0  0  0
  189.5350  177.2410  146.6310 C   0  0  0  0  0  3  0  0  0  0  0  0
  189.9690  176.7390  143.9120 C   0  0  0  0  0  3  0  0  0  0  0  0
  191.0310  176.6050  144.8730 C   0  0  0  0  0  3  0  0  0  0  0  0
  191.8810  176.8920  147.1300 O   0  0  0  0  0  1  0  0  0  0  0  0
  186.1840  178.1980  143.7060 C   0  0  0  0  0  0  0  0  0  0  0  0
  185.9120  179.0220  144.6330 O   0  0  0  0  0  0  0  0  0  0  0  0
  185.0320  177.6920  142.9760 C   0  0  0  0  0  3  0  0  0  0  0  0
  184.5440  178.3400  141.9150 C   0  0  0  0  0  0  0  0  0  0  0  0
  184.0070  178.9780  140.8420 C   0  0  0  0  0  3  0  0  0  0  0  0
  183.2940  178.1990  139.8010 C   0  0  0  0  0  0  0  0  0  0  0  0
  182.6180  175.9010  138.9950 C   0  0  0  0  0  2  0  0  0  0  0  0
  181.6760  176.5670  138.0850 N   0  0  0  0  0  0  0  0  0  0  0  0
  183.3550  176.8880  139.8820 C   0  0  0  0  0  3  0  0  0  0  0  0
  180.9090  175.6040  137.3600 C   0  0  0  0  0  0  0  0  0  0  0  0
  182.4410  178.8480  138.7130 C   0  0  0  0  0  0  0  0  0  0  0  0
  181.5950  178.0420  137.9800 C   0  0  0  0  0  0  0  0  0  0  0  0
  182.4060  180.3030  138.6240 C   0  0  0  0  0  1  0  0  0  0  0  0
  179.9820  176.0170  136.5940 O   0  0  0  0  0  0  0  0  0  0  0  0
  179.9840  179.8240  137.0080 C   0  0  0  0  0  1  0  0  0  0  0  0
  181.6390  178.7960  135.4960 C   0  0  0  0  0  1  0  0  0  0  0  0
  180.8260  178.5990  136.7350 C   0  0  0  0  0  3  0  0  0  0  0  0
  181.0510  174.0990  137.4760 C   0  0  0  0  0  0  0  0  0  0  0  0
  180.3070  173.4890  138.2810 O   0  0  0  0  0  0  0  0  0  0  0  0
  182.0440  171.8740  136.6910 C   0  0  0  0  0  3  0  0  0  0  0  0
  182.9340  169.7540  135.8750 N   0  0  0  0  0  1  0  0  0  0  0  0
  183.8960  171.8460  135.1580 C   0  0  0  0  0  3  0  0  0  0  0  0
  183.9100  173.2340  135.1030 C   0  0  0  0  0  3  0  0  0  0  0  0
  182.9460  171.1590  135.9220 C   0  0  0  0  0  0  0  0  0  0  0  0
  182.9900  173.9600  135.8550 C   0  0  0  0  0  3  0  0  0  0  0  0
  182.0350  173.2870  136.6620 C   0  0  0  0  0  0  0  0  0  0  0  0
  187.8260  178.7340  140.9470 C   0  0  0  0  0  2  0  0  0  0  0  0
  188.0950  177.4080  137.3500 C   0  0  0  0  0  3  0  0  0  0  0  0
  188.3150  177.8750  139.7480 C   0  0  0  0  0  0  0  0  0  0  0  0
  189.3200  176.8250  137.3810 C   0  0  0  0  0  3  0  0  0  0  0  0
  186.2790  178.2730  138.4860 F   0  0  0  0  0  0  0  0  0  0  0  0
  190.0170  176.6170  138.5570 C   0  0  0  0  0  0  0  0  0  0  0  0
  189.5220  177.1830  139.7370 C   0  0  0  0  0  3  0  0  0  0  0  0
  187.5820  177.9070  138.5810 C   0  0  0  0  0  0  0  0  0  0  0  0
  191.6490  174.6860  137.8580 C   0  0  2  0  0  3  0  0  0  0  0  0
  191.2490  175.9710  138.4850 N   0  0  0  0  0  0  0  0  0  0  0  0
  192.7760  175.1110  137.1100 N   0  0  1  0  0  0  0  0  0  0  0  0
  190.6290  173.9680  136.9310 C   0  0  0  0  0  1  0  0  0  0  0  0
  192.4530  176.8200  138.6510 C   0  0  0  0  0  2  0  0  0  0  0  0
  193.4950  176.1020  137.8930 C   0  0  0  0  0  2  0  0  0  0  0  0
  193.5880  174.0180  136.6710 C   0  0  1  0  0  3  0  0  0  0  0  0
  194.9460  174.2930  137.4070 C   0  0  1  0  0  3  0  0  0  0  0  0
  194.1970  173.1550  137.6610 O   0  0  0  0  0  0  0  0  0  0  0  0
  196.0460  175.0470  135.1590 O   0  0  0  0  0  1  0  0  0  0  0  0
  196.1440  174.1840  136.3410 C   0  0  2  0  0  3  0  0  0  0  0  0
  196.6350  172.7540  135.9170 C   0  0  0  0  0  2  0  0  0  0  0  0
  198.7300  171.7250  136.0960 O   0  0  0  0  0  1  0  0  0  0  0  0
  197.5780  172.0340  136.8560 C   0  0  2  0  0  3  0  0  0  0  0  0
  196.8680  170.7510  137.2510 C   0  0  0  0  0  2  0  0  0  0  0  0
  196.1740  168.4700  135.4640 O   0  0  0  0  0  0  0  0  0  0  0  0
  197.6370  169.5500  136.9520 N   0  0  0  0  0  0  0  0  0  0  0  0
  198.5210  169.0760  138.0000 C   0  0  0  0  0  1  0  0  0  0  0  0
  197.3460  168.7110  135.8250 C   0  0  0  0  0  0  0  0  0  0  0  0
  198.4600  168.2260  135.0040 C   0  0  0  0  0  1  0  0  0  0  0  0
  1  2  2  0  0  0  0
  2 10  1  0  0  0  0
  2  4  1  0  0  0  0
  3  6  1  0  0  0  0
  3  9  1  0  0  0  0
  4  5  1  0  0  0  0
  5  6  2  0  0  0  0
  7  4  2  0  0  0  0
  7  8  1  0  0  0  0
  8  3  2  0  0  0  0
 10 11  2  0  0  0  0
 12 10  1  0  0  0  0
 13 12  2  0  0  0  0
 14 13  2  0  0  0  0
 15 18  2  0  0  0  0
 15 14  1  0  0  0  0
 16 18  1  0  0  0  0
 17 16  1  0  0  0  0
 19 27  1  0  0  0  0
 19 17  1  0  0  0  0
 20 15  1  0  0  0  0
 21 17  1  0  0  0  0
 21 20  2  0  0  0  0
 22 20  1  0  0  0  0
 23 19  2  0  0  0  0
 25 26  1  0  0  0  0
 26 24  1  0  0  0  0
 26 21  1  0  0  0  0
 27 28  2  0  0  0  0
 30 33  1  0  0  0  0
 31 33  1  0  0  0  0
 32 31  2  0  0  0  0
 32 34  1  0  0  0  0
 33 29  2  0  0  0  0
 34 35  2  0  0  0  0
 35 29  1  0  0  0  0
 35 27  1  0  0  0  0
 36  1  1  0  0  0  0
 37 39  2  0  0  0  0
 37 43  1  0  0  0  0
 38 36  1  0  0  0  0
 39 41  1  0  0  0  0
 40 43  1  0  0  0  0
 41 42  2  0  0  0  0
 42 38  1  0  0  0  0
 43 38  2  0  0  0  0
 44 47  1  6  0  0  0
 44 45  1  0  0  0  0
 45 41  1  0  0  0  0
 45 48  1  0  0  0  0
 46 44  1  0  0  0  0
 46 49  1  1  0  0  0
 49 48  1  0  0  0  0
 50 46  1  0  0  0  0
 50 51  1  0  0  0  0
 50 52  1  1  0  0  0
 51 54  1  6  0  0  0
 51 52  1  0  0  0  0
 54 53  1  6  0  0  0
 55 54  1  0  0  0  0
 55 57  1  0  0  0  0
 57 56  1  6  0  0  0
 57 58  1  0  0  0  0
 59 62  2  0  0  0  0
 60 58  1  0  0  0  0
 60 61  1  0  0  0  0
 62 60  1  0  0  0  0
 63 62  1  0  0  0  0
M  END
>  <MODEL>
1

>  <REMARK>
 VINA RESULT:      -7.7      0.000      0.000
  Name = 
  16 active torsions:
  status: ('A' for Active; 'I' for Inactive)
    1  A    between atoms: C_1  and  C_47
    2  A    between atoms: C_3  and  C_39
    3  A    between atoms: C_3  and  C_54
    4  A    between atoms: C_6  and  C_16
    5  A    between atoms: N_7  and  C_59
    6  A    between atoms: C_12  and  N_24
    7  A    between atoms: C_12  and  C_46
    8  A    between atoms: N_15  and  C_25
    9  A    between atoms: C_16  and  C_42
   10  A    between atoms: C_17  and  C_42
   11  A    between atoms: C_19  and  N_26
   12  A    between atoms: C_20  and  C_31
   13  A    between atoms: C_20  and  C_46
   14  A    between atoms: C_25  and  C_32
   15  A    between atoms: C_27  and  C_31
   16  A    between atoms: C_49  and  C_60
                            x       y       z     vdW  Elec       q    Type
                         _______ _______ _______ _____ _____    ______ ____

>  <TORSDO>
F 16

$$$$
=
 OpenBabel10232407453D

 63 68  0  0  1  0  0  0  0  0999 V2000
  181.6580  178.1510  137.0780 N   0  0  0  0  0  0  0  0  0  0  0  0
  181.6820  178.5560  138.3330 C   0  0  0  0  0  0  0  0  0  0  0  0
  181.3830  182.8290  137.5560 C   0  0  0  0  0  0  0  0  0  0  0  0
  181.4810  180.0920  138.3900 C   0  0  0  0  0  0  0  0  0  0  0  0
  180.4280  180.6230  137.6160 C   0  0  0  0  0  3  0  0  0  0  0  0
  180.3820  181.9360  137.1910 C   0  0  0  0  0  3  0  0  0  0  0  0
  182.4580  181.0250  138.8320 C   0  0  0  0  0  3  0  0  0  0  0  0
  182.3780  182.4030  138.4290 C   0  0  0  0  0  3  0  0  0  0  0  0
  181.3620  184.1510  137.0830 O   0  0  0  0  0  1  0  0  0  0  0  0
  181.8170  177.5500  139.4470 C   0  0  0  0  0  0  0  0  0  0  0  0
  180.8120  176.9350  139.9200 O   0  0  0  0  0  0  0  0  0  0  0  0
  183.0890  177.2180  140.0690 C   0  0  0  0  0  3  0  0  0  0  0  0
  183.7600  178.1140  140.7990 C   0  0  0  0  0  0  0  0  0  0  0  0
  184.4800  179.0010  141.5340 C   0  0  0  0  0  3  0  0  0  0  0  0
  185.3820  178.5130  142.6050 C   0  0  0  0  0  0  0  0  0  0  0  0
  187.6150  177.4630  143.1490 C   0  0  0  0  0  2  0  0  0  0  0  0
  187.3840  177.8490  144.5480 N   0  0  0  0  0  0  0  0  0  0  0  0
  186.5030  177.9370  142.2310 C   0  0  0  0  0  3  0  0  0  0  0  0
  188.5080  177.5020  145.3590 C   0  0  0  0  0  0  0  0  0  0  0  0
  185.1030  178.7260  144.0910 C   0  0  0  0  0  0  0  0  0  0  0  0
  186.1270  178.4970  144.9870 C   0  0  0  0  0  0  0  0  0  0  0  0
  183.8430  179.3440  144.4870 C   0  0  0  0  0  1  0  0  0  0  0  0
  188.5060  177.8510  146.5820 O   0  0  0  0  0  0  0  0  0  0  0  0
  186.0940  179.8610  147.1900 C   0  0  0  0  0  1  0  0  0  0  0  0
  184.5760  177.9270  146.9890 C   0  0  0  0  0  1  0  0  0  0  0  0
  185.8700  178.5200  146.5310 C   0  0  0  0  0  3  0  0  0  0  0  0
  189.7630  176.8070  144.8710 C   0  0  0  0  0  0  0  0  0  0  0  0
  190.3010  175.9530  145.6150 O   0  0  0  0  0  0  0  0  0  0  0  0
  189.9640  176.4300  142.3460 C   0  0  0  0  0  3  0  0  0  0  0  0
  190.0990  176.1360  139.9280 N   0  0  0  0  0  1  0  0  0  0  0  0
  191.6360  177.5990  141.0740 C   0  0  0  0  0  3  0  0  0  0  0  0
  192.0840  178.2570  142.2130 C   0  0  0  0  0  3  0  0  0  0  0  0
  190.5560  176.7110  141.1270 C   0  0  0  0  0  0  0  0  0  0  0  0
  191.4780  177.9980  143.4400 C   0  0  0  0  0  3  0  0  0  0  0  0
  190.4000  177.0770  143.5240 C   0  0  0  0  0  0  0  0  0  0  0  0
  181.5560  176.9000  136.2680 C   0  0  0  0  0  2  0  0  0  0  0  0
  183.4730  173.7730  137.4130 C   0  0  0  0  0  3  0  0  0  0  0  0
  182.7580  175.9800  136.6170 C   0  0  0  0  0  0  0  0  0  0  0  0
  184.6910  174.0000  136.8590 C   0  0  0  0  0  3  0  0  0  0  0  0
  181.4100  174.5780  138.0700 F   0  0  0  0  0  0  0  0  0  0  0  0
  185.0430  175.2160  136.3060 C   0  0  0  0  0  0  0  0  0  0  0  0
  184.0530  176.1940  136.1510 C   0  0  0  0  0  3  0  0  0  0  0  0
  182.5090  174.8150  137.3090 C   0  0  0  0  0  0  0  0  0  0  0  0
  187.4910  176.1580  136.2790 C   0  0  2  0  0  3  0  0  0  0  0  0
  186.3340  175.3600  135.8010 N   0  0  0  0  0  0  0  0  0  0  0  0
  188.5030  175.1660  136.2690 N   0  0  1  0  0  0  0  0  0  0  0  0
  187.4020  176.8210  137.6810 C   0  0  0  0  0  1  0  0  0  0  0  0
  186.8290  174.2700  134.9280 C   0  0  0  0  0  2  0  0  0  0  0  0
  188.2920  174.3130  135.1110 C   0  0  0  0  0  2  0  0  0  0  0  0
  189.8180  175.7220  136.3490 C   0  0  1  0  0  3  0  0  0  0  0  0
  190.1870  175.9250  134.8370 C   0  0  1  0  0  3  0  0  0  0  0  0
  190.0810  176.9950  135.7120 O   0  0  0  0  0  0  0  0  0  0  0  0
  191.7510  173.8460  134.5770 O   0  0  0  0  0  1  0  0  0  0  0  0
  191.6490  175.3100  134.5740 C   0  0  2  0  0  3  0  0  0  0  0  0
  192.8680  175.9300  135.3460 C   0  0  0  0  0  2  0  0  0  0  0  0
  193.0080  175.1720  137.5560 O   0  0  0  0  0  1  0  0  0  0  0  0
  193.6260  175.0260  136.2930 C   0  0  2  0  0  3  0  0  0  0  0  0
  195.0390  175.5790  136.3500 C   0  0  0  0  0  2  0  0  0  0  0  0
  197.9330  175.4810  137.0530 O   0  0  0  0  0  0  0  0  0  0  0  0
  196.0530  174.6170  135.9390 N   0  0  0  0  0  0  0  0  0  0  0  0
  195.8620  173.9960  134.6430 C   0  0  0  0  0  1  0  0  0  0  0  0
  197.3110  174.4880  136.6170 C   0  0  0  0  0  0  0  0  0  0  0  0
  197.8160  173.1430  136.9130 C   0  0  0  0  0  1  0  0  0  0  0  0
  1  2  2  0  0  0  0
  2  4  1  0  0  0  0
  2 10  1  0  0  0  0
  3  8  1  0  0  0  0
  4  7  1  0  0  0  0
  5  4  2  0  0  0  0
  6  3  2  0  0  0  0
  6  5  1  0  0  0  0
  8  7  2  0  0  0  0
  9  3  1  0  0  0  0
 10 11  2  0  0  0  0
 10 12  1  0  0  0  0
 12 13  2  0  0  0  0
 13 14  2  0  0  0  0
 14 15  1  0  0  0  0
 15 20  1  0  0  0  0
 16 17  1  0  0  0  0
 17 21  1  0  0  0  0
 17 19  1  0  0  0  0
 18 15  2  0  0  0  0
 18 16  1  0  0  0  0
 19 23  2  0  0  0  0
 20 22  1  0  0  0  0
 20 21  2  0  0  0  0
 21 26  1  0  0  0  0
 26 25  1  0  0  0  0
 26 24  1  0  0  0  0
 27 19  1  0  0  0  0
 27 28  2  0  0  0  0
 29 35  1  0  0  0  0
 30 33  1  0  0  0  0
 31 33  1  0  0  0  0
 31 32  2  0  0  0  0
 32 34  1  0  0  0  0
 33 29  2  0  0  0  0
 34 35  2  0  0  0  0
 35 27  1  0  0  0  0
 36 38  1  0  0  0  0
 36  1  1  0  0  0  0
 38 43  2  0  0  0  0
 39 37  2  0  0  0  0
 41 39  1  0  0  0  0
 42 41  2  0  0  0  0
 42 38  1  0  0  0  0
 43 37  1  0  0  0  0
 43 40  1  0  0  0  0
 44 47  1  1  0  0  0
 45 44  1  0  0  0  0
 45 41  1  0  0  0  0
 46 49  1  6  0  0  0
 46 44  1  0  0  0  0
 46 50  1  0  0  0  0
 48 49  1  0  0  0  0
 48 45  1  0  0  0  0
 50 52  1  1  0  0  0
 51 54  1  1  0  0  0
 51 52  1  0  0  0  0
 51 50  1  0  0  0  0
 54 53  1  1  0  0  0
 54 55  1  0  0  0  0
 55 57  1  0  0  0  0
 57 58  1  0  0  0  0
 57 56  1  1  0  0  0
 60 58  1  0  0  0  0
 60 62  1  0  0  0  0
 61 60  1  0  0  0  0
 62 63  1  0  0  0  0
 62 59  2  0  0  0  0
M  END
>  <MODEL>
2

>  <REMARK>
 VINA RESULT:      -7.2      2.687      8.462
  Name = 
  16 active torsions:
  status: ('A' for Active; 'I' for Inactive)
    1  A    between atoms: C_1  and  C_47
    2  A    between atoms: C_3  and  C_39
    3  A    between atoms: C_3  and  C_54
    4  A    between atoms: C_6  and  C_16
    5  A    between atoms: N_7  and  C_59
    6  A    between atoms: C_12  and  N_24
    7  A    between atoms: C_12  and  C_46
    8  A    between atoms: N_15  and  C_25
    9  A    between atoms: C_16  and  C_42
   10  A    between atoms: C_17  and  C_42
   11  A    between atoms: C_19  and  N_26
   12  A    between atoms: C_20  and  C_31
   13  A    between atoms: C_20  and  C_46
   14  A    between atoms: C_25  and  C_32
   15  A    between atoms: C_27  and  C_31
   16  A    between atoms: C_49  and  C_60
                            x       y       z     vdW  Elec       q    Type
                         _______ _______ _______ _____ _____    ______ ____

>  <TORSDO>
F 16

$$$$
=
 OpenBabel10232407453D

 63 68  0  0  1  0  0  0  0  0999 V2000
  181.7760  178.1120  136.4120 N   0  0  0  0  0  0  0  0  0  0  0  0
  181.6470  178.4240  137.6880 C   0  0  0  0  0  0  0  0  0  0  0  0
  181.0240  182.7090  137.2360 C   0  0  0  0  0  0  0  0  0  0  0  0
  181.2460  179.9150  137.8220 C   0  0  0  0  0  0  0  0  0  0  0  0
  180.3720  180.4280  136.8400 C   0  0  0  0  0  3  0  0  0  0  0  0
  180.2740  181.7720  136.5360 C   0  0  0  0  0  3  0  0  0  0  0  0
  181.9500  180.8810  138.5930 C   0  0  0  0  0  3  0  0  0  0  0  0
  181.8040  182.2830  138.3060 C   0  0  0  0  0  3  0  0  0  0  0  0
  180.9610  184.0690  136.8930 O   0  0  0  0  0  1  0  0  0  0  0  0
  181.8200  177.3640  138.7440 C   0  0  0  0  0  0  0  0  0  0  0  0
  180.8430  176.6700  139.1630 O   0  0  0  0  0  0  0  0  0  0  0  0
  183.0990  177.0650  139.3680 C   0  0  0  0  0  3  0  0  0  0  0  0
  183.8320  178.0230  139.9430 C   0  0  0  0  0  0  0  0  0  0  0  0
  184.6140  178.9710  140.5220 C   0  0  0  0  0  3  0  0  0  0  0  0
  185.5340  178.5970  141.6240 C   0  0  0  0  0  0  0  0  0  0  0  0
  187.9280  178.1520  142.2970 C   0  0  0  0  0  2  0  0  0  0  0  0
  187.4840  178.2330  143.6950 N   0  0  0  0  0  0  0  0  0  0  0  0
  186.8010  178.4280  141.3180 C   0  0  0  0  0  3  0  0  0  0  0  0
  188.5930  178.0980  144.5850 C   0  0  0  0  0  0  0  0  0  0  0  0
  185.0880  178.4890  143.0800 C   0  0  0  0  0  0  0  0  0  0  0  0
  186.0600  178.4230  144.0570 C   0  0  0  0  0  0  0  0  0  0  0  0
  183.6740  178.6570  143.3960 C   0  0  0  0  0  1  0  0  0  0  0  0
  188.3910  178.2370  145.8330 O   0  0  0  0  0  0  0  0  0  0  0  0
  186.3740  176.9260  146.1480 C   0  0  0  0  0  1  0  0  0  0  0  0
  185.7730  179.2940  146.4860 C   0  0  0  0  0  1  0  0  0  0  0  0
  185.6880  178.1320  145.5500 C   0  0  0  0  0  3  0  0  0  0  0  0
  190.0320  177.8710  144.1690 C   0  0  0  0  0  0  0  0  0  0  0  0
  190.5250  178.6170  143.2900 O   0  0  0  0  0  0  0  0  0  0  0  0
  191.3600  176.8520  146.1070 C   0  0  0  0  0  3  0  0  0  0  0  0
  192.5540  175.8370  147.9760 N   0  0  0  0  0  1  0  0  0  0  0  0
  192.5700  174.7970  145.8010 C   0  0  0  0  0  3  0  0  0  0  0  0
  192.1460  174.7100  144.4800 C   0  0  0  0  0  3  0  0  0  0  0  0
  192.1540  175.8460  146.6290 C   0  0  0  0  0  0  0  0  0  0  0  0
  191.3270  175.7060  143.9550 C   0  0  0  0  0  3  0  0  0  0  0  0
  190.9160  176.7970  144.7670 C   0  0  0  0  0  0  0  0  0  0  0  0
  181.9000  176.9210  135.5200 C   0  0  0  0  0  2  0  0  0  0  0  0
  183.3660  173.6970  137.0130 C   0  0  0  0  0  3  0  0  0  0  0  0
  182.9460  175.9470  136.1300 C   0  0  0  0  0  0  0  0  0  0  0  0
  184.6900  173.8880  136.7880 C   0  0  0  0  0  3  0  0  0  0  0  0
  181.2320  174.5690  137.1580 F   0  0  0  0  0  0  0  0  0  0  0  0
  185.2090  175.1010  136.3770 C   0  0  0  0  0  0  0  0  0  0  0  0
  184.3220  176.1190  136.0090 C   0  0  0  0  0  3  0  0  0  0  0  0
  182.4930  174.7790  136.7030 C   0  0  0  0  0  0  0  0  0  0  0  0
  187.4770  176.3890  136.0960 C   0  0  2  0  0  3  0  0  0  0  0  0
  186.5890  175.2050  136.2150 N   0  0  0  0  0  0  0  0  0  0  0  0
  188.4620  176.0640  137.0630 N   0  0  1  0  0  0  0  0  0  0  0  0
  186.8800  177.7930  136.3890 C   0  0  0  0  0  1  0  0  0  0  0  0
  187.3970  174.0400  136.6480 C   0  0  0  0  0  2  0  0  0  0  0  0
  188.7000  174.6310  137.0050 C   0  0  0  0  0  2  0  0  0  0  0  0
  189.6460  176.8550  136.9290 C   0  0  1  0  0  3  0  0  0  0  0  0
  190.3200  176.2340  135.6560 C   0  0  1  0  0  3  0  0  0  0  0  0
  189.8870  177.5500  135.6830 O   0  0  0  0  0  0  0  0  0  0  0  0
  192.8320  176.3030  134.9340 O   0  0  0  0  0  1  0  0  0  0  0  0
  191.8680  175.9440  135.9790 C   0  0  2  0  0  3  0  0  0  0  0  0
  192.2500  174.5530  136.6010 C   0  0  0  0  0  2  0  0  0  0  0  0
  193.6880  175.8570  137.9110 O   0  0  0  0  0  1  0  0  0  0  0  0
  193.4300  174.5150  137.5490 C   0  0  2  0  0  3  0  0  0  0  0  0
  194.5930  173.9710  136.7390 C   0  0  0  0  0  2  0  0  0  0  0  0
  194.7670  171.1060  137.5370 O   0  0  0  0  0  0  0  0  0  0  0  0
  195.6010  173.3020  137.5520 N   0  0  0  0  0  0  0  0  0  0  0  0
  196.2530  174.1130  138.5610 C   0  0  0  0  0  1  0  0  0  0  0  0
  195.7510  171.8750  137.5710 C   0  0  0  0  0  0  0  0  0  0  0  0
  197.1020  171.3100  137.5030 C   0  0  0  0  0  1  0  0  0  0  0  0
  1  2  2  0  0  0  0
  2  4  1  0  0  0  0
  2 10  1  0  0  0  0
  3  8  1  0  0  0  0
  4  7  1  0  0  0  0
  5  4  2  0  0  0  0
  6  5  1  0  0  0  0
  6  3  2  0  0  0  0
  8  7  2  0  0  0  0
  9  3  1  0  0  0  0
 10 11  2  0  0  0  0
 10 12  1  0  0  0  0
 12 13  2  0  0  0  0
 13 14  2  0  0  0  0
 14 15  1  0  0  0  0
 15 20  1  0  0  0  0
 16 17  1  0  0  0  0
 17 21  1  0  0  0  0
 17 19  1  0  0  0  0
 18 15  2  0  0  0  0
 18 16  1  0  0  0  0
 19 23  2  0  0  0  0
 20 22  1  0  0  0  0
 20 21  2  0  0  0  0
 21 26  1  0  0  0  0
 26 24  1  0  0  0  0
 26 25  1  0  0  0  0
 27 19  1  0  0  0  0
 27 35  1  0  0  0  0
 28 27  2  0  0  0  0
 29 33  1  0  0  0  0
 31 33  2  0  0  0  0
 32 31  1  0  0  0  0
 33 30  1  0  0  0  0
 34 32  2  0  0  0  0
 34 35  1  0  0  0  0
 35 29  2  0  0  0  0
 36 38  1  0  0  0  0
 36  1  1  0  0  0  0
 38 43  1  0  0  0  0
 39 37  1  0  0  0  0
 41 39  2  0  0  0  0
 42 38  2  0  0  0  0
 42 41  1  0  0  0  0
 43 37  2  0  0  0  0
 43 40  1  0  0  0  0
 44 45  1  0  0  0  0
 44 47  1  1  0  0  0
 44 46  1  0  0  0  0
 45 41  1  0  0  0  0
 45 48  1  0  0  0  0
 46 49  1  6  0  0  0
 48 49  1  0  0  0  0
 50 52  1  6  0  0  0
 50 46  1  0  0  0  0
 51 52  1  0  0  0  0
 51 54  1  1  0  0  0
 51 50  1  0  0  0  0
 54 53  1  6  0  0  0
 54 55  1  0  0  0  0
 55 57  1  0  0  0  0
 57 56  1  6  0  0  0
 58 57  1  0  0  0  0
 58 60  1  0  0  0  0
 59 62  2  0  0  0  0
 60 62  1  0  0  0  0
 60 61  1  0  0  0  0
 63 62  1  0  0  0  0
M  END
>  <MODEL>
3

>  <REMARK>
 VINA RESULT:      -7.0      2.696      8.785
  Name = 
  16 active torsions:
  status: ('A' for Active; 'I' for Inactive)
    1  A    between atoms: C_1  and  C_47
    2  A    between atoms: C_3  and  C_39
    3  A    between atoms: C_3  and  C_54
    4  A    between atoms: C_6  and  C_16
    5  A    between atoms: N_7  and  C_59
    6  A    between atoms: C_12  and  N_24
    7  A    between atoms: C_12  and  C_46
    8  A    between atoms: N_15  and  C_25
    9  A    between atoms: C_16  and  C_42
   10  A    between atoms: C_17  and  C_42
   11  A    between atoms: C_19  and  N_26
   12  A    between atoms: C_20  and  C_31
   13  A    between atoms: C_20  and  C_46
   14  A    between atoms: C_25  and  C_32
   15  A    between atoms: C_27  and  C_31
   16  A    between atoms: C_49  and  C_60
                            x       y       z     vdW  Elec       q    Type
                         _______ _______ _______ _____ _____    ______ ____

>  <TORSDO>
F 16

$$$$
=
 OpenBabel10232407453D

 63 68  0  0  1  0  0  0  0  0999 V2000
  189.4810  178.5180  144.1390 N   0  0  0  0  0  0  0  0  0  0  0  0
  188.7290  177.4870  144.4740 C   0  0  0  0  0  0  0  0  0  0  0  0
  188.4880  178.0100  148.7890 C   0  0  0  0  0  0  0  0  0  0  0  0
  188.7110  177.3330  146.0170 C   0  0  0  0  0  0  0  0  0  0  0  0
  187.4740  177.5390  146.6610 C   0  0  0  0  0  3  0  0  0  0  0  0
  187.3560  177.8860  147.9920 C   0  0  0  0  0  3  0  0  0  0  0  0
  189.8610  177.3780  146.8520 C   0  0  0  0  0  3  0  0  0  0  0  0
  189.7290  177.6900  148.2500 C   0  0  0  0  0  3  0  0  0  0  0  0
  188.3710  178.4120  150.1300 O   0  0  0  0  0  1  0  0  0  0  0  0
  187.9960  176.7120  143.4100 C   0  0  0  0  0  0  0  0  0  0  0  0
  188.5780  175.8320  142.7030 O   0  0  0  0  0  0  0  0  0  0  0  0
  186.5890  176.9160  143.1040 C   0  0  0  0  0  3  0  0  0  0  0  0
  186.1680  178.0200  142.4800 C   0  0  0  0  0  0  0  0  0  0  0  0
  185.6980  179.1350  141.8620 C   0  0  0  0  0  3  0  0  0  0  0  0
  184.4600  179.0620  141.0490 C   0  0  0  0  0  0  0  0  0  0  0  0
  183.4850  178.8490  138.7270 C   0  0  0  0  0  2  0  0  0  0  0  0
  182.1940  178.5570  139.3650 N   0  0  0  0  0  0  0  0  0  0  0  0
  184.5990  179.0300  139.7420 C   0  0  0  0  0  3  0  0  0  0  0  0
  181.2000  178.2640  138.3810 C   0  0  0  0  0  0  0  0  0  0  0  0
  183.0670  178.9390  141.6620 C   0  0  0  0  0  0  0  0  0  0  0  0
  182.0190  178.5890  140.8350 C   0  0  0  0  0  0  0  0  0  0  0  0
  182.9300  179.0010  143.1120 C   0  0  0  0  0  1  0  0  0  0  0  0
  180.0460  177.9000  138.7730 O   0  0  0  0  0  0  0  0  0  0  0  0
  180.1700  177.4830  142.2750 C   0  0  0  0  0  1  0  0  0  0  0  0
  180.0670  179.9210  141.9120 C   0  0  0  0  0  1  0  0  0  0  0  0
  180.5400  178.6180  141.3490 C   0  0  0  0  0  3  0  0  0  0  0  0
  181.4170  178.2760  136.8810 C   0  0  0  0  0  0  0  0  0  0  0  0
  180.7850  179.1110  136.1920 O   0  0  0  0  0  0  0  0  0  0  0  0
  182.5520  176.0000  136.5790 C   0  0  0  0  0  3  0  0  0  0  0  0
  183.5680  173.8090  136.2350 N   0  0  0  0  0  1  0  0  0  0  0  0
  184.1600  175.6710  134.8220 C   0  0  0  0  0  3  0  0  0  0  0  0
  183.9990  176.9810  134.3880 C   0  0  0  0  0  3  0  0  0  0  0  0
  183.4160  175.1640  135.8940 C   0  0  0  0  0  0  0  0  0  0  0  0
  183.1130  177.8220  135.0570 C   0  0  0  0  0  3  0  0  0  0  0  0
  182.3680  177.3400  136.1670 C   0  0  0  0  0  0  0  0  0  0  0  0
  189.7920  179.3910  142.9690 C   0  0  0  0  0  2  0  0  0  0  0  0
  191.6110  176.5560  141.1200 C   0  0  0  0  0  3  0  0  0  0  0  0
  190.2710  178.4970  141.7920 C   0  0  0  0  0  0  0  0  0  0  0  0
  190.8880  176.4910  139.9730 C   0  0  0  0  0  3  0  0  0  0  0  0
  192.2120  177.7170  143.0230 F   0  0  0  0  0  0  0  0  0  0  0  0
  189.9610  177.4530  139.6200 C   0  0  0  0  0  0  0  0  0  0  0  0
  189.6280  178.4370  140.5580 C   0  0  0  0  0  3  0  0  0  0  0  0
  191.3030  177.6140  142.0220 C   0  0  0  0  0  0  0  0  0  0  0  0
  189.7960  176.9220  137.0570 C   0  0  2  0  0  3  0  0  0  0  0  0
  189.3020  177.3160  138.4000 N   0  0  0  0  0  0  0  0  0  0  0  0
  188.8480  175.9220  136.7230 N   0  0  1  0  0  0  0  0  0  0  0  0
  191.2390  176.3560  136.9370 C   0  0  0  0  0  1  0  0  0  0  0  0
  187.8390  177.0910  138.4590 C   0  0  0  0  0  2  0  0  0  0  0  0
  187.5490  176.3420  137.2230 C   0  0  0  0  0  2  0  0  0  0  0  0
  188.8580  175.5990  135.3300 C   0  0  1  0  0  3  0  0  0  0  0  0
  188.7320  174.0350  135.3490 C   0  0  1  0  0  3  0  0  0  0  0  0
  187.7570  174.8380  134.7790 O   0  0  0  0  0  0  0  0  0  0  0  0
  189.9490  171.9490  134.3460 O   0  0  0  0  0  1  0  0  0  0  0  0
  189.8560  173.4130  134.3830 C   0  0  2  0  0  3  0  0  0  0  0  0
  191.2970  174.0370  134.4190 C   0  0  0  0  0  2  0  0  0  0  0  0
  191.9780  172.9110  136.3550 O   0  0  0  0  0  1  0  0  0  0  0  0
  192.4000  173.2070  135.0390 C   0  0  2  0  0  3  0  0  0  0  0  0
  193.6200  174.1090  135.0850 C   0  0  0  0  0  2  0  0  0  0  0  0
  194.5500  175.0390  137.7590 O   0  0  0  0  0  0  0  0  0  0  0  0
  194.6950  173.5860  135.9180 N   0  0  0  0  0  0  0  0  0  0  0  0
  195.8070  172.9710  135.2200 C   0  0  0  0  0  1  0  0  0  0  0  0
  194.8100  173.9000  137.3130 C   0  0  0  0  0  0  0  0  0  0  0  0
  195.1220  172.8200  138.2540 C   0  0  0  0  0  1  0  0  0  0  0  0
  1  2  2  0  0  0  0
  2  4  1  0  0  0  0
  3  9  1  0  0  0  0
  4  5  2  0  0  0  0
  4  7  1  0  0  0  0
  5  6  1  0  0  0  0
  6  3  2  0  0  0  0
  7  8  2  0  0  0  0
  8  3  1  0  0  0  0
 10  2  1  0  0  0  0
 11 10  2  0  0  0  0
 12 10  1  0  0  0  0
 13 12  2  0  0  0  0
 14 13  2  0  0  0  0
 15 20  1  0  0  0  0
 15 14  1  0  0  0  0
 16 17  1  0  0  0  0
 16 18  1  0  0  0  0
 17 21  1  0  0  0  0
 18 15  2  0  0  0  0
 19 23  2  0  0  0  0
 19 17  1  0  0  0  0
 20 22  1  0  0  0  0
 21 26  1  0  0  0  0
 21 20  2  0  0  0  0
 26 25  1  0  0  0  0
 26 24  1  0  0  0  0
 27 19  1  0  0  0  0
 28 27  2  0  0  0  0
 31 33  1  0  0  0  0
 32 31  2  0  0  0  0
 32 34  1  0  0  0  0
 33 30  1  0  0  0  0
 33 29  2  0  0  0  0
 34 35  2  0  0  0  0
 35 29  1  0  0  0  0
 35 27  1  0  0  0  0
 36  1  1  0  0  0  0
 37 43  1  0  0  0  0
 38 43  2  0  0  0  0
 38 36  1  0  0  0  0
 39 37  2  0  0  0  0
 41 39  1  0  0  0  0
 41 42  2  0  0  0  0
 42 38  1  0  0  0  0
 43 40  1  0  0  0  0
 44 47  1  1  0  0  0
 44 45  1  0  0  0  0
 45 48  1  0  0  0  0
 45 41  1  0  0  0  0
 46 44  1  0  0  0  0
 46 49  1  6  0  0  0
 49 48  1  0  0  0  0
 50 52  1  6  0  0  0
 50 51  1  0  0  0  0
 50 46  1  0  0  0  0
 51 54  1  6  0  0  0
 52 51  1  0  0  0  0
 54 53  1  1  0  0  0
 54 55  1  0  0  0  0
 55 57  1  0  0  0  0
 57 58  1  0  0  0  0
 57 56  1  1  0  0  0
 58 60  1  0  0  0  0
 60 62  1  0  0  0  0
 61 60  1  0  0  0  0
 62 59  2  0  0  0  0
 62 63  1  0  0  0  0
M  END
>  <MODEL>
4

>  <REMARK>
 VINA RESULT:      -6.6      2.849      4.427
  Name = 
  16 active torsions:
  status: ('A' for Active; 'I' for Inactive)
    1  A    between atoms: C_1  and  C_47
    2  A    between atoms: C_3  and  C_39
    3  A    between atoms: C_3  and  C_54
    4  A    between atoms: C_6  and  C_16
    5  A    between atoms: N_7  and  C_59
    6  A    between atoms: C_12  and  N_24
    7  A    between atoms: C_12  and  C_46
    8  A    between atoms: N_15  and  C_25
    9  A    between atoms: C_16  and  C_42
   10  A    between atoms: C_17  and  C_42
   11  A    between atoms: C_19  and  N_26
   12  A    between atoms: C_20  and  C_31
   13  A    between atoms: C_20  and  C_46
   14  A    between atoms: C_25  and  C_32
   15  A    between atoms: C_27  and  C_31
   16  A    between atoms: C_49  and  C_60
                            x       y       z     vdW  Elec       q    Type
                         _______ _______ _______ _____ _____    ______ ____

>  <TORSDO>
F 16

$$$$
=
 OpenBabel10232407453D

 63 68  0  0  1  0  0  0  0  0999 V2000
  184.0550  177.6050  138.1170 N   0  0  0  0  0  0  0  0  0  0  0  0
  183.1670  177.7440  139.0830 C   0  0  0  0  0  0  0  0  0  0  0  0
  180.6090  174.2510  138.6290 C   0  0  0  0  0  0  0  0  0  0  0  0
  182.0080  176.7370  138.8740 C   0  0  0  0  0  0  0  0  0  0  0  0
  181.6460  175.9450  139.9840 C   0  0  0  0  0  3  0  0  0  0  0  0
  180.9900  174.7350  139.8750 C   0  0  0  0  0  3  0  0  0  0  0  0
  181.5440  176.2820  137.6090 C   0  0  0  0  0  3  0  0  0  0  0  0
  180.8150  175.0460  137.5070 C   0  0  0  0  0  3  0  0  0  0  0  0
  179.9860  172.9970  138.5150 O   0  0  0  0  0  1  0  0  0  0  0  0
  183.4160  178.7250  140.2000 C   0  0  0  0  0  0  0  0  0  0  0  0
  182.5180  179.5320  140.5940 O   0  0  0  0  0  0  0  0  0  0  0  0
  184.6890  178.8330  140.8950 C   0  0  0  0  0  3  0  0  0  0  0  0
  184.8070  178.4950  142.1830 C   0  0  0  0  0  0  0  0  0  0  0  0
  184.9640  178.1790  143.4950 C   0  0  0  0  0  3  0  0  0  0  0  0
  186.2840  177.7210  143.9900 C   0  0  0  0  0  0  0  0  0  0  0  0
  188.5390  176.7610  143.3730 C   0  0  0  0  0  2  0  0  0  0  0  0
  188.9920  177.1260  144.7220 N   0  0  0  0  0  0  0  0  0  0  0  0
  187.1080  177.1950  143.1110 C   0  0  0  0  0  3  0  0  0  0  0  0
  190.3780  176.8210  144.8870 C   0  0  0  0  0  0  0  0  0  0  0  0
  186.7430  177.9110  145.4340 C   0  0  0  0  0  0  0  0  0  0  0  0
  188.0780  177.7190  145.7250 C   0  0  0  0  0  0  0  0  0  0  0  0
  185.8070  178.4730  146.4010 C   0  0  0  0  0  1  0  0  0  0  0  0
  190.9500  177.1600  145.9720 O   0  0  0  0  0  0  0  0  0  0  0  0
  187.9620  178.7670  148.0920 C   0  0  0  0  0  1  0  0  0  0  0  0
  188.5980  176.3920  147.8960 C   0  0  0  0  0  1  0  0  0  0  0  0
  188.5910  177.7180  147.2050 C   0  0  0  0  0  3  0  0  0  0  0  0
  191.2690  176.1820  143.8410 C   0  0  0  0  0  0  0  0  0  0  0  0
  191.9800  175.2050  144.1760 O   0  0  0  0  0  0  0  0  0  0  0  0
  190.2470  176.5190  141.5170 C   0  0  0  0  0  3  0  0  0  0  0  0
  189.2460  176.9200  139.3290 N   0  0  0  0  0  1  0  0  0  0  0  0
  191.5450  177.5130  139.7540 C   0  0  0  0  0  3  0  0  0  0  0  0
  192.6360  177.6620  140.6010 C   0  0  0  0  0  3  0  0  0  0  0  0
  190.3370  176.9740  140.2130 C   0  0  0  0  0  0  0  0  0  0  0  0
  192.5450  177.2300  141.9210 C   0  0  0  0  0  3  0  0  0  0  0  0
  191.3400  176.6520  142.4040 C   0  0  0  0  0  0  0  0  0  0  0  0
  185.4490  178.0070  137.7610 C   0  0  0  0  0  2  0  0  0  0  0  0
  185.7510  175.8000  134.6290 C   0  0  0  0  0  3  0  0  0  0  0  0
  186.0330  176.9600  136.7720 C   0  0  0  0  0  0  0  0  0  0  0  0
  187.0760  175.5070  134.6470 C   0  0  0  0  0  3  0  0  0  0  0  0
  183.8740  176.5690  135.7330 F   0  0  0  0  0  0  0  0  0  0  0  0
  187.8860  175.7840  135.7330 C   0  0  0  0  0  0  0  0  0  0  0  0
  187.3630  176.5500  136.7810 C   0  0  0  0  0  3  0  0  0  0  0  0
  185.2290  176.5130  135.7450 C   0  0  0  0  0  0  0  0  0  0  0  0
  190.4540  176.1850  135.3750 C   0  0  2  0  0  3  0  0  0  0  0  0
  189.2250  175.4040  135.6680 N   0  0  0  0  0  0  0  0  0  0  0  0
  191.2680  175.7930  136.4670 N   0  0  1  0  0  0  0  0  0  0  0  0
  190.3470  177.7340  135.3130 C   0  0  0  0  0  1  0  0  0  0  0  0
  189.6020  174.1740  136.4040 C   0  0  0  0  0  2  0  0  0  0  0  0
  191.0230  174.3860  136.7340 C   0  0  0  0  0  2  0  0  0  0  0  0
  192.6470  176.1150  136.2670 C   0  0  1  0  0  3  0  0  0  0  0  0
  193.0540  175.1380  135.1090 C   0  0  1  0  0  3  0  0  0  0  0  0
  193.0900  176.5140  134.9480 O   0  0  0  0  0  0  0  0  0  0  0  0
  195.6640  175.0020  135.0410 O   0  0  0  0  0  1  0  0  0  0  0  0
  194.4180  174.3920  135.5170 C   0  0  2  0  0  3  0  0  0  0  0  0
  194.4920  172.8320  135.3510 C   0  0  0  0  0  2  0  0  0  0  0  0
  194.2040  171.2700  137.0710 O   0  0  0  0  0  1  0  0  0  0  0  0
  195.1990  172.0480  136.4360 C   0  0  2  0  0  3  0  0  0  0  0  0
  195.7370  173.0820  137.4090 C   0  0  0  0  0  2  0  0  0  0  0  0
  197.5360  175.4570  137.3660 O   0  0  0  0  0  0  0  0  0  0  0  0
  197.1920  173.1340  137.4510 N   0  0  0  0  0  0  0  0  0  0  0  0
  197.8920  172.0020  136.8760 C   0  0  0  0  0  1  0  0  0  0  0  0
  197.9100  174.3350  137.7700 C   0  0  0  0  0  0  0  0  0  0  0  0
  199.0430  174.2510  138.6970 C   0  0  0  0  0  1  0  0  0  0  0  0
  1  2  2  0  0  0  0
  2 10  1  0  0  0  0
  3  6  1  0  0  0  0
  4  2  1  0  0  0  0
  4  5  1  0  0  0  0
  6  5  2  0  0  0  0
  7  4  2  0  0  0  0
  8  7  1  0  0  0  0
  8  3  2  0  0  0  0
  9  3  1  0  0  0  0
 10 11  2  0  0  0  0
 10 12  1  0  0  0  0
 12 13  2  0  0  0  0
 13 14  2  0  0  0  0
 14 15  1  0  0  0  0
 15 20  1  0  0  0  0
 16 17  1  0  0  0  0
 17 19  1  0  0  0  0
 17 21  1  0  0  0  0
 18 16  1  0  0  0  0
 18 15  2  0  0  0  0
 19 23  2  0  0  0  0
 20 21  2  0  0  0  0
 20 22  1  0  0  0  0
 21 26  1  0  0  0  0
 26 25  1  0  0  0  0
 26 24  1  0  0  0  0
 27 28  2  0  0  0  0
 27 19  1  0  0  0  0
 29 35  1  0  0  0  0
 30 33  1  0  0  0  0
 31 33  1  0  0  0  0
 31 32  2  0  0  0  0
 32 34  1  0  0  0  0
 33 29  2  0  0  0  0
 34 35  2  0  0  0  0
 35 27  1  0  0  0  0
 36  1  1  0  0  0  0
 37 39  2  0  0  0  0
 37 43  1  0  0  0  0
 38 42  1  0  0  0  0
 38 36  1  0  0  0  0
 39 41  1  0  0  0  0
 40 43  1  0  0  0  0
 41 42  2  0  0  0  0
 43 38  2  0  0  0  0
 44 47  1  1  0  0  0
 44 45  1  0  0  0  0
 44 46  1  0  0  0  0
 45 41  1  0  0  0  0
 45 48  1  0  0  0  0
 46 49  1  6  0  0  0
 48 49  1  0  0  0  0
 50 52  1  6  0  0  0
 50 46  1  0  0  0  0
 51 54  1  1  0  0  0
 51 50  1  0  0  0  0
 52 51  1  0  0  0  0
 54 53  1  6  0  0  0
 55 54  1  0  0  0  0
 55 57  1  0  0  0  0
 57 56  1  1  0  0  0
 57 58  1  0  0  0  0
 58 60  1  0  0  0  0
 59 62  2  0  0  0  0
 60 62  1  0  0  0  0
 61 60  1  0  0  0  0
 62 63  1  0  0  0  0
M  END
>  <MODEL>
5

>  <REMARK>
 VINA RESULT:      -6.4      2.582      8.012
  Name = 
  16 active torsions:
  status: ('A' for Active; 'I' for Inactive)
    1  A    between atoms: C_1  and  C_47
    2  A    between atoms: C_3  and  C_39
    3  A    between atoms: C_3  and  C_54
    4  A    between atoms: C_6  and  C_16
    5  A    between atoms: N_7  and  C_59
    6  A    between atoms: C_12  and  N_24
    7  A    between atoms: C_12  and  C_46
    8  A    between atoms: N_15  and  C_25
    9  A    between atoms: C_16  and  C_42
   10  A    between atoms: C_17  and  C_42
   11  A    between atoms: C_19  and  N_26
   12  A    between atoms: C_20  and  C_31
   13  A    between atoms: C_20  and  C_46
   14  A    between atoms: C_25  and  C_32
   15  A    between atoms: C_27  and  C_31
   16  A    between atoms: C_49  and  C_60
                            x       y       z     vdW  Elec       q    Type
                         _______ _______ _______ _____ _____    ______ ____

>  <TORSDO>
F 16

$$$$
=
 OpenBabel10232407453D

 63 68  0  0  1  0  0  0  0  0999 V2000
  190.6410  174.0060  136.5220 N   0  0  0  0  0  0  0  0  0  0  0  0
  189.4440  174.5070  136.2780 C   0  0  0  0  0  0  0  0  0  0  0  0
  185.9140  171.9840  136.6260 C   0  0  0  0  0  0  0  0  0  0  0  0
  188.3570  173.4760  136.6740 C   0  0  0  0  0  0  0  0  0  0  0  0
  188.1130  172.4290  135.7610 C   0  0  0  0  0  3  0  0  0  0  0  0
  186.9300  171.7170  135.7160 C   0  0  0  0  0  3  0  0  0  0  0  0
  187.3520  173.6900  137.6560 C   0  0  0  0  0  3  0  0  0  0  0  0
  186.1430  172.9100  137.6370 C   0  0  0  0  0  3  0  0  0  0  0  0
  184.6930  171.2950  136.5490 O   0  0  0  0  0  1  0  0  0  0  0  0
  189.3090  175.9160  135.7620 C   0  0  0  0  0  0  0  0  0  0  0  0
  190.2390  176.4820  135.1100 O   0  0  0  0  0  0  0  0  0  0  0  0
  188.1240  176.7310  135.9780 C   0  0  0  0  0  3  0  0  0  0  0  0
  186.9020  176.2670  135.7020 C   0  0  0  0  0  0  0  0  0  0  0  0
  185.6450  175.8370  135.4180 C   0  0  0  0  0  3  0  0  0  0  0  0
  184.4900  176.3830  136.1710 C   0  0  0  0  0  0  0  0  0  0  0  0
  183.4860  178.4150  137.2890 C   0  0  0  0  0  2  0  0  0  0  0  0
  182.2090  177.6890  137.3190 N   0  0  0  0  0  0  0  0  0  0  0  0
  184.5810  177.6240  136.5970 C   0  0  0  0  0  3  0  0  0  0  0  0
  181.1740  178.5120  137.8590 C   0  0  0  0  0  0  0  0  0  0  0  0
  183.1960  175.6030  136.3920 C   0  0  0  0  0  0  0  0  0  0  0  0
  182.0890  176.2910  136.8450 C   0  0  0  0  0  0  0  0  0  0  0  0
  183.1230  174.2200  135.9340 C   0  0  0  0  0  1  0  0  0  0  0  0
  179.9840  178.0630  137.8690 O   0  0  0  0  0  0  0  0  0  0  0  0
  180.0660  174.8370  136.1330 C   0  0  0  0  0  1  0  0  0  0  0  0
  180.9050  174.6210  138.4420 C   0  0  0  0  0  1  0  0  0  0  0  0
  180.7830  175.5350  137.2640 C   0  0  0  0  0  3  0  0  0  0  0  0
  181.3510  179.9300  138.3640 C   0  0  0  0  0  0  0  0  0  0  0  0
  181.7100  180.1000  139.5530 O   0  0  0  0  0  0  0  0  0  0  0  0
  181.4370  182.4580  137.9660 C   0  0  0  0  0  3  0  0  0  0  0  0
  181.5990  184.8570  137.5530 N   0  0  0  0  0  1  0  0  0  0  0  0
  180.6710  183.3840  135.8840 C   0  0  0  0  0  3  0  0  0  0  0  0
  180.3640  182.1190  135.3990 C   0  0  0  0  0  3  0  0  0  0  0  0
  181.2390  183.5590  137.1510 C   0  0  0  0  0  0  0  0  0  0  0  0
  180.5830  181.0040  136.2040 C   0  0  0  0  0  3  0  0  0  0  0  0
  181.1300  181.1570  137.5060 C   0  0  0  0  0  0  0  0  0  0  0  0
  192.0710  174.4240  136.6260 C   0  0  0  0  0  2  0  0  0  0  0  0
  193.6580  177.0000  138.9960 C   0  0  0  0  0  3  0  0  0  0  0  0
  192.2270  175.3710  137.8470 C   0  0  0  0  0  0  0  0  0  0  0  0
  192.5610  177.4580  139.6500 C   0  0  0  0  0  3  0  0  0  0  0  0
  194.6480  175.3900  137.6680 F   0  0  0  0  0  0  0  0  0  0  0  0
  191.3250  176.8450  139.5550 C   0  0  0  0  0  0  0  0  0  0  0  0
  191.1570  175.8200  138.6160 C   0  0  0  0  0  3  0  0  0  0  0  0
  193.4710  175.9050  138.1040 C   0  0  0  0  0  0  0  0  0  0  0  0
  189.1840  178.3110  139.9350 C   0  0  2  0  0  3  0  0  0  0  0  0
  190.2720  177.3690  140.3010 N   0  0  0  0  0  0  0  0  0  0  0  0
  188.0580  177.5950  140.4160 N   0  0  1  0  0  0  0  0  0  0  0  0
  188.9920  178.6710  138.4360 C   0  0  0  0  0  1  0  0  0  0  0  0
  189.8580  176.5970  141.4970 C   0  0  0  0  0  2  0  0  0  0  0  0
  188.4330  176.9390  141.6580 C   0  0  0  0  0  2  0  0  0  0  0  0
  186.8900  178.4130  140.5190 C   0  0  1  0  0  3  0  0  0  0  0  0
  186.6450  178.4500  142.0690 C   0  0  1  0  0  3  0  0  0  0  0  0
  186.9360  179.5980  141.3490 O   0  0  0  0  0  0  0  0  0  0  0  0
  184.2040  178.1120  141.1940 O   0  0  0  0  0  1  0  0  0  0  0  0
  185.0990  178.1130  142.3560 C   0  0  2  0  0  3  0  0  0  0  0  0
  184.3960  178.8210  143.5690 C   0  0  0  0  0  2  0  0  0  0  0  0
  185.7070  179.8700  145.2000 O   0  0  0  0  0  1  0  0  0  0  0  0
  185.0300  178.6580  144.9340 C   0  0  2  0  0  3  0  0  0  0  0  0
  186.0370  177.5320  144.7900 C   0  0  0  0  0  2  0  0  0  0  0  0
  186.2860  178.4700  147.6070 O   0  0  0  0  0  0  0  0  0  0  0  0
  187.2380  177.7250  145.5920 N   0  0  0  0  0  0  0  0  0  0  0  0
  188.4440  178.0800  144.8690 C   0  0  0  0  0  1  0  0  0  0  0  0
  187.1970  177.8460  147.0210 C   0  0  0  0  0  0  0  0  0  0  0  0
  188.1860  177.1120  147.8180 C   0  0  0  0  0  1  0  0  0  0  0  0
  1 36  1  0  0  0  0
  2  1  2  0  0  0  0
  2  4  1  0  0  0  0
  3  8  1  0  0  0  0
  4  7  1  0  0  0  0
  5  4  2  0  0  0  0
  6  5  1  0  0  0  0
  6  3  2  0  0  0  0
  8  7  2  0  0  0  0
  9  3  1  0  0  0  0
 10 12  1  0  0  0  0
 10  2  1  0  0  0  0
 11 10  2  0  0  0  0
 13 12  2  0  0  0  0
 14 13  2  0  0  0  0
 14 15  1  0  0  0  0
 15 20  1  0  0  0  0
 15 18  2  0  0  0  0
 16 17  1  0  0  0  0
 17 19  1  0  0  0  0
 18 16  1  0  0  0  0
 19 23  2  0  0  0  0
 19 27  1  0  0  0  0
 20 21  2  0  0  0  0
 21 26  1  0  0  0  0
 21 17  1  0  0  0  0
 22 20  1  0  0  0  0
 24 26  1  0  0  0  0
 26 25  1  0  0  0  0
 27 28  2  0  0  0  0
 31 33  1  0  0  0  0
 32 31  2  0  0  0  0
 32 34  1  0  0  0  0
 33 30  1  0  0  0  0
 33 29  2  0  0  0  0
 34 35  2  0  0  0  0
 35 29  1  0  0  0  0
 35 27  1  0  0  0  0
 36 38  1  0  0  0  0
 37 39  1  0  0  0  0
 38 43  1  0  0  0  0
 38 42  2  0  0  0  0
 40 43  1  0  0  0  0
 41 39  2  0  0  0  0
 41 45  1  0  0  0  0
 42 41  1  0  0  0  0
 43 37  2  0  0  0  0
 44 47  1  6  0  0  0
 44 45  1  0  0  0  0
 44 46  1  0  0  0  0
 45 48  1  0  0  0  0
 46 50  1  0  0  0  0
 46 49  1  1  0  0  0
 48 49  1  0  0  0  0
 50 52  1  1  0  0  0
 50 51  1  0  0  0  0
 51 54  1  6  0  0  0
 52 51  1  0  0  0  0
 54 53  1  6  0  0  0
 54 55  1  0  0  0  0
 55 57  1  0  0  0  0
 57 56  1  6  0  0  0
 58 57  1  0  0  0  0
 58 60  1  0  0  0  0
 60 62  1  0  0  0  0
 61 60  1  0  0  0  0
 62 59  2  0  0  0  0
 62 63  1  0  0  0  0
M  END
>  <MODEL>
6

>  <REMARK>
 VINA RESULT:      -6.2      4.000      9.776
  Name = 
  16 active torsions:
  status: ('A' for Active; 'I' for Inactive)
    1  A    between atoms: C_1  and  C_47
    2  A    between atoms: C_3  and  C_39
    3  A    between atoms: C_3  and  C_54
    4  A    between atoms: C_6  and  C_16
    5  A    between atoms: N_7  and  C_59
    6  A    between atoms: C_12  and  N_24
    7  A    between atoms: C_12  and  C_46
    8  A    between atoms: N_15  and  C_25
    9  A    between atoms: C_16  and  C_42
   10  A    between atoms: C_17  and  C_42
   11  A    between atoms: C_19  and  N_26
   12  A    between atoms: C_20  and  C_31
   13  A    between atoms: C_20  and  C_46
   14  A    between atoms: C_25  and  C_32
   15  A    between atoms: C_27  and  C_31
   16  A    between atoms: C_49  and  C_60
                            x       y       z     vdW  Elec       q    Type
                         _______ _______ _______ _____ _____    ______ ____

>  <TORSDO>
F 16

$$$$
=
 OpenBabel10232407453D

 63 68  0  0  1  0  0  0  0  0999 V2000
  183.0760  178.0440  135.6570 N   0  0  0  0  0  0  0  0  0  0  0  0
  182.4060  177.8840  136.7830 C   0  0  0  0  0  0  0  0  0  0  0  0
  180.8370  181.9300  137.1220 C   0  0  0  0  0  0  0  0  0  0  0  0
  181.6070  179.1730  137.1030 C   0  0  0  0  0  0  0  0  0  0  0  0
  180.9470  179.7940  136.0230 C   0  0  0  0  0  3  0  0  0  0  0  0
  180.5900  181.1290  136.0150 C   0  0  0  0  0  3  0  0  0  0  0  0
  181.7840  179.9710  138.2660 C   0  0  0  0  0  3  0  0  0  0  0  0
  181.3630  181.3470  138.2700 C   0  0  0  0  0  3  0  0  0  0  0  0
  180.5200  183.2980  137.0950 O   0  0  0  0  0  1  0  0  0  0  0  0
  182.4480  176.5600  137.5020 C   0  0  0  0  0  0  0  0  0  0  0  0
  181.7390  175.5740  137.1310 O   0  0  0  0  0  0  0  0  0  0  0  0
  183.2810  176.3150  138.6680 C   0  0  0  0  0  3  0  0  0  0  0  0
  184.0180  177.2880  139.2120 C   0  0  0  0  0  0  0  0  0  0  0  0
  184.7950  178.2450  139.7830 C   0  0  0  0  0  3  0  0  0  0  0  0
  185.1200  178.1670  141.2270 C   0  0  0  0  0  0  0  0  0  0  0  0
  186.8930  177.6540  142.9530 C   0  0  0  0  0  2  0  0  0  0  0  0
  186.0240  178.3000  143.9460 N   0  0  0  0  0  0  0  0  0  0  0  0
  186.3120  177.7170  141.5520 C   0  0  0  0  0  3  0  0  0  0  0  0
  186.6600  178.3370  145.2240 C   0  0  0  0  0  0  0  0  0  0  0  0
  184.1760  178.6600  142.3220 C   0  0  0  0  0  0  0  0  0  0  0  0
  184.6790  178.8130  143.5970 C   0  0  0  0  0  0  0  0  0  0  0  0
  182.8500  179.1340  141.9430 C   0  0  0  0  0  1  0  0  0  0  0  0
  186.0770  178.9480  146.1760 O   0  0  0  0  0  0  0  0  0  0  0  0
  182.5850  180.0610  144.4750 C   0  0  0  0  0  1  0  0  0  0  0  0
  183.2510  177.9660  145.5920 C   0  0  0  0  0  1  0  0  0  0  0  0
  183.7360  179.1400  144.8040 C   0  0  0  0  0  3  0  0  0  0  0  0
  188.0280  177.7690  145.5430 C   0  0  0  0  0  0  0  0  0  0  0  0
  188.2180  177.2670  146.6760 O   0  0  0  0  0  0  0  0  0  0  0  0
  189.3490  176.7280  143.6120 C   0  0  0  0  0  3  0  0  0  0  0  0
  190.5600  175.7840  141.7160 N   0  0  0  0  0  1  0  0  0  0  0  0
  191.3450  177.7920  142.7950 C   0  0  0  0  0  3  0  0  0  0  0  0
  191.2050  178.8260  143.7130 C   0  0  0  0  0  3  0  0  0  0  0  0
  190.4040  176.7590  142.7160 C   0  0  0  0  0  0  0  0  0  0  0  0
  190.1320  178.8150  144.6010 C   0  0  0  0  0  3  0  0  0  0  0  0
  189.1800  177.7610  144.5610 C   0  0  0  0  0  0  0  0  0  0  0  0
  183.8310  177.2560  134.6380 C   0  0  0  0  0  2  0  0  0  0  0  0
  185.7110  174.0150  135.4940 C   0  0  0  0  0  3  0  0  0  0  0  0
  184.8020  176.2900  135.3730 C   0  0  0  0  0  0  0  0  0  0  0  0
  186.7690  174.5070  136.1880 C   0  0  0  0  0  3  0  0  0  0  0  0
  183.5950  174.3220  134.6210 F   0  0  0  0  0  0  0  0  0  0  0  0
  186.8350  175.8200  136.6150 C   0  0  0  0  0  0  0  0  0  0  0  0
  185.8610  176.7200  136.1670 C   0  0  0  0  0  3  0  0  0  0  0  0
  184.6960  174.9400  135.1170 C   0  0  0  0  0  0  0  0  0  0  0  0
  189.1300  175.4540  137.8330 C   0  0  2  0  0  3  0  0  0  0  0  0
  187.9450  176.2140  137.3590 N   0  0  0  0  0  0  0  0  0  0  0  0
  190.1710  176.3120  137.3950 N   0  0  1  0  0  0  0  0  0  0  0  0
  189.3520  174.0170  137.2860 C   0  0  0  0  0  1  0  0  0  0  0  0
  188.2780  177.6590  137.3380 C   0  0  0  0  0  2  0  0  0  0  0  0
  189.7330  177.6860  137.5730 C   0  0  0  0  0  2  0  0  0  0  0  0
  191.4240  176.0160  138.0170 C   0  0  1  0  0  3  0  0  0  0  0  0
  192.4080  175.9980  136.7950 C   0  0  1  0  0  3  0  0  0  0  0  0
  192.5360  176.9210  137.8210 O   0  0  0  0  0  0  0  0  0  0  0  0
  192.5840  173.3910  136.7230 O   0  0  0  0  0  1  0  0  0  0  0  0
  193.3000  174.6630  136.8670 C   0  0  2  0  0  3  0  0  0  0  0  0
  194.3710  174.5450  138.0100 C   0  0  0  0  0  2  0  0  0  0  0  0
  195.4820  172.6420  138.8020 O   0  0  0  0  0  1  0  0  0  0  0  0
  195.5400  173.6130  137.7760 C   0  0  2  0  0  3  0  0  0  0  0  0
  196.7870  174.4630  137.9480 C   0  0  0  0  0  2  0  0  0  0  0  0
  199.6490  173.7160  137.5860 O   0  0  0  0  0  0  0  0  0  0  0  0
  197.6110  174.5300  136.7480 N   0  0  0  0  0  0  0  0  0  0  0  0
  197.2690  175.5660  135.7920 C   0  0  0  0  0  1  0  0  0  0  0  0
  198.8550  173.8250  136.6280 C   0  0  0  0  0  0  0  0  0  0  0  0
  199.1400  173.1100  135.3800 C   0  0  0  0  0  1  0  0  0  0  0  0
  1  2  2  0  0  0  0
  2  4  1  0  0  0  0
  2 10  1  0  0  0  0
  3  8  1  0  0  0  0
  4  7  1  0  0  0  0
  5  4  2  0  0  0  0
  6  5  1  0  0  0  0
  6  3  2  0  0  0  0
  7  8  2  0  0  0  0
  9  3  1  0  0  0  0
 10 12  1  0  0  0  0
 11 10  2  0  0  0  0
 12 13  2  0  0  0  0
 13 14  2  0  0  0  0
 14 15  1  0  0  0  0
 15 18  2  0  0  0  0
 15 20  1  0  0  0  0
 16 17  1  0  0  0  0
 17 19  1  0  0  0  0
 18 16  1  0  0  0  0
 19 27  1  0  0  0  0
 19 23  2  0  0  0  0
 20 21  2  0  0  0  0
 21 17  1  0  0  0  0
 21 26  1  0  0  0  0
 22 20  1  0  0  0  0
 24 26  1  0  0  0  0
 26 25  1  0  0  0  0
 27 28  2  0  0  0  0
 29 35  1  0  0  0  0
 30 33  1  0  0  0  0
 31 32  2  0  0  0  0
 32 34  1  0  0  0  0
 33 31  1  0  0  0  0
 33 29  2  0  0  0  0
 35 34  2  0  0  0  0
 35 27  1  0  0  0  0
 36 38  1  0  0  0  0
 36  1  1  0  0  0  0
 37 39  1  0  0  0  0
 38 42  2  0  0  0  0
 39 41  2  0  0  0  0
 40 43  1  0  0  0  0
 41 45  1  0  0  0  0
 42 41  1  0  0  0  0
 43 38  1  0  0  0  0
 43 37  2  0  0  0  0
 44 47  1  6  0  0  0
 45 44  1  0  0  0  0
 46 49  1  1  0  0  0
 46 44  1  0  0  0  0
 46 50  1  0  0  0  0
 48 45  1  0  0  0  0
 48 49  1  0  0  0  0
 50 52  1  1  0  0  0
 51 54  1  1  0  0  0
 51 52  1  0  0  0  0
 51 50  1  0  0  0  0
 54 53  1  1  0  0  0
 54 55  1  0  0  0  0
 57 58  1  0  0  0  0
 57 55  1  0  0  0  0
 57 56  1  1  0  0  0
 60 58  1  0  0  0  0
 61 60  1  0  0  0  0
 62 60  1  0  0  0  0
 62 59  2  0  0  0  0
 63 62  1  0  0  0  0
M  END
>  <MODEL>
7

>  <REMARK>
 VINA RESULT:      -5.9      2.748      8.004
  Name = 
  16 active torsions:
  status: ('A' for Active; 'I' for Inactive)
    1  A    between atoms: C_1  and  C_47
    2  A    between atoms: C_3  and  C_39
    3  A    between atoms: C_3  and  C_54
    4  A    between atoms: C_6  and  C_16
    5  A    between atoms: N_7  and  C_59
    6  A    between atoms: C_12  and  N_24
    7  A    between atoms: C_12  and  C_46
    8  A    between atoms: N_15  and  C_25
    9  A    between atoms: C_16  and  C_42
   10  A    between atoms: C_17  and  C_42
   11  A    between atoms: C_19  and  N_26
   12  A    between atoms: C_20  and  C_31
   13  A    between atoms: C_20  and  C_46
   14  A    between atoms: C_25  and  C_32
   15  A    between atoms: C_27  and  C_31
   16  A    between atoms: C_49  and  C_60
                            x       y       z     vdW  Elec       q    Type
                         _______ _______ _______ _____ _____    ______ ____

>  <TORSDO>
F 16

$$$$
=
 OpenBabel10232407453D

 63 68  0  0  1  0  0  0  0  0999 V2000
  184.8440  177.6070  138.3870 N   0  0  0  0  0  0  0  0  0  0  0  0
  183.7370  177.9660  139.0090 C   0  0  0  0  0  0  0  0  0  0  0  0
  180.9210  175.0330  137.4520 C   0  0  0  0  0  0  0  0  0  0  0  0
  182.5310  177.1990  138.4100 C   0  0  0  0  0  0  0  0  0  0  0  0
  181.8600  176.3010  139.2660 C   0  0  0  0  0  3  0  0  0  0  0  0
  181.0990  175.2410  138.8140 C   0  0  0  0  0  3  0  0  0  0  0  0
  182.2800  177.0350  137.0200 C   0  0  0  0  0  3  0  0  0  0  0  0
  181.4430  175.9600  136.5560 C   0  0  0  0  0  3  0  0  0  0  0  0
  180.1890  173.9270  136.9920 O   0  0  0  0  0  1  0  0  0  0  0  0
  183.8000  178.9330  140.1630 C   0  0  0  0  0  0  0  0  0  0  0  0
  182.8470  179.7320  140.4190 O   0  0  0  0  0  0  0  0  0  0  0  0
  184.9450  179.0350  141.0530 C   0  0  0  0  0  3  0  0  0  0  0  0
  184.9120  178.5270  142.2880 C   0  0  0  0  0  0  0  0  0  0  0  0
  184.9110  178.0390  143.5560 C   0  0  0  0  0  3  0  0  0  0  0  0
  186.1860  177.6140  144.1840 C   0  0  0  0  0  0  0  0  0  0  0  0
  188.5350  176.7690  143.7970 C   0  0  0  0  0  2  0  0  0  0  0  0
  188.8170  177.0990  145.2000 N   0  0  0  0  0  0  0  0  0  0  0  0
  187.1260  177.1550  143.3870 C   0  0  0  0  0  3  0  0  0  0  0  0
  190.1880  176.8430  145.5130 C   0  0  0  0  0  0  0  0  0  0  0  0
  186.4700  177.7670  145.6760 C   0  0  0  0  0  0  0  0  0  0  0  0
  187.7710  177.6160  146.1110 C   0  0  0  0  0  0  0  0  0  0  0  0
  185.4070  178.2540  146.5470 C   0  0  0  0  0  1  0  0  0  0  0  0
  190.6180  177.1630  146.6660 O   0  0  0  0  0  0  0  0  0  0  0  0
  188.1150  178.9290  148.3190 C   0  0  0  0  0  1  0  0  0  0  0  0
  187.3500  176.5880  148.4580 C   0  0  0  0  0  1  0  0  0  0  0  0
  188.1130  177.5800  147.6400 C   0  0  0  0  0  3  0  0  0  0  0  0
  191.2180  176.2810  144.5540 C   0  0  0  0  0  0  0  0  0  0  0  0
  192.0230  175.4180  144.9800 O   0  0  0  0  0  0  0  0  0  0  0  0
  190.6610  175.9900  142.0720 C   0  0  0  0  0  3  0  0  0  0  0  0
  190.0620  175.7670  139.7180 N   0  0  0  0  0  1  0  0  0  0  0  0
  191.5820  177.4940  140.4380 C   0  0  0  0  0  3  0  0  0  0  0  0
  192.2420  178.2120  141.4270 C   0  0  0  0  0  3  0  0  0  0  0  0
  190.7640  176.4040  140.7550 C   0  0  0  0  0  0  0  0  0  0  0  0
  192.1240  177.8170  142.7580 C   0  0  0  0  0  3  0  0  0  0  0  0
  191.3240  176.6950  143.1020 C   0  0  0  0  0  0  0  0  0  0  0  0
  186.3290  177.7070  138.5190 C   0  0  0  0  0  2  0  0  0  0  0  0
  187.2760  177.9740  134.8040 C   0  0  0  0  0  3  0  0  0  0  0  0
  186.9760  177.3410  137.1550 C   0  0  0  0  0  0  0  0  0  0  0  0
  188.3750  177.1810  134.7610 C   0  0  0  0  0  3  0  0  0  0  0  0
  185.3650  178.6600  135.9060 F   0  0  0  0  0  0  0  0  0  0  0  0
  188.7410  176.3560  135.8080 C   0  0  0  0  0  0  0  0  0  0  0  0
  188.0560  176.4720  137.0230 C   0  0  0  0  0  3  0  0  0  0  0  0
  186.5520  178.0140  136.0300 C   0  0  0  0  0  0  0  0  0  0  0  0
  190.0170  174.0710  135.6330 C   0  0  2  0  0  3  0  0  0  0  0  0
  189.8650  175.5480  135.6470 N   0  0  0  0  0  0  0  0  0  0  0  0
  190.7690  173.9070  134.4420 N   0  0  1  0  0  0  0  0  0  0  0  0
  188.7340  173.1960  135.5830 C   0  0  0  0  0  1  0  0  0  0  0  0
  191.0270  176.1580  134.9590 C   0  0  0  0  0  2  0  0  0  0  0  0
  191.7150  175.0070  134.3460 C   0  0  0  0  0  2  0  0  0  0  0  0
  191.3710  172.6130  134.3460 C   0  0  1  0  0  3  0  0  0  0  0  0
  192.5040  172.6910  135.4290 C   0  0  1  0  0  3  0  0  0  0  0  0
  191.4560  171.7890  135.5340 O   0  0  0  0  0  0  0  0  0  0  0  0
  193.9510  170.7450  134.4520 O   0  0  0  0  0  1  0  0  0  0  0  0
  193.8790  172.1740  134.7780 C   0  0  2  0  0  3  0  0  0  0  0  0
  195.2310  172.6410  135.4260 C   0  0  0  0  0  2  0  0  0  0  0  0
  196.5430  174.2530  134.3480 O   0  0  0  0  0  1  0  0  0  0  0  0
  195.5640  174.1160  135.3580 C   0  0  2  0  0  3  0  0  0  0  0  0
  196.1690  174.4650  136.7060 C   0  0  0  0  0  2  0  0  0  0  0  0
  194.0680  176.5660  136.9260 O   0  0  0  0  0  0  0  0  0  0  0  0
  195.1740  174.6650  137.7520 N   0  0  0  0  0  0  0  0  0  0  0  0
  195.5460  174.2300  139.0840 C   0  0  0  0  0  1  0  0  0  0  0  0
  194.0180  175.4930  137.5650 C   0  0  0  0  0  0  0  0  0  0  0  0
  192.7180  175.0020  138.0330 C   0  0  0  0  0  1  0  0  0  0  0  0
  1 36  1  0  0  0  0
  1  2  2  0  0  0  0
  2 10  1  0  0  0  0
  3  6  1  0  0  0  0
  4  2  1  0  0  0  0
  4  5  1  0  0  0  0
  6  5  2  0  0  0  0
  7  4  2  0  0  0  0
  8  7  1  0  0  0  0
  8  3  2  0  0  0  0
  9  3  1  0  0  0  0
 10 11  2  0  0  0  0
 10 12  1  0  0  0  0
 12 13  2  0  0  0  0
 13 14  2  0  0  0  0
 14 15  1  0  0  0  0
 15 20  1  0  0  0  0
 16 17  1  0  0  0  0
 17 19  1  0  0  0  0
 17 21  1  0  0  0  0
 18 16  1  0  0  0  0
 18 15  2  0  0  0  0
 19 23  2  0  0  0  0
 20 21  2  0  0  0  0
 20 22  1  0  0  0  0
 21 26  1  0  0  0  0
 26 24  1  0  0  0  0
 26 25  1  0  0  0  0
 27 28  2  0  0  0  0
 27 19  1  0  0  0  0
 29 35  1  0  0  0  0
 30 33  1  0  0  0  0
 31 33  1  0  0  0  0
 31 32  2  0  0  0  0
 32 34  1  0  0  0  0
 33 29  2  0  0  0  0
 34 35  2  0  0  0  0
 35 27  1  0  0  0  0
 37 43  1  0  0  0  0
 38 36  1  0  0  0  0
 39 37  2  0  0  0  0
 39 41  1  0  0  0  0
 40 43  1  0  0  0  0
 41 42  2  0  0  0  0
 42 38  1  0  0  0  0
 43 38  2  0  0  0  0
 44 47  1  6  0  0  0
 44 45  1  0  0  0  0
 45 41  1  0  0  0  0
 46 49  1  1  0  0  0
 46 44  1  0  0  0  0
 48 45  1  0  0  0  0
 49 48  1  0  0  0  0
 50 46  1  0  0  0  0
 50 51  1  0  0  0  0
 50 52  1  1  0  0  0
 51 54  1  6  0  0  0
 51 52  1  0  0  0  0
 54 53  1  1  0  0  0
 54 55  1  0  0  0  0
 57 56  1  6  0  0  0
 57 55  1  0  0  0  0
 57 58  1  0  0  0  0
 58 60  1  0  0  0  0
 59 62  2  0  0  0  0
 60 61  1  0  0  0  0
 62 60  1  0  0  0  0
 62 63  1  0  0  0  0
M  END
>  <MODEL>
8

>  <REMARK>
 VINA RESULT:      -5.8      2.791      8.238
  Name = 
  16 active torsions:
  status: ('A' for Active; 'I' for Inactive)
    1  A    between atoms: C_1  and  C_47
    2  A    between atoms: C_3  and  C_39
    3  A    between atoms: C_3  and  C_54
    4  A    between atoms: C_6  and  C_16
    5  A    between atoms: N_7  and  C_59
    6  A    between atoms: C_12  and  N_24
    7  A    between atoms: C_12  and  C_46
    8  A    between atoms: N_15  and  C_25
    9  A    between atoms: C_16  and  C_42
   10  A    between atoms: C_17  and  C_42
   11  A    between atoms: C_19  and  N_26
   12  A    between atoms: C_20  and  C_31
   13  A    between atoms: C_20  and  C_46
   14  A    between atoms: C_25  and  C_32
   15  A    between atoms: C_27  and  C_31
   16  A    between atoms: C_49  and  C_60
                            x       y       z     vdW  Elec       q    Type
                         _______ _______ _______ _____ _____    ______ ____

>  <TORSDO>
F 16

$$$$
=
 OpenBabel10232407453D

 63 68  0  0  1  0  0  0  0  0999 V2000
  187.7570  178.3880  138.2230 N   0  0  0  0  0  0  0  0  0  0  0  0
  188.8500  177.6610  138.3620 C   0  0  0  0  0  0  0  0  0  0  0  0
  189.8110  178.0610  142.5890 C   0  0  0  0  0  0  0  0  0  0  0  0
  189.1530  177.4590  139.8690 C   0  0  0  0  0  0  0  0  0  0  0  0
  188.2260  178.0040  140.7810 C   0  0  0  0  0  3  0  0  0  0  0  0
  188.5400  178.3180  142.0900 C   0  0  0  0  0  3  0  0  0  0  0  0
  190.4260  177.1200  140.4040 C   0  0  0  0  0  3  0  0  0  0  0  0
  190.7300  177.4010  141.7820 C   0  0  0  0  0  3  0  0  0  0  0  0
  190.1440  178.4250  143.9040 O   0  0  0  0  0  1  0  0  0  0  0  0
  189.5510  177.1140  137.1460 C   0  0  0  0  0  0  0  0  0  0  0  0
  189.5210  177.7160  136.0290 O   0  0  0  0  0  0  0  0  0  0  0  0
  190.2950  175.8640  137.1510 C   0  0  0  0  0  3  0  0  0  0  0  0
  190.7820  175.3420  136.0220 C   0  0  0  0  0  0  0  0  0  0  0  0
  191.2780  174.7690  134.8940 C   0  0  0  0  0  3  0  0  0  0  0  0
  192.4800  173.9040  134.9730 C   0  0  0  0  0  0  0  0  0  0  0  0
  195.0040  173.8240  135.0530 C   0  0  0  0  0  2  0  0  0  0  0  0
  194.8830  172.4200  135.4700 N   0  0  0  0  0  0  0  0  0  0  0  0
  193.6520  174.4940  134.8900 C   0  0  0  0  0  3  0  0  0  0  0  0
  196.1700  171.8620  135.7390 C   0  0  0  0  0  0  0  0  0  0  0  0
  192.4090  172.4000  135.2260 C   0  0  0  0  0  0  0  0  0  0  0  0
  193.5710  171.7400  135.5680 C   0  0  0  0  0  0  0  0  0  0  0  0
  191.1000  171.7600  135.2900 C   0  0  0  0  0  1  0  0  0  0  0  0
  196.2350  170.6780  136.2000 O   0  0  0  0  0  0  0  0  0  0  0  0
  193.7660  169.6370  137.0690 C   0  0  0  0  0  1  0  0  0  0  0  0
  192.5310  169.4450  134.9430 C   0  0  0  0  0  1  0  0  0  0  0  0
  193.6150  170.1780  135.6670 C   0  0  0  0  0  3  0  0  0  0  0  0
  197.4920  172.5880  135.5930 C   0  0  0  0  0  0  0  0  0  0  0  0
  197.9550  172.7610  134.4400 O   0  0  0  0  0  0  0  0  0  0  0  0
  197.8930  174.2970  137.4570 C   0  0  0  0  0  3  0  0  0  0  0  0
  198.2280  175.8750  139.2870 N   0  0  0  0  0  1  0  0  0  0  0  0
  199.8030  174.0910  138.9010 C   0  0  0  0  0  3  0  0  0  0  0  0
  200.2120  172.9370  138.2450 C   0  0  0  0  0  3  0  0  0  0  0  0
  198.6280  174.7570  138.5350 C   0  0  0  0  0  0  0  0  0  0  0  0
  199.4640  172.4540  137.1750 C   0  0  0  0  0  3  0  0  0  0  0  0
  198.2830  173.1290  136.7640 C   0  0  0  0  0  0  0  0  0  0  0  0
  186.7610  178.7910  137.1860 C   0  0  0  0  0  2  0  0  0  0  0  0
  183.8680  176.2670  137.0350 C   0  0  0  0  0  3  0  0  0  0  0  0
  185.3980  178.1220  137.5160 C   0  0  0  0  0  0  0  0  0  0  0  0
  183.2700  176.4870  138.2330 C   0  0  0  0  0  3  0  0  0  0  0  0
  185.3160  176.9720  135.3800 F   0  0  0  0  0  0  0  0  0  0  0  0
  183.5880  177.5660  139.0370 C   0  0  0  0  0  0  0  0  0  0  0  0
  184.6870  178.3600  138.6880 C   0  0  0  0  0  3  0  0  0  0  0  0
  184.9330  177.1390  136.6700 C   0  0  0  0  0  0  0  0  0  0  0  0
  183.3380  177.7200  141.6430 C   0  0  2  0  0  3  0  0  0  0  0  0
  182.8860  177.7270  140.2290 N   0  0  0  0  0  0  0  0  0  0  0  0
  182.7350  178.9170  142.1070 N   0  0  1  0  0  0  0  0  0  0  0  0
  184.8650  177.7420  141.9310 C   0  0  0  0  0  1  0  0  0  0  0  0
  181.5880  178.4380  140.1430 C   0  0  0  0  0  2  0  0  0  0  0  0
  181.4290  179.0410  141.4790 C   0  0  0  0  0  2  0  0  0  0  0  0
  182.7030  178.9990  143.5340 C   0  0  1  0  0  3  0  0  0  0  0  0
  184.0970  179.6420  143.8620 C   0  0  1  0  0  3  0  0  0  0  0  0
  182.9070  180.2850  144.1670 O   0  0  0  0  0  0  0  0  0  0  0  0
  184.4890  179.1580  146.4010 O   0  0  0  0  0  1  0  0  0  0  0  0
  184.8050  178.7800  145.0190 C   0  0  2  0  0  3  0  0  0  0  0  0
  186.3400  178.4760  144.8880 C   0  0  0  0  0  2  0  0  0  0  0  0
  185.9740  177.4110  146.9400 O   0  0  0  0  0  1  0  0  0  0  0  0
  187.0050  177.7380  146.0300 C   0  0  2  0  0  3  0  0  0  0  0  0
  187.9540  178.7350  146.6700 C   0  0  0  0  0  2  0  0  0  0  0  0
  189.3750  176.1330  146.3770 O   0  0  0  0  0  0  0  0  0  0  0  0
  188.9310  178.1160  147.5560 N   0  0  0  0  0  0  0  0  0  0  0  0
  188.8100  178.4310  148.9660 C   0  0  0  0  0  1  0  0  0  0  0  0
  189.7820  177.0420  147.1310 C   0  0  0  0  0  0  0  0  0  0  0  0
  191.2020  177.0850  147.4950 C   0  0  0  0  0  1  0  0  0  0  0  0
  1  2  2  0  0  0  0
  2  4  1  0  0  0  0
  3  9  1  0  0  0  0
  4  7  2  0  0  0  0
  4  5  1  0  0  0  0
  5  6  2  0  0  0  0
  6  3  1  0  0  0  0
  7  8  1  0  0  0  0
  8  3  2  0  0  0  0
 10 12  1  0  0  0  0
 10  2  1  0  0  0  0
 11 10  2  0  0  0  0
 13 12  2  0  0  0  0
 14 15  1  0  0  0  0
 14 13  2  0  0  0  0
 15 20  1  0  0  0  0
 16 17  1  0  0  0  0
 17 21  1  0  0  0  0
 17 19  1  0  0  0  0
 18 15  2  0  0  0  0
 18 16  1  0  0  0  0
 19 23  2  0  0  0  0
 20 22  1  0  0  0  0
 20 21  2  0  0  0  0
 21 26  1  0  0  0  0
 25 26  1  0  0  0  0
 26 24  1  0  0  0  0
 27 19  1  0  0  0  0
 27 35  1  0  0  0  0
 28 27  2  0  0  0  0
 29 33  1  0  0  0  0
 32 31  1  0  0  0  0
 33 31  2  0  0  0  0
 33 30  1  0  0  0  0
 34 32  2  0  0  0  0
 35 34  1  0  0  0  0
 35 29  2  0  0  0  0
 36 38  1  0  0  0  0
 36  1  1  0  0  0  0
 37 39  1  0  0  0  0
 38 42  2  0  0  0  0
 39 41  2  0  0  0  0
 40 43  1  0  0  0  0
 41 45  1  0  0  0  0
 42 41  1  0  0  0  0
 43 37  2  0  0  0  0
 43 38  1  0  0  0  0
 44 47  1  6  0  0  0
 44 46  1  0  0  0  0
 45 44  1  0  0  0  0
 46 49  1  1  0  0  0
 46 50  1  0  0  0  0
 48 45  1  0  0  0  0
 48 49  1  0  0  0  0
 50 51  1  0  0  0  0
 50 52  1  6  0  0  0
 51 52  1  0  0  0  0
 51 54  1  1  0  0  0
 54 53  1  1  0  0  0
 55 54  1  0  0  0  0
 55 57  1  0  0  0  0
 57 58  1  0  0  0  0
 57 56  1  1  0  0  0
 58 60  1  0  0  0  0
 59 62  2  0  0  0  0
 60 61  1  0  0  0  0
 62 63  1  0  0  0  0
 62 60  1  0  0  0  0
M  END
>  <MODEL>
9

>  <REMARK>
 VINA RESULT:      -5.8      3.313     12.437
  Name = 
  16 active torsions:
  status: ('A' for Active; 'I' for Inactive)
    1  A    between atoms: C_1  and  C_47
    2  A    between atoms: C_3  and  C_39
    3  A    between atoms: C_3  and  C_54
    4  A    between atoms: C_6  and  C_16
    5  A    between atoms: N_7  and  C_59
    6  A    between atoms: C_12  and  N_24
    7  A    between atoms: C_12  and  C_46
    8  A    between atoms: N_15  and  C_25
    9  A    between atoms: C_16  and  C_42
   10  A    between atoms: C_17  and  C_42
   11  A    between atoms: C_19  and  N_26
   12  A    between atoms: C_20  and  C_31
   13  A    between atoms: C_20  and  C_46
   14  A    between atoms: C_25  and  C_32
   15  A    between atoms: C_27  and  C_31
   16  A    between atoms: C_49  and  C_60
                            x       y       z     vdW  Elec       q    Type
                         _______ _______ _______ _____ _____    ______ ____

>  <TORSDO>
F 16

$$$$
