=
 OpenBabel10232411043D

 39 42  0  0  1  0  0  0  0  0999 V2000
  184.5600  177.6920  141.9810 N   0  0  0  0  0  2  0  0  0  0  0  0
  186.9800  178.0500  142.2970 C   0  0  0  0  0  0  0  0  0  0  0  0
  183.7140  178.6340  141.2620 C   0  0  2  0  0  3  0  0  0  0  0  0
  187.1450  178.4900  140.9130 C   0  0  0  0  0  3  0  0  0  0  0  0
  188.0780  178.3880  138.6810 C   0  0  0  0  0  2  0  0  0  0  0  0
  182.1580  179.3040  143.1760 N   0  0  0  0  0  2  0  0  0  0  0  0
  188.1570  178.0990  140.1470 C   0  0  0  0  0  0  0  0  0  0  0  0
  187.9140  177.2850  142.8840 C   0  0  0  0  0  3  0  0  0  0  0  0
  186.8100  177.7440  138.1050 C   0  0  1  0  0  3  0  0  0  0  0  0
  181.3710  178.0890  141.3600 O   0  0  0  0  0  0  0  0  0  0  0  0
  184.0170  178.7080  144.6480 C   0  0  0  0  0  2  0  0  0  0  0  0
  185.6330  178.6780  138.1410 C   0  0  0  0  0  3  0  0  0  0  0  0
  184.6450  178.4820  138.9810 C   0  0  0  0  0  0  0  0  0  0  0  0
  182.3510  178.6690  141.9070 C   0  0  0  0  0  0  0  0  0  0  0  0
  185.6210  178.1290  142.8310 C   0  0  0  0  0  0  0  0  0  0  0  0
  185.3870  178.5900  144.0650 C   0  0  0  0  0  3  0  0  0  0  0  0
  190.1250  176.7820  139.9860 O   0  0  0  0  0  0  0  0  0  0  0  0
  183.2460  179.8390  143.9840 C   0  0  0  0  0  2  0  0  0  0  0  0
  189.2250  176.9430  142.2050 C   0  0  1  0  0  3  0  0  0  0  0  0
  189.2140  177.2410  140.7220 C   0  0  0  0  0  0  0  0  0  0  0  0
  183.6490  178.2650  139.8050 C   0  0  0  0  0  3  0  0  0  0  0  0
  187.0510  177.1740  136.7470 C   0  0  0  0  0  0  0  0  0  0  0  0
  186.0850  176.9110  135.9730 O   0  0  0  0  0  0  0  0  0  0  0  0
  188.3970  176.9990  136.3130 N   0  0  0  0  0  2  0  0  0  0  0  0
  188.7470  176.4460  135.0120 C   0  0  0  0  0  2  0  0  0  0  0  0
  188.5320  174.0880  134.6410 O   0  0  0  0  0  0  0  0  0  0  0  0
  189.2000  175.0310  135.1620 C   0  0  0  0  0  0  0  0  0  0  0  0
  190.3600  174.7630  135.8960 O   0  0  0  0  0  0  0  0  0  0  0  0
  190.3540  173.8740  137.0070 C   0  0  0  0  0  1  0  0  0  0  0  0
  190.3240  177.6340  142.8580 N   0  0  0  0  0  2  0  0  0  0  0  0
  189.7670  178.2110  144.0760 C   0  0  0  0  0  2  0  0  0  0  0  0
  191.5330  176.9010  145.2410 C   0  0  0  0  0  3  0  0  0  0  0  0
  192.0230  176.2030  146.3500 C   0  0  0  0  0  3  0  0  0  0  0  0
  191.2320  176.0590  147.4920 C   0  0  0  0  0  3  0  0  0  0  0  0
  189.9450  176.6120  147.5270 C   0  0  0  0  0  3  0  0  0  0  0  0
  190.2480  177.4580  145.2690 C   0  0  0  0  0  0  0  0  0  0  0  0
  189.4460  177.3050  146.4160 C   0  0  0  0  0  0  0  0  0  0  0  0
  187.6110  177.9080  147.8690 N   0  0  0  0  0  1  0  0  0  0  0  0
  188.0670  177.8800  146.4850 C   0  0  0  0  0  2  0  0  0  0  0  0
  1 15  1  0  0  0  0
  2 15  1  0  0  0  0
  2  8  2  0  0  0  0
  3 21  1  6  0  0  0
  3 14  1  0  0  0  0
  3  1  1  0  0  0  0
  4  2  1  0  0  0  0
  5  7  1  0  0  0  0
  6 18  1  0  0  0  0
  7 20  1  0  0  0  0
  7  4  2  0  0  0  0
  9 22  1  6  0  0  0
  9 12  1  0  0  0  0
  9  5  1  0  0  0  0
 10 14  2  0  0  0  0
 12 13  2  0  0  0  0
 13 21  2  0  0  0  0
 14  6  1  0  0  0  0
 15 16  2  0  0  0  0
 16 11  1  0  0  0  0
 17 20  2  0  0  0  0
 18 11  1  0  0  0  0
 19 30  1  1  0  0  0
 19  8  1  0  0  0  0
 20 19  1  0  0  0  0
 23 22  2  0  0  0  0
 24 22  1  0  0  0  0
 25 27  1  0  0  0  0
 25 24  1  0  0  0  0
 26 27  2  0  0  0  0
 27 28  1  0  0  0  0
 28 29  1  0  0  0  0
 30 31  1  0  0  0  0
 31 36  1  0  0  0  0
 32 36  2  0  0  0  0
 32 33  1  0  0  0  0
 33 34  2  0  0  0  0
 34 35  1  0  0  0  0
 36 37  1  0  0  0  0
 37 39  1  0  0  0  0
 37 35  2  0  0  0  0
 39 38  1  0  0  0  0
M  END
>  <MODEL>
1

>  <REMARK>
 VINA RESULT:      -9.1      0.000      0.000
  Name = 
  8 active torsions:
  status: ('A' for Active; 'I' for Inactive)
    1  A    between atoms: N_3  and  C_8
    2  A    between atoms: N_3  and  C_30
    3  A    between atoms: C_8  and  C_35
    4  A    between atoms: C_10  and  C_31
    5  A    between atoms: C_10  and  N_37
    6  A    between atoms: O_15  and  C_31
    7  A    between atoms: C_17  and  C_23
    8  A    between atoms: C_27  and  C_39
                            x       y       z     vdW  Elec       q    Type
                         _______ _______ _______ _____ _____    ______ ____

>  <TORSDO>
F 8

$$$$
=
 OpenBabel10232411043D

 39 42  0  0  1  0  0  0  0  0999 V2000
  188.5440  176.8510  144.2590 N   0  0  0  0  0  2  0  0  0  0  0  0
  188.5380  177.9740  142.0630 C   0  0  0  0  0  0  0  0  0  0  0  0
  188.3420  177.5690  145.5100 C   0  0  2  0  0  3  0  0  0  0  0  0
  187.3750  178.7830  142.4270 C   0  0  0  0  0  3  0  0  0  0  0  0
  185.1130  179.6050  142.1640 C   0  0  0  0  0  2  0  0  0  0  0  0
  190.6090  177.1090  146.5970 N   0  0  0  0  0  2  0  0  0  0  0  0
  186.3600  178.9990  141.5990 C   0  0  0  0  0  0  0  0  0  0  0  0
  188.6620  177.4810  140.8210 C   0  0  0  0  0  3  0  0  0  0  0  0
  184.5830  178.7130  143.2940 C   0  0  1  0  0  3  0  0  0  0  0  0
  188.6560  176.2000  147.4650 O   0  0  0  0  0  0  0  0  0  0  0  0
  191.4490  176.8780  144.3130 C   0  0  0  0  0  2  0  0  0  0  0  0
  185.1350  179.1100  144.6350 C   0  0  0  0  0  3  0  0  0  0  0  0
  186.0190  178.3580  145.2470 C   0  0  0  0  0  0  0  0  0  0  0  0
  189.1880  176.9370  146.5860 C   0  0  0  0  0  0  0  0  0  0  0  0
  189.2940  177.4110  143.1810 C   0  0  0  0  0  0  0  0  0  0  0  0
  190.6320  177.4230  143.1870 C   0  0  0  0  0  3  0  0  0  0  0  0
  185.4260  178.5820  139.4570 O   0  0  0  0  0  0  0  0  0  0  0  0
  191.3480  177.7780  145.5350 C   0  0  0  0  0  2  0  0  0  0  0  0
  187.6910  177.8280  139.7110 C   0  0  1  0  0  3  0  0  0  0  0  0
  186.4200  178.4710  140.2200 C   0  0  0  0  0  0  0  0  0  0  0  0
  186.8810  177.5890  145.8650 C   0  0  0  0  0  3  0  0  0  0  0  0
  183.0930  178.6390  143.2840 C   0  0  0  0  0  0  0  0  0  0  0  0
  182.4380  178.6070  144.3650 O   0  0  0  0  0  0  0  0  0  0  0  0
  182.4200  178.6780  142.0280 N   0  0  0  0  0  2  0  0  0  0  0  0
  180.9710  178.6060  141.9000 C   0  0  0  0  0  2  0  0  0  0  0  0
  180.1860  180.6490  142.8760 O   0  0  0  0  0  0  0  0  0  0  0  0
  180.3950  179.9820  141.8200 C   0  0  0  0  0  0  0  0  0  0  0  0
  180.0780  180.5130  140.5650 O   0  0  0  0  0  0  0  0  0  0  0  0
  180.7240  180.0680  139.3800 C   0  0  0  0  0  1  0  0  0  0  0  0
  188.3370  178.6800  138.7260 N   0  0  0  0  0  2  0  0  0  0  0  0
  189.6660  178.1160  138.5190 C   0  0  0  0  0  2  0  0  0  0  0  0
  188.9280  178.0100  136.1450 C   0  0  0  0  0  3  0  0  0  0  0  0
  189.0080  177.4870  134.8500 C   0  0  0  0  0  3  0  0  0  0  0  0
  189.9260  176.4760  134.5590 C   0  0  0  0  0  3  0  0  0  0  0  0
  190.7670  175.9810  135.5650 C   0  0  0  0  0  3  0  0  0  0  0  0
  189.7660  177.5220  137.1560 C   0  0  0  0  0  0  0  0  0  0  0  0
  190.6850  176.4940  136.8660 C   0  0  0  0  0  0  0  0  0  0  0  0
  191.5290  174.4860  137.9150 N   0  0  0  0  0  1  0  0  0  0  0  0
  191.5940  175.9430  137.9180 C   0  0  0  0  0  2  0  0  0  0  0  0
  1  3  1  0  0  0  0
  2  4  1  0  0  0  0
  2 15  1  0  0  0  0
  3 21  1  1  0  0  0
  3 14  1  0  0  0  0
  5  9  1  0  0  0  0
  7  5  1  0  0  0  0
  7  4  2  0  0  0  0
  8  2  2  0  0  0  0
  9 22  1  1  0  0  0
  9 12  1  0  0  0  0
 11 18  1  0  0  0  0
 12 13  2  0  0  0  0
 13 21  2  0  0  0  0
 14  6  1  0  0  0  0
 14 10  2  0  0  0  0
 15 16  2  0  0  0  0
 15  1  1  0  0  0  0
 16 11  1  0  0  0  0
 17 20  2  0  0  0  0
 18  6  1  0  0  0  0
 19 30  1  6  0  0  0
 19 20  1  0  0  0  0
 19  8  1  0  0  0  0
 20  7  1  0  0  0  0
 22 23  2  0  0  0  0
 24 22  1  0  0  0  0
 25 24  1  0  0  0  0
 27 25  1  0  0  0  0
 27 26  2  0  0  0  0
 28 27  1  0  0  0  0
 29 28  1  0  0  0  0
 31 30  1  0  0  0  0
 32 36  1  0  0  0  0
 33 32  2  0  0  0  0
 34 33  1  0  0  0  0
 34 35  2  0  0  0  0
 35 37  1  0  0  0  0
 36 31  1  0  0  0  0
 37 36  2  0  0  0  0
 37 39  1  0  0  0  0
 38 39  1  0  0  0  0
M  END
>  <MODEL>
2

>  <REMARK>
 VINA RESULT:      -9.0      2.569      8.271
  Name = 
  8 active torsions:
  status: ('A' for Active; 'I' for Inactive)
    1  A    between atoms: N_3  and  C_8
    2  A    between atoms: N_3  and  C_30
    3  A    between atoms: C_8  and  C_35
    4  A    between atoms: C_10  and  C_31
    5  A    between atoms: C_10  and  N_37
    6  A    between atoms: O_15  and  C_31
    7  A    between atoms: C_17  and  C_23
    8  A    between atoms: C_27  and  C_39
                            x       y       z     vdW  Elec       q    Type
                         _______ _______ _______ _____ _____    ______ ____

>  <TORSDO>
F 8

$$$$
=
 OpenBabel10232411043D

 39 42  0  0  1  0  0  0  0  0999 V2000
  183.9410  177.6220  141.5740 N   0  0  0  0  0  2  0  0  0  0  0  0
  186.1980  178.1010  142.4480 C   0  0  0  0  0  0  0  0  0  0  0  0
  183.2420  178.5210  140.6670 C   0  0  2  0  0  3  0  0  0  0  0  0
  186.6610  178.5520  141.1360 C   0  0  0  0  0  3  0  0  0  0  0  0
  188.0980  178.5010  139.1880 C   0  0  0  0  0  2  0  0  0  0  0  0
  181.2480  179.1080  142.1550 N   0  0  0  0  0  2  0  0  0  0  0  0
  187.8440  178.2130  140.6340 C   0  0  0  0  0  0  0  0  0  0  0  0
  187.0040  177.3830  143.2450 C   0  0  0  0  0  3  0  0  0  0  0  0
  187.0350  177.7950  138.3360 C   0  0  1  0  0  3  0  0  0  0  0  0
  180.9720  177.8580  140.2160 O   0  0  0  0  0  0  0  0  0  0  0  0
  182.7350  178.6040  144.0280 C   0  0  0  0  0  2  0  0  0  0  0  0
  185.8380  178.6680  138.0850 C   0  0  0  0  0  3  0  0  0  0  0  0
  184.6900  178.4210  138.6710 C   0  0  0  0  0  0  0  0  0  0  0  0
  181.7660  178.4860  140.9730 C   0  0  0  0  0  0  0  0  0  0  0  0
  184.7480  178.1100  142.6460 C   0  0  0  0  0  0  0  0  0  0  0  0
  184.2080  178.5570  143.7850 C   0  0  0  0  0  3  0  0  0  0  0  0
  189.8570  176.9980  140.9540 O   0  0  0  0  0  0  0  0  0  0  0  0
  182.0870  179.6960  143.1900 C   0  0  0  0  0  2  0  0  0  0  0  0
  188.4530  177.1100  142.8970 C   0  0  1  0  0  3  0  0  0  0  0  0
  188.7770  177.4100  141.4500 C   0  0  0  0  0  0  0  0  0  0  0  0
  183.5410  178.1520  139.2390 C   0  0  0  0  0  3  0  0  0  0  0  0
  187.6170  177.2400  137.0790 C   0  0  0  0  0  0  0  0  0  0  0  0
  187.1100  177.5150  135.9530 O   0  0  0  0  0  0  0  0  0  0  0  0
  188.8010  176.4520  137.1690 N   0  0  0  0  0  2  0  0  0  0  0  0
  189.4490  175.8560  136.0090 C   0  0  0  0  0  2  0  0  0  0  0  0
  191.7290  175.8330  135.2720 O   0  0  0  0  0  0  0  0  0  0  0  0
  190.9200  175.7490  136.2430 C   0  0  0  0  0  0  0  0  0  0  0  0
  191.3880  175.5420  137.5450 O   0  0  0  0  0  0  0  0  0  0  0  0
  192.3380  176.4130  138.1460 C   0  0  0  0  0  1  0  0  0  0  0  0
  189.3320  177.8530  143.7840 N   0  0  0  0  0  2  0  0  0  0  0  0
  189.7440  176.9130  144.8200 C   0  0  0  0  0  2  0  0  0  0  0  0
  187.8860  177.7440  146.2510 C   0  0  0  0  0  3  0  0  0  0  0  0
  187.3620  178.1430  147.4850 C   0  0  0  0  0  3  0  0  0  0  0  0
  188.1740  178.1510  148.6210 C   0  0  0  0  0  3  0  0  0  0  0  0
  189.5170  177.7600  148.5250 C   0  0  0  0  0  3  0  0  0  0  0  0
  189.2260  177.3500  146.1470 C   0  0  0  0  0  0  0  0  0  0  0  0
  190.0490  177.3680  147.2900 C   0  0  0  0  0  0  0  0  0  0  0  0
  191.6190  175.5520  147.5800 N   0  0  0  0  0  1  0  0  0  0  0  0
  191.4870  176.9590  147.2210 C   0  0  0  0  0  2  0  0  0  0  0  0
  1 15  1  0  0  0  0
  2 15  1  0  0  0  0
  2  8  2  0  0  0  0
  3 21  1  6  0  0  0
  3 14  1  0  0  0  0
  3  1  1  0  0  0  0
  4  2  1  0  0  0  0
  5  7  1  0  0  0  0
  6 18  1  0  0  0  0
  7  4  2  0  0  0  0
  7 20  1  0  0  0  0
  9 22  1  6  0  0  0
  9  5  1  0  0  0  0
 10 14  2  0  0  0  0
 12  9  1  0  0  0  0
 12 13  2  0  0  0  0
 13 21  2  0  0  0  0
 14  6  1  0  0  0  0
 15 16  2  0  0  0  0
 16 11  1  0  0  0  0
 17 20  2  0  0  0  0
 18 11  1  0  0  0  0
 19  8  1  0  0  0  0
 19 30  1  1  0  0  0
 20 19  1  0  0  0  0
 22 24  1  0  0  0  0
 23 22  2  0  0  0  0
 25 27  1  0  0  0  0
 25 24  1  0  0  0  0
 26 27  2  0  0  0  0
 27 28  1  0  0  0  0
 28 29  1  0  0  0  0
 30 31  1  0  0  0  0
 31 36  1  0  0  0  0
 32 33  1  0  0  0  0
 33 34  2  0  0  0  0
 35 34  1  0  0  0  0
 36 32  2  0  0  0  0
 36 37  1  0  0  0  0
 37 35  2  0  0  0  0
 39 37  1  0  0  0  0
 39 38  1  0  0  0  0
M  END
>  <MODEL>
3

>  <REMARK>
 VINA RESULT:      -8.8      1.428      2.016
  Name = 
  8 active torsions:
  status: ('A' for Active; 'I' for Inactive)
    1  A    between atoms: N_3  and  C_8
    2  A    between atoms: N_3  and  C_30
    3  A    between atoms: C_8  and  C_35
    4  A    between atoms: C_10  and  C_31
    5  A    between atoms: C_10  and  N_37
    6  A    between atoms: O_15  and  C_31
    7  A    between atoms: C_17  and  C_23
    8  A    between atoms: C_27  and  C_39
                            x       y       z     vdW  Elec       q    Type
                         _______ _______ _______ _____ _____    ______ ____

>  <TORSDO>
F 8

$$$$
=
 OpenBabel10232411043D

 39 42  0  0  1  0  0  0  0  0999 V2000
  188.6930  176.6730  144.4250 N   0  0  0  0  0  2  0  0  0  0  0  0
  189.0990  177.6960  142.2170 C   0  0  0  0  0  0  0  0  0  0  0  0
  188.3030  177.4520  145.5920 C   0  0  2  0  0  3  0  0  0  0  0  0
  187.9170  178.5490  142.3420 C   0  0  0  0  0  3  0  0  0  0  0  0
  185.7610  179.4140  141.6610 C   0  0  0  0  0  2  0  0  0  0  0  0
  190.3350  176.9860  147.0710 N   0  0  0  0  0  2  0  0  0  0  0  0
  187.0660  178.7530  141.3430 C   0  0  0  0  0  0  0  0  0  0  0  0
  189.4170  177.1440  141.0360 C   0  0  0  0  0  3  0  0  0  0  0  0
  185.0170  178.5880  142.7180 C   0  0  1  0  0  3  0  0  0  0  0  0
  188.2340  176.1660  147.6260 O   0  0  0  0  0  0  0  0  0  0  0  0
  191.5450  176.6310  144.9770 C   0  0  0  0  0  2  0  0  0  0  0  0
  185.3450  179.0310  144.1160 C   0  0  0  0  0  3  0  0  0  0  0  0
  186.0850  178.2860  144.9020 C   0  0  0  0  0  0  0  0  0  0  0  0
  188.9310  176.8490  146.8230 C   0  0  0  0  0  0  0  0  0  0  0  0
  189.6340  177.1650  143.4700 C   0  0  0  0  0  0  0  0  0  0  0  0
  190.9510  177.1440  143.7070 C   0  0  0  0  0  3  0  0  0  0  0  0
  186.5000  178.2620  139.0920 O   0  0  0  0  0  0  0  0  0  0  0  0
  191.2660  177.5880  146.1260 C   0  0  0  0  0  2  0  0  0  0  0  0
  188.6620  177.4640  139.7620 C   0  0  1  0  0  3  0  0  0  0  0  0
  187.3440  178.1610  140.0180 C   0  0  0  0  0  0  0  0  0  0  0  0
  186.8040  177.5250  145.6900 C   0  0  0  0  0  3  0  0  0  0  0  0
  183.5490  178.5510  142.4540 C   0  0  0  0  0  0  0  0  0  0  0  0
  182.7180  178.7910  143.3770 O   0  0  0  0  0  0  0  0  0  0  0  0
  183.1050  178.3090  141.1220 N   0  0  0  0  0  2  0  0  0  0  0  0
  181.6980  178.2450  140.7520 C   0  0  0  0  0  2  0  0  0  0  0  0
  180.3950  180.2560  140.7170 O   0  0  0  0  0  0  0  0  0  0  0  0
  181.2680  179.5400  140.1440 C   0  0  0  0  0  0  0  0  0  0  0  0
  181.8330  179.9390  138.9280 O   0  0  0  0  0  0  0  0  0  0  0  0
  181.6380  181.2480  138.4070 C   0  0  0  0  0  1  0  0  0  0  0  0
  189.4940  178.2540  138.8700 N   0  0  0  0  0  2  0  0  0  0  0  0
  189.4110  177.6050  137.5660 C   0  0  0  0  0  2  0  0  0  0  0  0
  191.6970  176.6530  137.8170 C   0  0  0  0  0  3  0  0  0  0  0  0
  192.5980  175.5840  137.7900 C   0  0  0  0  0  3  0  0  0  0  0  0
  192.1540  174.3020  137.4570 C   0  0  0  0  0  3  0  0  0  0  0  0
  190.8040  174.0870  137.1450 C   0  0  0  0  0  3  0  0  0  0  0  0
  190.3460  176.4460  137.5080 C   0  0  0  0  0  0  0  0  0  0  0  0
  189.8990  175.1560  137.1620 C   0  0  0  0  0  0  0  0  0  0  0  0
  188.2770  174.9740  135.3780 N   0  0  0  0  0  1  0  0  0  0  0  0
  188.4660  174.8940  136.8220 C   0  0  0  0  0  2  0  0  0  0  0  0
  1  3  1  0  0  0  0
  2  4  1  0  0  0  0
  2 15  1  0  0  0  0
  3 21  1  1  0  0  0
  3 14  1  0  0  0  0
  5  9  1  0  0  0  0
  7  5  1  0  0  0  0
  7  4  2  0  0  0  0
  8  2  2  0  0  0  0
  9 22  1  6  0  0  0
  9 12  1  0  0  0  0
 11 18  1  0  0  0  0
 12 13  2  0  0  0  0
 13 21  2  0  0  0  0
 14  6  1  0  0  0  0
 14 10  2  0  0  0  0
 15 16  2  0  0  0  0
 15  1  1  0  0  0  0
 16 11  1  0  0  0  0
 17 20  2  0  0  0  0
 18  6  1  0  0  0  0
 19 30  1  6  0  0  0
 19 20  1  0  0  0  0
 19  8  1  0  0  0  0
 20  7  1  0  0  0  0
 22 23  2  0  0  0  0
 24 22  1  0  0  0  0
 25 24  1  0  0  0  0
 27 26  2  0  0  0  0
 27 25  1  0  0  0  0
 28 27  1  0  0  0  0
 29 28  1  0  0  0  0
 31 30  1  0  0  0  0
 33 32  1  0  0  0  0
 34 33  2  0  0  0  0
 35 37  2  0  0  0  0
 35 34  1  0  0  0  0
 36 31  1  0  0  0  0
 36 32  2  0  0  0  0
 37 36  1  0  0  0  0
 38 39  1  0  0  0  0
 39 37  1  0  0  0  0
M  END
>  <MODEL>
4

>  <REMARK>
 VINA RESULT:      -8.8      2.332      7.637
  Name = 
  8 active torsions:
  status: ('A' for Active; 'I' for Inactive)
    1  A    between atoms: N_3  and  C_8
    2  A    between atoms: N_3  and  C_30
    3  A    between atoms: C_8  and  C_35
    4  A    between atoms: C_10  and  C_31
    5  A    between atoms: C_10  and  N_37
    6  A    between atoms: O_15  and  C_31
    7  A    between atoms: C_17  and  C_23
    8  A    between atoms: C_27  and  C_39
                            x       y       z     vdW  Elec       q    Type
                         _______ _______ _______ _____ _____    ______ ____

>  <TORSDO>
F 8

$$$$
=
 OpenBabel10232411043D

 39 42  0  0  1  0  0  0  0  0999 V2000
  185.3630  179.2570  142.4720 N   0  0  0  0  0  2  0  0  0  0  0  0
  187.2440  178.1190  141.3520 C   0  0  0  0  0  0  0  0  0  0  0  0
  184.4090  178.5520  143.3170 C   0  0  2  0  0  3  0  0  0  0  0  0
  187.5490  177.3400  142.5520 C   0  0  0  0  0  3  0  0  0  0  0  0
  188.9650  176.5710  144.3590 C   0  0  0  0  0  2  0  0  0  0  0  0
  182.2910  178.9650  141.9470 N   0  0  0  0  0  2  0  0  0  0  0  0
  188.7880  177.1430  142.9880 C   0  0  0  0  0  0  0  0  0  0  0  0
  188.2330  178.6000  140.5840 C   0  0  0  0  0  3  0  0  0  0  0  0
  188.2750  177.4830  145.3820 C   0  0  1  0  0  3  0  0  0  0  0  0
  182.5710  179.9270  144.0430 O   0  0  0  0  0  0  0  0  0  0  0  0
  183.7940  179.1610  140.0290 C   0  0  0  0  0  2  0  0  0  0  0  0
  186.8460  177.0820  145.6250 C   0  0  0  0  0  3  0  0  0  0  0  0
  185.8570  177.8170  145.1760 C   0  0  0  0  0  0  0  0  0  0  0  0
  183.0450  179.1720  143.1470 C   0  0  0  0  0  0  0  0  0  0  0  0
  185.8910  178.6710  141.2820 C   0  0  0  0  0  0  0  0  0  0  0  0
  185.1840  178.6280  140.1470 C   0  0  0  0  0  3  0  0  0  0  0  0
  191.0980  177.5680  142.6480 O   0  0  0  0  0  0  0  0  0  0  0  0
  182.8120  178.2710  140.7770 C   0  0  0  0  0  2  0  0  0  0  0  0
  189.6890  178.2690  140.8360 C   0  0  1  0  0  3  0  0  0  0  0  0
  189.9270  177.6600  142.2000 C   0  0  0  0  0  0  0  0  0  0  0  0
  184.8730  178.5700  144.7480 C   0  0  0  0  0  3  0  0  0  0  0  0
  189.0650  177.5920  146.6430 C   0  0  0  0  0  0  0  0  0  0  0  0
  188.5570  178.1010  147.6840 O   0  0  0  0  0  0  0  0  0  0  0  0
  190.3800  177.0450  146.6690 N   0  0  0  0  0  2  0  0  0  0  0  0
  191.2410  177.1010  147.8430 C   0  0  0  0  0  2  0  0  0  0  0  0
  192.3850  175.3170  146.7250 O   0  0  0  0  0  0  0  0  0  0  0  0
  192.2900  176.0420  147.7600 C   0  0  0  0  0  0  0  0  0  0  0  0
  193.1540  175.8550  148.8440 O   0  0  0  0  0  0  0  0  0  0  0  0
  193.4840  176.9180  149.7290 C   0  0  0  0  0  1  0  0  0  0  0  0
  190.1940  177.3950  139.7900 N   0  0  0  0  0  2  0  0  0  0  0  0
  189.5190  177.8060  138.5640 C   0  0  0  0  0  2  0  0  0  0  0  0
  190.0480  175.5290  137.7110 C   0  0  0  0  0  3  0  0  0  0  0  0
  189.7330  174.3850  136.9710 C   0  0  0  0  0  3  0  0  0  0  0  0
  188.5280  174.3150  136.2680 C   0  0  0  0  0  3  0  0  0  0  0  0
  187.6340  175.3940  136.3010 C   0  0  0  0  0  3  0  0  0  0  0  0
  189.1580  176.6110  137.7500 C   0  0  0  0  0  0  0  0  0  0  0  0
  187.9480  176.5470  137.0330 C   0  0  0  0  0  0  0  0  0  0  0  0
  185.6300  177.1830  136.7800 N   0  0  0  0  0  1  0  0  0  0  0  0
  186.9740  177.6820  137.0450 C   0  0  0  0  0  2  0  0  0  0  0  0
  1  3  1  0  0  0  0
  2  4  1  0  0  0  0
  3 21  1  1  0  0  0
  4  7  2  0  0  0  0
  5  9  1  0  0  0  0
  6 14  1  0  0  0  0
  7  5  1  0  0  0  0
  8 19  1  0  0  0  0
  8  2  2  0  0  0  0
  9 12  1  0  0  0  0
  9 22  1  1  0  0  0
 11 16  1  0  0  0  0
 11 18  1  0  0  0  0
 13 12  2  0  0  0  0
 14  3  1  0  0  0  0
 14 10  2  0  0  0  0
 15  2  1  0  0  0  0
 15  1  1  0  0  0  0
 16 15  2  0  0  0  0
 18  6  1  0  0  0  0
 19 30  1  6  0  0  0
 19 20  1  0  0  0  0
 20 17  2  0  0  0  0
 20  7  1  0  0  0  0
 21 13  2  0  0  0  0
 22 24  1  0  0  0  0
 22 23  2  0  0  0  0
 24 25  1  0  0  0  0
 26 27  2  0  0  0  0
 27 25  1  0  0  0  0
 27 28  1  0  0  0  0
 28 29  1  0  0  0  0
 31 30  1  0  0  0  0
 32 36  1  0  0  0  0
 33 32  2  0  0  0  0
 34 35  2  0  0  0  0
 34 33  1  0  0  0  0
 35 37  1  0  0  0  0
 36 31  1  0  0  0  0
 37 39  1  0  0  0  0
 37 36  2  0  0  0  0
 38 39  1  0  0  0  0
M  END
>  <MODEL>
5

>  <REMARK>
 VINA RESULT:      -8.7      2.832      7.818
  Name = 
  8 active torsions:
  status: ('A' for Active; 'I' for Inactive)
    1  A    between atoms: N_3  and  C_8
    2  A    between atoms: N_3  and  C_30
    3  A    between atoms: C_8  and  C_35
    4  A    between atoms: C_10  and  C_31
    5  A    between atoms: C_10  and  N_37
    6  A    between atoms: O_15  and  C_31
    7  A    between atoms: C_17  and  C_23
    8  A    between atoms: C_27  and  C_39
                            x       y       z     vdW  Elec       q    Type
                         _______ _______ _______ _____ _____    ______ ____

>  <TORSDO>
F 8

$$$$
=
 OpenBabel10232411043D

 39 42  0  0  1  0  0  0  0  0999 V2000
  187.2660  178.8200  139.8160 N   0  0  0  0  0  2  0  0  0  0  0  0
  186.3640  178.2880  142.0500 C   0  0  0  0  0  0  0  0  0  0  0  0
  186.9740  178.0150  138.6380 C   0  0  2  0  0  3  0  0  0  0  0  0
  185.0420  177.9960  141.4980 C   0  0  0  0  0  3  0  0  0  0  0  0
  182.6490  178.2910  141.2800 C   0  0  0  0  0  2  0  0  0  0  0  0
  189.3460  177.2290  138.1020 N   0  0  0  0  0  2  0  0  0  0  0  0
  183.9160  178.4100  142.0680 C   0  0  0  0  0  0  0  0  0  0  0  0
  186.4860  178.9270  143.2240 C   0  0  0  0  0  3  0  0  0  0  0  0
  182.7930  179.0680  139.9650 C   0  0  1  0  0  3  0  0  0  0  0  0
  188.2160  178.6820  136.6860 O   0  0  0  0  0  0  0  0  0  0  0  0
  189.7910  177.5470  140.4840 C   0  0  0  0  0  2  0  0  0  0  0  0
  183.3210  178.2060  138.8530 C   0  0  0  0  0  3  0  0  0  0  0  0
  184.5430  178.3650  138.4010 C   0  0  0  0  0  0  0  0  0  0  0  0
  188.1870  177.9890  137.7430 C   0  0  0  0  0  0  0  0  0  0  0  0
  187.4750  178.2310  141.0990 C   0  0  0  0  0  0  0  0  0  0  0  0
  188.6350  177.6490  141.4250 C   0  0  0  0  0  3  0  0  0  0  0  0
  182.9280  179.6190  143.8550 O   0  0  0  0  0  0  0  0  0  0  0  0
  189.4980  176.5440  139.3790 C   0  0  0  0  0  2  0  0  0  0  0  0
  185.2900  179.2650  144.0900 C   0  0  1  0  0  3  0  0  0  0  0  0
  183.9750  179.1350  143.3540 C   0  0  0  0  0  0  0  0  0  0  0  0
  185.7540  178.5470  137.9370 C   0  0  0  0  0  3  0  0  0  0  0  0
  181.5290  179.7700  139.5990 C   0  0  0  0  0  0  0  0  0  0  0  0
  180.4210  179.4080  140.0890 O   0  0  0  0  0  0  0  0  0  0  0  0
  181.6070  180.9050  138.7410 N   0  0  0  0  0  2  0  0  0  0  0  0
  180.4380  181.6610  138.3140 C   0  0  0  0  0  2  0  0  0  0  0  0
  180.7100  182.0040  135.9580 O   0  0  0  0  0  0  0  0  0  0  0  0
  180.7750  182.4970  137.1230 C   0  0  0  0  0  0  0  0  0  0  0  0
  181.1760  183.8230  137.3160 O   0  0  0  0  0  0  0  0  0  0  0  0
  181.0900  184.7890  136.2750 C   0  0  0  0  0  1  0  0  0  0  0  0
  185.2900  178.4440  145.2890 N   0  0  0  0  0  2  0  0  0  0  0  0
  186.3820  177.4910  145.1220 C   0  0  0  0  0  2  0  0  0  0  0  0
  186.9610  178.1220  147.4580 C   0  0  0  0  0  3  0  0  0  0  0  0
  187.8780  178.2850  148.5010 C   0  0  0  0  0  3  0  0  0  0  0  0
  189.2300  177.9980  148.2960 C   0  0  0  0  0  3  0  0  0  0  0  0
  189.6690  177.5490  147.0430 C   0  0  0  0  0  3  0  0  0  0  0  0
  187.3910  177.6710  146.2030 C   0  0  0  0  0  0  0  0  0  0  0  0
  188.7550  177.3920  145.9920 C   0  0  0  0  0  0  0  0  0  0  0  0
  190.7140  176.8770  144.6720 N   0  0  0  0  0  1  0  0  0  0  0  0
  189.2560  176.9140  144.6670 C   0  0  0  0  0  2  0  0  0  0  0  0
  1 15  1  0  0  0  0
  2  8  2  0  0  0  0
  3 21  1  6  0  0  0
  3  1  1  0  0  0  0
  4  2  1  0  0  0  0
  4  7  2  0  0  0  0
  5  7  1  0  0  0  0
  6 18  1  0  0  0  0
  7 20  1  0  0  0  0
  8 19  1  0  0  0  0
  9 22  1  6  0  0  0
  9  5  1  0  0  0  0
 10 14  2  0  0  0  0
 11 16  1  0  0  0  0
 12  9  1  0  0  0  0
 13 12  2  0  0  0  0
 14  6  1  0  0  0  0
 14  3  1  0  0  0  0
 15 16  2  0  0  0  0
 15  2  1  0  0  0  0
 18 11  1  0  0  0  0
 19 30  1  1  0  0  0
 20 17  2  0  0  0  0
 20 19  1  0  0  0  0
 21 13  2  0  0  0  0
 22 23  2  0  0  0  0
 24 22  1  0  0  0  0
 25 24  1  0  0  0  0
 26 27  2  0  0  0  0
 27 28  1  0  0  0  0
 27 25  1  0  0  0  0
 29 28  1  0  0  0  0
 31 30  1  0  0  0  0
 31 36  1  0  0  0  0
 32 33  1  0  0  0  0
 34 33  2  0  0  0  0
 35 34  1  0  0  0  0
 36 32  2  0  0  0  0
 37 36  1  0  0  0  0
 37 35  2  0  0  0  0
 39 38  1  0  0  0  0
 39 37  1  0  0  0  0
M  END
>  <MODEL>
6

>  <REMARK>
 VINA RESULT:      -8.6      2.907      6.549
  Name = 
  8 active torsions:
  status: ('A' for Active; 'I' for Inactive)
    1  A    between atoms: N_3  and  C_8
    2  A    between atoms: N_3  and  C_30
    3  A    between atoms: C_8  and  C_35
    4  A    between atoms: C_10  and  C_31
    5  A    between atoms: C_10  and  N_37
    6  A    between atoms: O_15  and  C_31
    7  A    between atoms: C_17  and  C_23
    8  A    between atoms: C_27  and  C_39
                            x       y       z     vdW  Elec       q    Type
                         _______ _______ _______ _____ _____    ______ ____

>  <TORSDO>
F 8

$$$$
=
 OpenBabel10232411043D

 39 42  0  0  1  0  0  0  0  0999 V2000
  189.0190  176.2330  137.6170 N   0  0  0  0  0  2  0  0  0  0  0  0
  189.4080  177.3930  139.7590 C   0  0  0  0  0  0  0  0  0  0  0  0
  189.6010  176.6860  136.3610 C   0  0  2  0  0  3  0  0  0  0  0  0
  190.8310  177.5590  139.4660 C   0  0  0  0  0  3  0  0  0  0  0  0
  193.1980  177.2860  139.8920 C   0  0  0  0  0  2  0  0  0  0  0  0
  187.4430  177.2220  135.1000 N   0  0  0  0  0  2  0  0  0  0  0  0
  191.7820  177.3540  140.3700 C   0  0  0  0  0  0  0  0  0  0  0  0
  188.9990  177.1030  141.0040 C   0  0  0  0  0  3  0  0  0  0  0  0
  193.3290  176.1690  138.8480 C   0  0  1  0  0  3  0  0  0  0  0  0
  188.8130  175.4650  134.4420 O   0  0  0  0  0  0  0  0  0  0  0  0
  186.4570  177.5670  137.3090 C   0  0  0  0  0  2  0  0  0  0  0  0
  193.0990  176.6710  137.4500 C   0  0  0  0  0  3  0  0  0  0  0  0
  192.0080  176.3560  136.7930 C   0  0  0  0  0  0  0  0  0  0  0  0
  188.6260  176.4260  135.2410 C   0  0  0  0  0  0  0  0  0  0  0  0
  188.5460  177.1510  138.6030 C   0  0  0  0  0  0  0  0  0  0  0  0
  187.3640  177.7650  138.4790 C   0  0  0  0  0  3  0  0  0  0  0  0
  192.2920  176.7210  142.5990 O   0  0  0  0  0  0  0  0  0  0  0  0
  187.0300  178.2300  136.0670 C   0  0  0  0  0  2  0  0  0  0  0  0
  189.9530  177.0560  142.1800 C   0  0  1  0  0  3  0  0  0  0  0  0
  191.4050  177.0150  141.7580 C   0  0  0  0  0  0  0  0  0  0  0  0
  190.9290  176.0170  136.1330 C   0  0  0  0  0  3  0  0  0  0  0  0
  194.6180  175.4300  138.9910 C   0  0  0  0  0  0  0  0  0  0  0  0
  195.3520  175.5990  140.0060 O   0  0  0  0  0  0  0  0  0  0  0  0
  194.9660  174.4760  137.9910 N   0  0  0  0  0  2  0  0  0  0  0  0
  196.2010  173.7040  138.0260 C   0  0  0  0  0  2  0  0  0  0  0  0
  197.5250  174.2140  136.0950 O   0  0  0  0  0  0  0  0  0  0  0  0
  197.2880  174.4440  137.3180 C   0  0  0  0  0  0  0  0  0  0  0  0
  198.0460  175.3810  138.0290 O   0  0  0  0  0  0  0  0  0  0  0  0
  198.7200  175.0380  139.2340 C   0  0  0  0  0  1  0  0  0  0  0  0
  189.7100  178.1790  143.0700 N   0  0  0  0  0  2  0  0  0  0  0  0
  189.6810  177.6220  144.4180 C   0  0  0  0  0  2  0  0  0  0  0  0
  187.2260  177.9190  144.1400 C   0  0  0  0  0  3  0  0  0  0  0  0
  185.9310  178.0390  144.6560 C   0  0  0  0  0  3  0  0  0  0  0  0
  185.7210  178.0040  146.0360 C   0  0  0  0  0  3  0  0  0  0  0  0
  186.8090  177.8530  146.9070 C   0  0  0  0  0  3  0  0  0  0  0  0
  188.3180  177.7650  145.0040 C   0  0  0  0  0  0  0  0  0  0  0  0
  188.1090  177.7420  146.3970 C   0  0  0  0  0  0  0  0  0  0  0  0
  189.0020  178.3770  148.5520 N   0  0  0  0  0  1  0  0  0  0  0  0
  189.2480  177.5840  147.3530 C   0  0  0  0  0  2  0  0  0  0  0  0
  1 15  1  0  0  0  0
  2  8  2  0  0  0  0
  3 21  1  6  0  0  0
  3  1  1  0  0  0  0
  4  2  1  0  0  0  0
  4  7  2  0  0  0  0
  5  7  1  0  0  0  0
  6 14  1  0  0  0  0
  6 18  1  0  0  0  0
  7 20  1  0  0  0  0
  8 19  1  0  0  0  0
  9 22  1  6  0  0  0
  9  5  1  0  0  0  0
 10 14  2  0  0  0  0
 11 16  1  0  0  0  0
 12  9  1  0  0  0  0
 13 12  2  0  0  0  0
 14  3  1  0  0  0  0
 15  2  1  0  0  0  0
 16 15  2  0  0  0  0
 18 11  1  0  0  0  0
 19 30  1  1  0  0  0
 20 19  1  0  0  0  0
 20 17  2  0  0  0  0
 21 13  2  0  0  0  0
 22 23  2  0  0  0  0
 24 25  1  0  0  0  0
 24 22  1  0  0  0  0
 26 27  2  0  0  0  0
 27 25  1  0  0  0  0
 27 28  1  0  0  0  0
 28 29  1  0  0  0  0
 30 31  1  0  0  0  0
 31 36  1  0  0  0  0
 32 33  2  0  0  0  0
 32 36  1  0  0  0  0
 33 34  1  0  0  0  0
 34 35  2  0  0  0  0
 36 37  2  0  0  0  0
 37 35  1  0  0  0  0
 37 39  1  0  0  0  0
 39 38  1  0  0  0  0
M  END
>  <MODEL>
7

>  <REMARK>
 VINA RESULT:      -8.5      3.598      6.506
  Name = 
  8 active torsions:
  status: ('A' for Active; 'I' for Inactive)
    1  A    between atoms: N_3  and  C_8
    2  A    between atoms: N_3  and  C_30
    3  A    between atoms: C_8  and  C_35
    4  A    between atoms: C_10  and  C_31
    5  A    between atoms: C_10  and  N_37
    6  A    between atoms: O_15  and  C_31
    7  A    between atoms: C_17  and  C_23
    8  A    between atoms: C_27  and  C_39
                            x       y       z     vdW  Elec       q    Type
                         _______ _______ _______ _____ _____    ______ ____

>  <TORSDO>
F 8

$$$$
=
 OpenBabel10232411043D

 39 42  0  0  1  0  0  0  0  0999 V2000
  183.9790  177.6620  141.6050 N   0  0  0  0  0  2  0  0  0  0  0  0
  186.2530  178.1170  142.4450 C   0  0  0  0  0  0  0  0  0  0  0  0
  183.2830  178.5600  140.6940 C   0  0  2  0  0  3  0  0  0  0  0  0
  186.7080  178.5430  141.1220 C   0  0  0  0  0  3  0  0  0  0  0  0
  188.1200  178.4440  139.1580 C   0  0  0  0  0  2  0  0  0  0  0  0
  181.3160  179.1980  142.1970 N   0  0  0  0  0  2  0  0  0  0  0  0
  187.8790  178.1800  140.6110 C   0  0  0  0  0  0  0  0  0  0  0  0
  187.0570  177.3970  143.2430 C   0  0  0  0  0  3  0  0  0  0  0  0
  187.0360  177.7440  138.3280 C   0  0  1  0  0  3  0  0  0  0  0  0
  180.9970  177.9270  140.2790 O   0  0  0  0  0  0  0  0  0  0  0  0
  182.8170  178.6950  144.0590 C   0  0  0  0  0  2  0  0  0  0  0  0
  185.8500  178.6330  138.0800 C   0  0  0  0  0  3  0  0  0  0  0  0
  184.7050  178.4110  138.6830 C   0  0  0  0  0  0  0  0  0  0  0  0
  181.8100  178.5520  141.0180 C   0  0  0  0  0  0  0  0  0  0  0  0
  184.8060  178.1510  142.6600 C   0  0  0  0  0  0  0  0  0  0  0  0
  184.2870  178.6210  143.8000 C   0  0  0  0  0  3  0  0  0  0  0  0
  189.8760  176.9380  140.9230 O   0  0  0  0  0  0  0  0  0  0  0  0
  182.1770  179.7860  143.2150 C   0  0  0  0  0  2  0  0  0  0  0  0
  188.4970  177.0960  142.8810 C   0  0  1  0  0  3  0  0  0  0  0  0
  188.8090  177.3720  141.4270 C   0  0  0  0  0  0  0  0  0  0  0  0
  183.5590  178.1680  139.2680 C   0  0  0  0  0  3  0  0  0  0  0  0
  187.5940  177.1630  137.0720 C   0  0  0  0  0  0  0  0  0  0  0  0
  187.7750  177.8850  136.0490 O   0  0  0  0  0  0  0  0  0  0  0  0
  187.9860  175.7930  137.0730 N   0  0  0  0  0  2  0  0  0  0  0  0
  188.5350  175.1230  135.9020 C   0  0  0  0  0  2  0  0  0  0  0  0
  187.9850  173.1630  134.6380 O   0  0  0  0  0  0  0  0  0  0  0  0
  187.5840  174.0800  135.4160 C   0  0  0  0  0  0  0  0  0  0  0  0
  186.2460  174.1390  135.8200 O   0  0  0  0  0  0  0  0  0  0  0  0
  185.2530  174.7790  135.0280 C   0  0  0  0  0  1  0  0  0  0  0  0
  189.3990  177.8380  143.7470 N   0  0  0  0  0  2  0  0  0  0  0  0
  189.8420  176.8930  144.7670 C   0  0  0  0  0  2  0  0  0  0  0  0
  187.9780  177.6720  146.2190 C   0  0  0  0  0  3  0  0  0  0  0  0
  187.4530  178.0400  147.4630 C   0  0  0  0  0  3  0  0  0  0  0  0
  188.2690  178.0350  148.5960 C   0  0  0  0  0  3  0  0  0  0  0  0
  189.6170  177.6630  148.4880 C   0  0  0  0  0  3  0  0  0  0  0  0
  189.3230  177.2970  146.1040 C   0  0  0  0  0  0  0  0  0  0  0  0
  190.1500  177.3020  147.2440 C   0  0  0  0  0  0  0  0  0  0  0  0
  191.7400  175.4960  147.4710 N   0  0  0  0  0  1  0  0  0  0  0  0
  191.5920  176.9130  147.1620 C   0  0  0  0  0  2  0  0  0  0  0  0
  1 15  1  0  0  0  0
  2 15  1  0  0  0  0
  2  8  2  0  0  0  0
  3 21  1  6  0  0  0
  3 14  1  0  0  0  0
  3  1  1  0  0  0  0
  4  2  1  0  0  0  0
  5  7  1  0  0  0  0
  6 18  1  0  0  0  0
  7  4  2  0  0  0  0
  7 20  1  0  0  0  0
  9 22  1  6  0  0  0
  9  5  1  0  0  0  0
 10 14  2  0  0  0  0
 12  9  1  0  0  0  0
 12 13  2  0  0  0  0
 13 21  2  0  0  0  0
 14  6  1  0  0  0  0
 15 16  2  0  0  0  0
 16 11  1  0  0  0  0
 17 20  2  0  0  0  0
 18 11  1  0  0  0  0
 19  8  1  0  0  0  0
 19 30  1  1  0  0  0
 20 19  1  0  0  0  0
 22 24  1  0  0  0  0
 23 22  2  0  0  0  0
 25 24  1  0  0  0  0
 26 27  2  0  0  0  0
 27 28  1  0  0  0  0
 27 25  1  0  0  0  0
 29 28  1  0  0  0  0
 30 31  1  0  0  0  0
 31 36  1  0  0  0  0
 32 33  1  0  0  0  0
 33 34  2  0  0  0  0
 35 34  1  0  0  0  0
 36 32  2  0  0  0  0
 36 37  1  0  0  0  0
 37 35  2  0  0  0  0
 39 37  1  0  0  0  0
 39 38  1  0  0  0  0
M  END
>  <MODEL>
8

>  <REMARK>
 VINA RESULT:      -8.5      1.437      2.131
  Name = 
  8 active torsions:
  status: ('A' for Active; 'I' for Inactive)
    1  A    between atoms: N_3  and  C_8
    2  A    between atoms: N_3  and  C_30
    3  A    between atoms: C_8  and  C_35
    4  A    between atoms: C_10  and  C_31
    5  A    between atoms: C_10  and  N_37
    6  A    between atoms: O_15  and  C_31
    7  A    between atoms: C_17  and  C_23
    8  A    between atoms: C_27  and  C_39
                            x       y       z     vdW  Elec       q    Type
                         _______ _______ _______ _____ _____    ______ ____

>  <TORSDO>
F 8

$$$$
=
 OpenBabel10232411043D

 39 42  0  0  1  0  0  0  0  0999 V2000
  188.6900  176.3770  137.1610 N   0  0  0  0  0  2  0  0  0  0  0  0
  187.1890  178.0660  138.1500 C   0  0  0  0  0  0  0  0  0  0  0  0
  190.1310  176.5640  137.0680 C   0  0  2  0  0  3  0  0  0  0  0  0
  188.1120  178.3070  139.2580 C   0  0  0  0  0  3  0  0  0  0  0  0
  188.7500  178.4050  141.5920 C   0  0  0  0  0  2  0  0  0  0  0  0
  190.3660  176.5340  134.5230 N   0  0  0  0  0  2  0  0  0  0  0  0
  187.7090  178.4360  140.5170 C   0  0  0  0  0  0  0  0  0  0  0  0
  185.8640  178.0520  138.3590 C   0  0  0  0  0  3  0  0  0  0  0  0
  189.5270  177.0850  141.5070 C   0  0  1  0  0  3  0  0  0  0  0  0
  191.2470  174.8270  135.8290 O   0  0  0  0  0  0  0  0  0  0  0  0
  188.0480  177.3080  134.4860 C   0  0  0  0  0  2  0  0  0  0  0  0
  190.7390  177.1970  140.6250 C   0  0  0  0  0  3  0  0  0  0  0  0
  190.7710  176.6130  139.4500 C   0  0  0  0  0  0  0  0  0  0  0  0
  190.6320  175.9300  135.7940 C   0  0  0  0  0  0  0  0  0  0  0  0
  187.7750  177.4530  136.9580 C   0  0  0  0  0  0  0  0  0  0  0  0
  187.4620  177.8870  135.7320 C   0  0  0  0  0  3  0  0  0  0  0  0
  185.8710  178.4340  142.0180 O   0  0  0  0  0  0  0  0  0  0  0  0
  189.5110  177.7000  134.3460 C   0  0  0  0  0  2  0  0  0  0  0  0
  185.2510  178.4010  139.7000 C   0  0  1  0  0  3  0  0  0  0  0  0
  186.2630  178.4130  140.8240 C   0  0  0  0  0  0  0  0  0  0  0  0
  190.8070  176.0060  138.2900 C   0  0  0  0  0  3  0  0  0  0  0  0
  189.8490  176.5480  142.8620 C   0  0  0  0  0  0  0  0  0  0  0  0
  190.4580  175.4480  142.9960 O   0  0  0  0  0  0  0  0  0  0  0  0
  189.5180  177.3380  144.0010 N   0  0  0  0  0  2  0  0  0  0  0  0
  189.7800  176.9100  145.3680 C   0  0  0  0  0  2  0  0  0  0  0  0
  187.6340  177.8900  145.7900 O   0  0  0  0  0  0  0  0  0  0  0  0
  188.6950  177.3940  146.2730 C   0  0  0  0  0  0  0  0  0  0  0  0
  188.8740  177.3030  147.6580 O   0  0  0  0  0  0  0  0  0  0  0  0
  188.0550  178.0270  148.5670 C   0  0  0  0  0  1  0  0  0  0  0  0
  184.5590  179.6770  139.6200 N   0  0  0  0  0  2  0  0  0  0  0  0
  183.1530  179.3860  139.8770 C   0  0  0  0  0  2  0  0  0  0  0  0
  181.9480  181.2860  138.8130 C   0  0  0  0  0  3  0  0  0  0  0  0
  181.1690  181.8350  137.7900 C   0  0  0  0  0  3  0  0  0  0  0  0
  180.7440  181.0350  136.7270 C   0  0  0  0  0  3  0  0  0  0  0  0
  181.0960  179.6780  136.6870 C   0  0  0  0  0  3  0  0  0  0  0  0
  182.3060  179.9310  138.7790 C   0  0  0  0  0  0  0  0  0  0  0  0
  181.8690  179.1210  137.7140 C   0  0  0  0  0  0  0  0  0  0  0  0
  182.7190  177.3470  136.3090 N   0  0  0  0  0  1  0  0  0  0  0  0
  182.2250  177.6700  137.6420 C   0  0  0  0  0  2  0  0  0  0  0  0
  2  8  2  0  0  0  0
  2  4  1  0  0  0  0
  3  1  1  0  0  0  0
  3 21  1  1  0  0  0
  4  7  2  0  0  0  0
  6 14  1  0  0  0  0
  7 20  1  0  0  0  0
  7  5  1  0  0  0  0
  8 19  1  0  0  0  0
  9  5  1  0  0  0  0
  9 22  1  1  0  0  0
 11 16  1  0  0  0  0
 12  9  1  0  0  0  0
 13 12  2  0  0  0  0
 14 10  2  0  0  0  0
 14  3  1  0  0  0  0
 15  1  1  0  0  0  0
 15  2  1  0  0  0  0
 16 15  2  0  0  0  0
 18 11  1  0  0  0  0
 18  6  1  0  0  0  0
 19 30  1  6  0  0  0
 19 20  1  0  0  0  0
 20 17  2  0  0  0  0
 21 13  2  0  0  0  0
 22 23  2  0  0  0  0
 22 24  1  0  0  0  0
 24 25  1  0  0  0  0
 25 27  1  0  0  0  0
 26 27  2  0  0  0  0
 27 28  1  0  0  0  0
 28 29  1  0  0  0  0
 30 31  1  0  0  0  0
 33 32  2  0  0  0  0
 34 33  1  0  0  0  0
 35 34  2  0  0  0  0
 35 37  1  0  0  0  0
 36 32  1  0  0  0  0
 36 31  1  0  0  0  0
 37 36  2  0  0  0  0
 38 39  1  0  0  0  0
 39 37  1  0  0  0  0
M  END
>  <MODEL>
9

>  <REMARK>
 VINA RESULT:      -8.1      2.912      9.425
  Name = 
  8 active torsions:
  status: ('A' for Active; 'I' for Inactive)
    1  A    between atoms: N_3  and  C_8
    2  A    between atoms: N_3  and  C_30
    3  A    between atoms: C_8  and  C_35
    4  A    between atoms: C_10  and  C_31
    5  A    between atoms: C_10  and  N_37
    6  A    between atoms: O_15  and  C_31
    7  A    between atoms: C_17  and  C_23
    8  A    between atoms: C_27  and  C_39
                            x       y       z     vdW  Elec       q    Type
                         _______ _______ _______ _____ _____    ______ ____

>  <TORSDO>
F 8

$$$$
