=
 OpenBabel10232411533D

 31 36  0  0  1  0  0  0  0  0999 V2000
  188.2310  176.3220  143.9620 N   0  0  0  0  0  0  0  0  0  0  0  0
  189.0220  175.9910  143.0000 C   0  0  0  0  0  3  0  0  0  0  0  0
  184.8560  178.5750  145.4800 C   0  0  0  0  0  0  0  0  0  0  0  0
  185.9720  178.2690  144.7600 C   0  0  0  0  0  0  0  0  0  0  0  0
  184.2370  178.8290  143.2340 C   0  0  1  0  0  3  0  0  0  0  0  0
  188.8640  178.4900  148.3890 C   0  0  0  0  0  1  0  0  0  0  0  0
  189.6070  177.1560  146.1210 S   0  0  0  0  0  0  0  0  0  0  0  0
  185.7290  178.4380  143.3120 C   0  0  0  0  0  2  0  0  0  0  0  0
  183.7050  178.9500  144.6300 C   0  0  2  0  0  3  0  0  0  0  0  0
  184.0300  180.0800  143.8510 O   0  0  0  0  0  0  0  0  0  0  0  0
  184.8570  178.4890  146.8370 N   0  0  0  0  0  0  0  0  0  0  0  0
  185.9700  178.1170  147.4850 N   0  0  0  0  0  0  0  0  0  0  0  0
  187.1130  177.8170  146.7980 C   0  0  0  0  0  0  0  0  0  0  0  0
  187.1330  177.8760  145.4190 C   0  0  0  0  0  0  0  0  0  0  0  0
  188.3750  177.4010  147.4520 C   0  0  2  0  0  3  0  0  0  0  0  0
  188.4150  177.5070  144.7690 C   0  0  2  0  0  3  0  0  0  0  0  0
  190.2120  176.8120  142.6100 C   0  0  0  0  0  2  0  0  0  0  0  0
  189.8590  177.6800  141.4190 C   0  0  0  0  0  2  0  0  0  0  0  0
  191.9970  177.4180  140.4650 O   0  0  0  0  0  0  0  0  0  0  0  0
  190.7910  177.3960  140.2810 C   0  0  0  0  0  0  0  0  0  0  0  0
  190.8820  175.8260  138.3570 C   0  0  0  0  0  2  0  0  0  0  0  0
  190.3850  175.6070  136.9670 C   0  0  0  0  0  3  0  0  0  0  0  0
  188.1070  176.3120  137.6870 C   0  0  1  0  0  3  0  0  0  0  0  0
  188.0530  177.8260  137.8330 C   0  0  1  0  0  0  0  0  0  0  0  0
  189.1070  175.8280  136.6570 C   0  0  0  0  0  0  0  0  0  0  0  0
  186.7460  178.3270  138.2190 N   0  0  0  0  0  1  0  0  0  0  0  0
  190.2630  177.1030  138.9110 C   0  0  1  0  0  3  0  0  0  0  0  0
  188.6800  175.6090  135.3550 O   0  0  0  0  0  1  0  0  0  0  0  0
  188.7250  177.0090  138.9300 C   0  0  2  0  0  3  0  0  0  0  0  0
  188.9460  180.0220  137.4750 O   0  0  0  0  0  1  0  0  0  0  0  0
  188.8990  178.7360  136.9370 C   0  0  0  0  0  2  0  0  0  0  0  0
  2  1  2  0  0  0  0
  3 11  1  0  0  0  0
  4 14  1  0  0  0  0
  4  3  2  0  0  0  0
  5  8  1  1  0  0  0
  5 10  1  0  0  0  0
  5  9  1  0  0  0  0
  7 15  1  0  0  0  0
  8  4  1  0  0  0  0
  9 10  1  1  0  0  0
  9  3  1  0  0  0  0
 11 12  2  0  0  0  0
 13 15  1  0  0  0  0
 13 12  1  0  0  0  0
 14 13  2  0  0  0  0
 15  6  1  1  0  0  0
 16  1  1  6  0  0  0
 16 14  1  0  0  0  0
 16  7  1  0  0  0  0
 17  2  1  0  0  0  0
 18 17  1  0  0  0  0
 20 19  2  0  0  0  0
 20 18  1  0  0  0  0
 21 27  1  0  0  0  0
 22 21  1  0  0  0  0
 23 25  1  6  0  0  0
 23 24  1  0  0  0  0
 23 29  1  0  0  0  0
 24 26  1  1  0  0  0
 24 29  1  0  0  0  0
 25 22  2  0  0  0  0
 27 29  1  0  0  0  0
 27 20  1  1  0  0  0
 28 25  1  0  0  0  0
 31 30  1  0  0  0  0
 31 24  1  0  0  0  0
M  END
>  <MODEL>
1

>  <REMARK>
 VINA RESULT:      -9.3      0.000      0.000
  Name = 
  6 active torsions:
  status: ('A' for Active; 'I' for Inactive)
    1  A    between atoms: C_2  and  C_5
    2  A    between atoms: C_2  and  C_10
    3  A    between atoms: N_3  and  C_31
    4  A    between atoms: C_5  and  C_14
    5  A    between atoms: C_10  and  C_25
    6  A    between atoms: C_18  and  C_19
                            x       y       z     vdW  Elec       q    Type
                         _______ _______ _______ _____ _____    ______ ____

>  <TORSDO>
F 6

$$$$
=
 OpenBabel10232411533D

 31 36  0  0  1  0  0  0  0  0999 V2000
  188.2940  176.3580  144.0080 N   0  0  0  0  0  0  0  0  0  0  0  0
  188.9780  176.1380  142.9390 C   0  0  0  0  0  3  0  0  0  0  0  0
  184.8680  178.5640  145.4790 C   0  0  0  0  0  0  0  0  0  0  0  0
  185.9980  178.2740  144.7760 C   0  0  0  0  0  0  0  0  0  0  0  0
  184.2820  178.8170  143.2230 C   0  0  1  0  0  3  0  0  0  0  0  0
  188.8290  178.5210  148.4510 C   0  0  0  0  0  1  0  0  0  0  0  0
  189.6250  177.2030  146.1910 S   0  0  0  0  0  0  0  0  0  0  0  0
  185.7770  178.4440  143.3240 C   0  0  0  0  0  2  0  0  0  0  0  0
  183.7250  178.9270  144.6110 C   0  0  2  0  0  3  0  0  0  0  0  0
  184.0490  180.0630  143.8410 O   0  0  0  0  0  0  0  0  0  0  0  0
  184.8480  178.4740  146.8350 N   0  0  0  0  0  0  0  0  0  0  0  0
  185.9540  178.1140  147.5000 N   0  0  0  0  0  0  0  0  0  0  0  0
  187.1120  177.8310  146.8310 C   0  0  0  0  0  0  0  0  0  0  0  0
  187.1540  177.8940  145.4520 C   0  0  0  0  0  0  0  0  0  0  0  0
  188.3690  177.4290  147.5040 C   0  0  2  0  0  3  0  0  0  0  0  0
  188.4500  177.5420  144.8220 C   0  0  2  0  0  3  0  0  0  0  0  0
  190.0020  177.1000  142.4200 C   0  0  0  0  0  2  0  0  0  0  0  0
  190.2040  176.8710  140.9360 C   0  0  0  0  0  2  0  0  0  0  0  0
  188.4730  178.4530  140.7200 O   0  0  0  0  0  0  0  0  0  0  0  0
  189.1860  177.6420  140.1520 C   0  0  0  0  0  0  0  0  0  0  0  0
  189.1100  178.7340  137.9220 C   0  0  0  0  0  2  0  0  0  0  0  0
  188.8670  178.4770  136.4720 C   0  0  0  0  0  3  0  0  0  0  0  0
  190.2490  176.4100  136.6230 C   0  0  1  0  0  3  0  0  0  0  0  0
  189.4550  175.3020  137.3020 C   0  0  1  0  0  0  0  0  0  0  0  0
  189.3920  177.4090  135.8710 C   0  0  0  0  0  0  0  0  0  0  0  0
  190.1780  174.0470  137.4010 N   0  0  0  0  0  1  0  0  0  0  0  0
  189.0170  177.4160  138.6820 C   0  0  1  0  0  3  0  0  0  0  0  0
  189.1500  177.2060  134.5200 O   0  0  0  0  0  1  0  0  0  0  0  0
  190.0580  176.4050  138.1640 C   0  0  2  0  0  3  0  0  0  0  0  0
  187.6230  174.4550  136.0090 O   0  0  0  0  0  1  0  0  0  0  0  0
  187.9350  175.2090  137.1410 C   0  0  0  0  0  2  0  0  0  0  0  0
  2  1  2  0  0  0  0
  3 11  1  0  0  0  0
  4 14  1  0  0  0  0
  4  3  2  0  0  0  0
  5  8  1  1  0  0  0
  5 10  1  0  0  0  0
  5  9  1  0  0  0  0
  7 15  1  0  0  0  0
  8  4  1  0  0  0  0
  9 10  1  1  0  0  0
  9  3  1  0  0  0  0
 11 12  2  0  0  0  0
 13 12  1  0  0  0  0
 13 15  1  0  0  0  0
 14 13  2  0  0  0  0
 15  6  1  1  0  0  0
 16  1  1  6  0  0  0
 16 14  1  0  0  0  0
 16  7  1  0  0  0  0
 17  2  1  0  0  0  0
 18 17  1  0  0  0  0
 20 19  2  0  0  0  0
 20 18  1  0  0  0  0
 21 27  1  0  0  0  0
 22 21  1  0  0  0  0
 23 25  1  6  0  0  0
 23 24  1  0  0  0  0
 23 29  1  0  0  0  0
 24 26  1  1  0  0  0
 24 29  1  0  0  0  0
 25 22  2  0  0  0  0
 27 20  1  1  0  0  0
 28 25  1  0  0  0  0
 29 27  1  0  0  0  0
 30 31  1  0  0  0  0
 31 24  1  0  0  0  0
M  END
>  <MODEL>
2

>  <REMARK>
 VINA RESULT:      -9.1      1.507      2.159
  Name = 
  6 active torsions:
  status: ('A' for Active; 'I' for Inactive)
    1  A    between atoms: C_2  and  C_5
    2  A    between atoms: C_2  and  C_10
    3  A    between atoms: N_3  and  C_31
    4  A    between atoms: C_5  and  C_14
    5  A    between atoms: C_10  and  C_25
    6  A    between atoms: C_18  and  C_19
                            x       y       z     vdW  Elec       q    Type
                         _______ _______ _______ _____ _____    ______ ____

>  <TORSDO>
F 6

$$$$
=
 OpenBabel10232411533D

 31 36  0  0  1  0  0  0  0  0999 V2000
  188.2010  176.4990  143.8680 N   0  0  0  0  0  0  0  0  0  0  0  0
  188.6360  176.4760  142.6550 C   0  0  0  0  0  3  0  0  0  0  0  0
  184.7420  178.5480  145.4810 C   0  0  0  0  0  0  0  0  0  0  0  0
  185.8720  178.3200  144.7530 C   0  0  0  0  0  0  0  0  0  0  0  0
  184.1270  178.9010  143.2470 C   0  0  1  0  0  3  0  0  0  0  0  0
  188.7340  178.4430  148.4100 C   0  0  0  0  0  1  0  0  0  0  0  0
  189.5360  177.2610  146.0790 S   0  0  0  0  0  0  0  0  0  0  0  0
  185.6310  178.5590  143.3150 C   0  0  0  0  0  2  0  0  0  0  0  0
  183.5830  178.9280  144.6440 C   0  0  2  0  0  3  0  0  0  0  0  0
  183.8720  180.1090  143.9300 O   0  0  0  0  0  0  0  0  0  0  0  0
  184.7380  178.3880  146.8310 N   0  0  0  0  0  0  0  0  0  0  0  0
  185.8600  178.0200  147.4660 N   0  0  0  0  0  0  0  0  0  0  0  0
  187.0160  177.7980  146.7730 C   0  0  0  0  0  0  0  0  0  0  0  0
  187.0420  177.9320  145.3990 C   0  0  0  0  0  0  0  0  0  0  0  0
  188.2890  177.3910  147.4130 C   0  0  2  0  0  3  0  0  0  0  0  0
  188.3400  177.6430  144.7390 C   0  0  2  0  0  3  0  0  0  0  0  0
  189.3210  177.6450  142.0180 C   0  0  0  0  0  2  0  0  0  0  0  0
  188.4690  178.1720  140.8810 C   0  0  0  0  0  2  0  0  0  0  0  0
  190.2740  177.7240  139.4350 O   0  0  0  0  0  0  0  0  0  0  0  0
  189.0610  177.7710  139.5640 C   0  0  0  0  0  0  0  0  0  0  0  0
  186.8240  178.1160  138.5400 C   0  0  0  0  0  2  0  0  0  0  0  0
  185.9580  177.7110  137.3940 C   0  0  0  0  0  3  0  0  0  0  0  0
  187.9040  177.9500  135.8580 C   0  0  1  0  0  3  0  0  0  0  0  0
  188.8390  176.7590  136.0150 C   0  0  1  0  0  0  0  0  0  0  0  0
  186.4530  177.6360  136.1580 C   0  0  0  0  0  0  0  0  0  0  0  0
  189.9880  176.8020  135.1280 N   0  0  0  0  0  1  0  0  0  0  0  0
  188.1850  177.4450  138.3960 C   0  0  1  0  0  3  0  0  0  0  0  0
  185.6150  177.2620  135.1170 O   0  0  0  0  0  1  0  0  0  0  0  0
  188.8650  177.8530  137.0750 C   0  0  2  0  0  3  0  0  0  0  0  0
  188.0860  174.6330  135.2040 O   0  0  0  0  0  1  0  0  0  0  0  0
  188.2970  175.3710  136.3690 C   0  0  0  0  0  2  0  0  0  0  0  0
  2  1  2  0  0  0  0
  3 11  1  0  0  0  0
  4 14  1  0  0  0  0
  4  3  2  0  0  0  0
  5  8  1  1  0  0  0
  5 10  1  0  0  0  0
  5  9  1  0  0  0  0
  7 15  1  0  0  0  0
  8  4  1  0  0  0  0
  9 10  1  1  0  0  0
  9  3  1  0  0  0  0
 11 12  2  0  0  0  0
 13 15  1  0  0  0  0
 13 12  1  0  0  0  0
 14 13  2  0  0  0  0
 15  6  1  1  0  0  0
 16  1  1  6  0  0  0
 16 14  1  0  0  0  0
 16  7  1  0  0  0  0
 17  2  1  0  0  0  0
 18 17  1  0  0  0  0
 19 20  2  0  0  0  0
 20 18  1  0  0  0  0
 22 21  1  0  0  0  0
 23 24  1  0  0  0  0
 23 25  1  1  0  0  0
 23 29  1  0  0  0  0
 24 26  1  6  0  0  0
 24 31  1  0  0  0  0
 24 29  1  0  0  0  0
 25 22  2  0  0  0  0
 27 21  1  0  0  0  0
 27 20  1  1  0  0  0
 28 25  1  0  0  0  0
 29 27  1  0  0  0  0
 30 31  1  0  0  0  0
M  END
>  <MODEL>
3

>  <REMARK>
 VINA RESULT:      -8.8      1.458      2.348
  Name = 
  6 active torsions:
  status: ('A' for Active; 'I' for Inactive)
    1  A    between atoms: C_2  and  C_5
    2  A    between atoms: C_2  and  C_10
    3  A    between atoms: N_3  and  C_31
    4  A    between atoms: C_5  and  C_14
    5  A    between atoms: C_10  and  C_25
    6  A    between atoms: C_18  and  C_19
                            x       y       z     vdW  Elec       q    Type
                         _______ _______ _______ _____ _____    ______ ____

>  <TORSDO>
F 6

$$$$
=
 OpenBabel10232411533D

 31 36  0  0  1  0  0  0  0  0999 V2000
  184.4930  179.2780  140.8600 N   0  0  0  0  0  0  0  0  0  0  0  0
  184.7610  179.0680  139.6180 C   0  0  0  0  0  3  0  0  0  0  0  0
  185.5090  178.4670  144.9930 C   0  0  0  0  0  0  0  0  0  0  0  0
  185.3120  178.2660  143.6600 C   0  0  0  0  0  0  0  0  0  0  0  0
  187.5740  177.7360  144.1600 C   0  0  1  0  0  3  0  0  0  0  0  0
  180.6760  178.3960  143.9190 C   0  0  0  0  0  1  0  0  0  0  0  0
  181.9280  178.7910  141.5200 S   0  0  0  0  0  0  0  0  0  0  0  0
  186.5380  177.7510  143.0150 C   0  0  0  0  0  2  0  0  0  0  0  0
  186.8910  178.1590  145.4250 C   0  0  2  0  0  3  0  0  0  0  0  0
  187.1900  176.8090  145.1510 O   0  0  0  0  0  0  0  0  0  0  0  0
  184.5080  178.9390  145.7830 N   0  0  0  0  0  0  0  0  0  0  0  0
  183.3030  179.1960  145.2560 N   0  0  0  0  0  0  0  0  0  0  0  0
  183.0620  178.9920  143.9270 C   0  0  0  0  0  0  0  0  0  0  0  0
  184.0670  178.5330  143.0980 C   0  0  0  0  0  0  0  0  0  0  0  0
  181.7540  179.2530  143.2830 C   0  0  2  0  0  3  0  0  0  0  0  0
  183.7090  178.3700  141.6670 C   0  0  2  0  0  3  0  0  0  0  0  0
  184.2970  177.8480  138.8830 C   0  0  0  0  0  2  0  0  0  0  0  0
  184.9240  177.8210  137.5040 C   0  0  0  0  0  2  0  0  0  0  0  0
  185.0650  175.5150  137.0430 O   0  0  0  0  0  0  0  0  0  0  0  0
  185.6750  176.5390  137.3050 C   0  0  0  0  0  0  0  0  0  0  0  0
  187.7210  175.2080  136.8410 C   0  0  0  0  0  2  0  0  0  0  0  0
  189.1970  175.1670  137.0610 C   0  0  0  0  0  3  0  0  0  0  0  0
  189.3310  177.5930  136.5110 C   0  0  1  0  0  3  0  0  0  0  0  0
  188.8350  178.4200  137.6890 C   0  0  1  0  0  0  0  0  0  0  0  0
  189.9400  176.2630  136.9070 C   0  0  0  0  0  0  0  0  0  0  0  0
  188.9110  179.8530  137.4650 N   0  0  0  0  0  1  0  0  0  0  0  0
  187.1650  176.4930  137.4440 C   0  0  1  0  0  3  0  0  0  0  0  0
  191.3100  176.1850  137.1150 O   0  0  0  0  0  1  0  0  0  0  0  0
  187.8100  177.7320  136.7950 C   0  0  2  0  0  3  0  0  0  0  0  0
  188.2160  178.6750  139.9900 O   0  0  0  0  0  1  0  0  0  0  0  0
  189.0310  177.9400  139.1290 C   0  0  0  0  0  2  0  0  0  0  0  0
  2  1  2  0  0  0  0
  3 11  1  0  0  0  0
  4  3  2  0  0  0  0
  5  8  1  6  0  0  0
  5 10  1  0  0  0  0
  5  9  1  0  0  0  0
  7 16  1  0  0  0  0
  7 15  1  0  0  0  0
  8  4  1  0  0  0  0
  9  3  1  6  0  0  0
 10  9  1  0  0  0  0
 12 11  2  0  0  0  0
 13 12  1  0  0  0  0
 14  4  1  0  0  0  0
 14 13  2  0  0  0  0
 15  6  1  1  0  0  0
 15 13  1  0  0  0  0
 16  1  1  6  0  0  0
 16 14  1  0  0  0  0
 17  2  1  0  0  0  0
 18 17  1  0  0  0  0
 19 20  2  0  0  0  0
 20 18  1  0  0  0  0
 21 22  1  0  0  0  0
 21 27  1  0  0  0  0
 23 29  1  0  0  0  0
 23 25  1  1  0  0  0
 23 24  1  0  0  0  0
 24 26  1  6  0  0  0
 24 31  1  0  0  0  0
 25 22  2  0  0  0  0
 25 28  1  0  0  0  0
 27 20  1  6  0  0  0
 29 27  1  0  0  0  0
 29 24  1  0  0  0  0
 31 30  1  0  0  0  0
M  END
>  <MODEL>
4

>  <REMARK>
 VINA RESULT:      -8.3      2.804      4.767
  Name = 
  6 active torsions:
  status: ('A' for Active; 'I' for Inactive)
    1  A    between atoms: C_2  and  C_5
    2  A    between atoms: C_2  and  C_10
    3  A    between atoms: N_3  and  C_31
    4  A    between atoms: C_5  and  C_14
    5  A    between atoms: C_10  and  C_25
    6  A    between atoms: C_18  and  C_19
                            x       y       z     vdW  Elec       q    Type
                         _______ _______ _______ _____ _____    ______ ____

>  <TORSDO>
F 6

$$$$
=
 OpenBabel10232411533D

 31 36  0  0  1  0  0  0  0  0999 V2000
  189.5870  176.1550  143.4080 N   0  0  0  0  0  0  0  0  0  0  0  0
  190.2020  176.1630  142.2760 C   0  0  0  0  0  3  0  0  0  0  0  0
  185.8350  178.0730  144.4160 C   0  0  0  0  0  0  0  0  0  0  0  0
  187.0790  177.8890  143.8900 C   0  0  0  0  0  0  0  0  0  0  0  0
  185.5930  178.4200  142.1110 C   0  0  1  0  0  3  0  0  0  0  0  0
  189.2780  178.0880  147.9760 C   0  0  0  0  0  1  0  0  0  0  0  0
  190.5020  176.9490  145.8130 S   0  0  0  0  0  0  0  0  0  0  0  0
  187.0760  178.1290  142.4310 C   0  0  0  0  0  2  0  0  0  0  0  0
  184.8210  178.4180  143.3960 C   0  0  2  0  0  3  0  0  0  0  0  0
  185.1850  179.6130  142.7420 O   0  0  0  0  0  0  0  0  0  0  0  0
  185.6100  177.9050  145.7470 N   0  0  0  0  0  0  0  0  0  0  0  0
  186.6200  177.5710  146.5610 N   0  0  0  0  0  0  0  0  0  0  0  0
  187.8840  177.3940  146.0730 C   0  0  0  0  0  0  0  0  0  0  0  0
  188.1370  177.5380  144.7230 C   0  0  0  0  0  0  0  0  0  0  0  0
  189.0440  177.0270  146.9180 C   0  0  2  0  0  3  0  0  0  0  0  0
  189.5360  177.2980  144.2920 C   0  0  2  0  0  3  0  0  0  0  0  0
  190.9190  177.3680  141.7510 C   0  0  0  0  0  2  0  0  0  0  0  0
  190.7820  177.4210  140.2430 C   0  0  0  0  0  2  0  0  0  0  0  0
  193.1230  177.4670  139.9900 O   0  0  0  0  0  0  0  0  0  0  0  0
  192.0660  177.0030  139.5940 C   0  0  0  0  0  0  0  0  0  0  0  0
  190.6780  175.9220  137.8390 C   0  0  0  0  0  2  0  0  0  0  0  0
  190.7080  174.9010  136.7510 C   0  0  0  0  0  3  0  0  0  0  0  0
  192.9110  175.7880  136.0000 C   0  0  1  0  0  3  0  0  0  0  0  0
  194.0100  175.3140  136.9400 C   0  0  1  0  0  0  0  0  0  0  0  0
  191.7330  174.8390  135.9020 C   0  0  0  0  0  0  0  0  0  0  0  0
  195.3370  175.7600  136.5550 N   0  0  0  0  0  1  0  0  0  0  0  0
  192.0700  176.0380  138.4500 C   0  0  1  0  0  3  0  0  0  0  0  0
  191.7230  173.8800  134.8990 O   0  0  0  0  0  1  0  0  0  0  0  0
  193.1050  176.4550  137.3890 C   0  0  2  0  0  3  0  0  0  0  0  0
  194.5990  172.9910  136.8930 O   0  0  0  0  0  1  0  0  0  0  0  0
  193.9190  173.9540  137.6380 C   0  0  0  0  0  2  0  0  0  0  0  0
  2  1  2  0  0  0  0
  3 11  1  0  0  0  0
  4  3  2  0  0  0  0
  4 14  1  0  0  0  0
  5  8  1  1  0  0  0
  5 10  1  0  0  0  0
  5  9  1  0  0  0  0
  7 15  1  0  0  0  0
  8  4  1  0  0  0  0
  9 10  1  1  0  0  0
  9  3  1  0  0  0  0
 11 12  2  0  0  0  0
 13 12  1  0  0  0  0
 13 15  1  0  0  0  0
 14 13  2  0  0  0  0
 15  6  1  1  0  0  0
 16  1  1  6  0  0  0
 16 14  1  0  0  0  0
 16  7  1  0  0  0  0
 17  2  1  0  0  0  0
 18 17  1  0  0  0  0
 20 19  2  0  0  0  0
 20 18  1  0  0  0  0
 21 27  1  0  0  0  0
 22 21  1  0  0  0  0
 23 25  1  1  0  0  0
 23 24  1  0  0  0  0
 23 29  1  0  0  0  0
 24 26  1  6  0  0  0
 24 29  1  0  0  0  0
 24 31  1  0  0  0  0
 25 22  2  0  0  0  0
 27 20  1  1  0  0  0
 28 25  1  0  0  0  0
 29 27  1  0  0  0  0
 30 31  1  0  0  0  0
M  END
>  <MODEL>
5

>  <REMARK>
 VINA RESULT:      -8.1      2.578      3.450
  Name = 
  6 active torsions:
  status: ('A' for Active; 'I' for Inactive)
    1  A    between atoms: C_2  and  C_5
    2  A    between atoms: C_2  and  C_10
    3  A    between atoms: N_3  and  C_31
    4  A    between atoms: C_5  and  C_14
    5  A    between atoms: C_10  and  C_25
    6  A    between atoms: C_18  and  C_19
                            x       y       z     vdW  Elec       q    Type
                         _______ _______ _______ _____ _____    ______ ____

>  <TORSDO>
F 6

$$$$
=
 OpenBabel10232411533D

 31 36  0  0  1  0  0  0  0  0999 V2000
  185.6290  179.4660  144.6610 N   0  0  0  0  0  0  0  0  0  0  0  0
  184.6060  179.5670  143.8840 C   0  0  0  0  0  3  0  0  0  0  0  0
  189.4400  177.5350  143.9410 C   0  0  0  0  0  0  0  0  0  0  0  0
  188.0940  177.7450  143.9580 C   0  0  0  0  0  0  0  0  0  0  0  0
  188.7640  177.4270  141.6990 C   0  0  1  0  0  3  0  0  0  0  0  0
  187.6440  177.0920  148.5350 C   0  0  0  0  0  1  0  0  0  0  0  0
  185.7010  178.4160  147.1400 S   0  0  0  0  0  0  0  0  0  0  0  0
  187.5270  177.6530  142.5960 C   0  0  0  0  0  2  0  0  0  0  0  0
  189.9740  177.3150  142.5780 C   0  0  2  0  0  3  0  0  0  0  0  0
  189.3610  176.1840  142.0000 O   0  0  0  0  0  0  0  0  0  0  0  0
  190.1660  177.5740  145.0900 N   0  0  0  0  0  0  0  0  0  0  0  0
  189.5560  177.8030  146.2610 N   0  0  0  0  0  0  0  0  0  0  0  0
  188.2060  178.0020  146.3200 C   0  0  0  0  0  0  0  0  0  0  0  0
  187.4480  177.9890  145.1660 C   0  0  0  0  0  0  0  0  0  0  0  0
  187.4710  178.2580  147.5810 C   0  0  2  0  0  3  0  0  0  0  0  0
  185.9960  178.2410  145.3360 C   0  0  2  0  0  3  0  0  0  0  0  0
  183.6960  178.4150  143.5890 C   0  0  0  0  0  2  0  0  0  0  0  0
  182.2550  178.8790  143.6610 C   0  0  0  0  0  2  0  0  0  0  0  0
  180.5100  179.2870  142.1330 O   0  0  0  0  0  0  0  0  0  0  0  0
  181.6320  178.8380  142.2990 C   0  0  0  0  0  0  0  0  0  0  0  0
  181.6930  176.9330  140.7050 C   0  0  0  0  0  2  0  0  0  0  0  0
  182.4870  176.3260  139.5960 C   0  0  0  0  0  3  0  0  0  0  0  0
  182.7930  178.5880  138.5990 C   0  0  1  0  0  3  0  0  0  0  0  0
  183.8430  179.3640  139.3820 C   0  0  1  0  0  0  0  0  0  0  0  0
  182.9920  177.0860  138.6250 C   0  0  0  0  0  0  0  0  0  0  0  0
  184.1080  180.6860  138.8460 N   0  0  0  0  0  1  0  0  0  0  0  0
  182.3600  178.2330  141.1400 C   0  0  1  0  0  3  0  0  0  0  0  0
  183.7200  176.4850  137.6070 O   0  0  0  0  0  1  0  0  0  0  0  0
  182.4420  179.2300  139.9690 C   0  0  2  0  0  3  0  0  0  0  0  0
  186.1660  178.7860  139.2720 O   0  0  0  0  0  1  0  0  0  0  0  0
  185.0180  178.6460  140.0520 C   0  0  0  0  0  2  0  0  0  0  0  0
  2  1  2  0  0  0  0
  3  4  2  0  0  0  0
  3 11  1  0  0  0  0
  4 14  1  0  0  0  0
  5 10  1  0  0  0  0
  5  9  1  0  0  0  0
  5  8  1  1  0  0  0
  7 15  1  0  0  0  0
  8  4  1  0  0  0  0
  9 10  1  1  0  0  0
  9  3  1  0  0  0  0
 11 12  2  0  0  0  0
 12 13  1  0  0  0  0
 13 15  1  0  0  0  0
 14 16  1  0  0  0  0
 14 13  2  0  0  0  0
 15  6  1  1  0  0  0
 16  1  1  6  0  0  0
 16  7  1  0  0  0  0
 17 18  1  0  0  0  0
 17  2  1  0  0  0  0
 19 20  2  0  0  0  0
 20 18  1  0  0  0  0
 21 27  1  0  0  0  0
 22 21  1  0  0  0  0
 23 25  1  1  0  0  0
 23 24  1  0  0  0  0
 23 29  1  0  0  0  0
 24 26  1  6  0  0  0
 24 29  1  0  0  0  0
 24 31  1  0  0  0  0
 25 22  2  0  0  0  0
 27 20  1  1  0  0  0
 28 25  1  0  0  0  0
 29 27  1  0  0  0  0
 30 31  1  0  0  0  0
M  END
>  <MODEL>
6

>  <REMARK>
 VINA RESULT:      -7.9      3.091      5.886
  Name = 
  6 active torsions:
  status: ('A' for Active; 'I' for Inactive)
    1  A    between atoms: C_2  and  C_5
    2  A    between atoms: C_2  and  C_10
    3  A    between atoms: N_3  and  C_31
    4  A    between atoms: C_5  and  C_14
    5  A    between atoms: C_10  and  C_25
    6  A    between atoms: C_18  and  C_19
                            x       y       z     vdW  Elec       q    Type
                         _______ _______ _______ _____ _____    ______ ____

>  <TORSDO>
F 6

$$$$
=
 OpenBabel10232411533D

 31 36  0  0  1  0  0  0  0  0999 V2000
  185.8460  179.2720  142.1800 N   0  0  0  0  0  0  0  0  0  0  0  0
  185.3550  179.2520  140.9890 C   0  0  0  0  0  3  0  0  0  0  0  0
  189.0230  177.2220  144.2960 C   0  0  0  0  0  0  0  0  0  0  0  0
  187.9660  177.4290  143.4600 C   0  0  0  0  0  0  0  0  0  0  0  0
  189.7610  176.5460  142.1760 C   0  0  1  0  0  3  0  0  0  0  0  0
  184.8590  177.9640  146.8720 C   0  0  0  0  0  1  0  0  0  0  0  0
  184.3100  178.8890  144.3580 S   0  0  0  0  0  0  0  0  0  0  0  0
  188.2860  176.9930  142.0850 C   0  0  0  0  0  2  0  0  0  0  0  0
  190.2050  176.6620  143.6040 C   0  0  2  0  0  3  0  0  0  0  0  0
  189.8760  175.4210  143.0200 O   0  0  0  0  0  0  0  0  0  0  0  0
  188.9460  177.5530  145.6120 N   0  0  0  0  0  0  0  0  0  0  0  0
  187.8150  178.0730  146.1080 N   0  0  0  0  0  0  0  0  0  0  0  0
  186.7290  178.2800  145.3060 C   0  0  0  0  0  0  0  0  0  0  0  0
  186.7860  177.9730  143.9610 C   0  0  0  0  0  0  0  0  0  0  0  0
  185.4490  178.8490  145.7900 C   0  0  2  0  0  3  0  0  0  0  0  0
  185.5630  178.2600  143.1730 C   0  0  2  0  0  3  0  0  0  0  0  0
  184.4460  178.1650  140.5050 C   0  0  0  0  0  2  0  0  0  0  0  0
  184.0040  178.4700  139.0880 C   0  0  0  0  0  2  0  0  0  0  0  0
  183.4960  176.3520  138.1900 O   0  0  0  0  0  0  0  0  0  0  0  0
  184.2730  177.2930  138.2000 C   0  0  0  0  0  0  0  0  0  0  0  0
  185.1160  177.2710  135.8630 C   0  0  0  0  0  2  0  0  0  0  0  0
  186.3540  177.1520  135.0380 C   0  0  0  0  0  3  0  0  0  0  0  0
  187.5240  178.7000  136.6000 C   0  0  1  0  0  3  0  0  0  0  0  0
  187.8950  177.9650  137.8800 C   0  0  1  0  0  0  0  0  0  0  0  0
  187.4630  177.8110  135.3750 C   0  0  0  0  0  0  0  0  0  0  0  0
  188.6140  178.7880  138.8360 N   0  0  0  0  0  1  0  0  0  0  0  0
  185.4960  177.2460  137.3380 C   0  0  1  0  0  3  0  0  0  0  0  0
  188.5940  177.6800  134.5810 O   0  0  0  0  0  1  0  0  0  0  0  0
  186.4500  178.4050  137.6830 C   0  0  2  0  0  3  0  0  0  0  0  0
  189.4690  176.2640  138.4940 O   0  0  0  0  0  1  0  0  0  0  0  0
  188.2440  176.4740  137.8600 C   0  0  0  0  0  2  0  0  0  0  0  0
  2  1  2  0  0  0  0
  3 11  1  0  0  0  0
  4 14  1  0  0  0  0
  4  3  2  0  0  0  0
  5  8  1  1  0  0  0
  5 10  1  0  0  0  0
  5  9  1  0  0  0  0
  7 15  1  0  0  0  0
  8  4  1  0  0  0  0
  9 10  1  1  0  0  0
  9  3  1  0  0  0  0
 11 12  2  0  0  0  0
 13 15  1  0  0  0  0
 13 12  1  0  0  0  0
 14 13  2  0  0  0  0
 15  6  1  1  0  0  0
 16  1  1  6  0  0  0
 16 14  1  0  0  0  0
 16  7  1  0  0  0  0
 17  2  1  0  0  0  0
 18 17  1  0  0  0  0
 19 20  2  0  0  0  0
 20 18  1  0  0  0  0
 21 27  1  0  0  0  0
 22 25  2  0  0  0  0
 22 21  1  0  0  0  0
 23 25  1  6  0  0  0
 23 29  1  0  0  0  0
 23 24  1  0  0  0  0
 24 26  1  1  0  0  0
 27 29  1  0  0  0  0
 27 20  1  1  0  0  0
 28 25  1  0  0  0  0
 29 24  1  0  0  0  0
 31 24  1  0  0  0  0
 31 30  1  0  0  0  0
M  END
>  <MODEL>
7

>  <REMARK>
 VINA RESULT:      -7.9      2.726      4.686
  Name = 
  6 active torsions:
  status: ('A' for Active; 'I' for Inactive)
    1  A    between atoms: C_2  and  C_5
    2  A    between atoms: C_2  and  C_10
    3  A    between atoms: N_3  and  C_31
    4  A    between atoms: C_5  and  C_14
    5  A    between atoms: C_10  and  C_25
    6  A    between atoms: C_18  and  C_19
                            x       y       z     vdW  Elec       q    Type
                         _______ _______ _______ _____ _____    ______ ____

>  <TORSDO>
F 6

$$$$
=
 OpenBabel10232411533D

 31 36  0  0  1  0  0  0  0  0999 V2000
  188.4830  178.5930  143.5120 N   0  0  0  0  0  0  0  0  0  0  0  0
  189.0350  178.2220  142.4090 C   0  0  0  0  0  3  0  0  0  0  0  0
  189.8190  177.4000  147.4570 C   0  0  0  0  0  0  0  0  0  0  0  0
  189.4700  177.3130  146.1420 C   0  0  0  0  0  0  0  0  0  0  0  0
  191.7050  176.5350  146.3650 C   0  0  1  0  0  3  0  0  0  0  0  0
  184.9210  177.8680  146.9010 C   0  0  0  0  0  1  0  0  0  0  0  0
  185.9600  178.3080  144.4110 S   0  0  0  0  0  0  0  0  0  0  0  0
  190.5660  176.7300  145.3410 C   0  0  0  0  0  2  0  0  0  0  0  0
  191.1980  176.9320  147.7200 C   0  0  2  0  0  3  0  0  0  0  0  0
  191.3290  175.5810  147.3340 O   0  0  0  0  0  0  0  0  0  0  0  0
  188.9560  177.9080  148.3760 N   0  0  0  0  0  0  0  0  0  0  0  0
  187.7370  178.3160  147.9970 N   0  0  0  0  0  0  0  0  0  0  0  0
  187.3440  178.2300  146.6910 C   0  0  0  0  0  0  0  0  0  0  0  0
  188.2090  177.7370  145.7330 C   0  0  0  0  0  0  0  0  0  0  0  0
  186.0120  178.6600  146.2070 C   0  0  2  0  0  3  0  0  0  0  0  0
  187.6950  177.7100  144.3420 C   0  0  2  0  0  3  0  0  0  0  0  0
  188.9290  176.8250  141.8790 C   0  0  0  0  0  2  0  0  0  0  0  0
  190.3110  176.3070  141.5400 C   0  0  0  0  0  2  0  0  0  0  0  0
  191.8720  177.6970  140.4540 O   0  0  0  0  0  0  0  0  0  0  0  0
  190.8550  177.0320  140.3470 C   0  0  0  0  0  0  0  0  0  0  0  0
  189.4000  178.2640  138.7530 C   0  0  0  0  0  2  0  0  0  0  0  0
  188.6610  178.1340  137.4630 C   0  0  0  0  0  3  0  0  0  0  0  0
  190.6320  176.9830  136.4670 C   0  0  1  0  0  3  0  0  0  0  0  0
  190.7010  175.5460  136.9640 C   0  0  1  0  0  0  0  0  0  0  0  0
  189.2270  177.5470  136.4090 C   0  0  0  0  0  0  0  0  0  0  0  0
  191.8060  174.7890  136.4040 N   0  0  0  0  0  1  0  0  0  0  0  0
  190.1550  176.9680  139.0250 C   0  0  1  0  0  3  0  0  0  0  0  0
  188.5110  177.4500  135.2240 O   0  0  0  0  0  1  0  0  0  0  0  0
  191.1560  176.6640  137.8940 C   0  0  2  0  0  3  0  0  0  0  0  0
  189.7260  173.4060  137.4270 O   0  0  0  0  0  1  0  0  0  0  0  0
  189.4260  174.7610  137.2880 C   0  0  0  0  0  2  0  0  0  0  0  0
  2  1  2  0  0  0  0
  3  9  1  0  0  0  0
  3 11  1  0  0  0  0
  4  3  2  0  0  0  0
  5  8  1  6  0  0  0
  5 10  1  0  0  0  0
  5  9  1  0  0  0  0
  7 15  1  0  0  0  0
  8  4  1  0  0  0  0
  9 10  1  1  0  0  0
 12 11  2  0  0  0  0
 13 12  1  0  0  0  0
 14  4  1  0  0  0  0
 14 13  2  0  0  0  0
 15 13  1  0  0  0  0
 15  6  1  1  0  0  0
 16  1  1  6  0  0  0
 16  7  1  0  0  0  0
 16 14  1  0  0  0  0
 17  2  1  0  0  0  0
 18 17  1  0  0  0  0
 20 19  2  0  0  0  0
 20 18  1  0  0  0  0
 21 27  1  0  0  0  0
 22 21  1  0  0  0  0
 23 25  1  1  0  0  0
 23 24  1  0  0  0  0
 23 29  1  0  0  0  0
 24 26  1  6  0  0  0
 24 31  1  0  0  0  0
 24 29  1  0  0  0  0
 25 22  2  0  0  0  0
 27 20  1  1  0  0  0
 28 25  1  0  0  0  0
 29 27  1  0  0  0  0
 31 30  1  0  0  0  0
M  END
>  <MODEL>
8

>  <REMARK>
 VINA RESULT:      -7.9      2.622      4.179
  Name = 
  6 active torsions:
  status: ('A' for Active; 'I' for Inactive)
    1  A    between atoms: C_2  and  C_5
    2  A    between atoms: C_2  and  C_10
    3  A    between atoms: N_3  and  C_31
    4  A    between atoms: C_5  and  C_14
    5  A    between atoms: C_10  and  C_25
    6  A    between atoms: C_18  and  C_19
                            x       y       z     vdW  Elec       q    Type
                         _______ _______ _______ _____ _____    ______ ____

>  <TORSDO>
F 6

$$$$
=
 OpenBabel10232411533D

 31 36  0  0  1  0  0  0  0  0999 V2000
  187.6570  178.8670  142.5980 N   0  0  0  0  0  0  0  0  0  0  0  0
  188.6150  178.3900  141.8800 C   0  0  0  0  0  3  0  0  0  0  0  0
  186.8070  178.2800  146.8050 C   0  0  0  0  0  0  0  0  0  0  0  0
  187.1550  178.0000  145.5180 C   0  0  0  0  0  0  0  0  0  0  0  0
  188.9510  177.3410  146.9290 C   0  0  1  0  0  3  0  0  0  0  0  0
  182.8560  178.4920  143.8270 C   0  0  0  0  0  1  0  0  0  0  0  0
  185.0130  178.6200  142.1520 S   0  0  0  0  0  0  0  0  0  0  0  0
  188.4810  177.3510  145.4580 C   0  0  0  0  0  2  0  0  0  0  0  0
  187.8530  177.9030  147.7810 C   0  0  2  0  0  3  0  0  0  0  0  0
  188.1060  176.5170  147.7020 O   0  0  0  0  0  0  0  0  0  0  0  0
  185.6210  178.8800  147.0930 N   0  0  0  0  0  0  0  0  0  0  0  0
  184.7690  179.1870  146.1060 N   0  0  0  0  0  0  0  0  0  0  0  0
  185.0750  178.9080  144.8030 C   0  0  0  0  0  0  0  0  0  0  0  0
  186.2810  178.3180  144.4820 C   0  0  0  0  0  0  0  0  0  0  0  0
  184.1770  179.2190  143.6670 C   0  0  2  0  0  3  0  0  0  0  0  0
  186.5270  178.0800  143.0380 C   0  0  2  0  0  3  0  0  0  0  0  0
  188.6620  176.9600  141.4380 C   0  0  0  0  0  2  0  0  0  0  0  0
  190.0490  176.4010  141.6860 C   0  0  0  0  0  2  0  0  0  0  0  0
  191.8660  177.8810  141.4430 O   0  0  0  0  0  0  0  0  0  0  0  0
  191.0600  177.1580  140.8800 C   0  0  0  0  0  0  0  0  0  0  0  0
  192.4410  176.5580  138.9030 C   0  0  0  0  0  2  0  0  0  0  0  0
  192.4480  176.5360  137.4100 C   0  0  0  0  0  3  0  0  0  0  0  0
  190.1270  175.6330  137.4280 C   0  0  1  0  0  3  0  0  0  0  0  0
  189.1390  176.7460  137.7470 C   0  0  1  0  0  0  0  0  0  0  0  0
  191.3850  176.1090  136.7300 C   0  0  0  0  0  0  0  0  0  0  0  0
  187.7530  176.3110  137.7450 N   0  0  0  0  0  1  0  0  0  0  0  0
  191.0840  177.0550  139.3860 C   0  0  1  0  0  3  0  0  0  0  0  0
  191.4300  176.0970  135.3430 O   0  0  0  0  0  1  0  0  0  0  0  0
  189.9500  176.1400  138.8860 C   0  0  2  0  0  3  0  0  0  0  0  0
  188.4240  179.0320  137.8260 O   0  0  0  0  0  1  0  0  0  0  0  0
  189.4060  178.1880  137.3080 C   0  0  0  0  0  2  0  0  0  0  0  0
  2  1  2  0  0  0  0
  3 11  1  0  0  0  0
  4  3  2  0  0  0  0
  5  8  1  6  0  0  0
  5 10  1  0  0  0  0
  5  9  1  0  0  0  0
  7 16  1  0  0  0  0
  7 15  1  0  0  0  0
  8  4  1  0  0  0  0
  9  3  1  6  0  0  0
 10  9  1  0  0  0  0
 12 11  2  0  0  0  0
 13 12  1  0  0  0  0
 14 13  2  0  0  0  0
 14  4  1  0  0  0  0
 15  6  1  1  0  0  0
 15 13  1  0  0  0  0
 16  1  1  6  0  0  0
 16 14  1  0  0  0  0
 17 18  1  0  0  0  0
 17  2  1  0  0  0  0
 20 19  2  0  0  0  0
 20 18  1  0  0  0  0
 21 27  1  0  0  0  0
 22 21  1  0  0  0  0
 23 25  1  6  0  0  0
 23 24  1  0  0  0  0
 23 29  1  0  0  0  0
 24 26  1  6  0  0  0
 24 29  1  0  0  0  0
 25 22  2  0  0  0  0
 27 20  1  1  0  0  0
 28 25  1  0  0  0  0
 29 27  1  0  0  0  0
 31 24  1  0  0  0  0
 31 30  1  0  0  0  0
M  END
>  <MODEL>
9

>  <REMARK>
 VINA RESULT:      -7.9      2.073      3.351
  Name = 
  6 active torsions:
  status: ('A' for Active; 'I' for Inactive)
    1  A    between atoms: C_2  and  C_5
    2  A    between atoms: C_2  and  C_10
    3  A    between atoms: N_3  and  C_31
    4  A    between atoms: C_5  and  C_14
    5  A    between atoms: C_10  and  C_25
    6  A    between atoms: C_18  and  C_19
                            x       y       z     vdW  Elec       q    Type
                         _______ _______ _______ _____ _____    ______ ____

>  <TORSDO>
F 6

$$$$
